
     RDKit          3D

 40 42  0  0  0  0  0  0  0  0999 V2000
   -6.4748   -1.5389    0.3819 C   0  0  0  0  0  0  0  0  0  0  0  0
   -6.4834    0.0475    1.1952 S   0  0  0  0  0  6  0  0  0  0  0  0
   -5.8220   -0.0839    2.4741 O   0  0  0  0  0  0  0  0  0  0  0  0
   -7.8265    0.5788    1.0961 O   0  0  0  0  0  0  0  0  0  0  0  0
   -5.5478    0.9909    0.1602 N   0  0  0  0  0  0  0  0  0  0  0  0
   -4.1948    0.6384   -0.1024 C   0  0  0  0  0  0  0  0  0  0  0  0
   -3.2535    0.5440    0.9234 C   0  0  0  0  0  0  0  0  0  0  0  0
   -1.9318    0.1861    0.6379 C   0  0  0  0  0  0  0  0  0  0  0  0
   -1.5447   -0.0619   -0.6845 C   0  0  0  0  0  0  0  0  0  0  0  0
   -0.1511   -0.4552   -1.0390 C   0  0  0  0  0  0  0  0  0  0  0  0
    0.0053   -1.2320   -1.9731 O   0  0  0  0  0  0  0  0  0  0  0  0
    0.8364    0.1439   -0.2790 N   0  0  0  0  0  0  0  0  0  0  0  0
    2.2293   -0.0683   -0.3648 C   0  0  0  0  0  0  0  0  0  0  0  0
    2.8249   -1.0143   -1.2035 C   0  0  0  0  0  0  0  0  0  0  0  0
    4.2164   -1.1641   -1.2323 C   0  0  0  0  0  0  0  0  0  0  0  0
    5.0203   -0.3685   -0.4229 C   0  0  0  0  0  0  0  0  0  0  0  0
    4.4327    0.5574    0.4408 C   0  0  0  0  0  0  0  0  0  0  0  0
    3.0463    0.7166    0.4600 C   0  0  0  0  0  0  0  0  0  0  0  0
    5.1549    1.3527    1.2948 O   0  0  0  0  0  0  0  0  0  0  0  0
    6.4986    0.8764    1.4384 C   0  0  0  0  0  0  0  0  0  0  0  0
    7.0931    0.5275    0.0839 C   0  0  0  0  0  0  0  0  0  0  0  0
    6.3748   -0.5546   -0.5193 O   0  0  0  0  0  0  0  0  0  0  0  0
   -2.4933    0.0298   -1.7110 C   0  0  0  0  0  0  0  0  0  0  0  0
   -3.8128    0.3877   -1.4213 C   0  0  0  0  0  0  0  0  0  0  0  0
   -6.8397   -1.4159   -0.6395 H   0  0  0  0  0  0  0  0  0  0  0  0
   -7.1451   -2.2003    0.9355 H   0  0  0  0  0  0  0  0  0  0  0  0
   -5.4636   -1.9484    0.3951 H   0  0  0  0  0  0  0  0  0  0  0  0
   -6.0949    1.3718   -0.6118 H   0  0  0  0  0  0  0  0  0  0  0  0
   -3.5339    0.7506    1.9542 H   0  0  0  0  0  0  0  0  0  0  0  0
   -1.2309    0.0805    1.4619 H   0  0  0  0  0  0  0  0  0  0  0  0
    0.5469    0.8646    0.3693 H   0  0  0  0  0  0  0  0  0  0  0  0
    2.2348   -1.6549   -1.8515 H   0  0  0  0  0  0  0  0  0  0  0  0
    4.6671   -1.8969   -1.8960 H   0  0  0  0  0  0  0  0  0  0  0  0
    2.6189    1.4543    1.1329 H   0  0  0  0  0  0  0  0  0  0  0  0
    7.0823    1.6703    1.9148 H   0  0  0  0  0  0  0  0  0  0  0  0
    6.4906    0.0083    2.1092 H   0  0  0  0  0  0  0  0  0  0  0  0
    7.0687    1.3860   -0.5988 H   0  0  0  0  0  0  0  0  0  0  0  0
    8.1348    0.2116    0.1977 H   0  0  0  0  0  0  0  0  0  0  0  0
   -2.2029   -0.1759   -2.7403 H   0  0  0  0  0  0  0  0  0  0  0  0
   -4.5296    0.4583   -2.2350 H   0  0  0  0  0  0  0  0  0  0  0  0
  1  2  1  0
  2  3  2  0
  2  4  2  0
  2  5  1  0
  5  6  1  0
  6  7  2  0
  7  8  1  0
  8  9  2  0
  9 10  1  0
 10 11  2  0
 10 12  1  0
 12 13  1  0
 13 14  2  0
 14 15  1  0
 15 16  2  0
 16 17  1  0
 17 18  2  0
 17 19  1  0
 19 20  1  0
 20 21  1  0
 21 22  1  0
  9 23  1  0
 23 24  2  0
 24  6  1  0
 18 13  1  0
 22 16  1  0
  1 25  1  0
  1 26  1  0
  1 27  1  0
  5 28  1  0
  7 29  1  0
  8 30  1  0
 12 31  1  0
 14 32  1  0
 15 33  1  0
 18 34  1  0
 20 35  1  0
 20 36  1  0
 21 37  1  0
 21 38  1  0
 23 39  1  0
 24 40  1  0
M  END
$$$$
