
     RDKit          3D

 60 64  0  0  0  0  0  0  0  0999 V2000
   -1.6979    2.7332   -3.3370 C   0  0  0  0  0  0  0  0  0  0  0  0
   -2.2415    2.1895   -2.0951 N   0  0  0  0  0  0  0  0  0  0  0  0
   -3.5522    1.7151   -2.1378 C   0  0  0  0  0  0  0  0  0  0  0  0
   -4.2203    1.7441   -3.1770 O   0  0  0  0  0  0  0  0  0  0  0  0
   -4.1566    1.1034   -0.9071 C   0  0  0  0  0  0  0  0  0  0  0  0
   -5.1320    0.1947   -1.1050 C   0  0  0  0  0  0  0  0  0  0  0  0
   -5.9138   -0.5204   -0.0880 C   0  0  0  0  0  0  0  0  0  0  0  0
   -5.8120   -1.9137    0.0001 C   0  0  0  0  0  0  0  0  0  0  0  0
   -6.5738   -2.6200    0.9351 C   0  0  0  0  0  0  0  0  0  0  0  0
   -7.4522   -1.9453    1.7965 C   0  0  0  0  0  0  0  0  0  0  0  0
   -8.2935   -2.6983    2.7971 C   0  0  0  0  0  0  0  0  0  0  0  0
   -7.8778   -3.9801    2.9998 F   0  0  0  0  0  0  0  0  0  0  0  0
   -9.5973   -2.7858    2.4163 F   0  0  0  0  0  0  0  0  0  0  0  0
   -8.3014   -2.1129    4.0274 F   0  0  0  0  0  0  0  0  0  0  0  0
   -7.5627   -0.5499    1.6914 C   0  0  0  0  0  0  0  0  0  0  0  0
   -6.8025    0.1553    0.7544 C   0  0  0  0  0  0  0  0  0  0  0  0
   -3.6427    1.6372    0.6423 S   0  0  0  0  0  0  0  0  0  0  0  0
   -1.9083    1.8427    0.3289 C   0  0  0  0  0  0  0  0  0  0  0  0
   -1.0581    1.8011    1.4500 C   0  0  0  0  0  0  0  0  0  0  0  0
    0.3119    2.0076    1.3170 C   0  0  0  0  0  0  0  0  0  0  0  0
    0.8417    2.2337    0.0504 C   0  0  0  0  0  0  0  0  0  0  0  0
    2.2870    2.4859   -0.1375 C   0  0  0  0  0  0  0  0  0  0  0  0
    2.6040    3.5590   -0.6432 O   0  0  0  0  0  0  0  0  0  0  0  0
    3.2005    1.5099    0.2398 N   0  0  0  0  0  0  0  0  0  0  0  0
    4.6304    1.7581    0.0298 C   0  0  0  0  0  0  0  0  0  0  0  0
    5.3231    0.6171   -0.7438 C   0  0  0  0  0  0  0  0  0  0  0  0
    5.0351   -0.7131   -0.1664 N   0  0  0  0  0  0  0  0  0  0  0  0
    6.1151   -1.5886   -0.0277 C   0  0  0  0  0  0  0  0  0  0  0  0
    7.0088   -1.7857   -1.0838 C   0  0  0  0  0  0  0  0  0  0  0  0
    8.0711   -2.6786   -0.9453 C   0  0  0  0  0  0  0  0  0  0  0  0
    8.2225   -3.3682    0.2468 C   0  0  0  0  0  0  0  0  0  0  0  0
    7.2955   -3.1361    1.2447 C   0  0  0  0  0  0  0  0  0  0  0  0
    6.2577   -2.2778    1.1266 N   0  0  0  0  0  0  0  0  0  0  0  0
    4.0662   -0.7489    0.9392 C   0  0  0  0  0  0  0  0  0  0  0  0
    2.8452    0.1295    0.6110 C   0  0  0  0  0  0  0  0  0  0  0  0
   -0.0004    2.3042   -1.0672 C   0  0  0  0  0  0  0  0  0  0  0  0
   -1.3894    2.1056   -0.9475 C   0  0  0  0  0  0  0  0  0  0  0  0
   -1.0204    1.9976   -3.7839 H   0  0  0  0  0  0  0  0  0  0  0  0
   -2.4811    2.9573   -4.0671 H   0  0  0  0  0  0  0  0  0  0  0  0
   -1.1694    3.6715   -3.1349 H   0  0  0  0  0  0  0  0  0  0  0  0
   -5.4048   -0.0836   -2.1236 H   0  0  0  0  0  0  0  0  0  0  0  0
   -5.1404   -2.4605   -0.6581 H   0  0  0  0  0  0  0  0  0  0  0  0
   -6.4787   -3.7040    0.9850 H   0  0  0  0  0  0  0  0  0  0  0  0
   -8.2476   -0.0039    2.3400 H   0  0  0  0  0  0  0  0  0  0  0  0
   -6.9166    1.2356    0.6842 H   0  0  0  0  0  0  0  0  0  0  0  0
   -1.4678    1.6174    2.4432 H   0  0  0  0  0  0  0  0  0  0  0  0
    0.9516    2.0048    2.1961 H   0  0  0  0  0  0  0  0  0  0  0  0
    4.7974    2.7074   -0.4902 H   0  0  0  0  0  0  0  0  0  0  0  0
    5.0796    1.8553    1.0264 H   0  0  0  0  0  0  0  0  0  0  0  0
    6.3981    0.8330   -0.7634 H   0  0  0  0  0  0  0  0  0  0  0  0
    4.9651    0.6166   -1.7805 H   0  0  0  0  0  0  0  0  0  0  0  0
    6.8708   -1.2664   -2.0261 H   0  0  0  0  0  0  0  0  0  0  0  0
    8.7641   -2.8371   -1.7664 H   0  0  0  0  0  0  0  0  0  0  0  0
    9.0330   -4.0725    0.3927 H   0  0  0  0  0  0  0  0  0  0  0  0
    7.3581   -3.6526    2.1978 H   0  0  0  0  0  0  0  0  0  0  0  0
    3.7101   -1.7725    1.1084 H   0  0  0  0  0  0  0  0  0  0  0  0
    4.5315   -0.3916    1.8674 H   0  0  0  0  0  0  0  0  0  0  0  0
    2.1796    0.1468    1.4779 H   0  0  0  0  0  0  0  0  0  0  0  0
    2.2915   -0.3000   -0.2334 H   0  0  0  0  0  0  0  0  0  0  0  0
    0.4671    2.4984   -2.0276 H   0  0  0  0  0  0  0  0  0  0  0  0
  1  2  1  0
  2  3  1  0
  3  4  2  0
  3  5  1  0
  5  6  2  3
  6  7  1  0
  7  8  2  0
  8  9  1  0
  9 10  2  0
 10 11  1  0
 11 12  1  0
 11 13  1  0
 11 14  1  0
 10 15  1  0
 15 16  2  0
  5 17  1  0
 17 18  1  0
 18 19  2  0
 19 20  1  0
 20 21  2  0
 21 22  1  0
 22 23  2  0
 22 24  1  0
 24 25  1  0
 25 26  1  0
 26 27  1  0
 27 28  1  0
 28 29  2  0
 29 30  1  0
 30 31  2  0
 31 32  1  0
 32 33  2  0
 27 34  1  0
 34 35  1  0
 21 36  1  0
 36 37  2  0
 37  2  1  0
 16  7  1  0
 37 18  1  0
 35 24  1  0
 33 28  1  0
  1 38  1  0
  1 39  1  0
  1 40  1  0
  6 41  1  0
  8 42  1  0
  9 43  1  0
 15 44  1  0
 16 45  1  0
 19 46  1  0
 20 47  1  0
 25 48  1  0
 25 49  1  0
 26 50  1  0
 26 51  1  0
 29 52  1  0
 30 53  1  0
 31 54  1  0
 32 55  1  0
 34 56  1  0
 34 57  1  0
 35 58  1  0
 35 59  1  0
 36 60  1  0
M  END
$$$$
