
     RDKit          3D

 57 61  0  0  0  0  0  0  0  0999 V2000
    1.6054    1.4701    4.5386 O   0  0  0  0  0  0  0  0  0  0  0  0
    1.9234    0.8112    3.5555 C   0  0  0  0  0  0  0  0  0  0  0  0
    0.9758    0.2961    2.6790 N   0  0  0  0  0  0  0  0  0  0  0  0
    1.2791   -0.4641    1.5551 C   0  0  0  0  0  0  0  0  0  0  0  0
    0.1024   -0.9372    0.7159 C   0  0  0  0  0  0  0  0  0  0  0  0
   -0.6638    0.2481    0.1190 C   0  0  0  0  0  0  0  0  0  0  0  0
   -1.8608   -0.2382   -0.6918 C   0  0  0  0  0  0  0  0  0  0  0  0
   -2.7455   -1.0493    0.1976 N   0  0  0  0  0  0  0  0  0  0  0  0
   -4.2825   -1.4198   -0.4954 S   0  0  0  0  0  6  0  0  0  0  0  0
   -5.0168   -2.2354    0.4444 O   0  0  0  0  0  0  0  0  0  0  0  0
   -4.0045   -1.8536   -1.8447 O   0  0  0  0  0  0  0  0  0  0  0  0
   -5.1078    0.1605   -0.5457 C   0  0  0  0  0  0  0  0  0  0  0  0
   -4.8788    1.0448    0.5227 C   0  0  0  0  0  0  0  0  0  0  0  0
   -5.4588    2.3114    0.5230 C   0  0  0  0  0  0  0  0  0  0  0  0
   -6.2729    2.6987   -0.5360 C   0  0  0  0  0  0  0  0  0  0  0  0
   -6.5211    1.8139   -1.5878 C   0  0  0  0  0  0  0  0  0  0  0  0
   -5.9564    0.5223   -1.6069 C   0  0  0  0  0  0  0  0  0  0  0  0
   -6.3003   -0.4065   -2.7476 C   0  0  0  0  0  0  0  0  0  0  0  0
   -6.5871   -1.6725   -2.3492 F   0  0  0  0  0  0  0  0  0  0  0  0
   -7.4099    0.0052   -3.4315 F   0  0  0  0  0  0  0  0  0  0  0  0
   -5.3178   -0.4783   -3.6827 F   0  0  0  0  0  0  0  0  0  0  0  0
   -2.0375   -2.2697    0.6853 C   0  0  0  0  0  0  0  0  0  0  0  0
   -0.8339   -1.8437    1.5217 C   0  0  0  0  0  0  0  0  0  0  0  0
    2.4921   -0.7792    1.1906 N   0  0  0  0  0  0  0  0  0  0  0  0
    3.4379   -0.2808    2.0255 C   0  0  0  0  0  0  0  0  0  0  0  0
    3.2630    0.4735    3.1607 C   0  0  0  0  0  0  0  0  0  0  0  0
    4.4621    0.7698    3.7305 N   0  0  0  0  0  0  0  0  0  0  0  0
    5.4080    0.2166    2.9718 N   0  0  0  0  0  0  0  0  0  0  0  0
    4.7948   -0.4032    1.9328 N   0  0  0  0  0  0  0  0  0  0  0  0
    5.5635   -1.1229    0.9396 C   0  0  0  0  0  0  0  0  0  0  0  0
    5.8658   -0.2581   -0.2586 C   0  0  0  0  0  0  0  0  0  0  0  0
    5.0437   -0.2999   -1.3971 C   0  0  0  0  0  0  0  0  0  0  0  0
    5.3184    0.5075   -2.5044 C   0  0  0  0  0  0  0  0  0  0  0  0
    6.4139    1.3681   -2.4827 C   0  0  0  0  0  0  0  0  0  0  0  0
    7.2226    1.4182   -1.3537 C   0  0  0  0  0  0  0  0  0  0  0  0
    8.2728    2.2489   -1.3326 F   0  0  0  0  0  0  0  0  0  0  0  0
    6.9594    0.6197   -0.2452 C   0  0  0  0  0  0  0  0  0  0  0  0
    0.0214    0.5113    2.9265 H   0  0  0  0  0  0  0  0  0  0  0  0
    0.5139   -1.5282   -0.1147 H   0  0  0  0  0  0  0  0  0  0  0  0
    0.0017    0.8398   -0.5210 H   0  0  0  0  0  0  0  0  0  0  0  0
   -1.0149    0.9201    0.9122 H   0  0  0  0  0  0  0  0  0  0  0  0
   -1.5229   -0.8384   -1.5448 H   0  0  0  0  0  0  0  0  0  0  0  0
   -2.3977    0.6335   -1.0780 H   0  0  0  0  0  0  0  0  0  0  0  0
   -4.2529    0.7488    1.3625 H   0  0  0  0  0  0  0  0  0  0  0  0
   -5.2800    2.9945    1.3503 H   0  0  0  0  0  0  0  0  0  0  0  0
   -6.7276    3.6870   -0.5395 H   0  0  0  0  0  0  0  0  0  0  0  0
   -7.1777    2.1363   -2.3968 H   0  0  0  0  0  0  0  0  0  0  0  0
   -2.7009   -2.8645    1.3215 H   0  0  0  0  0  0  0  0  0  0  0  0
   -1.7206   -2.8895   -0.1615 H   0  0  0  0  0  0  0  0  0  0  0  0
   -1.1902   -1.3272    2.4215 H   0  0  0  0  0  0  0  0  0  0  0  0
   -0.2900   -2.7311    1.8666 H   0  0  0  0  0  0  0  0  0  0  0  0
    6.4898   -1.4741    1.4095 H   0  0  0  0  0  0  0  0  0  0  0  0
    4.9957   -2.0148    0.6506 H   0  0  0  0  0  0  0  0  0  0  0  0
    4.1781   -0.9603   -1.4263 H   0  0  0  0  0  0  0  0  0  0  0  0
    4.6775    0.4662   -3.3818 H   0  0  0  0  0  0  0  0  0  0  0  0
    6.6403    2.0023   -3.3338 H   0  0  0  0  0  0  0  0  0  0  0  0
    7.6090    0.6964    0.6234 H   0  0  0  0  0  0  0  0  0  0  0  0
  1  2  2  0
  2  3  1  0
  3  4  1  0
  4  5  1  0
  5  6  1  0
  6  7  1  0
  7  8  1  0
  8  9  1  0
  9 10  2  0
  9 11  2  0
  9 12  1  0
 12 13  2  0
 13 14  1  0
 14 15  2  0
 15 16  1  0
 16 17  2  0
 17 18  1  0
 18 19  1  0
 18 20  1  0
 18 21  1  0
  8 22  1  0
 22 23  1  0
  4 24  2  0
 24 25  1  0
 25 26  2  0
 26 27  1  0
 27 28  2  0
 28 29  1  0
 29 30  1  0
 30 31  1  0
 31 32  2  0
 32 33  1  0
 33 34  2  0
 34 35  1  0
 35 36  1  0
 35 37  2  0
 26  2  1  0
 37 31  1  0
 23  5  1  0
 29 25  1  0
 17 12  1  0
  3 38  1  0
  5 39  1  0
  6 40  1  0
  6 41  1  0
  7 42  1  0
  7 43  1  0
 13 44  1  0
 14 45  1  0
 15 46  1  0
 16 47  1  0
 22 48  1  0
 22 49  1  0
 23 50  1  0
 23 51  1  0
 30 52  1  0
 30 53  1  0
 32 54  1  0
 33 55  1  0
 34 56  1  0
 37 57  1  0
M  END
$$$$
