
     RDKit          3D

 48 50  0  0  0  0  0  0  0  0999 V2000
   -5.5652   -0.7164    2.1681 C   0  0  0  0  0  0  0  0  0  0  0  0
   -5.6369   -0.2338    0.8337 O   0  0  0  0  0  0  0  0  0  0  0  0
   -4.5059    0.3305    0.3031 C   0  0  0  0  0  0  0  0  0  0  0  0
   -3.2433    0.2981    0.8987 C   0  0  0  0  0  0  0  0  0  0  0  0
   -2.1457    0.9025    0.2698 C   0  0  0  0  0  0  0  0  0  0  0  0
   -0.8352    0.8567    0.9341 C   0  0  0  0  0  0  0  0  0  0  0  0
    0.2654    0.2379    0.4599 C   0  0  0  0  0  0  0  0  0  0  0  0
    0.2775   -0.4602   -0.7773 C   0  0  0  0  0  0  0  0  0  0  0  0
    0.3801   -1.0392   -1.7776 N   0  0  0  0  0  0  0  0  0  0  0  0
    1.5137    0.2940    1.3072 C   0  0  0  0  0  0  0  0  0  0  0  0
    1.4880    0.8916    2.3794 O   0  0  0  0  0  0  0  0  0  0  0  0
    2.6137   -0.3612    0.7748 N   0  0  0  0  0  0  0  0  0  0  0  0
    3.9214   -0.4808    1.3291 C   0  0  0  0  0  0  0  0  0  0  0  0
    4.2554    0.1059    2.5543 C   0  0  0  0  0  0  0  0  0  0  0  0
    5.5382   -0.0217    3.0758 C   0  0  0  0  0  0  0  0  0  0  0  0
    6.5021   -0.7385    2.3758 C   0  0  0  0  0  0  0  0  0  0  0  0
    6.2230   -1.3374    1.1608 C   0  0  0  0  0  0  0  0  0  0  0  0
    7.2256   -2.0070    0.5664 N   0  0  0  0  0  0  0  0  0  0  0  0
    6.9878   -2.6030   -0.6176 C   0  0  0  0  0  0  0  0  0  0  0  0
    5.7688   -2.5635   -1.2547 C   0  0  0  0  0  0  0  0  0  0  0  0
    4.7325   -1.8690   -0.6367 C   0  0  0  0  0  0  0  0  0  0  0  0
    4.9219   -1.2203    0.6110 C   0  0  0  0  0  0  0  0  0  0  0  0
   -2.3143    1.5634   -0.9558 C   0  0  0  0  0  0  0  0  0  0  0  0
   -3.5672    1.6010   -1.5719 C   0  0  0  0  0  0  0  0  0  0  0  0
   -3.8360    2.2149   -2.7677 O   0  0  0  0  0  0  0  0  0  0  0  0
   -2.7672    2.8853   -3.4206 C   0  0  0  0  0  0  0  0  0  0  0  0
   -4.6518    0.9661   -0.9419 C   0  0  0  0  0  0  0  0  0  0  0  0
   -5.9017    1.0366   -1.5184 O   0  0  0  0  0  0  0  0  0  0  0  0
   -6.0974   -0.0799   -2.3845 C   0  0  0  0  0  0  0  0  0  0  0  0
   -6.5683   -1.0413    2.4606 H   0  0  0  0  0  0  0  0  0  0  0  0
   -4.9020   -1.5849    2.2351 H   0  0  0  0  0  0  0  0  0  0  0  0
   -5.2554    0.0728    2.8612 H   0  0  0  0  0  0  0  0  0  0  0  0
   -3.0892   -0.1978    1.8522 H   0  0  0  0  0  0  0  0  0  0  0  0
   -0.8116    1.3619    1.9000 H   0  0  0  0  0  0  0  0  0  0  0  0
    2.4962   -0.8207   -0.1161 H   0  0  0  0  0  0  0  0  0  0  0  0
    3.5426    0.6763    3.1400 H   0  0  0  0  0  0  0  0  0  0  0  0
    5.7873    0.4384    4.0288 H   0  0  0  0  0  0  0  0  0  0  0  0
    7.5031   -0.8328    2.7916 H   0  0  0  0  0  0  0  0  0  0  0  0
    7.8335   -3.1293   -1.0505 H   0  0  0  0  0  0  0  0  0  0  0  0
    5.6235   -3.0592   -2.2080 H   0  0  0  0  0  0  0  0  0  0  0  0
    3.7807   -1.8523   -1.1570 H   0  0  0  0  0  0  0  0  0  0  0  0
   -1.4578    2.0504   -1.4107 H   0  0  0  0  0  0  0  0  0  0  0  0
   -2.3804    3.7047   -2.8058 H   0  0  0  0  0  0  0  0  0  0  0  0
   -3.1598    3.3200   -4.3449 H   0  0  0  0  0  0  0  0  0  0  0  0
   -1.9711    2.1852   -3.6944 H   0  0  0  0  0  0  0  0  0  0  0  0
   -7.0971    0.0065   -2.8205 H   0  0  0  0  0  0  0  0  0  0  0  0
   -6.0502   -1.0260   -1.8342 H   0  0  0  0  0  0  0  0  0  0  0  0
   -5.3710   -0.0824   -3.2045 H   0  0  0  0  0  0  0  0  0  0  0  0
  1  2  1  0
  2  3  1  0
  3  4  2  0
  4  5  1  0
  5  6  1  0
  6  7  2  3
  7  8  1  0
  8  9  3  0
  7 10  1  0
 10 11  2  0
 10 12  1  0
 12 13  1  0
 13 14  2  0
 14 15  1  0
 15 16  2  0
 16 17  1  0
 17 18  2  0
 18 19  1  0
 19 20  2  0
 20 21  1  0
 21 22  2  0
  5 23  2  0
 23 24  1  0
 24 25  1  0
 25 26  1  0
 24 27  2  0
 27 28  1  0
 28 29  1  0
 27  3  1  0
 22 13  1  0
 22 17  1  0
  1 30  1  0
  1 31  1  0
  1 32  1  0
  4 33  1  0
  6 34  1  0
 12 35  1  0
 14 36  1  0
 15 37  1  0
 16 38  1  0
 19 39  1  0
 20 40  1  0
 21 41  1  0
 23 42  1  0
 26 43  1  0
 26 44  1  0
 26 45  1  0
 29 46  1  0
 29 47  1  0
 29 48  1  0
M  END
$$$$
