
     RDKit          3D

 60 63  0  0  0  0  0  0  0  0999 V2000
   -3.8605    0.5853    5.4451 C   0  0  0  0  0  0  0  0  0  0  0  0
   -3.0365    1.3774    4.6003 O   0  0  0  0  0  0  0  0  0  0  0  0
   -2.7661    0.8873    3.3541 C   0  0  0  0  0  0  0  0  0  0  0  0
   -1.8864    1.6694    2.5982 C   0  0  0  0  0  0  0  0  0  0  0  0
   -1.5055    1.2788    1.3137 C   0  0  0  0  0  0  0  0  0  0  0  0
   -2.0188    0.0976    0.7708 C   0  0  0  0  0  0  0  0  0  0  0  0
   -1.6169   -0.3246   -0.5208 N   0  0  0  0  0  0  0  0  0  0  0  0
   -2.4223   -0.7588   -1.5631 C   0  0  0  0  0  0  0  0  0  0  0  0
   -3.9123   -0.6591   -1.6187 C   0  0  0  0  0  0  0  0  0  0  0  0
   -4.3827    0.7561   -1.7956 C   0  0  0  0  0  0  0  0  0  0  0  0
   -5.0065    1.5899   -0.8822 C   0  0  0  0  0  0  0  0  0  0  0  0
   -5.2542    2.8284   -1.5176 C   0  0  0  0  0  0  0  0  0  0  0  0
   -4.7802    2.7265   -2.8038 C   0  0  0  0  0  0  0  0  0  0  0  0
   -4.2500    1.4710   -2.9685 N   0  0  0  0  0  0  0  0  0  0  0  0
   -3.6421    1.0127   -4.2021 C   0  0  0  0  0  0  0  0  0  0  0  0
   -1.6628   -1.1376   -2.5753 N   0  0  0  0  0  0  0  0  0  0  0  0
   -0.3571   -0.9179   -2.2422 N   0  0  0  0  0  0  0  0  0  0  0  0
   -0.3320   -0.4302   -1.0251 C   0  0  0  0  0  0  0  0  0  0  0  0
    1.1291   -0.1413   -0.1352 S   0  0  0  0  0  0  0  0  0  0  0  0
    1.1861   -1.6386    0.8890 C   0  0  0  0  0  0  0  0  0  0  0  0
    2.3203   -2.5359    0.4329 C   0  0  0  0  0  0  0  0  0  0  0  0
    2.1318   -3.5483   -0.2348 O   0  0  0  0  0  0  0  0  0  0  0  0
    3.5693   -2.1292    0.8646 N   0  0  0  0  0  0  0  0  0  0  0  0
    4.7817   -2.8082    0.4392 C   0  0  0  0  0  0  0  0  0  0  0  0
    5.3554   -2.2301   -0.8601 C   0  0  0  0  0  0  0  0  0  0  0  0
    5.8018   -0.7931   -0.7085 C   0  0  0  0  0  0  0  0  0  0  0  0
    5.0310    0.2492   -1.2419 C   0  0  0  0  0  0  0  0  0  0  0  0
    5.4256    1.5784   -1.0818 C   0  0  0  0  0  0  0  0  0  0  0  0
    6.5957    1.8776   -0.3888 C   0  0  0  0  0  0  0  0  0  0  0  0
    7.3725    0.8493    0.1433 C   0  0  0  0  0  0  0  0  0  0  0  0
    6.9777   -0.4811   -0.0139 C   0  0  0  0  0  0  0  0  0  0  0  0
   -2.9094   -0.6838    1.5162 C   0  0  0  0  0  0  0  0  0  0  0  0
   -3.2778   -0.2878    2.8070 C   0  0  0  0  0  0  0  0  0  0  0  0
   -3.4100   -0.3966    5.6269 H   0  0  0  0  0  0  0  0  0  0  0  0
   -3.9444    1.0971    6.4094 H   0  0  0  0  0  0  0  0  0  0  0  0
   -4.8682    0.4878    5.0328 H   0  0  0  0  0  0  0  0  0  0  0  0
   -1.4923    2.5936    3.0172 H   0  0  0  0  0  0  0  0  0  0  0  0
   -0.8383    1.9285    0.7475 H   0  0  0  0  0  0  0  0  0  0  0  0
   -4.2832   -1.2706   -2.4508 H   0  0  0  0  0  0  0  0  0  0  0  0
   -4.3720   -1.0948   -0.7276 H   0  0  0  0  0  0  0  0  0  0  0  0
   -5.2578    1.3319    0.1375 H   0  0  0  0  0  0  0  0  0  0  0  0
   -5.7265    3.7017   -1.0858 H   0  0  0  0  0  0  0  0  0  0  0  0
   -4.7724    3.4489   -3.6108 H   0  0  0  0  0  0  0  0  0  0  0  0
   -3.8655   -0.0465   -4.3481 H   0  0  0  0  0  0  0  0  0  0  0  0
   -4.0585    1.5821   -5.0385 H   0  0  0  0  0  0  0  0  0  0  0  0
   -2.5645    1.1817   -4.1296 H   0  0  0  0  0  0  0  0  0  0  0  0
    1.3549   -1.3465    1.9300 H   0  0  0  0  0  0  0  0  0  0  0  0
    0.2525   -2.2037    0.8606 H   0  0  0  0  0  0  0  0  0  0  0  0
    3.6752   -1.1641    1.1767 H   0  0  0  0  0  0  0  0  0  0  0  0
    5.5018   -2.7228    1.2644 H   0  0  0  0  0  0  0  0  0  0  0  0
    4.5622   -3.8765    0.2977 H   0  0  0  0  0  0  0  0  0  0  0  0
    6.2172   -2.8300   -1.1777 H   0  0  0  0  0  0  0  0  0  0  0  0
    4.6126   -2.3070   -1.6671 H   0  0  0  0  0  0  0  0  0  0  0  0
    4.1159    0.0326   -1.7893 H   0  0  0  0  0  0  0  0  0  0  0  0
    4.8188    2.3775   -1.5027 H   0  0  0  0  0  0  0  0  0  0  0  0
    6.9054    2.9110   -0.2667 H   0  0  0  0  0  0  0  0  0  0  0  0
    8.2905    1.0815    0.6792 H   0  0  0  0  0  0  0  0  0  0  0  0
    7.5975   -1.2706    0.4064 H   0  0  0  0  0  0  0  0  0  0  0  0
   -3.2909   -1.6291    1.1391 H   0  0  0  0  0  0  0  0  0  0  0  0
   -3.9579   -0.9267    3.3646 H   0  0  0  0  0  0  0  0  0  0  0  0
  1  2  1  0
  2  3  1  0
  3  4  2  0
  4  5  1  0
  5  6  2  0
  6  7  1  0
  7  8  1  0
  8  9  1  0
  9 10  1  0
 10 11  2  0
 11 12  1  0
 12 13  2  0
 13 14  1  0
 14 15  1  0
  8 16  2  0
 16 17  1  0
 17 18  2  0
 18 19  1  0
 19 20  1  0
 20 21  1  0
 21 22  2  0
 21 23  1  0
 23 24  1  0
 24 25  1  0
 25 26  1  0
 26 27  2  0
 27 28  1  0
 28 29  2  0
 29 30  1  0
 30 31  2  0
  6 32  1  0
 32 33  2  0
 33  3  1  0
 18  7  1  0
 31 26  1  0
 14 10  1  0
  1 34  1  0
  1 35  1  0
  1 36  1  0
  4 37  1  0
  5 38  1  0
  9 39  1  0
  9 40  1  0
 11 41  1  0
 12 42  1  0
 13 43  1  0
 15 44  1  0
 15 45  1  0
 15 46  1  0
 20 47  1  0
 20 48  1  0
 23 49  1  0
 24 50  1  0
 24 51  1  0
 25 52  1  0
 25 53  1  0
 27 54  1  0
 28 55  1  0
 29 56  1  0
 30 57  1  0
 31 58  1  0
 32 59  1  0
 33 60  1  0
M  END
$$$$
