
     RDKit          3D

 48 50  0  0  0  0  0  0  0  0999 V2000
    9.3512    1.0686    0.5858 C   0  0  0  0  0  0  0  0  0  0  0  0
    7.8980    1.3293    0.4328 C   0  0  0  0  0  0  0  0  0  0  0  0
    7.2714    2.5602    0.4338 C   0  0  0  0  0  0  0  0  0  0  0  0
    5.5858    2.3546    0.2106 S   0  0  0  0  0  0  0  0  0  0  0  0
    5.8088    0.6701    0.1355 C   0  0  0  0  0  0  0  0  0  0  0  0
    4.7840   -0.2214   -0.0447 N   0  0  0  0  0  0  0  0  0  0  0  0
    3.4491    0.0649   -0.2243 C   0  0  0  0  0  0  0  0  0  0  0  0
    2.9245    1.1717   -0.2607 O   0  0  0  0  0  0  0  0  0  0  0  0
    2.6338   -1.2028   -0.3924 C   0  0  0  0  0  0  0  0  0  0  0  0
    1.1621   -0.8848   -0.6158 C   0  0  0  0  0  0  0  0  0  0  0  0
    0.4030   -2.1260   -0.7655 N   0  0  0  0  0  0  0  0  0  0  0  0
   -0.4934   -2.7449    0.4979 S   0  0  0  0  0  6  0  0  0  0  0  0
    0.2867   -2.5909    1.7052 O   0  0  0  0  0  0  0  0  0  0  0  0
   -0.9935   -4.0287    0.0652 O   0  0  0  0  0  0  0  0  0  0  0  0
   -1.8690   -1.6291    0.5624 C   0  0  0  0  0  0  0  0  0  0  0  0
   -2.0686   -0.8171    1.6770 C   0  0  0  0  0  0  0  0  0  0  0  0
   -3.1509    0.0711    1.6993 C   0  0  0  0  0  0  0  0  0  0  0  0
   -4.0421    0.1568    0.6146 C   0  0  0  0  0  0  0  0  0  0  0  0
   -3.8240   -0.6732   -0.4853 C   0  0  0  0  0  0  0  0  0  0  0  0
   -2.7471   -1.5715   -0.5188 C   0  0  0  0  0  0  0  0  0  0  0  0
   -4.7336   -0.5964   -1.6379 C   0  0  0  0  0  0  0  0  0  0  0  0
   -4.5024   -1.2912   -2.6257 O   0  0  0  0  0  0  0  0  0  0  0  0
   -5.8016    0.2806   -1.5334 N   0  0  0  0  0  0  0  0  0  0  0  0
   -6.7060    0.3780   -2.6647 C   0  0  0  0  0  0  0  0  0  0  0  0
   -6.0123    1.1583   -0.4765 C   0  0  0  0  0  0  0  0  0  0  0  0
   -6.9277    1.9850   -0.5010 O   0  0  0  0  0  0  0  0  0  0  0  0
   -5.1369    1.0621    0.6025 N   0  0  0  0  0  0  0  0  0  0  0  0
   -5.3545    1.9443    1.7423 C   0  0  0  0  0  0  0  0  0  0  0  0
    7.0451    0.2489    0.2655 N   0  0  0  0  0  0  0  0  0  0  0  0
    9.7397    0.5747   -0.3093 H   0  0  0  0  0  0  0  0  0  0  0  0
    9.9091    1.9968    0.7363 H   0  0  0  0  0  0  0  0  0  0  0  0
    9.5320    0.4173    1.4474 H   0  0  0  0  0  0  0  0  0  0  0  0
    7.7086    3.5417    0.5478 H   0  0  0  0  0  0  0  0  0  0  0  0
    5.0997   -1.1814   -0.0426 H   0  0  0  0  0  0  0  0  0  0  0  0
    3.0297   -1.7664   -1.2465 H   0  0  0  0  0  0  0  0  0  0  0  0
    2.7592   -1.8181    0.5066 H   0  0  0  0  0  0  0  0  0  0  0  0
    1.0297   -0.2925   -1.5287 H   0  0  0  0  0  0  0  0  0  0  0  0
    0.7654   -0.2812    0.2082 H   0  0  0  0  0  0  0  0  0  0  0  0
    0.4874   -2.7038   -1.5970 H   0  0  0  0  0  0  0  0  0  0  0  0
   -1.3905   -0.8606    2.5278 H   0  0  0  0  0  0  0  0  0  0  0  0
   -3.2673    0.6923    2.5838 H   0  0  0  0  0  0  0  0  0  0  0  0
   -2.5952   -2.2146   -1.3842 H   0  0  0  0  0  0  0  0  0  0  0  0
   -6.6822   -0.5249   -3.2817 H   0  0  0  0  0  0  0  0  0  0  0  0
   -6.4001    1.2336   -3.2747 H   0  0  0  0  0  0  0  0  0  0  0  0
   -7.7326    0.5398   -2.3218 H   0  0  0  0  0  0  0  0  0  0  0  0
   -4.4883    2.6049    1.8582 H   0  0  0  0  0  0  0  0  0  0  0  0
   -5.5016    1.3421    2.6468 H   0  0  0  0  0  0  0  0  0  0  0  0
   -6.2424    2.5735    1.6176 H   0  0  0  0  0  0  0  0  0  0  0  0
  1  2  1  0
  2  3  2  0
  3  4  1  0
  4  5  1  0
  5  6  1  0
  6  7  1  0
  7  8  2  0
  7  9  1  0
  9 10  1  0
 10 11  1  0
 11 12  1  0
 12 13  2  0
 12 14  2  0
 12 15  1  0
 15 16  2  0
 16 17  1  0
 17 18  2  0
 18 19  1  0
 19 20  2  0
 19 21  1  0
 21 22  2  0
 21 23  1  0
 23 24  1  0
 23 25  1  0
 25 26  2  0
 25 27  1  0
 27 28  1  0
  5 29  2  0
 29  2  1  0
 20 15  1  0
 27 18  1  0
  1 30  1  0
  1 31  1  0
  1 32  1  0
  3 33  1  0
  6 34  1  0
  9 35  1  0
  9 36  1  0
 10 37  1  0
 10 38  1  0
 11 39  1  0
 16 40  1  0
 17 41  1  0
 20 42  1  0
 24 43  1  0
 24 44  1  0
 24 45  1  0
 28 46  1  0
 28 47  1  0
 28 48  1  0
M  END
$$$$
