
     RDKit          3D

 40 41  0  0  0  0  0  0  0  0999 V2000
   -6.9224   -0.4336    0.0442 C   0  0  0  0  0  0  0  0  0  0  0  0
   -5.4226   -0.4804    0.0139 C   0  0  0  0  0  0  0  0  0  0  0  0
   -4.7059   -0.8492    1.1470 C   0  0  0  0  0  0  0  0  0  0  0  0
   -3.3176   -0.8600    1.1051 C   0  0  0  0  0  0  0  0  0  0  0  0
   -2.6473   -0.4894   -0.0662 C   0  0  0  0  0  0  0  0  0  0  0  0
   -1.1832   -0.5313   -0.1234 C   0  0  0  0  0  0  0  0  0  0  0  0
   -0.4101    0.2114    0.6847 C   0  0  0  0  0  0  0  0  0  0  0  0
    1.0575    0.2047    0.6260 C   0  0  0  0  0  0  0  0  0  0  0  0
    1.7512    1.3936    0.8449 C   0  0  0  0  0  0  0  0  0  0  0  0
    3.1548    1.4207    0.8191 C   0  0  0  0  0  0  0  0  0  0  0  0
    3.9263    0.2718    0.5787 C   0  0  0  0  0  0  0  0  0  0  0  0
    5.3221    0.2978    0.5745 N   0  0  0  0  0  0  0  0  0  0  0  0
    6.0604   -0.8264    0.0003 C   0  0  0  0  0  0  0  0  0  0  0  0
    6.0258    1.5792    0.5830 C   0  0  0  0  0  0  0  0  0  0  0  0
    3.2017   -0.9174    0.3917 C   0  0  0  0  0  0  0  0  0  0  0  0
    1.7980   -0.9576    0.4154 C   0  0  0  0  0  0  0  0  0  0  0  0
   -3.3646   -0.1182   -1.1618 N   0  0  0  0  0  4  0  0  0  0  0  0
   -2.6813    0.3121   -2.3993 C   0  0  0  0  0  0  0  0  0  0  0  0
   -4.7194   -0.1075   -1.1300 C   0  0  0  0  0  0  0  0  0  0  0  0
   -7.3395   -0.5173   -0.9648 H   0  0  0  0  0  0  0  0  0  0  0  0
   -7.3231   -1.2658    0.6323 H   0  0  0  0  0  0  0  0  0  0  0  0
   -7.2585    0.5097    0.4856 H   0  0  0  0  0  0  0  0  0  0  0  0
   -5.2209   -1.1379    2.0637 H   0  0  0  0  0  0  0  0  0  0  0  0
   -2.7594   -1.1670    1.9887 H   0  0  0  0  0  0  0  0  0  0  0  0
   -0.7487   -1.1872   -0.8729 H   0  0  0  0  0  0  0  0  0  0  0  0
   -0.8409    0.8923    1.4182 H   0  0  0  0  0  0  0  0  0  0  0  0
    1.2215    2.3231    1.0405 H   0  0  0  0  0  0  0  0  0  0  0  0
    3.6286    2.3812    1.0018 H   0  0  0  0  0  0  0  0  0  0  0  0
    5.7801   -0.9852   -1.0466 H   0  0  0  0  0  0  0  0  0  0  0  0
    5.8871   -1.7450    0.5707 H   0  0  0  0  0  0  0  0  0  0  0  0
    7.1419   -0.6528    0.0277 H   0  0  0  0  0  0  0  0  0  0  0  0
    5.7999    2.1555   -0.3208 H   0  0  0  0  0  0  0  0  0  0  0  0
    7.1118    1.4371    0.6239 H   0  0  0  0  0  0  0  0  0  0  0  0
    5.7673    2.1683    1.4693 H   0  0  0  0  0  0  0  0  0  0  0  0
    3.7169   -1.8611    0.2378 H   0  0  0  0  0  0  0  0  0  0  0  0
    1.3122   -1.9213    0.2883 H   0  0  0  0  0  0  0  0  0  0  0  0
   -2.1470   -0.5490   -2.8086 H   0  0  0  0  0  0  0  0  0  0  0  0
   -2.0018    1.1317   -2.1519 H   0  0  0  0  0  0  0  0  0  0  0  0
   -3.4141    0.6653   -3.1293 H   0  0  0  0  0  0  0  0  0  0  0  0
   -5.2370    0.2050   -2.0331 H   0  0  0  0  0  0  0  0  0  0  0  0
  1  2  1  0
  2  3  2  0
  3  4  1  0
  4  5  2  0
  5  6  1  0
  6  7  2  3
  7  8  1  0
  8  9  2  0
  9 10  1  0
 10 11  2  0
 11 12  1  0
 12 13  1  0
 12 14  1  0
 11 15  1  0
 15 16  2  0
  5 17  1  0
 17 18  1  0
 17 19  2  0
 19  2  1  0
 16  8  1  0
  1 20  1  0
  1 21  1  0
  1 22  1  0
  3 23  1  0
  4 24  1  0
  6 25  1  0
  7 26  1  0
  9 27  1  0
 10 28  1  0
 13 29  1  0
 13 30  1  0
 13 31  1  0
 14 32  1  0
 14 33  1  0
 14 34  1  0
 15 35  1  0
 16 36  1  0
 18 37  1  0
 18 38  1  0
 18 39  1  0
 19 40  1  0
M  CHG  1  17   1
M  END
$$$$
