
     RDKit          3D

 31 31  0  0  0  0  0  0  0  0999 V2000
    3.0966   -0.8160    2.6734 C   0  0  0  0  0  0  0  0  0  0  0  0
    3.8262   -0.6920    1.4603 O   0  0  0  0  0  0  0  0  0  0  0  0
    3.1270    0.1075    0.5053 C   0  0  0  0  0  0  0  0  0  0  0  0
    1.9056   -0.5118    0.1014 O   0  0  0  0  0  0  0  0  0  0  0  0
    1.1649    0.3017   -0.7218 C   0  0  0  0  0  0  0  0  0  0  0  0
   -0.1781    0.3275   -0.7321 C   0  0  0  0  0  0  0  0  0  0  0  0
   -0.9486    1.1282   -1.5543 N   0  0  0  0  0  0  0  0  0  0  0  0
   -0.5274    2.0822   -2.4625 C   0  0  0  0  0  0  0  0  0  0  0  0
   -1.6747    2.7273   -3.1984 C   0  0  0  0  0  0  0  0  0  0  0  0
    0.6300    2.4331   -2.6659 O   0  0  0  0  0  0  0  0  0  0  0  0
   -0.9415   -0.5409    0.1904 C   0  0  0  0  0  0  0  0  0  0  0  0
   -0.9377   -1.9335    0.0352 C   0  0  0  0  0  0  0  0  0  0  0  0
   -1.6791   -2.7429    0.8983 C   0  0  0  0  0  0  0  0  0  0  0  0
   -2.4314   -2.1672    1.9212 C   0  0  0  0  0  0  0  0  0  0  0  0
   -2.4419   -0.7828    2.0852 C   0  0  0  0  0  0  0  0  0  0  0  0
   -1.7007    0.0282    1.2232 C   0  0  0  0  0  0  0  0  0  0  0  0
    2.8984    0.1686    3.1080 H   0  0  0  0  0  0  0  0  0  0  0  0
    3.7024   -1.3907    3.3793 H   0  0  0  0  0  0  0  0  0  0  0  0
    2.1573   -1.3530    2.5105 H   0  0  0  0  0  0  0  0  0  0  0  0
    2.9431    1.1028    0.9311 H   0  0  0  0  0  0  0  0  0  0  0  0
    3.7858    0.2124   -0.3642 H   0  0  0  0  0  0  0  0  0  0  0  0
    1.7795    0.8987   -1.3827 H   0  0  0  0  0  0  0  0  0  0  0  0
   -1.9497    0.9905   -1.4673 H   0  0  0  0  0  0  0  0  0  0  0  0
   -2.4886    2.0151   -3.3621 H   0  0  0  0  0  0  0  0  0  0  0  0
   -1.3279    3.0744   -4.1760 H   0  0  0  0  0  0  0  0  0  0  0  0
   -2.0430    3.5776   -2.6185 H   0  0  0  0  0  0  0  0  0  0  0  0
   -0.3480   -2.3936   -0.7550 H   0  0  0  0  0  0  0  0  0  0  0  0
   -1.6640   -3.8226    0.7742 H   0  0  0  0  0  0  0  0  0  0  0  0
   -3.0047   -2.7993    2.5947 H   0  0  0  0  0  0  0  0  0  0  0  0
   -3.0225   -0.3354    2.8877 H   0  0  0  0  0  0  0  0  0  0  0  0
   -1.7074    1.1060    1.3688 H   0  0  0  0  0  0  0  0  0  0  0  0
  1  2  1  0
  2  3  1  0
  3  4  1  0
  4  5  1  0
  5  6  2  3
  6  7  1  0
  7  8  1  0
  8  9  1  0
  8 10  2  0
  6 11  1  0
 11 12  2  0
 12 13  1  0
 13 14  2  0
 14 15  1  0
 15 16  2  0
 16 11  1  0
  1 17  1  0
  1 18  1  0
  1 19  1  0
  3 20  1  0
  3 21  1  0
  5 22  1  0
  7 23  1  0
  9 24  1  0
  9 25  1  0
  9 26  1  0
 12 27  1  0
 13 28  1  0
 14 29  1  0
 15 30  1  0
 16 31  1  0
M  END
$$$$
