
     RDKit          3D

 51 55  0  0  0  0  0  0  0  0999 V2000
    2.5185   -0.7968    3.1642 O   0  0  0  0  0  0  0  0  0  0  0  0
    2.0950    0.0653    2.3978 C   0  0  0  0  0  0  0  0  0  0  0  0
    1.1185    1.1532    2.8492 C   0  0  0  0  0  0  0  0  0  0  0  0
   -0.1872    0.9891    2.1914 N   0  0  0  0  0  0  0  0  0  0  0  0
   -0.3674    1.6089    0.9586 C   0  0  0  0  0  0  0  0  0  0  0  0
    0.5490    2.1850    0.3679 O   0  0  0  0  0  0  0  0  0  0  0  0
   -1.7534    1.5708    0.3668 C   0  0  0  0  0  0  0  0  0  0  0  0
   -1.9183    0.3655   -0.5442 C   0  0  0  0  0  0  0  0  0  0  0  0
   -3.3397    0.2293   -0.9916 C   0  0  0  0  0  0  0  0  0  0  0  0
   -4.5348   -0.0170   -0.3415 C   0  0  0  0  0  0  0  0  0  0  0  0
   -5.5421   -0.0118   -1.3360 C   0  0  0  0  0  0  0  0  0  0  0  0
   -4.9036    0.2406   -2.5266 C   0  0  0  0  0  0  0  0  0  0  0  0
   -3.5703    0.3958   -2.3278 O   0  0  0  0  0  0  0  0  0  0  0  0
   -1.3222   -1.2217    0.1629 S   0  0  0  0  0  0  0  0  0  0  0  0
   -1.6900   -0.9866    1.8995 C   0  0  0  0  0  0  0  0  0  0  0  0
   -2.5414   -1.9403    2.4805 C   0  0  0  0  0  0  0  0  0  0  0  0
   -2.8042   -1.9231    3.8487 C   0  0  0  0  0  0  0  0  0  0  0  0
   -2.2038   -0.9632    4.6543 C   0  0  0  0  0  0  0  0  0  0  0  0
   -1.3423   -0.0180    4.0926 C   0  0  0  0  0  0  0  0  0  0  0  0
   -1.0763   -0.0067    2.7129 C   0  0  0  0  0  0  0  0  0  0  0  0
    2.4687    0.1501    1.0767 N   0  0  0  0  0  0  0  0  0  0  0  0
    3.2579   -0.8820    0.4556 C   0  0  0  0  0  0  0  0  0  0  0  0
    3.4647   -0.5883   -1.0060 C   0  0  0  0  0  0  0  0  0  0  0  0
    4.6136    0.1130   -1.4383 C   0  0  0  0  0  0  0  0  0  0  0  0
    4.8005    0.4246   -2.7890 C   0  0  0  0  0  0  0  0  0  0  0  0
    3.8224    0.0354   -3.6777 C   0  0  0  0  0  0  0  0  0  0  0  0
    2.6964   -0.6366   -3.2662 C   0  0  0  0  0  0  0  0  0  0  0  0
    2.4863   -0.9621   -1.9432 C   0  0  0  0  0  0  0  0  0  0  0  0
    1.8543   -0.9173   -4.2958 O   0  0  0  0  0  0  0  0  0  0  0  0
    2.5768   -0.3387   -5.4017 C   0  0  0  0  0  0  0  0  0  0  0  0
    3.8333    0.2578   -5.0190 O   0  0  0  0  0  0  0  0  0  0  0  0
    1.5472    2.1300    2.5946 H   0  0  0  0  0  0  0  0  0  0  0  0
    1.0304    1.1254    3.9387 H   0  0  0  0  0  0  0  0  0  0  0  0
   -2.5076    1.6154    1.1626 H   0  0  0  0  0  0  0  0  0  0  0  0
   -1.9002    2.4969   -0.2054 H   0  0  0  0  0  0  0  0  0  0  0  0
   -1.2911    0.5217   -1.4317 H   0  0  0  0  0  0  0  0  0  0  0  0
   -4.6623   -0.1837    0.7192 H   0  0  0  0  0  0  0  0  0  0  0  0
   -6.6026   -0.1740   -1.2036 H   0  0  0  0  0  0  0  0  0  0  0  0
   -5.2374    0.3374   -3.5501 H   0  0  0  0  0  0  0  0  0  0  0  0
   -2.9937   -2.7203    1.8700 H   0  0  0  0  0  0  0  0  0  0  0  0
   -3.4626   -2.6694    4.2861 H   0  0  0  0  0  0  0  0  0  0  0  0
   -2.4012   -0.9506    5.7239 H   0  0  0  0  0  0  0  0  0  0  0  0
   -0.9126    0.7300    4.7546 H   0  0  0  0  0  0  0  0  0  0  0  0
    2.0177    0.8483    0.4861 H   0  0  0  0  0  0  0  0  0  0  0  0
    2.7474   -1.8439    0.5868 H   0  0  0  0  0  0  0  0  0  0  0  0
    4.2163   -0.9572    0.9833 H   0  0  0  0  0  0  0  0  0  0  0  0
    5.3654    0.4224   -0.7141 H   0  0  0  0  0  0  0  0  0  0  0  0
    5.6802    0.9600   -3.1261 H   0  0  0  0  0  0  0  0  0  0  0  0
    1.5852   -1.4869   -1.6432 H   0  0  0  0  0  0  0  0  0  0  0  0
    1.9500    0.4319   -5.8648 H   0  0  0  0  0  0  0  0  0  0  0  0
    2.7724   -1.1234   -6.1420 H   0  0  0  0  0  0  0  0  0  0  0  0
  1  2  2  0
  2  3  1  0
  3  4  1  0
  4  5  1  0
  5  6  2  0
  5  7  1  0
  7  8  1  0
  8  9  1  0
  9 10  2  0
 10 11  1  0
 11 12  2  0
 12 13  1  0
  8 14  1  0
 14 15  1  0
 15 16  2  0
 16 17  1  0
 17 18  2  0
 18 19  1  0
 19 20  2  0
  2 21  1  0
 21 22  1  0
 22 23  1  0
 23 24  2  0
 24 25  1  0
 25 26  2  0
 26 27  1  0
 27 28  2  0
 27 29  1  0
 29 30  1  0
 30 31  1  0
 20  4  1  0
 28 23  1  0
 13  9  1  0
 20 15  1  0
 31 26  1  0
  3 32  1  0
  3 33  1  0
  7 34  1  0
  7 35  1  0
  8 36  1  0
 10 37  1  0
 11 38  1  0
 12 39  1  0
 16 40  1  0
 17 41  1  0
 18 42  1  0
 19 43  1  0
 21 44  1  0
 22 45  1  0
 22 46  1  0
 24 47  1  0
 25 48  1  0
 28 49  1  0
 30 50  1  0
 30 51  1  0
M  END
$$$$
