
     RDKit          3D

 84 89  0  0  0  0  0  0  0  0999 V2000
   11.8605    1.2970    1.8042 C   0  0  0  0  0  0  0  0  0  0  0  0
   10.8750    0.7148    0.9507 O   0  0  0  0  0  0  0  0  0  0  0  0
    9.8224    0.1621    1.6166 C   0  0  0  0  0  0  0  0  0  0  0  0
    9.6937    0.1296    2.8341 O   0  0  0  0  0  0  0  0  0  0  0  0
    8.8280   -0.4248    0.6468 C   0  0  0  0  0  0  0  0  0  0  0  0
    8.1418    0.6666   -0.1672 C   0  0  0  0  0  0  0  0  0  0  0  0
    7.0906    0.1216   -1.1379 C   0  0  0  0  0  0  0  0  0  0  0  0
    5.8071   -0.3249   -0.4327 C   0  0  0  0  0  0  0  0  0  0  0  0
    4.7616   -0.9138   -1.3850 C   0  0  0  0  0  0  0  0  0  0  0  0
    4.2614    0.0180   -2.4943 C   0  0  0  0  0  0  0  0  0  0  0  0
    3.7276    1.3820   -2.0384 C   0  0  0  0  0  0  0  0  0  0  0  0
    2.5748    1.3255   -1.0341 C   0  0  0  0  0  0  0  0  0  0  0  0
    1.2633    0.8312   -1.6287 C   0  0  0  0  0  0  0  0  0  0  0  0
    1.1240    0.6563   -2.8394 O   0  0  0  0  0  0  0  0  0  0  0  0
    0.2252    0.6110   -0.7363 N   0  0  0  0  0  0  0  0  0  0  0  0
    0.3161    0.8020    0.7200 C   0  0  0  0  0  0  0  0  0  0  0  0
   -1.0700    0.9242    1.3877 C   0  0  0  0  0  0  0  0  0  0  0  0
   -1.9178   -0.2327    1.1159 N   0  0  0  0  0  0  0  0  0  0  0  0
   -1.7365   -0.8417   -0.2435 C   0  0  2  0  0  0  0  0  0  0  0  0
   -1.0543    0.1028   -1.2476 C   0  0  0  0  0  0  0  0  0  0  0  0
   -3.1111   -1.2435   -0.6094 C   0  0  0  0  0  0  0  0  0  0  0  0
   -4.0273   -0.8733    0.3754 C   0  0  0  0  0  0  0  0  0  0  0  0
   -5.2789   -1.2609   -0.0205 C   0  0  0  0  0  0  0  0  0  0  0  0
   -6.4437   -0.9754    0.5602 O   0  0  0  0  0  0  0  0  0  0  0  0
   -5.1314   -1.9781   -1.2256 N   0  0  0  0  0  0  0  0  0  0  0  0
   -6.1689   -2.6862   -1.9118 C   0  0  0  0  0  0  0  0  0  0  0  0
   -7.1993   -3.3032   -1.1843 C   0  0  0  0  0  0  0  0  0  0  0  0
   -8.2161   -3.9928   -1.8486 C   0  0  0  0  0  0  0  0  0  0  0  0
   -8.2114   -4.0721   -3.2394 C   0  0  0  0  0  0  0  0  0  0  0  0
   -7.1853   -3.4729   -3.9674 C   0  0  0  0  0  0  0  0  0  0  0  0
   -6.1614   -2.7881   -3.3080 C   0  0  0  0  0  0  0  0  0  0  0  0
   -3.7794   -1.8917   -1.6155 C   0  0  0  0  0  0  0  0  0  0  0  0
   -3.3178   -2.4460   -2.7336 O   0  0  0  0  0  0  0  0  0  0  0  0
   -3.3682   -0.1390    1.4750 C   0  0  1  0  0  0  0  0  0  0  0  0
   -3.6322   -0.7309    2.8845 C   0  0  0  0  0  0  0  0  0  0  0  0
   -3.3250   -1.8274    3.3301 O   0  0  0  0  0  0  0  0  0  0  0  0
   -4.2933    0.2568    3.6171 N   0  0  0  0  0  0  0  0  0  0  0  0
   -4.5354    1.3979    2.8566 C   0  0  0  0  0  0  0  0  0  0  0  0
   -4.0160    1.2230    1.5640 C   0  0  0  0  0  0  0  0  0  0  0  0
   -4.1692    2.2152    0.6065 C   0  0  0  0  0  0  0  0  0  0  0  0
   -4.8384    3.3847    0.9692 C   0  0  0  0  0  0  0  0  0  0  0  0
   -5.3458    3.5515    2.2722 C   0  0  0  0  0  0  0  0  0  0  0  0
   -6.1707    5.0350    2.6140 Cl  0  0  0  0  0  0  0  0  0  0  0  0
   -5.1986    2.5537    3.2547 C   0  0  0  0  0  0  0  0  0  0  0  0
   -5.7619    2.7195    4.6340 C   0  0  0  0  0  0  0  0  0  0  0  0
   11.4264    2.1153    2.3844 H   0  0  0  0  0  0  0  0  0  0  0  0
   12.2908    0.5404    2.4670 H   0  0  0  0  0  0  0  0  0  0  0  0
   12.6601    1.7020    1.1769 H   0  0  0  0  0  0  0  0  0  0  0  0
    8.0999   -0.9949    1.2324 H   0  0  0  0  0  0  0  0  0  0  0  0
    9.3487   -1.1404    0.0009 H   0  0  0  0  0  0  0  0  0  0  0  0
    8.8978    1.2097   -0.7475 H   0  0  0  0  0  0  0  0  0  0  0  0
    7.6873    1.4042    0.5046 H   0  0  0  0  0  0  0  0  0  0  0  0
    7.5130   -0.7096   -1.7166 H   0  0  0  0  0  0  0  0  0  0  0  0
    6.8507    0.9181   -1.8517 H   0  0  0  0  0  0  0  0  0  0  0  0
    6.0416   -1.0954    0.3106 H   0  0  0  0  0  0  0  0  0  0  0  0
    5.3793    0.5173    0.1254 H   0  0  0  0  0  0  0  0  0  0  0  0
    5.1788   -1.8134   -1.8561 H   0  0  0  0  0  0  0  0  0  0  0  0
    3.9054   -1.2579   -0.7929 H   0  0  0  0  0  0  0  0  0  0  0  0
    3.4818   -0.5104   -3.0560 H   0  0  0  0  0  0  0  0  0  0  0  0
    5.0727    0.1912   -3.2117 H   0  0  0  0  0  0  0  0  0  0  0  0
    4.5485    1.9583   -1.5954 H   0  0  0  0  0  0  0  0  0  0  0  0
    3.4100    1.9419   -2.9273 H   0  0  0  0  0  0  0  0  0  0  0  0
    2.8505    0.7057   -0.1760 H   0  0  0  0  0  0  0  0  0  0  0  0
    2.3969    2.3462   -0.6731 H   0  0  0  0  0  0  0  0  0  0  0  0
    0.9031    1.7000    0.9346 H   0  0  0  0  0  0  0  0  0  0  0  0
    0.8600   -0.0597    1.1263 H   0  0  0  0  0  0  0  0  0  0  0  0
   -1.5181    1.8494    1.0093 H   0  0  0  0  0  0  0  0  0  0  0  0
   -0.9391    1.0389    2.4703 H   0  0  0  0  0  0  0  0  0  0  0  0
   -1.1157   -1.7374   -0.1153 H   0  0  0  0  0  0  0  0  0  0  0  0
   -0.9069   -0.4114   -2.2047 H   0  0  0  0  0  0  0  0  0  0  0  0
   -1.6824    0.9803   -1.4524 H   0  0  0  0  0  0  0  0  0  0  0  0
   -7.1546   -1.0720   -0.0988 H   0  0  0  0  0  0  0  0  0  0  0  0
   -7.1986   -3.3092   -0.0955 H   0  0  0  0  0  0  0  0  0  0  0  0
   -9.0026   -4.4830   -1.2803 H   0  0  0  0  0  0  0  0  0  0  0  0
   -9.0012   -4.6110   -3.7557 H   0  0  0  0  0  0  0  0  0  0  0  0
   -7.1793   -3.5379   -5.0526 H   0  0  0  0  0  0  0  0  0  0  0  0
   -5.3873   -2.3168   -3.9073 H   0  0  0  0  0  0  0  0  0  0  0  0
   -2.3478   -2.3707   -2.7379 H   0  0  0  0  0  0  0  0  0  0  0  0
   -4.5913    0.0966    4.5663 H   0  0  0  0  0  0  0  0  0  0  0  0
   -3.7925    2.0850   -0.4028 H   0  0  0  0  0  0  0  0  0  0  0  0
   -4.9736    4.1704    0.2286 H   0  0  0  0  0  0  0  0  0  0  0  0
   -5.4260    1.9366    5.3200 H   0  0  0  0  0  0  0  0  0  0  0  0
   -6.8557    2.6913    4.6023 H   0  0  0  0  0  0  0  0  0  0  0  0
   -5.4380    3.6698    5.0703 H   0  0  0  0  0  0  0  0  0  0  0  0
  1  2  1  0
  2  3  1  0
  3  4  2  0
  3  5  1  0
  5  6  1  0
  6  7  1  0
  7  8  1  0
  8  9  1  0
  9 10  1  0
 10 11  1  0
 11 12  1  0
 12 13  1  0
 13 14  2  0
 13 15  1  0
 15 16  1  0
 16 17  1  0
 17 18  1  0
 18 19  1  0
 19 20  1  0
 19 21  1  0
 21 22  1  0
 22 23  2  0
 23 24  1  0
 23 25  1  0
 25 26  1  0
 26 27  2  0
 27 28  1  0
 28 29  2  0
 29 30  1  0
 30 31  2  0
 25 32  1  0
 32 33  1  0
 22 34  1  0
 34 35  1  0
 35 36  2  0
 35 37  1  0
 37 38  1  0
 38 39  2  0
 39 40  1  0
 40 41  2  0
 41 42  1  0
 42 43  1  0
 42 44  2  0
 44 45  1  0
 20 15  1  0
 32 21  2  0
 39 34  1  0
 34 18  1  6
 44 38  1  0
 31 26  1  0
  1 46  1  0
  1 47  1  0
  1 48  1  0
  5 49  1  0
  5 50  1  0
  6 51  1  0
  6 52  1  0
  7 53  1  0
  7 54  1  0
  8 55  1  0
  8 56  1  0
  9 57  1  0
  9 58  1  0
 10 59  1  0
 10 60  1  0
 11 61  1  0
 11 62  1  0
 12 63  1  0
 12 64  1  0
 16 65  1  0
 16 66  1  0
 17 67  1  0
 17 68  1  0
 19 69  1  1
 20 70  1  0
 20 71  1  0
 24 72  1  0
 27 73  1  0
 28 74  1  0
 29 75  1  0
 30 76  1  0
 31 77  1  0
 33 78  1  0
 37 79  1  0
 40 80  1  0
 41 81  1  0
 45 82  1  0
 45 83  1  0
 45 84  1  0
M  END
$$$$
