
     RDKit          3D

 60 63  0  0  0  0  0  0  0  0999 V2000
   -2.1876    2.2897    4.0903 C   0  0  0  0  0  0  0  0  0  0  0  0
   -2.7080    3.4202    3.5945 C   0  0  0  0  0  0  0  0  0  0  0  0
   -3.5827    3.6061    2.3785 C   0  0  0  0  0  0  0  0  0  0  0  0
   -3.8749    2.3547    1.6934 N   0  0  0  0  0  0  0  0  0  0  0  0
   -5.0274    1.6483    2.0276 C   0  0  0  0  0  0  0  0  0  0  0  0
   -5.8526    2.0430    2.8479 O   0  0  0  0  0  0  0  0  0  0  0  0
   -5.2629    0.3431    1.3439 C   0  0  0  0  0  0  0  0  0  0  0  0
   -6.3908   -0.4054    1.7126 C   0  0  0  0  0  0  0  0  0  0  0  0
   -6.6422   -1.6366    1.1112 C   0  0  0  0  0  0  0  0  0  0  0  0
   -5.7619   -2.1299    0.1447 C   0  0  0  0  0  0  0  0  0  0  0  0
   -4.6355   -1.3920   -0.2283 C   0  0  0  0  0  0  0  0  0  0  0  0
   -4.3874   -0.1442    0.3566 C   0  0  0  0  0  0  0  0  0  0  0  0
   -3.2903    0.6802    0.0245 N   0  0  0  0  0  0  0  0  0  0  0  0
   -2.2868    0.6301   -0.9278 C   0  0  0  0  0  0  0  0  0  0  0  0
   -2.1152   -0.5186   -2.2091 S   0  0  0  0  0  0  0  0  0  0  0  0
   -1.3287    0.5038   -3.4917 C   0  0  0  0  0  0  0  0  0  0  0  0
    0.0854    0.0367   -3.8003 C   0  0  0  0  0  0  0  0  0  0  0  0
    0.3985   -0.1961   -4.9651 O   0  0  0  0  0  0  0  0  0  0  0  0
    0.9054   -0.0319   -2.6862 N   0  0  0  0  0  0  0  0  0  0  0  0
    2.2523   -0.3653   -2.6473 C   0  0  0  0  0  0  0  0  0  0  0  0
    3.1367   -0.5546   -4.0719 S   0  0  0  0  0  0  0  0  0  0  0  0
    4.5748   -0.8959   -3.2368 C   0  0  0  0  0  0  0  0  0  0  0  0
    5.8128   -1.1789   -4.0132 C   0  0  0  0  0  0  0  0  0  0  0  0
    4.4121   -0.8584   -1.8601 C   0  0  0  0  0  0  0  0  0  0  0  0
    5.5456   -1.1058   -0.8961 C   0  0  0  0  0  0  0  0  0  0  0  0
    5.5960   -2.5473   -0.4033 C   0  0  0  0  0  0  0  0  0  0  0  0
    3.0233   -0.5527   -1.5063 C   0  0  0  0  0  0  0  0  0  0  0  0
    2.4202   -0.4507   -0.1691 C   0  0  0  0  0  0  0  0  0  0  0  0
    1.2203   -0.2436    0.0060 O   0  0  0  0  0  0  0  0  0  0  0  0
    3.3074   -0.6141    0.8511 O   0  0  0  0  0  0  0  0  0  0  0  0
    2.7408   -0.5332    2.1648 C   0  0  0  0  0  0  0  0  0  0  0  0
    3.8250   -0.8924    3.1604 C   0  0  0  0  0  0  0  0  0  0  0  0
   -1.4680    1.6480   -0.7764 N   0  0  0  0  0  0  0  0  0  0  0  0
   -1.9499    2.4307    0.2331 N   0  0  0  0  0  0  0  0  0  0  0  0
   -3.0473    1.8672    0.6950 C   0  0  0  0  0  0  0  0  0  0  0  0
   -2.3518    1.3236    3.6293 H   0  0  0  0  0  0  0  0  0  0  0  0
   -1.5743    2.3111    4.9865 H   0  0  0  0  0  0  0  0  0  0  0  0
   -2.4893    4.3438    4.1276 H   0  0  0  0  0  0  0  0  0  0  0  0
   -3.0981    4.2986    1.6797 H   0  0  0  0  0  0  0  0  0  0  0  0
   -4.5199    4.0783    2.6952 H   0  0  0  0  0  0  0  0  0  0  0  0
   -7.0760   -0.0288    2.4718 H   0  0  0  0  0  0  0  0  0  0  0  0
   -7.5176   -2.2113    1.3956 H   0  0  0  0  0  0  0  0  0  0  0  0
   -5.9509   -3.0984   -0.3177 H   0  0  0  0  0  0  0  0  0  0  0  0
   -3.9853   -1.8518   -0.9673 H   0  0  0  0  0  0  0  0  0  0  0  0
   -1.3045    1.5738   -3.2511 H   0  0  0  0  0  0  0  0  0  0  0  0
   -1.9286    0.3945   -4.4022 H   0  0  0  0  0  0  0  0  0  0  0  0
    0.4654    0.1189   -1.7748 H   0  0  0  0  0  0  0  0  0  0  0  0
    6.2769   -2.1059   -3.6686 H   0  0  0  0  0  0  0  0  0  0  0  0
    6.5317   -0.3630   -3.8795 H   0  0  0  0  0  0  0  0  0  0  0  0
    5.6199   -1.2924   -5.0875 H   0  0  0  0  0  0  0  0  0  0  0  0
    5.4893   -0.4139   -0.0462 H   0  0  0  0  0  0  0  0  0  0  0  0
    6.5005   -0.8682   -1.3827 H   0  0  0  0  0  0  0  0  0  0  0  0
    4.6778   -2.8273    0.1281 H   0  0  0  0  0  0  0  0  0  0  0  0
    6.4349   -2.6867    0.2857 H   0  0  0  0  0  0  0  0  0  0  0  0
    5.7285   -3.2414   -1.2403 H   0  0  0  0  0  0  0  0  0  0  0  0
    1.9081   -1.2341    2.2614 H   0  0  0  0  0  0  0  0  0  0  0  0
    2.3850    0.4888    2.3458 H   0  0  0  0  0  0  0  0  0  0  0  0
    3.4475   -0.8340    4.1858 H   0  0  0  0  0  0  0  0  0  0  0  0
    4.6828   -0.2233    3.0576 H   0  0  0  0  0  0  0  0  0  0  0  0
    4.1917   -1.9052    2.9753 H   0  0  0  0  0  0  0  0  0  0  0  0
  1  2  2  0
  2  3  1  0
  3  4  1  0
  4  5  1  0
  5  6  2  0
  5  7  1  0
  7  8  2  0
  8  9  1  0
  9 10  2  0
 10 11  1  0
 11 12  2  0
 12 13  1  0
 13 14  1  0
 14 15  1  0
 15 16  1  0
 16 17  1  0
 17 18  2  0
 17 19  1  0
 19 20  1  0
 20 21  1  0
 21 22  1  0
 22 23  1  0
 22 24  2  0
 24 25  1  0
 25 26  1  0
 24 27  1  0
 27 28  1  0
 28 29  2  0
 28 30  1  0
 30 31  1  0
 31 32  1  0
 14 33  2  0
 33 34  1  0
 34 35  2  0
 35  4  1  0
 12  7  1  0
 35 13  1  0
 27 20  2  0
  1 36  1  0
  1 37  1  0
  2 38  1  0
  3 39  1  0
  3 40  1  0
  8 41  1  0
  9 42  1  0
 10 43  1  0
 11 44  1  0
 16 45  1  0
 16 46  1  0
 19 47  1  0
 23 48  1  0
 23 49  1  0
 23 50  1  0
 25 51  1  0
 25 52  1  0
 26 53  1  0
 26 54  1  0
 26 55  1  0
 31 56  1  0
 31 57  1  0
 32 58  1  0
 32 59  1  0
 32 60  1  0
M  END
$$$$
