
     RDKit          3D

 26 27  0  0  0  0  0  0  0  0999 V2000
   -2.5286   -1.8904   -1.7927 C   0  0  0  0  0  0  0  0  0  0  0  0
   -2.1823   -1.8849   -0.4061 O   0  0  0  0  0  0  0  0  0  0  0  0
   -0.9591   -1.3020   -0.2108 C   0  0  0  0  0  0  0  0  0  0  0  0
    0.1733   -2.0956   -0.4081 C   0  0  0  0  0  0  0  0  0  0  0  0
    1.4350   -1.5857   -0.1208 C   0  0  0  0  0  0  0  0  0  0  0  0
    1.5645   -0.2821    0.3638 C   0  0  0  0  0  0  0  0  0  0  0  0
    2.8154    0.1351    0.7319 O   0  0  0  0  0  0  0  0  0  0  0  0
    3.5623    0.5714   -0.4057 C   0  0  0  0  0  0  0  0  0  0  0  0
    0.4291    0.5135    0.5903 C   0  0  0  0  0  0  0  0  0  0  0  0
   -0.8399    0.0006    0.3014 C   0  0  0  0  0  0  0  0  0  0  0  0
   -2.0307    0.8490    0.5377 C   0  0  0  0  0  0  0  0  0  0  0  0
   -3.0888    0.6476   -0.0448 O   0  0  0  0  0  0  0  0  0  0  0  0
   -1.8747    1.9746    1.4939 C   0  0  0  0  0  0  0  0  0  0  0  0
   -3.3357    2.6212    2.1567 Cl  0  0  0  0  0  0  0  0  0  0  0  0
   -0.6627    2.4644    1.7699 C   0  0  0  0  0  0  0  0  0  0  0  0
   -0.3977    3.8086    2.8257 Cl  0  0  0  0  0  0  0  0  0  0  0  0
    0.5452    1.8901    1.1242 C   0  0  0  0  0  0  0  0  0  0  0  0
    1.5807    2.5349    1.0185 O   0  0  0  0  0  0  0  0  0  0  0  0
   -1.9349   -2.6340   -2.3347 H   0  0  0  0  0  0  0  0  0  0  0  0
   -2.4031   -0.9017   -2.2483 H   0  0  0  0  0  0  0  0  0  0  0  0
   -3.5826   -2.1720   -1.8739 H   0  0  0  0  0  0  0  0  0  0  0  0
    0.0694   -3.1217   -0.7532 H   0  0  0  0  0  0  0  0  0  0  0  0
    2.3140   -2.2145   -0.2421 H   0  0  0  0  0  0  0  0  0  0  0  0
    3.8767   -0.2851   -1.0113 H   0  0  0  0  0  0  0  0  0  0  0  0
    4.4607    1.0790   -0.0424 H   0  0  0  0  0  0  0  0  0  0  0  0
    2.9943    1.2798   -1.0192 H   0  0  0  0  0  0  0  0  0  0  0  0
  1  2  1  0
  2  3  1  0
  3  4  2  0
  4  5  1  0
  5  6  2  0
  6  7  1  0
  7  8  1  0
  6  9  1  0
  9 10  2  0
 10 11  1  0
 11 12  2  0
 11 13  1  0
 13 14  1  0
 13 15  2  0
 15 16  1  0
 15 17  1  0
 17 18  2  0
 10  3  1  0
 17  9  1  0
  1 19  1  0
  1 20  1  0
  1 21  1  0
  4 22  1  0
  5 23  1  0
  8 24  1  0
  8 25  1  0
  8 26  1  0
M  END
$$$$
