
     RDKit          3D

 44 44  0  0  0  0  0  0  0  0999 V2000
   -3.1041   -0.1700    2.1196 C   0  0  0  0  0  0  0  0  0  0  0  0
   -3.4159    1.0693    1.2910 C   0  0  0  0  0  0  0  0  0  0  0  0
   -3.5289    0.7521   -0.1398 N   0  0  0  0  0  0  0  0  0  0  0  0
   -4.8770    0.8198   -0.7200 C   0  0  0  0  0  0  0  0  0  0  0  0
   -5.6088   -0.5057   -0.5742 C   0  0  0  0  0  0  0  0  0  0  0  0
   -2.4146    0.4618   -0.9234 C   0  0  0  0  0  0  0  0  0  0  0  0
   -2.5270   -0.0857   -2.2122 C   0  0  0  0  0  0  0  0  0  0  0  0
   -1.4087   -0.3755   -3.0045 C   0  0  0  0  0  0  0  0  0  0  0  0
   -0.1259   -0.1297   -2.5278 C   0  0  0  0  0  0  0  0  0  0  0  0
    0.0343    0.4023   -1.2551 C   0  0  0  0  0  0  0  0  0  0  0  0
    1.2275    0.6909   -0.6495 O   0  0  0  0  0  0  0  0  0  0  0  0
    2.4102    0.3099   -1.3408 C   0  0  0  0  0  0  0  0  0  0  0  0
    3.6458    0.6007   -0.4851 C   0  0  0  0  0  0  0  0  0  0  0  0
    4.5217    1.3608   -0.9066 O   0  0  0  0  0  0  0  0  0  0  0  0
    3.7677   -0.0438    0.7483 N   0  0  0  0  0  0  0  0  0  0  0  0
    2.7205   -0.8756    1.3285 C   0  0  0  0  0  0  0  0  0  0  0  0
    4.9040    0.3067    1.6074 C   0  0  0  0  0  0  0  0  0  0  0  0
    5.9303   -0.8148    1.7640 C   0  0  0  0  0  0  0  0  0  0  0  0
    6.5838   -1.1633    0.4968 C   0  0  0  0  0  0  0  0  0  0  0  0
    7.1173   -1.4861   -0.4822 N   0  0  0  0  0  0  0  0  0  0  0  0
   -1.0997    0.6930   -0.4785 C   0  0  0  0  0  0  0  0  0  0  0  0
   -2.1392   -0.6107    1.8529 H   0  0  0  0  0  0  0  0  0  0  0  0
   -3.8692   -0.9404    1.9822 H   0  0  0  0  0  0  0  0  0  0  0  0
   -3.0714    0.0879    3.1829 H   0  0  0  0  0  0  0  0  0  0  0  0
   -2.6741    1.8562    1.4667 H   0  0  0  0  0  0  0  0  0  0  0  0
   -4.3612    1.4858    1.6609 H   0  0  0  0  0  0  0  0  0  0  0  0
   -5.4605    1.6001   -0.2151 H   0  0  0  0  0  0  0  0  0  0  0  0
   -4.8535    1.1332   -1.7700 H   0  0  0  0  0  0  0  0  0  0  0  0
   -5.0560   -1.3280   -1.0385 H   0  0  0  0  0  0  0  0  0  0  0  0
   -6.5938   -0.4466   -1.0478 H   0  0  0  0  0  0  0  0  0  0  0  0
   -5.7595   -0.7581    0.4800 H   0  0  0  0  0  0  0  0  0  0  0  0
   -3.4982   -0.3199   -2.6369 H   0  0  0  0  0  0  0  0  0  0  0  0
   -1.5483   -0.7962   -3.9971 H   0  0  0  0  0  0  0  0  0  0  0  0
    0.7145   -0.3591   -3.1730 H   0  0  0  0  0  0  0  0  0  0  0  0
    2.4148   -0.7585   -1.5879 H   0  0  0  0  0  0  0  0  0  0  0  0
    2.5045    0.8969   -2.2626 H   0  0  0  0  0  0  0  0  0  0  0  0
    3.1641   -1.6278    1.9859 H   0  0  0  0  0  0  0  0  0  0  0  0
    2.1468   -1.3961    0.5601 H   0  0  0  0  0  0  0  0  0  0  0  0
    2.0530   -0.2343    1.9113 H   0  0  0  0  0  0  0  0  0  0  0  0
    5.4048    1.2057    1.2304 H   0  0  0  0  0  0  0  0  0  0  0  0
    4.4967    0.5720    2.5908 H   0  0  0  0  0  0  0  0  0  0  0  0
    5.4575   -1.7089    2.1846 H   0  0  0  0  0  0  0  0  0  0  0  0
    6.6930   -0.4955    2.4839 H   0  0  0  0  0  0  0  0  0  0  0  0
   -0.9173    1.1252    0.5003 H   0  0  0  0  0  0  0  0  0  0  0  0
  1  2  1  0
  2  3  1  0
  3  4  1  0
  4  5  1  0
  3  6  1  0
  6  7  2  0
  7  8  1  0
  8  9  2  0
  9 10  1  0
 10 11  1  0
 11 12  1  0
 12 13  1  0
 13 14  2  0
 13 15  1  0
 15 16  1  0
 15 17  1  0
 17 18  1  0
 18 19  1  0
 19 20  3  0
 10 21  2  0
 21  6  1  0
  1 22  1  0
  1 23  1  0
  1 24  1  0
  2 25  1  0
  2 26  1  0
  4 27  1  0
  4 28  1  0
  5 29  1  0
  5 30  1  0
  5 31  1  0
  7 32  1  0
  8 33  1  0
  9 34  1  0
 12 35  1  0
 12 36  1  0
 16 37  1  0
 16 38  1  0
 16 39  1  0
 17 40  1  0
 17 41  1  0
 18 42  1  0
 18 43  1  0
 21 44  1  0
M  END
$$$$
