
     RDKit          3D

 33 34  0  0  0  0  0  0  0  0999 V2000
    1.2610   -1.9528   -1.7007 O   0  0  0  0  0  0  0  0  0  0  0  0
    0.5702   -1.4314   -0.8342 C   0  0  0  0  0  0  0  0  0  0  0  0
   -0.7615   -0.8804   -1.1829 C   0  0  0  0  0  0  0  0  0  0  0  0
   -1.7995   -0.8560   -0.3331 C   0  0  0  0  0  0  0  0  0  0  0  0
   -3.1066   -0.3113   -0.7365 C   0  0  0  0  0  0  0  0  0  0  0  0
   -3.4296    1.0363   -0.4888 C   0  0  0  0  0  0  0  0  0  0  0  0
   -2.3294    2.1049    0.3173 Cl  0  0  0  0  0  0  0  0  0  0  0  0
   -4.6652    1.5636   -0.8814 C   0  0  0  0  0  0  0  0  0  0  0  0
   -5.5991    0.7554   -1.5254 C   0  0  0  0  0  0  0  0  0  0  0  0
   -5.2998   -0.5822   -1.7742 C   0  0  0  0  0  0  0  0  0  0  0  0
   -4.0652   -1.1134   -1.3831 C   0  0  0  0  0  0  0  0  0  0  0  0
   -3.7819   -2.7887   -1.7163 Cl  0  0  0  0  0  0  0  0  0  0  0  0
    0.9558   -1.2416    0.4662 N   0  0  0  0  0  0  0  0  0  0  0  0
    2.2909   -1.5659    0.9131 C   0  0  0  0  0  0  0  0  0  0  0  0
    3.1434   -0.3260    0.9932 C   0  0  0  0  0  0  0  0  0  0  0  0
    3.7418    0.1940   -0.1637 C   0  0  0  0  0  0  0  0  0  0  0  0
    4.5142    1.3544   -0.1018 C   0  0  0  0  0  0  0  0  0  0  0  0
    4.6917    2.0096    1.1152 C   0  0  0  0  0  0  0  0  0  0  0  0
    4.0950    1.5071    2.2704 C   0  0  0  0  0  0  0  0  0  0  0  0
    3.3213    0.3465    2.2105 C   0  0  0  0  0  0  0  0  0  0  0  0
   -0.8509   -0.5521   -2.2136 H   0  0  0  0  0  0  0  0  0  0  0  0
   -1.7384   -1.2391    0.6807 H   0  0  0  0  0  0  0  0  0  0  0  0
   -4.9042    2.6068   -0.6862 H   0  0  0  0  0  0  0  0  0  0  0  0
   -6.5589    1.1661   -1.8306 H   0  0  0  0  0  0  0  0  0  0  0  0
   -6.0338   -1.2108   -2.2742 H   0  0  0  0  0  0  0  0  0  0  0  0
    0.4237   -0.6046    1.0414 H   0  0  0  0  0  0  0  0  0  0  0  0
    2.7569   -2.3063    0.2532 H   0  0  0  0  0  0  0  0  0  0  0  0
    2.1971   -2.0277    1.9023 H   0  0  0  0  0  0  0  0  0  0  0  0
    3.6017   -0.3061   -1.1213 H   0  0  0  0  0  0  0  0  0  0  0  0
    4.9743    1.7471   -1.0047 H   0  0  0  0  0  0  0  0  0  0  0  0
    5.2932    2.9135    1.1624 H   0  0  0  0  0  0  0  0  0  0  0  0
    4.2316    2.0209    3.2183 H   0  0  0  0  0  0  0  0  0  0  0  0
    2.8601   -0.0298    3.1206 H   0  0  0  0  0  0  0  0  0  0  0  0
  1  2  2  0
  2  3  1  0
  3  4  2  3
  4  5  1  0
  5  6  2  0
  6  7  1  0
  6  8  1  0
  8  9  2  0
  9 10  1  0
 10 11  2  0
 11 12  1  0
  2 13  1  0
 13 14  1  0
 14 15  1  0
 15 16  2  0
 16 17  1  0
 17 18  2  0
 18 19  1  0
 19 20  2  0
 11  5  1  0
 20 15  1  0
  3 21  1  0
  4 22  1  0
  8 23  1  0
  9 24  1  0
 10 25  1  0
 13 26  1  0
 14 27  1  0
 14 28  1  0
 16 29  1  0
 17 30  1  0
 18 31  1  0
 19 32  1  0
 20 33  1  0
M  END
$$$$
