
     RDKit          3D

 56 58  0  0  0  0  0  0  0  0999 V2000
    7.1650   -1.7334   -4.0670 C   0  0  0  0  0  0  0  0  0  0  0  0
    6.6605   -2.2958   -2.8625 O   0  0  0  0  0  0  0  0  0  0  0  0
    6.3993   -1.4289   -1.8374 C   0  0  0  0  0  0  0  0  0  0  0  0
    5.9022   -2.0282   -0.6784 C   0  0  0  0  0  0  0  0  0  0  0  0
    5.5920   -1.2592    0.4455 C   0  0  0  0  0  0  0  0  0  0  0  0
    5.7835    0.1275    0.4296 C   0  0  0  0  0  0  0  0  0  0  0  0
    5.4246    0.9600    1.6324 C   0  0  0  0  0  0  0  0  0  0  0  0
    4.0393    1.3478    1.5930 N   0  0  0  0  0  0  0  0  0  0  0  0
    3.0564    0.6261    2.2270 C   0  0  0  0  0  0  0  0  0  0  0  0
    3.2212   -0.3094    2.9973 O   0  0  0  0  0  0  0  0  0  0  0  0
    1.6269    1.0914    1.8663 C   0  0  0  0  0  0  0  0  0  0  0  0
    1.4573    1.9769    1.0403 O   0  0  0  0  0  0  0  0  0  0  0  0
    0.6352    0.4059    2.5276 N   0  0  0  0  0  0  0  0  0  0  0  0
   -0.7638    0.5573    2.1634 C   0  0  0  0  0  0  0  0  0  0  0  0
   -1.1143   -0.0689    0.7961 C   0  0  0  0  0  0  0  0  0  0  0  0
   -0.7144   -1.4627    0.8118 O   0  0  0  0  0  0  0  0  0  0  0  0
   -1.8970   -2.2548    0.6862 C   0  0  0  0  0  0  0  0  0  0  0  0
   -2.8834   -1.3647   -0.0302 C   0  0  0  0  0  0  0  0  0  0  0  0
   -2.5775   -0.0546    0.5604 N   0  0  0  0  0  0  0  0  0  0  0  0
   -3.1240    1.3135   -0.2673 S   0  0  0  0  0  6  0  0  0  0  0  0
   -2.6907    1.1987   -1.6432 O   0  0  0  0  0  0  0  0  0  0  0  0
   -2.8043    2.4767    0.5296 O   0  0  0  0  0  0  0  0  0  0  0  0
   -4.8860    1.1039   -0.2151 C   0  0  0  0  0  0  0  0  0  0  0  0
   -5.5916    0.8017   -1.3814 C   0  0  0  0  0  0  0  0  0  0  0  0
   -6.9765    0.6387   -1.3213 C   0  0  0  0  0  0  0  0  0  0  0  0
   -7.6591    0.7925   -0.1061 C   0  0  0  0  0  0  0  0  0  0  0  0
   -9.1450    0.5885   -0.0447 C   0  0  0  0  0  0  0  0  0  0  0  0
   -6.9355    1.0917    1.0567 C   0  0  0  0  0  0  0  0  0  0  0  0
   -5.5508    1.2564    1.0043 C   0  0  0  0  0  0  0  0  0  0  0  0
    6.2726    0.7271   -0.7385 C   0  0  0  0  0  0  0  0  0  0  0  0
    6.5818   -0.0463   -1.8638 C   0  0  0  0  0  0  0  0  0  0  0  0
    7.3176   -2.5502   -4.7792 H   0  0  0  0  0  0  0  0  0  0  0  0
    8.1338   -1.2510   -3.9016 H   0  0  0  0  0  0  0  0  0  0  0  0
    6.4456   -1.0364   -4.5097 H   0  0  0  0  0  0  0  0  0  0  0  0
    5.7508   -3.1047   -0.6508 H   0  0  0  0  0  0  0  0  0  0  0  0
    5.1947   -1.7487    1.3332 H   0  0  0  0  0  0  0  0  0  0  0  0
    5.6403    0.4091    2.5550 H   0  0  0  0  0  0  0  0  0  0  0  0
    6.0236    1.8770    1.6536 H   0  0  0  0  0  0  0  0  0  0  0  0
    3.7226    2.0047    0.8853 H   0  0  0  0  0  0  0  0  0  0  0  0
    0.9333   -0.4295    3.0249 H   0  0  0  0  0  0  0  0  0  0  0  0
   -1.0032    1.6249    2.1736 H   0  0  0  0  0  0  0  0  0  0  0  0
   -1.3383    0.0719    2.9605 H   0  0  0  0  0  0  0  0  0  0  0  0
   -0.5582    0.4052   -0.0195 H   0  0  0  0  0  0  0  0  0  0  0  0
   -1.6783   -3.1765    0.1403 H   0  0  0  0  0  0  0  0  0  0  0  0
   -2.2433   -2.5111    1.6938 H   0  0  0  0  0  0  0  0  0  0  0  0
   -3.9139   -1.6772    0.1527 H   0  0  0  0  0  0  0  0  0  0  0  0
   -2.6778   -1.3676   -1.1058 H   0  0  0  0  0  0  0  0  0  0  0  0
   -5.0780    0.6938   -2.3339 H   0  0  0  0  0  0  0  0  0  0  0  0
   -7.5241    0.3981   -2.2305 H   0  0  0  0  0  0  0  0  0  0  0  0
   -9.5846    1.1467    0.7889 H   0  0  0  0  0  0  0  0  0  0  0  0
   -9.6240    0.9443   -0.9629 H   0  0  0  0  0  0  0  0  0  0  0  0
   -9.3709   -0.4744    0.0857 H   0  0  0  0  0  0  0  0  0  0  0  0
   -7.4492    1.2060    2.0093 H   0  0  0  0  0  0  0  0  0  0  0  0
   -4.9984    1.5027    1.9085 H   0  0  0  0  0  0  0  0  0  0  0  0
    6.4162    1.8045   -0.7831 H   0  0  0  0  0  0  0  0  0  0  0  0
    6.9596    0.4634   -2.7437 H   0  0  0  0  0  0  0  0  0  0  0  0
  1  2  1  0
  2  3  1  0
  3  4  2  0
  4  5  1  0
  5  6  2  0
  6  7  1  0
  7  8  1  0
  8  9  1  0
  9 10  2  0
  9 11  1  0
 11 12  2  0
 11 13  1  0
 13 14  1  0
 14 15  1  0
 15 16  1  0
 16 17  1  0
 17 18  1  0
 18 19  1  0
 19 20  1  0
 20 21  2  0
 20 22  2  0
 20 23  1  0
 23 24  2  0
 24 25  1  0
 25 26  2  0
 26 27  1  0
 26 28  1  0
 28 29  2  0
  6 30  1  0
 30 31  2  0
 31  3  1  0
 19 15  1  0
 29 23  1  0
  1 32  1  0
  1 33  1  0
  1 34  1  0
  4 35  1  0
  5 36  1  0
  7 37  1  0
  7 38  1  0
  8 39  1  0
 13 40  1  0
 14 41  1  0
 14 42  1  0
 15 43  1  0
 17 44  1  0
 17 45  1  0
 18 46  1  0
 18 47  1  0
 24 48  1  0
 25 49  1  0
 27 50  1  0
 27 51  1  0
 27 52  1  0
 28 53  1  0
 29 54  1  0
 30 55  1  0
 31 56  1  0
M  END
$$$$
