
     RDKit          3D

 40 41  0  0  0  0  0  0  0  0999 V2000
    5.0127    0.6054   -5.6141 C   0  0  0  0  0  0  0  0  0  0  0  0
    4.8854   -0.7975   -5.0368 C   0  0  0  0  0  0  0  0  0  0  0  0
    4.6027   -0.7901   -3.5357 C   0  0  0  0  0  0  0  0  0  0  0  0
    3.1778   -0.3850   -3.1788 C   0  0  0  0  0  0  0  0  0  0  0  0
    2.3090   -0.2274   -4.0275 O   0  0  0  0  0  0  0  0  0  0  0  0
    3.0214   -0.2549   -1.8067 N   0  0  0  0  0  0  0  0  0  0  0  0
    1.8529    0.1063   -1.1053 C   0  0  0  0  0  0  0  0  0  0  0  0
    0.6387    0.4208   -1.7168 C   0  0  0  0  0  0  0  0  0  0  0  0
   -0.4765    0.7714   -0.9454 C   0  0  0  0  0  0  0  0  0  0  0  0
   -0.3941    0.8029    0.4502 C   0  0  0  0  0  0  0  0  0  0  0  0
   -1.6086    1.1804    1.2243 C   0  0  0  0  0  0  0  0  0  0  0  0
   -2.5204    1.8168    0.7017 O   0  0  0  0  0  0  0  0  0  0  0  0
   -1.6621    0.7494    2.5375 N   0  0  0  0  0  0  0  0  0  0  0  0
   -2.8980    0.8889    3.1973 N   0  0  0  0  0  0  0  0  0  0  0  0
   -3.3286   -0.1573    3.9976 C   0  0  0  0  0  0  0  0  0  0  0  0
   -2.5530   -1.0656    4.3065 O   0  0  0  0  0  0  0  0  0  0  0  0
   -4.7199   -0.1154    4.4237 C   0  0  0  0  0  0  0  0  0  0  0  0
   -5.3675   -1.0443    5.2193 C   0  0  0  0  0  0  0  0  0  0  0  0
   -6.7334   -0.7131    5.4522 C   0  0  0  0  0  0  0  0  0  0  0  0
   -7.0897    0.4600    4.8272 C   0  0  0  0  0  0  0  0  0  0  0  0
   -5.7832    1.1510    3.9688 S   0  0  0  0  0  0  0  0  0  0  0  0
    0.8239    0.5031    1.0689 C   0  0  0  0  0  0  0  0  0  0  0  0
    1.9366    0.1551    0.2929 C   0  0  0  0  0  0  0  0  0  0  0  0
    5.2476    0.5527   -6.6820 H   0  0  0  0  0  0  0  0  0  0  0  0
    4.0844    1.1731   -5.5020 H   0  0  0  0  0  0  0  0  0  0  0  0
    5.8159    1.1608   -5.1191 H   0  0  0  0  0  0  0  0  0  0  0  0
    5.8274   -1.3299   -5.2140 H   0  0  0  0  0  0  0  0  0  0  0  0
    4.1028   -1.3447   -5.5746 H   0  0  0  0  0  0  0  0  0  0  0  0
    4.7548   -1.8040   -3.1453 H   0  0  0  0  0  0  0  0  0  0  0  0
    5.3064   -0.1234   -3.0235 H   0  0  0  0  0  0  0  0  0  0  0  0
    3.8378   -0.4475   -1.2403 H   0  0  0  0  0  0  0  0  0  0  0  0
    0.5204    0.4086   -2.7962 H   0  0  0  0  0  0  0  0  0  0  0  0
   -1.4118    1.0170   -1.4462 H   0  0  0  0  0  0  0  0  0  0  0  0
   -1.0965   -0.0366    2.8564 H   0  0  0  0  0  0  0  0  0  0  0  0
   -3.5781    1.4991    2.7432 H   0  0  0  0  0  0  0  0  0  0  0  0
   -4.8737   -1.9254    5.6147 H   0  0  0  0  0  0  0  0  0  0  0  0
   -7.4182   -1.3056    6.0470 H   0  0  0  0  0  0  0  0  0  0  0  0
   -8.0560    0.9462    4.8322 H   0  0  0  0  0  0  0  0  0  0  0  0
    0.9394    0.5569    2.1478 H   0  0  0  0  0  0  0  0  0  0  0  0
    2.8712   -0.0708    0.8011 H   0  0  0  0  0  0  0  0  0  0  0  0
  1  2  1  0
  2  3  1  0
  3  4  1  0
  4  5  2  0
  4  6  1  0
  6  7  1  0
  7  8  2  0
  8  9  1  0
  9 10  2  0
 10 11  1  0
 11 12  2  0
 11 13  1  0
 13 14  1  0
 14 15  1  0
 15 16  2  0
 15 17  1  0
 17 18  2  0
 18 19  1  0
 19 20  2  0
 20 21  1  0
 10 22  1  0
 22 23  2  0
 23  7  1  0
 21 17  1  0
  1 24  1  0
  1 25  1  0
  1 26  1  0
  2 27  1  0
  2 28  1  0
  3 29  1  0
  3 30  1  0
  6 31  1  0
  8 32  1  0
  9 33  1  0
 13 34  1  0
 14 35  1  0
 18 36  1  0
 19 37  1  0
 20 38  1  0
 22 39  1  0
 23 40  1  0
M  END
$$$$
