
     RDKit          3D

 71 72  0  0  0  0  0  0  0  0999 V2000
   -5.5722   -1.4834   -1.8346 C   0  0  0  0  0  0  0  0  0  0  0  0
   -5.1515   -0.9895   -0.5667 O   0  0  0  0  0  0  0  0  0  0  0  0
   -4.3105    0.0932   -0.6435 C   0  0  0  0  0  0  0  0  0  0  0  0
   -4.5911    1.1803   -1.4718 C   0  0  0  0  0  0  0  0  0  0  0  0
   -3.7506    2.2878   -1.4657 C   0  0  0  0  0  0  0  0  0  0  0  0
   -2.6414    2.3169   -0.6203 C   0  0  0  0  0  0  0  0  0  0  0  0
   -2.3338    1.2433    0.2438 C   0  0  0  0  0  0  0  0  0  0  0  0
   -1.0840    1.3874    1.1278 C   0  0  0  0  0  0  0  0  0  0  0  0
   -0.9026    0.4429    2.3610 C   0  0  0  0  0  0  0  0  0  0  0  0
    0.1399   -0.1744    2.5818 O   0  0  0  0  0  0  0  0  0  0  0  0
   -1.9570    0.4745    3.2674 N   0  0  0  0  0  0  0  0  0  0  0  0
   -1.9958   -0.3032    4.5171 C   0  0  0  0  0  0  0  0  0  0  0  0
   -1.9486   -1.8142    4.2420 C   0  0  0  0  0  0  0  0  0  0  0  0
   -3.3225    0.0214    5.2293 C   0  0  0  0  0  0  0  0  0  0  0  0
   -0.8450    0.0980    5.4557 C   0  0  0  0  0  0  0  0  0  0  0  0
    0.1747    1.5146    0.3317 N   0  0  0  0  0  0  0  0  0  0  0  0
    0.5525    0.3890   -0.4096 C   0  0  0  0  0  0  0  0  0  0  0  0
   -0.1698   -0.6007   -0.5335 O   0  0  0  0  0  0  0  0  0  0  0  0
    1.8980    0.4292   -1.1123 C   0  0  0  0  0  0  0  0  0  0  0  0
    2.1865   -0.8805   -1.8418 C   0  0  0  0  0  0  0  0  0  0  0  0
    3.4796   -0.8134   -2.6268 C   0  0  0  0  0  0  0  0  0  0  0  0
    4.0986    0.2334   -2.7877 O   0  0  0  0  0  0  0  0  0  0  0  0
    3.8324   -2.0441   -3.1325 N   0  0  0  0  0  0  0  0  0  0  0  0
    4.9395   -2.2972   -3.9104 C   0  0  0  0  0  0  0  0  0  0  0  0
    5.9108   -1.4014   -4.4090 C   0  0  0  0  0  0  0  0  0  0  0  0
    6.7787   -2.1926   -5.1197 C   0  0  0  0  0  0  0  0  0  0  0  0
    8.0049   -1.9394   -5.8936 C   0  0  0  0  0  0  0  0  0  0  0  0
    6.3560   -3.4825   -5.0571 O   0  0  0  0  0  0  0  0  0  0  0  0
    5.2030   -3.5512   -4.2968 N   0  0  0  0  0  0  0  0  0  0  0  0
    1.1156    2.6189    0.6519 C   0  0  0  0  0  0  0  0  0  0  0  0
    1.7564    2.4570    2.0310 C   0  0  0  0  0  0  0  0  0  0  0  0
    0.5011    4.0125    0.4947 C   0  0  0  0  0  0  0  0  0  0  0  0
   -3.1847    0.1235    0.2072 C   0  0  0  0  0  0  0  0  0  0  0  0
   -2.9468   -0.9115    1.0729 O   0  0  0  0  0  0  0  0  0  0  0  0
   -2.6536   -2.1367    0.3972 C   0  0  0  0  0  0  0  0  0  0  0  0
   -5.9259   -2.5100   -1.6934 H   0  0  0  0  0  0  0  0  0  0  0  0
   -6.4074   -0.8932   -2.2216 H   0  0  0  0  0  0  0  0  0  0  0  0
   -4.7475   -1.5117   -2.5568 H   0  0  0  0  0  0  0  0  0  0  0  0
   -5.4717    1.1939   -2.1059 H   0  0  0  0  0  0  0  0  0  0  0  0
   -3.9634    3.1354   -2.1124 H   0  0  0  0  0  0  0  0  0  0  0  0
   -2.0093    3.2003   -0.6397 H   0  0  0  0  0  0  0  0  0  0  0  0
   -1.2333    2.3595    1.6169 H   0  0  0  0  0  0  0  0  0  0  0  0
   -2.8583    0.6182    2.8221 H   0  0  0  0  0  0  0  0  0  0  0  0
   -2.0296   -2.3882    5.1728 H   0  0  0  0  0  0  0  0  0  0  0  0
   -1.0144   -2.1138    3.7565 H   0  0  0  0  0  0  0  0  0  0  0  0
   -2.7727   -2.1217    3.5884 H   0  0  0  0  0  0  0  0  0  0  0  0
   -3.3996    1.0917    5.4523 H   0  0  0  0  0  0  0  0  0  0  0  0
   -4.1823   -0.2422    4.6025 H   0  0  0  0  0  0  0  0  0  0  0  0
   -3.4167   -0.5269    6.1729 H   0  0  0  0  0  0  0  0  0  0  0  0
    0.1350   -0.1527    5.0403 H   0  0  0  0  0  0  0  0  0  0  0  0
   -0.9266   -0.4124    6.4223 H   0  0  0  0  0  0  0  0  0  0  0  0
   -0.8526    1.1773    5.6434 H   0  0  0  0  0  0  0  0  0  0  0  0
    2.6894    0.6005   -0.3757 H   0  0  0  0  0  0  0  0  0  0  0  0
    1.8858    1.2564   -1.8306 H   0  0  0  0  0  0  0  0  0  0  0  0
    1.3800   -1.1108   -2.5486 H   0  0  0  0  0  0  0  0  0  0  0  0
    2.2498   -1.7036   -1.1193 H   0  0  0  0  0  0  0  0  0  0  0  0
    3.2864   -2.8674   -2.9127 H   0  0  0  0  0  0  0  0  0  0  0  0
    5.9746   -0.3317   -4.2740 H   0  0  0  0  0  0  0  0  0  0  0  0
    7.8166   -2.0740   -6.9628 H   0  0  0  0  0  0  0  0  0  0  0  0
    8.8009   -2.6290   -5.5941 H   0  0  0  0  0  0  0  0  0  0  0  0
    8.3641   -0.9174   -5.7348 H   0  0  0  0  0  0  0  0  0  0  0  0
    1.9349    2.5967   -0.0705 H   0  0  0  0  0  0  0  0  0  0  0  0
    2.2429    1.4807    2.1242 H   0  0  0  0  0  0  0  0  0  0  0  0
    2.5191    3.2259    2.1951 H   0  0  0  0  0  0  0  0  0  0  0  0
    1.0182    2.5474    2.8339 H   0  0  0  0  0  0  0  0  0  0  0  0
    1.2657    4.7839    0.6378 H   0  0  0  0  0  0  0  0  0  0  0  0
   -0.2935    4.2094    1.2191 H   0  0  0  0  0  0  0  0  0  0  0  0
    0.0897    4.1411   -0.5115 H   0  0  0  0  0  0  0  0  0  0  0  0
   -1.8158   -2.6138    0.9139 H   0  0  0  0  0  0  0  0  0  0  0  0
   -2.3783   -2.0050   -0.6553 H   0  0  0  0  0  0  0  0  0  0  0  0
   -3.5209   -2.8005    0.4739 H   0  0  0  0  0  0  0  0  0  0  0  0
  1  2  1  0
  2  3  1  0
  3  4  2  0
  4  5  1  0
  5  6  2  0
  6  7  1  0
  7  8  1  0
  8  9  1  0
  9 10  2  0
  9 11  1  0
 11 12  1  0
 12 13  1  0
 12 14  1  0
 12 15  1  0
  8 16  1  0
 16 17  1  0
 17 18  2  0
 17 19  1  0
 19 20  1  0
 20 21  1  0
 21 22  2  0
 21 23  1  0
 23 24  1  0
 24 25  1  0
 25 26  2  0
 26 27  1  0
 26 28  1  0
 28 29  1  0
 16 30  1  0
 30 31  1  0
 30 32  1  0
  7 33  2  0
 33 34  1  0
 34 35  1  0
 33  3  1  0
 29 24  2  0
  1 36  1  0
  1 37  1  0
  1 38  1  0
  4 39  1  0
  5 40  1  0
  6 41  1  0
  8 42  1  0
 11 43  1  0
 13 44  1  0
 13 45  1  0
 13 46  1  0
 14 47  1  0
 14 48  1  0
 14 49  1  0
 15 50  1  0
 15 51  1  0
 15 52  1  0
 19 53  1  0
 19 54  1  0
 20 55  1  0
 20 56  1  0
 23 57  1  0
 25 58  1  0
 27 59  1  0
 27 60  1  0
 27 61  1  0
 30 62  1  0
 31 63  1  0
 31 64  1  0
 31 65  1  0
 32 66  1  0
 32 67  1  0
 32 68  1  0
 35 69  1  0
 35 70  1  0
 35 71  1  0
M  END
$$$$
