
     RDKit          3D

 24 25  0  0  0  0  0  0  0  0999 V2000
    4.6717    0.7894    0.3273 C   0  0  0  0  0  0  0  0  0  0  0  0
    2.8701    0.9351    0.3278 S   0  0  0  0  0  0  0  0  0  0  0  0
    2.4107   -0.5959   -0.3418 C   0  0  0  0  0  0  0  0  0  0  0  0
    3.2767   -1.5036   -0.7392 N   0  0  0  0  0  0  0  0  0  0  0  0
    2.5510   -2.5027   -1.3132 N   0  0  0  0  0  0  0  0  0  0  0  0
    1.2585   -2.2282   -1.2827 N   0  0  0  0  0  0  0  0  0  0  0  0
    1.1218   -1.0374   -0.6304 N   0  0  0  0  0  0  0  0  0  0  0  0
   -0.1853   -0.5204   -0.3849 C   0  0  0  0  0  0  0  0  0  0  0  0
   -1.2820   -1.1420   -1.0091 C   0  0  0  0  0  0  0  0  0  0  0  0
   -2.5858   -0.6776   -0.8063 C   0  0  0  0  0  0  0  0  0  0  0  0
   -2.8334    0.4150    0.0316 C   0  0  0  0  0  0  0  0  0  0  0  0
   -4.2440    0.8920    0.2325 C   0  0  0  0  0  0  0  0  0  0  0  0
   -1.7432    1.0236    0.6675 C   0  0  0  0  0  0  0  0  0  0  0  0
   -1.9639    2.3645    1.7377 Cl  0  0  0  0  0  0  0  0  0  0  0  0
   -0.4334    0.5610    0.4655 C   0  0  0  0  0  0  0  0  0  0  0  0
    5.1051    1.7048    0.7390 H   0  0  0  0  0  0  0  0  0  0  0  0
    5.0486    0.6574   -0.6908 H   0  0  0  0  0  0  0  0  0  0  0  0
    4.9915   -0.0526    0.9475 H   0  0  0  0  0  0  0  0  0  0  0  0
   -1.1479   -1.9945   -1.6753 H   0  0  0  0  0  0  0  0  0  0  0  0
   -3.4074   -1.1818   -1.3128 H   0  0  0  0  0  0  0  0  0  0  0  0
   -4.3428    1.9365   -0.0800 H   0  0  0  0  0  0  0  0  0  0  0  0
   -4.9538    0.3054   -0.3608 H   0  0  0  0  0  0  0  0  0  0  0  0
   -4.5341    0.7934    1.2835 H   0  0  0  0  0  0  0  0  0  0  0  0
    0.3511    1.0588    1.0207 H   0  0  0  0  0  0  0  0  0  0  0  0
  1  2  1  0
  2  3  1  0
  3  4  2  0
  4  5  1  0
  5  6  2  0
  6  7  1  0
  7  8  1  0
  8  9  2  0
  9 10  1  0
 10 11  2  0
 11 12  1  0
 11 13  1  0
 13 14  1  0
 13 15  2  0
  7  3  1  0
 15  8  1  0
  1 16  1  0
  1 17  1  0
  1 18  1  0
  9 19  1  0
 10 20  1  0
 12 21  1  0
 12 22  1  0
 12 23  1  0
 15 24  1  0
M  END
$$$$
