
     RDKit          3D

 51 55  0  0  0  0  0  0  0  0999 V2000
    9.0444   -1.7092    0.7741 Cl  0  0  0  0  0  0  0  0  0  0  0  0
    7.5223   -0.9450    0.4837 C   0  0  0  0  0  0  0  0  0  0  0  0
    7.1371    0.0863    1.3447 C   0  0  0  0  0  0  0  0  0  0  0  0
    5.9161    0.7392    1.1597 C   0  0  0  0  0  0  0  0  0  0  0  0
    5.0676    0.3710    0.1084 C   0  0  0  0  0  0  0  0  0  0  0  0
    3.7371    1.0640   -0.0811 C   0  0  0  0  0  0  0  0  0  0  0  0
    2.6036    0.3224    0.6498 C   0  0  0  0  0  0  0  0  0  0  0  0
    1.3210    1.0448    0.5964 N   0  0  0  0  0  0  0  0  0  0  0  0
    0.3465    0.4857    1.5668 C   0  0  0  0  0  0  0  0  0  0  0  0
   -0.2406   -0.8944    1.1850 C   0  0  0  0  0  0  0  0  0  0  0  0
   -0.8530   -0.8537   -0.1577 N   0  0  0  0  0  0  0  0  0  0  0  0
   -2.1975   -0.4941   -0.2578 C   0  0  0  0  0  0  0  0  0  0  0  0
   -2.5272    0.5686   -0.9475 N   0  0  0  0  0  0  0  0  0  0  0  0
   -3.8723    0.9777   -1.0380 C   0  0  0  0  0  0  0  0  0  0  0  0
   -4.1667    2.1303   -1.7686 C   0  0  0  0  0  0  0  0  0  0  0  0
   -5.4828    2.5864   -1.8824 C   0  0  0  0  0  0  0  0  0  0  0  0
   -6.5214    1.8902   -1.2627 C   0  0  0  0  0  0  0  0  0  0  0  0
   -6.2507    0.7357   -0.5273 C   0  0  0  0  0  0  0  0  0  0  0  0
   -4.9291    0.2925   -0.4218 C   0  0  0  0  0  0  0  0  0  0  0  0
   -4.5689   -0.8639    0.2884 N   0  0  0  0  0  0  0  0  0  0  0  0
   -5.3615   -1.7561    0.9712 C   0  0  0  0  0  0  0  0  0  0  0  0
   -4.5575   -2.7694    1.4473 C   0  0  0  0  0  0  0  0  0  0  0  0
   -3.2324   -2.4734    1.0519 C   0  0  0  0  0  0  0  0  0  0  0  0
   -3.2562   -1.2710    0.3675 C   0  0  0  0  0  0  0  0  0  0  0  0
    0.0895   -0.3354   -1.1706 C   0  0  0  0  0  0  0  0  0  0  0  0
    0.6889    1.0266   -0.7481 C   0  0  0  0  0  0  0  0  0  0  0  0
    5.4570   -0.6677   -0.7501 C   0  0  0  0  0  0  0  0  0  0  0  0
    6.6798   -1.3235   -0.5662 C   0  0  0  0  0  0  0  0  0  0  0  0
    7.0834   -2.5922   -1.6679 Cl  0  0  0  0  0  0  0  0  0  0  0  0
    7.7848    0.3876    2.1648 H   0  0  0  0  0  0  0  0  0  0  0  0
    5.6319    1.5389    1.8420 H   0  0  0  0  0  0  0  0  0  0  0  0
    3.5346    1.1376   -1.1558 H   0  0  0  0  0  0  0  0  0  0  0  0
    3.8107    2.0960    0.2859 H   0  0  0  0  0  0  0  0  0  0  0  0
    2.9046    0.2244    1.7018 H   0  0  0  0  0  0  0  0  0  0  0  0
    2.5142   -0.7000    0.2639 H   0  0  0  0  0  0  0  0  0  0  0  0
    0.8011    0.4273    2.5633 H   0  0  0  0  0  0  0  0  0  0  0  0
   -0.4786    1.2040    1.6632 H   0  0  0  0  0  0  0  0  0  0  0  0
   -0.9630   -1.1898    1.9521 H   0  0  0  0  0  0  0  0  0  0  0  0
    0.5469   -1.6570    1.1915 H   0  0  0  0  0  0  0  0  0  0  0  0
   -3.3600    2.6762   -2.2506 H   0  0  0  0  0  0  0  0  0  0  0  0
   -5.6951    3.4857   -2.4549 H   0  0  0  0  0  0  0  0  0  0  0  0
   -7.5438    2.2487   -1.3548 H   0  0  0  0  0  0  0  0  0  0  0  0
   -7.0746    0.2100   -0.0564 H   0  0  0  0  0  0  0  0  0  0  0  0
   -6.4300   -1.6212    1.0548 H   0  0  0  0  0  0  0  0  0  0  0  0
   -4.8929   -3.6326    2.0077 H   0  0  0  0  0  0  0  0  0  0  0  0
   -2.3526   -3.0735    1.2427 H   0  0  0  0  0  0  0  0  0  0  0  0
    0.8917   -1.0706   -1.3057 H   0  0  0  0  0  0  0  0  0  0  0  0
   -0.3982   -0.2445   -2.1487 H   0  0  0  0  0  0  0  0  0  0  0  0
   -0.1075    1.7816   -0.7436 H   0  0  0  0  0  0  0  0  0  0  0  0
    1.3940    1.3659   -1.5138 H   0  0  0  0  0  0  0  0  0  0  0  0
    4.8051   -0.9669   -1.5686 H   0  0  0  0  0  0  0  0  0  0  0  0
  1  2  1  0
  2  3  2  0
  3  4  1  0
  4  5  2  0
  5  6  1  0
  6  7  1  0
  7  8  1  0
  8  9  1  0
  9 10  1  0
 10 11  1  0
 11 12  1  0
 12 13  2  0
 13 14  1  0
 14 15  2  0
 15 16  1  0
 16 17  2  0
 17 18  1  0
 18 19  2  0
 19 20  1  0
 20 21  1  0
 21 22  2  0
 22 23  1  0
 23 24  2  0
 11 25  1  0
 25 26  1  0
  5 27  1  0
 27 28  2  0
 28 29  1  0
 28  2  1  0
 26  8  1  0
 24 12  1  0
 19 14  1  0
 24 20  1  0
  3 30  1  0
  4 31  1  0
  6 32  1  0
  6 33  1  0
  7 34  1  0
  7 35  1  0
  9 36  1  0
  9 37  1  0
 10 38  1  0
 10 39  1  0
 15 40  1  0
 16 41  1  0
 17 42  1  0
 18 43  1  0
 21 44  1  0
 22 45  1  0
 23 46  1  0
 25 47  1  0
 25 48  1  0
 26 49  1  0
 26 50  1  0
 27 51  1  0
M  END
$$$$
