
     RDKit          3D

 35 37  0  0  0  0  0  0  0  0999 V2000
   -3.9381    2.0464   -1.3884 C   0  0  0  0  0  0  0  0  0  0  0  0
   -3.8325    1.0361   -0.2787 C   0  0  0  0  0  0  0  0  0  0  0  0
   -4.4925    1.2716    0.9368 C   0  0  0  0  0  0  0  0  0  0  0  0
   -4.4060    0.3512    1.9790 C   0  0  0  0  0  0  0  0  0  0  0  0
   -3.6594   -0.8112    1.8157 C   0  0  0  0  0  0  0  0  0  0  0  0
   -2.9968   -1.0584    0.6106 C   0  0  0  0  0  0  0  0  0  0  0  0
   -3.0793   -0.1415   -0.4422 C   0  0  0  0  0  0  0  0  0  0  0  0
   -2.4552   -0.2748   -1.6561 O   0  0  0  0  0  0  0  0  0  0  0  0
   -1.7146   -1.4603   -1.9126 C   0  0  0  0  0  0  0  0  0  0  0  0
   -0.3146   -1.4858   -1.2870 C   0  0  0  0  0  0  0  0  0  0  0  0
    0.2613   -2.5523   -1.0943 O   0  0  0  0  0  0  0  0  0  0  0  0
    0.1707   -0.2227   -1.0356 N   0  0  0  0  0  0  0  0  0  0  0  0
    1.3860    0.1110   -0.4981 C   0  0  0  0  0  0  0  0  0  0  0  0
    1.7269    1.3570   -0.2596 N   0  0  0  0  0  0  0  0  0  0  0  0
    2.9970    1.4529    0.2772 N   0  0  0  0  0  0  0  0  0  0  0  0
    3.5657    0.2721    0.4211 C   0  0  0  0  0  0  0  0  0  0  0  0
    4.8876    0.1048    0.9596 C   0  0  0  0  0  0  0  0  0  0  0  0
    5.6228   -1.0540    1.1770 C   0  0  0  0  0  0  0  0  0  0  0  0
    6.8712   -0.6721    1.7271 C   0  0  0  0  0  0  0  0  0  0  0  0
    6.8391    0.6960    1.8191 C   0  0  0  0  0  0  0  0  0  0  0  0
    5.6560    1.1732    1.3624 O   0  0  0  0  0  0  0  0  0  0  0  0
    2.5790   -1.0339   -0.0962 S   0  0  0  0  0  0  0  0  0  0  0  0
   -4.5671    2.8956   -1.1012 H   0  0  0  0  0  0  0  0  0  0  0  0
   -4.3854    1.5884   -2.2765 H   0  0  0  0  0  0  0  0  0  0  0  0
   -2.9468    2.4372   -1.6397 H   0  0  0  0  0  0  0  0  0  0  0  0
   -5.0785    2.1771    1.0789 H   0  0  0  0  0  0  0  0  0  0  0  0
   -4.9195    0.5422    2.9178 H   0  0  0  0  0  0  0  0  0  0  0  0
   -3.5895   -1.5287    2.6298 H   0  0  0  0  0  0  0  0  0  0  0  0
   -2.4248   -1.9779    0.5399 H   0  0  0  0  0  0  0  0  0  0  0  0
   -1.5671   -1.5123   -2.9976 H   0  0  0  0  0  0  0  0  0  0  0  0
   -2.2771   -2.3577   -1.6310 H   0  0  0  0  0  0  0  0  0  0  0  0
   -0.4458    0.5665   -1.1974 H   0  0  0  0  0  0  0  0  0  0  0  0
    5.2979   -2.0636    0.9637 H   0  0  0  0  0  0  0  0  0  0  0  0
    7.6902   -1.3143    2.0194 H   0  0  0  0  0  0  0  0  0  0  0  0
    7.5393    1.4422    2.1687 H   0  0  0  0  0  0  0  0  0  0  0  0
  1  2  1  0
  2  3  2  0
  3  4  1  0
  4  5  2  0
  5  6  1  0
  6  7  2  0
  7  8  1  0
  8  9  1  0
  9 10  1  0
 10 11  2  0
 10 12  1  0
 12 13  1  0
 13 14  2  0
 14 15  1  0
 15 16  2  0
 16 17  1  0
 17 18  2  0
 18 19  1  0
 19 20  2  0
 20 21  1  0
 16 22  1  0
  7  2  1  0
 22 13  1  0
 21 17  1  0
  1 23  1  0
  1 24  1  0
  1 25  1  0
  3 26  1  0
  4 27  1  0
  5 28  1  0
  6 29  1  0
  9 30  1  0
  9 31  1  0
 12 32  1  0
 18 33  1  0
 19 34  1  0
 20 35  1  0
M  END
$$$$
