
     RDKit          3D

 49 52  0  0  0  0  0  0  0  0999 V2000
    3.2280   -2.0668    0.7889 C   0  0  0  0  0  0  0  0  0  0  0  0
    3.2199   -1.2265    2.0398 C   0  0  0  0  0  0  0  0  0  0  0  0
    3.3226   -1.8911    3.2830 C   0  0  0  0  0  0  0  0  0  0  0  0
    3.3252   -1.1668    4.4729 C   0  0  0  0  0  0  0  0  0  0  0  0
    3.4844   -1.9864    5.9765 Cl  0  0  0  0  0  0  0  0  0  0  0  0
    3.2217    0.2223    4.4445 C   0  0  0  0  0  0  0  0  0  0  0  0
    3.1036    0.8897    3.2229 C   0  0  0  0  0  0  0  0  0  0  0  0
    3.0933    0.1845    2.0109 C   0  0  0  0  0  0  0  0  0  0  0  0
    2.9693    0.8318    0.7553 N   0  0  0  0  0  0  0  0  0  0  0  0
    2.7614    2.1795    0.4971 C   0  0  0  0  0  0  0  0  0  0  0  0
    2.6716    3.0718    1.3382 O   0  0  0  0  0  0  0  0  0  0  0  0
    2.7762    2.5191   -0.9895 C   0  0  0  0  0  0  0  0  0  0  0  0
    1.8082    1.3378   -1.9949 S   0  0  0  0  0  0  0  0  0  0  0  0
    0.2003    1.8562   -1.6214 C   0  0  0  0  0  0  0  0  0  0  0  0
   -0.1134    2.8493   -0.8274 N   0  0  0  0  0  0  0  0  0  0  0  0
   -1.4787    2.9566   -0.8059 N   0  0  0  0  0  0  0  0  0  0  0  0
   -1.9809    2.0289   -1.5994 C   0  0  0  0  0  0  0  0  0  0  0  0
   -3.4391    1.7997   -1.8394 C   0  0  0  0  0  0  0  0  0  0  0  0
   -4.0134    0.7189   -0.9648 C   0  0  0  0  0  0  0  0  0  0  0  0
   -3.8271    0.5144    0.3913 C   0  0  0  0  0  0  0  0  0  0  0  0
   -4.5600   -0.6049    0.8781 C   0  0  0  0  0  0  0  0  0  0  0  0
   -5.2845   -1.2261   -0.1178 C   0  0  0  0  0  0  0  0  0  0  0  0
   -5.0739   -0.4526   -1.6327 S   0  0  0  0  0  0  0  0  0  0  0  0
   -0.9391    1.3111   -2.1528 N   0  0  0  0  0  0  0  0  0  0  0  0
   -1.0469    0.2223   -3.1072 C   0  0  0  0  0  0  0  0  0  0  0  0
   -1.2958   -1.0820   -2.4441 C   0  0  0  0  0  0  0  0  0  0  0  0
   -0.9694   -1.6354   -1.2183 C   0  0  0  0  0  0  0  0  0  0  0  0
   -1.5525   -2.9281   -1.1968 C   0  0  0  0  0  0  0  0  0  0  0  0
   -2.1729   -3.0951   -2.4140 C   0  0  0  0  0  0  0  0  0  0  0  0
   -2.0178   -1.9810   -3.1796 O   0  0  0  0  0  0  0  0  0  0  0  0
    3.4649   -3.1165    1.0055 H   0  0  0  0  0  0  0  0  0  0  0  0
    2.2402   -2.0404    0.3101 H   0  0  0  0  0  0  0  0  0  0  0  0
    3.9843   -1.7068    0.0880 H   0  0  0  0  0  0  0  0  0  0  0  0
    3.4038   -2.9754    3.3218 H   0  0  0  0  0  0  0  0  0  0  0  0
    3.2292    0.7936    5.3703 H   0  0  0  0  0  0  0  0  0  0  0  0
    3.0283    1.9719    3.2557 H   0  0  0  0  0  0  0  0  0  0  0  0
    2.9666    0.2360   -0.0627 H   0  0  0  0  0  0  0  0  0  0  0  0
    2.4055    3.5383   -1.1371 H   0  0  0  0  0  0  0  0  0  0  0  0
    3.8146    2.4916   -1.3272 H   0  0  0  0  0  0  0  0  0  0  0  0
   -3.6178    1.5999   -2.9009 H   0  0  0  0  0  0  0  0  0  0  0  0
   -3.9739    2.7383   -1.6170 H   0  0  0  0  0  0  0  0  0  0  0  0
   -3.1964    1.1461    1.0088 H   0  0  0  0  0  0  0  0  0  0  0  0
   -4.5580   -0.9393    1.9092 H   0  0  0  0  0  0  0  0  0  0  0  0
   -5.9304   -2.0952   -0.0318 H   0  0  0  0  0  0  0  0  0  0  0  0
   -0.1304    0.1797   -3.7117 H   0  0  0  0  0  0  0  0  0  0  0  0
   -1.8574    0.4697   -3.8015 H   0  0  0  0  0  0  0  0  0  0  0  0
   -0.4107   -1.1539   -0.4212 H   0  0  0  0  0  0  0  0  0  0  0  0
   -1.5306   -3.6454   -0.3880 H   0  0  0  0  0  0  0  0  0  0  0  0
   -2.7519   -3.8956   -2.8636 H   0  0  0  0  0  0  0  0  0  0  0  0
  1  2  1  0
  2  3  2  0
  3  4  1  0
  4  5  1  0
  4  6  2  0
  6  7  1  0
  7  8  2  0
  8  9  1  0
  9 10  1  0
 10 11  2  0
 10 12  1  0
 12 13  1  0
 13 14  1  0
 14 15  2  0
 15 16  1  0
 16 17  2  0
 17 18  1  0
 18 19  1  0
 19 20  2  0
 20 21  1  0
 21 22  2  0
 22 23  1  0
 17 24  1  0
 24 25  1  0
 25 26  1  0
 26 27  2  0
 27 28  1  0
 28 29  2  0
 29 30  1  0
  8  2  1  0
 24 14  1  0
 30 26  1  0
 23 19  1  0
  1 31  1  0
  1 32  1  0
  1 33  1  0
  3 34  1  0
  6 35  1  0
  7 36  1  0
  9 37  1  0
 12 38  1  0
 12 39  1  0
 18 40  1  0
 18 41  1  0
 20 42  1  0
 21 43  1  0
 22 44  1  0
 25 45  1  0
 25 46  1  0
 27 47  1  0
 28 48  1  0
 29 49  1  0
M  END
$$$$
