
     RDKit          3D

 34 35  0  0  0  0  0  0  0  0999 V2000
    1.8725   -1.9443    1.6248 C   0  0  0  0  0  0  0  0  0  0  0  0
    0.5155   -1.5384    1.3031 N   0  0  0  0  0  0  0  0  0  0  0  0
    0.2749   -0.5890    0.4614 C   0  0  0  0  0  0  0  0  0  0  0  0
    1.2937    0.2777   -0.1989 C   0  0  0  0  0  0  0  0  0  0  0  0
    1.2970    0.4141   -1.5913 C   0  0  0  0  0  0  0  0  0  0  0  0
    2.2373    1.2424   -2.2063 C   0  0  0  0  0  0  0  0  0  0  0  0
    3.1677    1.9382   -1.4338 C   0  0  0  0  0  0  0  0  0  0  0  0
    3.1595    1.8114   -0.0447 C   0  0  0  0  0  0  0  0  0  0  0  0
    2.2218    0.9841    0.5745 C   0  0  0  0  0  0  0  0  0  0  0  0
   -1.1561   -0.3437    0.0950 C   0  0  0  0  0  0  0  0  0  0  0  0
   -1.8555   -1.3361   -0.6288 C   0  0  0  0  0  0  0  0  0  0  0  0
   -1.2279   -2.6538   -0.9943 C   0  0  0  0  0  0  0  0  0  0  0  0
   -3.1901   -1.0985   -0.9882 C   0  0  0  0  0  0  0  0  0  0  0  0
   -3.8139    0.1008   -0.6516 C   0  0  0  0  0  0  0  0  0  0  0  0
   -3.1214    1.0714    0.0697 C   0  0  0  0  0  0  0  0  0  0  0  0
   -1.7935    0.8583    0.4707 C   0  0  0  0  0  0  0  0  0  0  0  0
   -1.1069    1.9258    1.2753 C   0  0  0  0  0  0  0  0  0  0  0  0
    2.5488   -1.9036    0.7652 H   0  0  0  0  0  0  0  0  0  0  0  0
    1.8565   -2.9868    1.9593 H   0  0  0  0  0  0  0  0  0  0  0  0
    2.2752   -1.3461    2.4471 H   0  0  0  0  0  0  0  0  0  0  0  0
    0.5794   -0.1236   -2.2049 H   0  0  0  0  0  0  0  0  0  0  0  0
    2.2442    1.3456   -3.2886 H   0  0  0  0  0  0  0  0  0  0  0  0
    3.8987    2.5832   -1.9155 H   0  0  0  0  0  0  0  0  0  0  0  0
    3.8806    2.3601    0.5560 H   0  0  0  0  0  0  0  0  0  0  0  0
    2.2066    0.9062    1.6582 H   0  0  0  0  0  0  0  0  0  0  0  0
   -1.8235   -3.1804   -1.7481 H   0  0  0  0  0  0  0  0  0  0  0  0
   -0.2320   -2.5114   -1.4249 H   0  0  0  0  0  0  0  0  0  0  0  0
   -1.1585   -3.2976   -0.1121 H   0  0  0  0  0  0  0  0  0  0  0  0
   -3.7546   -1.8510   -1.5348 H   0  0  0  0  0  0  0  0  0  0  0  0
   -4.8472    0.2745   -0.9413 H   0  0  0  0  0  0  0  0  0  0  0  0
   -3.6329    1.9952    0.3327 H   0  0  0  0  0  0  0  0  0  0  0  0
   -0.4727    2.5396    0.6291 H   0  0  0  0  0  0  0  0  0  0  0  0
   -0.5067    1.4893    2.0796 H   0  0  0  0  0  0  0  0  0  0  0  0
   -1.8366    2.5864    1.7568 H   0  0  0  0  0  0  0  0  0  0  0  0
  1  2  1  0
  2  3  2  3
  3  4  1  0
  4  5  2  0
  5  6  1  0
  6  7  2  0
  7  8  1  0
  8  9  2  0
  3 10  1  0
 10 11  2  0
 11 12  1  0
 11 13  1  0
 13 14  2  0
 14 15  1  0
 15 16  2  0
 16 17  1  0
  9  4  1  0
 16 10  1  0
  1 18  1  0
  1 19  1  0
  1 20  1  0
  5 21  1  0
  6 22  1  0
  7 23  1  0
  8 24  1  0
  9 25  1  0
 12 26  1  0
 12 27  1  0
 12 28  1  0
 13 29  1  0
 14 30  1  0
 15 31  1  0
 17 32  1  0
 17 33  1  0
 17 34  1  0
M  END
$$$$
