
     RDKit          3D

 61 67  0  0  0  0  0  0  0  0999 V2000
    3.7628    0.8884   -2.8137 O   0  0  0  0  0  0  0  0  0  0  0  0
    3.2882    0.8499   -1.6838 C   0  0  0  0  0  0  0  0  0  0  0  0
    4.2252    0.9559   -0.5512 C   0  0  0  0  0  0  0  0  0  0  0  0
    4.4144    2.2034    0.0774 C   0  0  0  0  0  0  0  0  0  0  0  0
    5.3096    2.3173    1.1441 C   0  0  0  0  0  0  0  0  0  0  0  0
    5.9898    1.1805    1.5321 C   0  0  0  0  0  0  0  0  0  0  0  0
    5.8082   -0.0315    0.9022 C   0  0  0  0  0  0  0  0  0  0  0  0
    4.9335   -0.1812   -0.1508 C   0  0  0  0  0  0  0  0  0  0  0  0
    6.5796   -1.0144    1.4392 O   0  0  0  0  0  0  0  0  0  0  0  0
    7.2891   -0.2793    2.4584 C   0  0  0  0  0  0  0  0  0  0  0  0
    6.8975    1.1070    2.5425 O   0  0  0  0  0  0  0  0  0  0  0  0
    1.9342    0.6970   -1.3974 N   0  0  0  0  0  0  0  0  0  0  0  0
    1.4032    0.5275   -0.0466 C   0  0  0  0  0  0  0  0  0  0  0  0
   -0.1231    0.5379   -0.0251 C   0  0  0  0  0  0  0  0  0  0  0  0
   -0.7197   -0.5754   -0.9304 C   0  0  0  0  0  0  0  0  0  0  0  0
    0.0971   -0.6698   -2.2605 C   0  0  0  0  0  0  0  0  0  0  0  0
    0.9924    0.5405   -2.5001 C   0  0  0  0  0  0  0  0  0  0  0  0
   -0.5222   -1.7995   -0.1705 O   0  0  0  0  0  0  0  0  0  0  0  0
   -1.1582   -2.9096   -0.6497 C   0  0  0  0  0  0  0  0  0  0  0  0
   -0.6679   -4.1378   -0.2075 C   0  0  0  0  0  0  0  0  0  0  0  0
   -1.2451   -5.3254   -0.6631 C   0  0  0  0  0  0  0  0  0  0  0  0
   -2.3165   -5.2797   -1.5553 C   0  0  0  0  0  0  0  0  0  0  0  0
   -3.0227   -6.7448   -2.1135 Cl  0  0  0  0  0  0  0  0  0  0  0  0
   -2.8227   -4.0573   -1.9895 C   0  0  0  0  0  0  0  0  0  0  0  0
   -2.2428   -2.8726   -1.5239 C   0  0  0  0  0  0  0  0  0  0  0  0
   -2.7902   -1.5645   -1.9294 C   0  0  0  0  0  0  0  0  0  0  0  0
   -3.6710   -1.5161   -2.7817 O   0  0  0  0  0  0  0  0  0  0  0  0
   -2.2384   -0.3533   -1.1830 C   0  0  0  0  0  0  0  0  0  0  0  0
   -3.1015   -0.1509    0.0570 C   0  0  0  0  0  0  0  0  0  0  0  0
   -3.3337    1.3160   -0.0450 C   0  0  0  0  0  0  0  0  0  0  0  0
   -3.9507    2.0905    1.0567 C   0  0  0  0  0  0  0  0  0  0  0  0
   -4.4542    1.4609    2.2010 C   0  0  0  0  0  0  0  0  0  0  0  0
   -5.0299    2.2226    3.2214 C   0  0  0  0  0  0  0  0  0  0  0  0
   -5.1049    3.6098    3.1035 C   0  0  0  0  0  0  0  0  0  0  0  0
   -4.6067    4.2408    1.9653 C   0  0  0  0  0  0  0  0  0  0  0  0
   -4.0312    3.4839    0.9431 C   0  0  0  0  0  0  0  0  0  0  0  0
   -2.9551    1.8502   -1.1612 N   0  0  0  0  0  0  0  0  0  0  0  0
   -2.4390    0.8198   -1.9786 O   0  0  0  0  0  0  0  0  0  0  0  0
    3.8686    3.0762   -0.2737 H   0  0  0  0  0  0  0  0  0  0  0  0
    5.4744    3.2653    1.6441 H   0  0  0  0  0  0  0  0  0  0  0  0
    4.8075   -1.1341   -0.6513 H   0  0  0  0  0  0  0  0  0  0  0  0
    8.3632   -0.3285    2.2436 H   0  0  0  0  0  0  0  0  0  0  0  0
    7.1023   -0.7555    3.4278 H   0  0  0  0  0  0  0  0  0  0  0  0
    1.7899   -0.4186    0.3497 H   0  0  0  0  0  0  0  0  0  0  0  0
    1.7814    1.3332    0.5902 H   0  0  0  0  0  0  0  0  0  0  0  0
   -0.4574    1.5290   -0.3494 H   0  0  0  0  0  0  0  0  0  0  0  0
   -0.4482    0.4062    1.0135 H   0  0  0  0  0  0  0  0  0  0  0  0
    0.7314   -1.5663   -2.2457 H   0  0  0  0  0  0  0  0  0  0  0  0
   -0.5651   -0.7814   -3.1264 H   0  0  0  0  0  0  0  0  0  0  0  0
    0.4009    1.4606   -2.5712 H   0  0  0  0  0  0  0  0  0  0  0  0
    1.5209    0.4244   -3.4520 H   0  0  0  0  0  0  0  0  0  0  0  0
    0.1737   -4.1745    0.4806 H   0  0  0  0  0  0  0  0  0  0  0  0
   -0.8526   -6.2810   -0.3231 H   0  0  0  0  0  0  0  0  0  0  0  0
   -3.6649   -4.0241   -2.6777 H   0  0  0  0  0  0  0  0  0  0  0  0
   -2.6044   -0.4327    0.9879 H   0  0  0  0  0  0  0  0  0  0  0  0
   -4.0688   -0.6628   -0.0013 H   0  0  0  0  0  0  0  0  0  0  0  0
   -4.4228    0.3824    2.3193 H   0  0  0  0  0  0  0  0  0  0  0  0
   -5.4269    1.7337    4.1081 H   0  0  0  0  0  0  0  0  0  0  0  0
   -5.5591    4.1998    3.8962 H   0  0  0  0  0  0  0  0  0  0  0  0
   -4.6699    5.3221    1.8694 H   0  0  0  0  0  0  0  0  0  0  0  0
   -3.6516    3.9899    0.0572 H   0  0  0  0  0  0  0  0  0  0  0  0
  1  2  2  0
  2  3  1  0
  3  4  2  0
  4  5  1  0
  5  6  2  0
  6  7  1  0
  7  8  2  0
  7  9  1  0
  9 10  1  0
 10 11  1  0
  2 12  1  0
 12 13  1  0
 13 14  1  0
 14 15  1  0
 15 16  1  0
 16 17  1  0
 15 18  1  0
 18 19  1  0
 19 20  2  0
 20 21  1  0
 21 22  2  0
 22 23  1  0
 22 24  1  0
 24 25  2  0
 25 26  1  0
 26 27  2  0
 26 28  1  0
 28 29  1  0
 29 30  1  0
 30 31  1  0
 31 32  2  0
 32 33  1  0
 33 34  2  0
 34 35  1  0
 35 36  2  0
 30 37  2  0
 37 38  1  0
  8  3  1  0
 17 12  1  0
 25 19  1  0
 38 28  1  0
 11  6  1  0
 28 15  1  0
 36 31  1  0
  4 39  1  0
  5 40  1  0
  8 41  1  0
 10 42  1  0
 10 43  1  0
 13 44  1  0
 13 45  1  0
 14 46  1  0
 14 47  1  0
 16 48  1  0
 16 49  1  0
 17 50  1  0
 17 51  1  0
 20 52  1  0
 21 53  1  0
 24 54  1  0
 29 55  1  0
 29 56  1  0
 32 57  1  0
 33 58  1  0
 34 59  1  0
 35 60  1  0
 36 61  1  0
M  END
$$$$
