
     RDKit          3D

 55 60  0  0  0  0  0  0  0  0999 V2000
    5.1081   -1.5777   -0.3708 O   0  0  0  0  0  0  0  0  0  0  0  0
    4.4370   -0.8694    0.3774 C   0  0  0  0  0  0  0  0  0  0  0  0
    5.0008   -0.3698    1.6233 C   0  0  0  0  0  0  0  0  0  0  0  0
    4.3863   -0.0708    2.8761 C   0  0  0  0  0  0  0  0  0  0  0  0
    5.3922    0.3312    3.7230 C   0  0  0  0  0  0  0  0  0  0  0  0
    6.5905    0.2808    3.0897 O   0  0  0  0  0  0  0  0  0  0  0  0
    6.3508   -0.1618    1.8295 C   0  0  0  0  0  0  0  0  0  0  0  0
    3.0929   -0.5609    0.1003 N   0  0  0  0  0  0  0  0  0  0  0  0
    2.5080   -1.2608   -1.0370 C   0  0  0  0  0  0  0  0  0  0  0  0
    0.9832   -1.2741   -0.9607 C   0  0  0  0  0  0  0  0  0  0  0  0
    0.3923    0.1483   -0.8088 C   0  0  0  0  0  0  0  0  0  0  0  0
    1.0871    0.8465    0.3907 C   0  0  0  0  0  0  0  0  0  0  0  0
    2.6092    0.8088    0.2726 C   0  0  0  0  0  0  0  0  0  0  0  0
    0.7913    0.9466   -1.9540 O   0  0  0  0  0  0  0  0  0  0  0  0
    0.0474    0.8505   -3.0910 C   0  0  0  0  0  0  0  0  0  0  0  0
    0.6064    1.4153   -4.2375 C   0  0  0  0  0  0  0  0  0  0  0  0
   -0.0733    1.3470   -5.4563 C   0  0  0  0  0  0  0  0  0  0  0  0
   -1.3146    0.7148   -5.5244 C   0  0  0  0  0  0  0  0  0  0  0  0
   -2.1453    0.6267   -7.0274 Cl  0  0  0  0  0  0  0  0  0  0  0  0
   -1.8856    0.1577   -4.3836 C   0  0  0  0  0  0  0  0  0  0  0  0
   -1.2000    0.2410   -3.1672 C   0  0  0  0  0  0  0  0  0  0  0  0
   -1.7842   -0.3212   -1.9427 C   0  0  0  0  0  0  0  0  0  0  0  0
   -2.7187   -1.1142   -2.0230 O   0  0  0  0  0  0  0  0  0  0  0  0
   -1.1524    0.1312   -0.6308 C   0  0  0  0  0  0  0  0  0  0  0  0
   -1.6710   -0.6980    0.5366 C   0  0  0  0  0  0  0  0  0  0  0  0
   -2.7659    0.2059    0.9923 C   0  0  0  0  0  0  0  0  0  0  0  0
   -3.8037   -0.2338    1.9551 C   0  0  0  0  0  0  0  0  0  0  0  0
   -4.8371    0.6530    2.2884 C   0  0  0  0  0  0  0  0  0  0  0  0
   -5.8296    0.2726    3.1959 C   0  0  0  0  0  0  0  0  0  0  0  0
   -5.7898   -0.9946    3.7721 C   0  0  0  0  0  0  0  0  0  0  0  0
   -7.0085   -1.4656    4.8904 Cl  0  0  0  0  0  0  0  0  0  0  0  0
   -4.7660   -1.8839    3.4485 C   0  0  0  0  0  0  0  0  0  0  0  0
   -3.7711   -1.5052    2.5404 C   0  0  0  0  0  0  0  0  0  0  0  0
   -2.7144    1.4066    0.5101 N   0  0  0  0  0  0  0  0  0  0  0  0
   -1.6178    1.4673   -0.3756 O   0  0  0  0  0  0  0  0  0  0  0  0
    3.3393   -0.1512    3.1315 H   0  0  0  0  0  0  0  0  0  0  0  0
    5.4221    0.6544    4.7545 H   0  0  0  0  0  0  0  0  0  0  0  0
    7.2227   -0.2786    1.1996 H   0  0  0  0  0  0  0  0  0  0  0  0
    2.8705   -2.2955   -1.0561 H   0  0  0  0  0  0  0  0  0  0  0  0
    2.8586   -0.7774   -1.9571 H   0  0  0  0  0  0  0  0  0  0  0  0
    0.6047   -1.7633   -1.8653 H   0  0  0  0  0  0  0  0  0  0  0  0
    0.6838   -1.8957   -0.1081 H   0  0  0  0  0  0  0  0  0  0  0  0
    0.8070    0.3708    1.3362 H   0  0  0  0  0  0  0  0  0  0  0  0
    0.7819    1.8984    0.4484 H   0  0  0  0  0  0  0  0  0  0  0  0
    2.9536    1.3898   -0.5923 H   0  0  0  0  0  0  0  0  0  0  0  0
    3.0513    1.2893    1.1468 H   0  0  0  0  0  0  0  0  0  0  0  0
    1.5762    1.9052   -4.1869 H   0  0  0  0  0  0  0  0  0  0  0  0
    0.3705    1.7865   -6.3464 H   0  0  0  0  0  0  0  0  0  0  0  0
   -2.8576   -0.3275   -4.4348 H   0  0  0  0  0  0  0  0  0  0  0  0
   -2.0304   -1.6903    0.2547 H   0  0  0  0  0  0  0  0  0  0  0  0
   -0.9581   -0.7996    1.3583 H   0  0  0  0  0  0  0  0  0  0  0  0
   -4.8791    1.6453    1.8421 H   0  0  0  0  0  0  0  0  0  0  0  0
   -6.6268    0.9684    3.4448 H   0  0  0  0  0  0  0  0  0  0  0  0
   -4.7375   -2.8733    3.8987 H   0  0  0  0  0  0  0  0  0  0  0  0
   -2.9867   -2.2197    2.3098 H   0  0  0  0  0  0  0  0  0  0  0  0
  1  2  2  0
  2  3  1  0
  3  4  1  0
  4  5  2  0
  5  6  1  0
  6  7  1  0
  2  8  1  0
  8  9  1  0
  9 10  1  0
 10 11  1  0
 11 12  1  0
 12 13  1  0
 11 14  1  0
 14 15  1  0
 15 16  2  0
 16 17  1  0
 17 18  2  0
 18 19  1  0
 18 20  1  0
 20 21  2  0
 21 22  1  0
 22 23  2  0
 22 24  1  0
 24 25  1  0
 25 26  1  0
 26 27  1  0
 27 28  2  0
 28 29  1  0
 29 30  2  0
 30 31  1  0
 30 32  1  0
 32 33  2  0
 26 34  2  0
 34 35  1  0
  7  3  2  0
 13  8  1  0
 21 15  1  0
 35 24  1  0
 24 11  1  0
 33 27  1  0
  4 36  1  0
  5 37  1  0
  7 38  1  0
  9 39  1  0
  9 40  1  0
 10 41  1  0
 10 42  1  0
 12 43  1  0
 12 44  1  0
 13 45  1  0
 13 46  1  0
 16 47  1  0
 17 48  1  0
 20 49  1  0
 25 50  1  0
 25 51  1  0
 28 52  1  0
 29 53  1  0
 32 54  1  0
 33 55  1  0
M  END
$$$$
