
     RDKit          3D

 40 41  0  0  0  0  0  0  0  0999 V2000
    7.8970   -0.1269    1.7072 C   0  0  0  0  0  0  0  0  0  0  0  0
    6.7152    0.2421    2.4070 O   0  0  0  0  0  0  0  0  0  0  0  0
    5.5234   -0.0524    1.8055 C   0  0  0  0  0  0  0  0  0  0  0  0
    5.3581   -0.6699    0.5669 C   0  0  0  0  0  0  0  0  0  0  0  0
    4.0719   -0.9127    0.0675 C   0  0  0  0  0  0  0  0  0  0  0  0
    2.9359   -0.5316    0.7915 C   0  0  0  0  0  0  0  0  0  0  0  0
    1.6092   -0.8276    0.2371 C   0  0  0  0  0  0  0  0  0  0  0  0
    0.5578    0.0006    0.3367 C   0  0  0  0  0  0  0  0  0  0  0  0
   -0.7492   -0.3856   -0.2671 C   0  0  0  0  0  0  0  0  0  0  0  0
   -0.9166   -1.4889   -0.7672 O   0  0  0  0  0  0  0  0  0  0  0  0
   -1.6601    0.6526   -0.2311 N   0  0  0  0  0  0  0  0  0  0  0  0
   -2.9613    0.6619   -0.7070 C   0  0  0  0  0  0  0  0  0  0  0  0
   -3.3957    1.8266   -1.2041 C   0  0  0  0  0  0  0  0  0  0  0  0
   -4.7375    1.9491   -1.7808 C   0  0  0  0  0  0  0  0  0  0  0  0
   -5.1320    3.0622   -2.1190 O   0  0  0  0  0  0  0  0  0  0  0  0
   -5.4493    0.7824   -1.9044 N   0  0  0  0  0  0  0  0  0  0  0  0
   -6.7590    0.8432   -2.5230 C   0  0  0  0  0  0  0  0  0  0  0  0
   -5.0917   -0.3979   -1.2694 C   0  0  0  0  0  0  0  0  0  0  0  0
   -5.8605   -1.3619   -1.2270 O   0  0  0  0  0  0  0  0  0  0  0  0
   -3.8336   -0.4149   -0.6542 N   0  0  0  0  0  0  0  0  0  0  0  0
   -3.5484   -1.6094    0.1306 C   0  0  0  0  0  0  0  0  0  0  0  0
    3.1085    0.0718    2.0415 C   0  0  0  0  0  0  0  0  0  0  0  0
    4.3931    0.3132    2.5387 C   0  0  0  0  0  0  0  0  0  0  0  0
    7.9495   -1.2114    1.5653 H   0  0  0  0  0  0  0  0  0  0  0  0
    7.9707    0.4017    0.7511 H   0  0  0  0  0  0  0  0  0  0  0  0
    8.7542    0.1706    2.3188 H   0  0  0  0  0  0  0  0  0  0  0  0
    6.2047   -0.9784   -0.0371 H   0  0  0  0  0  0  0  0  0  0  0  0
    3.9688   -1.3986   -0.9010 H   0  0  0  0  0  0  0  0  0  0  0  0
    1.5184   -1.7708   -0.3004 H   0  0  0  0  0  0  0  0  0  0  0  0
    0.6292    0.9507    0.8500 H   0  0  0  0  0  0  0  0  0  0  0  0
   -1.2483    1.5656   -0.0795 H   0  0  0  0  0  0  0  0  0  0  0  0
   -2.7928    2.7245   -1.2509 H   0  0  0  0  0  0  0  0  0  0  0  0
   -6.9774   -0.0929   -3.0462 H   0  0  0  0  0  0  0  0  0  0  0  0
   -7.5069    0.9917   -1.7374 H   0  0  0  0  0  0  0  0  0  0  0  0
   -6.8226    1.6698   -3.2367 H   0  0  0  0  0  0  0  0  0  0  0  0
   -3.1708   -2.3926   -0.5324 H   0  0  0  0  0  0  0  0  0  0  0  0
   -4.4659   -1.9853    0.5976 H   0  0  0  0  0  0  0  0  0  0  0  0
   -2.8533   -1.4026    0.9481 H   0  0  0  0  0  0  0  0  0  0  0  0
    2.2537    0.3482    2.6530 H   0  0  0  0  0  0  0  0  0  0  0  0
    4.5137    0.7838    3.5116 H   0  0  0  0  0  0  0  0  0  0  0  0
  1  2  1  0
  2  3  1  0
  3  4  2  0
  4  5  1  0
  5  6  2  0
  6  7  1  0
  7  8  2  3
  8  9  1  0
  9 10  2  0
  9 11  1  0
 11 12  1  0
 12 13  2  0
 13 14  1  0
 14 15  2  0
 14 16  1  0
 16 17  1  0
 16 18  1  0
 18 19  2  0
 18 20  1  0
 20 21  1  0
  6 22  1  0
 22 23  2  0
 23  3  1  0
 20 12  1  0
  1 24  1  0
  1 25  1  0
  1 26  1  0
  4 27  1  0
  5 28  1  0
  7 29  1  0
  8 30  1  0
 11 31  1  0
 13 32  1  0
 17 33  1  0
 17 34  1  0
 17 35  1  0
 21 36  1  0
 21 37  1  0
 21 38  1  0
 22 39  1  0
 23 40  1  0
M  END
$$$$
