
     RDKit          3D

 33 33  0  0  0  0  0  0  0  0999 V2000
   -2.1832    1.5675   -2.1840 C   0  0  0  0  0  0  0  0  0  0  0  0
   -2.6699    0.9018   -0.9212 C   0  0  0  0  0  0  0  0  0  0  0  0
   -3.8238    0.4966   -0.8278 O   0  0  0  0  0  0  0  0  0  0  0  0
   -1.6759    0.7983    0.0287 N   0  0  0  0  0  0  0  0  0  0  0  0
   -1.7592    0.2359    1.3207 C   0  0  0  0  0  0  0  0  0  0  0  0
   -2.9372   -0.2701    1.8722 C   0  0  0  0  0  0  0  0  0  0  0  0
   -2.9450   -0.7981    3.1691 C   0  0  0  0  0  0  0  0  0  0  0  0
   -1.7781   -0.8180    3.9320 C   0  0  0  0  0  0  0  0  0  0  0  0
   -0.5946   -0.3175    3.3971 C   0  0  0  0  0  0  0  0  0  0  0  0
   -0.5867    0.1870    2.0945 C   0  0  0  0  0  0  0  0  0  0  0  0
    0.5895    0.6955    1.6017 O   0  0  0  0  0  0  0  0  0  0  0  0
    1.3964   -0.3338    1.0285 C   0  0  0  0  0  0  0  0  0  0  0  0
    1.5311   -0.1387   -0.4832 C   0  0  0  0  0  0  0  0  0  0  0  0
    0.9147    0.7187   -1.1125 O   0  0  0  0  0  0  0  0  0  0  0  0
    2.3866   -1.0327   -1.0954 N   0  0  0  0  0  0  0  0  0  0  0  0
    2.7097   -0.8965   -2.5187 C   0  0  0  0  0  0  0  0  0  0  0  0
    3.8230    0.1056   -2.8368 C   0  0  0  0  0  0  0  0  0  0  0  0
    4.1028    0.1052   -4.1596 F   0  0  0  0  0  0  0  0  0  0  0  0
    4.9601   -0.2359   -2.1828 F   0  0  0  0  0  0  0  0  0  0  0  0
    3.5075    1.3656   -2.4789 F   0  0  0  0  0  0  0  0  0  0  0  0
   -1.5669    2.4394   -1.9474 H   0  0  0  0  0  0  0  0  0  0  0  0
   -1.6025    0.8521   -2.7717 H   0  0  0  0  0  0  0  0  0  0  0  0
   -3.0407    1.9056   -2.7720 H   0  0  0  0  0  0  0  0  0  0  0  0
   -0.7491    1.1320   -0.2417 H   0  0  0  0  0  0  0  0  0  0  0  0
   -3.8730   -0.2592    1.3222 H   0  0  0  0  0  0  0  0  0  0  0  0
   -3.8736   -1.1822    3.5846 H   0  0  0  0  0  0  0  0  0  0  0  0
   -1.7970   -1.2129    4.9442 H   0  0  0  0  0  0  0  0  0  0  0  0
    0.3124   -0.3119    3.9935 H   0  0  0  0  0  0  0  0  0  0  0  0
    1.0139   -1.3457    1.2173 H   0  0  0  0  0  0  0  0  0  0  0  0
    2.3942   -0.2536    1.4729 H   0  0  0  0  0  0  0  0  0  0  0  0
    3.0038   -1.5950   -0.5208 H   0  0  0  0  0  0  0  0  0  0  0  0
    1.8014   -0.6138   -3.0613 H   0  0  0  0  0  0  0  0  0  0  0  0
    3.0094   -1.8912   -2.8633 H   0  0  0  0  0  0  0  0  0  0  0  0
  1  2  1  0
  2  3  2  0
  2  4  1  0
  4  5  1  0
  5  6  2  0
  6  7  1  0
  7  8  2  0
  8  9  1  0
  9 10  2  0
 10 11  1  0
 11 12  1  0
 12 13  1  0
 13 14  2  0
 13 15  1  0
 15 16  1  0
 16 17  1  0
 17 18  1  0
 17 19  1  0
 17 20  1  0
 10  5  1  0
  1 21  1  0
  1 22  1  0
  1 23  1  0
  4 24  1  0
  6 25  1  0
  7 26  1  0
  8 27  1  0
  9 28  1  0
 12 29  1  0
 12 30  1  0
 15 31  1  0
 16 32  1  0
 16 33  1  0
M  END
$$$$
