
     RDKit          3D

 60 63  0  0  0  0  0  0  0  0999 V2000
    7.1664    2.6162    1.2105 C   0  0  0  0  0  0  0  0  0  0  0  0
    6.0755    2.7862    0.3137 O   0  0  0  0  0  0  0  0  0  0  0  0
    5.4703    1.6469   -0.1428 C   0  0  0  0  0  0  0  0  0  0  0  0
    5.8107    0.3400    0.2044 C   0  0  0  0  0  0  0  0  0  0  0  0
    5.1002   -0.7384   -0.3347 C   0  0  0  0  0  0  0  0  0  0  0  0
    4.0459   -0.5257   -1.2327 C   0  0  0  0  0  0  0  0  0  0  0  0
    3.2563   -1.6926   -1.7678 C   0  0  0  0  0  0  0  0  0  0  0  0
    2.2494   -2.0843   -0.8116 N   0  0  0  0  0  0  0  0  0  0  0  0
    2.3962   -3.1806    0.0096 C   0  0  0  0  0  0  0  0  0  0  0  0
    3.3126   -3.9915   -0.1193 O   0  0  0  0  0  0  0  0  0  0  0  0
    1.3418   -3.3078    1.1294 C   0  0  0  0  0  0  0  0  0  0  0  0
    2.0410   -3.3468    2.4873 C   0  0  0  0  0  0  0  0  0  0  0  0
    0.3268   -2.2387    1.0556 N   0  0  0  0  0  0  0  0  0  0  0  0
    0.7046   -0.9789    1.5504 N   0  0  0  0  0  0  0  0  0  0  0  0
   -0.1007    0.0450    1.4940 C   0  0  0  0  0  0  0  0  0  0  0  0
    0.3694    1.3550    2.0603 C   0  0  0  0  0  0  0  0  0  0  0  0
   -1.3961   -0.1129    0.8834 C   0  0  0  0  0  0  0  0  0  0  0  0
   -2.4876    0.7212    0.7094 C   0  0  0  0  0  0  0  0  0  0  0  0
   -2.7446    2.0784    1.2567 C   0  0  0  0  0  0  0  0  0  0  0  0
   -3.3897   -0.0074   -0.0769 N   0  0  0  0  0  0  0  0  0  0  0  0
   -4.5775    0.4051   -0.7578 C   0  0  0  0  0  0  0  0  0  0  0  0
   -4.8548    1.7467   -1.0390 C   0  0  0  0  0  0  0  0  0  0  0  0
   -6.0247    2.1005   -1.7234 C   0  0  0  0  0  0  0  0  0  0  0  0
   -6.9332    1.1235   -2.1421 C   0  0  0  0  0  0  0  0  0  0  0  0
   -8.1639    1.5126   -2.9061 C   0  0  0  0  0  0  0  0  0  0  0  0
   -6.6409   -0.2195   -1.8945 C   0  0  0  0  0  0  0  0  0  0  0  0
   -5.4742   -0.5765   -1.2112 C   0  0  0  0  0  0  0  0  0  0  0  0
   -2.9992   -1.3074   -0.1802 N   0  0  0  0  0  0  0  0  0  0  0  0
   -1.7718   -1.3462    0.3410 C   0  0  0  0  0  0  0  0  0  0  0  0
   -0.8901   -2.5065    0.3893 C   0  0  0  0  0  0  0  0  0  0  0  0
   -1.1719   -3.5961   -0.1025 O   0  0  0  0  0  0  0  0  0  0  0  0
    3.7055    0.7881   -1.5751 C   0  0  0  0  0  0  0  0  0  0  0  0
    4.4165    1.8628   -1.0347 C   0  0  0  0  0  0  0  0  0  0  0  0
    7.9854    2.0670    0.7351 H   0  0  0  0  0  0  0  0  0  0  0  0
    6.8439    2.1259    2.1347 H   0  0  0  0  0  0  0  0  0  0  0  0
    7.5405    3.6103    1.4744 H   0  0  0  0  0  0  0  0  0  0  0  0
    6.6193    0.1205    0.8942 H   0  0  0  0  0  0  0  0  0  0  0  0
    5.3686   -1.7544   -0.0439 H   0  0  0  0  0  0  0  0  0  0  0  0
    3.9219   -2.5282   -2.0088 H   0  0  0  0  0  0  0  0  0  0  0  0
    2.7371   -1.4103   -2.6900 H   0  0  0  0  0  0  0  0  0  0  0  0
    1.6433   -1.3561   -0.4498 H   0  0  0  0  0  0  0  0  0  0  0  0
    0.8435   -4.2717    0.9719 H   0  0  0  0  0  0  0  0  0  0  0  0
    2.6542   -2.4533    2.6510 H   0  0  0  0  0  0  0  0  0  0  0  0
    1.3112   -3.4123    3.3014 H   0  0  0  0  0  0  0  0  0  0  0  0
    2.7074   -4.2133    2.5571 H   0  0  0  0  0  0  0  0  0  0  0  0
    0.1755    2.1665    1.3545 H   0  0  0  0  0  0  0  0  0  0  0  0
    1.4443    1.3178    2.2593 H   0  0  0  0  0  0  0  0  0  0  0  0
   -0.1507    1.5520    3.0015 H   0  0  0  0  0  0  0  0  0  0  0  0
   -2.2458    2.2109    2.2213 H   0  0  0  0  0  0  0  0  0  0  0  0
   -3.8075    2.2467    1.4528 H   0  0  0  0  0  0  0  0  0  0  0  0
   -2.3693    2.8488    0.5768 H   0  0  0  0  0  0  0  0  0  0  0  0
   -4.1687    2.5470   -0.7921 H   0  0  0  0  0  0  0  0  0  0  0  0
   -6.2158    3.1494   -1.9418 H   0  0  0  0  0  0  0  0  0  0  0  0
   -7.9126    1.6848   -3.9574 H   0  0  0  0  0  0  0  0  0  0  0  0
   -8.9273    0.7294   -2.8524 H   0  0  0  0  0  0  0  0  0  0  0  0
   -8.6033    2.4253   -2.4899 H   0  0  0  0  0  0  0  0  0  0  0  0
   -7.3155   -1.0032   -2.2325 H   0  0  0  0  0  0  0  0  0  0  0  0
   -5.2826   -1.6342   -1.0339 H   0  0  0  0  0  0  0  0  0  0  0  0
    2.8875    0.9852   -2.2633 H   0  0  0  0  0  0  0  0  0  0  0  0
    4.1477    2.8793   -1.3101 H   0  0  0  0  0  0  0  0  0  0  0  0
  1  2  1  0
  2  3  1  0
  3  4  2  0
  4  5  1  0
  5  6  2  0
  6  7  1  0
  7  8  1  0
  8  9  1  0
  9 10  2  0
  9 11  1  0
 11 12  1  0
 11 13  1  0
 13 14  1  0
 14 15  2  0
 15 16  1  0
 15 17  1  0
 17 18  2  0
 18 19  1  0
 18 20  1  0
 20 21  1  0
 21 22  2  0
 22 23  1  0
 23 24  2  0
 24 25  1  0
 24 26  1  0
 26 27  2  0
 20 28  1  0
 28 29  2  0
 29 30  1  0
 30 31  2  0
  6 32  1  0
 32 33  2  0
 33  3  1  0
 30 13  1  0
 29 17  1  0
 27 21  1  0
  1 34  1  0
  1 35  1  0
  1 36  1  0
  4 37  1  0
  5 38  1  0
  7 39  1  0
  7 40  1  0
  8 41  1  0
 11 42  1  0
 12 43  1  0
 12 44  1  0
 12 45  1  0
 16 46  1  0
 16 47  1  0
 16 48  1  0
 19 49  1  0
 19 50  1  0
 19 51  1  0
 22 52  1  0
 23 53  1  0
 25 54  1  0
 25 55  1  0
 25 56  1  0
 26 57  1  0
 27 58  1  0
 32 59  1  0
 33 60  1  0
M  END
$$$$
