
     RDKit          3D

 41 43  0  0  0  0  0  0  0  0999 V2000
   -3.4076    2.6103   -0.1683 C   0  0  0  0  0  0  0  0  0  0  0  0
   -2.6289    1.4294   -0.4402 N   0  0  0  0  0  0  0  0  0  0  0  0
   -1.3885    1.3694   -1.0130 C   0  0  0  0  0  0  0  0  0  0  0  0
   -0.4149    2.7459   -1.3873 S   0  0  0  0  0  0  0  0  0  0  0  0
    0.7455    2.0257   -2.5872 C   0  0  0  0  0  0  0  0  0  0  0  0
    1.8740    1.1837   -2.0052 C   0  0  0  0  0  0  0  0  0  0  0  0
    2.5958    0.5260   -2.7583 O   0  0  0  0  0  0  0  0  0  0  0  0
    2.0659    1.2880   -0.6317 N   0  0  0  0  0  0  0  0  0  0  0  0
    2.9501    0.5219    0.0928 N   0  0  0  0  0  0  0  0  0  0  0  0
    4.1121    0.2737   -0.4276 C   0  0  0  0  0  0  0  0  0  0  0  0
    5.0475   -0.5750    0.2734 C   0  0  0  0  0  0  0  0  0  0  0  0
    4.8837   -1.2483    1.4699 C   0  0  0  0  0  0  0  0  0  0  0  0
    6.0429   -1.9983    1.8324 C   0  0  0  0  0  0  0  0  0  0  0  0
    7.0415   -1.8628    0.8910 C   0  0  0  0  0  0  0  0  0  0  0  0
    8.3422   -2.4796    0.9267 N   0  0  0  0  0  4  0  0  0  0  0  0
    8.5535   -3.2594    1.8663 O   0  0  0  0  0  0  0  0  0  0  0  0
    9.1558   -2.1908    0.0404 O   0  0  0  0  0  1  0  0  0  0  0  0
    6.5981   -0.8497   -0.3985 S   0  0  0  0  0  0  0  0  0  0  0  0
   -1.0376    0.1215   -1.1920 N   0  0  0  0  0  0  0  0  0  0  0  0
   -2.0604   -0.6635   -0.7267 N   0  0  0  0  0  0  0  0  0  0  0  0
   -3.0077    0.1177   -0.2361 C   0  0  0  0  0  0  0  0  0  0  0  0
   -4.2484   -0.3562    0.3746 C   0  0  0  0  0  0  0  0  0  0  0  0
   -4.7257    0.1630    1.5869 C   0  0  0  0  0  0  0  0  0  0  0  0
   -5.9136   -0.3211    2.1468 C   0  0  0  0  0  0  0  0  0  0  0  0
   -6.6215   -1.3366    1.5057 C   0  0  0  0  0  0  0  0  0  0  0  0
   -8.0751   -1.9341    2.2034 Cl  0  0  0  0  0  0  0  0  0  0  0  0
   -6.1516   -1.8757    0.3114 C   0  0  0  0  0  0  0  0  0  0  0  0
   -4.9651   -1.3904   -0.2473 C   0  0  0  0  0  0  0  0  0  0  0  0
   -4.4730    2.3753   -0.2275 H   0  0  0  0  0  0  0  0  0  0  0  0
   -3.1497    2.9695    0.8316 H   0  0  0  0  0  0  0  0  0  0  0  0
   -3.1929    3.3774   -0.9145 H   0  0  0  0  0  0  0  0  0  0  0  0
    1.2135    2.8554   -3.1257 H   0  0  0  0  0  0  0  0  0  0  0  0
    0.1937    1.4218   -3.3153 H   0  0  0  0  0  0  0  0  0  0  0  0
    1.2400    1.5490   -0.0975 H   0  0  0  0  0  0  0  0  0  0  0  0
    4.4435    0.7123   -1.3852 H   0  0  0  0  0  0  0  0  0  0  0  0
    3.9683   -1.2075    2.0517 H   0  0  0  0  0  0  0  0  0  0  0  0
    6.1310   -2.6020    2.7295 H   0  0  0  0  0  0  0  0  0  0  0  0
   -4.1724    0.9306    2.1226 H   0  0  0  0  0  0  0  0  0  0  0  0
   -6.2745    0.0873    3.0873 H   0  0  0  0  0  0  0  0  0  0  0  0
   -6.6931   -2.6764   -0.1857 H   0  0  0  0  0  0  0  0  0  0  0  0
   -4.5962   -1.8276   -1.1753 H   0  0  0  0  0  0  0  0  0  0  0  0
  1  2  1  0
  2  3  1  0
  3  4  1  0
  4  5  1  0
  5  6  1  0
  6  7  2  0
  6  8  1  0
  8  9  1  0
  9 10  2  3
 10 11  1  0
 11 12  2  0
 12 13  1  0
 13 14  2  0
 14 15  1  0
 15 16  2  0
 15 17  1  0
 14 18  1  0
  3 19  2  0
 19 20  1  0
 20 21  2  0
 21 22  1  0
 22 23  2  0
 23 24  1  0
 24 25  2  0
 25 26  1  0
 25 27  1  0
 27 28  2  0
 21  2  1  0
 28 22  1  0
 18 11  1  0
  1 29  1  0
  1 30  1  0
  1 31  1  0
  5 32  1  0
  5 33  1  0
  8 34  1  0
 10 35  1  0
 12 36  1  0
 13 37  1  0
 23 38  1  0
 24 39  1  0
 27 40  1  0
 28 41  1  0
M  CHG  2  15   1  17  -1
M  END
$$$$
