
     RDKit          3D

 63 65  0  0  0  0  0  0  0  0999 V2000
    5.0869    3.3025   -1.1393 C   0  0  0  0  0  0  0  0  0  0  0  0
    3.8509    2.7912   -1.6190 O   0  0  0  0  0  0  0  0  0  0  0  0
    2.7170    3.3668   -1.1186 C   0  0  0  0  0  0  0  0  0  0  0  0
    2.6467    4.5881   -0.4506 C   0  0  0  0  0  0  0  0  0  0  0  0
    1.4144    5.0696   -0.0011 C   0  0  0  0  0  0  0  0  0  0  0  0
    0.2512    4.3229   -0.1931 C   0  0  0  0  0  0  0  0  0  0  0  0
    0.3084    3.0845   -0.8441 C   0  0  0  0  0  0  0  0  0  0  0  0
   -0.9329    2.2350   -1.0115 C   0  0  0  0  0  0  0  0  0  0  0  0
   -0.7853    0.9406   -0.3442 N   0  0  0  0  0  0  0  0  0  0  0  0
   -0.8587    0.9375    1.1213 C   0  0  0  0  0  0  0  0  0  0  0  0
   -2.2871    0.6822    1.6173 C   0  0  0  0  0  0  0  0  0  0  0  0
   -3.2893    0.9912    0.9808 O   0  0  0  0  0  0  0  0  0  0  0  0
   -2.3453    0.0928    2.8616 N   0  0  0  0  0  0  0  0  0  0  0  0
   -3.6072   -0.4263    3.3648 C   0  0  0  0  0  0  0  0  0  0  0  0
   -3.4311   -1.0304    4.7566 C   0  0  0  0  0  0  0  0  0  0  0  0
   -4.6696   -1.7489    5.2635 C   0  0  0  0  0  0  0  0  0  0  0  0
   -4.0718   -2.8107    6.1537 C   0  0  0  0  0  0  0  0  0  0  0  0
   -2.8371   -3.2049    5.3749 C   0  0  0  0  0  0  0  0  0  0  0  0
   -2.3699   -2.0135    4.7237 O   0  0  0  0  0  0  0  0  0  0  0  0
   -0.6654   -0.2046   -1.1132 C   0  0  0  0  0  0  0  0  0  0  0  0
   -0.6421   -0.1754   -2.3470 O   0  0  0  0  0  0  0  0  0  0  0  0
   -0.5035   -1.5234   -0.3724 C   0  0  0  0  0  0  0  0  0  0  0  0
   -0.5695   -2.7318   -1.2990 C   0  0  0  0  0  0  0  0  0  0  0  0
    0.7669   -2.9873   -1.9717 C   0  0  0  0  0  0  0  0  0  0  0  0
    1.5270   -3.8400   -1.5247 O   0  0  0  0  0  0  0  0  0  0  0  0
    0.9733   -2.1692   -3.0606 N   0  0  0  0  0  0  0  0  0  0  0  0
    2.0917   -2.1873   -3.8692 C   0  0  0  0  0  0  0  0  0  0  0  0
    2.2730   -1.2982   -4.9566 C   0  0  0  0  0  0  0  0  0  0  0  0
    3.4673   -1.6715   -5.5184 C   0  0  0  0  0  0  0  0  0  0  0  0
    4.2510   -1.2103   -6.6760 C   0  0  0  0  0  0  0  0  0  0  0  0
    3.9991   -2.6841   -4.7881 O   0  0  0  0  0  0  0  0  0  0  0  0
    3.1327   -3.0194   -3.7662 N   0  0  0  0  0  0  0  0  0  0  0  0
    1.5471    2.6321   -1.3257 C   0  0  0  0  0  0  0  0  0  0  0  0
    5.8826    2.6615   -1.5275 H   0  0  0  0  0  0  0  0  0  0  0  0
    5.1367    3.2651   -0.0460 H   0  0  0  0  0  0  0  0  0  0  0  0
    5.2669    4.3172   -1.5117 H   0  0  0  0  0  0  0  0  0  0  0  0
    3.5282    5.1971   -0.2835 H   0  0  0  0  0  0  0  0  0  0  0  0
    1.3638    6.0293    0.5054 H   0  0  0  0  0  0  0  0  0  0  0  0
   -0.6962    4.7124    0.1690 H   0  0  0  0  0  0  0  0  0  0  0  0
   -1.1293    2.1113   -2.0821 H   0  0  0  0  0  0  0  0  0  0  0  0
   -1.8120    2.7347   -0.5885 H   0  0  0  0  0  0  0  0  0  0  0  0
   -0.5286    1.9022    1.5165 H   0  0  0  0  0  0  0  0  0  0  0  0
   -0.1882    0.1727    1.5190 H   0  0  0  0  0  0  0  0  0  0  0  0
   -1.5213   -0.3869    3.2098 H   0  0  0  0  0  0  0  0  0  0  0  0
   -3.9375   -1.1909    2.6493 H   0  0  0  0  0  0  0  0  0  0  0  0
   -4.3476    0.3858    3.3731 H   0  0  0  0  0  0  0  0  0  0  0  0
   -3.1158   -0.2567    5.4676 H   0  0  0  0  0  0  0  0  0  0  0  0
   -5.2117   -2.2264    4.4384 H   0  0  0  0  0  0  0  0  0  0  0  0
   -5.3656   -1.0861    5.7816 H   0  0  0  0  0  0  0  0  0  0  0  0
   -3.7832   -2.3722    7.1171 H   0  0  0  0  0  0  0  0  0  0  0  0
   -4.7423   -3.6525    6.3445 H   0  0  0  0  0  0  0  0  0  0  0  0
   -3.0772   -3.9348    4.5937 H   0  0  0  0  0  0  0  0  0  0  0  0
   -2.0455   -3.6147    6.0090 H   0  0  0  0  0  0  0  0  0  0  0  0
    0.4510   -1.5048    0.1593 H   0  0  0  0  0  0  0  0  0  0  0  0
   -1.3153   -1.6128    0.3530 H   0  0  0  0  0  0  0  0  0  0  0  0
   -1.3556   -2.6357   -2.0557 H   0  0  0  0  0  0  0  0  0  0  0  0
   -0.8101   -3.6262   -0.7124 H   0  0  0  0  0  0  0  0  0  0  0  0
    0.3285   -1.3972   -3.2068 H   0  0  0  0  0  0  0  0  0  0  0  0
    1.6111   -0.5147   -5.2948 H   0  0  0  0  0  0  0  0  0  0  0  0
    5.0043   -0.4788   -6.3660 H   0  0  0  0  0  0  0  0  0  0  0  0
    3.6022   -0.7364   -7.4174 H   0  0  0  0  0  0  0  0  0  0  0  0
    4.7593   -2.0445   -7.1670 H   0  0  0  0  0  0  0  0  0  0  0  0
    1.6096    1.6829   -1.8550 H   0  0  0  0  0  0  0  0  0  0  0  0
  1  2  1  0
  2  3  1  0
  3  4  2  0
  4  5  1  0
  5  6  2  0
  6  7  1  0
  7  8  1  0
  8  9  1  0
  9 10  1  0
 10 11  1  0
 11 12  2  0
 11 13  1  0
 13 14  1  0
 14 15  1  0
 15 16  1  0
 16 17  1  0
 17 18  1  0
 18 19  1  0
  9 20  1  0
 20 21  2  0
 20 22  1  0
 22 23  1  0
 23 24  1  0
 24 25  2  0
 24 26  1  0
 26 27  1  0
 27 28  1  0
 28 29  2  0
 29 30  1  0
 29 31  1  0
 31 32  1  0
  7 33  2  0
 33  3  1  0
 19 15  1  0
 32 27  2  0
  1 34  1  0
  1 35  1  0
  1 36  1  0
  4 37  1  0
  5 38  1  0
  6 39  1  0
  8 40  1  0
  8 41  1  0
 10 42  1  0
 10 43  1  0
 13 44  1  0
 14 45  1  0
 14 46  1  0
 15 47  1  0
 16 48  1  0
 16 49  1  0
 17 50  1  0
 17 51  1  0
 18 52  1  0
 18 53  1  0
 22 54  1  0
 22 55  1  0
 23 56  1  0
 23 57  1  0
 26 58  1  0
 28 59  1  0
 30 60  1  0
 30 61  1  0
 30 62  1  0
 33 63  1  0
M  END
$$$$
