
     RDKit          3D

 54 57  0  0  0  0  0  0  0  0999 V2000
   -5.4136   -0.5071   -3.4957 C   0  0  0  0  0  0  0  0  0  0  0  0
   -4.4064    0.4255   -3.1251 O   0  0  0  0  0  0  0  0  0  0  0  0
   -3.5859    0.0746   -2.0896 C   0  0  0  0  0  0  0  0  0  0  0  0
   -2.6160    1.0258   -1.7657 C   0  0  0  0  0  0  0  0  0  0  0  0
   -1.7075    0.8002   -0.7280 C   0  0  0  0  0  0  0  0  0  0  0  0
   -1.7709   -0.3895    0.0029 C   0  0  0  0  0  0  0  0  0  0  0  0
   -0.8618   -0.6275    1.0658 N   0  0  0  0  0  0  0  0  0  0  0  0
   -1.1529   -1.1020    2.3417 C   0  0  0  0  0  0  0  0  0  0  0  0
   -2.5153   -1.2640    2.9337 C   0  0  0  0  0  0  0  0  0  0  0  0
   -3.2183    0.0458    3.1383 C   0  0  0  0  0  0  0  0  0  0  0  0
   -4.3215    0.5570    2.4749 C   0  0  0  0  0  0  0  0  0  0  0  0
   -4.6040    1.8314    3.0146 C   0  0  0  0  0  0  0  0  0  0  0  0
   -3.6748    2.0708    3.9996 C   0  0  0  0  0  0  0  0  0  0  0  0
   -2.8404    0.9846    4.0769 N   0  0  0  0  0  0  0  0  0  0  0  0
   -1.7310    0.8845    5.0028 C   0  0  0  0  0  0  0  0  0  0  0  0
   -0.0317   -1.2464    3.0251 N   0  0  0  0  0  0  0  0  0  0  0  0
    1.0045   -0.8236    2.2448 N   0  0  0  0  0  0  0  0  0  0  0  0
    0.5109   -0.4413    1.0896 C   0  0  0  0  0  0  0  0  0  0  0  0
    1.4872    0.0311   -0.2657 S   0  0  0  0  0  0  0  0  0  0  0  0
    3.0720    0.3325    0.5712 C   0  0  0  0  0  0  0  0  0  0  0  0
    4.1146    0.7596   -0.4489 C   0  0  0  0  0  0  0  0  0  0  0  0
    4.5257    1.9159   -0.4834 O   0  0  0  0  0  0  0  0  0  0  0  0
    4.5248   -0.2840   -1.2667 N   0  0  0  0  0  0  0  0  0  0  0  0
    5.4945   -0.2482   -2.2895 C   0  0  0  0  0  0  0  0  0  0  0  0
    6.2583    0.8798   -2.6052 C   0  0  0  0  0  0  0  0  0  0  0  0
    7.2060    0.8354   -3.6355 C   0  0  0  0  0  0  0  0  0  0  0  0
    7.3982   -0.3388   -4.3573 C   0  0  0  0  0  0  0  0  0  0  0  0
    6.6408   -1.4580   -4.0415 C   0  0  0  0  0  0  0  0  0  0  0  0
    6.8212   -2.5922   -4.7314 F   0  0  0  0  0  0  0  0  0  0  0  0
    5.6959   -1.4246   -3.0194 C   0  0  0  0  0  0  0  0  0  0  0  0
   -2.7385   -1.3484   -0.3195 C   0  0  0  0  0  0  0  0  0  0  0  0
   -3.6417   -1.1151   -1.3640 C   0  0  0  0  0  0  0  0  0  0  0  0
   -6.1142   -0.6795   -2.6720 H   0  0  0  0  0  0  0  0  0  0  0  0
   -4.9722   -1.4470   -3.8433 H   0  0  0  0  0  0  0  0  0  0  0  0
   -5.9780   -0.0765   -4.3285 H   0  0  0  0  0  0  0  0  0  0  0  0
   -2.5719    1.9587   -2.3238 H   0  0  0  0  0  0  0  0  0  0  0  0
   -0.9955    1.5860   -0.4876 H   0  0  0  0  0  0  0  0  0  0  0  0
   -3.1315   -1.9336    2.3274 H   0  0  0  0  0  0  0  0  0  0  0  0
   -2.4229   -1.7709    3.9029 H   0  0  0  0  0  0  0  0  0  0  0  0
   -4.8632    0.0669    1.6756 H   0  0  0  0  0  0  0  0  0  0  0  0
   -5.3976    2.5039    2.7162 H   0  0  0  0  0  0  0  0  0  0  0  0
   -3.5418    2.9271    4.6482 H   0  0  0  0  0  0  0  0  0  0  0  0
   -1.7054   -0.1217    5.4266 H   0  0  0  0  0  0  0  0  0  0  0  0
   -1.8696    1.6091    5.8098 H   0  0  0  0  0  0  0  0  0  0  0  0
   -0.8107    1.1072    4.4582 H   0  0  0  0  0  0  0  0  0  0  0  0
    3.4238   -0.5710    1.0809 H   0  0  0  0  0  0  0  0  0  0  0  0
    2.9596    1.1284    1.3147 H   0  0  0  0  0  0  0  0  0  0  0  0
    4.0304   -1.1615   -1.1509 H   0  0  0  0  0  0  0  0  0  0  0  0
    6.1432    1.8160   -2.0670 H   0  0  0  0  0  0  0  0  0  0  0  0
    7.7906    1.7221   -3.8686 H   0  0  0  0  0  0  0  0  0  0  0  0
    8.1287   -0.3878   -5.1580 H   0  0  0  0  0  0  0  0  0  0  0  0
    5.1304   -2.3274   -2.8135 H   0  0  0  0  0  0  0  0  0  0  0  0
   -2.7843   -2.3057    0.1932 H   0  0  0  0  0  0  0  0  0  0  0  0
   -4.3704   -1.8867   -1.5904 H   0  0  0  0  0  0  0  0  0  0  0  0
  1  2  1  0
  2  3  1  0
  3  4  2  0
  4  5  1  0
  5  6  2  0
  6  7  1  0
  7  8  1  0
  8  9  1  0
  9 10  1  0
 10 11  2  0
 11 12  1  0
 12 13  2  0
 13 14  1  0
 14 15  1  0
  8 16  2  0
 16 17  1  0
 17 18  2  0
 18 19  1  0
 19 20  1  0
 20 21  1  0
 21 22  2  0
 21 23  1  0
 23 24  1  0
 24 25  2  0
 25 26  1  0
 26 27  2  0
 27 28  1  0
 28 29  1  0
 28 30  2  0
  6 31  1  0
 31 32  2  0
 32  3  1  0
 18  7  1  0
 30 24  1  0
 14 10  1  0
  1 33  1  0
  1 34  1  0
  1 35  1  0
  4 36  1  0
  5 37  1  0
  9 38  1  0
  9 39  1  0
 11 40  1  0
 12 41  1  0
 13 42  1  0
 15 43  1  0
 15 44  1  0
 15 45  1  0
 20 46  1  0
 20 47  1  0
 23 48  1  0
 25 49  1  0
 26 50  1  0
 27 51  1  0
 30 52  1  0
 31 53  1  0
 32 54  1  0
M  END
$$$$
