
     RDKit          3D

 38 39  0  0  0  0  0  0  0  0999 V2000
    0.0689   -1.7688   -1.3366 C   0  0  0  0  0  0  0  0  0  0  0  0
    0.3880   -1.3539    0.0867 C   0  0  0  0  0  0  0  0  0  0  0  0
    1.7405   -0.7983    0.3984 C   0  0  0  0  0  0  0  0  0  0  0  0
    2.6528   -0.4597   -0.5246 C   0  0  0  0  0  0  0  0  0  0  0  0
    3.9706    0.1023   -0.1933 C   0  0  0  0  0  0  0  0  0  0  0  0
    4.5176    1.0842   -1.0299 C   0  0  0  0  0  0  0  0  0  0  0  0
    5.7798    1.6223   -0.7661 C   0  0  0  0  0  0  0  0  0  0  0  0
    6.5130    1.1756    0.3309 C   0  0  0  0  0  0  0  0  0  0  0  0
    5.9872    0.1884    1.1614 C   0  0  0  0  0  0  0  0  0  0  0  0
    4.7246   -0.3496    0.8981 C   0  0  0  0  0  0  0  0  0  0  0  0
   -0.4465   -1.4426    1.0886 N   0  0  0  0  0  0  0  0  0  0  0  0
   -1.7119   -1.8876    0.8053 N   0  0  0  0  0  0  0  0  0  0  0  0
   -2.6874   -0.9125    0.4782 C   0  0  0  0  0  0  0  0  0  0  0  0
   -2.3596    0.1689   -0.2528 N   0  0  0  0  0  0  0  0  0  0  0  0
   -3.3340    1.0551   -0.5314 C   0  0  0  0  0  0  0  0  0  0  0  0
   -2.9553    2.2615   -1.3352 C   0  0  0  0  0  0  0  0  0  0  0  0
   -4.6333    0.8801   -0.1048 C   0  0  0  0  0  0  0  0  0  0  0  0
   -4.8897   -0.2589    0.6294 C   0  0  0  0  0  0  0  0  0  0  0  0
   -6.2733   -0.5361    1.1347 C   0  0  0  0  0  0  0  0  0  0  0  0
   -3.9312   -1.1599    0.9244 N   0  0  0  0  0  0  0  0  0  0  0  0
    0.9388   -2.2382   -1.8043 H   0  0  0  0  0  0  0  0  0  0  0  0
   -0.7398   -2.5026   -1.3740 H   0  0  0  0  0  0  0  0  0  0  0  0
   -0.2201   -0.8867   -1.9147 H   0  0  0  0  0  0  0  0  0  0  0  0
    1.9227   -0.6507    1.4591 H   0  0  0  0  0  0  0  0  0  0  0  0
    2.4470   -0.5553   -1.5864 H   0  0  0  0  0  0  0  0  0  0  0  0
    3.9609    1.4475   -1.8909 H   0  0  0  0  0  0  0  0  0  0  0  0
    6.1894    2.3896   -1.4178 H   0  0  0  0  0  0  0  0  0  0  0  0
    7.4951    1.5934    0.5364 H   0  0  0  0  0  0  0  0  0  0  0  0
    6.5608   -0.1680    2.0131 H   0  0  0  0  0  0  0  0  0  0  0  0
    4.3440   -1.1318    1.5506 H   0  0  0  0  0  0  0  0  0  0  0  0
   -2.1625   -2.3868    1.5721 H   0  0  0  0  0  0  0  0  0  0  0  0
   -1.8910    2.2412   -1.5914 H   0  0  0  0  0  0  0  0  0  0  0  0
   -3.5290    2.2910   -2.2668 H   0  0  0  0  0  0  0  0  0  0  0  0
   -3.1505    3.1739   -0.7632 H   0  0  0  0  0  0  0  0  0  0  0  0
   -5.4100    1.5983   -0.3340 H   0  0  0  0  0  0  0  0  0  0  0  0
   -6.3030   -1.4765    1.6946 H   0  0  0  0  0  0  0  0  0  0  0  0
   -6.9731   -0.6165    0.2970 H   0  0  0  0  0  0  0  0  0  0  0  0
   -6.6008    0.2676    1.8015 H   0  0  0  0  0  0  0  0  0  0  0  0
  1  2  1  0
  2  3  1  0
  3  4  2  3
  4  5  1  0
  5  6  2  0
  6  7  1  0
  7  8  2  0
  8  9  1  0
  9 10  2  0
  2 11  2  3
 11 12  1  0
 12 13  1  0
 13 14  2  0
 14 15  1  0
 15 16  1  0
 15 17  2  0
 17 18  1  0
 18 19  1  0
 18 20  2  0
 10  5  1  0
 20 13  1  0
  1 21  1  0
  1 22  1  0
  1 23  1  0
  3 24  1  0
  4 25  1  0
  6 26  1  0
  7 27  1  0
  8 28  1  0
  9 29  1  0
 10 30  1  0
 12 31  1  0
 16 32  1  0
 16 33  1  0
 16 34  1  0
 17 35  1  0
 19 36  1  0
 19 37  1  0
 19 38  1  0
M  END
$$$$
