
     RDKit          3D

 69 75  0  0  0  0  0  0  0  0999 V2000
   -4.3040    5.3382    1.6856 C   0  0  0  0  0  0  0  0  0  0  0  0
   -3.8287    4.3585    0.6556 C   0  0  0  0  0  0  0  0  0  0  0  0
   -4.2856    4.4093   -0.6758 C   0  0  0  0  0  0  0  0  0  0  0  0
   -5.4224    5.6108   -1.1877 Cl  0  0  0  0  0  0  0  0  0  0  0  0
   -3.8368    3.4936   -1.6486 C   0  0  0  0  0  0  0  0  0  0  0  0
   -2.9197    2.4953   -1.3209 C   0  0  0  0  0  0  0  0  0  0  0  0
   -2.4706    2.4298   -0.0123 C   0  0  0  0  0  0  0  0  0  0  0  0
   -2.9154    3.3525    0.9478 C   0  0  0  0  0  0  0  0  0  0  0  0
   -2.2956    3.0911    2.1705 N   0  0  0  0  0  0  0  0  0  0  0  0
   -1.4301    1.9970    2.0920 C   0  0  0  0  0  0  0  0  0  0  0  0
   -0.7560    1.5724    3.0191 O   0  0  0  0  0  0  0  0  0  0  0  0
   -1.4966    1.4891    0.6324 C   0  0  1  0  0  0  0  0  0  0  0  0
   -1.9861    0.0918    0.5107 C   0  0  0  0  0  0  0  0  0  0  0  0
   -0.9173   -0.7791    0.2326 C   0  0  0  0  0  0  0  0  0  0  0  0
   -1.3972   -2.0599    0.1668 C   0  0  0  0  0  0  0  0  0  0  0  0
   -0.7576   -3.2045   -0.0566 O   0  0  0  0  0  0  0  0  0  0  0  0
   -2.7979   -1.9828    0.3216 N   0  0  0  0  0  0  0  0  0  0  0  0
   -3.7327   -3.0557    0.1625 C   0  0  0  0  0  0  0  0  0  0  0  0
   -5.0200   -2.7954   -0.3347 C   0  0  0  0  0  0  0  0  0  0  0  0
   -5.9401   -3.8347   -0.4914 C   0  0  0  0  0  0  0  0  0  0  0  0
   -5.5834   -5.1394   -0.1590 C   0  0  0  0  0  0  0  0  0  0  0  0
   -4.3036   -5.4083    0.3214 C   0  0  0  0  0  0  0  0  0  0  0  0
   -3.3775   -4.3729    0.4772 C   0  0  0  0  0  0  0  0  0  0  0  0
   -3.1268   -0.6499    0.6501 C   0  0  0  0  0  0  0  0  0  0  0  0
   -4.3249   -0.2426    1.0678 O   0  0  0  0  0  0  0  0  0  0  0  0
    0.3472   -0.0129    0.1859 C   0  0  1  0  0  0  0  0  0  0  0  0
    1.3715   -0.3138   -0.9129 C   0  0  0  0  0  0  0  0  0  0  0  0
    2.4551    0.6954   -0.8328 N   0  0  0  0  0  0  0  0  0  0  0  0
    3.6015    0.4846   -0.0772 C   0  0  0  0  0  0  0  0  0  0  0  0
    4.2068    1.3888    0.4897 O   0  0  0  0  0  0  0  0  0  0  0  0
    3.9983   -0.8265   -0.0222 N   0  0  0  0  0  0  0  0  0  0  0  0
    5.2091   -1.2029    0.6778 C   0  0  0  0  0  0  0  0  0  0  0  0
    6.3659   -1.3576   -0.2770 C   0  0  0  0  0  0  0  0  0  0  0  0
    6.7657   -2.6267   -0.7195 C   0  0  0  0  0  0  0  0  0  0  0  0
    7.8262   -2.7610   -1.6175 C   0  0  0  0  0  0  0  0  0  0  0  0
    8.4922   -1.6301   -2.0864 C   0  0  0  0  0  0  0  0  0  0  0  0
    8.0985   -0.3635   -1.6596 C   0  0  0  0  0  0  0  0  0  0  0  0
    7.0401   -0.2270   -0.7606 C   0  0  0  0  0  0  0  0  0  0  0  0
    1.9655    2.0850   -0.9256 C   0  0  0  0  0  0  0  0  0  0  0  0
    0.8422    2.3785    0.1076 C   0  0  0  0  0  0  0  0  0  0  0  0
   -0.1918    1.3652   -0.0518 N   0  0  0  0  0  0  0  0  0  0  0  0
   -5.3908    5.2710    1.8019 H   0  0  0  0  0  0  0  0  0  0  0  0
   -4.0315    6.3578    1.3939 H   0  0  0  0  0  0  0  0  0  0  0  0
   -3.8650    5.1575    2.6704 H   0  0  0  0  0  0  0  0  0  0  0  0
   -4.2073    3.5590   -2.6694 H   0  0  0  0  0  0  0  0  0  0  0  0
   -2.5723    1.7866   -2.0665 H   0  0  0  0  0  0  0  0  0  0  0  0
   -2.4358    3.5978    3.0306 H   0  0  0  0  0  0  0  0  0  0  0  0
    0.1961   -3.0196   -0.0771 H   0  0  0  0  0  0  0  0  0  0  0  0
   -5.3135   -1.7983   -0.6574 H   0  0  0  0  0  0  0  0  0  0  0  0
   -6.9313   -3.6274   -0.8873 H   0  0  0  0  0  0  0  0  0  0  0  0
   -6.2988   -5.9483   -0.2834 H   0  0  0  0  0  0  0  0  0  0  0  0
   -4.0228   -6.4269    0.5779 H   0  0  0  0  0  0  0  0  0  0  0  0
   -2.3980   -4.6185    0.8776 H   0  0  0  0  0  0  0  0  0  0  0  0
   -4.8149   -1.0139    1.4072 H   0  0  0  0  0  0  0  0  0  0  0  0
    0.8259   -0.0651    1.1742 H   0  0  0  0  0  0  0  0  0  0  0  0
    0.9241   -0.2410   -1.9120 H   0  0  0  0  0  0  0  0  0  0  0  0
    1.7536   -1.3317   -0.8022 H   0  0  0  0  0  0  0  0  0  0  0  0
    3.8381   -1.3281   -0.8825 H   0  0  0  0  0  0  0  0  0  0  0  0
    5.0015   -2.1573    1.1743 H   0  0  0  0  0  0  0  0  0  0  0  0
    5.4551   -0.4787    1.4625 H   0  0  0  0  0  0  0  0  0  0  0  0
    6.2575   -3.5205   -0.3647 H   0  0  0  0  0  0  0  0  0  0  0  0
    8.1345   -3.7482   -1.9513 H   0  0  0  0  0  0  0  0  0  0  0  0
    9.3178   -1.7352   -2.7854 H   0  0  0  0  0  0  0  0  0  0  0  0
    8.6141    0.5201   -2.0266 H   0  0  0  0  0  0  0  0  0  0  0  0
    6.7375    0.7683   -0.4376 H   0  0  0  0  0  0  0  0  0  0  0  0
    1.5754    2.2149   -1.9428 H   0  0  0  0  0  0  0  0  0  0  0  0
    2.7868    2.7982   -0.7996 H   0  0  0  0  0  0  0  0  0  0  0  0
    0.4409    3.3786   -0.0882 H   0  0  0  0  0  0  0  0  0  0  0  0
    1.2559    2.3696    1.1226 H   0  0  0  0  0  0  0  0  0  0  0  0
  1  2  1  0
  2  3  2  0
  3  4  1  0
  3  5  1  0
  5  6  2  0
  6  7  1  0
  7  8  2  0
  8  9  1  0
  9 10  1  0
 10 11  2  0
 10 12  1  0
 12 13  1  0
 13 14  1  0
 14 15  2  0
 15 16  1  0
 15 17  1  0
 17 18  1  0
 18 19  2  0
 19 20  1  0
 20 21  2  0
 21 22  1  0
 22 23  2  0
 17 24  1  0
 24 25  1  0
 14 26  1  0
 26 27  1  0
 27 28  1  0
 28 29  1  0
 29 30  2  0
 29 31  1  0
 31 32  1  0
 32 33  1  0
 33 34  2  0
 34 35  1  0
 35 36  2  0
 36 37  1  0
 37 38  2  0
 28 39  1  0
 39 40  1  0
 40 41  1  0
  8  2  1  0
 12 41  1  6
 12  7  1  0
 24 13  2  0
 41 26  1  0
 23 18  1  0
 38 33  1  0
  1 42  1  0
  1 43  1  0
  1 44  1  0
  5 45  1  0
  6 46  1  0
  9 47  1  0
 16 48  1  0
 19 49  1  0
 20 50  1  0
 21 51  1  0
 22 52  1  0
 23 53  1  0
 25 54  1  0
 26 55  1  1
 27 56  1  0
 27 57  1  0
 31 58  1  0
 32 59  1  0
 32 60  1  0
 34 61  1  0
 35 62  1  0
 36 63  1  0
 37 64  1  0
 38 65  1  0
 39 66  1  0
 39 67  1  0
 40 68  1  0
 40 69  1  0
M  END
$$$$
