
     RDKit          3D

 37 39  0  0  0  0  0  0  0  0999 V2000
   -0.7176   -1.5813    2.3337 C   0  0  0  0  0  0  0  0  0  0  0  0
   -0.9879   -0.6415    1.2612 N   0  0  0  0  0  0  0  0  0  0  0  0
   -0.0832   -0.0947    0.3301 C   0  0  0  0  0  0  0  0  0  0  0  0
    1.2575   -0.2454    0.3869 C   0  0  0  0  0  0  0  0  0  0  0  0
    2.2633    0.2925   -0.5062 C   0  0  0  0  0  0  0  0  0  0  0  0
    3.5877    0.0820   -0.4498 C   0  0  0  0  0  0  0  0  0  0  0  0
    4.6874    0.8048   -1.5886 S   0  0  0  0  0  0  0  0  0  0  0  0
    6.0857    0.0660   -0.8490 C   0  0  0  0  0  0  0  0  0  0  0  0
    7.6599    0.2314   -1.3321 S   0  0  0  0  0  0  0  0  0  0  0  0
    5.6972   -0.6891    0.2123 N   0  0  0  0  0  0  0  0  0  0  0  0
    4.3648   -0.7518    0.5153 C   0  0  0  0  0  0  0  0  0  0  0  0
    3.9161   -1.4042    1.4432 O   0  0  0  0  0  0  0  0  0  0  0  0
   -0.9134    0.6808   -0.7502 C   0  0  0  0  0  0  0  0  0  0  0  0
   -0.6700    2.1960   -0.7000 C   0  0  0  0  0  0  0  0  0  0  0  0
   -0.7264    0.1165   -2.1674 C   0  0  0  0  0  0  0  0  0  0  0  0
   -2.3420    0.3920   -0.2934 C   0  0  0  0  0  0  0  0  0  0  0  0
   -3.5437    0.7853   -0.8726 C   0  0  0  0  0  0  0  0  0  0  0  0
   -4.7340    0.3736   -0.2750 C   0  0  0  0  0  0  0  0  0  0  0  0
   -4.7093   -0.4185    0.8803 C   0  0  0  0  0  0  0  0  0  0  0  0
   -3.4937   -0.8059    1.4556 C   0  0  0  0  0  0  0  0  0  0  0  0
   -2.3076   -0.3951    0.8679 C   0  0  0  0  0  0  0  0  0  0  0  0
   -0.8456   -2.6108    1.9825 H   0  0  0  0  0  0  0  0  0  0  0  0
   -1.3799   -1.4164    3.1907 H   0  0  0  0  0  0  0  0  0  0  0  0
    0.2993   -1.4789    2.7239 H   0  0  0  0  0  0  0  0  0  0  0  0
    1.6508   -0.8351    1.2096 H   0  0  0  0  0  0  0  0  0  0  0  0
    1.9024    0.9422   -1.2964 H   0  0  0  0  0  0  0  0  0  0  0  0
    6.3632   -1.2002    0.7712 H   0  0  0  0  0  0  0  0  0  0  0  0
   -0.8150    2.5929    0.3123 H   0  0  0  0  0  0  0  0  0  0  0  0
   -1.3610    2.7332   -1.3604 H   0  0  0  0  0  0  0  0  0  0  0  0
    0.3425    2.4630   -1.0150 H   0  0  0  0  0  0  0  0  0  0  0  0
   -0.8895   -0.9680   -2.1916 H   0  0  0  0  0  0  0  0  0  0  0  0
    0.2735    0.3076   -2.5649 H   0  0  0  0  0  0  0  0  0  0  0  0
   -1.4346    0.5662   -2.8736 H   0  0  0  0  0  0  0  0  0  0  0  0
   -3.5626    1.3951   -1.7697 H   0  0  0  0  0  0  0  0  0  0  0  0
   -5.6872    0.6665   -0.7080 H   0  0  0  0  0  0  0  0  0  0  0  0
   -5.6447   -0.7341    1.3359 H   0  0  0  0  0  0  0  0  0  0  0  0
   -3.5023   -1.4164    2.3509 H   0  0  0  0  0  0  0  0  0  0  0  0
  1  2  1  0
  2  3  1  0
  3  4  2  3
  4  5  1  0
  5  6  2  3
  6  7  1  0
  7  8  1  0
  8  9  2  0
  8 10  1  0
 10 11  1  0
 11 12  2  0
  3 13  1  0
 13 14  1  0
 13 15  1  0
 13 16  1  0
 16 17  2  0
 17 18  1  0
 18 19  2  0
 19 20  1  0
 20 21  2  0
 21  2  1  0
 11  6  1  0
 21 16  1  0
  1 22  1  0
  1 23  1  0
  1 24  1  0
  4 25  1  0
  5 26  1  0
 10 27  1  0
 14 28  1  0
 14 29  1  0
 14 30  1  0
 15 31  1  0
 15 32  1  0
 15 33  1  0
 17 34  1  0
 18 35  1  0
 19 36  1  0
 20 37  1  0
M  END
$$$$
