
     RDKit          3D

 45 47  0  0  0  0  0  0  0  0999 V2000
   -7.2938    1.4382    4.9803 C   0  0  0  0  0  0  0  0  0  0  0  0
   -7.1929    1.5117    3.5641 O   0  0  0  0  0  0  0  0  0  0  0  0
   -6.1371    0.8636    2.9850 C   0  0  0  0  0  0  0  0  0  0  0  0
   -5.1591    0.1266    3.6522 C   0  0  0  0  0  0  0  0  0  0  0  0
   -4.1277   -0.4888    2.9333 C   0  0  0  0  0  0  0  0  0  0  0  0
   -4.0641   -0.3786    1.5387 C   0  0  0  0  0  0  0  0  0  0  0  0
   -2.9423   -1.0248    0.7676 C   0  0  0  0  0  0  0  0  0  0  0  0
   -1.7543   -0.0813    0.5846 C   0  0  0  0  0  0  0  0  0  0  0  0
   -0.6674   -0.7228   -0.1345 N   0  0  0  0  0  0  0  0  0  0  0  0
    0.3489    0.0353   -0.6957 C   0  0  0  0  0  0  0  0  0  0  0  0
    0.2992    1.2626   -0.7149 O   0  0  0  0  0  0  0  0  0  0  0  0
    1.4580   -0.7327   -1.2324 C   0  0  0  0  0  0  0  0  0  0  0  0
    1.6566   -2.0819   -1.4644 C   0  0  0  0  0  0  0  0  0  0  0  0
    2.9550   -2.2177   -2.0187 C   0  0  0  0  0  0  0  0  0  0  0  0
    3.4916   -0.9491   -2.0923 C   0  0  0  0  0  0  0  0  0  0  0  0
    4.7529   -0.3729   -2.5559 C   0  0  0  0  0  0  0  0  0  0  0  0
    4.7183    0.8833   -3.1960 C   0  0  0  0  0  0  0  0  0  0  0  0
    5.8813    1.4911   -3.6786 C   0  0  0  0  0  0  0  0  0  0  0  0
    7.1079    0.8422   -3.5212 C   0  0  0  0  0  0  0  0  0  0  0  0
    8.3355    1.4699   -4.0249 N   0  0  0  0  0  4  0  0  0  0  0  0
    9.4040    0.8703   -3.8422 O   0  0  0  0  0  0  0  0  0  0  0  0
    8.2294    2.5589   -4.6054 O   0  0  0  0  0  1  0  0  0  0  0  0
    7.1755   -0.4012   -2.8838 C   0  0  0  0  0  0  0  0  0  0  0  0
    6.0035   -1.0020   -2.4027 C   0  0  0  0  0  0  0  0  0  0  0  0
    6.2006   -2.5163   -1.5861 Cl  0  0  0  0  0  0  0  0  0  0  0  0
    2.5775   -0.0485   -1.6248 O   0  0  0  0  0  0  0  0  0  0  0  0
   -5.0442    0.3667    0.8745 C   0  0  0  0  0  0  0  0  0  0  0  0
   -6.0721    0.9792    1.5951 C   0  0  0  0  0  0  0  0  0  0  0  0
   -6.4231    1.8944    5.4626 H   0  0  0  0  0  0  0  0  0  0  0  0
   -7.4344    0.4045    5.3128 H   0  0  0  0  0  0  0  0  0  0  0  0
   -8.1778    2.0078    5.2825 H   0  0  0  0  0  0  0  0  0  0  0  0
   -5.1673    0.0113    4.7307 H   0  0  0  0  0  0  0  0  0  0  0  0
   -3.3737   -1.0555    3.4754 H   0  0  0  0  0  0  0  0  0  0  0  0
   -2.6216   -1.9391    1.2839 H   0  0  0  0  0  0  0  0  0  0  0  0
   -3.3124   -1.3578   -0.2109 H   0  0  0  0  0  0  0  0  0  0  0  0
   -2.0576    0.8216    0.0415 H   0  0  0  0  0  0  0  0  0  0  0  0
   -1.3561    0.2395    1.5545 H   0  0  0  0  0  0  0  0  0  0  0  0
   -0.4576   -1.6848    0.0895 H   0  0  0  0  0  0  0  0  0  0  0  0
    0.9508   -2.8787   -1.2787 H   0  0  0  0  0  0  0  0  0  0  0  0
    3.4302   -3.1354   -2.3369 H   0  0  0  0  0  0  0  0  0  0  0  0
    3.7671    1.4018   -3.3257 H   0  0  0  0  0  0  0  0  0  0  0  0
    5.8077    2.4610   -4.1673 H   0  0  0  0  0  0  0  0  0  0  0  0
    8.1308   -0.9062   -2.7502 H   0  0  0  0  0  0  0  0  0  0  0  0
   -5.0167    0.4795   -0.2070 H   0  0  0  0  0  0  0  0  0  0  0  0
   -6.8289    1.5553    1.0680 H   0  0  0  0  0  0  0  0  0  0  0  0
  1  2  1  0
  2  3  1  0
  3  4  2  0
  4  5  1  0
  5  6  2  0
  6  7  1  0
  7  8  1  0
  8  9  1  0
  9 10  1  0
 10 11  2  0
 10 12  1  0
 12 13  2  0
 13 14  1  0
 14 15  2  0
 15 16  1  0
 16 17  2  0
 17 18  1  0
 18 19  2  0
 19 20  1  0
 20 21  2  0
 20 22  1  0
 19 23  1  0
 23 24  2  0
 24 25  1  0
 15 26  1  0
  6 27  1  0
 27 28  2  0
 28  3  1  0
 26 12  1  0
 24 16  1  0
  1 29  1  0
  1 30  1  0
  1 31  1  0
  4 32  1  0
  5 33  1  0
  7 34  1  0
  7 35  1  0
  8 36  1  0
  8 37  1  0
  9 38  1  0
 13 39  1  0
 14 40  1  0
 17 41  1  0
 18 42  1  0
 23 43  1  0
 27 44  1  0
 28 45  1  0
M  CHG  2  20   1  22  -1
M  END
$$$$
