
     RDKit          3D

 48 50  0  0  0  0  0  0  0  0999 V2000
    7.3883   -2.3655   -0.0303 C   0  0  0  0  0  0  0  0  0  0  0  0
    6.7651   -1.0391    0.2024 C   0  0  0  0  0  0  0  0  0  0  0  0
    7.3980    0.1006    0.6561 C   0  0  0  0  0  0  0  0  0  0  0  0
    6.2674    1.3795    0.7881 S   0  0  0  0  0  0  0  0  0  0  0  0
    5.0351    0.3385    0.2436 C   0  0  0  0  0  0  0  0  0  0  0  0
    3.7330    0.7358    0.0878 N   0  0  0  0  0  0  0  0  0  0  0  0
    3.1910    1.9570    0.4111 C   0  0  0  0  0  0  0  0  0  0  0  0
    3.7585    2.9173    0.9235 O   0  0  0  0  0  0  0  0  0  0  0  0
    1.7112    2.0412    0.1040 C   0  0  0  0  0  0  0  0  0  0  0  0
    0.8774    1.7699    1.3451 C   0  0  0  0  0  0  0  0  0  0  0  0
    1.0256    0.4236    1.9045 N   0  0  0  0  0  0  0  0  0  0  0  0
    0.6632   -0.9832    1.0875 S   0  0  0  0  0  6  0  0  0  0  0  0
    1.4159   -0.9826   -0.1474 O   0  0  0  0  0  0  0  0  0  0  0  0
    0.7887   -2.0529    2.0500 O   0  0  0  0  0  0  0  0  0  0  0  0
   -1.0584   -0.7967    0.7079 C   0  0  0  0  0  0  0  0  0  0  0  0
   -2.0181   -1.2210    1.6269 C   0  0  0  0  0  0  0  0  0  0  0  0
   -3.3777   -1.1028    1.3156 C   0  0  0  0  0  0  0  0  0  0  0  0
   -3.7947   -0.5662    0.0851 C   0  0  0  0  0  0  0  0  0  0  0  0
   -2.8165   -0.1543   -0.8192 C   0  0  0  0  0  0  0  0  0  0  0  0
   -1.4493   -0.2791   -0.5253 C   0  0  0  0  0  0  0  0  0  0  0  0
   -3.2255    0.4327   -2.1031 C   0  0  0  0  0  0  0  0  0  0  0  0
   -2.3592    0.8869   -2.8475 O   0  0  0  0  0  0  0  0  0  0  0  0
   -4.5831    0.4560   -2.3754 N   0  0  0  0  0  0  0  0  0  0  0  0
   -5.0125    1.0313   -3.6358 C   0  0  0  0  0  0  0  0  0  0  0  0
   -5.5817    0.0902   -1.4797 C   0  0  0  0  0  0  0  0  0  0  0  0
   -6.7753    0.2309   -1.7563 O   0  0  0  0  0  0  0  0  0  0  0  0
   -5.1664   -0.4303   -0.2563 N   0  0  0  0  0  0  0  0  0  0  0  0
   -6.1908   -0.8475    0.6938 C   0  0  0  0  0  0  0  0  0  0  0  0
    5.4089   -0.8882   -0.0346 N   0  0  0  0  0  0  0  0  0  0  0  0
    7.4159   -2.9361    0.9031 H   0  0  0  0  0  0  0  0  0  0  0  0
    8.4118   -2.2595   -0.4027 H   0  0  0  0  0  0  0  0  0  0  0  0
    6.8167   -2.9386   -0.7671 H   0  0  0  0  0  0  0  0  0  0  0  0
    8.4377    0.2394    0.9126 H   0  0  0  0  0  0  0  0  0  0  0  0
    3.1257   -0.0109   -0.2434 H   0  0  0  0  0  0  0  0  0  0  0  0
    1.4478    1.3865   -0.7311 H   0  0  0  0  0  0  0  0  0  0  0  0
    1.5137    3.0609   -0.2505 H   0  0  0  0  0  0  0  0  0  0  0  0
   -0.1813    1.9613    1.1412 H   0  0  0  0  0  0  0  0  0  0  0  0
    1.1655    2.4768    2.1334 H   0  0  0  0  0  0  0  0  0  0  0  0
    1.1212    0.3188    2.9137 H   0  0  0  0  0  0  0  0  0  0  0  0
   -1.7208   -1.6485    2.5843 H   0  0  0  0  0  0  0  0  0  0  0  0
   -4.0917   -1.4471    2.0595 H   0  0  0  0  0  0  0  0  0  0  0  0
   -0.7047    0.0257   -1.2588 H   0  0  0  0  0  0  0  0  0  0  0  0
   -5.8350    0.4438   -4.0549 H   0  0  0  0  0  0  0  0  0  0  0  0
   -5.3698    2.0481   -3.4461 H   0  0  0  0  0  0  0  0  0  0  0  0
   -4.2001    1.0695   -4.3671 H   0  0  0  0  0  0  0  0  0  0  0  0
   -6.0903   -0.2650    1.6157 H   0  0  0  0  0  0  0  0  0  0  0  0
   -7.2028   -0.6909    0.3099 H   0  0  0  0  0  0  0  0  0  0  0  0
   -6.0778   -1.9162    0.9039 H   0  0  0  0  0  0  0  0  0  0  0  0
  1  2  1  0
  2  3  2  0
  3  4  1  0
  4  5  1  0
  5  6  1  0
  6  7  1  0
  7  8  2  0
  7  9  1  0
  9 10  1  0
 10 11  1  0
 11 12  1  0
 12 13  2  0
 12 14  2  0
 12 15  1  0
 15 16  2  0
 16 17  1  0
 17 18  2  0
 18 19  1  0
 19 20  2  0
 19 21  1  0
 21 22  2  0
 21 23  1  0
 23 24  1  0
 23 25  1  0
 25 26  2  0
 25 27  1  0
 27 28  1  0
  5 29  2  0
 29  2  1  0
 20 15  1  0
 27 18  1  0
  1 30  1  0
  1 31  1  0
  1 32  1  0
  3 33  1  0
  6 34  1  0
  9 35  1  0
  9 36  1  0
 10 37  1  0
 10 38  1  0
 11 39  1  0
 16 40  1  0
 17 41  1  0
 20 42  1  0
 24 43  1  0
 24 44  1  0
 24 45  1  0
 28 46  1  0
 28 47  1  0
 28 48  1  0
M  END
$$$$
