
     RDKit          3D

 49 53  0  0  0  0  0  0  0  0999 V2000
    4.8242    1.9381    3.4566 C   0  0  0  0  0  0  0  0  0  0  0  0
    4.3754    1.2895    2.1855 C   0  0  0  0  0  0  0  0  0  0  0  0
    4.9475    1.8990    0.6957 S   0  0  0  0  0  0  0  0  0  0  0  0
    4.0619    0.7559   -0.1909 C   0  0  0  0  0  0  0  0  0  0  0  0
    4.1360    0.7615   -1.5341 N   0  0  0  0  0  0  0  0  0  0  0  0
    3.3993   -0.1930   -2.0950 C   0  0  0  0  0  0  0  0  0  0  0  0
    2.6185   -1.0799   -1.4718 N   0  0  0  0  0  0  0  0  0  0  0  0
    2.5655   -1.0465   -0.1210 C   0  0  0  0  0  0  0  0  0  0  0  0
    1.5340   -2.2503    0.6607 S   0  0  0  0  0  0  0  0  0  0  0  0
   -0.0578   -1.8612   -0.1714 C   0  0  0  0  0  0  0  0  0  0  0  0
   -1.0017   -3.0411    0.0488 C   0  0  0  0  0  0  0  0  0  0  0  0
   -0.6781   -0.5649    0.3920 C   0  0  0  0  0  0  0  0  0  0  0  0
   -0.2828    0.0014    1.4121 O   0  0  0  0  0  0  0  0  0  0  0  0
   -1.7891   -0.1254   -0.3461 N   0  0  0  0  0  0  0  0  0  0  0  0
   -3.1069   -0.1865    0.2351 C   0  0  0  0  0  0  0  0  0  0  0  0
   -3.2616   -0.5541    1.5905 C   0  0  0  0  0  0  0  0  0  0  0  0
   -4.5189   -0.6443    2.1972 C   0  0  0  0  0  0  0  0  0  0  0  0
   -5.6623   -0.3788    1.4609 C   0  0  0  0  0  0  0  0  0  0  0  0
   -5.5419   -0.0333    0.1185 C   0  0  0  0  0  0  0  0  0  0  0  0
   -4.2788    0.0590   -0.4989 C   0  0  0  0  0  0  0  0  0  0  0  0
   -4.2896    0.4009   -2.2386 S   0  0  0  0  0  0  0  0  0  0  0  0
   -2.6048    0.8750   -2.4895 C   0  0  0  0  0  0  0  0  0  0  0  0
   -2.3235    1.5606   -3.6860 C   0  0  0  0  0  0  0  0  0  0  0  0
   -1.0315    1.9803   -3.9874 C   0  0  0  0  0  0  0  0  0  0  0  0
   -0.0079    1.7230   -3.0900 C   0  0  0  0  0  0  0  0  0  0  0  0
   -0.2798    1.0344   -1.9050 C   0  0  0  0  0  0  0  0  0  0  0  0
   -1.5771    0.5802   -1.5828 C   0  0  0  0  0  0  0  0  0  0  0  0
    3.3158   -0.1034    0.6052 C   0  0  0  0  0  0  0  0  0  0  0  0
    3.5072    0.2168    2.0174 C   0  0  0  0  0  0  0  0  0  0  0  0
    2.8550   -0.5047    3.1579 C   0  0  0  0  0  0  0  0  0  0  0  0
    5.6275    2.6640    3.2943 H   0  0  0  0  0  0  0  0  0  0  0  0
    5.1976    1.1881    4.1621 H   0  0  0  0  0  0  0  0  0  0  0  0
    3.9853    2.4650    3.9248 H   0  0  0  0  0  0  0  0  0  0  0  0
    3.4267   -0.2514   -3.1779 H   0  0  0  0  0  0  0  0  0  0  0  0
    0.1145   -1.7543   -1.2458 H   0  0  0  0  0  0  0  0  0  0  0  0
   -0.5627   -3.9795   -0.3062 H   0  0  0  0  0  0  0  0  0  0  0  0
   -1.9382   -2.8998   -0.5022 H   0  0  0  0  0  0  0  0  0  0  0  0
   -1.2651   -3.1585    1.1066 H   0  0  0  0  0  0  0  0  0  0  0  0
   -2.4035   -0.7619    2.2261 H   0  0  0  0  0  0  0  0  0  0  0  0
   -4.5948   -0.9200    3.2455 H   0  0  0  0  0  0  0  0  0  0  0  0
   -6.6435   -0.4468    1.9236 H   0  0  0  0  0  0  0  0  0  0  0  0
   -6.4492    0.1553   -0.4538 H   0  0  0  0  0  0  0  0  0  0  0  0
   -3.1214    1.7796   -4.3940 H   0  0  0  0  0  0  0  0  0  0  0  0
   -0.8328    2.5176   -4.9101 H   0  0  0  0  0  0  0  0  0  0  0  0
    1.0018    2.0688   -3.2969 H   0  0  0  0  0  0  0  0  0  0  0  0
    0.5508    0.9031   -1.2166 H   0  0  0  0  0  0  0  0  0  0  0  0
    3.1605   -1.5553    3.1669 H   0  0  0  0  0  0  0  0  0  0  0  0
    1.7679   -0.4420    3.0842 H   0  0  0  0  0  0  0  0  0  0  0  0
    3.1323   -0.0800    4.1283 H   0  0  0  0  0  0  0  0  0  0  0  0
  1  2  1  0
  2  3  1  0
  3  4  1  0
  4  5  2  0
  5  6  1  0
  6  7  2  0
  7  8  1  0
  8  9  1  0
  9 10  1  0
 10 11  1  0
 10 12  1  0
 12 13  2  0
 12 14  1  0
 14 15  1  0
 15 16  2  0
 16 17  1  0
 17 18  2  0
 18 19  1  0
 19 20  2  0
 20 21  1  0
 21 22  1  0
 22 23  2  0
 23 24  1  0
 24 25  2  0
 25 26  1  0
 26 27  2  0
  8 28  2  0
 28 29  1  0
 29 30  1  0
 29  2  2  0
 28  4  1  0
 27 14  1  0
 20 15  1  0
 27 22  1  0
  1 31  1  0
  1 32  1  0
  1 33  1  0
  6 34  1  0
 10 35  1  0
 11 36  1  0
 11 37  1  0
 11 38  1  0
 16 39  1  0
 17 40  1  0
 18 41  1  0
 19 42  1  0
 23 43  1  0
 24 44  1  0
 25 45  1  0
 26 46  1  0
 30 47  1  0
 30 48  1  0
 30 49  1  0
M  END
$$$$
