
     RDKit          3D

 19 19  0  0  0  0  0  0  0  0999 V2000
   -2.9375    0.2657   -1.7313 C   0  0  0  0  0  0  0  0  0  0  0  0
   -1.7899   -0.5788   -1.1968 C   0  0  0  0  0  0  0  0  0  0  0  0
   -1.7635   -0.5646    0.3304 C   0  0  0  0  0  0  0  0  0  0  0  0
   -0.4216   -1.6021    0.9861 S   0  0  0  0  0  0  0  0  0  0  0  0
    0.9682   -0.5608    0.7752 C   0  0  0  0  0  0  0  0  0  0  0  0
    0.8808    0.6828    0.3584 N   0  0  0  0  0  0  0  0  0  0  0  0
    2.1198    1.2892    0.2795 N   0  0  0  0  0  0  0  0  0  0  0  0
    3.0944    0.4859    0.6422 C   0  0  0  0  0  0  0  0  0  0  0  0
    4.3986    0.8233    0.6515 N   0  0  0  0  0  0  0  0  0  0  0  0
    2.5674   -1.0837    1.0988 S   0  0  0  0  0  0  0  0  0  0  0  0
   -2.8375    1.3086   -1.4138 H   0  0  0  0  0  0  0  0  0  0  0  0
   -2.9468    0.2432   -2.8256 H   0  0  0  0  0  0  0  0  0  0  0  0
   -3.9016   -0.1117   -1.3757 H   0  0  0  0  0  0  0  0  0  0  0  0
   -0.8511   -0.1911   -1.6081 H   0  0  0  0  0  0  0  0  0  0  0  0
   -1.9080   -1.6054   -1.5644 H   0  0  0  0  0  0  0  0  0  0  0  0
   -2.7039   -0.9764    0.7132 H   0  0  0  0  0  0  0  0  0  0  0  0
   -1.6835    0.4557    0.7204 H   0  0  0  0  0  0  0  0  0  0  0  0
    5.0771    0.0746    0.5780 H   0  0  0  0  0  0  0  0  0  0  0  0
    4.6386    1.6457    0.1073 H   0  0  0  0  0  0  0  0  0  0  0  0
  1  2  1  0
  2  3  1  0
  3  4  1  0
  4  5  1  0
  5  6  2  0
  6  7  1  0
  7  8  2  0
  8  9  1  0
  8 10  1  0
 10  5  1  0
  1 11  1  0
  1 12  1  0
  1 13  1  0
  2 14  1  0
  2 15  1  0
  3 16  1  0
  3 17  1  0
  9 18  1  0
  9 19  1  0
M  END
$$$$
