
     RDKit          3D

 50 53  0  0  0  0  0  0  0  0999 V2000
   -3.8480    2.5403   -2.0749 C   0  0  0  0  0  0  0  0  0  0  0  0
   -4.5793    1.4399   -1.4775 N   0  0  0  0  0  0  0  0  0  0  0  0
   -5.6080    1.6014   -0.5835 C   0  0  0  0  0  0  0  0  0  0  0  0
   -6.0731    0.3557   -0.2335 C   0  0  0  0  0  0  0  0  0  0  0  0
   -5.2970   -0.5934   -0.9365 C   0  0  0  0  0  0  0  0  0  0  0  0
   -4.3634    0.0938   -1.6955 C   0  0  0  0  0  0  0  0  0  0  0  0
   -3.3046   -0.4459   -2.6109 C   0  0  0  0  0  0  0  0  0  0  0  0
   -1.9195   -0.2269   -2.0939 C   0  0  0  0  0  0  0  0  0  0  0  0
   -1.0761    0.6535   -2.6043 N   0  0  0  0  0  0  0  0  0  0  0  0
    0.0105    0.7299   -1.7841 N   0  0  0  0  0  0  0  0  0  0  0  0
   -0.1689   -0.1120   -0.7924 C   0  0  0  0  0  0  0  0  0  0  0  0
    1.0288   -0.4400    0.4205 S   0  0  0  0  0  0  0  0  0  0  0  0
    2.4958    0.2694   -0.3834 C   0  0  0  0  0  0  0  0  0  0  0  0
    3.7374    0.0043    0.4598 C   0  0  0  0  0  0  0  0  0  0  0  0
    4.0600   -1.1393    0.7770 O   0  0  0  0  0  0  0  0  0  0  0  0
    4.4298    1.1656    0.7813 N   0  0  0  0  0  0  0  0  0  0  0  0
    5.6352    1.2767    1.5087 C   0  0  0  0  0  0  0  0  0  0  0  0
    6.3490    0.1888    2.0141 C   0  0  0  0  0  0  0  0  0  0  0  0
    7.5426    0.3860    2.7189 C   0  0  0  0  0  0  0  0  0  0  0  0
    8.0320    1.6726    2.9266 C   0  0  0  0  0  0  0  0  0  0  0  0
    7.3285    2.7654    2.4276 C   0  0  0  0  0  0  0  0  0  0  0  0
    6.1375    2.5686    1.7216 C   0  0  0  0  0  0  0  0  0  0  0  0
   -1.3712   -0.7854   -0.9412 N   0  0  0  0  0  0  0  0  0  0  0  0
   -1.9249   -1.8080   -0.1253 C   0  0  0  0  0  0  0  0  0  0  0  0
   -2.4687   -2.9574   -0.7174 C   0  0  0  0  0  0  0  0  0  0  0  0
   -3.0298   -3.9532    0.0833 C   0  0  0  0  0  0  0  0  0  0  0  0
   -3.0459   -3.7995    1.4645 C   0  0  0  0  0  0  0  0  0  0  0  0
   -3.5921   -4.7568    2.2287 F   0  0  0  0  0  0  0  0  0  0  0  0
   -2.5021   -2.6697    2.0640 C   0  0  0  0  0  0  0  0  0  0  0  0
   -1.9351   -1.6707    1.2705 C   0  0  0  0  0  0  0  0  0  0  0  0
   -4.4098    3.4658   -1.9291 H   0  0  0  0  0  0  0  0  0  0  0  0
   -3.7350    2.3529   -3.1468 H   0  0  0  0  0  0  0  0  0  0  0  0
   -2.8772    2.6137   -1.5795 H   0  0  0  0  0  0  0  0  0  0  0  0
   -5.9311    2.5861   -0.2709 H   0  0  0  0  0  0  0  0  0  0  0  0
   -6.8864    0.1539    0.4519 H   0  0  0  0  0  0  0  0  0  0  0  0
   -5.4070   -1.6693   -0.8885 H   0  0  0  0  0  0  0  0  0  0  0  0
   -3.4843   -1.5045   -2.8173 H   0  0  0  0  0  0  0  0  0  0  0  0
   -3.4001    0.0471   -3.5864 H   0  0  0  0  0  0  0  0  0  0  0  0
    2.6584   -0.1887   -1.3635 H   0  0  0  0  0  0  0  0  0  0  0  0
    2.3420    1.3428   -0.5268 H   0  0  0  0  0  0  0  0  0  0  0  0
    4.0322    2.0429    0.4684 H   0  0  0  0  0  0  0  0  0  0  0  0
    6.0088   -0.8322    1.8770 H   0  0  0  0  0  0  0  0  0  0  0  0
    8.0860   -0.4730    3.1066 H   0  0  0  0  0  0  0  0  0  0  0  0
    8.9577    1.8212    3.4764 H   0  0  0  0  0  0  0  0  0  0  0  0
    7.7057    3.7718    2.5888 H   0  0  0  0  0  0  0  0  0  0  0  0
    5.6104    3.4417    1.3446 H   0  0  0  0  0  0  0  0  0  0  0  0
   -2.4279   -3.1204   -1.7910 H   0  0  0  0  0  0  0  0  0  0  0  0
   -3.4454   -4.8527   -0.3598 H   0  0  0  0  0  0  0  0  0  0  0  0
   -2.5277   -2.5724    3.1451 H   0  0  0  0  0  0  0  0  0  0  0  0
   -1.5484   -0.7801    1.7598 H   0  0  0  0  0  0  0  0  0  0  0  0
  1  2  1  0
  2  3  1  0
  3  4  2  0
  4  5  1  0
  5  6  2  0
  6  7  1  0
  7  8  1  0
  8  9  2  0
  9 10  1  0
 10 11  2  0
 11 12  1  0
 12 13  1  0
 13 14  1  0
 14 15  2  0
 14 16  1  0
 16 17  1  0
 17 18  2  0
 18 19  1  0
 19 20  2  0
 20 21  1  0
 21 22  2  0
 11 23  1  0
 23 24  1  0
 24 25  2  0
 25 26  1  0
 26 27  2  0
 27 28  1  0
 27 29  1  0
 29 30  2  0
  6  2  1  0
 23  8  1  0
 30 24  1  0
 22 17  1  0
  1 31  1  0
  1 32  1  0
  1 33  1  0
  3 34  1  0
  4 35  1  0
  5 36  1  0
  7 37  1  0
  7 38  1  0
 13 39  1  0
 13 40  1  0
 16 41  1  0
 18 42  1  0
 19 43  1  0
 20 44  1  0
 21 45  1  0
 22 46  1  0
 25 47  1  0
 26 48  1  0
 29 49  1  0
 30 50  1  0
M  END
$$$$
