
     RDKit          3D

 37 39  0  0  0  0  0  0  0  0999 V2000
    7.2452    0.5747    1.0057 O   0  0  0  0  0  0  0  0  0  0  0  0
    5.9327    0.3550    0.5150 C   0  0  0  0  0  0  0  0  0  0  0  0
    4.9301    0.6579    1.6247 C   0  0  0  0  0  0  0  0  0  0  0  0
    3.5505    0.4359    1.1391 N   0  0  0  0  0  4  0  0  0  0  0  0
    2.8685    1.4559    0.5697 C   0  0  0  0  0  0  0  0  0  0  0  0
    1.5694    1.2701    0.1111 C   0  0  0  0  0  0  0  0  0  0  0  0
    0.9551    0.0272    0.2546 C   0  0  0  0  0  0  0  0  0  0  0  0
   -0.4059   -0.1586   -0.2598 C   0  0  0  0  0  0  0  0  0  0  0  0
   -1.3551   -0.8803    0.3594 C   0  0  0  0  0  0  0  0  0  0  0  0
   -2.6832   -1.0839   -0.1260 C   0  0  0  0  0  0  0  0  0  0  0  0
   -3.3765   -2.2551    0.0917 C   0  0  0  0  0  0  0  0  0  0  0  0
   -4.6013   -2.1393   -0.5107 N   0  0  0  0  0  0  0  0  0  0  0  0
   -4.7297   -0.8997   -1.0938 C   0  0  0  0  0  0  0  0  0  0  0  0
   -5.8085   -0.3507   -1.7981 C   0  0  0  0  0  0  0  0  0  0  0  0
   -5.6791    0.9574   -2.2701 C   0  0  0  0  0  0  0  0  0  0  0  0
   -4.5180    1.6884   -2.0396 C   0  0  0  0  0  0  0  0  0  0  0  0
   -3.4477    1.1239   -1.3348 C   0  0  0  0  0  0  0  0  0  0  0  0
   -3.5409   -0.2028   -0.8583 C   0  0  0  0  0  0  0  0  0  0  0  0
    1.6809   -1.0107    0.8371 C   0  0  0  0  0  0  0  0  0  0  0  0
    2.9787   -0.7818    1.2798 C   0  0  0  0  0  0  0  0  0  0  0  0
    7.8808    0.3790    0.2904 H   0  0  0  0  0  0  0  0  0  0  0  0
    5.7657    1.0055   -0.3493 H   0  0  0  0  0  0  0  0  0  0  0  0
    5.8483   -0.6859    0.1870 H   0  0  0  0  0  0  0  0  0  0  0  0
    5.0986    0.0209    2.5007 H   0  0  0  0  0  0  0  0  0  0  0  0
    5.0163    1.6948    1.9694 H   0  0  0  0  0  0  0  0  0  0  0  0
    3.3714    2.4154    0.4833 H   0  0  0  0  0  0  0  0  0  0  0  0
    1.0380    2.1031   -0.3463 H   0  0  0  0  0  0  0  0  0  0  0  0
   -0.6274    0.3299   -1.2065 H   0  0  0  0  0  0  0  0  0  0  0  0
   -1.1216   -1.3820    1.2962 H   0  0  0  0  0  0  0  0  0  0  0  0
   -3.1080   -3.1680    0.6063 H   0  0  0  0  0  0  0  0  0  0  0  0
   -5.3189   -2.8515   -0.5200 H   0  0  0  0  0  0  0  0  0  0  0  0
   -6.7206   -0.9137   -1.9703 H   0  0  0  0  0  0  0  0  0  0  0  0
   -6.5020    1.4119   -2.8178 H   0  0  0  0  0  0  0  0  0  0  0  0
   -4.4441    2.7097   -2.4055 H   0  0  0  0  0  0  0  0  0  0  0  0
   -2.5606    1.7197   -1.1512 H   0  0  0  0  0  0  0  0  0  0  0  0
    1.2494   -2.0044    0.9426 H   0  0  0  0  0  0  0  0  0  0  0  0
    3.5696   -1.5681    1.7422 H   0  0  0  0  0  0  0  0  0  0  0  0
  1  2  1  0
  2  3  1  0
  3  4  1  0
  4  5  2  0
  5  6  1  0
  6  7  2  0
  7  8  1  0
  8  9  2  3
  9 10  1  0
 10 11  2  0
 11 12  1  0
 12 13  1  0
 13 14  2  0
 14 15  1  0
 15 16  2  0
 16 17  1  0
 17 18  2  0
  7 19  1  0
 19 20  2  0
 20  4  1  0
 18 10  1  0
 18 13  1  0
  1 21  1  0
  2 22  1  0
  2 23  1  0
  3 24  1  0
  3 25  1  0
  5 26  1  0
  6 27  1  0
  8 28  1  0
  9 29  1  0
 11 30  1  0
 12 31  1  0
 14 32  1  0
 15 33  1  0
 16 34  1  0
 17 35  1  0
 19 36  1  0
 20 37  1  0
M  CHG  1   4   1
M  END
$$$$
