
     RDKit          3D

 64 69  0  0  0  0  0  0  0  0999 V2000
    1.7442   -2.5458    2.4981 C   0  0  0  0  0  0  0  0  0  0  0  0
    0.6592   -1.8829    1.8620 O   0  0  0  0  0  0  0  0  0  0  0  0
   -0.5446   -2.5388    1.8450 C   0  0  0  0  0  0  0  0  0  0  0  0
   -0.6864   -3.9157    2.0658 C   0  0  0  0  0  0  0  0  0  0  0  0
   -1.9485   -4.5138    2.0535 C   0  0  0  0  0  0  0  0  0  0  0  0
   -3.0819   -3.7425    1.8203 C   0  0  0  0  0  0  0  0  0  0  0  0
   -2.9516   -2.3741    1.5892 C   0  0  0  0  0  0  0  0  0  0  0  0
   -1.6866   -1.7554    1.5862 C   0  0  0  0  0  0  0  0  0  0  0  0
   -1.6012   -0.2598    1.3313 C   0  0  0  0  0  0  0  0  0  0  0  0
   -1.3134    0.1088   -0.0711 N   0  0  0  0  0  0  0  0  0  0  0  0
   -0.9848    1.5452   -0.1791 C   0  0  0  0  0  0  0  0  0  0  0  0
    0.4365    1.9073    0.1829 C   0  0  0  0  0  0  0  0  0  0  0  0
    1.4638    1.0426    0.2776 C   0  0  0  0  0  0  0  0  0  0  0  0
    2.8023    1.4913    0.6532 C   0  0  0  0  0  0  0  0  0  0  0  0
    3.8690    0.5943    0.7534 C   0  0  0  0  0  0  0  0  0  0  0  0
    5.1283    1.0564    1.1340 C   0  0  0  0  0  0  0  0  0  0  0  0
    5.3323    2.4187    1.3891 C   0  0  0  0  0  0  0  0  0  0  0  0
    4.2710    3.3180    1.2970 C   0  0  0  0  0  0  0  0  0  0  0  0
    3.0113    2.8492    0.9261 C   0  0  0  0  0  0  0  0  0  0  0  0
    1.9384    3.7396    0.8078 N   0  0  0  0  0  0  0  0  0  0  0  0
    0.6760    3.3637    0.4311 C   0  0  0  0  0  0  0  0  0  0  0  0
   -0.2191    4.1946    0.2996 O   0  0  0  0  0  0  0  0  0  0  0  0
    6.5515    2.9412    1.7410 O   0  0  0  0  0  0  0  0  0  0  0  0
    7.6134    2.0199    1.4686 C   0  0  0  0  0  0  0  0  0  0  0  0
    7.2537    0.6232    1.9485 C   0  0  0  0  0  0  0  0  0  0  0  0
    6.1230    0.1161    1.2308 O   0  0  0  0  0  0  0  0  0  0  0  0
   -2.3641   -0.2866   -1.0282 C   0  0  0  0  0  0  0  0  0  0  0  0
   -3.6638    0.4461   -0.9263 C   0  0  0  0  0  0  0  0  0  0  0  0
   -4.4304    0.5920    0.1392 N   0  0  0  0  0  0  0  0  0  0  0  0
   -5.5239    1.3165   -0.2574 N   0  0  0  0  0  0  0  0  0  0  0  0
   -5.4546    1.6103   -1.5456 N   0  0  0  0  0  0  0  0  0  0  0  0
   -4.3027    1.0610   -1.9729 N   0  0  0  0  0  0  0  0  0  0  0  0
   -3.9146    1.1789   -3.3618 C   0  0  0  0  0  0  0  0  0  0  0  0
   -4.1664   -0.0978   -4.0714 C   0  0  0  0  0  0  0  0  0  0  0  0
   -5.3105   -0.7329   -4.5082 C   0  0  0  0  0  0  0  0  0  0  0  0
   -4.8902   -1.9484   -5.0994 C   0  0  0  0  0  0  0  0  0  0  0  0
   -3.5207   -1.9778   -4.9859 C   0  0  0  0  0  0  0  0  0  0  0  0
   -3.0715   -0.8571   -4.3660 O   0  0  0  0  0  0  0  0  0  0  0  0
    1.4715   -2.8881    3.5014 H   0  0  0  0  0  0  0  0  0  0  0  0
    2.1093   -3.3729    1.8816 H   0  0  0  0  0  0  0  0  0  0  0  0
    2.5618   -1.8268    2.6050 H   0  0  0  0  0  0  0  0  0  0  0  0
    0.1719   -4.5552    2.2467 H   0  0  0  0  0  0  0  0  0  0  0  0
   -2.0461   -5.5819    2.2328 H   0  0  0  0  0  0  0  0  0  0  0  0
   -4.0663   -4.2022    1.8179 H   0  0  0  0  0  0  0  0  0  0  0  0
   -3.8480   -1.7810    1.4129 H   0  0  0  0  0  0  0  0  0  0  0  0
   -0.8134    0.1326    1.9887 H   0  0  0  0  0  0  0  0  0  0  0  0
   -2.5141    0.2234    1.6991 H   0  0  0  0  0  0  0  0  0  0  0  0
   -1.6981    2.1347    0.4124 H   0  0  0  0  0  0  0  0  0  0  0  0
   -1.1045    1.8654   -1.2254 H   0  0  0  0  0  0  0  0  0  0  0  0
    1.3171   -0.0164    0.0885 H   0  0  0  0  0  0  0  0  0  0  0  0
    3.7258   -0.4630    0.5455 H   0  0  0  0  0  0  0  0  0  0  0  0
    4.4402    4.3697    1.5020 H   0  0  0  0  0  0  0  0  0  0  0  0
    2.0712    4.7265    0.9819 H   0  0  0  0  0  0  0  0  0  0  0  0
    8.5067    2.3794    1.9891 H   0  0  0  0  0  0  0  0  0  0  0  0
    7.8157    2.0355    0.3901 H   0  0  0  0  0  0  0  0  0  0  0  0
    7.0179    0.6152    3.0200 H   0  0  0  0  0  0  0  0  0  0  0  0
    8.0887   -0.0633    1.7777 H   0  0  0  0  0  0  0  0  0  0  0  0
   -1.9365   -0.1600   -2.0297 H   0  0  0  0  0  0  0  0  0  0  0  0
   -2.5612   -1.3628   -0.9651 H   0  0  0  0  0  0  0  0  0  0  0  0
   -2.8600    1.4711   -3.3947 H   0  0  0  0  0  0  0  0  0  0  0  0
   -4.4975    1.9885   -3.8140 H   0  0  0  0  0  0  0  0  0  0  0  0
   -6.3244   -0.3690   -4.4012 H   0  0  0  0  0  0  0  0  0  0  0  0
   -5.5090   -2.7132   -5.5462 H   0  0  0  0  0  0  0  0  0  0  0  0
   -2.7609   -2.6921   -5.2755 H   0  0  0  0  0  0  0  0  0  0  0  0
  1  2  1  0
  2  3  1  0
  3  4  2  0
  4  5  1  0
  5  6  2  0
  6  7  1  0
  7  8  2  0
  8  9  1  0
  9 10  1  0
 10 11  1  0
 11 12  1  0
 12 13  2  0
 13 14  1  0
 14 15  2  0
 15 16  1  0
 16 17  2  0
 17 18  1  0
 18 19  2  0
 19 20  1  0
 20 21  1  0
 21 22  2  0
 17 23  1  0
 23 24  1  0
 24 25  1  0
 25 26  1  0
 10 27  1  0
 27 28  1  0
 28 29  2  0
 29 30  1  0
 30 31  2  0
 31 32  1  0
 32 33  1  0
 33 34  1  0
 34 35  2  0
 35 36  1  0
 36 37  2  0
 37 38  1  0
  8  3  1  0
 21 12  1  0
 32 28  1  0
 38 34  1  0
 19 14  1  0
 26 16  1  0
  1 39  1  0
  1 40  1  0
  1 41  1  0
  4 42  1  0
  5 43  1  0
  6 44  1  0
  7 45  1  0
  9 46  1  0
  9 47  1  0
 11 48  1  0
 11 49  1  0
 13 50  1  0
 15 51  1  0
 18 52  1  0
 20 53  1  0
 24 54  1  0
 24 55  1  0
 25 56  1  0
 25 57  1  0
 27 58  1  0
 27 59  1  0
 33 60  1  0
 33 61  1  0
 35 62  1  0
 36 63  1  0
 37 64  1  0
M  END
$$$$
