
     RDKit          3D

 49 52  0  0  0  0  0  0  0  0999 V2000
   -1.3149    1.4127    1.4459 C   0  0  0  0  0  0  0  0  0  0  0  0
   -2.5265    0.6392    0.9724 C   0  0  0  0  0  0  0  0  0  0  0  0
   -2.4734   -0.5347    0.4138 N   0  0  0  0  0  0  0  0  0  0  0  0
   -1.2691   -1.1304    0.1889 N   0  0  0  0  0  0  0  0  0  0  0  0
   -1.2272   -2.4436   -0.2743 C   0  0  0  0  0  0  0  0  0  0  0  0
   -2.2162   -3.1502   -0.4473 O   0  0  0  0  0  0  0  0  0  0  0  0
    0.1237   -2.9458   -0.5213 C   0  0  0  0  0  0  0  0  0  0  0  0
    0.4552   -4.2554   -0.3116 N   0  0  0  0  0  0  0  0  0  0  0  0
    1.7382   -4.4114   -0.5860 N   0  0  0  0  0  0  0  0  0  0  0  0
    2.2634   -3.2147   -0.9692 N   0  0  0  0  0  0  0  0  0  0  0  0
    3.6500   -3.0699   -1.2266 C   0  0  0  0  0  0  0  0  0  0  0  0
    4.1816   -1.8781   -1.5009 N   0  0  0  0  0  0  0  0  0  0  0  0
    5.5423   -2.1410   -1.6553 O   0  0  0  0  0  0  0  0  0  0  0  0
    5.8197   -3.4906   -1.4699 N   0  0  0  0  0  0  0  0  0  0  0  0
    4.6462   -4.0647   -1.2085 C   0  0  0  0  0  0  0  0  0  0  0  0
    4.4777   -5.3796   -0.9759 N   0  0  0  0  0  0  0  0  0  0  0  0
    1.2359   -2.2754   -1.0141 C   0  0  0  0  0  0  0  0  0  0  0  0
    1.3683   -0.8857   -1.5089 C   0  0  0  0  0  0  0  0  0  0  0  0
    1.5710   -0.0972   -0.3396 O   0  0  0  0  0  0  0  0  0  0  0  0
    1.9026    1.2151   -0.5349 C   0  0  0  0  0  0  0  0  0  0  0  0
    2.4224    1.8603    0.5931 C   0  0  0  0  0  0  0  0  0  0  0  0
    2.7784    3.2082    0.5359 C   0  0  0  0  0  0  0  0  0  0  0  0
    2.6068    3.9075   -0.6511 C   0  0  0  0  0  0  0  0  0  0  0  0
    2.9429    5.2023   -0.7100 F   0  0  0  0  0  0  0  0  0  0  0  0
    2.0852    3.2828   -1.7779 C   0  0  0  0  0  0  0  0  0  0  0  0
    1.7287    1.9322   -1.7215 C   0  0  0  0  0  0  0  0  0  0  0  0
   -3.8752    1.2640    1.1537 C   0  0  0  0  0  0  0  0  0  0  0  0
   -4.0425    2.6542    1.1868 C   0  0  0  0  0  0  0  0  0  0  0  0
   -5.3191    3.2030    1.3496 C   0  0  0  0  0  0  0  0  0  0  0  0
   -6.4274    2.3656    1.4710 C   0  0  0  0  0  0  0  0  0  0  0  0
   -7.9941    3.0467    1.6702 Cl  0  0  0  0  0  0  0  0  0  0  0  0
   -6.2733    0.9821    1.4255 C   0  0  0  0  0  0  0  0  0  0  0  0
   -4.9990    0.4316    1.2630 C   0  0  0  0  0  0  0  0  0  0  0  0
   -1.5821    2.1901    2.1658 H   0  0  0  0  0  0  0  0  0  0  0  0
   -0.8279    1.8742    0.5836 H   0  0  0  0  0  0  0  0  0  0  0  0
   -0.6124    0.7471    1.9552 H   0  0  0  0  0  0  0  0  0  0  0  0
   -0.4095   -0.6371    0.4044 H   0  0  0  0  0  0  0  0  0  0  0  0
    3.6048   -5.7423   -0.5933 H   0  0  0  0  0  0  0  0  0  0  0  0
    5.2898   -5.9591   -0.7907 H   0  0  0  0  0  0  0  0  0  0  0  0
    2.1737   -0.7664   -2.2382 H   0  0  0  0  0  0  0  0  0  0  0  0
    0.4331   -0.5858   -1.9982 H   0  0  0  0  0  0  0  0  0  0  0  0
    2.5589    1.3085    1.5204 H   0  0  0  0  0  0  0  0  0  0  0  0
    3.1885    3.7128    1.4048 H   0  0  0  0  0  0  0  0  0  0  0  0
    1.9572    3.8525   -2.6935 H   0  0  0  0  0  0  0  0  0  0  0  0
    1.3116    1.4794   -2.6153 H   0  0  0  0  0  0  0  0  0  0  0  0
   -3.2002    3.3297    1.0677 H   0  0  0  0  0  0  0  0  0  0  0  0
   -5.4432    4.2828    1.3734 H   0  0  0  0  0  0  0  0  0  0  0  0
   -7.1355    0.3257    1.5110 H   0  0  0  0  0  0  0  0  0  0  0  0
   -4.8892   -0.6514    1.2219 H   0  0  0  0  0  0  0  0  0  0  0  0
  1  2  1  0
  2  3  2  3
  3  4  1  0
  4  5  1  0
  5  6  2  0
  5  7  1  0
  7  8  1  0
  8  9  2  0
  9 10  1  0
 10 11  1  0
 11 12  2  0
 12 13  1  0
 13 14  1  0
 14 15  2  0
 15 16  1  0
 10 17  1  0
 17 18  1  0
 18 19  1  0
 19 20  1  0
 20 21  2  0
 21 22  1  0
 22 23  2  0
 23 24  1  0
 23 25  1  0
 25 26  2  0
  2 27  1  0
 27 28  2  0
 28 29  1  0
 29 30  2  0
 30 31  1  0
 30 32  1  0
 32 33  2  0
 17  7  2  0
 26 20  1  0
 33 27  1  0
 15 11  1  0
  1 34  1  0
  1 35  1  0
  1 36  1  0
  4 37  1  0
 16 38  1  0
 16 39  1  0
 18 40  1  0
 18 41  1  0
 21 42  1  0
 22 43  1  0
 25 44  1  0
 26 45  1  0
 28 46  1  0
 29 47  1  0
 32 48  1  0
 33 49  1  0
M  END
$$$$
