
     RDKit          3D

 35 37  0  0  0  0  0  0  0  0999 V2000
   -1.6459   -2.7595    1.8097 C   0  0  0  0  0  0  0  0  0  0  0  0
   -1.7762   -1.4677    1.0059 C   0  0  0  0  0  0  0  0  0  0  0  0
   -2.8908   -1.6382    0.1259 O   0  0  0  0  0  0  0  0  0  0  0  0
   -3.5020   -0.4447   -0.1421 C   0  0  0  0  0  0  0  0  0  0  0  0
   -3.2014    0.2230   -1.3272 C   0  0  0  0  0  0  0  0  0  0  0  0
   -3.8420    1.4270   -1.6227 C   0  0  0  0  0  0  0  0  0  0  0  0
   -4.7905    1.9397   -0.7372 C   0  0  0  0  0  0  0  0  0  0  0  0
   -5.6604    3.5700   -1.1370 Br  0  0  0  0  0  0  0  0  0  0  0  0
   -5.1102    1.2559    0.4368 C   0  0  0  0  0  0  0  0  0  0  0  0
   -4.4681    0.0524    0.7320 C   0  0  0  0  0  0  0  0  0  0  0  0
   -0.4447   -1.1959    0.2641 C   0  0  0  0  0  0  0  0  0  0  0  0
   -0.3255   -1.3769   -0.9438 O   0  0  0  0  0  0  0  0  0  0  0  0
    0.5432   -0.7433    1.1176 N   0  0  0  0  0  0  0  0  0  0  0  0
    1.8335   -0.4120    0.7865 C   0  0  0  0  0  0  0  0  0  0  0  0
    2.6881    0.0197    1.6890 N   0  0  0  0  0  0  0  0  0  0  0  0
    3.9277    0.2927    1.1424 N   0  0  0  0  0  0  0  0  0  0  0  0
    3.9427    0.0584   -0.1508 C   0  0  0  0  0  0  0  0  0  0  0  0
    5.2179    0.2735   -1.0220 C   0  0  0  0  0  0  0  0  0  0  0  0
    5.2528    1.4102   -2.0119 C   0  0  0  0  0  0  0  0  0  0  0  0
    6.0882    1.4780   -0.7671 C   0  0  0  0  0  0  0  0  0  0  0  0
    2.4693   -0.5218   -0.7901 S   0  0  0  0  0  0  0  0  0  0  0  0
   -0.8389   -2.7030    2.5466 H   0  0  0  0  0  0  0  0  0  0  0  0
   -2.5818   -2.9802    2.3342 H   0  0  0  0  0  0  0  0  0  0  0  0
   -1.4428   -3.6094    1.1480 H   0  0  0  0  0  0  0  0  0  0  0  0
   -1.9541   -0.6436    1.7117 H   0  0  0  0  0  0  0  0  0  0  0  0
   -2.4729   -0.1924   -2.0196 H   0  0  0  0  0  0  0  0  0  0  0  0
   -3.6005    1.9492   -2.5446 H   0  0  0  0  0  0  0  0  0  0  0  0
   -5.8610    1.6460    1.1187 H   0  0  0  0  0  0  0  0  0  0  0  0
   -4.7281   -0.4965    1.6323 H   0  0  0  0  0  0  0  0  0  0  0  0
    0.3436   -0.6092    2.0995 H   0  0  0  0  0  0  0  0  0  0  0  0
    5.7226   -0.6466   -1.2967 H   0  0  0  0  0  0  0  0  0  0  0  0
    4.3969    2.0724   -2.0804 H   0  0  0  0  0  0  0  0  0  0  0  0
    5.7584    1.2427   -2.9559 H   0  0  0  0  0  0  0  0  0  0  0  0
    5.7921    2.1753    0.0091 H   0  0  0  0  0  0  0  0  0  0  0  0
    7.1607    1.3548   -0.8630 H   0  0  0  0  0  0  0  0  0  0  0  0
  1  2  1  0
  2  3  1  0
  3  4  1  0
  4  5  2  0
  5  6  1  0
  6  7  2  0
  7  8  1  0
  7  9  1  0
  9 10  2  0
  2 11  1  0
 11 12  2  0
 11 13  1  0
 13 14  1  0
 14 15  2  0
 15 16  1  0
 16 17  2  0
 17 18  1  0
 18 19  1  0
 19 20  1  0
 17 21  1  0
 10  4  1  0
 21 14  1  0
 20 18  1  0
  1 22  1  0
  1 23  1  0
  1 24  1  0
  2 25  1  0
  5 26  1  0
  6 27  1  0
  9 28  1  0
 10 29  1  0
 13 30  1  0
 18 31  1  0
 19 32  1  0
 19 33  1  0
 20 34  1  0
 20 35  1  0
M  END
$$$$
