
     RDKit          3D

 82 86  0  0  0  0  0  0  0  0999 V2000
   -0.7937    4.4224   -2.7098 C   0  0  0  0  0  0  0  0  0  0  0  0
   -0.0157    4.0058   -1.4835 C   0  0  0  0  0  0  0  0  0  0  0  0
    1.0586    3.2004   -1.6199 C   0  0  0  0  0  0  0  0  0  0  0  0
    1.9586    2.6211   -0.5553 C   0  0  0  0  0  0  0  0  0  0  0  0
    2.0708    1.0814   -0.6558 C   0  0  0  0  0  0  0  0  0  0  0  0
    0.7210    0.4248   -0.4224 C   0  0  0  0  0  0  0  0  0  0  0  0
    0.8337   -1.0917   -0.4450 C   0  0  0  0  0  0  0  0  0  0  0  0
    1.8550   -1.5074    0.6042 C   0  0  0  0  0  0  0  0  0  0  0  0
    3.2049   -0.7879    0.4128 C   0  0  0  0  0  0  0  0  0  0  0  0
    3.9567   -1.3359   -0.8158 C   0  0  0  0  0  0  0  0  0  0  0  0
    5.3973   -0.8335   -0.8594 C   0  0  0  0  0  0  0  0  0  0  0  0
    6.1325   -1.1195    0.4543 C   0  0  0  0  0  0  0  0  0  0  0  0
    6.4496   -2.6158    0.5850 C   0  0  0  0  0  0  0  0  0  0  0  0
    5.3055   -0.6413    1.6605 C   0  0  0  0  0  0  0  0  0  0  0  0
    5.4034    0.8674    1.8898 C   0  0  0  0  0  0  0  0  0  0  0  0
    3.9517   -1.0989    1.6019 O   0  0  0  0  0  0  0  0  0  0  0  0
    3.0020    0.6283    0.3321 O   0  0  0  0  0  0  0  0  0  0  0  0
   -0.4483   -1.6751   -0.1270 O   0  0  0  0  0  0  0  0  0  0  0  0
   -1.3680   -1.6134   -1.1285 C   0  0  0  0  0  0  0  0  0  0  0  0
   -1.1147   -1.2214   -2.2666 O   0  0  0  0  0  0  0  0  0  0  0  0
   -2.7433   -2.1376   -0.7474 C   0  0  0  0  0  0  0  0  0  0  0  0
   -2.7572   -3.6397   -0.6108 C   0  0  0  0  0  0  0  0  0  0  0  0
   -3.7010   -4.2835    0.0995 C   0  0  0  0  0  0  0  0  0  0  0  0
   -3.7076   -5.7817    0.2227 C   0  0  0  0  0  0  0  0  0  0  0  0
   -4.7807   -3.5436    0.8546 C   0  0  0  0  0  0  0  0  0  0  0  0
   -6.0539   -4.0729    0.4829 O   0  0  0  0  0  0  0  0  0  0  0  0
   -4.8021   -2.0083    0.6929 C   0  0  0  0  0  0  0  0  0  0  0  0
   -5.6199   -1.5706   -0.4175 O   0  0  0  0  0  0  0  0  0  0  0  0
   -5.2192   -0.2059   -0.6790 C   0  0  0  0  0  0  0  0  0  0  0  0
   -3.8921   -0.0059    0.0173 C   0  0  0  0  0  0  0  0  0  0  0  0
   -3.3774    1.2190    0.2394 C   0  0  0  0  0  0  0  0  0  0  0  0
   -2.1844    1.5212    0.9917 C   0  0  0  0  0  0  0  0  0  0  0  0
   -1.5462    2.6986    1.0841 C   0  0  0  0  0  0  0  0  0  0  0  0
   -1.8222    4.0066    0.3824 C   0  0  0  0  0  0  0  0  0  0  0  0
   -2.4502    4.9750    1.3900 C   0  0  0  0  0  0  0  0  0  0  0  0
   -0.5129    4.6190   -0.1853 C   0  0  0  0  0  0  0  0  0  0  0  0
   -3.4269   -1.3874    0.4284 C   0  0  0  0  0  0  0  0  0  0  0  0
   -2.6753   -1.4105    1.6316 O   0  0  0  0  0  0  0  0  0  0  0  0
   -0.3568    4.0283   -3.6335 H   0  0  0  0  0  0  0  0  0  0  0  0
   -1.8237    4.0578   -2.6536 H   0  0  0  0  0  0  0  0  0  0  0  0
   -0.8125    5.5139   -2.7966 H   0  0  0  0  0  0  0  0  0  0  0  0
    1.3258    2.8813   -2.6288 H   0  0  0  0  0  0  0  0  0  0  0  0
    1.6367    2.8947    0.4548 H   0  0  0  0  0  0  0  0  0  0  0  0
    2.9602    3.0542   -0.6713 H   0  0  0  0  0  0  0  0  0  0  0  0
    2.4531    0.8294   -1.6514 H   0  0  0  0  0  0  0  0  0  0  0  0
    0.3604    0.7123    0.5693 H   0  0  0  0  0  0  0  0  0  0  0  0
   -0.0212    0.7700   -1.1476 H   0  0  0  0  0  0  0  0  0  0  0  0
    1.1613   -1.4520   -1.4281 H   0  0  0  0  0  0  0  0  0  0  0  0
    1.4548   -1.2756    1.6020 H   0  0  0  0  0  0  0  0  0  0  0  0
    1.9835   -2.5976    0.6081 H   0  0  0  0  0  0  0  0  0  0  0  0
    3.4667   -1.0623   -1.7548 H   0  0  0  0  0  0  0  0  0  0  0  0
    3.9702   -2.4321   -0.7806 H   0  0  0  0  0  0  0  0  0  0  0  0
    5.3973    0.2460   -1.0529 H   0  0  0  0  0  0  0  0  0  0  0  0
    5.9253   -1.2962   -1.7017 H   0  0  0  0  0  0  0  0  0  0  0  0
    7.0944   -0.5913    0.4389 H   0  0  0  0  0  0  0  0  0  0  0  0
    7.0677   -2.7982    1.4710 H   0  0  0  0  0  0  0  0  0  0  0  0
    5.5457   -3.2247    0.6831 H   0  0  0  0  0  0  0  0  0  0  0  0
    7.0094   -2.9726   -0.2861 H   0  0  0  0  0  0  0  0  0  0  0  0
    5.7208   -1.1024    2.5658 H   0  0  0  0  0  0  0  0  0  0  0  0
    6.4146    1.1394    2.2105 H   0  0  0  0  0  0  0  0  0  0  0  0
    4.6957    1.1870    2.6617 H   0  0  0  0  0  0  0  0  0  0  0  0
    5.1880    1.4452    0.9872 H   0  0  0  0  0  0  0  0  0  0  0  0
   -3.3360   -1.9548   -1.6589 H   0  0  0  0  0  0  0  0  0  0  0  0
   -1.9965   -4.2020   -1.1488 H   0  0  0  0  0  0  0  0  0  0  0  0
   -2.8506   -6.2388   -0.2833 H   0  0  0  0  0  0  0  0  0  0  0  0
   -3.6642   -6.0762    1.2762 H   0  0  0  0  0  0  0  0  0  0  0  0
   -4.6157   -6.2020   -0.2206 H   0  0  0  0  0  0  0  0  0  0  0  0
   -4.6307   -3.7679    1.9185 H   0  0  0  0  0  0  0  0  0  0  0  0
   -6.3743   -3.4904   -0.2349 H   0  0  0  0  0  0  0  0  0  0  0  0
   -5.2659   -1.5953    1.6017 H   0  0  0  0  0  0  0  0  0  0  0  0
   -5.1347   -0.0806   -1.7621 H   0  0  0  0  0  0  0  0  0  0  0  0
   -5.9931    0.4591   -0.2839 H   0  0  0  0  0  0  0  0  0  0  0  0
   -3.9120    2.0789   -0.1627 H   0  0  0  0  0  0  0  0  0  0  0  0
   -1.7410    0.7105    1.5643 H   0  0  0  0  0  0  0  0  0  0  0  0
   -0.6762    2.7188    1.7435 H   0  0  0  0  0  0  0  0  0  0  0  0
   -2.5380    3.8639   -0.4338 H   0  0  0  0  0  0  0  0  0  0  0  0
   -1.7700    5.1879    2.2226 H   0  0  0  0  0  0  0  0  0  0  0  0
   -3.3764    4.5635    1.8071 H   0  0  0  0  0  0  0  0  0  0  0  0
   -2.7001    5.9264    0.9081 H   0  0  0  0  0  0  0  0  0  0  0  0
   -0.6747    5.6891   -0.3784 H   0  0  0  0  0  0  0  0  0  0  0  0
    0.2737    4.5979    0.5788 H   0  0  0  0  0  0  0  0  0  0  0  0
   -3.1289   -0.8444    2.2806 H   0  0  0  0  0  0  0  0  0  0  0  0
  1  2  1  0
  2  3  2  3
  3  4  1  0
  4  5  1  0
  5  6  1  0
  6  7  1  0
  7  8  1  0
  8  9  1  0
  9 10  1  0
 10 11  1  0
 11 12  1  0
 12 13  1  0
 12 14  1  0
 14 15  1  0
 14 16  1  0
  9 17  1  0
  7 18  1  0
 18 19  1  0
 19 20  2  0
 19 21  1  0
 21 22  1  0
 22 23  2  0
 23 24  1  0
 23 25  1  0
 25 26  1  0
 25 27  1  0
 27 28  1  0
 28 29  1  0
 29 30  1  0
 30 31  2  3
 31 32  1  0
 32 33  2  3
 33 34  1  0
 34 35  1  0
 34 36  1  0
 30 37  1  0
 37 38  1  0
 36  2  1  0
 17  5  1  0
 37 21  1  0
 16  9  1  0
 37 27  1  0
  1 39  1  0
  1 40  1  0
  1 41  1  0
  3 42  1  0
  4 43  1  0
  4 44  1  0
  5 45  1  0
  6 46  1  0
  6 47  1  0
  7 48  1  0
  8 49  1  0
  8 50  1  0
 10 51  1  0
 10 52  1  0
 11 53  1  0
 11 54  1  0
 12 55  1  0
 13 56  1  0
 13 57  1  0
 13 58  1  0
 14 59  1  0
 15 60  1  0
 15 61  1  0
 15 62  1  0
 21 63  1  0
 22 64  1  0
 24 65  1  0
 24 66  1  0
 24 67  1  0
 25 68  1  0
 26 69  1  0
 27 70  1  0
 29 71  1  0
 29 72  1  0
 31 73  1  0
 32 74  1  0
 33 75  1  0
 34 76  1  0
 35 77  1  0
 35 78  1  0
 35 79  1  0
 36 80  1  0
 36 81  1  0
 38 82  1  0
M  END
$$$$
