
     RDKit          3D

 38 40  0  0  0  0  0  0  0  0999 V2000
   -0.1223   -0.1928   -3.4339 C   0  0  0  0  0  0  0  0  0  0  0  0
   -0.6245   -0.7681   -2.1383 C   0  0  0  0  0  0  0  0  0  0  0  0
   -1.9334   -0.4717   -1.7247 C   0  0  0  0  0  0  0  0  0  0  0  0
   -2.4275   -0.9716   -0.5209 C   0  0  0  0  0  0  0  0  0  0  0  0
   -3.7063   -0.6109   -0.1895 O   0  0  0  0  0  0  0  0  0  0  0  0
   -1.6382   -1.7939    0.2903 C   0  0  0  0  0  0  0  0  0  0  0  0
   -2.2202   -2.4390    1.8486 S   0  0  0  0  0  0  0  0  0  0  0  0
   -2.3304   -0.9598    2.7645 C   0  0  0  0  0  0  0  0  0  0  0  0
   -1.2490   -0.2117    3.1400 N   0  0  0  0  0  0  0  0  0  0  0  0
   -1.7995    0.8038    3.7653 C   0  0  0  0  0  0  0  0  0  0  0  0
   -3.1539    0.6804    3.7324 N   0  0  0  0  0  0  0  0  0  0  0  0
   -3.5230   -0.4337    3.0772 N   0  0  0  0  0  0  0  0  0  0  0  0
   -0.3438   -2.1168   -0.1319 C   0  0  0  0  0  0  0  0  0  0  0  0
    0.1742   -1.5885   -1.3208 C   0  0  0  0  0  0  0  0  0  0  0  0
    1.5261   -1.8620   -1.6898 N   0  0  0  0  0  0  0  0  0  0  0  0
    2.7942   -1.4315   -0.6586 S   0  0  0  0  0  6  0  0  0  0  0  0
    3.9932   -1.4541   -1.4744 O   0  0  0  0  0  0  0  0  0  0  0  0
    2.7090   -2.2004    0.5659 O   0  0  0  0  0  0  0  0  0  0  0  0
    2.4456    0.2715   -0.2670 C   0  0  0  0  0  0  0  0  0  0  0  0
    2.9200    1.2842   -1.1084 C   0  0  0  0  0  0  0  0  0  0  0  0
    2.6433    2.6183   -0.7988 C   0  0  0  0  0  0  0  0  0  0  0  0
    1.9081    2.9296    0.3488 C   0  0  0  0  0  0  0  0  0  0  0  0
    1.5594    4.5732    0.7210 Cl  0  0  0  0  0  0  0  0  0  0  0  0
    1.4558    1.9200    1.1986 C   0  0  0  0  0  0  0  0  0  0  0  0
    1.7324    0.5848    0.8979 C   0  0  0  0  0  0  0  0  0  0  0  0
   -0.8752    0.4442   -3.9125 H   0  0  0  0  0  0  0  0  0  0  0  0
    0.1222   -0.9976   -4.1330 H   0  0  0  0  0  0  0  0  0  0  0  0
    0.7663    0.4255   -3.2626 H   0  0  0  0  0  0  0  0  0  0  0  0
   -2.5772    0.1624   -2.3313 H   0  0  0  0  0  0  0  0  0  0  0  0
   -3.9061   -0.9658    0.6996 H   0  0  0  0  0  0  0  0  0  0  0  0
   -1.2896    1.6283    4.2416 H   0  0  0  0  0  0  0  0  0  0  0  0
   -3.8623    1.2889    4.1263 H   0  0  0  0  0  0  0  0  0  0  0  0
    0.2694   -2.7738    0.4835 H   0  0  0  0  0  0  0  0  0  0  0  0
    1.7897   -1.7887   -2.6707 H   0  0  0  0  0  0  0  0  0  0  0  0
    3.5005    1.0450   -1.9981 H   0  0  0  0  0  0  0  0  0  0  0  0
    3.0048    3.4092   -1.4513 H   0  0  0  0  0  0  0  0  0  0  0  0
    0.8887    2.1604    2.0958 H   0  0  0  0  0  0  0  0  0  0  0  0
    1.3795   -0.1972    1.5693 H   0  0  0  0  0  0  0  0  0  0  0  0
  1  2  1  0
  2  3  2  0
  3  4  1  0
  4  5  1  0
  4  6  2  0
  6  7  1  0
  7  8  1  0
  8  9  1  0
  9 10  2  0
 10 11  1  0
 11 12  1  0
  6 13  1  0
 13 14  2  0
 14 15  1  0
 15 16  1  0
 16 17  2  0
 16 18  2  0
 16 19  1  0
 19 20  2  0
 20 21  1  0
 21 22  2  0
 22 23  1  0
 22 24  1  0
 24 25  2  0
 14  2  1  0
 25 19  1  0
 12  8  2  0
  1 26  1  0
  1 27  1  0
  1 28  1  0
  3 29  1  0
  5 30  1  0
 10 31  1  0
 11 32  1  0
 13 33  1  0
 15 34  1  0
 20 35  1  0
 21 36  1  0
 24 37  1  0
 25 38  1  0
M  END
$$$$
