
     RDKit          3D

 35 36  0  0  0  0  0  0  0  0999 V2000
    5.3604   -1.7430    1.8600 C   0  0  0  0  0  0  0  0  0  0  0  0
    4.3437   -0.8674    1.1871 C   0  0  0  0  0  0  0  0  0  0  0  0
    4.0363   -1.0530   -0.1679 C   0  0  0  0  0  0  0  0  0  0  0  0
    3.0727   -0.2581   -0.7899 C   0  0  0  0  0  0  0  0  0  0  0  0
    2.3989    0.7128   -0.0453 C   0  0  0  0  0  0  0  0  0  0  0  0
    1.1701    1.7210   -0.8453 S   0  0  0  0  0  6  0  0  0  0  0  0
    0.8199    2.7920    0.0685 O   0  0  0  0  0  0  0  0  0  0  0  0
    1.6854    2.0207   -2.1688 O   0  0  0  0  0  0  0  0  0  0  0  0
   -0.2319    0.6400   -1.0288 C   0  0  0  0  0  0  0  0  0  0  0  0
   -0.8371    0.2689    0.3122 C   0  0  0  0  0  0  0  0  0  0  0  0
   -2.1627   -0.9699    0.1307 S   0  0  0  0  0  0  0  0  0  0  0  0
   -3.4635    0.0113   -0.4541 C   0  0  0  0  0  0  0  0  0  0  0  0
   -3.3774    1.2858   -0.7559 N   0  0  0  0  0  0  0  0  0  0  0  0
   -4.6324    1.6449   -1.1737 C   0  0  0  0  0  0  0  0  0  0  0  0
   -5.4888    0.5699   -1.1261 C   0  0  0  0  0  0  0  0  0  0  0  0
   -4.7280   -0.4716   -0.6629 N   0  0  0  0  0  0  0  0  0  0  0  0
   -5.2021   -1.8158   -0.4432 C   0  0  0  0  0  0  0  0  0  0  0  0
    2.6966    0.9136    1.3039 C   0  0  0  0  0  0  0  0  0  0  0  0
    3.6612    0.1143    1.9189 C   0  0  0  0  0  0  0  0  0  0  0  0
    6.1346   -2.0577    1.1523 H   0  0  0  0  0  0  0  0  0  0  0  0
    5.8621   -1.2062    2.6719 H   0  0  0  0  0  0  0  0  0  0  0  0
    4.8736   -2.6326    2.2712 H   0  0  0  0  0  0  0  0  0  0  0  0
    4.5562   -1.8124   -0.7488 H   0  0  0  0  0  0  0  0  0  0  0  0
    2.8634   -0.3956   -1.8485 H   0  0  0  0  0  0  0  0  0  0  0  0
    0.1101   -0.2394   -1.5851 H   0  0  0  0  0  0  0  0  0  0  0  0
   -0.9431    1.1817   -1.6601 H   0  0  0  0  0  0  0  0  0  0  0  0
   -1.2146    1.1488    0.8440 H   0  0  0  0  0  0  0  0  0  0  0  0
   -0.0818   -0.1860    0.9598 H   0  0  0  0  0  0  0  0  0  0  0  0
   -4.8531    2.6576   -1.4866 H   0  0  0  0  0  0  0  0  0  0  0  0
   -6.5362    0.4674   -1.3733 H   0  0  0  0  0  0  0  0  0  0  0  0
   -5.0721   -2.0660    0.6127 H   0  0  0  0  0  0  0  0  0  0  0  0
   -4.6328   -2.4975   -1.0802 H   0  0  0  0  0  0  0  0  0  0  0  0
   -6.2624   -1.8751   -0.7033 H   0  0  0  0  0  0  0  0  0  0  0  0
    2.1898    1.6836    1.8818 H   0  0  0  0  0  0  0  0  0  0  0  0
    3.8852    0.2677    2.9729 H   0  0  0  0  0  0  0  0  0  0  0  0
  1  2  1  0
  2  3  2  0
  3  4  1  0
  4  5  2  0
  5  6  1  0
  6  7  2  0
  6  8  2  0
  6  9  1  0
  9 10  1  0
 10 11  1  0
 11 12  1  0
 12 13  2  0
 13 14  1  0
 14 15  2  0
 15 16  1  0
 16 17  1  0
  5 18  1  0
 18 19  2  0
 19  2  1  0
 16 12  1  0
  1 20  1  0
  1 21  1  0
  1 22  1  0
  3 23  1  0
  4 24  1  0
  9 25  1  0
  9 26  1  0
 10 27  1  0
 10 28  1  0
 14 29  1  0
 15 30  1  0
 17 31  1  0
 17 32  1  0
 17 33  1  0
 18 34  1  0
 19 35  1  0
M  END
$$$$
