
     RDKit          3D

 53 55  0  0  0  0  0  0  0  0999 V2000
   -5.5833   -3.2733   -3.0024 C   0  0  0  0  0  0  0  0  0  0  0  0
   -6.1799   -2.0186   -2.7024 O   0  0  0  0  0  0  0  0  0  0  0  0
   -5.5219   -1.2058   -1.8209 C   0  0  0  0  0  0  0  0  0  0  0  0
   -4.3140   -1.4912   -1.1826 C   0  0  0  0  0  0  0  0  0  0  0  0
   -3.7384   -0.5678   -0.2950 C   0  0  0  0  0  0  0  0  0  0  0  0
   -2.5141   -0.9383    0.3080 N   0  0  0  0  0  0  0  0  0  0  0  0
   -1.7532   -0.2017    1.2027 C   0  0  0  0  0  0  0  0  0  0  0  0
   -2.0080    0.9167    1.6324 O   0  0  0  0  0  0  0  0  0  0  0  0
   -0.5057   -0.9547    1.6236 C   0  0  0  0  0  0  0  0  0  0  0  0
    0.3373   -0.1341    2.5911 C   0  0  0  0  0  0  0  0  0  0  0  0
    1.5421   -0.9021    2.9442 N   0  0  0  0  0  0  0  0  0  0  0  0
    2.8667   -0.0617    3.5566 S   0  0  0  0  0  6  0  0  0  0  0  0
    2.3801    1.0805    4.2953 O   0  0  0  0  0  0  0  0  0  0  0  0
    3.7220   -1.0570    4.1642 O   0  0  0  0  0  0  0  0  0  0  0  0
    3.6607    0.4985    2.0714 C   0  0  0  0  0  0  0  0  0  0  0  0
    3.5077    1.8261    1.6598 C   0  0  0  0  0  0  0  0  0  0  0  0
    4.1545    2.2678    0.5042 C   0  0  0  0  0  0  0  0  0  0  0  0
    4.9427    1.3806   -0.2303 C   0  0  0  0  0  0  0  0  0  0  0  0
    5.1133    0.0552    0.1895 C   0  0  0  0  0  0  0  0  0  0  0  0
    4.4750   -0.3850    1.3544 C   0  0  0  0  0  0  0  0  0  0  0  0
    6.0731   -0.8309   -0.5546 C   0  0  0  0  0  0  0  0  0  0  0  0
    6.1159   -0.4773   -2.0319 C   0  0  0  0  0  0  0  0  0  0  0  0
    6.2609    1.0101   -2.2561 C   0  0  0  0  0  0  0  0  0  0  0  0
    6.8599    1.4734   -3.2238 O   0  0  0  0  0  0  0  0  0  0  0  0
    5.5935    1.8276   -1.3830 N   0  0  0  0  0  0  0  0  0  0  0  0
   -4.3887    0.6465   -0.0535 C   0  0  0  0  0  0  0  0  0  0  0  0
   -5.5980    0.9405   -0.6880 C   0  0  0  0  0  0  0  0  0  0  0  0
   -6.3280    2.0884   -0.5355 O   0  0  0  0  0  0  0  0  0  0  0  0
   -5.8055    3.0729    0.3491 C   0  0  0  0  0  0  0  0  0  0  0  0
   -6.1547    0.0108   -1.5673 C   0  0  0  0  0  0  0  0  0  0  0  0
   -5.5072   -3.8981   -2.1064 H   0  0  0  0  0  0  0  0  0  0  0  0
   -4.6054   -3.1416   -3.4771 H   0  0  0  0  0  0  0  0  0  0  0  0
   -6.2326   -3.7909   -3.7151 H   0  0  0  0  0  0  0  0  0  0  0  0
   -3.8074   -2.4315   -1.3675 H   0  0  0  0  0  0  0  0  0  0  0  0
   -2.1534   -1.8478    0.0471 H   0  0  0  0  0  0  0  0  0  0  0  0
    0.0788   -1.1936    0.7268 H   0  0  0  0  0  0  0  0  0  0  0  0
   -0.8069   -1.8989    2.0930 H   0  0  0  0  0  0  0  0  0  0  0  0
   -0.2299    0.0798    3.5038 H   0  0  0  0  0  0  0  0  0  0  0  0
    0.6130    0.8169    2.1232 H   0  0  0  0  0  0  0  0  0  0  0  0
    1.4219   -1.7948    3.4228 H   0  0  0  0  0  0  0  0  0  0  0  0
    2.8947    2.5195    2.2322 H   0  0  0  0  0  0  0  0  0  0  0  0
    4.0328    3.3004    0.1877 H   0  0  0  0  0  0  0  0  0  0  0  0
    4.6211   -1.4032    1.7097 H   0  0  0  0  0  0  0  0  0  0  0  0
    7.0683   -0.7066   -0.1100 H   0  0  0  0  0  0  0  0  0  0  0  0
    5.7878   -1.8836   -0.4452 H   0  0  0  0  0  0  0  0  0  0  0  0
    5.1927   -0.7952   -2.5315 H   0  0  0  0  0  0  0  0  0  0  0  0
    6.9552   -0.9936   -2.5100 H   0  0  0  0  0  0  0  0  0  0  0  0
    5.5931    2.8119   -1.6191 H   0  0  0  0  0  0  0  0  0  0  0  0
   -3.9564    1.3656    0.6294 H   0  0  0  0  0  0  0  0  0  0  0  0
   -4.8360    3.4431   -0.0004 H   0  0  0  0  0  0  0  0  0  0  0  0
   -6.5009    3.9178    0.3558 H   0  0  0  0  0  0  0  0  0  0  0  0
   -5.7391    2.6889    1.3724 H   0  0  0  0  0  0  0  0  0  0  0  0
   -7.0964    0.2396   -2.0613 H   0  0  0  0  0  0  0  0  0  0  0  0
  1  2  1  0
  2  3  1  0
  3  4  2  0
  4  5  1  0
  5  6  1  0
  6  7  1  0
  7  8  2  0
  7  9  1  0
  9 10  1  0
 10 11  1  0
 11 12  1  0
 12 13  2  0
 12 14  2  0
 12 15  1  0
 15 16  2  0
 16 17  1  0
 17 18  2  0
 18 19  1  0
 19 20  2  0
 19 21  1  0
 21 22  1  0
 22 23  1  0
 23 24  2  0
 23 25  1  0
  5 26  2  0
 26 27  1  0
 27 28  1  0
 28 29  1  0
 27 30  2  0
 30  3  1  0
 20 15  1  0
 25 18  1  0
  1 31  1  0
  1 32  1  0
  1 33  1  0
  4 34  1  0
  6 35  1  0
  9 36  1  0
  9 37  1  0
 10 38  1  0
 10 39  1  0
 11 40  1  0
 16 41  1  0
 17 42  1  0
 20 43  1  0
 21 44  1  0
 21 45  1  0
 22 46  1  0
 22 47  1  0
 25 48  1  0
 26 49  1  0
 29 50  1  0
 29 51  1  0
 29 52  1  0
 30 53  1  0
M  END
$$$$
