
     RDKit          3D

 33 35  0  0  0  0  0  0  0  0999 V2000
    4.8322   -1.3476   -1.8544 C   0  0  0  0  0  0  0  0  0  0  0  0
    4.3643   -0.4362   -0.7368 C   0  0  0  0  0  0  0  0  0  0  0  0
    2.9209   -0.3872   -0.6637 N   0  0  0  0  0  0  0  0  0  0  0  0
    2.2608    0.6014    0.0181 C   0  0  0  0  0  0  0  0  0  0  0  0
    2.8405    1.5767    0.4989 O   0  0  0  0  0  0  0  0  0  0  0  0
    0.7766    0.4463    0.1584 C   0  0  0  0  0  0  0  0  0  0  0  0
    0.0810    1.4548    0.7475 C   0  0  0  0  0  0  0  0  0  0  0  0
    0.6354    2.6241    1.2394 O   0  0  0  0  0  0  0  0  0  0  0  0
   -1.3768    1.3706    0.9075 C   0  0  0  0  0  0  0  0  0  0  0  0
   -2.2156    2.3222    1.4869 C   0  0  0  0  0  0  0  0  0  0  0  0
   -3.6076    2.0934    1.5668 C   0  0  0  0  0  0  0  0  0  0  0  0
   -4.1834    0.9125    1.0706 C   0  0  0  0  0  0  0  0  0  0  0  0
   -3.3490   -0.0264    0.4986 C   0  0  0  0  0  0  0  0  0  0  0  0
   -1.9893    0.2307    0.4356 C   0  0  0  0  0  0  0  0  0  0  0  0
   -1.3014   -0.8072   -0.1622 N   0  0  0  0  0  0  0  0  0  0  0  0
    0.0564   -0.7916   -0.3316 C   0  0  0  0  0  0  0  0  0  0  0  0
    0.6667   -1.7281   -0.8471 O   0  0  0  0  0  0  0  0  0  0  0  0
   -2.2452   -1.8622   -0.5315 C   0  0  0  0  0  0  0  0  0  0  0  0
   -3.6505   -1.3610   -0.1114 C   0  0  0  0  0  0  0  0  0  0  0  0
    4.4621   -0.9985   -2.8241 H   0  0  0  0  0  0  0  0  0  0  0  0
    5.9253   -1.3762   -1.8928 H   0  0  0  0  0  0  0  0  0  0  0  0
    4.4668   -2.3693   -1.7065 H   0  0  0  0  0  0  0  0  0  0  0  0
    4.7311   -0.7985    0.2294 H   0  0  0  0  0  0  0  0  0  0  0  0
    4.7521    0.5773   -0.8849 H   0  0  0  0  0  0  0  0  0  0  0  0
    2.3925   -1.2246   -0.9155 H   0  0  0  0  0  0  0  0  0  0  0  0
    1.6107    2.5816    1.1102 H   0  0  0  0  0  0  0  0  0  0  0  0
   -1.8018    3.2479    1.8810 H   0  0  0  0  0  0  0  0  0  0  0  0
   -4.2434    2.8500    2.0229 H   0  0  0  0  0  0  0  0  0  0  0  0
   -5.2544    0.7505    1.1388 H   0  0  0  0  0  0  0  0  0  0  0  0
   -2.1786   -2.0418   -1.6101 H   0  0  0  0  0  0  0  0  0  0  0  0
   -1.9680   -2.7860   -0.0117 H   0  0  0  0  0  0  0  0  0  0  0  0
   -4.3048   -1.2590   -0.9825 H   0  0  0  0  0  0  0  0  0  0  0  0
   -4.1057   -2.0387    0.6170 H   0  0  0  0  0  0  0  0  0  0  0  0
  1  2  1  0
  2  3  1  0
  3  4  1  0
  4  5  2  0
  4  6  1  0
  6  7  2  0
  7  8  1  0
  7  9  1  0
  9 10  2  0
 10 11  1  0
 11 12  2  0
 12 13  1  0
 13 14  2  0
 14 15  1  0
 15 16  1  0
 16 17  2  0
 15 18  1  0
 18 19  1  0
 16  6  1  0
 14  9  1  0
 19 13  1  0
  1 20  1  0
  1 21  1  0
  1 22  1  0
  2 23  1  0
  2 24  1  0
  3 25  1  0
  8 26  1  0
 10 27  1  0
 11 28  1  0
 12 29  1  0
 18 30  1  0
 18 31  1  0
 19 32  1  0
 19 33  1  0
M  END
$$$$
