
     RDKit          3D

 61 64  0  0  0  0  0  0  0  0999 V2000
    7.1779    4.0208    1.0275 C   0  0  0  0  0  0  0  0  0  0  0  0
    7.3487    2.6957    0.5427 O   0  0  0  0  0  0  0  0  0  0  0  0
    6.2144    1.9736    0.2581 C   0  0  0  0  0  0  0  0  0  0  0  0
    4.9082    2.4520    0.4155 C   0  0  0  0  0  0  0  0  0  0  0  0
    3.8151    1.6433    0.0903 C   0  0  0  0  0  0  0  0  0  0  0  0
    4.0086    0.3439   -0.3896 C   0  0  0  0  0  0  0  0  0  0  0  0
    2.8541   -0.3876   -0.7339 N   0  0  0  0  0  0  0  0  0  0  0  0
    2.7696   -1.7075   -1.1391 C   0  0  0  0  0  0  0  0  0  0  0  0
    3.6909   -2.5225   -1.1513 O   0  0  0  0  0  0  0  0  0  0  0  0
    1.3877   -2.0976   -1.6381 C   0  0  0  0  0  0  0  0  0  0  0  0
    0.2364   -2.4188   -0.2719 S   0  0  0  0  0  0  0  0  0  0  0  0
   -0.4645   -0.8461   -0.0676 C   0  0  0  0  0  0  0  0  0  0  0  0
    0.2094    0.2672   -0.2444 N   0  0  0  0  0  0  0  0  0  0  0  0
   -0.5947    1.3058    0.1081 N   0  0  0  0  0  0  0  0  0  0  0  0
   -1.7770    0.8188    0.4537 C   0  0  0  0  0  0  0  0  0  0  0  0
   -3.0060    1.6605    0.6433 C   0  0  0  0  0  0  0  0  0  0  0  0
   -3.7019    1.9288   -0.6662 C   0  0  0  0  0  0  0  0  0  0  0  0
   -3.2019    2.5871   -1.7808 C   0  0  0  0  0  0  0  0  0  0  0  0
   -4.2075    2.6017   -2.7695 C   0  0  0  0  0  0  0  0  0  0  0  0
   -5.3037    1.9539   -2.2450 C   0  0  0  0  0  0  0  0  0  0  0  0
   -5.0029    1.5735   -0.9583 N   0  0  0  0  0  0  0  0  0  0  0  0
   -5.9492    0.9556   -0.0570 C   0  0  0  0  0  0  0  0  0  0  0  0
   -1.7305   -0.5712    0.4264 N   0  0  0  0  0  0  0  0  0  0  0  0
   -2.7625   -1.4749    0.7822 C   0  0  0  0  0  0  0  0  0  0  0  0
   -3.0837   -2.5447   -0.0589 C   0  0  0  0  0  0  0  0  0  0  0  0
   -4.1175   -3.4163    0.2873 C   0  0  0  0  0  0  0  0  0  0  0  0
   -4.8311   -3.2391    1.4831 C   0  0  0  0  0  0  0  0  0  0  0  0
   -5.9581   -4.1674    1.8285 C   0  0  0  0  0  0  0  0  0  0  0  0
   -4.5041   -2.1677    2.3210 C   0  0  0  0  0  0  0  0  0  0  0  0
   -3.4727   -1.2899    1.9754 C   0  0  0  0  0  0  0  0  0  0  0  0
    5.3100   -0.1392   -0.5388 C   0  0  0  0  0  0  0  0  0  0  0  0
    6.4158    0.6663   -0.2257 C   0  0  0  0  0  0  0  0  0  0  0  0
    7.7266    0.2735   -0.3766 O   0  0  0  0  0  0  0  0  0  0  0  0
    7.9685   -1.0785   -0.7490 C   0  0  0  0  0  0  0  0  0  0  0  0
    6.6711    4.0219    1.9998 H   0  0  0  0  0  0  0  0  0  0  0  0
    8.1727    4.4525    1.1750 H   0  0  0  0  0  0  0  0  0  0  0  0
    6.6474    4.6484    0.3016 H   0  0  0  0  0  0  0  0  0  0  0  0
    4.7039    3.4509    0.7877 H   0  0  0  0  0  0  0  0  0  0  0  0
    2.8069    2.0453    0.2207 H   0  0  0  0  0  0  0  0  0  0  0  0
    1.9714    0.1090   -0.6362 H   0  0  0  0  0  0  0  0  0  0  0  0
    1.4864   -3.0181   -2.2232 H   0  0  0  0  0  0  0  0  0  0  0  0
    0.9932   -1.3394   -2.3296 H   0  0  0  0  0  0  0  0  0  0  0  0
   -2.6862    2.6284    1.0598 H   0  0  0  0  0  0  0  0  0  0  0  0
   -3.6905    1.2436    1.3854 H   0  0  0  0  0  0  0  0  0  0  0  0
   -2.2056    3.0014   -1.8672 H   0  0  0  0  0  0  0  0  0  0  0  0
   -4.1380    3.0300   -3.7602 H   0  0  0  0  0  0  0  0  0  0  0  0
   -6.2781    1.7587   -2.6721 H   0  0  0  0  0  0  0  0  0  0  0  0
   -5.6207   -0.0685    0.1314 H   0  0  0  0  0  0  0  0  0  0  0  0
   -5.9759    1.5372    0.8684 H   0  0  0  0  0  0  0  0  0  0  0  0
   -6.9429    0.9498   -0.5164 H   0  0  0  0  0  0  0  0  0  0  0  0
   -2.5723   -2.7006   -1.0042 H   0  0  0  0  0  0  0  0  0  0  0  0
   -4.3686   -4.2355   -0.3876 H   0  0  0  0  0  0  0  0  0  0  0  0
   -6.8531   -3.8900    1.2659 H   0  0  0  0  0  0  0  0  0  0  0  0
   -5.6889   -5.2013    1.5903 H   0  0  0  0  0  0  0  0  0  0  0  0
   -6.1970   -4.1351    2.8964 H   0  0  0  0  0  0  0  0  0  0  0  0
   -5.0448   -2.0160    3.2554 H   0  0  0  0  0  0  0  0  0  0  0  0
   -3.2091   -0.5038    2.6798 H   0  0  0  0  0  0  0  0  0  0  0  0
    5.4642   -1.1385   -0.9246 H   0  0  0  0  0  0  0  0  0  0  0  0
    9.0536   -1.2253   -0.7847 H   0  0  0  0  0  0  0  0  0  0  0  0
    7.5600   -1.7679   -0.0055 H   0  0  0  0  0  0  0  0  0  0  0  0
    7.5686   -1.2904   -1.7512 H   0  0  0  0  0  0  0  0  0  0  0  0
  1  2  1  0
  2  3  1  0
  3  4  2  0
  4  5  1  0
  5  6  2  0
  6  7  1  0
  7  8  1  0
  8  9  2  0
  8 10  1  0
 10 11  1  0
 11 12  1  0
 12 13  2  0
 13 14  1  0
 14 15  2  0
 15 16  1  0
 16 17  1  0
 17 18  2  0
 18 19  1  0
 19 20  2  0
 20 21  1  0
 21 22  1  0
 15 23  1  0
 23 24  1  0
 24 25  2  0
 25 26  1  0
 26 27  2  0
 27 28  1  0
 27 29  1  0
 29 30  2  0
  6 31  1  0
 31 32  2  0
 32 33  1  0
 33 34  1  0
 32  3  1  0
 23 12  1  0
 30 24  1  0
 21 17  1  0
  1 35  1  0
  1 36  1  0
  1 37  1  0
  4 38  1  0
  5 39  1  0
  7 40  1  0
 10 41  1  0
 10 42  1  0
 16 43  1  0
 16 44  1  0
 18 45  1  0
 19 46  1  0
 20 47  1  0
 22 48  1  0
 22 49  1  0
 22 50  1  0
 25 51  1  0
 26 52  1  0
 28 53  1  0
 28 54  1  0
 28 55  1  0
 29 56  1  0
 30 57  1  0
 31 58  1  0
 34 59  1  0
 34 60  1  0
 34 61  1  0
M  END
$$$$
