
     RDKit          3D

 38 38  0  0  0  0  0  0  0  0999 V2000
    4.9942   -1.7962   -2.6265 C   0  0  0  0  0  0  0  0  0  0  0  0
    4.7258   -0.3079   -2.5180 C   0  0  0  0  0  0  0  0  0  0  0  0
    3.3645   -0.1280   -2.1103 O   0  0  0  0  0  0  0  0  0  0  0  0
    3.0020    1.1724   -1.9333 C   0  0  0  0  0  0  0  0  0  0  0  0
    3.7101    2.1426   -2.1707 O   0  0  0  0  0  0  0  0  0  0  0  0
    1.5757    1.2696   -1.4820 C   0  0  0  0  0  0  0  0  0  0  0  0
    1.3243    0.6510   -0.1316 C   0  0  0  0  0  0  0  0  0  0  0  0
    2.2306    0.3999    0.6597 O   0  0  0  0  0  0  0  0  0  0  0  0
   -0.0845    0.3517    0.2695 C   0  0  0  0  0  0  0  0  0  0  0  0
   -1.1821    0.9058   -0.4051 C   0  0  0  0  0  0  0  0  0  0  0  0
   -2.4828    0.5982    0.0016 C   0  0  0  0  0  0  0  0  0  0  0  0
   -3.6219    1.0842   -0.5863 O   0  0  0  0  0  0  0  0  0  0  0  0
   -3.4853    1.8055   -1.8025 C   0  0  0  0  0  0  0  0  0  0  0  0
   -2.6701   -0.2525    1.1056 C   0  0  0  0  0  0  0  0  0  0  0  0
   -3.9523   -0.5931    1.4780 O   0  0  0  0  0  0  0  0  0  0  0  0
   -4.4209    0.3050    2.4827 C   0  0  0  0  0  0  0  0  0  0  0  0
   -1.5800   -0.8222    1.7846 C   0  0  0  0  0  0  0  0  0  0  0  0
   -1.8820   -1.6534    2.8314 O   0  0  0  0  0  0  0  0  0  0  0  0
   -0.8013   -2.3057    3.4854 C   0  0  0  0  0  0  0  0  0  0  0  0
   -0.2885   -0.5050    1.3636 C   0  0  0  0  0  0  0  0  0  0  0  0
    6.0259   -1.9851   -2.9361 H   0  0  0  0  0  0  0  0  0  0  0  0
    4.8167   -2.2911   -1.6659 H   0  0  0  0  0  0  0  0  0  0  0  0
    4.3168   -2.2580   -3.3526 H   0  0  0  0  0  0  0  0  0  0  0  0
    5.3975    0.1361   -1.7747 H   0  0  0  0  0  0  0  0  0  0  0  0
    4.8850    0.1689   -3.4916 H   0  0  0  0  0  0  0  0  0  0  0  0
    0.9586    0.7912   -2.2500 H   0  0  0  0  0  0  0  0  0  0  0  0
    1.3095    2.3311   -1.4286 H   0  0  0  0  0  0  0  0  0  0  0  0
   -1.0203    1.5863   -1.2320 H   0  0  0  0  0  0  0  0  0  0  0  0
   -2.9693    2.7567   -1.6370 H   0  0  0  0  0  0  0  0  0  0  0  0
   -4.4899    2.0321   -2.1721 H   0  0  0  0  0  0  0  0  0  0  0  0
   -2.9764    1.2068   -2.5653 H   0  0  0  0  0  0  0  0  0  0  0  0
   -4.4434    1.3374    2.1170 H   0  0  0  0  0  0  0  0  0  0  0  0
   -5.4447    0.0157    2.7382 H   0  0  0  0  0  0  0  0  0  0  0  0
   -3.8148    0.2391    3.3926 H   0  0  0  0  0  0  0  0  0  0  0  0
   -0.1451   -1.5811    3.9786 H   0  0  0  0  0  0  0  0  0  0  0  0
   -1.2222   -2.9538    4.2602 H   0  0  0  0  0  0  0  0  0  0  0  0
   -0.2414   -2.9392    2.7895 H   0  0  0  0  0  0  0  0  0  0  0  0
    0.5818   -0.9145    1.8692 H   0  0  0  0  0  0  0  0  0  0  0  0
  1  2  1  0
  2  3  1  0
  3  4  1  0
  4  5  2  0
  4  6  1  0
  6  7  1  0
  7  8  2  0
  7  9  1  0
  9 10  2  0
 10 11  1  0
 11 12  1  0
 12 13  1  0
 11 14  2  0
 14 15  1  0
 15 16  1  0
 14 17  1  0
 17 18  1  0
 18 19  1  0
 17 20  2  0
 20  9  1  0
  1 21  1  0
  1 22  1  0
  1 23  1  0
  2 24  1  0
  2 25  1  0
  6 26  1  0
  6 27  1  0
 10 28  1  0
 13 29  1  0
 13 30  1  0
 13 31  1  0
 16 32  1  0
 16 33  1  0
 16 34  1  0
 19 35  1  0
 19 36  1  0
 19 37  1  0
 20 38  1  0
M  END
$$$$
