
     RDKit          3D

 47 50  0  0  0  0  0  0  0  0999 V2000
   -4.5094    2.9571    0.2877 C   0  0  0  0  0  0  0  0  0  0  0  0
   -4.2368    1.7579   -0.6216 C   0  0  0  0  0  0  0  0  0  0  0  0
   -2.7450    1.5409   -0.8275 C   0  0  0  0  0  0  0  0  0  0  0  0
   -2.0583    0.9071    0.3624 C   0  0  0  0  0  0  0  0  0  0  0  0
   -1.4327    1.6106    1.1633 O   0  0  0  0  0  0  0  0  0  0  0  0
   -2.0716   -0.4802    0.4586 N   0  0  0  0  0  0  0  0  0  0  0  0
   -1.2654   -1.0973    1.5187 C   0  0  0  0  0  0  0  0  0  0  0  0
    0.2225   -1.1691    1.1524 C   0  0  0  0  0  0  0  0  0  0  0  0
    0.7387   -2.2371    0.8335 O   0  0  0  0  0  0  0  0  0  0  0  0
    0.8520    0.0624    1.2167 N   0  0  0  0  0  0  0  0  0  0  0  0
    2.2021    0.3635    0.9552 C   0  0  0  0  0  0  0  0  0  0  0  0
    2.5734    1.7141    1.0262 C   0  0  0  0  0  0  0  0  0  0  0  0
    3.8937    2.1061    0.7901 C   0  0  0  0  0  0  0  0  0  0  0  0
    4.8540    1.1478    0.4853 C   0  0  0  0  0  0  0  0  0  0  0  0
    4.4879   -0.1975    0.3878 C   0  0  0  0  0  0  0  0  0  0  0  0
    3.1703   -0.5909    0.6368 C   0  0  0  0  0  0  0  0  0  0  0  0
    5.3758   -1.1923    0.0601 O   0  0  0  0  0  0  0  0  0  0  0  0
    6.5779   -0.6555   -0.5019 C   0  0  0  0  0  0  0  0  0  0  0  0
    7.0759    0.5193    0.3231 C   0  0  0  0  0  0  0  0  0  0  0  0
    6.1339    1.5977    0.2872 O   0  0  0  0  0  0  0  0  0  0  0  0
   -2.8751   -1.3325   -0.3629 C   0  0  0  0  0  0  0  0  0  0  0  0
   -2.3187   -2.5235   -0.8592 C   0  0  0  0  0  0  0  0  0  0  0  0
   -3.0588   -3.3783   -1.6793 C   0  0  0  0  0  0  0  0  0  0  0  0
   -4.3742   -3.0675   -2.0022 C   0  0  0  0  0  0  0  0  0  0  0  0
   -4.9549   -1.9060   -1.4958 C   0  0  0  0  0  0  0  0  0  0  0  0
   -4.2184   -1.0319   -0.6813 C   0  0  0  0  0  0  0  0  0  0  0  0
   -5.1297    0.3174    0.0631 S   0  0  0  0  0  0  0  0  0  0  0  0
   -4.1195    2.8033    1.3001 H   0  0  0  0  0  0  0  0  0  0  0  0
   -4.0346    3.8587   -0.1154 H   0  0  0  0  0  0  0  0  0  0  0  0
   -5.5828    3.1661    0.3621 H   0  0  0  0  0  0  0  0  0  0  0  0
   -4.6839    1.9734   -1.5994 H   0  0  0  0  0  0  0  0  0  0  0  0
   -2.2464    2.4974   -1.0321 H   0  0  0  0  0  0  0  0  0  0  0  0
   -2.5540    0.9376   -1.7236 H   0  0  0  0  0  0  0  0  0  0  0  0
   -1.6303   -2.1043    1.7524 H   0  0  0  0  0  0  0  0  0  0  0  0
   -1.3698   -0.5120    2.4410 H   0  0  0  0  0  0  0  0  0  0  0  0
    0.2459    0.8585    1.4271 H   0  0  0  0  0  0  0  0  0  0  0  0
    1.8390    2.4790    1.2693 H   0  0  0  0  0  0  0  0  0  0  0  0
    4.1719    3.1540    0.8554 H   0  0  0  0  0  0  0  0  0  0  0  0
    2.9321   -1.6468    0.5671 H   0  0  0  0  0  0  0  0  0  0  0  0
    7.3253   -1.4549   -0.5118 H   0  0  0  0  0  0  0  0  0  0  0  0
    6.3775   -0.3618   -1.5398 H   0  0  0  0  0  0  0  0  0  0  0  0
    8.0219    0.8922   -0.0817 H   0  0  0  0  0  0  0  0  0  0  0  0
    7.2403    0.2346    1.3697 H   0  0  0  0  0  0  0  0  0  0  0  0
   -1.2865   -2.7945   -0.6491 H   0  0  0  0  0  0  0  0  0  0  0  0
   -2.6024   -4.2874   -2.0644 H   0  0  0  0  0  0  0  0  0  0  0  0
   -4.9546   -3.7370   -2.6322 H   0  0  0  0  0  0  0  0  0  0  0  0
   -5.9983   -1.6985   -1.7254 H   0  0  0  0  0  0  0  0  0  0  0  0
  1  2  1  0
  2  3  1  0
  3  4  1  0
  4  5  2  0
  4  6  1  0
  6  7  1  0
  7  8  1  0
  8  9  2  0
  8 10  1  0
 10 11  1  0
 11 12  2  0
 12 13  1  0
 13 14  2  0
 14 15  1  0
 15 16  2  0
 15 17  1  0
 17 18  1  0
 18 19  1  0
 19 20  1  0
  6 21  1  0
 21 22  2  0
 22 23  1  0
 23 24  2  0
 24 25  1  0
 25 26  2  0
 26 27  1  0
 27  2  1  0
 16 11  1  0
 26 21  1  0
 20 14  1  0
  1 28  1  0
  1 29  1  0
  1 30  1  0
  2 31  1  0
  3 32  1  0
  3 33  1  0
  7 34  1  0
  7 35  1  0
 10 36  1  0
 12 37  1  0
 13 38  1  0
 16 39  1  0
 18 40  1  0
 18 41  1  0
 19 42  1  0
 19 43  1  0
 22 44  1  0
 23 45  1  0
 24 46  1  0
 25 47  1  0
M  END
$$$$
