
     RDKit          3D

 26 27  0  0  0  0  0  0  0  0999 V2000
   -1.0613    1.2048    1.4552 O   0  0  0  0  0  0  0  0  0  0  0  0
   -1.1921    0.7917    0.3032 C   0  0  0  0  0  0  0  0  0  0  0  0
   -0.0371    0.8422   -0.7081 C   0  0  0  0  0  0  0  0  0  0  0  0
    1.1604    1.4354   -0.2101 O   0  0  0  0  0  0  0  0  0  0  0  0
    2.0566    0.4853    0.2047 C   0  0  0  0  0  0  0  0  0  0  0  0
    2.1151    0.1972    1.5688 C   0  0  0  0  0  0  0  0  0  0  0  0
    3.0342   -0.7394    2.0430 C   0  0  0  0  0  0  0  0  0  0  0  0
    3.9056   -1.3746    1.1574 C   0  0  0  0  0  0  0  0  0  0  0  0
    3.8648   -1.0688   -0.2049 C   0  0  0  0  0  0  0  0  0  0  0  0
    2.9456   -0.1325   -0.6824 C   0  0  0  0  0  0  0  0  0  0  0  0
    2.9352    0.2310   -2.3700 Cl  0  0  0  0  0  0  0  0  0  0  0  0
   -2.4514    0.2260   -0.1704 C   0  0  0  0  0  0  0  0  0  0  0  0
   -3.6201    0.0585    0.5579 C   0  0  0  0  0  0  0  0  0  0  0  0
   -4.5923   -0.5257   -0.2855 C   0  0  0  0  0  0  0  0  0  0  0  0
   -4.0045   -0.7047   -1.5146 C   0  0  0  0  0  0  0  0  0  0  0  0
   -2.7142   -0.2483   -1.4393 N   0  0  0  0  0  0  0  0  0  0  0  0
    0.1328   -0.1711   -1.0961 H   0  0  0  0  0  0  0  0  0  0  0  0
   -0.3635    1.4689   -1.5461 H   0  0  0  0  0  0  0  0  0  0  0  0
    1.4463    0.7027    2.2623 H   0  0  0  0  0  0  0  0  0  0  0  0
    3.0742   -0.9670    3.1057 H   0  0  0  0  0  0  0  0  0  0  0  0
    4.6243   -2.1006    1.5304 H   0  0  0  0  0  0  0  0  0  0  0  0
    4.5568   -1.5579   -0.8854 H   0  0  0  0  0  0  0  0  0  0  0  0
   -3.7470    0.3354    1.5984 H   0  0  0  0  0  0  0  0  0  0  0  0
   -5.6100   -0.7856   -0.0228 H   0  0  0  0  0  0  0  0  0  0  0  0
   -4.3940   -1.1163   -2.4366 H   0  0  0  0  0  0  0  0  0  0  0  0
   -2.0644   -0.2637   -2.2147 H   0  0  0  0  0  0  0  0  0  0  0  0
  1  2  2  0
  2  3  1  0
  3  4  1  0
  4  5  1  0
  5  6  2  0
  6  7  1  0
  7  8  2  0
  8  9  1  0
  9 10  2  0
 10 11  1  0
  2 12  1  0
 12 13  2  0
 13 14  1  0
 14 15  2  0
 15 16  1  0
 10  5  1  0
 16 12  1  0
  3 17  1  0
  3 18  1  0
  6 19  1  0
  7 20  1  0
  8 21  1  0
  9 22  1  0
 13 23  1  0
 14 24  1  0
 15 25  1  0
 16 26  1  0
M  END
$$$$
