
     RDKit          3D

 43 45  0  0  0  0  0  0  0  0999 V2000
   -6.2446   -0.3642    1.8322 C   0  0  0  0  0  0  0  0  0  0  0  0
   -5.1093   -1.0641    1.2346 N   0  0  0  0  0  0  0  0  0  0  0  0
   -5.2539   -2.5122    1.1034 C   0  0  0  0  0  0  0  0  0  0  0  0
   -4.2864   -0.3725    0.3379 C   0  0  0  0  0  0  0  0  0  0  0  0
   -4.2352    1.0331    0.3074 C   0  0  0  0  0  0  0  0  0  0  0  0
   -3.3999    1.7363   -0.5744 C   0  0  0  0  0  0  0  0  0  0  0  0
   -2.5698    1.0504   -1.4560 C   0  0  0  0  0  0  0  0  0  0  0  0
   -1.7115    1.7952   -2.3801 C   0  0  0  0  0  0  0  0  0  0  0  0
   -0.3686    1.8387   -2.3692 C   0  0  0  0  0  0  0  0  0  0  0  0
    0.5053    1.1726   -1.4197 C   0  0  0  0  0  0  0  0  0  0  0  0
    1.8467    1.1912   -1.4188 C   0  0  0  0  0  0  0  0  0  0  0  0
    2.8859    1.9856   -2.5220 S   0  0  0  0  0  0  0  0  0  0  0  0
    4.3411    1.5157   -1.6406 C   0  0  0  0  0  0  0  0  0  0  0  0
    5.8146    2.1824   -2.0786 S   0  0  0  0  0  0  0  0  0  0  0  0
    4.0074    0.6641   -0.5921 N   0  0  0  0  0  0  0  0  0  0  0  0
    4.9570    0.0173    0.2690 C   0  0  0  0  0  0  0  0  0  0  0  0
    4.7051   -0.1124    1.6447 C   0  0  0  0  0  0  0  0  0  0  0  0
    5.6183   -0.7481    2.4922 C   0  0  0  0  0  0  0  0  0  0  0  0
    6.7970   -1.2768    1.9773 C   0  0  0  0  0  0  0  0  0  0  0  0
    7.0582   -1.1767    0.6149 C   0  0  0  0  0  0  0  0  0  0  0  0
    6.1439   -0.5398   -0.2317 C   0  0  0  0  0  0  0  0  0  0  0  0
    2.6407    0.4597   -0.3916 C   0  0  0  0  0  0  0  0  0  0  0  0
    2.1011   -0.2377    0.4597 O   0  0  0  0  0  0  0  0  0  0  0  0
   -2.5918   -0.3422   -1.4478 C   0  0  0  0  0  0  0  0  0  0  0  0
   -3.4281   -1.0344   -0.5587 C   0  0  0  0  0  0  0  0  0  0  0  0
   -6.8332   -1.0323    2.4709 H   0  0  0  0  0  0  0  0  0  0  0  0
   -6.9164    0.0288    1.0612 H   0  0  0  0  0  0  0  0  0  0  0  0
   -5.9101    0.4530    2.4804 H   0  0  0  0  0  0  0  0  0  0  0  0
   -5.7012   -2.7789    0.1393 H   0  0  0  0  0  0  0  0  0  0  0  0
   -4.2882   -3.0178    1.2145 H   0  0  0  0  0  0  0  0  0  0  0  0
   -5.8975   -2.9197    1.8915 H   0  0  0  0  0  0  0  0  0  0  0  0
   -4.8427    1.6280    0.9826 H   0  0  0  0  0  0  0  0  0  0  0  0
   -3.4031    2.8234   -0.5514 H   0  0  0  0  0  0  0  0  0  0  0  0
   -2.2513    2.3665   -3.1332 H   0  0  0  0  0  0  0  0  0  0  0  0
    0.1062    2.4450   -3.1391 H   0  0  0  0  0  0  0  0  0  0  0  0
    0.0082    0.6106   -0.6282 H   0  0  0  0  0  0  0  0  0  0  0  0
    3.8023    0.2988    2.0922 H   0  0  0  0  0  0  0  0  0  0  0  0
    5.4034   -0.8290    3.5550 H   0  0  0  0  0  0  0  0  0  0  0  0
    7.5060   -1.7731    2.6349 H   0  0  0  0  0  0  0  0  0  0  0  0
    7.9702   -1.6034    0.2040 H   0  0  0  0  0  0  0  0  0  0  0  0
    6.3689   -0.5346   -1.2947 H   0  0  0  0  0  0  0  0  0  0  0  0
   -1.9585   -0.9080   -2.1267 H   0  0  0  0  0  0  0  0  0  0  0  0
   -3.3861   -2.1187   -0.5963 H   0  0  0  0  0  0  0  0  0  0  0  0
  1  2  1  0
  2  3  1  0
  2  4  1  0
  4  5  2  0
  5  6  1  0
  6  7  2  0
  7  8  1  0
  8  9  2  3
  9 10  1  0
 10 11  2  3
 11 12  1  0
 12 13  1  0
 13 14  2  0
 13 15  1  0
 15 16  1  0
 16 17  2  0
 17 18  1  0
 18 19  2  0
 19 20  1  0
 20 21  2  0
 15 22  1  0
 22 23  2  0
  7 24  1  0
 24 25  2  0
 25  4  1  0
 22 11  1  0
 21 16  1  0
  1 26  1  0
  1 27  1  0
  1 28  1  0
  3 29  1  0
  3 30  1  0
  3 31  1  0
  5 32  1  0
  6 33  1  0
  8 34  1  0
  9 35  1  0
 10 36  1  0
 17 37  1  0
 18 38  1  0
 19 39  1  0
 20 40  1  0
 21 41  1  0
 24 42  1  0
 25 43  1  0
M  END
$$$$
