
     RDKit          3D

 41 44  0  0  0  0  0  0  0  0999 V2000
    6.0454    1.9236    0.4605 C   0  0  0  0  0  0  0  0  0  0  0  0
    4.8591    1.0172    0.3296 C   0  0  0  0  0  0  0  0  0  0  0  0
    3.5699    1.4892    0.5700 C   0  0  0  0  0  0  0  0  0  0  0  0
    2.4636    0.6310    0.4781 C   0  0  0  0  0  0  0  0  0  0  0  0
    2.6047   -0.7264    0.1520 C   0  0  0  0  0  0  0  0  0  0  0  0
    1.5017   -1.6184    0.0512 N   0  0  0  0  0  0  0  0  0  0  0  0
    1.5567   -3.0391   -0.1001 C   0  0  0  0  0  0  0  0  0  0  0  0
    2.5140   -3.7928   -0.1616 O   0  0  0  0  0  0  0  0  0  0  0  0
    0.2300   -3.4853   -0.1614 N   0  0  0  0  0  0  0  0  0  0  0  0
   -0.6114   -2.3900   -0.0599 C   0  0  0  0  0  0  0  0  0  0  0  0
   -1.9697   -2.2662   -0.0760 C   0  0  0  0  0  0  0  0  0  0  0  0
   -2.8517   -3.4578   -0.2126 C   0  0  0  0  0  0  0  0  0  0  0  0
   -4.1954   -3.1985   -0.2159 N   0  0  0  0  0  0  0  0  0  0  0  0
   -2.4082   -4.5946   -0.3156 O   0  0  0  0  0  0  0  0  0  0  0  0
   -2.5808   -1.0623    0.0255 N   0  0  0  0  0  0  0  0  0  0  0  0
   -1.7621    0.0050    0.1385 C   0  0  0  0  0  0  0  0  0  0  0  0
   -2.3778    1.3194    0.2413 C   0  0  0  0  0  0  0  0  0  0  0  0
   -1.8754    2.6031    0.3455 C   0  0  0  0  0  0  0  0  0  0  0  0
   -2.9888    3.4753    0.4116 C   0  0  0  0  0  0  0  0  0  0  0  0
   -4.1088    2.6764    0.3441 C   0  0  0  0  0  0  0  0  0  0  0  0
   -5.5586    2.9524    0.3612 C   0  0  0  0  0  0  0  0  0  0  0  0
   -3.7467    1.3673    0.2406 O   0  0  0  0  0  0  0  0  0  0  0  0
   -0.4126   -0.0237    0.1642 N   0  0  0  0  0  0  0  0  0  0  0  0
    0.1336   -1.2404    0.0696 C   0  0  0  0  0  0  0  0  0  0  0  0
    3.9141   -1.1850   -0.0654 C   0  0  0  0  0  0  0  0  0  0  0  0
    5.0238   -0.3322    0.0243 C   0  0  0  0  0  0  0  0  0  0  0  0
    6.4162    1.9089    1.4900 H   0  0  0  0  0  0  0  0  0  0  0  0
    5.7822    2.9525    0.1938 H   0  0  0  0  0  0  0  0  0  0  0  0
    6.8521    1.6107   -0.2108 H   0  0  0  0  0  0  0  0  0  0  0  0
    3.4085    2.5315    0.8368 H   0  0  0  0  0  0  0  0  0  0  0  0
    1.4991    1.0726    0.6974 H   0  0  0  0  0  0  0  0  0  0  0  0
   -0.0600   -4.4506   -0.2675 H   0  0  0  0  0  0  0  0  0  0  0  0
   -4.8525   -3.9602   -0.3072 H   0  0  0  0  0  0  0  0  0  0  0  0
   -4.5328   -2.2448   -0.1311 H   0  0  0  0  0  0  0  0  0  0  0  0
   -0.8275    2.8689    0.3687 H   0  0  0  0  0  0  0  0  0  0  0  0
   -2.9769    4.5531    0.4972 H   0  0  0  0  0  0  0  0  0  0  0  0
   -5.7532    4.0260    0.4465 H   0  0  0  0  0  0  0  0  0  0  0  0
   -6.0275    2.5930   -0.5600 H   0  0  0  0  0  0  0  0  0  0  0  0
   -6.0337    2.4511    1.2100 H   0  0  0  0  0  0  0  0  0  0  0  0
    4.1203   -2.2196   -0.3236 H   0  0  0  0  0  0  0  0  0  0  0  0
    6.0170   -0.7408   -0.1505 H   0  0  0  0  0  0  0  0  0  0  0  0
  1  2  1  0
  2  3  2  0
  3  4  1  0
  4  5  2  0
  5  6  1  0
  6  7  1  0
  7  8  2  0
  7  9  1  0
  9 10  1  0
 10 11  2  0
 11 12  1  0
 12 13  1  0
 12 14  2  0
 11 15  1  0
 15 16  2  0
 16 17  1  0
 17 18  2  0
 18 19  1  0
 19 20  2  0
 20 21  1  0
 20 22  1  0
 16 23  1  0
 23 24  2  0
  5 25  1  0
 25 26  2  0
 26  2  1  0
 24  6  1  0
 24 10  1  0
 22 17  1  0
  1 27  1  0
  1 28  1  0
  1 29  1  0
  3 30  1  0
  4 31  1  0
  9 32  1  0
 13 33  1  0
 13 34  1  0
 18 35  1  0
 19 36  1  0
 21 37  1  0
 21 38  1  0
 21 39  1  0
 25 40  1  0
 26 41  1  0
M  END
$$$$
