
     RDKit          3D

 50 52  0  0  0  0  0  0  0  0999 V2000
    5.3476   -1.0709    4.7858 C   0  0  0  0  0  0  0  0  0  0  0  0
    6.1690   -1.8660    3.8825 N   0  0  0  0  0  0  0  0  0  0  0  0
    6.9247   -1.1772    2.5649 S   0  0  0  0  0  6  0  0  0  0  0  0
    7.5535   -2.2565    1.8423 O   0  0  0  0  0  0  0  0  0  0  0  0
    7.6709   -0.0262    3.0168 O   0  0  0  0  0  0  0  0  0  0  0  0
    5.5530   -0.5937    1.5971 C   0  0  0  0  0  0  0  0  0  0  0  0
    5.1780    0.7512    1.6722 C   0  0  0  0  0  0  0  0  0  0  0  0
    4.1133    1.2204    0.8976 C   0  0  0  0  0  0  0  0  0  0  0  0
    3.4257    0.3452    0.0463 C   0  0  0  0  0  0  0  0  0  0  0  0
    2.2957    0.8003   -0.8142 C   0  0  0  0  0  0  0  0  0  0  0  0
    1.9397    0.1364   -1.7843 O   0  0  0  0  0  0  0  0  0  0  0  0
    1.6469    1.9575   -0.4369 N   0  0  0  0  0  0  0  0  0  0  0  0
    0.4995    2.4261   -1.1928 C   0  0  0  0  0  0  0  0  0  0  0  0
   -0.7397    1.6331   -0.7807 C   0  0  0  0  0  0  0  0  0  0  0  0
   -1.4223    1.9396    0.1895 O   0  0  0  0  0  0  0  0  0  0  0  0
   -0.9537    0.5027   -1.5430 N   0  0  0  0  0  0  0  0  0  0  0  0
   -1.9790   -0.4626   -1.1892 C   0  0  0  0  0  0  0  0  0  0  0  0
   -3.4224    0.0499   -1.2796 C   0  0  0  0  0  0  0  0  0  0  0  0
   -3.7622    0.5520   -2.6828 C   0  0  0  0  0  0  0  0  0  0  0  0
   -5.0885    1.0877   -2.7233 O   0  0  0  0  0  0  0  0  0  0  0  0
   -5.9828    0.2644   -2.0899 C   0  0  0  0  0  0  0  0  0  0  0  0
   -7.3380    0.5081   -2.3283 C   0  0  0  0  0  0  0  0  0  0  0  0
   -8.3049   -0.3074   -1.7366 C   0  0  0  0  0  0  0  0  0  0  0  0
   -7.9166   -1.3621   -0.9061 C   0  0  0  0  0  0  0  0  0  0  0  0
   -6.5609   -1.5976   -0.6594 C   0  0  0  0  0  0  0  0  0  0  0  0
   -5.5958   -0.7759   -1.2392 C   0  0  0  0  0  0  0  0  0  0  0  0
   -4.2871   -1.0531   -0.9389 O   0  0  0  0  0  0  0  0  0  0  0  0
    3.8296   -0.9963   -0.0407 C   0  0  0  0  0  0  0  0  0  0  0  0
    4.8944   -1.4691    0.7318 C   0  0  0  0  0  0  0  0  0  0  0  0
    4.2898   -1.1689    4.5128 H   0  0  0  0  0  0  0  0  0  0  0  0
    5.4806   -1.4377    5.8134 H   0  0  0  0  0  0  0  0  0  0  0  0
    5.6223   -0.0146    4.7734 H   0  0  0  0  0  0  0  0  0  0  0  0
    6.1012   -2.8820    3.8801 H   0  0  0  0  0  0  0  0  0  0  0  0
    5.7170    1.4410    2.3189 H   0  0  0  0  0  0  0  0  0  0  0  0
    3.8599    2.2759    0.9509 H   0  0  0  0  0  0  0  0  0  0  0  0
    1.7245    2.2816    0.5180 H   0  0  0  0  0  0  0  0  0  0  0  0
    0.3407    3.4870   -0.9657 H   0  0  0  0  0  0  0  0  0  0  0  0
    0.6842    2.3211   -2.2702 H   0  0  0  0  0  0  0  0  0  0  0  0
   -0.1081    0.1374   -1.9816 H   0  0  0  0  0  0  0  0  0  0  0  0
   -1.8478   -1.3275   -1.8490 H   0  0  0  0  0  0  0  0  0  0  0  0
   -1.7756   -0.8168   -0.1699 H   0  0  0  0  0  0  0  0  0  0  0  0
   -3.5916    0.8451   -0.5418 H   0  0  0  0  0  0  0  0  0  0  0  0
   -3.6945   -0.2498   -3.4274 H   0  0  0  0  0  0  0  0  0  0  0  0
   -3.0881    1.3587   -2.9906 H   0  0  0  0  0  0  0  0  0  0  0  0
   -7.6377    1.3260   -2.9767 H   0  0  0  0  0  0  0  0  0  0  0  0
   -9.3609   -0.1228   -1.9254 H   0  0  0  0  0  0  0  0  0  0  0  0
   -8.6705   -1.9968   -0.4477 H   0  0  0  0  0  0  0  0  0  0  0  0
   -6.2580   -2.4105   -0.0071 H   0  0  0  0  0  0  0  0  0  0  0  0
    3.3192   -1.6770   -0.7194 H   0  0  0  0  0  0  0  0  0  0  0  0
    5.2056   -2.5074    0.6444 H   0  0  0  0  0  0  0  0  0  0  0  0
  1  2  1  0
  2  3  1  0
  3  4  2  0
  3  5  2  0
  3  6  1  0
  6  7  2  0
  7  8  1  0
  8  9  2  0
  9 10  1  0
 10 11  2  0
 10 12  1  0
 12 13  1  0
 13 14  1  0
 14 15  2  0
 14 16  1  0
 16 17  1  0
 17 18  1  0
 18 19  1  0
 19 20  1  0
 20 21  1  0
 21 22  2  0
 22 23  1  0
 23 24  2  0
 24 25  1  0
 25 26  2  0
 26 27  1  0
  9 28  1  0
 28 29  2  0
 29  6  1  0
 27 18  1  0
 26 21  1  0
  1 30  1  0
  1 31  1  0
  1 32  1  0
  2 33  1  0
  7 34  1  0
  8 35  1  0
 12 36  1  0
 13 37  1  0
 13 38  1  0
 16 39  1  0
 17 40  1  0
 17 41  1  0
 18 42  1  0
 19 43  1  0
 19 44  1  0
 22 45  1  0
 23 46  1  0
 24 47  1  0
 25 48  1  0
 28 49  1  0
 29 50  1  0
M  END
$$$$
