
     RDKit          3D

 36 37  0  0  0  0  0  0  0  0999 V2000
   -3.8341   -0.9034    1.7266 C   0  0  0  0  0  0  0  0  0  0  0  0
   -3.6115   -0.8265    0.2177 C   0  0  0  0  0  0  0  0  0  0  0  0
   -2.2950   -0.3281   -0.2242 N   0  0  0  0  0  0  0  0  0  0  0  0
   -2.0843    1.0818    0.1907 C   0  0  0  0  0  0  0  0  0  0  0  0
   -1.4152    1.9115   -0.9160 C   0  0  0  0  0  0  0  0  0  0  0  0
   -2.1127    1.7154   -2.1456 O   0  0  0  0  0  0  0  0  0  0  0  0
   -1.2164   -1.2235    0.2367 C   0  0  0  0  0  0  0  0  0  0  0  0
    0.0247   -1.0455   -0.5922 C   0  0  0  0  0  0  0  0  0  0  0  0
    0.1001   -1.3697   -1.9346 C   0  0  0  0  0  0  0  0  0  0  0  0
    1.6329   -1.0746   -2.6068 S   0  0  0  0  0  0  0  0  0  0  0  0
    2.2626   -0.5133   -1.1084 C   0  0  0  0  0  0  0  0  0  0  0  0
    3.5760   -0.0590   -0.8667 C   0  0  0  0  0  0  0  0  0  0  0  0
    3.9380    0.3582    0.4207 C   0  0  0  0  0  0  0  0  0  0  0  0
    5.3229    0.8745    0.6820 C   0  0  0  0  0  0  0  0  0  0  0  0
    2.9876    0.3433    1.4372 C   0  0  0  0  0  0  0  0  0  0  0  0
    1.6852   -0.1073    1.1922 C   0  0  0  0  0  0  0  0  0  0  0  0
    1.2968   -0.5503   -0.0984 C   0  0  0  0  0  0  0  0  0  0  0  0
   -3.7126    0.0723    2.2066 H   0  0  0  0  0  0  0  0  0  0  0  0
   -3.1474   -1.6107    2.2015 H   0  0  0  0  0  0  0  0  0  0  0  0
   -4.8532   -1.2480    1.9320 H   0  0  0  0  0  0  0  0  0  0  0  0
   -4.3939   -0.1965   -0.2247 H   0  0  0  0  0  0  0  0  0  0  0  0
   -3.7760   -1.8221   -0.2139 H   0  0  0  0  0  0  0  0  0  0  0  0
   -1.5297    1.1648    1.1327 H   0  0  0  0  0  0  0  0  0  0  0  0
   -3.0601    1.5558    0.3624 H   0  0  0  0  0  0  0  0  0  0  0  0
   -0.3677    1.6448   -1.0660 H   0  0  0  0  0  0  0  0  0  0  0  0
   -1.4565    2.9766   -0.6682 H   0  0  0  0  0  0  0  0  0  0  0  0
   -2.2878    0.7528   -2.1668 H   0  0  0  0  0  0  0  0  0  0  0  0
   -1.0107   -1.0900    1.3044 H   0  0  0  0  0  0  0  0  0  0  0  0
   -1.5236   -2.2715    0.1129 H   0  0  0  0  0  0  0  0  0  0  0  0
   -0.6929   -1.7618   -2.5570 H   0  0  0  0  0  0  0  0  0  0  0  0
    4.2983   -0.0368   -1.6789 H   0  0  0  0  0  0  0  0  0  0  0  0
    5.6224    0.6835    1.7179 H   0  0  0  0  0  0  0  0  0  0  0  0
    5.3616    1.9521    0.4953 H   0  0  0  0  0  0  0  0  0  0  0  0
    6.0537    0.3763    0.0363 H   0  0  0  0  0  0  0  0  0  0  0  0
    3.2488    0.6828    2.4375 H   0  0  0  0  0  0  0  0  0  0  0  0
    0.9700   -0.1078    2.0103 H   0  0  0  0  0  0  0  0  0  0  0  0
  1  2  1  0
  2  3  1  0
  3  4  1  0
  4  5  1  0
  5  6  1  0
  3  7  1  0
  7  8  1  0
  8  9  2  0
  9 10  1  0
 10 11  1  0
 11 12  2  0
 12 13  1  0
 13 14  1  0
 13 15  2  0
 15 16  1  0
 16 17  2  0
 17  8  1  0
 17 11  1  0
  1 18  1  0
  1 19  1  0
  1 20  1  0
  2 21  1  0
  2 22  1  0
  4 23  1  0
  4 24  1  0
  5 25  1  0
  5 26  1  0
  6 27  1  0
  7 28  1  0
  7 29  1  0
  9 30  1  0
 12 31  1  0
 14 32  1  0
 14 33  1  0
 14 34  1  0
 15 35  1  0
 16 36  1  0
M  END
$$$$
