
     RDKit          3D

 39 41  0  0  0  0  0  0  0  0999 V2000
   -4.9275   -2.2818    0.2439 C   0  0  0  0  0  0  0  0  0  0  0  0
   -4.4180   -1.5662   -0.9948 C   0  0  0  0  0  0  0  0  0  0  0  0
   -3.2290   -0.7739   -0.7228 N   0  0  0  0  0  0  0  0  0  0  0  0
   -1.9467   -1.2175   -0.9246 C   0  0  0  0  0  0  0  0  0  0  0  0
   -1.0833   -0.2088   -0.5576 C   0  0  0  0  0  0  0  0  0  0  0  0
    0.3360   -0.3539   -0.6290 C   0  0  0  0  0  0  0  0  0  0  0  0
    1.2138    0.1935    0.2283 C   0  0  0  0  0  0  0  0  0  0  0  0
    2.6680    0.0224    0.1410 C   0  0  0  0  0  0  0  0  0  0  0  0
    3.2581   -1.2001   -0.1764 C   0  0  0  0  0  0  0  0  0  0  0  0
    4.6438   -1.3082   -0.2150 C   0  0  0  0  0  0  0  0  0  0  0  0
    5.4258   -0.2396    0.0556 N   0  0  0  0  0  4  0  0  0  0  0  0
    6.8913   -0.3806    0.0169 C   0  0  0  0  0  0  0  0  0  0  0  0
    4.8772    0.9497    0.3888 C   0  0  0  0  0  0  0  0  0  0  0  0
    3.4962    1.1023    0.4417 C   0  0  0  0  0  0  0  0  0  0  0  0
   -1.8740    0.9125   -0.1544 C   0  0  0  0  0  0  0  0  0  0  0  0
   -1.5910    2.2302    0.2718 C   0  0  0  0  0  0  0  0  0  0  0  0
   -2.6356    3.0991    0.6054 C   0  0  0  0  0  0  0  0  0  0  0  0
   -3.9573    2.6799    0.5154 C   0  0  0  0  0  0  0  0  0  0  0  0
   -4.2714    1.3899    0.0818 C   0  0  0  0  0  0  0  0  0  0  0  0
   -3.2167    0.5245   -0.2554 C   0  0  0  0  0  0  0  0  0  0  0  0
   -5.1996   -1.5704    1.0306 H   0  0  0  0  0  0  0  0  0  0  0  0
   -5.8135   -2.8764    0.0011 H   0  0  0  0  0  0  0  0  0  0  0  0
   -4.1656   -2.9545    0.6518 H   0  0  0  0  0  0  0  0  0  0  0  0
   -4.1628   -2.2921   -1.7752 H   0  0  0  0  0  0  0  0  0  0  0  0
   -5.1833   -0.9007   -1.4074 H   0  0  0  0  0  0  0  0  0  0  0  0
   -1.7604   -2.2172   -1.2950 H   0  0  0  0  0  0  0  0  0  0  0  0
    0.6980   -0.9821   -1.4401 H   0  0  0  0  0  0  0  0  0  0  0  0
    0.8554    0.8063    1.0530 H   0  0  0  0  0  0  0  0  0  0  0  0
    2.6492   -2.0785   -0.3821 H   0  0  0  0  0  0  0  0  0  0  0  0
    5.1354   -2.2469   -0.4550 H   0  0  0  0  0  0  0  0  0  0  0  0
    7.3358    0.5764   -0.2681 H   0  0  0  0  0  0  0  0  0  0  0  0
    7.1588   -1.1382   -0.7243 H   0  0  0  0  0  0  0  0  0  0  0  0
    7.2176   -0.6802    1.0159 H   0  0  0  0  0  0  0  0  0  0  0  0
    5.5504    1.7721    0.6143 H   0  0  0  0  0  0  0  0  0  0  0  0
    3.0736    2.0691    0.7104 H   0  0  0  0  0  0  0  0  0  0  0  0
   -0.5679    2.5847    0.3331 H   0  0  0  0  0  0  0  0  0  0  0  0
   -2.4125    4.1113    0.9333 H   0  0  0  0  0  0  0  0  0  0  0  0
   -4.7598    3.3659    0.7778 H   0  0  0  0  0  0  0  0  0  0  0  0
   -5.3085    1.0780    0.0075 H   0  0  0  0  0  0  0  0  0  0  0  0
  1  2  1  0
  2  3  1  0
  3  4  1  0
  4  5  2  0
  5  6  1  0
  6  7  2  3
  7  8  1  0
  8  9  2  0
  9 10  1  0
 10 11  2  0
 11 12  1  0
 11 13  1  0
 13 14  2  0
  5 15  1  0
 15 16  2  0
 16 17  1  0
 17 18  2  0
 18 19  1  0
 19 20  2  0
 20  3  1  0
 14  8  1  0
 20 15  1  0
  1 21  1  0
  1 22  1  0
  1 23  1  0
  2 24  1  0
  2 25  1  0
  4 26  1  0
  6 27  1  0
  7 28  1  0
  9 29  1  0
 10 30  1  0
 12 31  1  0
 12 32  1  0
 12 33  1  0
 13 34  1  0
 14 35  1  0
 16 36  1  0
 17 37  1  0
 18 38  1  0
 19 39  1  0
M  CHG  1  11   1
M  END
$$$$
