
     RDKit          3D

 67 72  0  0  0  0  0  0  0  0999 V2000
    3.9275   -2.6910   -0.8530 O   0  0  0  0  0  0  0  0  0  0  0  0
    3.5056   -1.5372   -0.9816 C   0  0  0  0  0  0  0  0  0  0  0  0
    4.4902   -0.3612   -0.9511 C   0  0  0  0  0  0  0  0  0  0  0  0
    4.9572   -0.0139    0.4730 C   0  0  0  0  0  0  0  0  0  0  0  0
    3.8959    0.3075    1.4990 C   0  0  0  0  0  0  0  0  0  0  0  0
    3.4697    1.6274    1.6997 C   0  0  0  0  0  0  0  0  0  0  0  0
    2.5104    1.9231    2.6701 C   0  0  0  0  0  0  0  0  0  0  0  0
    1.9724    0.9048    3.4548 C   0  0  0  0  0  0  0  0  0  0  0  0
    2.3875   -0.4124    3.2635 C   0  0  0  0  0  0  0  0  0  0  0  0
    3.3415   -0.7108    2.2888 C   0  0  0  0  0  0  0  0  0  0  0  0
    4.0164    0.7913   -1.7116 N   0  0  0  0  0  0  0  0  0  0  0  0
    2.6778    1.1169   -1.5471 C   0  0  0  0  0  0  0  0  0  0  0  0
    2.3994    2.4112   -1.7630 N   0  0  0  0  0  0  0  0  0  0  0  0
    1.1144    2.7479   -1.6769 C   0  0  0  0  0  0  0  0  0  0  0  0
    0.1077    1.9318   -1.3551 N   0  0  0  0  0  0  0  0  0  0  0  0
    0.4113    0.6364   -1.1067 C   0  0  0  0  0  0  0  0  0  0  0  0
   -0.6337   -0.1652   -0.5809 N   0  0  0  0  0  0  0  0  0  0  0  0
   -1.9496    0.1412   -1.2035 C   0  0  0  0  0  0  0  0  0  0  0  0
   -2.8183    1.0953   -0.3552 C   0  0  0  0  0  0  0  0  0  0  0  0
   -3.0825    0.5184    0.9815 N   0  0  0  0  0  0  0  0  0  0  0  0
   -4.0399    1.0637    1.8266 C   0  0  0  0  0  0  0  0  0  0  0  0
   -4.6690    2.2903    1.5576 C   0  0  0  0  0  0  0  0  0  0  0  0
   -5.6260    2.8387    2.4215 C   0  0  0  0  0  0  0  0  0  0  0  0
   -5.9909    2.1635    3.5795 C   0  0  0  0  0  0  0  0  0  0  0  0
   -5.4069    0.9358    3.8630 C   0  0  0  0  0  0  0  0  0  0  0  0
   -4.4539    0.3955    2.9922 C   0  0  0  0  0  0  0  0  0  0  0  0
   -2.0063   -0.3352    1.5310 C   0  0  0  0  0  0  0  0  0  0  0  0
   -0.6334   -0.0068    0.9006 C   0  0  0  0  0  0  0  0  0  0  0  0
    1.7204    0.1452   -1.2356 C   0  0  0  0  0  0  0  0  0  0  0  0
    2.1469   -1.2275   -1.0939 N   0  0  0  0  0  0  0  0  0  0  0  0
    1.2016   -2.3391   -1.1742 C   0  0  0  0  0  0  0  0  0  0  0  0
    0.4582   -2.4814   -2.4912 C   0  0  0  0  0  0  0  0  0  0  0  0
    1.0118   -2.0805   -3.7190 C   0  0  0  0  0  0  0  0  0  0  0  0
    0.2982   -2.2444   -4.9099 C   0  0  0  0  0  0  0  0  0  0  0  0
   -0.9660   -2.8301   -4.8851 C   0  0  0  0  0  0  0  0  0  0  0  0
   -1.8450   -3.0301   -6.3524 Cl  0  0  0  0  0  0  0  0  0  0  0  0
   -1.5206   -3.2584   -3.6820 C   0  0  0  0  0  0  0  0  0  0  0  0
   -0.8089   -3.0899   -2.4924 C   0  0  0  0  0  0  0  0  0  0  0  0
    5.3772   -0.7117   -1.4938 H   0  0  0  0  0  0  0  0  0  0  0  0
    5.5467   -0.8568    0.8606 H   0  0  0  0  0  0  0  0  0  0  0  0
    5.6622    0.8278    0.4274 H   0  0  0  0  0  0  0  0  0  0  0  0
    3.8864    2.4392    1.1050 H   0  0  0  0  0  0  0  0  0  0  0  0
    2.1964    2.9547    2.8226 H   0  0  0  0  0  0  0  0  0  0  0  0
    1.2357    1.1409    4.2187 H   0  0  0  0  0  0  0  0  0  0  0  0
    1.9771   -1.2073    3.8820 H   0  0  0  0  0  0  0  0  0  0  0  0
    3.6640   -1.7427    2.1631 H   0  0  0  0  0  0  0  0  0  0  0  0
    4.5841    1.6299   -1.7247 H   0  0  0  0  0  0  0  0  0  0  0  0
    0.8630    3.7826   -1.8764 H   0  0  0  0  0  0  0  0  0  0  0  0
   -1.8422    0.5225   -2.2263 H   0  0  0  0  0  0  0  0  0  0  0  0
   -2.4861   -0.8109   -1.2966 H   0  0  0  0  0  0  0  0  0  0  0  0
   -3.7641    1.2475   -0.8894 H   0  0  0  0  0  0  0  0  0  0  0  0
   -2.3244    2.0677   -0.2456 H   0  0  0  0  0  0  0  0  0  0  0  0
   -4.4115    2.8647    0.6726 H   0  0  0  0  0  0  0  0  0  0  0  0
   -6.0802    3.7965    2.1834 H   0  0  0  0  0  0  0  0  0  0  0  0
   -6.7268    2.5896    4.2547 H   0  0  0  0  0  0  0  0  0  0  0  0
   -5.6952    0.3883    4.7558 H   0  0  0  0  0  0  0  0  0  0  0  0
   -4.0481   -0.5818    3.2363 H   0  0  0  0  0  0  0  0  0  0  0  0
   -2.2633   -1.3842    1.3396 H   0  0  0  0  0  0  0  0  0  0  0  0
   -1.8973   -0.2082    2.6151 H   0  0  0  0  0  0  0  0  0  0  0  0
   -0.3668    1.0197    1.1933 H   0  0  0  0  0  0  0  0  0  0  0  0
    0.1182   -0.6785    1.3299 H   0  0  0  0  0  0  0  0  0  0  0  0
    0.5178   -2.2843   -0.3248 H   0  0  0  0  0  0  0  0  0  0  0  0
    1.7305   -3.2886   -1.0344 H   0  0  0  0  0  0  0  0  0  0  0  0
    2.0010   -1.6292   -3.7622 H   0  0  0  0  0  0  0  0  0  0  0  0
    0.7342   -1.9134   -5.8503 H   0  0  0  0  0  0  0  0  0  0  0  0
   -2.5055   -3.7181   -3.6597 H   0  0  0  0  0  0  0  0  0  0  0  0
   -1.2543   -3.4267   -1.5569 H   0  0  0  0  0  0  0  0  0  0  0  0
  1  2  2  0
  2  3  1  0
  3  4  1  0
  4  5  1  0
  5  6  2  0
  6  7  1  0
  7  8  2  0
  8  9  1  0
  9 10  2  0
  3 11  1  0
 11 12  1  0
 12 13  2  0
 13 14  1  0
 14 15  2  0
 15 16  1  0
 16 17  1  0
 17 18  1  0
 18 19  1  0
 19 20  1  0
 20 21  1  0
 21 22  2  0
 22 23  1  0
 23 24  2  0
 24 25  1  0
 25 26  2  0
 20 27  1  0
 27 28  1  0
 16 29  2  0
 29 30  1  0
 30 31  1  0
 31 32  1  0
 32 33  2  0
 33 34  1  0
 34 35  2  0
 35 36  1  0
 35 37  1  0
 37 38  2  0
 30  2  1  0
 38 32  1  0
 10  5  1  0
 29 12  1  0
 28 17  1  0
 26 21  1  0
  3 39  1  0
  4 40  1  0
  4 41  1  0
  6 42  1  0
  7 43  1  0
  8 44  1  0
  9 45  1  0
 10 46  1  0
 11 47  1  0
 14 48  1  0
 18 49  1  0
 18 50  1  0
 19 51  1  0
 19 52  1  0
 22 53  1  0
 23 54  1  0
 24 55  1  0
 25 56  1  0
 26 57  1  0
 27 58  1  0
 27 59  1  0
 28 60  1  0
 28 61  1  0
 31 62  1  0
 31 63  1  0
 33 64  1  0
 34 65  1  0
 37 66  1  0
 38 67  1  0
M  END
$$$$
