
     RDKit          3D

 50 53  0  0  0  0  0  0  0  0999 V2000
   -4.6483   -4.3803   -0.4748 C   0  0  0  0  0  0  0  0  0  0  0  0
   -3.8442   -3.1557   -0.8729 C   0  0  0  0  0  0  0  0  0  0  0  0
   -3.6579   -2.3540    0.2924 O   0  0  0  0  0  0  0  0  0  0  0  0
   -2.9631   -1.1866    0.1420 C   0  0  0  0  0  0  0  0  0  0  0  0
   -2.8340   -0.4319    1.3103 C   0  0  0  0  0  0  0  0  0  0  0  0
   -2.1451    0.7830    1.3036 C   0  0  0  0  0  0  0  0  0  0  0  0
   -1.5780    1.2583    0.1170 C   0  0  0  0  0  0  0  0  0  0  0  0
   -0.8155    2.4999    0.1104 C   0  0  0  0  0  0  0  0  0  0  0  0
    0.5606    2.7205    0.0965 C   0  0  0  0  0  0  0  0  0  0  0  0
    1.6944    1.7859    0.0961 C   0  0  0  0  0  0  0  0  0  0  0  0
    2.8244    2.1755   -0.1916 O   0  0  0  0  0  0  0  0  0  0  0  0
    1.3945    0.4725    0.4613 N   0  0  0  0  0  0  0  0  0  0  0  0
    2.3095   -0.5356    0.6559 N   0  0  0  0  0  0  0  0  0  0  0  0
    3.3481   -0.5813   -0.1181 C   0  0  0  0  0  0  0  0  0  0  0  0
    4.3978   -1.6071    0.0564 C   0  0  0  0  0  0  0  0  0  0  0  0
    4.3031   -2.5708    1.0669 C   0  0  0  0  0  0  0  0  0  0  0  0
    5.3067   -3.5318    1.2096 C   0  0  0  0  0  0  0  0  0  0  0  0
    6.3944   -3.5183    0.3406 C   0  0  0  0  0  0  0  0  0  0  0  0
    7.3961   -4.4370    0.4436 O   0  0  0  0  0  0  0  0  0  0  0  0
    6.4959   -2.5623   -0.6654 C   0  0  0  0  0  0  0  0  0  0  0  0
    5.4949   -1.6003   -0.8106 C   0  0  0  0  0  0  0  0  0  0  0  0
    0.7891    4.0728    0.0546 N   0  0  0  0  0  0  0  0  0  0  0  0
   -0.3703    4.7012    0.0498 N   0  0  0  0  0  0  0  0  0  0  0  0
   -1.3753    3.7840    0.0485 N   0  0  0  0  0  0  0  0  0  0  0  0
   -2.7350    4.1861   -0.0074 C   0  0  0  0  0  0  0  0  0  0  0  0
   -3.7252    3.2935    0.0117 N   0  0  0  0  0  0  0  0  0  0  0  0
   -4.8828    4.0669   -0.0442 O   0  0  0  0  0  0  0  0  0  0  0  0
   -4.5813    5.4234   -0.0961 N   0  0  0  0  0  0  0  0  0  0  0  0
   -3.2509    5.4941   -0.0833 C   0  0  0  0  0  0  0  0  0  0  0  0
   -2.5515    6.6421   -0.1373 N   0  0  0  0  0  0  0  0  0  0  0  0
   -1.7030    0.5022   -1.0534 C   0  0  0  0  0  0  0  0  0  0  0  0
   -2.3944   -0.7147   -1.0408 C   0  0  0  0  0  0  0  0  0  0  0  0
   -4.8192   -5.0316   -1.3366 H   0  0  0  0  0  0  0  0  0  0  0  0
   -5.6165   -4.0863   -0.0561 H   0  0  0  0  0  0  0  0  0  0  0  0
   -4.1252   -4.9496    0.3007 H   0  0  0  0  0  0  0  0  0  0  0  0
   -4.3981   -2.5962   -1.6356 H   0  0  0  0  0  0  0  0  0  0  0  0
   -2.8752   -3.4781   -1.2711 H   0  0  0  0  0  0  0  0  0  0  0  0
   -3.2791   -0.7942    2.2345 H   0  0  0  0  0  0  0  0  0  0  0  0
   -2.0651    1.3477    2.2298 H   0  0  0  0  0  0  0  0  0  0  0  0
    0.5225    0.3002    0.9485 H   0  0  0  0  0  0  0  0  0  0  0  0
    3.4945    0.1117   -0.9640 H   0  0  0  0  0  0  0  0  0  0  0  0
    3.4523   -2.5768    1.7440 H   0  0  0  0  0  0  0  0  0  0  0  0
    5.2222   -4.2740    1.9971 H   0  0  0  0  0  0  0  0  0  0  0  0
    7.2036   -5.0254    1.1922 H   0  0  0  0  0  0  0  0  0  0  0  0
    7.3537   -2.5657   -1.3324 H   0  0  0  0  0  0  0  0  0  0  0  0
    5.5833   -0.8533   -1.5951 H   0  0  0  0  0  0  0  0  0  0  0  0
   -3.0286    7.5293   -0.0191 H   0  0  0  0  0  0  0  0  0  0  0  0
   -1.5460    6.6685    0.0262 H   0  0  0  0  0  0  0  0  0  0  0  0
   -1.2648    0.8479   -1.9878 H   0  0  0  0  0  0  0  0  0  0  0  0
   -2.4684   -1.2682   -1.9713 H   0  0  0  0  0  0  0  0  0  0  0  0
  1  2  1  0
  2  3  1  0
  3  4  1  0
  4  5  2  0
  5  6  1  0
  6  7  2  0
  7  8  1  0
  8  9  2  0
  9 10  1  0
 10 11  2  0
 10 12  1  0
 12 13  1  0
 13 14  2  3
 14 15  1  0
 15 16  2  0
 16 17  1  0
 17 18  2  0
 18 19  1  0
 18 20  1  0
 20 21  2  0
  9 22  1  0
 22 23  2  0
 23 24  1  0
 24 25  1  0
 25 26  2  0
 26 27  1  0
 27 28  1  0
 28 29  2  0
 29 30  1  0
  7 31  1  0
 31 32  2  0
 32  4  1  0
 24  8  1  0
 29 25  1  0
 21 15  1  0
  1 33  1  0
  1 34  1  0
  1 35  1  0
  2 36  1  0
  2 37  1  0
  5 38  1  0
  6 39  1  0
 12 40  1  0
 14 41  1  0
 16 42  1  0
 17 43  1  0
 19 44  1  0
 20 45  1  0
 21 46  1  0
 30 47  1  0
 30 48  1  0
 31 49  1  0
 32 50  1  0
M  END
$$$$
