
     RDKit          3D

 60 63  0  0  0  0  0  0  0  0999 V2000
   -3.9062    5.9627    2.5791 C   0  0  0  0  0  0  0  0  0  0  0  0
   -3.0336    5.0185    2.2056 C   0  0  0  0  0  0  0  0  0  0  0  0
   -2.6774    3.8181    3.0367 C   0  0  0  0  0  0  0  0  0  0  0  0
   -3.2790    2.6329    2.4416 N   0  0  0  0  0  0  0  0  0  0  0  0
   -4.5285    2.2087    2.8782 C   0  0  0  0  0  0  0  0  0  0  0  0
   -5.1527    2.7552    3.7868 O   0  0  0  0  0  0  0  0  0  0  0  0
   -5.1434    1.0313    2.1969 C   0  0  0  0  0  0  0  0  0  0  0  0
   -6.4300    0.6311    2.5864 C   0  0  0  0  0  0  0  0  0  0  0  0
   -7.0513   -0.4461    1.9586 C   0  0  0  0  0  0  0  0  0  0  0  0
   -6.3934   -1.1215    0.9369 C   0  0  0  0  0  0  0  0  0  0  0  0
   -5.1088   -0.7330    0.5415 C   0  0  0  0  0  0  0  0  0  0  0  0
   -4.4717    0.3376    1.1780 C   0  0  0  0  0  0  0  0  0  0  0  0
   -3.1789    0.7986    0.8457 N   0  0  0  0  0  0  0  0  0  0  0  0
   -2.1857    0.3743   -0.0157 C   0  0  0  0  0  0  0  0  0  0  0  0
   -2.1434   -1.0765   -0.9579 S   0  0  0  0  0  0  0  0  0  0  0  0
   -1.5404   -2.2534    0.2856 C   0  0  0  0  0  0  0  0  0  0  0  0
   -0.1610   -1.8939    0.8143 C   0  0  0  0  0  0  0  0  0  0  0  0
   -0.0020   -1.7239    2.0214 O   0  0  0  0  0  0  0  0  0  0  0  0
    0.7996   -1.8722   -0.1805 N   0  0  0  0  0  0  0  0  0  0  0  0
    2.1617   -1.6339   -0.0515 C   0  0  0  0  0  0  0  0  0  0  0  0
    2.8657   -1.3890    1.4634 S   0  0  0  0  0  0  0  0  0  0  0  0
    4.4210   -1.1855    0.8021 C   0  0  0  0  0  0  0  0  0  0  0  0
    5.5710   -0.9110    1.7198 C   0  0  0  0  0  0  0  0  0  0  0  0
    4.4293   -1.3145   -0.5813 C   0  0  0  0  0  0  0  0  0  0  0  0
    5.6903   -1.1926   -1.4022 C   0  0  0  0  0  0  0  0  0  0  0  0
    5.9021    0.2139   -1.9404 C   0  0  0  0  0  0  0  0  0  0  0  0
    3.0839   -1.5757   -1.0925 C   0  0  0  0  0  0  0  0  0  0  0  0
    2.6493   -1.7717   -2.4853 C   0  0  0  0  0  0  0  0  0  0  0  0
    1.4938   -2.0676   -2.7706 O   0  0  0  0  0  0  0  0  0  0  0  0
    3.6424   -1.6086   -3.3976 O   0  0  0  0  0  0  0  0  0  0  0  0
    3.2990   -1.7433   -4.7831 C   0  0  0  0  0  0  0  0  0  0  0  0
    4.2528   -2.7395   -5.4129 C   0  0  0  0  0  0  0  0  0  0  0  0
   -1.1829    1.2256   -0.0085 N   0  0  0  0  0  0  0  0  0  0  0  0
   -1.4669    2.1991    0.9097 N   0  0  0  0  0  0  0  0  0  0  0  0
   -2.6381    1.9250    1.4403 C   0  0  0  0  0  0  0  0  0  0  0  0
   -4.4366    5.9022    3.5262 H   0  0  0  0  0  0  0  0  0  0  0  0
   -4.1232    6.8103    1.9349 H   0  0  0  0  0  0  0  0  0  0  0  0
   -2.5281    5.1118    1.2461 H   0  0  0  0  0  0  0  0  0  0  0  0
   -1.5884    3.7014    3.0841 H   0  0  0  0  0  0  0  0  0  0  0  0
   -3.0291    3.9342    4.0682 H   0  0  0  0  0  0  0  0  0  0  0  0
   -6.9553    1.1615    3.3784 H   0  0  0  0  0  0  0  0  0  0  0  0
   -8.0500   -0.7504    2.2618 H   0  0  0  0  0  0  0  0  0  0  0  0
   -6.8860   -1.9529    0.4359 H   0  0  0  0  0  0  0  0  0  0  0  0
   -4.6722   -1.2852   -0.2798 H   0  0  0  0  0  0  0  0  0  0  0  0
   -2.2469   -2.2995    1.1214 H   0  0  0  0  0  0  0  0  0  0  0  0
   -1.4924   -3.2531   -0.1597 H   0  0  0  0  0  0  0  0  0  0  0  0
    0.4742   -1.9678   -1.1442 H   0  0  0  0  0  0  0  0  0  0  0  0
    6.2781   -1.7462    1.6926 H   0  0  0  0  0  0  0  0  0  0  0  0
    5.2540   -0.7738    2.7595 H   0  0  0  0  0  0  0  0  0  0  0  0
    6.0954   -0.0023    1.4090 H   0  0  0  0  0  0  0  0  0  0  0  0
    6.5575   -1.4638   -0.7889 H   0  0  0  0  0  0  0  0  0  0  0  0
    5.6890   -1.9178   -2.2210 H   0  0  0  0  0  0  0  0  0  0  0  0
    5.0975    0.5081   -2.6226 H   0  0  0  0  0  0  0  0  0  0  0  0
    5.9359    0.9471   -1.1280 H   0  0  0  0  0  0  0  0  0  0  0  0
    6.8507    0.2714   -2.4851 H   0  0  0  0  0  0  0  0  0  0  0  0
    2.2641   -2.0621   -4.9407 H   0  0  0  0  0  0  0  0  0  0  0  0
    3.4264   -0.7615   -5.2497 H   0  0  0  0  0  0  0  0  0  0  0  0
    4.0749   -2.8214   -6.4877 H   0  0  0  0  0  0  0  0  0  0  0  0
    5.2951   -2.4431   -5.2480 H   0  0  0  0  0  0  0  0  0  0  0  0
    4.1289   -3.7266   -4.9572 H   0  0  0  0  0  0  0  0  0  0  0  0
  1  2  2  0
  2  3  1  0
  3  4  1  0
  4  5  1  0
  5  6  2  0
  5  7  1  0
  7  8  2  0
  8  9  1  0
  9 10  2  0
 10 11  1  0
 11 12  2  0
 12 13  1  0
 13 14  1  0
 14 15  1  0
 15 16  1  0
 16 17  1  0
 17 18  2  0
 17 19  1  0
 19 20  1  0
 20 21  1  0
 21 22  1  0
 22 23  1  0
 22 24  2  0
 24 25  1  0
 25 26  1  0
 24 27  1  0
 27 28  1  0
 28 29  2  0
 28 30  1  0
 30 31  1  0
 31 32  1  0
 14 33  2  0
 33 34  1  0
 34 35  2  0
 35  4  1  0
 12  7  1  0
 35 13  1  0
 27 20  2  0
  1 36  1  0
  1 37  1  0
  2 38  1  0
  3 39  1  0
  3 40  1  0
  8 41  1  0
  9 42  1  0
 10 43  1  0
 11 44  1  0
 16 45  1  0
 16 46  1  0
 19 47  1  0
 23 48  1  0
 23 49  1  0
 23 50  1  0
 25 51  1  0
 25 52  1  0
 26 53  1  0
 26 54  1  0
 26 55  1  0
 31 56  1  0
 31 57  1  0
 32 58  1  0
 32 59  1  0
 32 60  1  0
M  END
$$$$
