
     RDKit          3D

 39 40  0  0  0  0  0  0  0  0999 V2000
   -1.4137   -1.8248    1.8931 C   0  0  0  0  0  0  0  0  0  0  0  0
   -1.2956   -1.1226    0.5415 C   0  0  0  0  0  0  0  0  0  0  0  0
   -2.1722   -1.7859   -0.3777 O   0  0  0  0  0  0  0  0  0  0  0  0
   -3.2186   -0.9929   -0.7676 C   0  0  0  0  0  0  0  0  0  0  0  0
   -4.4581   -1.2375   -0.1683 C   0  0  0  0  0  0  0  0  0  0  0  0
   -5.5764   -0.4893   -0.5452 C   0  0  0  0  0  0  0  0  0  0  0  0
   -5.4463    0.4900   -1.5443 C   0  0  0  0  0  0  0  0  0  0  0  0
   -6.6120    1.2945   -1.9298 N   0  0  0  0  0  4  0  0  0  0  0  0
   -7.6439    1.1724   -1.2546 O   0  0  0  0  0  0  0  0  0  0  0  0
   -6.4871    2.0598   -2.8977 O   0  0  0  0  0  1  0  0  0  0  0  0
   -4.2115    0.7202   -2.1719 C   0  0  0  0  0  0  0  0  0  0  0  0
   -3.0998   -0.0313   -1.7849 C   0  0  0  0  0  0  0  0  0  0  0  0
   -1.6028    0.2633   -2.5925 Cl  0  0  0  0  0  0  0  0  0  0  0  0
    0.1736   -1.1865    0.0618 C   0  0  0  0  0  0  0  0  0  0  0  0
    0.5436   -1.9699   -0.8049 O   0  0  0  0  0  0  0  0  0  0  0  0
    0.9832   -0.2689    0.7239 N   0  0  0  0  0  0  0  0  0  0  0  0
    2.3513   -0.0107    0.4983 C   0  0  0  0  0  0  0  0  0  0  0  0
    3.1202   -0.6529   -0.4749 C   0  0  0  0  0  0  0  0  0  0  0  0
    4.4721   -0.3266   -0.6416 C   0  0  0  0  0  0  0  0  0  0  0  0
    5.0695    0.6564    0.1563 C   0  0  0  0  0  0  0  0  0  0  0  0
    6.5062    0.9722   -0.0635 C   0  0  0  0  0  0  0  0  0  0  0  0
    6.9481    2.2069    0.3324 N   0  0  0  0  0  0  0  0  0  0  0  0
    7.2616    0.1845   -0.6163 O   0  0  0  0  0  0  0  0  0  0  0  0
    4.3095    1.2942    1.1428 C   0  0  0  0  0  0  0  0  0  0  0  0
    2.9593    0.9623    1.3076 C   0  0  0  0  0  0  0  0  0  0  0  0
   -2.4333   -1.7380    2.2810 H   0  0  0  0  0  0  0  0  0  0  0  0
   -0.7267   -1.4052    2.6346 H   0  0  0  0  0  0  0  0  0  0  0  0
   -1.1990   -2.8954    1.7982 H   0  0  0  0  0  0  0  0  0  0  0  0
   -1.5619   -0.0616    0.6637 H   0  0  0  0  0  0  0  0  0  0  0  0
   -4.5511   -2.0075    0.5920 H   0  0  0  0  0  0  0  0  0  0  0  0
   -6.5331   -0.6815   -0.0575 H   0  0  0  0  0  0  0  0  0  0  0  0
   -4.1074    1.4720   -2.9545 H   0  0  0  0  0  0  0  0  0  0  0  0
    0.5486    0.2817    1.4547 H   0  0  0  0  0  0  0  0  0  0  0  0
    2.7046   -1.4178   -1.1272 H   0  0  0  0  0  0  0  0  0  0  0  0
    5.0560   -0.8435   -1.4041 H   0  0  0  0  0  0  0  0  0  0  0  0
    7.8841    2.4441    0.0274 H   0  0  0  0  0  0  0  0  0  0  0  0
    6.3065    2.9754    0.4674 H   0  0  0  0  0  0  0  0  0  0  0  0
    4.7572    2.0276    1.8085 H   0  0  0  0  0  0  0  0  0  0  0  0
    2.3952    1.4727    2.0857 H   0  0  0  0  0  0  0  0  0  0  0  0
  1  2  1  0
  2  3  1  0
  3  4  1  0
  4  5  2  0
  5  6  1  0
  6  7  2  0
  7  8  1  0
  8  9  2  0
  8 10  1  0
  7 11  1  0
 11 12  2  0
 12 13  1  0
  2 14  1  0
 14 15  2  0
 14 16  1  0
 16 17  1  0
 17 18  2  0
 18 19  1  0
 19 20  2  0
 20 21  1  0
 21 22  1  0
 21 23  2  0
 20 24  1  0
 24 25  2  0
 12  4  1  0
 25 17  1  0
  1 26  1  0
  1 27  1  0
  1 28  1  0
  2 29  1  0
  5 30  1  0
  6 31  1  0
 11 32  1  0
 16 33  1  0
 18 34  1  0
 19 35  1  0
 22 36  1  0
 22 37  1  0
 24 38  1  0
 25 39  1  0
M  CHG  2   8   1  10  -1
M  END
$$$$
