
     RDKit          3D

 42 44  0  0  0  0  0  0  0  0999 V2000
   -2.1551   -2.2453    0.5410 C   0  0  0  0  0  0  0  0  0  0  0  0
   -3.0597   -1.0952    0.1900 C   0  0  0  0  0  0  0  0  0  0  0  0
   -4.4437   -1.3282    0.1003 C   0  0  0  0  0  0  0  0  0  0  0  0
   -5.3225   -0.2909   -0.2053 C   0  0  0  0  0  0  0  0  0  0  0  0
   -4.8216    0.9848   -0.4279 C   0  0  0  0  0  0  0  0  0  0  0  0
   -5.8972    2.2713   -0.8146 Cl  0  0  0  0  0  0  0  0  0  0  0  0
   -3.4507    1.2324   -0.3506 C   0  0  0  0  0  0  0  0  0  0  0  0
   -2.5473    0.2009   -0.0425 C   0  0  0  0  0  0  0  0  0  0  0  0
   -1.1546    0.4229    0.0098 N   0  0  0  0  0  0  0  0  0  0  0  0
   -0.7326    1.6363    0.7328 C   0  0  0  0  0  0  0  0  0  0  0  0
    0.7882    1.5636    1.0055 C   0  0  0  0  0  0  0  0  0  0  0  0
    1.5939    1.1590   -0.1898 N   0  0  0  0  0  0  0  0  0  0  0  0
    2.4057    0.0386    0.0179 C   0  0  0  0  0  0  0  0  0  0  0  0
    1.9132   -1.1968    0.4724 C   0  0  0  0  0  0  0  0  0  0  0  0
    2.7632   -2.2825    0.6443 C   0  0  0  0  0  0  0  0  0  0  0  0
    4.1098   -2.1330    0.3642 C   0  0  0  0  0  0  0  0  0  0  0  0
    4.5759   -0.9025   -0.0753 C   0  0  0  0  0  0  0  0  0  0  0  0
    3.7380    0.1464   -0.2378 N   0  0  0  0  0  4  0  0  0  0  0  0
    4.2848    1.4419   -0.6788 C   0  0  0  0  0  0  0  0  0  0  0  0
    0.7983    1.0654   -1.4476 C   0  0  0  0  0  0  0  0  0  0  0  0
   -0.5255    0.2679   -1.3239 C   0  0  0  0  0  0  0  0  0  0  0  0
   -1.5002   -1.9768    1.3761 H   0  0  0  0  0  0  0  0  0  0  0  0
   -2.7278   -3.1253    0.8532 H   0  0  0  0  0  0  0  0  0  0  0  0
   -1.5494   -2.5311   -0.3239 H   0  0  0  0  0  0  0  0  0  0  0  0
   -4.8478   -2.3237    0.2757 H   0  0  0  0  0  0  0  0  0  0  0  0
   -6.3901   -0.4857   -0.2672 H   0  0  0  0  0  0  0  0  0  0  0  0
   -3.0952    2.2376   -0.5535 H   0  0  0  0  0  0  0  0  0  0  0  0
   -0.9516    2.5379    0.1469 H   0  0  0  0  0  0  0  0  0  0  0  0
   -1.2566    1.7232    1.6927 H   0  0  0  0  0  0  0  0  0  0  0  0
    1.1356    2.5542    1.3221 H   0  0  0  0  0  0  0  0  0  0  0  0
    0.9653    0.8940    1.8572 H   0  0  0  0  0  0  0  0  0  0  0  0
    0.8563   -1.3183    0.6985 H   0  0  0  0  0  0  0  0  0  0  0  0
    2.3727   -3.2359    0.9965 H   0  0  0  0  0  0  0  0  0  0  0  0
    4.7947   -2.9685    0.4924 H   0  0  0  0  0  0  0  0  0  0  0  0
    5.6280   -0.7480   -0.2975 H   0  0  0  0  0  0  0  0  0  0  0  0
    4.0474    2.1934    0.0791 H   0  0  0  0  0  0  0  0  0  0  0  0
    3.8405    1.6899   -1.6463 H   0  0  0  0  0  0  0  0  0  0  0  0
    5.3703    1.3729   -0.7867 H   0  0  0  0  0  0  0  0  0  0  0  0
    0.5535    2.0944   -1.7426 H   0  0  0  0  0  0  0  0  0  0  0  0
    1.4043    0.6623   -2.2694 H   0  0  0  0  0  0  0  0  0  0  0  0
   -0.3170   -0.7955   -1.4877 H   0  0  0  0  0  0  0  0  0  0  0  0
   -1.1931    0.5919   -2.1333 H   0  0  0  0  0  0  0  0  0  0  0  0
  1  2  1  0
  2  3  2  0
  3  4  1  0
  4  5  2  0
  5  6  1  0
  5  7  1  0
  7  8  2  0
  8  9  1  0
  9 10  1  0
 10 11  1  0
 11 12  1  0
 12 13  1  0
 13 14  2  0
 14 15  1  0
 15 16  2  0
 16 17  1  0
 17 18  2  0
 18 19  1  0
 12 20  1  0
 20 21  1  0
  8  2  1  0
 21  9  1  0
 18 13  1  0
  1 22  1  0
  1 23  1  0
  1 24  1  0
  3 25  1  0
  4 26  1  0
  7 27  1  0
 10 28  1  0
 10 29  1  0
 11 30  1  0
 11 31  1  0
 14 32  1  0
 15 33  1  0
 16 34  1  0
 17 35  1  0
 19 36  1  0
 19 37  1  0
 19 38  1  0
 20 39  1  0
 20 40  1  0
 21 41  1  0
 21 42  1  0
M  CHG  1  18   1
M  END
$$$$
