
     RDKit          3D

 43 45  0  0  0  0  0  0  0  0999 V2000
   -5.7225    1.7146    1.7520 C   0  0  0  0  0  0  0  0  0  0  0  0
   -6.3738    0.5951    1.0852 N   0  0  0  0  0  0  0  0  0  0  0  0
   -7.7789    0.3979    1.3959 C   0  0  0  0  0  0  0  0  0  0  0  0
   -5.8291   -0.1188    0.0193 C   0  0  0  0  0  0  0  0  0  0  0  0
   -6.4991   -0.8075   -0.7477 O   0  0  0  0  0  0  0  0  0  0  0  0
   -4.3660   -0.0725   -0.2113 C   0  0  0  0  0  0  0  0  0  0  0  0
   -3.4636   -0.3337    0.8227 C   0  0  0  0  0  0  0  0  0  0  0  0
   -2.0861   -0.3130    0.5732 C   0  0  0  0  0  0  0  0  0  0  0  0
   -1.6001   -0.0514   -0.7108 C   0  0  0  0  0  0  0  0  0  0  0  0
   -0.2307   -0.0158   -1.0498 N   0  0  0  0  0  0  0  0  0  0  0  0
    0.8621   -0.1537   -0.2025 C   0  0  0  0  0  0  0  0  0  0  0  0
    0.7761   -0.2966    1.0137 O   0  0  0  0  0  0  0  0  0  0  0  0
    2.1507   -0.1001   -0.8834 C   0  0  0  0  0  0  0  0  0  0  0  0
    2.5353   -0.0216   -2.2111 C   0  0  0  0  0  0  0  0  0  0  0  0
    3.9540   -0.0052   -2.2304 C   0  0  0  0  0  0  0  0  0  0  0  0
    4.3715   -0.0763   -0.9174 C   0  0  0  0  0  0  0  0  0  0  0  0
    5.6729   -0.1017   -0.2526 C   0  0  0  0  0  0  0  0  0  0  0  0
    6.8596   -0.0324   -0.9995 C   0  0  0  0  0  0  0  0  0  0  0  0
    8.1087   -0.0561   -0.3683 C   0  0  0  0  0  0  0  0  0  0  0  0
    8.1830   -0.1496    1.0187 C   0  0  0  0  0  0  0  0  0  0  0  0
    9.7182   -0.1784    1.7935 Cl  0  0  0  0  0  0  0  0  0  0  0  0
    7.0202   -0.2198    1.7793 C   0  0  0  0  0  0  0  0  0  0  0  0
    5.7732   -0.1958    1.1455 C   0  0  0  0  0  0  0  0  0  0  0  0
    3.2776   -0.1346   -0.1041 O   0  0  0  0  0  0  0  0  0  0  0  0
   -2.5166    0.1773   -1.7482 C   0  0  0  0  0  0  0  0  0  0  0  0
   -3.8931    0.1615   -1.5034 C   0  0  0  0  0  0  0  0  0  0  0  0
   -5.5625    1.4491    2.8007 H   0  0  0  0  0  0  0  0  0  0  0  0
   -6.3797    2.5884    1.6971 H   0  0  0  0  0  0  0  0  0  0  0  0
   -4.7719    1.9846    1.2896 H   0  0  0  0  0  0  0  0  0  0  0  0
   -7.9098    0.4064    2.4820 H   0  0  0  0  0  0  0  0  0  0  0  0
   -8.1472   -0.5547    1.0051 H   0  0  0  0  0  0  0  0  0  0  0  0
   -8.3553    1.2133    0.9489 H   0  0  0  0  0  0  0  0  0  0  0  0
   -3.8225   -0.5672    1.8220 H   0  0  0  0  0  0  0  0  0  0  0  0
   -1.4226   -0.5221    1.4068 H   0  0  0  0  0  0  0  0  0  0  0  0
   -0.0305    0.1537   -2.0240 H   0  0  0  0  0  0  0  0  0  0  0  0
    1.8885    0.0133   -3.0755 H   0  0  0  0  0  0  0  0  0  0  0  0
    4.5905    0.0485   -3.1023 H   0  0  0  0  0  0  0  0  0  0  0  0
    6.8307    0.0413   -2.0837 H   0  0  0  0  0  0  0  0  0  0  0  0
    9.0153   -0.0013   -0.9651 H   0  0  0  0  0  0  0  0  0  0  0  0
    7.0708   -0.2934    2.8623 H   0  0  0  0  0  0  0  0  0  0  0  0
    4.8752   -0.2525    1.7592 H   0  0  0  0  0  0  0  0  0  0  0  0
   -2.1773    0.3669   -2.7634 H   0  0  0  0  0  0  0  0  0  0  0  0
   -4.5951    0.3258   -2.3180 H   0  0  0  0  0  0  0  0  0  0  0  0
  1  2  1  0
  2  3  1  0
  2  4  1  0
  4  5  2  0
  4  6  1  0
  6  7  2  0
  7  8  1  0
  8  9  2  0
  9 10  1  0
 10 11  1  0
 11 12  2  0
 11 13  1  0
 13 14  2  0
 14 15  1  0
 15 16  2  0
 16 17  1  0
 17 18  2  0
 18 19  1  0
 19 20  2  0
 20 21  1  0
 20 22  1  0
 22 23  2  0
 16 24  1  0
  9 25  1  0
 25 26  2  0
 26  6  1  0
 24 13  1  0
 23 17  1  0
  1 27  1  0
  1 28  1  0
  1 29  1  0
  3 30  1  0
  3 31  1  0
  3 32  1  0
  7 33  1  0
  8 34  1  0
 10 35  1  0
 14 36  1  0
 15 37  1  0
 18 38  1  0
 19 39  1  0
 22 40  1  0
 23 41  1  0
 25 42  1  0
 26 43  1  0
M  END
$$$$
