
     RDKit          3D

 64 67  0  0  0  0  0  0  0  0999 V2000
    6.7766   -4.9027    1.3235 C   0  0  0  0  0  0  0  0  0  0  0  0
    6.4882   -3.5139    1.2696 O   0  0  0  0  0  0  0  0  0  0  0  0
    5.5437   -3.1644    0.3470 C   0  0  0  0  0  0  0  0  0  0  0  0
    5.7373   -1.9400   -0.2912 C   0  0  0  0  0  0  0  0  0  0  0  0
    4.8257   -1.4890   -1.2505 C   0  0  0  0  0  0  0  0  0  0  0  0
    3.6985   -2.2495   -1.5592 C   0  0  0  0  0  0  0  0  0  0  0  0
    2.7343   -1.8812   -2.5107 N   0  0  0  0  0  0  0  0  0  0  0  0
    2.6912   -0.7333   -3.2841 C   0  0  0  0  0  0  0  0  0  0  0  0
    3.4625    0.2229   -3.2298 O   0  0  0  0  0  0  0  0  0  0  0  0
    1.4897   -0.7219   -4.2364 C   0  0  0  0  0  0  0  0  0  0  0  0
    0.2713   -0.3234   -3.5310 N   0  0  0  0  0  0  0  0  0  0  0  0
   -0.0197    1.1025   -3.4984 C   0  0  0  0  0  0  0  0  0  0  0  0
   -0.3497   -1.2873   -2.7600 C   0  0  0  0  0  0  0  0  0  0  0  0
   -0.0108   -2.4708   -2.7836 O   0  0  0  0  0  0  0  0  0  0  0  0
   -1.4468   -0.8892   -1.8544 C   0  0  0  0  0  0  0  0  0  0  0  0
   -1.2163   -0.0775   -0.8103 C   0  0  0  0  0  0  0  0  0  0  0  0
   -2.1802    0.2865    0.1751 C   0  0  0  0  0  0  0  0  0  0  0  0
   -3.2095   -0.5054    0.6283 C   0  0  0  0  0  0  0  0  0  0  0  0
   -3.8448    0.1952    1.6273 N   0  0  0  0  0  0  0  0  0  0  0  0
   -4.9678   -0.2074    2.4027 C   0  0  0  0  0  0  0  0  0  0  0  0
   -5.4454    0.6408    3.4116 C   0  0  0  0  0  0  0  0  0  0  0  0
   -6.5457    0.2683    4.1847 C   0  0  0  0  0  0  0  0  0  0  0  0
   -7.1799   -0.9448    3.9556 C   0  0  0  0  0  0  0  0  0  0  0  0
   -6.7120   -1.7916    2.9556 C   0  0  0  0  0  0  0  0  0  0  0  0
   -5.6069   -1.4291    2.1806 C   0  0  0  0  0  0  0  0  0  0  0  0
   -3.2622    1.3995    1.8316 N   0  0  0  0  0  0  0  0  0  0  0  0
   -2.2673    1.4815    0.9378 C   0  0  0  0  0  0  0  0  0  0  0  0
   -1.4555    2.6937    0.8437 C   0  0  0  0  0  0  0  0  0  0  0  0
   -0.9527    3.3006    1.9959 C   0  0  0  0  0  0  0  0  0  0  0  0
   -0.1844    4.4640    1.9073 C   0  0  0  0  0  0  0  0  0  0  0  0
    0.0780    5.0491    0.6657 C   0  0  0  0  0  0  0  0  0  0  0  0
    0.9137    6.2887    0.5660 C   0  0  0  0  0  0  0  0  0  0  0  0
   -0.4223    4.4423   -0.4875 C   0  0  0  0  0  0  0  0  0  0  0  0
   -1.1902    3.2796   -0.3975 C   0  0  0  0  0  0  0  0  0  0  0  0
    3.4940   -3.4632   -0.8919 C   0  0  0  0  0  0  0  0  0  0  0  0
    4.4119   -3.9229    0.0573 C   0  0  0  0  0  0  0  0  0  0  0  0
    7.6817   -5.0292    1.9217 H   0  0  0  0  0  0  0  0  0  0  0  0
    6.9740   -5.3041    0.3278 H   0  0  0  0  0  0  0  0  0  0  0  0
    5.9744   -5.4584    1.8155 H   0  0  0  0  0  0  0  0  0  0  0  0
    6.6070   -1.3324   -0.0547 H   0  0  0  0  0  0  0  0  0  0  0  0
    5.0265   -0.5401   -1.7299 H   0  0  0  0  0  0  0  0  0  0  0  0
    1.9283   -2.5017   -2.6039 H   0  0  0  0  0  0  0  0  0  0  0  0
    1.6874   -0.0357   -5.0662 H   0  0  0  0  0  0  0  0  0  0  0  0
    1.3644   -1.7192   -4.6718 H   0  0  0  0  0  0  0  0  0  0  0  0
   -1.0658    1.2854   -3.2459 H   0  0  0  0  0  0  0  0  0  0  0  0
    0.1658    1.5334   -4.4842 H   0  0  0  0  0  0  0  0  0  0  0  0
    0.6312    1.5791   -2.7622 H   0  0  0  0  0  0  0  0  0  0  0  0
   -2.3958   -1.3840   -2.0206 H   0  0  0  0  0  0  0  0  0  0  0  0
   -0.2202    0.3492   -0.6848 H   0  0  0  0  0  0  0  0  0  0  0  0
   -3.5102   -1.5019    0.3481 H   0  0  0  0  0  0  0  0  0  0  0  0
   -4.9653    1.5952    3.6103 H   0  0  0  0  0  0  0  0  0  0  0  0
   -6.9069    0.9293    4.9668 H   0  0  0  0  0  0  0  0  0  0  0  0
   -8.0379   -1.2311    4.5571 H   0  0  0  0  0  0  0  0  0  0  0  0
   -7.2126   -2.7354    2.7783 H   0  0  0  0  0  0  0  0  0  0  0  0
   -5.2797   -2.1194    1.4124 H   0  0  0  0  0  0  0  0  0  0  0  0
   -1.1610    2.8730    2.9711 H   0  0  0  0  0  0  0  0  0  0  0  0
    0.1985    4.9132    2.8176 H   0  0  0  0  0  0  0  0  0  0  0  0
    0.9092    6.8440    1.5112 H   0  0  0  0  0  0  0  0  0  0  0  0
    1.9487    6.0255    0.3190 H   0  0  0  0  0  0  0  0  0  0  0  0
    0.5178    6.9593   -0.2060 H   0  0  0  0  0  0  0  0  0  0  0  0
   -0.2308    4.8777   -1.4631 H   0  0  0  0  0  0  0  0  0  0  0  0
   -1.6029    2.8520   -1.3048 H   0  0  0  0  0  0  0  0  0  0  0  0
    2.6161   -4.0696   -1.1010 H   0  0  0  0  0  0  0  0  0  0  0  0
    4.2116   -4.8606    0.5616 H   0  0  0  0  0  0  0  0  0  0  0  0
  1  2  1  0
  2  3  1  0
  3  4  2  0
  4  5  1  0
  5  6  2  0
  6  7  1  0
  7  8  1  0
  8  9  2  0
  8 10  1  0
 10 11  1  0
 11 12  1  0
 11 13  1  0
 13 14  2  0
 13 15  1  0
 15 16  2  3
 16 17  1  0
 17 18  2  0
 18 19  1  0
 19 20  1  0
 20 21  2  0
 21 22  1  0
 22 23  2  0
 23 24  1  0
 24 25  2  0
 19 26  1  0
 26 27  2  0
 27 28  1  0
 28 29  2  0
 29 30  1  0
 30 31  2  0
 31 32  1  0
 31 33  1  0
 33 34  2  0
  6 35  1  0
 35 36  2  0
 36  3  1  0
 27 17  1  0
 34 28  1  0
 25 20  1  0
  1 37  1  0
  1 38  1  0
  1 39  1  0
  4 40  1  0
  5 41  1  0
  7 42  1  0
 10 43  1  0
 10 44  1  0
 12 45  1  0
 12 46  1  0
 12 47  1  0
 15 48  1  0
 16 49  1  0
 18 50  1  0
 21 51  1  0
 22 52  1  0
 23 53  1  0
 24 54  1  0
 25 55  1  0
 29 56  1  0
 30 57  1  0
 32 58  1  0
 32 59  1  0
 32 60  1  0
 33 61  1  0
 34 62  1  0
 35 63  1  0
 36 64  1  0
M  END
$$$$
