
     RDKit          3D

 49 50  0  0  0  0  0  0  0  0999 V2000
    6.9532   -0.2203   -0.6122 C   0  0  0  0  0  0  0  0  0  0  0  0
    6.0829   -1.1079    0.2572 C   0  0  0  0  0  0  0  0  0  0  0  0
    4.7252   -1.0803   -0.2009 O   0  0  0  0  0  0  0  0  0  0  0  0
    3.9580   -0.0439    0.2502 C   0  0  0  0  0  0  0  0  0  0  0  0
    4.3817    0.8330    0.9961 O   0  0  0  0  0  0  0  0  0  0  0  0
    2.5742   -0.0931   -0.2513 C   0  0  0  0  0  0  0  0  0  0  0  0
    1.9907   -1.0006   -1.2084 C   0  0  0  0  0  0  0  0  0  0  0  0
    2.6943   -2.1164   -1.9089 C   0  0  0  0  0  0  0  0  0  0  0  0
    0.6596   -0.6403   -1.3688 C   0  0  0  0  0  0  0  0  0  0  0  0
   -0.3963   -1.2405   -2.2410 C   0  0  0  0  0  0  0  0  0  0  0  0
    0.4146    0.4564   -0.5628 N   0  0  0  0  0  0  0  0  0  0  0  0
   -0.8563    1.1962   -0.5305 C   0  0  0  0  0  0  0  0  0  0  0  0
   -1.9184    0.5596    0.3433 C   0  0  0  0  0  0  0  0  0  0  0  0
   -1.5918   -0.1067    1.5355 C   0  0  0  0  0  0  0  0  0  0  0  0
   -2.5853   -0.6690    2.3343 C   0  0  0  0  0  0  0  0  0  0  0  0
   -3.9251   -0.5840    1.9553 C   0  0  0  0  0  0  0  0  0  0  0  0
   -4.2886    0.0803    0.7800 C   0  0  0  0  0  0  0  0  0  0  0  0
   -5.5758    0.1681    0.3163 O   0  0  0  0  0  0  0  0  0  0  0  0
   -6.5727   -0.5855    0.9941 C   0  0  0  0  0  0  0  0  0  0  0  0
   -3.2811    0.6872    0.0003 C   0  0  0  0  0  0  0  0  0  0  0  0
   -3.5496    1.3674   -1.1671 O   0  0  0  0  0  0  0  0  0  0  0  0
   -4.5147    2.4090   -1.0148 C   0  0  0  0  0  0  0  0  0  0  0  0
    1.5596    0.7828    0.1394 C   0  0  0  0  0  0  0  0  0  0  0  0
    1.6246    1.9062    1.1253 C   0  0  0  0  0  0  0  0  0  0  0  0
    6.8608   -0.5021   -1.6654 H   0  0  0  0  0  0  0  0  0  0  0  0
    6.6473    0.8279   -0.5348 H   0  0  0  0  0  0  0  0  0  0  0  0
    8.0031   -0.2991   -0.3157 H   0  0  0  0  0  0  0  0  0  0  0  0
    6.4251   -2.1445    0.1773 H   0  0  0  0  0  0  0  0  0  0  0  0
    6.1516   -0.8273    1.3143 H   0  0  0  0  0  0  0  0  0  0  0  0
    3.0509   -2.8557   -1.1846 H   0  0  0  0  0  0  0  0  0  0  0  0
    3.5493   -1.7324   -2.4759 H   0  0  0  0  0  0  0  0  0  0  0  0
    2.0453   -2.6408   -2.6148 H   0  0  0  0  0  0  0  0  0  0  0  0
   -0.5846   -0.5948   -3.1052 H   0  0  0  0  0  0  0  0  0  0  0  0
   -1.3336   -1.3799   -1.6946 H   0  0  0  0  0  0  0  0  0  0  0  0
   -0.1026   -2.2234   -2.6177 H   0  0  0  0  0  0  0  0  0  0  0  0
   -0.6606    2.2196   -0.1975 H   0  0  0  0  0  0  0  0  0  0  0  0
   -1.1772    1.2666   -1.5763 H   0  0  0  0  0  0  0  0  0  0  0  0
   -0.5558   -0.2055    1.8554 H   0  0  0  0  0  0  0  0  0  0  0  0
   -2.3118   -1.1874    3.2508 H   0  0  0  0  0  0  0  0  0  0  0  0
   -4.6607   -1.0511    2.6012 H   0  0  0  0  0  0  0  0  0  0  0  0
   -6.7395   -0.1954    2.0038 H   0  0  0  0  0  0  0  0  0  0  0  0
   -6.3230   -1.6509    1.0160 H   0  0  0  0  0  0  0  0  0  0  0  0
   -7.5079   -0.4757    0.4373 H   0  0  0  0  0  0  0  0  0  0  0  0
   -5.5098    2.0450   -1.2892 H   0  0  0  0  0  0  0  0  0  0  0  0
   -4.2512    3.2098   -1.7137 H   0  0  0  0  0  0  0  0  0  0  0  0
   -4.5208    2.8392   -0.0056 H   0  0  0  0  0  0  0  0  0  0  0  0
    2.0638    2.7933    0.6559 H   0  0  0  0  0  0  0  0  0  0  0  0
    2.2351    1.6300    1.9907 H   0  0  0  0  0  0  0  0  0  0  0  0
    0.6437    2.1770    1.5245 H   0  0  0  0  0  0  0  0  0  0  0  0
  1  2  1  0
  2  3  1  0
  3  4  1  0
  4  5  2  0
  4  6  1  0
  6  7  1  0
  7  8  1  0
  7  9  2  0
  9 10  1  0
  9 11  1  0
 11 12  1  0
 12 13  1  0
 13 14  2  0
 14 15  1  0
 15 16  2  0
 16 17  1  0
 17 18  1  0
 18 19  1  0
 17 20  2  0
 20 21  1  0
 21 22  1  0
 11 23  1  0
 23 24  1  0
 23  6  2  0
 20 13  1  0
  1 25  1  0
  1 26  1  0
  1 27  1  0
  2 28  1  0
  2 29  1  0
  8 30  1  0
  8 31  1  0
  8 32  1  0
 10 33  1  0
 10 34  1  0
 10 35  1  0
 12 36  1  0
 12 37  1  0
 14 38  1  0
 15 39  1  0
 16 40  1  0
 19 41  1  0
 19 42  1  0
 19 43  1  0
 22 44  1  0
 22 45  1  0
 22 46  1  0
 24 47  1  0
 24 48  1  0
 24 49  1  0
M  END
$$$$
