
     RDKit          3D

 42 46  0  0  0  0  0  0  0  0999 V2000
    5.4278    1.8342    0.1600 C   0  0  0  0  0  0  0  0  0  0  0  0
    5.1972    1.4285   -1.1526 C   0  0  0  0  0  0  0  0  0  0  0  0
    3.9909    0.8065   -1.5069 C   0  0  0  0  0  0  0  0  0  0  0  0
    3.7549    0.3928   -2.8215 C   0  0  0  0  0  0  0  0  0  0  0  0
    2.5550   -0.2295   -3.1638 C   0  0  0  0  0  0  0  0  0  0  0  0
    1.5604   -0.4492   -2.2020 C   0  0  0  0  0  0  0  0  0  0  0  0
    0.3679   -1.0815   -2.5546 C   0  0  0  0  0  0  0  0  0  0  0  0
   -0.6241   -1.2949   -1.6028 C   0  0  0  0  0  0  0  0  0  0  0  0
   -0.4664   -0.8665   -0.2713 C   0  0  0  0  0  0  0  0  0  0  0  0
   -1.5961   -1.1491    0.7136 C   0  0  0  0  0  0  0  0  0  0  0  0
   -2.9488   -1.0076    0.1399 N   0  0  0  0  0  0  0  0  0  0  0  0
   -3.9522   -1.6342    1.0272 C   0  0  0  0  0  0  0  0  0  0  0  0
   -5.3567   -1.0618    0.7914 C   0  0  0  0  0  0  0  0  0  0  0  0
   -5.4435    0.3313    1.1216 O   0  0  0  0  0  0  0  0  0  0  0  0
   -4.2062    1.0325    0.9356 C   0  0  0  0  0  0  0  0  0  0  0  0
   -3.3049    0.4029   -0.1385 C   0  0  0  0  0  0  0  0  0  0  0  0
    0.7591   -0.2502    0.1196 C   0  0  0  0  0  0  0  0  0  0  0  0
    1.0494    0.1657    1.4383 C   0  0  0  0  0  0  0  0  0  0  0  0
    2.2595    0.7804    1.7747 C   0  0  0  0  0  0  0  0  0  0  0  0
    3.2390    1.0027    0.8065 C   0  0  0  0  0  0  0  0  0  0  0  0
    4.4549    1.6217    1.1341 C   0  0  0  0  0  0  0  0  0  0  0  0
    2.9962    0.5908   -0.5218 C   0  0  0  0  0  0  0  0  0  0  0  0
    1.7655   -0.0361   -0.8633 C   0  0  0  0  0  0  0  0  0  0  0  0
    6.3662    2.3146    0.4239 H   0  0  0  0  0  0  0  0  0  0  0  0
    5.9690    1.6008   -1.8995 H   0  0  0  0  0  0  0  0  0  0  0  0
    4.5051    0.5479   -3.5934 H   0  0  0  0  0  0  0  0  0  0  0  0
    2.4043   -0.5435   -4.1945 H   0  0  0  0  0  0  0  0  0  0  0  0
    0.1959   -1.4169   -3.5747 H   0  0  0  0  0  0  0  0  0  0  0  0
   -1.5415   -1.7962   -1.9083 H   0  0  0  0  0  0  0  0  0  0  0  0
   -1.4468   -2.1826    1.0540 H   0  0  0  0  0  0  0  0  0  0  0  0
   -1.5332   -0.5048    1.5951 H   0  0  0  0  0  0  0  0  0  0  0  0
   -3.6899   -1.4674    2.0805 H   0  0  0  0  0  0  0  0  0  0  0  0
   -3.9593   -2.7150    0.8490 H   0  0  0  0  0  0  0  0  0  0  0  0
   -5.6637   -1.1891   -0.2534 H   0  0  0  0  0  0  0  0  0  0  0  0
   -6.0879   -1.5904    1.4115 H   0  0  0  0  0  0  0  0  0  0  0  0
   -3.6884    1.0702    1.9011 H   0  0  0  0  0  0  0  0  0  0  0  0
   -4.4538    2.0629    0.6606 H   0  0  0  0  0  0  0  0  0  0  0  0
   -3.8528    0.4068   -1.0893 H   0  0  0  0  0  0  0  0  0  0  0  0
   -2.4208    1.0316   -0.2933 H   0  0  0  0  0  0  0  0  0  0  0  0
    0.3402    0.0168    2.2468 H   0  0  0  0  0  0  0  0  0  0  0  0
    2.4255    1.0816    2.8067 H   0  0  0  0  0  0  0  0  0  0  0  0
    4.6531    1.9431    2.1541 H   0  0  0  0  0  0  0  0  0  0  0  0
  1  2  2  0
  2  3  1  0
  3  4  2  0
  4  5  1  0
  5  6  2  0
  6  7  1  0
  7  8  2  0
  8  9  1  0
  9 10  1  0
 10 11  1  0
 11 12  1  0
 12 13  1  0
 13 14  1  0
 14 15  1  0
 15 16  1  0
  9 17  2  0
 17 18  1  0
 18 19  2  0
 19 20  1  0
 20 21  2  0
 20 22  1  0
 22 23  2  0
 21  1  1  0
 22  3  1  0
 23  6  1  0
 16 11  1  0
 23 17  1  0
  1 24  1  0
  2 25  1  0
  4 26  1  0
  5 27  1  0
  7 28  1  0
  8 29  1  0
 10 30  1  0
 10 31  1  0
 12 32  1  0
 12 33  1  0
 13 34  1  0
 13 35  1  0
 15 36  1  0
 15 37  1  0
 16 38  1  0
 16 39  1  0
 18 40  1  0
 19 41  1  0
 21 42  1  0
M  END
$$$$
