
     RDKit          3D

 44 44  0  0  0  0  0  0  0  0999 V2000
   -2.1665   -0.5876    2.6752 C   0  0  0  0  0  0  0  0  0  0  0  0
   -2.6679    0.5451    1.7717 C   0  0  0  0  0  0  0  0  0  0  0  0
   -4.1637    0.7948    2.0096 C   0  0  0  0  0  0  0  0  0  0  0  0
   -2.2444    0.3857    0.2690 C   0  0  0  0  0  0  0  0  0  0  0  0
   -2.9777    1.3419   -0.5050 O   0  0  0  0  0  0  0  0  0  0  0  0
   -0.8043    0.7550    0.1746 C   0  0  0  0  0  0  0  0  0  0  0  0
    0.3579    1.0529    0.0943 C   0  0  0  0  0  0  0  0  0  0  0  0
    1.7837    1.4040   -0.0110 C   0  0  0  0  0  0  0  0  0  0  0  0
    2.3879    0.8545   -1.2315 N   0  0  0  0  0  0  0  0  0  0  0  0
    3.6932    1.4662   -1.5188 C   0  0  0  0  0  0  0  0  0  0  0  0
    4.8154    1.0066   -0.5847 C   0  0  0  0  0  0  0  0  0  0  0  0
    4.9296   -0.5138   -0.5665 C   0  0  0  0  0  0  0  0  0  0  0  0
    3.5765   -1.1590   -0.2873 C   0  0  0  0  0  0  0  0  0  0  0  0
    2.4949   -0.6133   -1.2240 C   0  0  0  0  0  0  0  0  0  0  0  0
   -2.4515   -1.0257   -0.3777 C   0  0  0  0  0  0  0  0  0  0  0  0
   -3.8924   -1.5440   -0.3059 C   0  0  0  0  0  0  0  0  0  0  0  0
   -2.0350   -1.0487   -1.8641 C   0  0  0  0  0  0  0  0  0  0  0  0
   -1.0881   -0.7388    2.5656 H   0  0  0  0  0  0  0  0  0  0  0  0
   -2.6679   -1.5352    2.4597 H   0  0  0  0  0  0  0  0  0  0  0  0
   -2.3570   -0.3490    3.7275 H   0  0  0  0  0  0  0  0  0  0  0  0
   -2.1860    1.4648    2.1393 H   0  0  0  0  0  0  0  0  0  0  0  0
   -4.5265    1.6471    1.4269 H   0  0  0  0  0  0  0  0  0  0  0  0
   -4.3410    1.0326    3.0650 H   0  0  0  0  0  0  0  0  0  0  0  0
   -4.7830   -0.0707    1.7713 H   0  0  0  0  0  0  0  0  0  0  0  0
   -2.6143    2.2179   -0.2904 H   0  0  0  0  0  0  0  0  0  0  0  0
    1.8421    2.4998   -0.0376 H   0  0  0  0  0  0  0  0  0  0  0  0
    2.3136    1.0865    0.8936 H   0  0  0  0  0  0  0  0  0  0  0  0
    3.9690    1.2190   -2.5525 H   0  0  0  0  0  0  0  0  0  0  0  0
    3.6162    2.5602   -1.4949 H   0  0  0  0  0  0  0  0  0  0  0  0
    4.6352    1.3752    0.4321 H   0  0  0  0  0  0  0  0  0  0  0  0
    5.7668    1.4408   -0.9129 H   0  0  0  0  0  0  0  0  0  0  0  0
    5.3036   -0.8612   -1.5376 H   0  0  0  0  0  0  0  0  0  0  0  0
    5.6591   -0.8277    0.1881 H   0  0  0  0  0  0  0  0  0  0  0  0
    3.2943   -0.9866    0.7579 H   0  0  0  0  0  0  0  0  0  0  0  0
    3.6571   -2.2448   -0.4147 H   0  0  0  0  0  0  0  0  0  0  0  0
    2.7203   -0.9412   -2.2477 H   0  0  0  0  0  0  0  0  0  0  0  0
    1.5328   -1.0802   -0.9839 H   0  0  0  0  0  0  0  0  0  0  0  0
   -1.8110   -1.7522    0.1404 H   0  0  0  0  0  0  0  0  0  0  0  0
   -4.1673   -1.8162    0.7153 H   0  0  0  0  0  0  0  0  0  0  0  0
   -4.6076   -0.8049   -0.6806 H   0  0  0  0  0  0  0  0  0  0  0  0
   -4.0115   -2.4545   -0.9043 H   0  0  0  0  0  0  0  0  0  0  0  0
   -2.1534   -2.0551   -2.2815 H   0  0  0  0  0  0  0  0  0  0  0  0
   -0.9846   -0.7740   -1.9978 H   0  0  0  0  0  0  0  0  0  0  0  0
   -2.6465   -0.3663   -2.4640 H   0  0  0  0  0  0  0  0  0  0  0  0
  1  2  1  0
  2  3  1  0
  2  4  1  0
  4  5  1  0
  4  6  1  0
  6  7  3  0
  7  8  1  0
  8  9  1  0
  9 10  1  0
 10 11  1  0
 11 12  1  0
 12 13  1  0
 13 14  1  0
  4 15  1  0
 15 16  1  0
 15 17  1  0
 14  9  1  0
  1 18  1  0
  1 19  1  0
  1 20  1  0
  2 21  1  0
  3 22  1  0
  3 23  1  0
  3 24  1  0
  5 25  1  0
  8 26  1  0
  8 27  1  0
 10 28  1  0
 10 29  1  0
 11 30  1  0
 11 31  1  0
 12 32  1  0
 12 33  1  0
 13 34  1  0
 13 35  1  0
 14 36  1  0
 14 37  1  0
 15 38  1  0
 16 39  1  0
 16 40  1  0
 16 41  1  0
 17 42  1  0
 17 43  1  0
 17 44  1  0
M  END
$$$$
