
     RDKit          3D

 33 34  0  0  0  0  0  0  0  0999 V2000
   -5.2730    1.0244   -1.5039 N   0  0  0  0  0  0  0  0  0  0  0  0
   -4.2209    0.6124   -0.6799 C   0  0  0  0  0  0  0  0  0  0  0  0
   -3.1378   -0.0867   -1.2187 C   0  0  0  0  0  0  0  0  0  0  0  0
   -2.0231   -0.3999   -0.4326 C   0  0  0  0  0  0  0  0  0  0  0  0
   -1.9631    0.0219    0.9008 C   0  0  0  0  0  0  0  0  0  0  0  0
   -0.7995   -0.2710    1.7803 C   0  0  0  0  0  0  0  0  0  0  0  0
   -0.6766    0.1732    2.9106 O   0  0  0  0  0  0  0  0  0  0  0  0
    0.0811   -1.0806    1.1445 O   0  0  0  0  0  0  0  0  0  0  0  0
    1.2809   -1.3996    1.8709 C   0  0  0  0  0  0  0  0  0  0  0  0
    2.3147   -0.2756    1.7687 C   0  0  0  0  0  0  0  0  0  0  0  0
    2.8546   -0.1166    0.3659 C   0  0  0  0  0  0  0  0  0  0  0  0
    3.9361   -0.8924   -0.0729 C   0  0  0  0  0  0  0  0  0  0  0  0
    4.4209   -0.7567   -1.3748 C   0  0  0  0  0  0  0  0  0  0  0  0
    3.8282    0.1517   -2.2500 C   0  0  0  0  0  0  0  0  0  0  0  0
    2.7499    0.9251   -1.8249 C   0  0  0  0  0  0  0  0  0  0  0  0
    2.2639    0.7915   -0.5236 C   0  0  0  0  0  0  0  0  0  0  0  0
   -3.0188    0.7758    1.4258 C   0  0  0  0  0  0  0  0  0  0  0  0
   -4.1284    1.0837    0.6317 C   0  0  0  0  0  0  0  0  0  0  0  0
   -5.4364    0.4172   -2.3010 H   0  0  0  0  0  0  0  0  0  0  0  0
   -6.1295    1.2407   -1.0033 H   0  0  0  0  0  0  0  0  0  0  0  0
   -3.1503   -0.3952   -2.2611 H   0  0  0  0  0  0  0  0  0  0  0  0
   -1.2046   -0.9575   -0.8816 H   0  0  0  0  0  0  0  0  0  0  0  0
    1.6738   -2.3302    1.4463 H   0  0  0  0  0  0  0  0  0  0  0  0
    1.0403   -1.6084    2.9203 H   0  0  0  0  0  0  0  0  0  0  0  0
    3.1500   -0.4865    2.4478 H   0  0  0  0  0  0  0  0  0  0  0  0
    1.8847    0.6786    2.0955 H   0  0  0  0  0  0  0  0  0  0  0  0
    4.4088   -1.6069    0.5969 H   0  0  0  0  0  0  0  0  0  0  0  0
    5.2617   -1.3603   -1.7065 H   0  0  0  0  0  0  0  0  0  0  0  0
    4.2067    0.2570   -3.2632 H   0  0  0  0  0  0  0  0  0  0  0  0
    2.2862    1.6333   -2.5065 H   0  0  0  0  0  0  0  0  0  0  0  0
    1.4195    1.3999   -0.2071 H   0  0  0  0  0  0  0  0  0  0  0  0
   -2.9781    1.1397    2.4506 H   0  0  0  0  0  0  0  0  0  0  0  0
   -4.9217    1.6978    1.0505 H   0  0  0  0  0  0  0  0  0  0  0  0
  1  2  1  0
  2  3  2  0
  3  4  1  0
  4  5  2  0
  5  6  1  0
  6  7  2  0
  6  8  1  0
  8  9  1  0
  9 10  1  0
 10 11  1  0
 11 12  2  0
 12 13  1  0
 13 14  2  0
 14 15  1  0
 15 16  2  0
  5 17  1  0
 17 18  2  0
 18  2  1  0
 16 11  1  0
  1 19  1  0
  1 20  1  0
  3 21  1  0
  4 22  1  0
  9 23  1  0
  9 24  1  0
 10 25  1  0
 10 26  1  0
 12 27  1  0
 13 28  1  0
 14 29  1  0
 15 30  1  0
 16 31  1  0
 17 32  1  0
 18 33  1  0
M  END
$$$$
