
     RDKit          3D

 57 59  0  0  0  0  0  0  0  0999 V2000
   -9.3540    1.4941   -1.8690 C   0  0  0  0  0  0  0  0  0  0  0  0
   -8.7559    0.2181   -2.0591 O   0  0  0  0  0  0  0  0  0  0  0  0
   -7.3991    0.1411   -1.9068 C   0  0  0  0  0  0  0  0  0  0  0  0
   -6.5561    1.1861   -1.5202 C   0  0  0  0  0  0  0  0  0  0  0  0
   -5.1801    0.9692   -1.3971 C   0  0  0  0  0  0  0  0  0  0  0  0
   -4.6527   -0.2993   -1.6564 C   0  0  0  0  0  0  0  0  0  0  0  0
   -2.9041   -0.5545   -1.4946 S   0  0  0  0  0  6  0  0  0  0  0  0
   -2.5923   -1.8934   -1.9485 O   0  0  0  0  0  0  0  0  0  0  0  0
   -2.2433    0.6017   -2.0567 O   0  0  0  0  0  0  0  0  0  0  0  0
   -2.6886   -0.5232    0.1672 N   0  0  0  0  0  0  0  0  0  0  0  0
   -3.3320   -1.5570    0.9811 C   0  0  0  0  0  0  0  0  0  0  0  0
   -2.6801   -1.3206    2.3225 C   0  0  0  0  0  0  0  0  0  0  0  0
   -1.3229   -1.0000    2.0105 O   0  0  0  0  0  0  0  0  0  0  0  0
   -1.3101   -0.3836    0.6949 C   0  0  0  0  0  0  0  0  0  0  0  0
   -0.1962   -1.0777   -0.1276 C   0  0  0  0  0  0  0  0  0  0  0  0
    1.1052   -1.0555    0.5210 N   0  0  0  0  0  0  0  0  0  0  0  0
    1.8145    0.1096    0.6887 C   0  0  0  0  0  0  0  0  0  0  0  0
    1.5099    1.2051    0.2376 O   0  0  0  0  0  0  0  0  0  0  0  0
    3.0887   -0.0531    1.5499 C   0  0  0  0  0  0  0  0  0  0  0  0
    3.3689   -1.1460    2.0215 O   0  0  0  0  0  0  0  0  0  0  0  0
    3.8002    1.1136    1.6860 N   0  0  0  0  0  0  0  0  0  0  0  0
    5.1084    1.1671    2.2929 C   0  0  0  0  0  0  0  0  0  0  0  0
    6.1868    1.2693    1.2449 C   0  0  0  0  0  0  0  0  0  0  0  0
    6.3512    2.4677    0.5283 C   0  0  0  0  0  0  0  0  0  0  0  0
    7.3358    2.5836   -0.4553 C   0  0  0  0  0  0  0  0  0  0  0  0
    8.1735    1.5061   -0.7341 C   0  0  0  0  0  0  0  0  0  0  0  0
    8.0235    0.3105   -0.0336 C   0  0  0  0  0  0  0  0  0  0  0  0
    7.0241    0.1888    0.9361 C   0  0  0  0  0  0  0  0  0  0  0  0
    6.9069   -0.9739    1.6511 O   0  0  0  0  0  0  0  0  0  0  0  0
    6.4142   -2.0336    0.8300 C   0  0  0  0  0  0  0  0  0  0  0  0
   -5.4827   -1.3472   -2.0542 C   0  0  0  0  0  0  0  0  0  0  0  0
   -6.8554   -1.1208   -2.1724 C   0  0  0  0  0  0  0  0  0  0  0  0
   -8.9633    2.2251   -2.5847 H   0  0  0  0  0  0  0  0  0  0  0  0
   -9.2232    1.8411   -0.8383 H   0  0  0  0  0  0  0  0  0  0  0  0
  -10.4280    1.3905   -2.0516 H   0  0  0  0  0  0  0  0  0  0  0  0
   -6.9365    2.1797   -1.3071 H   0  0  0  0  0  0  0  0  0  0  0  0
   -4.5273    1.7877   -1.1010 H   0  0  0  0  0  0  0  0  0  0  0  0
   -3.0775   -2.5539    0.6067 H   0  0  0  0  0  0  0  0  0  0  0  0
   -4.4165   -1.4427    1.0368 H   0  0  0  0  0  0  0  0  0  0  0  0
   -2.7210   -2.1958    2.9767 H   0  0  0  0  0  0  0  0  0  0  0  0
   -3.1230   -0.4639    2.8426 H   0  0  0  0  0  0  0  0  0  0  0  0
   -1.0900    0.6793    0.8383 H   0  0  0  0  0  0  0  0  0  0  0  0
   -0.0799   -0.6034   -1.1067 H   0  0  0  0  0  0  0  0  0  0  0  0
   -0.4351   -2.1362   -0.2762 H   0  0  0  0  0  0  0  0  0  0  0  0
    1.3908   -1.8392    1.1026 H   0  0  0  0  0  0  0  0  0  0  0  0
    3.4672    1.9041    1.1435 H   0  0  0  0  0  0  0  0  0  0  0  0
    5.1363    2.0597    2.9284 H   0  0  0  0  0  0  0  0  0  0  0  0
    5.2536    0.3047    2.9511 H   0  0  0  0  0  0  0  0  0  0  0  0
    5.7116    3.3227    0.7370 H   0  0  0  0  0  0  0  0  0  0  0  0
    7.4530    3.5175   -0.9996 H   0  0  0  0  0  0  0  0  0  0  0  0
    8.9480    1.5996   -1.4905 H   0  0  0  0  0  0  0  0  0  0  0  0
    8.6943   -0.5194   -0.2365 H   0  0  0  0  0  0  0  0  0  0  0  0
    6.0855   -2.8427    1.4894 H   0  0  0  0  0  0  0  0  0  0  0  0
    5.5565   -1.7164    0.2267 H   0  0  0  0  0  0  0  0  0  0  0  0
    7.2083   -2.4249    0.1861 H   0  0  0  0  0  0  0  0  0  0  0  0
   -5.0791   -2.3328   -2.2742 H   0  0  0  0  0  0  0  0  0  0  0  0
   -7.5107   -1.9329   -2.4798 H   0  0  0  0  0  0  0  0  0  0  0  0
  1  2  1  0
  2  3  1  0
  3  4  2  0
  4  5  1  0
  5  6  2  0
  6  7  1  0
  7  8  2  0
  7  9  2  0
  7 10  1  0
 10 11  1  0
 11 12  1  0
 12 13  1  0
 13 14  1  0
 14 15  1  0
 15 16  1  0
 16 17  1  0
 17 18  2  0
 17 19  1  0
 19 20  2  0
 19 21  1  0
 21 22  1  0
 22 23  1  0
 23 24  2  0
 24 25  1  0
 25 26  2  0
 26 27  1  0
 27 28  2  0
 28 29  1  0
 29 30  1  0
  6 31  1  0
 31 32  2  0
 32  3  1  0
 14 10  1  0
 28 23  1  0
  1 33  1  0
  1 34  1  0
  1 35  1  0
  4 36  1  0
  5 37  1  0
 11 38  1  0
 11 39  1  0
 12 40  1  0
 12 41  1  0
 14 42  1  0
 15 43  1  0
 15 44  1  0
 16 45  1  0
 21 46  1  0
 22 47  1  0
 22 48  1  0
 24 49  1  0
 25 50  1  0
 26 51  1  0
 27 52  1  0
 30 53  1  0
 30 54  1  0
 30 55  1  0
 31 56  1  0
 32 57  1  0
M  END
$$$$
