
     RDKit          3D

 33 35  0  0  0  0  0  0  0  0999 V2000
    5.0161   -0.9815   -0.4658 C   0  0  0  0  0  0  0  0  0  0  0  0
    4.1458   -0.5548   -1.6340 C   0  0  0  0  0  0  0  0  0  0  0  0
    2.7459   -0.5260   -1.2726 N   0  0  0  0  0  0  0  0  0  0  0  0
    2.1592    0.5451   -0.6528 C   0  0  0  0  0  0  0  0  0  0  0  0
    2.7705    1.5865   -0.4076 O   0  0  0  0  0  0  0  0  0  0  0  0
    0.7161    0.3965   -0.2760 C   0  0  0  0  0  0  0  0  0  0  0  0
    0.0951    1.4560    0.3073 C   0  0  0  0  0  0  0  0  0  0  0  0
    0.6910    2.6738    0.5875 O   0  0  0  0  0  0  0  0  0  0  0  0
   -1.3188    1.3785    0.6981 C   0  0  0  0  0  0  0  0  0  0  0  0
   -2.0809    2.3792    1.3003 C   0  0  0  0  0  0  0  0  0  0  0  0
   -3.4386    2.1500    1.6173 C   0  0  0  0  0  0  0  0  0  0  0  0
   -4.0561    0.9198    1.3387 C   0  0  0  0  0  0  0  0  0  0  0  0
   -3.2975   -0.0674    0.7428 C   0  0  0  0  0  0  0  0  0  0  0  0
   -1.9696    0.1913    0.4452 C   0  0  0  0  0  0  0  0  0  0  0  0
   -1.3579   -0.8976   -0.1444 N   0  0  0  0  0  0  0  0  0  0  0  0
   -0.0441   -0.8884   -0.5271 C   0  0  0  0  0  0  0  0  0  0  0  0
    0.4974   -1.8652   -1.0448 O   0  0  0  0  0  0  0  0  0  0  0  0
   -2.3245   -1.9895   -0.2613 C   0  0  0  0  0  0  0  0  0  0  0  0
   -3.6577   -1.4604    0.3261 C   0  0  0  0  0  0  0  0  0  0  0  0
    4.9252   -0.2821    0.3717 H   0  0  0  0  0  0  0  0  0  0  0  0
    6.0673   -1.0200   -0.7672 H   0  0  0  0  0  0  0  0  0  0  0  0
    4.7253   -1.9734   -0.1041 H   0  0  0  0  0  0  0  0  0  0  0  0
    4.2533   -1.2609   -2.4632 H   0  0  0  0  0  0  0  0  0  0  0  0
    4.4485    0.4373   -1.9850 H   0  0  0  0  0  0  0  0  0  0  0  0
    2.1953   -1.3769   -1.3988 H   0  0  0  0  0  0  0  0  0  0  0  0
    1.6325    2.6296    0.3024 H   0  0  0  0  0  0  0  0  0  0  0  0
   -1.6332    3.3438    1.5297 H   0  0  0  0  0  0  0  0  0  0  0  0
   -4.0144    2.9454    2.0870 H   0  0  0  0  0  0  0  0  0  0  0  0
   -5.1000    0.7580    1.5878 H   0  0  0  0  0  0  0  0  0  0  0  0
   -1.9499   -2.8585    0.2907 H   0  0  0  0  0  0  0  0  0  0  0  0
   -2.4231   -2.2690   -1.3160 H   0  0  0  0  0  0  0  0  0  0  0  0
   -4.4448   -1.4560   -0.4341 H   0  0  0  0  0  0  0  0  0  0  0  0
   -3.9735   -2.0630    1.1831 H   0  0  0  0  0  0  0  0  0  0  0  0
  1  2  1  0
  2  3  1  0
  3  4  1  0
  4  5  2  0
  4  6  1  0
  6  7  2  0
  7  8  1  0
  7  9  1  0
  9 10  2  0
 10 11  1  0
 11 12  2  0
 12 13  1  0
 13 14  2  0
 14 15  1  0
 15 16  1  0
 16 17  2  0
 15 18  1  0
 18 19  1  0
 16  6  1  0
 14  9  1  0
 19 13  1  0
  1 20  1  0
  1 21  1  0
  1 22  1  0
  2 23  1  0
  2 24  1  0
  3 25  1  0
  8 26  1  0
 10 27  1  0
 11 28  1  0
 12 29  1  0
 18 30  1  0
 18 31  1  0
 19 32  1  0
 19 33  1  0
M  END
$$$$
