
     RDKit          3D

102104  0  0  0  0  0  0  0  0999 V2000
    6.6743    4.7242   -1.6972 C   0  0  0  0  0  0  0  0  0  0  0  0
    5.8946    4.5811   -0.3990 C   0  0  0  0  0  0  0  0  0  0  0  0
    5.3862    3.1550   -0.1590 C   0  0  0  0  0  0  0  0  0  0  0  0
    4.2499    2.7573   -1.1073 C   0  0  0  0  0  0  0  0  0  0  0  0
    3.7112    1.3446   -0.8657 C   0  0  0  0  0  0  0  0  0  0  0  0
    3.0772    1.0821    0.5120 C   0  0  0  0  0  0  0  0  0  0  0  0
    2.1015    2.1370    1.0408 C   0  0  0  0  0  0  0  0  0  0  0  0
    0.9438    2.4507    0.1202 C   0  0  0  0  0  0  0  0  0  0  0  0
    0.8518    2.0872   -1.0470 O   0  0  0  0  0  0  0  0  0  0  0  0
   -0.0370    3.2105    0.7129 N   0  0  0  0  0  0  0  0  0  0  0  0
   -1.2129    3.6739   -0.0282 C   0  0  0  0  0  0  0  0  0  0  0  0
   -1.8004    4.9341    0.6280 C   0  0  0  0  0  0  0  0  0  0  0  0
   -0.8256    6.1267    0.7260 C   0  0  0  0  0  0  0  0  0  0  0  0
   -1.4921    7.2723    1.4915 C   0  0  0  0  0  0  0  0  0  0  0  0
   -0.3648    6.6192   -0.6452 C   0  0  0  0  0  0  0  0  0  0  0  0
   -2.2822    2.5522   -0.1419 C   0  0  0  0  0  0  0  0  0  0  0  0
   -3.4768    2.7314    0.0808 O   0  0  0  0  0  0  0  0  0  0  0  0
   -1.7916    1.3520   -0.6160 N   0  0  0  0  0  0  0  0  0  0  0  0
   -2.6606    0.2449   -1.0095 C   0  0  0  0  0  0  0  0  0  0  0  0
   -2.9067    0.2571   -2.5258 C   0  0  0  0  0  0  0  0  0  0  0  0
   -4.2026   -0.4308   -2.8962 C   0  0  0  0  0  0  0  0  0  0  0  0
   -5.4038    0.2916   -2.9042 C   0  0  0  0  0  0  0  0  0  0  0  0
   -6.6092   -0.3387   -3.2178 C   0  0  0  0  0  0  0  0  0  0  0  0
   -6.6259   -1.6994   -3.5145 C   0  0  0  0  0  0  0  0  0  0  0  0
   -5.4392   -2.4298   -3.5009 C   0  0  0  0  0  0  0  0  0  0  0  0
   -4.2311   -1.7994   -3.1937 C   0  0  0  0  0  0  0  0  0  0  0  0
   -1.9830   -1.0514   -0.5192 C   0  0  0  0  0  0  0  0  0  0  0  0
   -1.5228   -1.9250   -1.2521 O   0  0  0  0  0  0  0  0  0  0  0  0
   -1.9392   -1.1528    0.8570 N   0  0  0  0  0  0  0  0  0  0  0  0
   -1.4662   -2.3556    1.5356 C   0  0  0  0  0  0  0  0  0  0  0  0
   -2.2705   -2.5711    2.8297 C   0  0  0  0  0  0  0  0  0  0  0  0
   -2.4823   -4.0481    3.2378 C   0  0  0  0  0  0  0  0  0  0  0  0
   -3.4049   -4.7861    2.2642 C   0  0  0  0  0  0  0  0  0  0  0  0
   -1.1779   -4.8175    3.4233 C   0  0  0  0  0  0  0  0  0  0  0  0
    0.0551   -2.2301    1.7872 C   0  0  0  0  0  0  0  0  0  0  0  0
    0.5521   -2.0314    2.8932 O   0  0  0  0  0  0  0  0  0  0  0  0
    0.8197   -2.3730    0.6489 N   0  0  0  0  0  0  0  0  0  0  0  0
    2.2696   -2.5760    0.7258 C   0  0  0  0  0  0  0  0  0  0  0  0
    2.7491   -3.5335   -0.3763 C   0  0  0  0  0  0  0  0  0  0  0  0
    2.1998   -4.9324   -0.2045 C   0  0  0  0  0  0  0  0  0  0  0  0
    2.7019   -5.7703    0.8016 C   0  0  0  0  0  0  0  0  0  0  0  0
    2.1816   -7.0518    0.9840 C   0  0  0  0  0  0  0  0  0  0  0  0
    1.1565   -7.5102    0.1609 C   0  0  0  0  0  0  0  0  0  0  0  0
    0.6485   -6.6854   -0.8410 C   0  0  0  0  0  0  0  0  0  0  0  0
    1.1668   -5.4027   -1.0246 C   0  0  0  0  0  0  0  0  0  0  0  0
    3.1165   -1.3009    0.6741 C   0  0  0  0  0  0  0  0  0  0  0  0
    4.3405   -1.3013    0.7867 O   0  0  0  0  0  0  0  0  0  0  0  0
    2.3672   -0.1788    0.4898 O   0  0  0  0  0  0  0  0  0  0  0  0
    6.0588    4.4929   -2.5701 H   0  0  0  0  0  0  0  0  0  0  0  0
    7.0316    5.7523   -1.8085 H   0  0  0  0  0  0  0  0  0  0  0  0
    7.5460    4.0630   -1.7043 H   0  0  0  0  0  0  0  0  0  0  0  0
    5.0530    5.2880   -0.3945 H   0  0  0  0  0  0  0  0  0  0  0  0
    6.5532    4.8619    0.4331 H   0  0  0  0  0  0  0  0  0  0  0  0
    5.0374    3.0958    0.8767 H   0  0  0  0  0  0  0  0  0  0  0  0
    6.2164    2.4444   -0.2543 H   0  0  0  0  0  0  0  0  0  0  0  0
    3.4359    3.4894   -1.0362 H   0  0  0  0  0  0  0  0  0  0  0  0
    4.6040    2.7993   -2.1445 H   0  0  0  0  0  0  0  0  0  0  0  0
    4.5272    0.6288   -1.0196 H   0  0  0  0  0  0  0  0  0  0  0  0
    2.9929    1.0988   -1.6575 H   0  0  0  0  0  0  0  0  0  0  0  0
    3.8794    1.0158    1.2605 H   0  0  0  0  0  0  0  0  0  0  0  0
    2.6269    3.0758    1.2477 H   0  0  0  0  0  0  0  0  0  0  0  0
    1.6757    1.7752    1.9858 H   0  0  0  0  0  0  0  0  0  0  0  0
   -0.0596    3.2702    1.7253 H   0  0  0  0  0  0  0  0  0  0  0  0
   -0.9085    3.8998   -1.0570 H   0  0  0  0  0  0  0  0  0  0  0  0
   -2.6953    5.2479    0.0741 H   0  0  0  0  0  0  0  0  0  0  0  0
   -2.1445    4.6767    1.6401 H   0  0  0  0  0  0  0  0  0  0  0  0
    0.0596    5.8236    1.2970 H   0  0  0  0  0  0  0  0  0  0  0  0
   -1.7969    6.9450    2.4921 H   0  0  0  0  0  0  0  0  0  0  0  0
   -2.3827    7.6371    0.9664 H   0  0  0  0  0  0  0  0  0  0  0  0
   -0.8005    8.1126    1.6140 H   0  0  0  0  0  0  0  0  0  0  0  0
    0.2256    5.8604   -1.1628 H   0  0  0  0  0  0  0  0  0  0  0  0
   -1.2164    6.8808   -1.2787 H   0  0  0  0  0  0  0  0  0  0  0  0
    0.2675    7.5058   -0.5457 H   0  0  0  0  0  0  0  0  0  0  0  0
   -0.8384    1.3505   -0.9843 H   0  0  0  0  0  0  0  0  0  0  0  0
   -3.6137    0.3445   -0.4738 H   0  0  0  0  0  0  0  0  0  0  0  0
   -2.9567    1.2926   -2.8898 H   0  0  0  0  0  0  0  0  0  0  0  0
   -2.0730   -0.1993   -3.0755 H   0  0  0  0  0  0  0  0  0  0  0  0
   -5.4075    1.3561   -2.6716 H   0  0  0  0  0  0  0  0  0  0  0  0
   -7.5318    0.2338   -3.2259 H   0  0  0  0  0  0  0  0  0  0  0  0
   -7.5645   -2.1903   -3.7557 H   0  0  0  0  0  0  0  0  0  0  0  0
   -5.4531   -3.4938   -3.7235 H   0  0  0  0  0  0  0  0  0  0  0  0
   -3.3131   -2.3848   -3.1819 H   0  0  0  0  0  0  0  0  0  0  0  0
   -2.0602   -0.3013    1.3975 H   0  0  0  0  0  0  0  0  0  0  0  0
   -1.6177   -3.2020    0.8559 H   0  0  0  0  0  0  0  0  0  0  0  0
   -1.8032   -2.0402    3.6700 H   0  0  0  0  0  0  0  0  0  0  0  0
   -3.2664   -2.1199    2.7182 H   0  0  0  0  0  0  0  0  0  0  0  0
   -2.9925   -4.0298    4.2077 H   0  0  0  0  0  0  0  0  0  0  0  0
   -3.7003   -5.7558    2.6830 H   0  0  0  0  0  0  0  0  0  0  0  0
   -4.3192   -4.2120    2.0700 H   0  0  0  0  0  0  0  0  0  0  0  0
   -2.9155   -4.9795    1.3041 H   0  0  0  0  0  0  0  0  0  0  0  0
   -1.3784   -5.8173    3.8273 H   0  0  0  0  0  0  0  0  0  0  0  0
   -0.5181   -4.2987    4.1299 H   0  0  0  0  0  0  0  0  0  0  0  0
   -0.6417   -4.9474    2.4768 H   0  0  0  0  0  0  0  0  0  0  0  0
    0.3418   -2.4405   -0.2476 H   0  0  0  0  0  0  0  0  0  0  0  0
    2.4793   -3.0138    1.7107 H   0  0  0  0  0  0  0  0  0  0  0  0
    2.4676   -3.1443   -1.3624 H   0  0  0  0  0  0  0  0  0  0  0  0
    3.8448   -3.6000   -0.3889 H   0  0  0  0  0  0  0  0  0  0  0  0
    3.5025   -5.4297    1.4546 H   0  0  0  0  0  0  0  0  0  0  0  0
    2.5770   -7.6935    1.7666 H   0  0  0  0  0  0  0  0  0  0  0  0
    0.7550   -8.5103    0.2983 H   0  0  0  0  0  0  0  0  0  0  0  0
   -0.1513   -7.0428   -1.4834 H   0  0  0  0  0  0  0  0  0  0  0  0
    0.7552   -4.7732   -1.8105 H   0  0  0  0  0  0  0  0  0  0  0  0
  1  2  1  0
  2  3  1  0
  3  4  1  0
  4  5  1  0
  5  6  1  0
  6  7  1  0
  7  8  1  0
  8  9  2  0
  8 10  1  0
 10 11  1  0
 11 12  1  0
 12 13  1  0
 13 14  1  0
 13 15  1  0
 11 16  1  0
 16 17  2  0
 16 18  1  0
 18 19  1  0
 19 20  1  0
 20 21  1  0
 21 22  2  0
 22 23  1  0
 23 24  2  0
 24 25  1  0
 25 26  2  0
 19 27  1  0
 27 28  2  0
 27 29  1  0
 29 30  1  0
 30 31  1  0
 31 32  1  0
 32 33  1  0
 32 34  1  0
 30 35  1  0
 35 36  2  0
 35 37  1  0
 37 38  1  0
 38 39  1  0
 39 40  1  0
 40 41  2  0
 41 42  1  0
 42 43  2  0
 43 44  1  0
 44 45  2  0
 38 46  1  0
 46 47  2  0
 46 48  1  0
 48  6  1  0
 26 21  1  0
 45 40  1  0
  1 49  1  0
  1 50  1  0
  1 51  1  0
  2 52  1  0
  2 53  1  0
  3 54  1  0
  3 55  1  0
  4 56  1  0
  4 57  1  0
  5 58  1  0
  5 59  1  0
  6 60  1  0
  7 61  1  0
  7 62  1  0
 10 63  1  0
 11 64  1  0
 12 65  1  0
 12 66  1  0
 13 67  1  0
 14 68  1  0
 14 69  1  0
 14 70  1  0
 15 71  1  0
 15 72  1  0
 15 73  1  0
 18 74  1  0
 19 75  1  0
 20 76  1  0
 20 77  1  0
 22 78  1  0
 23 79  1  0
 24 80  1  0
 25 81  1  0
 26 82  1  0
 29 83  1  0
 30 84  1  0
 31 85  1  0
 31 86  1  0
 32 87  1  0
 33 88  1  0
 33 89  1  0
 33 90  1  0
 34 91  1  0
 34 92  1  0
 34 93  1  0
 37 94  1  0
 38 95  1  0
 39 96  1  0
 39 97  1  0
 41 98  1  0
 42 99  1  0
 43100  1  0
 44101  1  0
 45102  1  0
M  END
$$$$
