
     RDKit          3D

 51 55  0  0  0  0  0  0  0  0999 V2000
    2.4404   -3.1224    1.6137 O   0  0  0  0  0  0  0  0  0  0  0  0
    1.7490   -3.1134    0.5990 C   0  0  0  0  0  0  0  0  0  0  0  0
    0.2451   -3.4021    0.6244 C   0  0  0  0  0  0  0  0  0  0  0  0
   -0.5114   -2.1445    0.5499 N   0  0  0  0  0  0  0  0  0  0  0  0
   -0.6161   -1.5396   -0.7001 C   0  0  0  0  0  0  0  0  0  0  0  0
   -0.2510   -2.1058   -1.7342 O   0  0  0  0  0  0  0  0  0  0  0  0
   -1.0979   -0.1125   -0.7420 C   0  0  0  0  0  0  0  0  0  0  0  0
   -2.6075   -0.0448   -0.8614 C   0  0  0  0  0  0  0  0  0  0  0  0
   -3.0671    1.3802   -0.8207 C   0  0  0  0  0  0  0  0  0  0  0  0
   -3.3946    2.2709    0.1853 C   0  0  0  0  0  0  0  0  0  0  0  0
   -3.7420    3.4888   -0.4506 C   0  0  0  0  0  0  0  0  0  0  0  0
   -3.5863    3.2743   -1.7972 C   0  0  0  0  0  0  0  0  0  0  0  0
   -3.1716    2.0032   -2.0320 O   0  0  0  0  0  0  0  0  0  0  0  0
   -3.5227   -1.0712    0.3552 S   0  0  0  0  0  0  0  0  0  0  0  0
   -2.4018   -1.0504    1.7554 C   0  0  0  0  0  0  0  0  0  0  0  0
   -2.9408   -0.5696    2.9609 C   0  0  0  0  0  0  0  0  0  0  0  0
   -2.2114   -0.6324    4.1463 C   0  0  0  0  0  0  0  0  0  0  0  0
   -0.9450   -1.2030    4.1442 C   0  0  0  0  0  0  0  0  0  0  0  0
   -0.4045   -1.7055    2.9565 C   0  0  0  0  0  0  0  0  0  0  0  0
   -1.1092   -1.6242    1.7430 C   0  0  0  0  0  0  0  0  0  0  0  0
    2.2353   -2.7923   -0.6491 N   0  0  0  0  0  0  0  0  0  0  0  0
    3.5048   -2.1304   -0.8306 C   0  0  0  0  0  0  0  0  0  0  0  0
    3.2698   -0.6919   -1.2264 C   0  0  0  0  0  0  0  0  0  0  0  0
    3.4442   -0.2849   -2.5687 C   0  0  0  0  0  0  0  0  0  0  0  0
    3.1702    1.0294   -2.9625 C   0  0  0  0  0  0  0  0  0  0  0  0
    2.7114    1.9060   -2.0008 C   0  0  0  0  0  0  0  0  0  0  0  0
    2.5319    1.5185   -0.6941 C   0  0  0  0  0  0  0  0  0  0  0  0
    2.8076    0.2352   -0.2729 C   0  0  0  0  0  0  0  0  0  0  0  0
    2.0427    2.5209    0.0838 O   0  0  0  0  0  0  0  0  0  0  0  0
    1.9477    3.5887   -0.8824 C   0  0  0  0  0  0  0  0  0  0  0  0
    2.3731    3.2074   -2.2072 O   0  0  0  0  0  0  0  0  0  0  0  0
   -0.0087   -3.9685    1.5265 H   0  0  0  0  0  0  0  0  0  0  0  0
   -0.0097   -4.0389   -0.2305 H   0  0  0  0  0  0  0  0  0  0  0  0
   -0.6310    0.3674   -1.6134 H   0  0  0  0  0  0  0  0  0  0  0  0
   -0.7100    0.4479    0.1191 H   0  0  0  0  0  0  0  0  0  0  0  0
   -2.8950   -0.4626   -1.8354 H   0  0  0  0  0  0  0  0  0  0  0  0
   -3.3951    2.0658    1.2465 H   0  0  0  0  0  0  0  0  0  0  0  0
   -4.0639    4.4099    0.0156 H   0  0  0  0  0  0  0  0  0  0  0  0
   -3.7258    3.8904   -2.6754 H   0  0  0  0  0  0  0  0  0  0  0  0
   -3.9484   -0.1588    2.9899 H   0  0  0  0  0  0  0  0  0  0  0  0
   -2.6385   -0.2540    5.0711 H   0  0  0  0  0  0  0  0  0  0  0  0
   -0.3735   -1.2631    5.0651 H   0  0  0  0  0  0  0  0  0  0  0  0
    0.5961   -2.1271    3.0033 H   0  0  0  0  0  0  0  0  0  0  0  0
    1.5554   -2.7028   -1.4062 H   0  0  0  0  0  0  0  0  0  0  0  0
    4.1132   -2.1734    0.0782 H   0  0  0  0  0  0  0  0  0  0  0  0
    4.0423   -2.6668   -1.6190 H   0  0  0  0  0  0  0  0  0  0  0  0
    3.7811   -1.0029   -3.3160 H   0  0  0  0  0  0  0  0  0  0  0  0
    3.2982    1.3457   -3.9918 H   0  0  0  0  0  0  0  0  0  0  0  0
    2.6499   -0.0529    0.7630 H   0  0  0  0  0  0  0  0  0  0  0  0
    2.5682    4.4242   -0.5421 H   0  0  0  0  0  0  0  0  0  0  0  0
    0.9032    3.9224   -0.9334 H   0  0  0  0  0  0  0  0  0  0  0  0
  1  2  2  0
  2  3  1  0
  3  4  1  0
  4  5  1  0
  5  6  2  0
  5  7  1  0
  7  8  1  0
  8  9  1  0
  9 10  2  0
 10 11  1  0
 11 12  2  0
 12 13  1  0
  8 14  1  0
 14 15  1  0
 15 16  2  0
 16 17  1  0
 17 18  2  0
 18 19  1  0
 19 20  2  0
  2 21  1  0
 21 22  1  0
 22 23  1  0
 23 24  2  0
 24 25  1  0
 25 26  2  0
 26 27  1  0
 27 28  2  0
 27 29  1  0
 29 30  1  0
 30 31  1  0
 20  4  1  0
 28 23  1  0
 13  9  1  0
 20 15  1  0
 31 26  1  0
  3 32  1  0
  3 33  1  0
  7 34  1  0
  7 35  1  0
  8 36  1  0
 10 37  1  0
 11 38  1  0
 12 39  1  0
 16 40  1  0
 17 41  1  0
 18 42  1  0
 19 43  1  0
 21 44  1  0
 22 45  1  0
 22 46  1  0
 24 47  1  0
 25 48  1  0
 28 49  1  0
 30 50  1  0
 30 51  1  0
M  END
$$$$
