
     RDKit          3D

 44 44  0  0  0  0  0  0  0  0999 V2000
   -5.5221    0.9732    1.4730 C   0  0  0  0  0  0  0  0  0  0  0  0
   -4.8992    1.6355    0.2525 C   0  0  0  0  0  0  0  0  0  0  0  0
   -3.8287    0.8009   -0.3082 N   0  0  0  0  0  0  0  0  0  0  0  0
   -4.2287   -0.1095   -1.3893 C   0  0  0  0  0  0  0  0  0  0  0  0
   -4.0813    0.5550   -2.7508 C   0  0  0  0  0  0  0  0  0  0  0  0
   -2.5072    0.9086    0.1169 C   0  0  0  0  0  0  0  0  0  0  0  0
   -2.1335    1.7062    1.2125 C   0  0  0  0  0  0  0  0  0  0  0  0
   -0.8036    1.8259    1.6380 C   0  0  0  0  0  0  0  0  0  0  0  0
    0.2079    1.1337    0.9835 C   0  0  0  0  0  0  0  0  0  0  0  0
   -0.1181    0.3135   -0.0877 C   0  0  0  0  0  0  0  0  0  0  0  0
    0.7812   -0.4123   -0.8220 O   0  0  0  0  0  0  0  0  0  0  0  0
    1.9119   -0.9105   -0.1200 C   0  0  0  0  0  0  0  0  0  0  0  0
    3.1766   -0.0342   -0.1807 C   0  0  0  0  0  0  0  0  0  0  0  0
    3.1714    1.0667   -0.7331 O   0  0  0  0  0  0  0  0  0  0  0  0
    4.3289   -0.5339    0.4412 N   0  0  0  0  0  0  0  0  0  0  0  0
    5.5289    0.2931    0.3773 C   0  0  0  0  0  0  0  0  0  0  0  0
    4.5006   -1.9316    0.8650 C   0  0  0  0  0  0  0  0  0  0  0  0
    4.9743   -2.8682   -0.2505 C   0  0  0  0  0  0  0  0  0  0  0  0
    6.4280   -2.7957   -0.4349 C   0  0  0  0  0  0  0  0  0  0  0  0
    7.5797   -2.7407   -0.5628 N   0  0  0  0  0  0  0  0  0  0  0  0
   -1.4522    0.2248   -0.5163 C   0  0  0  0  0  0  0  0  0  0  0  0
   -4.7897    0.8234    2.2719 H   0  0  0  0  0  0  0  0  0  0  0  0
   -5.9393   -0.0066    1.2179 H   0  0  0  0  0  0  0  0  0  0  0  0
   -6.3323    1.5943    1.8677 H   0  0  0  0  0  0  0  0  0  0  0  0
   -5.6861    1.7823   -0.4986 H   0  0  0  0  0  0  0  0  0  0  0  0
   -4.5490    2.6464    0.4893 H   0  0  0  0  0  0  0  0  0  0  0  0
   -3.6759   -1.0548   -1.3515 H   0  0  0  0  0  0  0  0  0  0  0  0
   -5.2798   -0.3968   -1.2569 H   0  0  0  0  0  0  0  0  0  0  0  0
   -4.4037   -0.1297   -3.5415 H   0  0  0  0  0  0  0  0  0  0  0  0
   -4.6943    1.4600   -2.8156 H   0  0  0  0  0  0  0  0  0  0  0  0
   -3.0451    0.8421   -2.9531 H   0  0  0  0  0  0  0  0  0  0  0  0
   -2.8730    2.2672    1.7748 H   0  0  0  0  0  0  0  0  0  0  0  0
   -0.5634    2.4735    2.4771 H   0  0  0  0  0  0  0  0  0  0  0  0
    1.2323    1.2763    1.3082 H   0  0  0  0  0  0  0  0  0  0  0  0
    2.1561   -1.8617   -0.6053 H   0  0  0  0  0  0  0  0  0  0  0  0
    1.6658   -1.1348    0.9254 H   0  0  0  0  0  0  0  0  0  0  0  0
    5.2723    1.3565    0.3901 H   0  0  0  0  0  0  0  0  0  0  0  0
    6.0626    0.0736   -0.5513 H   0  0  0  0  0  0  0  0  0  0  0  0
    6.1688    0.0818    1.2386 H   0  0  0  0  0  0  0  0  0  0  0  0
    3.5385   -2.2987    1.2343 H   0  0  0  0  0  0  0  0  0  0  0  0
    5.1818   -1.9490    1.7247 H   0  0  0  0  0  0  0  0  0  0  0  0
    4.7152   -3.8979    0.0232 H   0  0  0  0  0  0  0  0  0  0  0  0
    4.4618   -2.6449   -1.1924 H   0  0  0  0  0  0  0  0  0  0  0  0
   -1.6384   -0.4033   -1.3813 H   0  0  0  0  0  0  0  0  0  0  0  0
  1  2  1  0
  2  3  1  0
  3  4  1  0
  4  5  1  0
  3  6  1  0
  6  7  2  0
  7  8  1  0
  8  9  2  0
  9 10  1  0
 10 11  1  0
 11 12  1  0
 12 13  1  0
 13 14  2  0
 13 15  1  0
 15 16  1  0
 15 17  1  0
 17 18  1  0
 18 19  1  0
 19 20  3  0
 10 21  2  0
 21  6  1  0
  1 22  1  0
  1 23  1  0
  1 24  1  0
  2 25  1  0
  2 26  1  0
  4 27  1  0
  4 28  1  0
  5 29  1  0
  5 30  1  0
  5 31  1  0
  7 32  1  0
  8 33  1  0
  9 34  1  0
 12 35  1  0
 12 36  1  0
 16 37  1  0
 16 38  1  0
 16 39  1  0
 17 40  1  0
 17 41  1  0
 18 42  1  0
 18 43  1  0
 21 44  1  0
M  END
$$$$
