
     RDKit          3D

 49 52  0  0  0  0  0  0  0  0999 V2000
   -3.6567    0.2292    3.9056 O   0  0  0  0  0  0  0  0  0  0  0  0
   -3.9023    0.3313    2.7060 C   0  0  0  0  0  0  0  0  0  0  0  0
   -2.8531    0.3790    1.7013 C   0  0  0  0  0  0  0  0  0  0  0  0
   -2.9071    0.2918    0.3005 C   0  0  0  0  0  0  0  0  0  0  0  0
   -1.7075    0.3848   -0.2722 N   0  0  0  0  0  0  0  0  0  0  0  0
   -0.8303    0.4873    0.7627 N   0  0  0  0  0  0  0  0  0  0  0  0
    0.5659    0.6059    0.4848 C   0  0  0  0  0  0  0  0  0  0  0  0
    0.9426    0.9435   -0.8333 C   0  0  0  0  0  0  0  0  0  0  0  0
    2.2840    1.1422   -1.1780 C   0  0  0  0  0  0  0  0  0  0  0  0
    3.2758    0.9890   -0.2098 C   0  0  0  0  0  0  0  0  0  0  0  0
    4.9798    1.2477   -0.6359 S   0  0  0  0  0  6  0  0  0  0  0  0
    5.0465    1.8769   -1.9358 O   0  0  0  0  0  0  0  0  0  0  0  0
    5.6133    1.8487    0.5187 O   0  0  0  0  0  0  0  0  0  0  0  0
    5.5729   -0.3310   -0.7307 N   0  0  0  0  0  0  0  0  0  0  0  0
    5.2760   -1.0835   -1.8995 C   0  0  0  0  0  0  0  0  0  0  0  0
    6.0636   -0.9480   -3.0414 C   0  0  0  0  0  0  0  0  0  0  0  0
    5.7466   -1.6731   -4.1907 C   0  0  0  0  0  0  0  0  0  0  0  0
    4.6447   -2.5280   -4.1952 C   0  0  0  0  0  0  0  0  0  0  0  0
    3.8550   -2.6567   -3.0527 C   0  0  0  0  0  0  0  0  0  0  0  0
    4.1700   -1.9319   -1.9029 C   0  0  0  0  0  0  0  0  0  0  0  0
    2.9423    0.6416    1.0991 C   0  0  0  0  0  0  0  0  0  0  0  0
    1.5914    0.4387    1.4286 C   0  0  0  0  0  0  0  0  0  0  0  0
    1.3531   -0.0946    2.7508 N   0  0  0  0  0  4  0  0  0  0  0  0
    0.9592   -1.2650    2.8176 O   0  0  0  0  0  0  0  0  0  0  0  0
    1.5907    0.6524    3.7060 O   0  0  0  0  0  1  0  0  0  0  0  0
   -1.5015    0.5171    1.9624 C   0  0  0  0  0  0  0  0  0  0  0  0
   -5.3205    0.3309    2.2873 C   0  0  0  0  0  0  0  0  0  0  0  0
   -6.1304   -0.7130    2.7494 C   0  0  0  0  0  0  0  0  0  0  0  0
   -7.4725   -0.7377    2.3942 C   0  0  0  0  0  0  0  0  0  0  0  0
   -8.2475   -1.7435    2.8190 F   0  0  0  0  0  0  0  0  0  0  0  0
   -8.0256    0.2623    1.5994 C   0  0  0  0  0  0  0  0  0  0  0  0
   -7.2264    1.3167    1.1542 C   0  0  0  0  0  0  0  0  0  0  0  0
   -5.8756    1.3530    1.5060 C   0  0  0  0  0  0  0  0  0  0  0  0
   -5.1007    2.4002    1.0992 O   0  0  0  0  0  0  0  0  0  0  0  0
   -3.7733    0.1731   -0.3381 H   0  0  0  0  0  0  0  0  0  0  0  0
    0.1915    1.0811   -1.6124 H   0  0  0  0  0  0  0  0  0  0  0  0
    2.5407    1.4128   -2.2016 H   0  0  0  0  0  0  0  0  0  0  0  0
    6.5300   -0.3787   -0.3823 H   0  0  0  0  0  0  0  0  0  0  0  0
    6.9125   -0.2700   -3.0538 H   0  0  0  0  0  0  0  0  0  0  0  0
    6.3563   -1.5667   -5.0849 H   0  0  0  0  0  0  0  0  0  0  0  0
    4.3984   -3.0916   -5.0917 H   0  0  0  0  0  0  0  0  0  0  0  0
    2.9953   -3.3228   -3.0582 H   0  0  0  0  0  0  0  0  0  0  0  0
    3.5542   -2.0455   -1.0151 H   0  0  0  0  0  0  0  0  0  0  0  0
    3.7242    0.5053    1.8454 H   0  0  0  0  0  0  0  0  0  0  0  0
   -1.0189    0.6612    2.9169 H   0  0  0  0  0  0  0  0  0  0  0  0
   -5.7248   -1.5002    3.3792 H   0  0  0  0  0  0  0  0  0  0  0  0
   -9.0787    0.2152    1.3385 H   0  0  0  0  0  0  0  0  0  0  0  0
   -7.6735    2.0970    0.5451 H   0  0  0  0  0  0  0  0  0  0  0  0
   -5.6497    3.0659    0.6500 H   0  0  0  0  0  0  0  0  0  0  0  0
  1  2  2  0
  2  3  1  0
  3  4  1  0
  4  5  2  0
  5  6  1  0
  6  7  1  0
  7  8  2  0
  8  9  1  0
  9 10  2  0
 10 11  1  0
 11 12  2  0
 11 13  2  0
 11 14  1  0
 14 15  1  0
 15 16  2  0
 16 17  1  0
 17 18  2  0
 18 19  1  0
 19 20  2  0
 10 21  1  0
 21 22  2  0
 22 23  1  0
 23 24  2  0
 23 25  1  0
  6 26  1  0
  2 27  1  0
 27 28  2  0
 28 29  1  0
 29 30  1  0
 29 31  2  0
 31 32  1  0
 32 33  2  0
 33 34  1  0
 26  3  2  0
 33 27  1  0
 22  7  1  0
 20 15  1  0
  4 35  1  0
  8 36  1  0
  9 37  1  0
 14 38  1  0
 16 39  1  0
 17 40  1  0
 18 41  1  0
 19 42  1  0
 20 43  1  0
 21 44  1  0
 26 45  1  0
 28 46  1  0
 31 47  1  0
 32 48  1  0
 34 49  1  0
M  CHG  2  23   1  25  -1
M  END
$$$$
