
     RDKit          3D

 43 45  0  0  0  0  0  0  0  0999 V2000
   -5.8143   -2.1666    0.7317 C   0  0  0  0  0  0  0  0  0  0  0  0
   -5.2247   -0.8827    1.1044 N   0  0  0  0  0  0  0  0  0  0  0  0
   -5.0191   -0.6763    2.5381 C   0  0  0  0  0  0  0  0  0  0  0  0
   -4.3585   -0.2396    0.2112 C   0  0  0  0  0  0  0  0  0  0  0  0
   -3.6627    0.9304    0.5661 C   0  0  0  0  0  0  0  0  0  0  0  0
   -2.8058    1.5938   -0.3245 C   0  0  0  0  0  0  0  0  0  0  0  0
   -2.6181    1.1063   -1.6150 C   0  0  0  0  0  0  0  0  0  0  0  0
   -1.7312    1.7874   -2.5597 C   0  0  0  0  0  0  0  0  0  0  0  0
   -0.3885    1.8002   -2.5209 C   0  0  0  0  0  0  0  0  0  0  0  0
    0.4469    1.1194   -1.5481 C   0  0  0  0  0  0  0  0  0  0  0  0
    1.7863    1.1523   -1.4840 C   0  0  0  0  0  0  0  0  0  0  0  0
    2.8649    1.9904   -2.5144 S   0  0  0  0  0  0  0  0  0  0  0  0
    4.2845    1.5096   -1.5833 C   0  0  0  0  0  0  0  0  0  0  0  0
    5.7689    2.2002   -1.9393 S   0  0  0  0  0  0  0  0  0  0  0  0
    3.9135    0.6280   -0.5730 N   0  0  0  0  0  0  0  0  0  0  0  0
    4.8310   -0.0271    0.3163 C   0  0  0  0  0  0  0  0  0  0  0  0
    4.5197   -0.1881    1.6762 C   0  0  0  0  0  0  0  0  0  0  0  0
    5.4018   -0.8307    2.5509 C   0  0  0  0  0  0  0  0  0  0  0  0
    6.6076   -1.3366    2.0783 C   0  0  0  0  0  0  0  0  0  0  0  0
    6.9275   -1.2059    0.7312 C   0  0  0  0  0  0  0  0  0  0  0  0
    6.0453   -0.5604   -0.1420 C   0  0  0  0  0  0  0  0  0  0  0  0
    2.5414    0.4060   -0.4381 C   0  0  0  0  0  0  0  0  0  0  0  0
    1.9714   -0.3102    0.3773 O   0  0  0  0  0  0  0  0  0  0  0  0
   -3.3058   -0.0388   -2.0049 C   0  0  0  0  0  0  0  0  0  0  0  0
   -4.1631   -0.6918   -1.1062 C   0  0  0  0  0  0  0  0  0  0  0  0
   -6.3989   -2.0824   -0.1910 H   0  0  0  0  0  0  0  0  0  0  0  0
   -6.5155   -2.5153    1.4986 H   0  0  0  0  0  0  0  0  0  0  0  0
   -5.0431   -2.9353    0.6117 H   0  0  0  0  0  0  0  0  0  0  0  0
   -5.2369    0.3578    2.8227 H   0  0  0  0  0  0  0  0  0  0  0  0
   -5.6954   -1.3015    3.1321 H   0  0  0  0  0  0  0  0  0  0  0  0
   -3.9954   -0.9314    2.8319 H   0  0  0  0  0  0  0  0  0  0  0  0
   -3.7795    1.3701    1.5516 H   0  0  0  0  0  0  0  0  0  0  0  0
   -2.2961    2.4960    0.0037 H   0  0  0  0  0  0  0  0  0  0  0  0
   -2.2447    2.3196   -3.3581 H   0  0  0  0  0  0  0  0  0  0  0  0
    0.1176    2.3647   -3.3026 H   0  0  0  0  0  0  0  0  0  0  0  0
   -0.0802    0.5194   -0.8060 H   0  0  0  0  0  0  0  0  0  0  0  0
    3.5936    0.2043    2.0913 H   0  0  0  0  0  0  0  0  0  0  0  0
    5.1415   -0.9348    3.6015 H   0  0  0  0  0  0  0  0  0  0  0  0
    7.2923   -1.8392    2.7563 H   0  0  0  0  0  0  0  0  0  0  0  0
    7.8618   -1.6142    0.3531 H   0  0  0  0  0  0  0  0  0  0  0  0
    6.3175   -0.5298   -1.1933 H   0  0  0  0  0  0  0  0  0  0  0  0
   -3.1850   -0.4407   -3.0076 H   0  0  0  0  0  0  0  0  0  0  0  0
   -4.6725   -1.5766   -1.4757 H   0  0  0  0  0  0  0  0  0  0  0  0
  1  2  1  0
  2  3  1  0
  2  4  1  0
  4  5  2  0
  5  6  1  0
  6  7  2  0
  7  8  1  0
  8  9  2  3
  9 10  1  0
 10 11  2  3
 11 12  1  0
 12 13  1  0
 13 14  2  0
 13 15  1  0
 15 16  1  0
 16 17  2  0
 17 18  1  0
 18 19  2  0
 19 20  1  0
 20 21  2  0
 15 22  1  0
 22 23  2  0
  7 24  1  0
 24 25  2  0
 25  4  1  0
 22 11  1  0
 21 16  1  0
  1 26  1  0
  1 27  1  0
  1 28  1  0
  3 29  1  0
  3 30  1  0
  3 31  1  0
  5 32  1  0
  6 33  1  0
  8 34  1  0
  9 35  1  0
 10 36  1  0
 17 37  1  0
 18 38  1  0
 19 39  1  0
 20 40  1  0
 21 41  1  0
 24 42  1  0
 25 43  1  0
M  END
$$$$
