
     RDKit          3D

 48 51  0  0  0  0  0  0  0  0999 V2000
    3.6835    2.1936   -2.1018 C   0  0  0  0  0  0  0  0  0  0  0  0
    3.3830    2.2098   -0.6105 C   0  0  0  0  0  0  0  0  0  0  0  0
    3.0017    0.8815   -0.1356 N   0  0  0  0  0  0  0  0  0  0  0  0
    1.7278    0.3048   -0.1606 C   0  0  0  0  0  0  0  0  0  0  0  0
    0.5786    0.9216   -0.4983 C   0  0  0  0  0  0  0  0  0  0  0  0
   -0.7474    0.2900   -0.5370 C   0  0  0  0  0  0  0  0  0  0  0  0
   -1.1265   -0.3346   -1.7251 C   0  0  0  0  0  0  0  0  0  0  0  0
   -2.3650   -0.9378   -1.8259 C   0  0  0  0  0  0  0  0  0  0  0  0
   -3.2311   -0.9033   -0.7405 C   0  0  0  0  0  0  0  0  0  0  0  0
   -4.4945   -1.5063   -0.8466 C   0  0  0  0  0  0  0  0  0  0  0  0
   -5.4018   -1.4734    0.2153 C   0  0  0  0  0  0  0  0  0  0  0  0
   -6.7371   -2.1514    0.0984 C   0  0  0  0  0  0  0  0  0  0  0  0
   -5.0261   -0.8479    1.4019 C   0  0  0  0  0  0  0  0  0  0  0  0
   -3.7681   -0.2446    1.5221 C   0  0  0  0  0  0  0  0  0  0  0  0
   -2.8375   -0.2590    0.4646 C   0  0  0  0  0  0  0  0  0  0  0  0
   -1.5888    0.3187    0.5409 N   0  0  0  0  0  4  0  0  0  0  0  0
   -1.1298    0.9610    1.8098 C   0  0  0  0  0  0  0  0  0  0  0  0
   -1.5741    2.4115    1.8400 C   0  0  0  0  0  0  0  0  0  0  0  0
    1.7017   -1.4097    0.3467 S   0  0  0  0  0  0  0  0  0  0  0  0
    3.4776   -1.3402    0.5306 C   0  0  0  0  0  0  0  0  0  0  0  0
    4.2921   -2.3977    0.9116 C   0  0  0  0  0  0  0  0  0  0  0  0
    5.6653   -2.1786    0.9940 C   0  0  0  0  0  0  0  0  0  0  0  0
    6.1974   -0.9188    0.6950 C   0  0  0  0  0  0  0  0  0  0  0  0
    5.3648    0.1409    0.3110 C   0  0  0  0  0  0  0  0  0  0  0  0
    3.9909   -0.0594    0.2257 C   0  0  0  0  0  0  0  0  0  0  0  0
    4.5181    1.5247   -2.3349 H   0  0  0  0  0  0  0  0  0  0  0  0
    3.9486    3.1985   -2.4450 H   0  0  0  0  0  0  0  0  0  0  0  0
    2.8148    1.8566   -2.6769 H   0  0  0  0  0  0  0  0  0  0  0  0
    2.5747    2.9246   -0.4165 H   0  0  0  0  0  0  0  0  0  0  0  0
    4.2409    2.6049   -0.0550 H   0  0  0  0  0  0  0  0  0  0  0  0
    0.5829    1.9626   -0.8054 H   0  0  0  0  0  0  0  0  0  0  0  0
   -0.4490   -0.3628   -2.5780 H   0  0  0  0  0  0  0  0  0  0  0  0
   -2.6450   -1.4290   -2.7574 H   0  0  0  0  0  0  0  0  0  0  0  0
   -4.7861   -2.0098   -1.7697 H   0  0  0  0  0  0  0  0  0  0  0  0
   -7.1076   -2.1075   -0.9312 H   0  0  0  0  0  0  0  0  0  0  0  0
   -7.4822   -1.6597    0.7327 H   0  0  0  0  0  0  0  0  0  0  0  0
   -6.6515   -3.1996    0.4006 H   0  0  0  0  0  0  0  0  0  0  0  0
   -5.7152   -0.8232    2.2465 H   0  0  0  0  0  0  0  0  0  0  0  0
   -3.5657    0.2353    2.4743 H   0  0  0  0  0  0  0  0  0  0  0  0
   -1.5133    0.3906    2.6597 H   0  0  0  0  0  0  0  0  0  0  0  0
   -0.0439    0.8892    1.8958 H   0  0  0  0  0  0  0  0  0  0  0  0
   -1.2435    2.8886    2.7676 H   0  0  0  0  0  0  0  0  0  0  0  0
   -2.6628    2.5015    1.7812 H   0  0  0  0  0  0  0  0  0  0  0  0
   -1.1519    2.9721    1.0003 H   0  0  0  0  0  0  0  0  0  0  0  0
    3.8773   -3.3748    1.1372 H   0  0  0  0  0  0  0  0  0  0  0  0
    6.3287   -2.9893    1.2882 H   0  0  0  0  0  0  0  0  0  0  0  0
    7.2728   -0.7622    0.7606 H   0  0  0  0  0  0  0  0  0  0  0  0
    5.8223    1.0979    0.0860 H   0  0  0  0  0  0  0  0  0  0  0  0
  1  2  1  0
  2  3  1  0
  3  4  1  0
  4  5  2  3
  5  6  1  0
  6  7  2  0
  7  8  1  0
  8  9  2  0
  9 10  1  0
 10 11  2  0
 11 12  1  0
 11 13  1  0
 13 14  2  0
 14 15  1  0
 15 16  2  0
 16 17  1  0
 17 18  1  0
  4 19  1  0
 19 20  1  0
 20 21  2  0
 21 22  1  0
 22 23  2  0
 23 24  1  0
 24 25  2  0
 25  3  1  0
 16  6  1  0
 25 20  1  0
 15  9  1  0
  1 26  1  0
  1 27  1  0
  1 28  1  0
  2 29  1  0
  2 30  1  0
  5 31  1  0
  7 32  1  0
  8 33  1  0
 10 34  1  0
 12 35  1  0
 12 36  1  0
 12 37  1  0
 13 38  1  0
 14 39  1  0
 17 40  1  0
 17 41  1  0
 18 42  1  0
 18 43  1  0
 18 44  1  0
 21 45  1  0
 22 46  1  0
 23 47  1  0
 24 48  1  0
M  CHG  1  16   1
M  END
$$$$
