
     RDKit          3D

 61 65  0  0  0  0  0  0  0  0999 V2000
   -8.1425   -0.7835    2.4889 C   0  0  0  0  0  0  0  0  0  0  0  0
   -7.7215   -0.4530    1.1737 O   0  0  0  0  0  0  0  0  0  0  0  0
   -6.4399    0.0093    1.0104 C   0  0  0  0  0  0  0  0  0  0  0  0
   -5.5092    0.1417    2.0454 C   0  0  0  0  0  0  0  0  0  0  0  0
   -4.2275    0.6353    1.7822 C   0  0  0  0  0  0  0  0  0  0  0  0
   -3.8510    1.0046    0.4848 C   0  0  0  0  0  0  0  0  0  0  0  0
   -2.5112    1.5351    0.2479 C   0  0  0  0  0  0  0  0  0  0  0  0
   -1.5451    1.7838    1.1123 N   0  0  0  0  0  0  0  0  0  0  0  0
   -0.5143    2.2962    0.3454 C   0  0  0  0  0  0  0  0  0  0  0  0
    0.7335    2.7564    1.0121 C   0  0  0  0  0  0  0  0  0  0  0  0
    1.9428    2.3470    0.3162 N   0  0  0  0  0  0  0  0  0  0  0  0
    2.5776    1.1315    0.3923 C   0  0  0  0  0  0  0  0  0  0  0  0
    1.9538   -0.2143    1.2868 S   0  0  0  0  0  0  0  0  0  0  0  0
    3.4742   -0.8826    2.0285 C   0  0  0  0  0  0  0  0  0  0  0  0
    4.0367   -2.0720    1.2850 C   0  0  0  0  0  0  0  0  0  0  0  0
    3.5877   -3.3712    1.5622 C   0  0  0  0  0  0  0  0  0  0  0  0
    4.1364   -4.4737    0.8985 C   0  0  0  0  0  0  0  0  0  0  0  0
    5.1288   -4.2971   -0.0698 C   0  0  0  0  0  0  0  0  0  0  0  0
    5.7415   -5.4835   -0.7603 C   0  0  0  0  0  0  0  0  0  0  0  0
    5.5772   -3.0017   -0.3504 C   0  0  0  0  0  0  0  0  0  0  0  0
    5.0304   -1.9004    0.3132 C   0  0  0  0  0  0  0  0  0  0  0  0
    3.6924    1.1194   -0.2986 N   0  0  0  0  0  0  0  0  0  0  0  0
    3.7937    2.3656   -0.8571 C   0  0  0  0  0  0  0  0  0  0  0  0
    4.7794    2.8796   -1.7001 C   0  0  0  0  0  0  0  0  0  0  0  0
    4.6041    4.1918   -2.0957 C   0  0  0  0  0  0  0  0  0  0  0  0
    3.5714    4.9814   -1.7160 N   0  0  0  0  0  0  0  0  0  0  0  0
    2.6200    4.4858   -0.8904 C   0  0  0  0  0  0  0  0  0  0  0  0
    2.7253    3.1675   -0.4727 C   0  0  0  0  0  0  0  0  0  0  0  0
   -0.9139    2.3348   -0.9782 C   0  0  0  0  0  0  0  0  0  0  0  0
   -0.3125    2.7679   -2.2534 C   0  0  0  0  0  0  0  0  0  0  0  0
   -2.1908    1.8526   -1.0456 O   0  0  0  0  0  0  0  0  0  0  0  0
   -4.7863    0.8619   -0.5530 C   0  0  0  0  0  0  0  0  0  0  0  0
   -6.0726    0.3650   -0.3031 C   0  0  0  0  0  0  0  0  0  0  0  0
   -7.0348    0.1871   -1.2675 O   0  0  0  0  0  0  0  0  0  0  0  0
   -6.7041    0.5377   -2.6066 C   0  0  0  0  0  0  0  0  0  0  0  0
   -8.0705    0.0775    3.1658 H   0  0  0  0  0  0  0  0  0  0  0  0
   -7.5770   -1.6368    2.8807 H   0  0  0  0  0  0  0  0  0  0  0  0
   -9.1952   -1.0769    2.4359 H   0  0  0  0  0  0  0  0  0  0  0  0
   -5.7460   -0.1291    3.0697 H   0  0  0  0  0  0  0  0  0  0  0  0
   -3.5173    0.7340    2.6050 H   0  0  0  0  0  0  0  0  0  0  0  0
    0.7946    2.3802    2.0395 H   0  0  0  0  0  0  0  0  0  0  0  0
    0.7295    3.8502    1.0834 H   0  0  0  0  0  0  0  0  0  0  0  0
    3.2219   -1.1936    3.0536 H   0  0  0  0  0  0  0  0  0  0  0  0
    4.2406   -0.1034    2.1454 H   0  0  0  0  0  0  0  0  0  0  0  0
    2.8099   -3.5362    2.3011 H   0  0  0  0  0  0  0  0  0  0  0  0
    3.7809   -5.4733    1.1411 H   0  0  0  0  0  0  0  0  0  0  0  0
    5.0053   -6.2869   -0.8906 H   0  0  0  0  0  0  0  0  0  0  0  0
    6.5852   -5.8649   -0.1717 H   0  0  0  0  0  0  0  0  0  0  0  0
    6.1059   -5.2130   -1.7588 H   0  0  0  0  0  0  0  0  0  0  0  0
    6.3529   -2.8379   -1.0938 H   0  0  0  0  0  0  0  0  0  0  0  0
    5.3869   -0.9017    0.0649 H   0  0  0  0  0  0  0  0  0  0  0  0
    5.6217    2.2857   -2.0269 H   0  0  0  0  0  0  0  0  0  0  0  0
    5.3250    4.6642   -2.7595 H   0  0  0  0  0  0  0  0  0  0  0  0
    1.8135    5.1546   -0.6129 H   0  0  0  0  0  0  0  0  0  0  0  0
    0.5283    2.1217   -2.5261 H   0  0  0  0  0  0  0  0  0  0  0  0
   -1.0430    2.7252   -3.0686 H   0  0  0  0  0  0  0  0  0  0  0  0
    0.0394    3.7996   -2.1830 H   0  0  0  0  0  0  0  0  0  0  0  0
   -4.4906    1.1476   -1.5557 H   0  0  0  0  0  0  0  0  0  0  0  0
   -6.4924    1.6105   -2.6915 H   0  0  0  0  0  0  0  0  0  0  0  0
   -5.8670   -0.0673   -2.9749 H   0  0  0  0  0  0  0  0  0  0  0  0
   -7.5721    0.3180   -3.2391 H   0  0  0  0  0  0  0  0  0  0  0  0
  1  2  1  0
  2  3  1  0
  3  4  2  0
  4  5  1  0
  5  6  2  0
  6  7  1  0
  7  8  2  0
  8  9  1  0
  9 10  1  0
 10 11  1  0
 11 12  1  0
 12 13  1  0
 13 14  1  0
 14 15  1  0
 15 16  2  0
 16 17  1  0
 17 18  2  0
 18 19  1  0
 18 20  1  0
 20 21  2  0
 12 22  2  0
 22 23  1  0
 23 24  2  0
 24 25  1  0
 25 26  2  0
 26 27  1  0
 27 28  2  0
  9 29  2  0
 29 30  1  0
 29 31  1  0
  6 32  1  0
 32 33  2  0
 33 34  1  0
 34 35  1  0
 33  3  1  0
 31  7  1  0
 28 11  1  0
 21 15  1  0
 28 23  1  0
  1 36  1  0
  1 37  1  0
  1 38  1  0
  4 39  1  0
  5 40  1  0
 10 41  1  0
 10 42  1  0
 14 43  1  0
 14 44  1  0
 16 45  1  0
 17 46  1  0
 19 47  1  0
 19 48  1  0
 19 49  1  0
 20 50  1  0
 21 51  1  0
 24 52  1  0
 25 53  1  0
 27 54  1  0
 30 55  1  0
 30 56  1  0
 30 57  1  0
 32 58  1  0
 35 59  1  0
 35 60  1  0
 35 61  1  0
M  END
$$$$
