
     RDKit          3D

 49 52  0  0  0  0  0  0  0  0999 V2000
   -3.6793    2.6880    2.4332 O   0  0  0  0  0  0  0  0  0  0  0  0
   -3.8547    1.5669    1.9561 C   0  0  0  0  0  0  0  0  0  0  0  0
   -2.7433    0.6762    1.6697 C   0  0  0  0  0  0  0  0  0  0  0  0
   -2.6831   -0.7173    1.5050 C   0  0  0  0  0  0  0  0  0  0  0  0
   -1.4553   -1.1516    1.2276 N   0  0  0  0  0  0  0  0  0  0  0  0
   -0.6598   -0.0519    1.3159 N   0  0  0  0  0  0  0  0  0  0  0  0
    0.7479   -0.1884    1.1111 C   0  0  0  0  0  0  0  0  0  0  0  0
    1.2092   -1.3892    0.5286 C   0  0  0  0  0  0  0  0  0  0  0  0
    2.5635   -1.5809    0.2310 C   0  0  0  0  0  0  0  0  0  0  0  0
    3.4833   -0.5708    0.5120 C   0  0  0  0  0  0  0  0  0  0  0  0
    5.2063   -0.8176    0.1569 S   0  0  0  0  0  6  0  0  0  0  0  0
    5.9501   -0.0973    1.1685 O   0  0  0  0  0  0  0  0  0  0  0  0
    5.4360   -2.2256   -0.0769 O   0  0  0  0  0  0  0  0  0  0  0  0
    5.4066    0.0475   -1.2800 N   0  0  0  0  0  0  0  0  0  0  0  0
    4.9730   -0.5617   -2.4889 C   0  0  0  0  0  0  0  0  0  0  0  0
    5.7947   -1.4713   -3.1529 C   0  0  0  0  0  0  0  0  0  0  0  0
    5.3448   -2.0838   -4.3233 C   0  0  0  0  0  0  0  0  0  0  0  0
    4.0771   -1.7865   -4.8243 C   0  0  0  0  0  0  0  0  0  0  0  0
    3.2565   -0.8779   -4.1556 C   0  0  0  0  0  0  0  0  0  0  0  0
    3.7038   -0.2657   -2.9843 C   0  0  0  0  0  0  0  0  0  0  0  0
    3.0701    0.6111    1.1263 C   0  0  0  0  0  0  0  0  0  0  0  0
    1.7076    0.7870    1.4245 C   0  0  0  0  0  0  0  0  0  0  0  0
    1.3903    1.9793    2.1774 N   0  0  0  0  0  4  0  0  0  0  0  0
    1.5168    3.0590    1.5872 O   0  0  0  0  0  0  0  0  0  0  0  0
    1.0312    1.8241    3.3499 O   0  0  0  0  0  1  0  0  0  0  0  0
   -1.4236    1.0713    1.5355 C   0  0  0  0  0  0  0  0  0  0  0  0
   -5.2566    1.1415    1.7213 C   0  0  0  0  0  0  0  0  0  0  0  0
   -5.6058    0.3347    0.6322 C   0  0  0  0  0  0  0  0  0  0  0  0
   -6.9341   -0.0439    0.4589 C   0  0  0  0  0  0  0  0  0  0  0  0
   -7.2605   -0.8231   -0.5799 F   0  0  0  0  0  0  0  0  0  0  0  0
   -7.9268    0.3735    1.3383 C   0  0  0  0  0  0  0  0  0  0  0  0
   -7.5918    1.2043    2.4054 C   0  0  0  0  0  0  0  0  0  0  0  0
   -6.2662    1.5990    2.5844 C   0  0  0  0  0  0  0  0  0  0  0  0
   -6.0254    2.4462    3.6325 O   0  0  0  0  0  0  0  0  0  0  0  0
   -3.4813   -1.4475    1.5625 H   0  0  0  0  0  0  0  0  0  0  0  0
    0.5161   -2.1939    0.2778 H   0  0  0  0  0  0  0  0  0  0  0  0
    2.8851   -2.5165   -0.2257 H   0  0  0  0  0  0  0  0  0  0  0  0
    6.3135    0.5143   -1.2976 H   0  0  0  0  0  0  0  0  0  0  0  0
    6.7758   -1.7240   -2.7600 H   0  0  0  0  0  0  0  0  0  0  0  0
    5.9801   -2.7987   -4.8404 H   0  0  0  0  0  0  0  0  0  0  0  0
    3.7280   -2.2658   -5.7360 H   0  0  0  0  0  0  0  0  0  0  0  0
    2.2696   -0.6465   -4.5485 H   0  0  0  0  0  0  0  0  0  0  0  0
    3.0630    0.4475   -2.4744 H   0  0  0  0  0  0  0  0  0  0  0  0
    3.8002    1.3764    1.3889 H   0  0  0  0  0  0  0  0  0  0  0  0
   -1.0200    2.0718    1.5667 H   0  0  0  0  0  0  0  0  0  0  0  0
   -4.8782    0.0061   -0.1028 H   0  0  0  0  0  0  0  0  0  0  0  0
   -8.9550    0.0628    1.1796 H   0  0  0  0  0  0  0  0  0  0  0  0
   -8.3604    1.5555    3.0896 H   0  0  0  0  0  0  0  0  0  0  0  0
   -5.1387    2.8532    3.5091 H   0  0  0  0  0  0  0  0  0  0  0  0
  1  2  2  0
  2  3  1  0
  3  4  1  0
  4  5  2  0
  5  6  1  0
  6  7  1  0
  7  8  2  0
  8  9  1  0
  9 10  2  0
 10 11  1  0
 11 12  2  0
 11 13  2  0
 11 14  1  0
 14 15  1  0
 15 16  2  0
 16 17  1  0
 17 18  2  0
 18 19  1  0
 19 20  2  0
 10 21  1  0
 21 22  2  0
 22 23  1  0
 23 24  2  0
 23 25  1  0
  6 26  1  0
  2 27  1  0
 27 28  2  0
 28 29  1  0
 29 30  1  0
 29 31  2  0
 31 32  1  0
 32 33  2  0
 33 34  1  0
 26  3  2  0
 33 27  1  0
 22  7  1  0
 20 15  1  0
  4 35  1  0
  8 36  1  0
  9 37  1  0
 14 38  1  0
 16 39  1  0
 17 40  1  0
 18 41  1  0
 19 42  1  0
 20 43  1  0
 21 44  1  0
 26 45  1  0
 28 46  1  0
 31 47  1  0
 32 48  1  0
 34 49  1  0
M  CHG  2  23   1  25  -1
M  END
$$$$
