
     RDKit          3D

 53 52  0  0  0  0  0  0  0  0999 V2000
   -7.6366    0.5623   -0.3499 C   0  0  0  0  0  0  0  0  0  0  0  0
   -6.7774    1.8229   -0.4685 C   0  0  0  0  0  0  0  0  0  0  0  0
   -7.0203    2.7278    0.7424 C   0  0  0  0  0  0  0  0  0  0  0  0
   -5.2756    1.5054   -0.5892 C   0  0  0  0  0  0  0  0  0  0  0  0
   -4.9254    0.6509   -1.8075 C   0  0  0  0  0  0  0  0  0  0  0  0
   -3.4932    0.4567   -1.9241 N   0  0  0  0  0  0  0  0  0  0  0  0
   -2.6877    1.3863   -2.5438 C   0  0  0  0  0  0  0  0  0  0  0  0
   -3.1105    2.3887   -3.1154 O   0  0  0  0  0  0  0  0  0  0  0  0
   -1.2092    1.0758   -2.4591 C   0  0  0  0  0  0  0  0  0  0  0  0
   -0.5063    2.0156   -1.4886 C   0  0  0  0  0  0  0  0  0  0  0  0
   -0.8571    1.6311    0.2682 S   0  0  0  0  0  0  0  0  0  0  0  0
    0.2540    0.2012    0.5373 C   0  0  0  0  0  0  0  0  0  0  0  0
    1.7140    0.6284    0.6652 C   0  0  0  0  0  0  0  0  0  0  0  0
    2.5858   -0.5467    1.0595 C   0  0  0  0  0  0  0  0  0  0  0  0
    2.1738   -1.6989    1.1395 O   0  0  0  0  0  0  0  0  0  0  0  0
    3.8902   -0.1853    1.3060 N   0  0  0  0  0  0  0  0  0  0  0  0
    4.9012   -1.1492    1.6959 C   0  0  0  0  0  0  0  0  0  0  0  0
    5.5067   -1.8481    0.4788 C   0  0  0  0  0  0  0  0  0  0  0  0
    6.6868   -2.7919    0.7847 C   0  0  0  0  0  0  0  0  0  0  0  0
    6.2885   -3.9440    1.7113 C   0  0  0  0  0  0  0  0  0  0  0  0
    7.8920   -2.0413    1.3541 C   0  0  0  0  0  0  0  0  0  0  0  0
   -7.5891   -0.0381   -1.2633 H   0  0  0  0  0  0  0  0  0  0  0  0
   -8.6890    0.8213   -0.1892 H   0  0  0  0  0  0  0  0  0  0  0  0
   -7.3119   -0.0613    0.4870 H   0  0  0  0  0  0  0  0  0  0  0  0
   -7.0932    2.3694   -1.3660 H   0  0  0  0  0  0  0  0  0  0  0  0
   -6.7119    2.2378    1.6732 H   0  0  0  0  0  0  0  0  0  0  0  0
   -8.0810    2.9852    0.8312 H   0  0  0  0  0  0  0  0  0  0  0  0
   -6.4576    3.6631    0.6482 H   0  0  0  0  0  0  0  0  0  0  0  0
   -4.9285    0.9947    0.3166 H   0  0  0  0  0  0  0  0  0  0  0  0
   -4.7164    2.4483   -0.6382 H   0  0  0  0  0  0  0  0  0  0  0  0
   -5.3004    1.1146   -2.7264 H   0  0  0  0  0  0  0  0  0  0  0  0
   -5.3636   -0.3487   -1.7195 H   0  0  0  0  0  0  0  0  0  0  0  0
   -3.0599   -0.1942   -1.2767 H   0  0  0  0  0  0  0  0  0  0  0  0
   -0.8016    1.2205   -3.4675 H   0  0  0  0  0  0  0  0  0  0  0  0
   -1.0411    0.0225   -2.2119 H   0  0  0  0  0  0  0  0  0  0  0  0
    0.5745    1.9906   -1.6536 H   0  0  0  0  0  0  0  0  0  0  0  0
   -0.8275    3.0485   -1.6620 H   0  0  0  0  0  0  0  0  0  0  0  0
   -0.0772   -0.2786    1.4670 H   0  0  0  0  0  0  0  0  0  0  0  0
    0.1211   -0.5382   -0.2625 H   0  0  0  0  0  0  0  0  0  0  0  0
    2.0955    1.0184   -0.2867 H   0  0  0  0  0  0  0  0  0  0  0  0
    1.8227    1.4084    1.4322 H   0  0  0  0  0  0  0  0  0  0  0  0
    4.1825    0.7652    1.1236 H   0  0  0  0  0  0  0  0  0  0  0  0
    5.6590   -0.5908    2.2522 H   0  0  0  0  0  0  0  0  0  0  0  0
    4.4435   -1.8789    2.3738 H   0  0  0  0  0  0  0  0  0  0  0  0
    4.7221   -2.4182   -0.0328 H   0  0  0  0  0  0  0  0  0  0  0  0
    5.8408   -1.0902   -0.2428 H   0  0  0  0  0  0  0  0  0  0  0  0
    6.9988   -3.2332   -0.1724 H   0  0  0  0  0  0  0  0  0  0  0  0
    5.4056   -4.4699    1.3306 H   0  0  0  0  0  0  0  0  0  0  0  0
    6.0634   -3.5886    2.7246 H   0  0  0  0  0  0  0  0  0  0  0  0
    7.1067   -4.6725    1.7860 H   0  0  0  0  0  0  0  0  0  0  0  0
    8.1600   -1.1888    0.7197 H   0  0  0  0  0  0  0  0  0  0  0  0
    8.7656   -2.7004    1.4119 H   0  0  0  0  0  0  0  0  0  0  0  0
    7.6945   -1.6656    2.3646 H   0  0  0  0  0  0  0  0  0  0  0  0
  1  2  1  0
  2  3  1  0
  2  4  1  0
  4  5  1  0
  5  6  1  0
  6  7  1  0
  7  8  2  0
  7  9  1  0
  9 10  1  0
 10 11  1  0
 11 12  1  0
 12 13  1  0
 13 14  1  0
 14 15  2  0
 14 16  1  0
 16 17  1  0
 17 18  1  0
 18 19  1  0
 19 20  1  0
 19 21  1  0
  1 22  1  0
  1 23  1  0
  1 24  1  0
  2 25  1  0
  3 26  1  0
  3 27  1  0
  3 28  1  0
  4 29  1  0
  4 30  1  0
  5 31  1  0
  5 32  1  0
  6 33  1  0
  9 34  1  0
  9 35  1  0
 10 36  1  0
 10 37  1  0
 12 38  1  0
 12 39  1  0
 13 40  1  0
 13 41  1  0
 16 42  1  0
 17 43  1  0
 17 44  1  0
 18 45  1  0
 18 46  1  0
 19 47  1  0
 20 48  1  0
 20 49  1  0
 20 50  1  0
 21 51  1  0
 21 52  1  0
 21 53  1  0
M  END
$$$$
