
     RDKit          3D

 55 58  0  0  0  0  0  0  0  0999 V2000
    8.5939    2.1356    0.6912 C   0  0  0  0  0  0  0  0  0  0  0  0
    7.9154    0.9155    0.9514 O   0  0  0  0  0  0  0  0  0  0  0  0
    6.5800    0.8466    0.6423 C   0  0  0  0  0  0  0  0  0  0  0  0
    5.8469    1.8910    0.0686 C   0  0  0  0  0  0  0  0  0  0  0  0
    4.4870    1.7308   -0.2153 C   0  0  0  0  0  0  0  0  0  0  0  0
    3.8518    0.5179    0.0638 C   0  0  0  0  0  0  0  0  0  0  0  0
    2.4038    0.3030   -0.2215 C   0  0  0  0  0  0  0  0  0  0  0  0
    1.8512    0.9537   -1.4529 C   0  0  0  0  0  0  0  0  0  0  0  0
    0.5408    0.7571   -1.6986 C   0  0  0  0  0  0  0  0  0  0  0  0
   -0.1716    1.3144   -2.8703 C   0  0  0  0  0  0  0  0  0  0  0  0
   -1.1728    2.1614   -2.5254 F   0  0  0  0  0  0  0  0  0  0  0  0
    0.6698    2.0390   -3.6622 F   0  0  0  0  0  0  0  0  0  0  0  0
   -0.6989    0.3562   -3.6730 F   0  0  0  0  0  0  0  0  0  0  0  0
   -0.2129   -0.0213   -0.8283 N   0  0  0  0  0  0  0  0  0  0  0  0
   -1.5287   -0.3286   -0.9021 N   0  0  0  0  0  0  0  0  0  0  0  0
   -1.7862   -1.1181    0.1551 C   0  0  0  0  0  0  0  0  0  0  0  0
   -3.1158   -1.6758    0.5057 C   0  0  0  0  0  0  0  0  0  0  0  0
   -3.2825   -2.1438    1.6353 O   0  0  0  0  0  0  0  0  0  0  0  0
   -4.1631   -1.6735   -0.4281 N   0  0  0  0  0  0  0  0  0  0  0  0
   -4.0539   -1.1800   -1.7932 C   0  0  0  0  0  0  0  0  0  0  0  0
   -5.5081   -1.9672    0.0570 C   0  0  0  0  0  0  0  0  0  0  0  0
   -6.3084   -0.7143    0.3297 C   0  0  0  0  0  0  0  0  0  0  0  0
   -7.2654   -0.2599   -0.5893 C   0  0  0  0  0  0  0  0  0  0  0  0
   -7.9904    0.9064   -0.3382 C   0  0  0  0  0  0  0  0  0  0  0  0
   -7.7653    1.6308    0.8310 C   0  0  0  0  0  0  0  0  0  0  0  0
   -6.8146    1.1912    1.7501 C   0  0  0  0  0  0  0  0  0  0  0  0
   -6.0886    0.0258    1.5008 C   0  0  0  0  0  0  0  0  0  0  0  0
   -0.6116   -1.3020    0.9288 C   0  0  0  0  0  0  0  0  0  0  0  0
    0.3832   -0.6079    0.2877 C   0  0  0  0  0  0  0  0  0  0  0  0
    1.7048   -0.4455    0.5843 N   0  0  0  0  0  0  0  0  0  0  0  0
    4.5764   -0.5257    0.6552 C   0  0  0  0  0  0  0  0  0  0  0  0
    5.9365   -0.3706    0.9451 C   0  0  0  0  0  0  0  0  0  0  0  0
    6.7228   -1.3448    1.5096 O   0  0  0  0  0  0  0  0  0  0  0  0
    6.0766   -2.5183    1.9838 C   0  0  0  0  0  0  0  0  0  0  0  0
    9.6352    2.0128    1.0045 H   0  0  0  0  0  0  0  0  0  0  0  0
    8.1664    2.9578    1.2745 H   0  0  0  0  0  0  0  0  0  0  0  0
    8.5941    2.3669   -0.3789 H   0  0  0  0  0  0  0  0  0  0  0  0
    6.3041    2.8478   -0.1621 H   0  0  0  0  0  0  0  0  0  0  0  0
    3.9421    2.5745   -0.6290 H   0  0  0  0  0  0  0  0  0  0  0  0
    2.4924    1.5226   -2.1139 H   0  0  0  0  0  0  0  0  0  0  0  0
   -4.8944   -1.5458   -2.3913 H   0  0  0  0  0  0  0  0  0  0  0  0
   -3.1401   -1.5528   -2.2617 H   0  0  0  0  0  0  0  0  0  0  0  0
   -4.0666   -0.0865   -1.7852 H   0  0  0  0  0  0  0  0  0  0  0  0
   -5.4746   -2.5704    0.9719 H   0  0  0  0  0  0  0  0  0  0  0  0
   -6.0123   -2.5941   -0.6889 H   0  0  0  0  0  0  0  0  0  0  0  0
   -7.4512   -0.8111   -1.5081 H   0  0  0  0  0  0  0  0  0  0  0  0
   -8.7301    1.2514   -1.0558 H   0  0  0  0  0  0  0  0  0  0  0  0
   -8.3293    2.5391    1.0255 H   0  0  0  0  0  0  0  0  0  0  0  0
   -6.6357    1.7559    2.6613 H   0  0  0  0  0  0  0  0  0  0  0  0
   -5.3468   -0.3060    2.2256 H   0  0  0  0  0  0  0  0  0  0  0  0
   -0.5130   -1.8714    1.8423 H   0  0  0  0  0  0  0  0  0  0  0  0
    4.0584   -1.4546    0.8731 H   0  0  0  0  0  0  0  0  0  0  0  0
    5.3119   -2.2775    2.7298 H   0  0  0  0  0  0  0  0  0  0  0  0
    5.6550   -3.0962    1.1550 H   0  0  0  0  0  0  0  0  0  0  0  0
    6.8321   -3.1416    2.4719 H   0  0  0  0  0  0  0  0  0  0  0  0
  1  2  1  0
  2  3  1  0
  3  4  2  0
  4  5  1  0
  5  6  2  0
  6  7  1  0
  7  8  1  0
  8  9  2  0
  9 10  1  0
 10 11  1  0
 10 12  1  0
 10 13  1  0
  9 14  1  0
 14 15  1  0
 15 16  2  0
 16 17  1  0
 17 18  2  0
 17 19  1  0
 19 20  1  0
 19 21  1  0
 21 22  1  0
 22 23  2  0
 23 24  1  0
 24 25  2  0
 25 26  1  0
 26 27  2  0
 16 28  1  0
 28 29  2  0
 29 30  1  0
  6 31  1  0
 31 32  2  0
 32 33  1  0
 33 34  1  0
 32  3  1  0
 30  7  2  0
 29 14  1  0
 27 22  1  0
  1 35  1  0
  1 36  1  0
  1 37  1  0
  4 38  1  0
  5 39  1  0
  8 40  1  0
 20 41  1  0
 20 42  1  0
 20 43  1  0
 21 44  1  0
 21 45  1  0
 23 46  1  0
 24 47  1  0
 25 48  1  0
 26 49  1  0
 27 50  1  0
 28 51  1  0
 31 52  1  0
 34 53  1  0
 34 54  1  0
 34 55  1  0
M  END
$$$$
