
     RDKit          3D

 57 59  0  0  0  0  0  0  0  0999 V2000
   -9.1983   -0.8627   -1.8226 C   0  0  0  0  0  0  0  0  0  0  0  0
   -8.6146   -0.6378   -0.5437 O   0  0  0  0  0  0  0  0  0  0  0  0
   -7.2631   -0.8207   -0.4391 C   0  0  0  0  0  0  0  0  0  0  0  0
   -6.4077   -1.2248   -1.4661 C   0  0  0  0  0  0  0  0  0  0  0  0
   -5.0367   -1.3655   -1.2267 C   0  0  0  0  0  0  0  0  0  0  0  0
   -4.5195   -1.0808    0.0410 C   0  0  0  0  0  0  0  0  0  0  0  0
   -2.7739   -1.2676    0.3528 S   0  0  0  0  0  6  0  0  0  0  0  0
   -2.2434   -2.1210   -0.6888 O   0  0  0  0  0  0  0  0  0  0  0  0
   -2.6208   -1.6009    1.7534 O   0  0  0  0  0  0  0  0  0  0  0  0
   -2.1549    0.2719    0.1179 N   0  0  0  0  0  0  0  0  0  0  0  0
   -2.5325    1.3701    1.0082 C   0  0  0  0  0  0  0  0  0  0  0  0
   -3.0857    2.4024    0.0524 C   0  0  0  0  0  0  0  0  0  0  0  0
   -2.3144    2.2184   -1.1388 O   0  0  0  0  0  0  0  0  0  0  0  0
   -2.1021    0.7978   -1.2559 C   0  0  0  0  0  0  0  0  0  0  0  0
   -0.7307    0.5348   -1.9087 C   0  0  0  0  0  0  0  0  0  0  0  0
    0.3840    0.9868   -1.0931 N   0  0  0  0  0  0  0  0  0  0  0  0
    1.6906    0.6974   -1.3903 C   0  0  0  0  0  0  0  0  0  0  0  0
    2.0883    0.0739   -2.3630 O   0  0  0  0  0  0  0  0  0  0  0  0
    2.6914    1.2294   -0.3379 C   0  0  0  0  0  0  0  0  0  0  0  0
    2.2921    1.9196    0.5895 O   0  0  0  0  0  0  0  0  0  0  0  0
    3.9845    0.8312   -0.5630 N   0  0  0  0  0  0  0  0  0  0  0  0
    5.0882    1.1855    0.2998 C   0  0  0  0  0  0  0  0  0  0  0  0
    5.7235   -0.0241    0.9518 C   0  0  0  0  0  0  0  0  0  0  0  0
    4.9144   -1.0530    1.4681 C   0  0  0  0  0  0  0  0  0  0  0  0
    5.4770   -2.1629    2.0962 C   0  0  0  0  0  0  0  0  0  0  0  0
    6.8581   -2.2573    2.2245 C   0  0  0  0  0  0  0  0  0  0  0  0
    7.6767   -1.2328    1.7454 C   0  0  0  0  0  0  0  0  0  0  0  0
    7.1207   -0.1075    1.1244 C   0  0  0  0  0  0  0  0  0  0  0  0
    7.8506    0.9529    0.6517 O   0  0  0  0  0  0  0  0  0  0  0  0
    9.2385    0.9762    0.9565 C   0  0  0  0  0  0  0  0  0  0  0  0
   -5.3726   -0.7169    1.0840 C   0  0  0  0  0  0  0  0  0  0  0  0
   -6.7396   -0.5760    0.8346 C   0  0  0  0  0  0  0  0  0  0  0  0
  -10.2696   -0.6628   -1.7427 H   0  0  0  0  0  0  0  0  0  0  0  0
   -8.7881   -0.1758   -2.5683 H   0  0  0  0  0  0  0  0  0  0  0  0
   -9.0762   -1.9055   -2.1345 H   0  0  0  0  0  0  0  0  0  0  0  0
   -6.7765   -1.4501   -2.4615 H   0  0  0  0  0  0  0  0  0  0  0  0
   -4.3879   -1.7027   -2.0320 H   0  0  0  0  0  0  0  0  0  0  0  0
   -3.2440    1.1051    1.7903 H   0  0  0  0  0  0  0  0  0  0  0  0
   -1.6215    1.7400    1.4906 H   0  0  0  0  0  0  0  0  0  0  0  0
   -2.9757    3.4255    0.4204 H   0  0  0  0  0  0  0  0  0  0  0  0
   -4.1390    2.2164   -0.1840 H   0  0  0  0  0  0  0  0  0  0  0  0
   -2.9024    0.4064   -1.8894 H   0  0  0  0  0  0  0  0  0  0  0  0
   -0.5878   -0.5331   -2.1050 H   0  0  0  0  0  0  0  0  0  0  0  0
   -0.6596    1.0681   -2.8637 H   0  0  0  0  0  0  0  0  0  0  0  0
    0.2035    1.5045   -0.2370 H   0  0  0  0  0  0  0  0  0  0  0  0
    4.1563    0.2538   -1.3810 H   0  0  0  0  0  0  0  0  0  0  0  0
    4.7625    1.8885    1.0762 H   0  0  0  0  0  0  0  0  0  0  0  0
    5.8014    1.7023   -0.3516 H   0  0  0  0  0  0  0  0  0  0  0  0
    3.8331   -0.9926    1.3871 H   0  0  0  0  0  0  0  0  0  0  0  0
    4.8363   -2.9507    2.4836 H   0  0  0  0  0  0  0  0  0  0  0  0
    7.2993   -3.1245    2.7079 H   0  0  0  0  0  0  0  0  0  0  0  0
    8.7467   -1.3438    1.8771 H   0  0  0  0  0  0  0  0  0  0  0  0
    9.4089    0.9439    2.0392 H   0  0  0  0  0  0  0  0  0  0  0  0
    9.6454    1.9206    0.5845 H   0  0  0  0  0  0  0  0  0  0  0  0
    9.7645    0.1632    0.4464 H   0  0  0  0  0  0  0  0  0  0  0  0
   -4.9911   -0.5472    2.0878 H   0  0  0  0  0  0  0  0  0  0  0  0
   -7.4067   -0.2853    1.6429 H   0  0  0  0  0  0  0  0  0  0  0  0
  1  2  1  0
  2  3  1  0
  3  4  2  0
  4  5  1  0
  5  6  2  0
  6  7  1  0
  7  8  2  0
  7  9  2  0
  7 10  1  0
 10 11  1  0
 11 12  1  0
 12 13  1  0
 13 14  1  0
 14 15  1  0
 15 16  1  0
 16 17  1  0
 17 18  2  0
 17 19  1  0
 19 20  2  0
 19 21  1  0
 21 22  1  0
 22 23  1  0
 23 24  2  0
 24 25  1  0
 25 26  2  0
 26 27  1  0
 27 28  2  0
 28 29  1  0
 29 30  1  0
  6 31  1  0
 31 32  2  0
 32  3  1  0
 14 10  1  0
 28 23  1  0
  1 33  1  0
  1 34  1  0
  1 35  1  0
  4 36  1  0
  5 37  1  0
 11 38  1  0
 11 39  1  0
 12 40  1  0
 12 41  1  0
 14 42  1  0
 15 43  1  0
 15 44  1  0
 16 45  1  0
 21 46  1  0
 22 47  1  0
 22 48  1  0
 24 49  1  0
 25 50  1  0
 26 51  1  0
 27 52  1  0
 30 53  1  0
 30 54  1  0
 30 55  1  0
 31 56  1  0
 32 57  1  0
M  END
$$$$
