
     RDKit          3D

 26 27  0  0  0  0  0  0  0  0999 V2000
    1.3790   -2.5274   -0.0846 O   0  0  0  0  0  0  0  0  0  0  0  0
    1.6464   -1.3386    0.0670 C   0  0  0  0  0  0  0  0  0  0  0  0
    2.9750   -0.9149    0.6628 C   0  0  0  0  0  0  0  0  0  0  0  0
    3.0737    0.5978    0.8260 C   0  0  0  0  0  0  0  0  0  0  0  0
    2.7820    1.3054   -0.4926 C   0  0  0  0  0  0  0  0  0  0  0  0
    1.4555    0.8758   -1.0885 C   0  0  0  0  0  0  0  0  0  0  0  0
    1.0422    1.3815   -2.1285 O   0  0  0  0  0  0  0  0  0  0  0  0
    0.7396   -0.2403   -0.3939 C   0  0  0  0  0  0  0  0  0  0  0  0
   -0.5765   -0.1877   -0.0804 C   0  0  0  0  0  0  0  0  0  0  0  0
   -1.3414   -1.4655    0.8670 S   0  0  0  0  0  0  0  0  0  0  0  0
   -2.8115   -0.6322    1.5197 C   0  0  0  0  0  0  0  0  0  0  0  0
   -3.7778   -0.1794    0.4289 C   0  0  0  0  0  0  0  0  0  0  0  0
   -3.1400    0.3808   -0.8393 C   0  0  0  0  0  0  0  0  0  0  0  0
   -1.5617    1.2101   -0.5113 S   0  0  0  0  0  0  0  0  0  0  0  0
    3.7708   -1.2731    0.0003 H   0  0  0  0  0  0  0  0  0  0  0  0
    3.0849   -1.3972    1.6396 H   0  0  0  0  0  0  0  0  0  0  0  0
    2.3612    0.9337    1.5905 H   0  0  0  0  0  0  0  0  0  0  0  0
    4.0746    0.8689    1.1797 H   0  0  0  0  0  0  0  0  0  0  0  0
    3.5680    1.0782   -1.2215 H   0  0  0  0  0  0  0  0  0  0  0  0
    2.7534    2.3878   -0.3300 H   0  0  0  0  0  0  0  0  0  0  0  0
   -2.4939    0.2197    2.1323 H   0  0  0  0  0  0  0  0  0  0  0  0
   -3.3271   -1.3209    2.1976 H   0  0  0  0  0  0  0  0  0  0  0  0
   -4.4471    0.5760    0.8613 H   0  0  0  0  0  0  0  0  0  0  0  0
   -4.4307   -1.0153    0.1455 H   0  0  0  0  0  0  0  0  0  0  0  0
   -3.8232    1.0958   -1.3097 H   0  0  0  0  0  0  0  0  0  0  0  0
   -2.9754   -0.4188   -1.5711 H   0  0  0  0  0  0  0  0  0  0  0  0
  1  2  2  0
  2  3  1  0
  3  4  1  0
  4  5  1  0
  5  6  1  0
  6  7  2  0
  6  8  1  0
  8  9  2  3
  9 10  1  0
 10 11  1  0
 11 12  1  0
 12 13  1  0
 13 14  1  0
  8  2  1  0
 14  9  1  0
  3 15  1  0
  3 16  1  0
  4 17  1  0
  4 18  1  0
  5 19  1  0
  5 20  1  0
 11 21  1  0
 11 22  1  0
 12 23  1  0
 12 24  1  0
 13 25  1  0
 13 26  1  0
M  END
$$$$
