
     RDKit          3D

 57 60  0  0  0  0  0  0  0  0999 V2000
   -4.0296   -3.9733    0.7119 C   0  0  0  0  0  0  0  0  0  0  0  0
   -3.7317   -2.7517   -0.1576 C   0  0  0  0  0  0  0  0  0  0  0  0
   -4.7255   -2.6796   -1.3157 C   0  0  0  0  0  0  0  0  0  0  0  0
   -3.8124   -1.4665    0.6711 C   0  0  0  0  0  0  0  0  0  0  0  0
   -4.5401   -1.4055    1.6640 O   0  0  0  0  0  0  0  0  0  0  0  0
   -3.0854   -0.3681    0.2338 N   0  0  0  0  0  0  0  0  0  0  0  0
   -3.1522    0.8834    1.0013 C   0  0  0  0  0  0  0  0  0  0  0  0
   -1.7651    1.5094    1.2299 C   0  0  0  0  0  0  0  0  0  0  0  0
   -0.9788    1.6554   -0.0245 N   0  0  0  0  0  0  0  0  0  0  0  0
   -0.5986    2.9963   -0.3028 C   0  0  0  0  0  0  0  0  0  0  0  0
   -1.5353    4.0141   -0.5292 C   0  0  0  0  0  0  0  0  0  0  0  0
   -1.1119    5.3128   -0.8164 C   0  0  0  0  0  0  0  0  0  0  0  0
    0.2495    5.6052   -0.8824 C   0  0  0  0  0  0  0  0  0  0  0  0
    1.1978    4.6046   -0.6587 C   0  0  0  0  0  0  0  0  0  0  0  0
    0.7820    3.3067   -0.3658 C   0  0  0  0  0  0  0  0  0  0  0  0
    1.6557    2.2298   -0.1138 N   0  0  0  0  0  0  0  0  0  0  0  0
    3.0303    2.2331   -0.0572 C   0  0  0  0  0  0  0  0  0  0  0  0
    3.7698    3.2006   -0.1896 O   0  0  0  0  0  0  0  0  0  0  0  0
    3.6444    0.9041    0.2230 C   0  0  0  0  0  0  0  0  0  0  0  0
    4.8304    0.8587    0.9685 C   0  0  0  0  0  0  0  0  0  0  0  0
    5.4373   -0.3668    1.2510 C   0  0  0  0  0  0  0  0  0  0  0  0
    4.8682   -1.5463    0.7761 C   0  0  0  0  0  0  0  0  0  0  0  0
    3.6800   -1.5059    0.0380 C   0  0  0  0  0  0  0  0  0  0  0  0
    3.0766   -0.2839   -0.2556 C   0  0  0  0  0  0  0  0  0  0  0  0
    3.0551   -2.6281   -0.4438 O   0  0  0  0  0  0  0  0  0  0  0  0
    3.5660   -3.8187    0.1687 C   0  0  0  0  0  0  0  0  0  0  0  0
    5.0840   -3.7850    0.2343 C   0  0  0  0  0  0  0  0  0  0  0  0
    5.5282   -2.7110    1.0712 O   0  0  0  0  0  0  0  0  0  0  0  0
   -1.5615    0.9965   -1.2162 C   0  0  0  0  0  0  0  0  0  0  0  0
   -2.0906   -0.4003   -0.8480 C   0  0  0  0  0  0  0  0  0  0  0  0
   -3.9222   -4.8967    0.1332 H   0  0  0  0  0  0  0  0  0  0  0  0
   -3.3377   -4.0222    1.5596 H   0  0  0  0  0  0  0  0  0  0  0  0
   -5.0476   -3.9451    1.1157 H   0  0  0  0  0  0  0  0  0  0  0  0
   -2.7171   -2.8746   -0.5484 H   0  0  0  0  0  0  0  0  0  0  0  0
   -4.5592   -1.7989   -1.9425 H   0  0  0  0  0  0  0  0  0  0  0  0
   -4.6440   -3.5666   -1.9525 H   0  0  0  0  0  0  0  0  0  0  0  0
   -5.7556   -2.6201   -0.9473 H   0  0  0  0  0  0  0  0  0  0  0  0
   -3.7812    1.5703    0.4230 H   0  0  0  0  0  0  0  0  0  0  0  0
   -3.6445    0.7298    1.9665 H   0  0  0  0  0  0  0  0  0  0  0  0
   -1.1880    0.8465    1.8865 H   0  0  0  0  0  0  0  0  0  0  0  0
   -1.8754    2.4587    1.7683 H   0  0  0  0  0  0  0  0  0  0  0  0
   -2.5997    3.8048   -0.4863 H   0  0  0  0  0  0  0  0  0  0  0  0
   -1.8434    6.0976   -0.9901 H   0  0  0  0  0  0  0  0  0  0  0  0
    0.5792    6.6170   -1.1067 H   0  0  0  0  0  0  0  0  0  0  0  0
    2.2499    4.8642   -0.7163 H   0  0  0  0  0  0  0  0  0  0  0  0
    1.1428    1.3840    0.1208 H   0  0  0  0  0  0  0  0  0  0  0  0
    5.2846    1.7807    1.3275 H   0  0  0  0  0  0  0  0  0  0  0  0
    6.3593   -0.3986    1.8261 H   0  0  0  0  0  0  0  0  0  0  0  0
    2.1807   -0.2731   -0.8681 H   0  0  0  0  0  0  0  0  0  0  0  0
    3.1228   -3.9134    1.1679 H   0  0  0  0  0  0  0  0  0  0  0  0
    3.2338   -4.6695   -0.4347 H   0  0  0  0  0  0  0  0  0  0  0  0
    5.4653   -4.7176    0.6612 H   0  0  0  0  0  0  0  0  0  0  0  0
    5.5277   -3.6579   -0.7612 H   0  0  0  0  0  0  0  0  0  0  0  0
   -2.3857    1.5893   -1.6351 H   0  0  0  0  0  0  0  0  0  0  0  0
   -0.7927    0.8941   -1.9921 H   0  0  0  0  0  0  0  0  0  0  0  0
   -2.5259   -0.8724   -1.7321 H   0  0  0  0  0  0  0  0  0  0  0  0
   -1.2629   -1.0305   -0.5015 H   0  0  0  0  0  0  0  0  0  0  0  0
  1  2  1  0
  2  3  1  0
  2  4  1  0
  4  5  2  0
  4  6  1  0
  6  7  1  0
  7  8  1  0
  8  9  1  0
  9 10  1  0
 10 11  2  0
 11 12  1  0
 12 13  2  0
 13 14  1  0
 14 15  2  0
 15 16  1  0
 16 17  1  0
 17 18  2  0
 17 19  1  0
 19 20  2  0
 20 21  1  0
 21 22  2  0
 22 23  1  0
 23 24  2  0
 23 25  1  0
 25 26  1  0
 26 27  1  0
 27 28  1  0
  9 29  1  0
 29 30  1  0
 30  6  1  0
 15 10  1  0
 24 19  1  0
 28 22  1  0
  1 31  1  0
  1 32  1  0
  1 33  1  0
  2 34  1  0
  3 35  1  0
  3 36  1  0
  3 37  1  0
  7 38  1  0
  7 39  1  0
  8 40  1  0
  8 41  1  0
 11 42  1  0
 12 43  1  0
 13 44  1  0
 14 45  1  0
 16 46  1  0
 20 47  1  0
 21 48  1  0
 24 49  1  0
 26 50  1  0
 26 51  1  0
 27 52  1  0
 27 53  1  0
 29 54  1  0
 29 55  1  0
 30 56  1  0
 30 57  1  0
M  END
$$$$
