
     RDKit          3D

 38 38  0  0  0  0  0  0  0  0999 V2000
    5.2151   -0.5342   -3.8483 C   0  0  0  0  0  0  0  0  0  0  0  0
    4.1832   -1.0261   -2.8521 C   0  0  0  0  0  0  0  0  0  0  0  0
    3.5190    0.1126   -2.2940 O   0  0  0  0  0  0  0  0  0  0  0  0
    2.5999   -0.1925   -1.3347 C   0  0  0  0  0  0  0  0  0  0  0  0
    2.2789   -1.3253   -1.0043 O   0  0  0  0  0  0  0  0  0  0  0  0
    1.9860    1.0654   -0.7969 C   0  0  0  0  0  0  0  0  0  0  0  0
    1.4732    0.8754    0.6061 C   0  0  0  0  0  0  0  0  0  0  0  0
    2.2316    0.8667    1.5713 O   0  0  0  0  0  0  0  0  0  0  0  0
    0.0248    0.6291    0.8284 C   0  0  0  0  0  0  0  0  0  0  0  0
   -0.9584    1.3342    0.1229 C   0  0  0  0  0  0  0  0  0  0  0  0
   -2.3072    1.0767    0.3680 C   0  0  0  0  0  0  0  0  0  0  0  0
   -3.3500    1.7007   -0.2694 O   0  0  0  0  0  0  0  0  0  0  0  0
   -3.0577    2.8912   -0.9883 C   0  0  0  0  0  0  0  0  0  0  0  0
   -2.6529    0.0963    1.3139 C   0  0  0  0  0  0  0  0  0  0  0  0
   -3.9845   -0.1226    1.5895 O   0  0  0  0  0  0  0  0  0  0  0  0
   -4.4845   -1.1786    0.7721 C   0  0  0  0  0  0  0  0  0  0  0  0
   -1.6722   -0.5927    2.0496 C   0  0  0  0  0  0  0  0  0  0  0  0
   -2.1257   -1.5024    2.9669 O   0  0  0  0  0  0  0  0  0  0  0  0
   -1.1596   -2.1522    3.7825 C   0  0  0  0  0  0  0  0  0  0  0  0
   -0.3298   -0.3178    1.7979 C   0  0  0  0  0  0  0  0  0  0  0  0
    5.7588   -1.3725   -4.2917 H   0  0  0  0  0  0  0  0  0  0  0  0
    5.9322    0.1370   -3.3615 H   0  0  0  0  0  0  0  0  0  0  0  0
    4.7345    0.0370   -4.6497 H   0  0  0  0  0  0  0  0  0  0  0  0
    3.4557   -1.6676   -3.3603 H   0  0  0  0  0  0  0  0  0  0  0  0
    4.6789   -1.5898   -2.0539 H   0  0  0  0  0  0  0  0  0  0  0  0
    2.7361    1.8639   -0.7592 H   0  0  0  0  0  0  0  0  0  0  0  0
    1.2024    1.3787   -1.4903 H   0  0  0  0  0  0  0  0  0  0  0  0
   -0.6671    2.0894   -0.5947 H   0  0  0  0  0  0  0  0  0  0  0  0
   -2.5502    3.6234   -0.3532 H   0  0  0  0  0  0  0  0  0  0  0  0
   -2.4739    2.6723   -1.8860 H   0  0  0  0  0  0  0  0  0  0  0  0
   -4.0038    3.3324   -1.3112 H   0  0  0  0  0  0  0  0  0  0  0  0
   -3.9811   -2.1286    0.9905 H   0  0  0  0  0  0  0  0  0  0  0  0
   -5.5471   -1.2994    0.9981 H   0  0  0  0  0  0  0  0  0  0  0  0
   -4.3904   -0.9367   -0.2912 H   0  0  0  0  0  0  0  0  0  0  0  0
   -0.6027   -1.4286    4.3857 H   0  0  0  0  0  0  0  0  0  0  0  0
   -0.4879   -2.7686    3.1786 H   0  0  0  0  0  0  0  0  0  0  0  0
   -1.6904   -2.8191    4.4698 H   0  0  0  0  0  0  0  0  0  0  0  0
    0.4669   -0.8276    2.3341 H   0  0  0  0  0  0  0  0  0  0  0  0
  1  2  1  0
  2  3  1  0
  3  4  1  0
  4  5  2  0
  4  6  1  0
  6  7  1  0
  7  8  2  0
  7  9  1  0
  9 10  2  0
 10 11  1  0
 11 12  1  0
 12 13  1  0
 11 14  2  0
 14 15  1  0
 15 16  1  0
 14 17  1  0
 17 18  1  0
 18 19  1  0
 17 20  2  0
 20  9  1  0
  1 21  1  0
  1 22  1  0
  1 23  1  0
  2 24  1  0
  2 25  1  0
  6 26  1  0
  6 27  1  0
 10 28  1  0
 13 29  1  0
 13 30  1  0
 13 31  1  0
 16 32  1  0
 16 33  1  0
 16 34  1  0
 19 35  1  0
 19 36  1  0
 19 37  1  0
 20 38  1  0
M  END
$$$$
