
     RDKit          3D

 57 59  0  0  0  0  0  0  0  0999 V2000
   -1.8880    3.6896    0.9776 C   0  0  0  0  0  0  0  0  0  0  0  0
   -1.3075    2.4944    1.5414 N   0  0  0  0  0  0  0  0  0  0  0  0
   -1.6646    1.2276    1.1825 C   0  0  0  0  0  0  0  0  0  0  0  0
   -1.8333    0.1276    2.4383 S   0  0  0  0  0  0  0  0  0  0  0  0
   -1.8429    0.9483   -0.1576 N   0  0  0  0  0  0  0  0  0  0  0  0
   -2.8917    0.0043   -0.5848 C   0  0  0  0  0  0  0  0  0  0  0  0
   -2.3924   -1.4013   -0.9271 C   0  0  0  0  0  0  0  0  0  0  0  0
   -3.5429   -2.3766   -1.0232 C   0  0  0  0  0  0  0  0  0  0  0  0
   -4.3018   -2.4640   -2.1942 C   0  0  0  0  0  0  0  0  0  0  0  0
   -5.3881   -3.3321   -2.2648 C   0  0  0  0  0  0  0  0  0  0  0  0
   -5.7198   -4.1251   -1.1694 C   0  0  0  0  0  0  0  0  0  0  0  0
   -4.9621   -4.0691    0.0044 C   0  0  0  0  0  0  0  0  0  0  0  0
   -5.3295   -4.9087    1.1889 C   0  0  0  0  0  0  0  0  0  0  0  0
   -3.8838   -3.1787    0.0752 C   0  0  0  0  0  0  0  0  0  0  0  0
   -1.0079    1.5381   -1.2218 C   0  0  0  0  0  0  0  0  0  0  0  0
    0.4421    1.1525   -1.0800 C   0  0  0  0  0  0  0  0  0  0  0  0
    1.3199    1.8460   -0.3242 C   0  0  0  0  0  0  0  0  0  0  0  0
    2.7262    1.4537   -0.2277 C   0  0  0  0  0  0  0  0  0  0  0  0
    3.6301    2.1731    0.5678 C   0  0  0  0  0  0  0  0  0  0  0  0
    4.9690    1.7721    0.6589 C   0  0  0  0  0  0  0  0  0  0  0  0
    5.9280    2.4290    1.3719 O   0  0  0  0  0  0  0  0  0  0  0  0
    5.5757    3.6744    1.9618 C   0  0  0  0  0  0  0  0  0  0  0  0
    5.3779    0.6181   -0.0376 C   0  0  0  0  0  0  0  0  0  0  0  0
    6.6734    0.1604   -0.0233 O   0  0  0  0  0  0  0  0  0  0  0  0
    7.0453   -0.3091    1.2722 C   0  0  0  0  0  0  0  0  0  0  0  0
    4.4896   -0.0828   -0.8577 C   0  0  0  0  0  0  0  0  0  0  0  0
    3.1647    0.3360   -0.9413 C   0  0  0  0  0  0  0  0  0  0  0  0
    2.2555   -0.3501   -1.7600 N   0  0  0  0  0  0  0  0  0  0  0  0
    0.9462    0.0211   -1.9177 C   0  0  0  0  0  0  0  0  0  0  0  0
    0.2336   -0.5451   -2.7349 O   0  0  0  0  0  0  0  0  0  0  0  0
   -1.1255    4.2118    0.4000 H   0  0  0  0  0  0  0  0  0  0  0  0
   -2.7571    3.4569    0.3578 H   0  0  0  0  0  0  0  0  0  0  0  0
   -2.2027    4.3283    1.8000 H   0  0  0  0  0  0  0  0  0  0  0  0
   -1.1632    2.5410    2.5402 H   0  0  0  0  0  0  0  0  0  0  0  0
   -3.4059    0.4518   -1.4448 H   0  0  0  0  0  0  0  0  0  0  0  0
   -3.6528   -0.0514    0.2019 H   0  0  0  0  0  0  0  0  0  0  0  0
   -1.6678   -1.7595   -0.1886 H   0  0  0  0  0  0  0  0  0  0  0  0
   -1.8636   -1.3939   -1.8863 H   0  0  0  0  0  0  0  0  0  0  0  0
   -4.0573   -1.8522   -3.0578 H   0  0  0  0  0  0  0  0  0  0  0  0
   -5.9783   -3.3888   -3.1742 H   0  0  0  0  0  0  0  0  0  0  0  0
   -6.5729   -4.7938   -1.2393 H   0  0  0  0  0  0  0  0  0  0  0  0
   -5.9342   -5.7665    0.8878 H   0  0  0  0  0  0  0  0  0  0  0  0
   -4.4310   -5.3021    1.6758 H   0  0  0  0  0  0  0  0  0  0  0  0
   -5.9018   -4.3123    1.9107 H   0  0  0  0  0  0  0  0  0  0  0  0
   -3.3065   -3.1056    0.9945 H   0  0  0  0  0  0  0  0  0  0  0  0
   -1.4038    1.2373   -2.2002 H   0  0  0  0  0  0  0  0  0  0  0  0
   -1.1094    2.6249   -1.1973 H   0  0  0  0  0  0  0  0  0  0  0  0
    1.0031    2.7084    0.2571 H   0  0  0  0  0  0  0  0  0  0  0  0
    3.2693    3.0424    1.1016 H   0  0  0  0  0  0  0  0  0  0  0  0
    6.4854    4.1227    2.3740 H   0  0  0  0  0  0  0  0  0  0  0  0
    4.8739    3.5208    2.7872 H   0  0  0  0  0  0  0  0  0  0  0  0
    5.1767    4.3724    1.2202 H   0  0  0  0  0  0  0  0  0  0  0  0
    7.3600    0.5228    1.9158 H   0  0  0  0  0  0  0  0  0  0  0  0
    6.2352   -0.8876    1.7510 H   0  0  0  0  0  0  0  0  0  0  0  0
    7.9044   -0.9744    1.1477 H   0  0  0  0  0  0  0  0  0  0  0  0
    4.8393   -0.9503   -1.4114 H   0  0  0  0  0  0  0  0  0  0  0  0
    2.5657   -1.1269   -2.3312 H   0  0  0  0  0  0  0  0  0  0  0  0
  1  2  1  0
  2  3  1  0
  3  4  2  0
  3  5  1  0
  5  6  1  0
  6  7  1  0
  7  8  1  0
  8  9  2  0
  9 10  1  0
 10 11  2  0
 11 12  1  0
 12 13  1  0
 12 14  2  0
  5 15  1  0
 15 16  1  0
 16 17  2  0
 17 18  1  0
 18 19  2  0
 19 20  1  0
 20 21  1  0
 21 22  1  0
 20 23  2  0
 23 24  1  0
 24 25  1  0
 23 26  1  0
 26 27  2  0
 27 28  1  0
 28 29  1  0
 29 30  2  0
 14  8  1  0
 29 16  1  0
 27 18  1  0
  1 31  1  0
  1 32  1  0
  1 33  1  0
  2 34  1  0
  6 35  1  0
  6 36  1  0
  7 37  1  0
  7 38  1  0
  9 39  1  0
 10 40  1  0
 11 41  1  0
 13 42  1  0
 13 43  1  0
 13 44  1  0
 14 45  1  0
 15 46  1  0
 15 47  1  0
 17 48  1  0
 19 49  1  0
 22 50  1  0
 22 51  1  0
 22 52  1  0
 25 53  1  0
 25 54  1  0
 25 55  1  0
 26 56  1  0
 28 57  1  0
M  END
$$$$
