
     RDKit          3D

 49 51  0  0  0  0  0  0  0  0999 V2000
    0.4820    2.8787    2.0265 C   0  0  0  0  0  0  0  0  0  0  0  0
   -0.1000    1.7814    1.1793 C   0  0  0  0  0  0  0  0  0  0  0  0
   -1.4455    1.4139    1.3525 C   0  0  0  0  0  0  0  0  0  0  0  0
   -1.9923    0.3809    0.5863 C   0  0  0  0  0  0  0  0  0  0  0  0
   -3.7010   -0.0665    0.7696 S   0  0  0  0  0  6  0  0  0  0  0  0
   -3.7536   -1.4934    0.9973 O   0  0  0  0  0  0  0  0  0  0  0  0
   -4.3279    0.8673    1.6752 O   0  0  0  0  0  0  0  0  0  0  0  0
   -4.3287    0.2524   -0.7838 N   0  0  0  0  0  0  0  0  0  0  0  0
   -4.3724    1.7010   -1.1770 C   0  0  0  0  0  0  0  0  0  0  0  0
   -5.8028    2.2453   -1.1230 C   0  0  0  0  0  0  0  0  0  0  0  0
   -6.6817    1.5800   -2.0358 O   0  0  0  0  0  0  0  0  0  0  0  0
   -6.3412    0.1989   -2.2482 C   0  0  0  0  0  0  0  0  0  0  0  0
   -5.6292   -0.4410   -1.0502 C   0  0  0  0  0  0  0  0  0  0  0  0
   -1.2078   -0.3121   -0.3354 C   0  0  0  0  0  0  0  0  0  0  0  0
    0.1317    0.0473   -0.5082 C   0  0  0  0  0  0  0  0  0  0  0  0
    0.6882    1.1017    0.2311 C   0  0  0  0  0  0  0  0  0  0  0  0
    1.9906    1.5253    0.1250 O   0  0  0  0  0  0  0  0  0  0  0  0
    2.6846    1.2017   -1.0727 C   0  0  0  0  0  0  0  0  0  0  0  0
    3.4323   -0.1294   -0.9857 C   0  0  0  0  0  0  0  0  0  0  0  0
    3.2530   -1.0119   -1.8226 O   0  0  0  0  0  0  0  0  0  0  0  0
    4.3251   -0.1692    0.0713 N   0  0  0  0  0  0  0  0  0  0  0  0
    5.1556   -1.2404    0.4617 C   0  0  0  0  0  0  0  0  0  0  0  0
    5.0801   -2.5278   -0.0759 C   0  0  0  0  0  0  0  0  0  0  0  0
    5.9424   -3.5315    0.3811 C   0  0  0  0  0  0  0  0  0  0  0  0
    6.8872   -3.2447    1.3725 C   0  0  0  0  0  0  0  0  0  0  0  0
    8.0504   -4.6038    1.9764 Br  0  0  0  0  0  0  0  0  0  0  0  0
    6.9772   -1.9672    1.9188 C   0  0  0  0  0  0  0  0  0  0  0  0
    6.1072   -0.9819    1.4618 C   0  0  0  0  0  0  0  0  0  0  0  0
    6.1998    0.2552    1.9817 F   0  0  0  0  0  0  0  0  0  0  0  0
    0.9557    3.6397    1.4036 H   0  0  0  0  0  0  0  0  0  0  0  0
    1.2196    2.4655    2.7241 H   0  0  0  0  0  0  0  0  0  0  0  0
   -0.2951    3.3753    2.6115 H   0  0  0  0  0  0  0  0  0  0  0  0
   -2.0629    1.9370    2.0843 H   0  0  0  0  0  0  0  0  0  0  0  0
   -3.7257    2.3047   -0.5417 H   0  0  0  0  0  0  0  0  0  0  0  0
   -3.9791    1.7697   -2.1950 H   0  0  0  0  0  0  0  0  0  0  0  0
   -6.2230    2.1469   -0.1132 H   0  0  0  0  0  0  0  0  0  0  0  0
   -5.8146    3.3133   -1.3783 H   0  0  0  0  0  0  0  0  0  0  0  0
   -5.7122    0.1438   -3.1474 H   0  0  0  0  0  0  0  0  0  0  0  0
   -7.2698   -0.3382   -2.4660 H   0  0  0  0  0  0  0  0  0  0  0  0
   -6.2730   -0.3732   -0.1682 H   0  0  0  0  0  0  0  0  0  0  0  0
   -5.4261   -1.4946   -1.2653 H   0  0  0  0  0  0  0  0  0  0  0  0
   -1.6304   -1.1315   -0.9167 H   0  0  0  0  0  0  0  0  0  0  0  0
    0.7146   -0.5275   -1.2196 H   0  0  0  0  0  0  0  0  0  0  0  0
    2.0368    1.2263   -1.9569 H   0  0  0  0  0  0  0  0  0  0  0  0
    3.4376    1.9869   -1.2295 H   0  0  0  0  0  0  0  0  0  0  0  0
    4.4215    0.6766    0.6167 H   0  0  0  0  0  0  0  0  0  0  0  0
    4.3512   -2.7873   -0.8345 H   0  0  0  0  0  0  0  0  0  0  0  0
    5.8642   -4.5329   -0.0436 H   0  0  0  0  0  0  0  0  0  0  0  0
    7.7076   -1.7197    2.6860 H   0  0  0  0  0  0  0  0  0  0  0  0
  1  2  1  0
  2  3  2  0
  3  4  1  0
  4  5  1  0
  5  6  2  0
  5  7  2  0
  5  8  1  0
  8  9  1  0
  9 10  1  0
 10 11  1  0
 11 12  1  0
 12 13  1  0
  4 14  2  0
 14 15  1  0
 15 16  2  0
 16 17  1  0
 17 18  1  0
 18 19  1  0
 19 20  2  0
 19 21  1  0
 21 22  1  0
 22 23  2  0
 23 24  1  0
 24 25  2  0
 25 26  1  0
 25 27  1  0
 27 28  2  0
 28 29  1  0
 16  2  1  0
 28 22  1  0
 13  8  1  0
  1 30  1  0
  1 31  1  0
  1 32  1  0
  3 33  1  0
  9 34  1  0
  9 35  1  0
 10 36  1  0
 10 37  1  0
 12 38  1  0
 12 39  1  0
 13 40  1  0
 13 41  1  0
 14 42  1  0
 15 43  1  0
 18 44  1  0
 18 45  1  0
 21 46  1  0
 23 47  1  0
 24 48  1  0
 27 49  1  0
M  END
$$$$
