
     RDKit          3D

 70 76  0  0  0  0  0  0  0  0999 V2000
   -5.7482   -4.1249   -0.6254 C   0  0  0  0  0  0  0  0  0  0  0  0
   -4.7539   -3.4735    0.2887 C   0  0  0  0  0  0  0  0  0  0  0  0
   -4.7156   -3.7636    1.6663 C   0  0  0  0  0  0  0  0  0  0  0  0
   -5.8292   -4.8801    2.3788 Cl  0  0  0  0  0  0  0  0  0  0  0  0
   -3.7688   -3.1652    2.5219 C   0  0  0  0  0  0  0  0  0  0  0  0
   -2.8267   -2.2631    2.0274 C   0  0  0  0  0  0  0  0  0  0  0  0
   -2.8542   -1.9721    0.6738 C   0  0  0  0  0  0  0  0  0  0  0  0
   -3.7966   -2.5777   -0.1716 C   0  0  0  0  0  0  0  0  0  0  0  0
   -3.5960   -2.1422   -1.4808 N   0  0  0  0  0  0  0  0  0  0  0  0
   -2.5237   -1.2510   -1.5772 C   0  0  0  0  0  0  0  0  0  0  0  0
   -2.1271   -0.7515   -2.6187 O   0  0  0  0  0  0  0  0  0  0  0  0
   -1.9763   -1.0669   -0.1403 C   0  0  1  0  0  0  0  0  0  0  0  0
   -2.0998    0.3287    0.3660 C   0  0  0  0  0  0  0  0  0  0  0  0
   -0.8389    0.9462    0.3334 C   0  0  0  0  0  0  0  0  0  0  0  0
   -0.9375    2.2012    0.8579 C   0  0  0  0  0  0  0  0  0  0  0  0
    0.0501    3.0507    1.1355 O   0  0  0  0  0  0  0  0  0  0  0  0
   -2.3051    2.4279    1.1232 N   0  0  0  0  0  0  0  0  0  0  0  0
   -2.8767    3.6697    1.5478 C   0  0  0  0  0  0  0  0  0  0  0  0
   -2.3313    4.8831    1.1014 C   0  0  0  0  0  0  0  0  0  0  0  0
   -2.8782    6.0983    1.5203 C   0  0  0  0  0  0  0  0  0  0  0  0
   -3.9721    6.1116    2.3828 C   0  0  0  0  0  0  0  0  0  0  0  0
   -4.5270    4.9105    2.8204 C   0  0  0  0  0  0  0  0  0  0  0  0
   -3.9864    3.6916    2.4019 C   0  0  0  0  0  0  0  0  0  0  0  0
   -3.0031    1.2243    0.8823 C   0  0  0  0  0  0  0  0  0  0  0  0
   -4.3113    1.1000    1.0925 O   0  0  0  0  0  0  0  0  0  0  0  0
    0.1719    0.0239   -0.2154 C   0  0  1  0  0  0  0  0  0  0  0  0
    1.5548   -0.0251    0.4251 C   0  0  0  0  0  0  0  0  0  0  0  0
    2.3386   -1.1695   -0.1011 N   0  0  0  0  0  0  0  0  0  0  0  0
    3.7287   -1.2394   -0.0033 C   0  0  0  0  0  0  0  0  0  0  0  0
    4.3287   -2.3114   -0.0896 O   0  0  0  0  0  0  0  0  0  0  0  0
    4.4610    0.0737    0.2392 C   0  0  0  0  0  0  0  0  0  0  0  0
    5.9835   -0.0472    0.1474 C   0  0  0  0  0  0  0  0  0  0  0  0
    6.4893    0.0156   -1.2754 C   0  0  0  0  0  0  0  0  0  0  0  0
    6.7137    1.2528   -1.8962 C   0  0  0  0  0  0  0  0  0  0  0  0
    7.1691    1.3118   -3.2144 C   0  0  0  0  0  0  0  0  0  0  0  0
    7.4016    0.1360   -3.9255 C   0  0  0  0  0  0  0  0  0  0  0  0
    7.1775   -1.0986   -3.3196 C   0  0  0  0  0  0  0  0  0  0  0  0
    6.7223   -1.1589   -2.0016 C   0  0  0  0  0  0  0  0  0  0  0  0
    1.6156   -2.4543   -0.2052 C   0  0  0  0  0  0  0  0  0  0  0  0
    0.1570   -2.3377   -0.7192 C   0  0  0  0  0  0  0  0  0  0  0  0
   -0.5211   -1.2835    0.0161 N   0  0  0  0  0  0  0  0  0  0  0  0
   -5.7462   -3.6830   -1.6258 H   0  0  0  0  0  0  0  0  0  0  0  0
   -5.5208   -5.1908   -0.7309 H   0  0  0  0  0  0  0  0  0  0  0  0
   -6.7653   -4.0063   -0.2371 H   0  0  0  0  0  0  0  0  0  0  0  0
   -3.7626   -3.4106    3.5824 H   0  0  0  0  0  0  0  0  0  0  0  0
   -2.0902   -1.8070    2.6834 H   0  0  0  0  0  0  0  0  0  0  0  0
   -4.1165   -2.4344   -2.2947 H   0  0  0  0  0  0  0  0  0  0  0  0
   -0.2690    3.6935    1.7953 H   0  0  0  0  0  0  0  0  0  0  0  0
   -1.5161    4.9086    0.3806 H   0  0  0  0  0  0  0  0  0  0  0  0
   -2.4596    7.0351    1.1606 H   0  0  0  0  0  0  0  0  0  0  0  0
   -4.3996    7.0577    2.7053 H   0  0  0  0  0  0  0  0  0  0  0  0
   -5.3848    4.9201    3.4883 H   0  0  0  0  0  0  0  0  0  0  0  0
   -4.4311    2.7752    2.7801 H   0  0  0  0  0  0  0  0  0  0  0  0
   -4.5733    0.1916    0.8613 H   0  0  0  0  0  0  0  0  0  0  0  0
    0.2707    0.2134   -1.2941 H   0  0  0  0  0  0  0  0  0  0  0  0
    1.4918   -0.1520    1.5136 H   0  0  0  0  0  0  0  0  0  0  0  0
    2.0768    0.9172    0.2429 H   0  0  0  0  0  0  0  0  0  0  0  0
    4.2051    0.3957    1.2559 H   0  0  0  0  0  0  0  0  0  0  0  0
    4.1014    0.8270   -0.4698 H   0  0  0  0  0  0  0  0  0  0  0  0
    6.3457   -0.9608    0.6344 H   0  0  0  0  0  0  0  0  0  0  0  0
    6.4389    0.7824    0.7047 H   0  0  0  0  0  0  0  0  0  0  0  0
    6.5355    2.1792   -1.3552 H   0  0  0  0  0  0  0  0  0  0  0  0
    7.3424    2.2750   -3.6867 H   0  0  0  0  0  0  0  0  0  0  0  0
    7.7556    0.1812   -4.9518 H   0  0  0  0  0  0  0  0  0  0  0  0
    7.3544   -2.0171   -3.8724 H   0  0  0  0  0  0  0  0  0  0  0  0
    6.5441   -2.1309   -1.5442 H   0  0  0  0  0  0  0  0  0  0  0  0
    1.6165   -2.8955    0.8003 H   0  0  0  0  0  0  0  0  0  0  0  0
    2.1732   -3.1335   -0.8611 H   0  0  0  0  0  0  0  0  0  0  0  0
   -0.3432   -3.3013   -0.5726 H   0  0  0  0  0  0  0  0  0  0  0  0
    0.1680   -2.1298   -1.7959 H   0  0  0  0  0  0  0  0  0  0  0  0
  1  2  1  0
  2  3  2  0
  3  4  1  0
  3  5  1  0
  5  6  2  0
  6  7  1  0
  7  8  2  0
  8  9  1  0
  9 10  1  0
 10 11  2  0
 10 12  1  0
 12 13  1  0
 13 14  1  0
 14 15  2  0
 15 16  1  0
 15 17  1  0
 17 18  1  0
 18 19  2  0
 19 20  1  0
 20 21  2  0
 21 22  1  0
 22 23  2  0
 17 24  1  0
 24 25  1  0
 14 26  1  0
 26 27  1  0
 27 28  1  0
 28 29  1  0
 29 30  2  0
 29 31  1  0
 31 32  1  0
 32 33  1  0
 33 34  2  0
 34 35  1  0
 35 36  2  0
 36 37  1  0
 37 38  2  0
 28 39  1  0
 39 40  1  0
 40 41  1  0
  8  2  1  0
 12 41  1  6
 12  7  1  0
 24 13  2  0
 41 26  1  0
 23 18  1  0
 38 33  1  0
  1 42  1  0
  1 43  1  0
  1 44  1  0
  5 45  1  0
  6 46  1  0
  9 47  1  0
 16 48  1  0
 19 49  1  0
 20 50  1  0
 21 51  1  0
 22 52  1  0
 23 53  1  0
 25 54  1  0
 26 55  1  6
 27 56  1  0
 27 57  1  0
 31 58  1  0
 31 59  1  0
 32 60  1  0
 32 61  1  0
 34 62  1  0
 35 63  1  0
 36 64  1  0
 37 65  1  0
 38 66  1  0
 39 67  1  0
 39 68  1  0
 40 69  1  0
 40 70  1  0
M  END
$$$$
