
     RDKit          3D

 42 44  0  0  0  0  0  0  0  0999 V2000
    0.7537    3.2168    0.4004 C   0  0  0  0  0  0  0  0  0  0  0  0
   -0.7098    2.8300    0.4674 C   0  0  0  0  0  0  0  0  0  0  0  0
   -0.8015    1.4028    0.3834 O   0  0  0  0  0  0  0  0  0  0  0  0
   -2.0802    0.9229    0.4428 C   0  0  0  0  0  0  0  0  0  0  0  0
   -3.0684    1.6406    0.5551 O   0  0  0  0  0  0  0  0  0  0  0  0
   -2.1615   -0.5345    0.3623 C   0  0  0  0  0  0  0  0  0  0  0  0
   -1.0911   -1.4273    0.2391 C   0  0  0  0  0  0  0  0  0  0  0  0
    0.2555   -1.1151    0.1600 N   0  0  0  0  0  0  0  0  0  0  0  0
    1.3323   -1.9743    0.0458 C   0  0  0  0  0  0  0  0  0  0  0  0
    1.3168   -3.1983   -0.0030 O   0  0  0  0  0  0  0  0  0  0  0  0
    2.6094   -1.2350   -0.0160 C   0  0  0  0  0  0  0  0  0  0  0  0
    3.9095   -1.7938   -0.1264 C   0  0  0  0  0  0  0  0  0  0  0  0
    4.7684   -0.7228   -0.1480 C   0  0  0  0  0  0  0  0  0  0  0  0
    3.9838    0.3878   -0.0575 N   0  0  0  0  0  0  0  0  0  0  0  0
    4.4406    1.7645   -0.0429 C   0  0  0  0  0  0  0  0  0  0  0  0
    4.4000    2.3951   -1.4231 C   0  0  0  0  0  0  0  0  0  0  0  0
    2.6660    0.1142    0.0292 N   0  0  0  0  0  0  0  0  0  0  0  0
   -1.6030   -3.0697    0.1882 S   0  0  0  0  0  0  0  0  0  0  0  0
   -3.1980   -2.6181    0.3204 C   0  0  0  0  0  0  0  0  0  0  0  0
   -3.3833   -1.2692    0.4024 C   0  0  0  0  0  0  0  0  0  0  0  0
   -4.8279   -0.9380    0.5210 C   0  0  0  0  0  0  0  0  0  0  0  0
   -5.5115   -2.2918    0.1498 C   0  0  0  0  0  0  0  0  0  0  0  0
   -4.4473   -3.4101    0.3687 C   0  0  0  0  0  0  0  0  0  0  0  0
    1.2016    2.8631   -0.5335 H   0  0  0  0  0  0  0  0  0  0  0  0
    0.8746    4.3019    0.4609 H   0  0  0  0  0  0  0  0  0  0  0  0
    1.3116    2.7529    1.2202 H   0  0  0  0  0  0  0  0  0  0  0  0
   -1.2502    3.2852   -0.3701 H   0  0  0  0  0  0  0  0  0  0  0  0
   -1.1383    3.1737    1.4156 H   0  0  0  0  0  0  0  0  0  0  0  0
    0.5105   -0.1275    0.1880 H   0  0  0  0  0  0  0  0  0  0  0  0
    4.1641   -2.8436   -0.1815 H   0  0  0  0  0  0  0  0  0  0  0  0
    5.8453   -0.6632   -0.2220 H   0  0  0  0  0  0  0  0  0  0  0  0
    3.8072    2.3173    0.6588 H   0  0  0  0  0  0  0  0  0  0  0  0
    5.4625    1.7726    0.3518 H   0  0  0  0  0  0  0  0  0  0  0  0
    5.0431    1.8513   -2.1232 H   0  0  0  0  0  0  0  0  0  0  0  0
    3.3843    2.3899   -1.8322 H   0  0  0  0  0  0  0  0  0  0  0  0
    4.7448    3.4326   -1.3774 H   0  0  0  0  0  0  0  0  0  0  0  0
   -5.0722   -0.6548    1.5502 H   0  0  0  0  0  0  0  0  0  0  0  0
   -5.1400   -0.1421   -0.1607 H   0  0  0  0  0  0  0  0  0  0  0  0
   -5.7917   -2.2693   -0.9117 H   0  0  0  0  0  0  0  0  0  0  0  0
   -6.4250   -2.4677    0.7263 H   0  0  0  0  0  0  0  0  0  0  0  0
   -4.5761   -3.8755    1.3512 H   0  0  0  0  0  0  0  0  0  0  0  0
   -4.5086   -4.1736   -0.4114 H   0  0  0  0  0  0  0  0  0  0  0  0
  1  2  1  0
  2  3  1  0
  3  4  1  0
  4  5  2  0
  4  6  1  0
  6  7  2  0
  7  8  1  0
  8  9  1  0
  9 10  2  0
  9 11  1  0
 11 12  1  0
 12 13  2  0
 13 14  1  0
 14 15  1  0
 15 16  1  0
 14 17  1  0
  7 18  1  0
 18 19  1  0
 19 20  2  0
 20 21  1  0
 21 22  1  0
 22 23  1  0
 20  6  1  0
 17 11  2  0
 23 19  1  0
  1 24  1  0
  1 25  1  0
  1 26  1  0
  2 27  1  0
  2 28  1  0
  8 29  1  0
 12 30  1  0
 13 31  1  0
 15 32  1  0
 15 33  1  0
 16 34  1  0
 16 35  1  0
 16 36  1  0
 21 37  1  0
 21 38  1  0
 22 39  1  0
 22 40  1  0
 23 41  1  0
 23 42  1  0
M  END
$$$$
