
     RDKit          3D

 57 61  0  0  0  0  0  0  0  0999 V2000
   -7.6790    1.0110   -1.0566 C   0  0  0  0  0  0  0  0  0  0  0  0
   -6.5473    1.1904   -0.0886 C   0  0  0  0  0  0  0  0  0  0  0  0
   -5.3597    1.8133   -0.4854 C   0  0  0  0  0  0  0  0  0  0  0  0
   -4.3184    2.0024    0.4270 C   0  0  0  0  0  0  0  0  0  0  0  0
   -4.4526    1.5838    1.7580 C   0  0  0  0  0  0  0  0  0  0  0  0
   -3.3252    1.7772    2.7407 C   0  0  0  0  0  0  0  0  0  0  0  0
   -2.5107    0.5858    2.8560 N   0  0  0  0  0  0  0  0  0  0  0  0
   -2.7242   -0.3124    3.8514 N   0  0  0  0  0  0  0  0  0  0  0  0
   -1.8239   -1.2877    3.7199 N   0  0  0  0  0  0  0  0  0  0  0  0
   -1.0440   -0.9743    2.6501 C   0  0  0  0  0  0  0  0  0  0  0  0
    0.0714   -1.6646    2.0624 C   0  0  0  0  0  0  0  0  0  0  0  0
    0.5534   -2.7241    2.4516 O   0  0  0  0  0  0  0  0  0  0  0  0
    0.5862   -0.9866    0.9623 N   0  0  0  0  0  0  0  0  0  0  0  0
    0.1032    0.2321    0.4977 C   0  0  0  0  0  0  0  0  0  0  0  0
    0.8045    0.8337   -0.7134 C   0  0  0  0  0  0  0  0  0  0  0  0
    0.6216   -0.0335   -1.9683 C   0  0  0  0  0  0  0  0  0  0  0  0
    1.8916   -0.7847   -2.3557 C   0  0  0  0  0  0  0  0  0  0  0  0
    3.0110    0.1575   -2.5621 N   0  0  0  0  0  0  0  0  0  0  0  0
    4.4906   -0.4949   -3.0969 S   0  0  0  0  0  6  0  0  0  0  0  0
    5.3915    0.6007   -3.3873 O   0  0  0  0  0  0  0  0  0  0  0  0
    4.1999   -1.5140   -4.0839 O   0  0  0  0  0  0  0  0  0  0  0  0
    5.0946   -1.3248   -1.6367 C   0  0  0  0  0  0  0  0  0  0  0  0
    5.8716   -0.6247   -0.7085 C   0  0  0  0  0  0  0  0  0  0  0  0
    6.3350   -1.2803    0.4349 C   0  0  0  0  0  0  0  0  0  0  0  0
    6.0395   -2.6302    0.6358 C   0  0  0  0  0  0  0  0  0  0  0  0
    5.2898   -3.3334   -0.3093 C   0  0  0  0  0  0  0  0  0  0  0  0
    4.8207   -2.6848   -1.4529 C   0  0  0  0  0  0  0  0  0  0  0  0
    3.0525    1.3596   -1.7006 C   0  0  0  0  0  0  0  0  0  0  0  0
    2.2757    1.1360   -0.4123 C   0  0  0  0  0  0  0  0  0  0  0  0
   -0.9036    0.8704    1.0305 N   0  0  0  0  0  0  0  0  0  0  0  0
   -1.4398    0.2179    2.0920 C   0  0  0  0  0  0  0  0  0  0  0  0
   -5.6451    0.9629    2.1546 C   0  0  0  0  0  0  0  0  0  0  0  0
   -6.6852    0.7753    1.2408 C   0  0  0  0  0  0  0  0  0  0  0  0
   -8.1726    0.0456   -0.8994 H   0  0  0  0  0  0  0  0  0  0  0  0
   -8.4116    1.8119   -0.9283 H   0  0  0  0  0  0  0  0  0  0  0  0
   -7.3195    1.0283   -2.0901 H   0  0  0  0  0  0  0  0  0  0  0  0
   -5.2356    2.1524   -1.5116 H   0  0  0  0  0  0  0  0  0  0  0  0
   -3.3987    2.4771    0.0886 H   0  0  0  0  0  0  0  0  0  0  0  0
   -2.6735    2.6055    2.4392 H   0  0  0  0  0  0  0  0  0  0  0  0
   -3.7152    2.0254    3.7351 H   0  0  0  0  0  0  0  0  0  0  0  0
    1.3844   -1.4381    0.5412 H   0  0  0  0  0  0  0  0  0  0  0  0
    0.3009    1.7912   -0.9141 H   0  0  0  0  0  0  0  0  0  0  0  0
    0.3433    0.6225   -2.8039 H   0  0  0  0  0  0  0  0  0  0  0  0
   -0.2066   -0.7417   -1.8474 H   0  0  0  0  0  0  0  0  0  0  0  0
    2.1457   -1.5122   -1.5791 H   0  0  0  0  0  0  0  0  0  0  0  0
    1.6995   -1.3314   -3.2856 H   0  0  0  0  0  0  0  0  0  0  0  0
    6.1244    0.4206   -0.8681 H   0  0  0  0  0  0  0  0  0  0  0  0
    6.9375   -0.7434    1.1656 H   0  0  0  0  0  0  0  0  0  0  0  0
    6.4077   -3.1422    1.5259 H   0  0  0  0  0  0  0  0  0  0  0  0
    5.0823   -4.3909   -0.1582 H   0  0  0  0  0  0  0  0  0  0  0  0
    4.2521   -3.2443   -2.1931 H   0  0  0  0  0  0  0  0  0  0  0  0
    4.0775    1.6476   -1.4515 H   0  0  0  0  0  0  0  0  0  0  0  0
    2.6222    2.1955   -2.2659 H   0  0  0  0  0  0  0  0  0  0  0  0
    2.7452    0.3251    0.1572 H   0  0  0  0  0  0  0  0  0  0  0  0
    2.3412    2.0277    0.2228 H   0  0  0  0  0  0  0  0  0  0  0  0
   -5.7720    0.6155    3.1787 H   0  0  0  0  0  0  0  0  0  0  0  0
   -7.6039    0.2973    1.5732 H   0  0  0  0  0  0  0  0  0  0  0  0
  1  2  1  0
  2  3  2  0
  3  4  1  0
  4  5  2  0
  5  6  1  0
  6  7  1  0
  7  8  1  0
  8  9  2  0
  9 10  1  0
 10 11  1  0
 11 12  2  0
 11 13  1  0
 13 14  1  0
 14 15  1  0
 15 16  1  0
 16 17  1  0
 17 18  1  0
 18 19  1  0
 19 20  2  0
 19 21  2  0
 19 22  1  0
 22 23  2  0
 23 24  1  0
 24 25  2  0
 25 26  1  0
 26 27  2  0
 18 28  1  0
 28 29  1  0
 14 30  2  0
 30 31  1  0
  5 32  1  0
 32 33  2  0
 33  2  1  0
 31  7  1  0
 31 10  2  0
 29 15  1  0
 27 22  1  0
  1 34  1  0
  1 35  1  0
  1 36  1  0
  3 37  1  0
  4 38  1  0
  6 39  1  0
  6 40  1  0
 13 41  1  0
 15 42  1  0
 16 43  1  0
 16 44  1  0
 17 45  1  0
 17 46  1  0
 23 47  1  0
 24 48  1  0
 25 49  1  0
 26 50  1  0
 27 51  1  0
 28 52  1  0
 28 53  1  0
 29 54  1  0
 29 55  1  0
 32 56  1  0
 33 57  1  0
M  END
$$$$
