
     RDKit          3D

 42 45  0  0  0  0  0  0  0  0999 V2000
    2.4556    2.3068    0.0717 O   0  0  0  0  0  0  0  0  0  0  0  0
    2.7420    1.1683   -0.2901 C   0  0  0  0  0  0  0  0  0  0  0  0
    4.0711    0.6326    0.0861 C   0  0  0  0  0  0  0  0  0  0  0  0
    4.5368    0.8320    1.3923 C   0  0  0  0  0  0  0  0  0  0  0  0
    5.7974    0.3595    1.7633 C   0  0  0  0  0  0  0  0  0  0  0  0
    6.5944   -0.2966    0.8253 C   0  0  0  0  0  0  0  0  0  0  0  0
    6.1303   -0.4665   -0.4762 C   0  0  0  0  0  0  0  0  0  0  0  0
    6.9057   -1.0868   -1.3749 F   0  0  0  0  0  0  0  0  0  0  0  0
    4.8788   -0.0026   -0.8609 C   0  0  0  0  0  0  0  0  0  0  0  0
    1.8876    0.3700   -1.0543 N   0  0  0  0  0  0  0  0  0  0  0  0
    0.6165    0.9684   -1.4704 C   0  0  0  0  0  0  0  0  0  0  0  0
   -0.4795    0.6953   -0.4304 C   0  0  0  0  0  0  0  0  0  0  0  0
   -0.5876   -0.7453   -0.1247 N   0  0  0  0  0  0  0  0  0  0  0  0
   -1.7348   -1.2983    0.4681 C   0  0  0  0  0  0  0  0  0  0  0  0
   -1.6462   -2.2367    1.2626 O   0  0  0  0  0  0  0  0  0  0  0  0
   -3.0665   -0.7691    0.1061 C   0  0  0  0  0  0  0  0  0  0  0  0
   -4.2389   -0.9100    0.8921 C   0  0  0  0  0  0  0  0  0  0  0  0
   -5.2522   -0.3297    0.1709 C   0  0  0  0  0  0  0  0  0  0  0  0
   -6.5832   -0.1634    0.4378 N   0  0  0  0  0  0  0  0  0  0  0  0
   -7.2732    0.4314   -0.4920 C   0  0  0  0  0  0  0  0  0  0  0  0
   -6.7433    0.9368   -1.7958 C   0  0  0  0  0  0  0  0  0  0  0  0
   -7.8866    1.7586   -2.9923 Br  0  0  0  0  0  0  0  0  0  0  0  0
   -5.4331    0.7421   -1.9907 C   0  0  0  0  0  0  0  0  0  0  0  0
   -4.6689    0.1098   -1.0179 N   0  0  0  0  0  0  0  0  0  0  0  0
   -3.3440   -0.1613   -1.0631 N   0  0  0  0  0  0  0  0  0  0  0  0
    0.6889   -1.3987    0.1930 C   0  0  0  0  0  0  0  0  0  0  0  0
    1.7841   -1.0804   -0.8409 C   0  0  0  0  0  0  0  0  0  0  0  0
    3.9193    1.3596    2.1169 H   0  0  0  0  0  0  0  0  0  0  0  0
    6.1592    0.5105    2.7775 H   0  0  0  0  0  0  0  0  0  0  0  0
    7.5786   -0.6668    1.0963 H   0  0  0  0  0  0  0  0  0  0  0  0
    4.5516   -0.1297   -1.8876 H   0  0  0  0  0  0  0  0  0  0  0  0
    0.3438    0.5185   -2.4324 H   0  0  0  0  0  0  0  0  0  0  0  0
    0.7329    2.0458   -1.6283 H   0  0  0  0  0  0  0  0  0  0  0  0
   -0.2378    1.1946    0.5165 H   0  0  0  0  0  0  0  0  0  0  0  0
   -1.4182    1.1240   -0.7756 H   0  0  0  0  0  0  0  0  0  0  0  0
   -4.3256   -1.3802    1.8615 H   0  0  0  0  0  0  0  0  0  0  0  0
   -8.3519    0.5870   -0.3209 H   0  0  0  0  0  0  0  0  0  0  0  0
   -4.9033    1.0494   -2.8818 H   0  0  0  0  0  0  0  0  0  0  0  0
    0.5488   -2.4840    0.2482 H   0  0  0  0  0  0  0  0  0  0  0  0
    0.9923   -1.0497    1.1880 H   0  0  0  0  0  0  0  0  0  0  0  0
    2.7279   -1.5135   -0.5045 H   0  0  0  0  0  0  0  0  0  0  0  0
    1.5312   -1.5313   -1.8076 H   0  0  0  0  0  0  0  0  0  0  0  0
  1  2  2  0
  2  3  1  0
  3  4  2  0
  4  5  1  0
  5  6  2  0
  6  7  1  0
  7  8  1  0
  7  9  2  0
  2 10  1  0
 10 11  1  0
 11 12  1  0
 12 13  1  0
 13 14  1  0
 14 15  2  0
 14 16  1  0
 16 17  1  0
 17 18  2  0
 18 19  1  0
 19 20  2  0
 20 21  1  0
 21 22  1  0
 21 23  2  0
 23 24  1  0
 24 25  1  0
 13 26  1  0
 26 27  1  0
  9  3  1  0
 27 10  1  0
 25 16  2  0
 24 18  1  0
  4 28  1  0
  5 29  1  0
  6 30  1  0
  9 31  1  0
 11 32  1  0
 11 33  1  0
 12 34  1  0
 12 35  1  0
 17 36  1  0
 20 37  1  0
 23 38  1  0
 26 39  1  0
 26 40  1  0
 27 41  1  0
 27 42  1  0
M  END
$$$$
