
     RDKit          3D

 52 54  0  0  0  0  0  0  0  0999 V2000
    7.5299   -3.2398   -4.3547 C   0  0  0  0  0  0  0  0  0  0  0  0
    6.8519   -2.5021   -3.2384 C   0  0  0  0  0  0  0  0  0  0  0  0
    6.7737   -1.1052   -3.2563 C   0  0  0  0  0  0  0  0  0  0  0  0
    6.1157   -0.4194   -2.2325 C   0  0  0  0  0  0  0  0  0  0  0  0
    5.5225   -1.1189   -1.1734 C   0  0  0  0  0  0  0  0  0  0  0  0
    4.7936   -0.3781   -0.0871 C   0  0  0  0  0  0  0  0  0  0  0  0
    3.4258   -0.1358   -0.4586 N   0  0  0  0  0  0  0  0  0  0  0  0
    2.6161    0.6893    0.2815 C   0  0  0  0  0  0  0  0  0  0  0  0
    2.9642    1.3895    1.2223 O   0  0  0  0  0  0  0  0  0  0  0  0
    1.1365    0.6707   -0.1644 C   0  0  0  0  0  0  0  0  0  0  0  0
    0.7681   -0.1098   -1.0297 O   0  0  0  0  0  0  0  0  0  0  0  0
    0.3564    1.5911    0.4977 N   0  0  0  0  0  0  0  0  0  0  0  0
   -1.0926    1.5948    0.3907 C   0  0  0  0  0  0  0  0  0  0  0  0
   -1.7821    0.7840    1.5071 C   0  0  0  0  0  0  0  0  0  0  0  0
   -1.4375   -0.6088    1.4031 O   0  0  0  0  0  0  0  0  0  0  0  0
   -2.5460   -1.3110    1.9650 C   0  0  0  0  0  0  0  0  0  0  0  0
   -3.7440   -0.5412    1.4585 C   0  0  0  0  0  0  0  0  0  0  0  0
   -3.2573    0.8517    1.3743 N   0  0  0  0  0  0  0  0  0  0  0  0
   -3.9680    1.9878    2.3988 S   0  0  0  0  0  6  0  0  0  0  0  0
   -3.9871    1.4126    3.7267 O   0  0  0  0  0  0  0  0  0  0  0  0
   -3.3477    3.2685    2.1419 O   0  0  0  0  0  0  0  0  0  0  0  0
   -5.6325    2.0688    1.7897 C   0  0  0  0  0  0  0  0  0  0  0  0
   -6.7017    1.7156    2.6180 C   0  0  0  0  0  0  0  0  0  0  0  0
   -8.0047    1.7829    2.1212 C   0  0  0  0  0  0  0  0  0  0  0  0
   -8.2261    2.2021    0.8080 C   0  0  0  0  0  0  0  0  0  0  0  0
   -9.9928    2.2897    0.1395 Br  0  0  0  0  0  0  0  0  0  0  0  0
   -7.1576    2.5610   -0.0157 C   0  0  0  0  0  0  0  0  0  0  0  0
   -5.8530    2.4982    0.4764 C   0  0  0  0  0  0  0  0  0  0  0  0
    5.5780   -2.5188   -1.1712 C   0  0  0  0  0  0  0  0  0  0  0  0
    6.2360   -3.2039   -2.1958 C   0  0  0  0  0  0  0  0  0  0  0  0
    8.3454   -2.6439   -4.7787 H   0  0  0  0  0  0  0  0  0  0  0  0
    7.9666   -4.1769   -3.9943 H   0  0  0  0  0  0  0  0  0  0  0  0
    6.8087   -3.4664   -5.1461 H   0  0  0  0  0  0  0  0  0  0  0  0
    7.2237   -0.5400   -4.0699 H   0  0  0  0  0  0  0  0  0  0  0  0
    6.0635    0.6670   -2.2684 H   0  0  0  0  0  0  0  0  0  0  0  0
    5.2856    0.5774    0.1311 H   0  0  0  0  0  0  0  0  0  0  0  0
    4.7973   -0.9537    0.8463 H   0  0  0  0  0  0  0  0  0  0  0  0
    2.9652   -0.7442   -1.1309 H   0  0  0  0  0  0  0  0  0  0  0  0
    0.8142    2.1124    1.2414 H   0  0  0  0  0  0  0  0  0  0  0  0
   -1.3712    1.1889   -0.5888 H   0  0  0  0  0  0  0  0  0  0  0  0
   -1.4065    2.6423    0.4235 H   0  0  0  0  0  0  0  0  0  0  0  0
   -1.4425    1.1238    2.4933 H   0  0  0  0  0  0  0  0  0  0  0  0
   -2.5401   -2.3541    1.6378 H   0  0  0  0  0  0  0  0  0  0  0  0
   -2.4685   -1.2747    3.0571 H   0  0  0  0  0  0  0  0  0  0  0  0
   -4.6181   -0.6811    2.0981 H   0  0  0  0  0  0  0  0  0  0  0  0
   -4.0103   -0.8589    0.4446 H   0  0  0  0  0  0  0  0  0  0  0  0
   -6.5322    1.3927    3.6429 H   0  0  0  0  0  0  0  0  0  0  0  0
   -8.8389    1.5112    2.7633 H   0  0  0  0  0  0  0  0  0  0  0  0
   -7.3309    2.8906   -1.0369 H   0  0  0  0  0  0  0  0  0  0  0  0
   -5.0179    2.7826   -0.1604 H   0  0  0  0  0  0  0  0  0  0  0  0
    5.1057   -3.0868   -0.3722 H   0  0  0  0  0  0  0  0  0  0  0  0
    6.2635   -4.2914   -2.1757 H   0  0  0  0  0  0  0  0  0  0  0  0
  1  2  1  0
  2  3  2  0
  3  4  1  0
  4  5  2  0
  5  6  1  0
  6  7  1  0
  7  8  1  0
  8  9  2  0
  8 10  1  0
 10 11  2  0
 10 12  1  0
 12 13  1  0
 13 14  1  0
 14 15  1  0
 15 16  1  0
 16 17  1  0
 17 18  1  0
 18 19  1  0
 19 20  2  0
 19 21  2  0
 19 22  1  0
 22 23  2  0
 23 24  1  0
 24 25  2  0
 25 26  1  0
 25 27  1  0
 27 28  2  0
  5 29  1  0
 29 30  2  0
 30  2  1  0
 18 14  1  0
 28 22  1  0
  1 31  1  0
  1 32  1  0
  1 33  1  0
  3 34  1  0
  4 35  1  0
  6 36  1  0
  6 37  1  0
  7 38  1  0
 12 39  1  0
 13 40  1  0
 13 41  1  0
 14 42  1  0
 16 43  1  0
 16 44  1  0
 17 45  1  0
 17 46  1  0
 23 47  1  0
 24 48  1  0
 27 49  1  0
 28 50  1  0
 29 51  1  0
 30 52  1  0
M  END
$$$$
