
     RDKit          3D

 58 60  0  0  0  0  0  0  0  0999 V2000
    1.4204    2.1391    0.0901 C   0  0  0  0  0  0  0  0  0  0  0  0
   -0.0819    2.2155   -0.0063 C   0  0  0  0  0  0  0  0  0  0  0  0
   -0.7586    3.0668    0.8877 C   0  0  0  0  0  0  0  0  0  0  0  0
   -2.1459    3.1826    0.8523 C   0  0  0  0  0  0  0  0  0  0  0  0
   -2.8624    2.4453   -0.0862 C   0  0  0  0  0  0  0  0  0  0  0  0
   -4.6284    2.5839   -0.1621 S   0  0  0  0  0  6  0  0  0  0  0  0
   -4.9798    2.9115   -1.5255 O   0  0  0  0  0  0  0  0  0  0  0  0
   -5.0740    3.4100    0.9417 O   0  0  0  0  0  0  0  0  0  0  0  0
   -5.1525    0.9952    0.1615 N   0  0  0  0  0  0  0  0  0  0  0  0
   -4.7361    0.4347    1.4895 C   0  0  0  0  0  0  0  0  0  0  0  0
   -5.6137   -0.7645    1.8595 C   0  0  0  0  0  0  0  0  0  0  0  0
   -6.9932   -0.4101    2.0335 O   0  0  0  0  0  0  0  0  0  0  0  0
   -7.4062    0.6794    1.1914 C   0  0  0  0  0  0  0  0  0  0  0  0
   -6.6099    0.7687   -0.1128 C   0  0  0  0  0  0  0  0  0  0  0  0
   -2.2109    1.5937   -0.9861 C   0  0  0  0  0  0  0  0  0  0  0  0
   -0.8188    1.4620   -0.9501 C   0  0  0  0  0  0  0  0  0  0  0  0
   -0.1196    0.6199   -1.8434 N   0  0  0  0  0  0  0  0  0  0  0  0
   -0.6413   -0.3087   -2.7287 C   0  0  0  0  0  0  0  0  0  0  0  0
   -1.8186   -0.6408   -2.8252 O   0  0  0  0  0  0  0  0  0  0  0  0
    0.4315   -0.9497   -3.6214 C   0  0  0  0  0  0  0  0  0  0  0  0
    1.0840   -2.0712   -3.0252 O   0  0  0  0  0  0  0  0  0  0  0  0
    2.0176   -1.7649   -2.0830 C   0  0  0  0  0  0  0  0  0  0  0  0
    2.2838   -0.6233   -1.7185 O   0  0  0  0  0  0  0  0  0  0  0  0
    2.6110   -3.0401   -1.4970 C   0  0  0  0  0  0  0  0  0  0  0  0
    3.6759   -2.7354   -0.5545 N   0  0  0  0  0  0  0  0  0  0  0  0
    4.9678   -2.5602   -1.0070 C   0  0  0  0  0  0  0  0  0  0  0  0
    5.2987   -2.7578   -2.1707 O   0  0  0  0  0  0  0  0  0  0  0  0
    5.9546   -2.0617   -0.0074 C   0  0  0  0  0  0  0  0  0  0  0  0
    5.8007   -2.2952    1.3665 C   0  0  0  0  0  0  0  0  0  0  0  0
    6.7469   -1.8040    2.2690 C   0  0  0  0  0  0  0  0  0  0  0  0
    7.8498   -1.0866    1.8054 C   0  0  0  0  0  0  0  0  0  0  0  0
    8.0169   -0.8678    0.4382 C   0  0  0  0  0  0  0  0  0  0  0  0
    7.0740   -1.3568   -0.4677 C   0  0  0  0  0  0  0  0  0  0  0  0
    1.8816    2.4268   -0.8605 H   0  0  0  0  0  0  0  0  0  0  0  0
    1.8096    2.8169    0.8554 H   0  0  0  0  0  0  0  0  0  0  0  0
    1.7323    1.1266    0.3628 H   0  0  0  0  0  0  0  0  0  0  0  0
   -0.2019    3.6535    1.6166 H   0  0  0  0  0  0  0  0  0  0  0  0
   -2.6509    3.8520    1.5448 H   0  0  0  0  0  0  0  0  0  0  0  0
   -3.6919    0.1133    1.4275 H   0  0  0  0  0  0  0  0  0  0  0  0
   -4.8310    1.1999    2.2671 H   0  0  0  0  0  0  0  0  0  0  0  0
   -5.5592   -1.5377    1.0848 H   0  0  0  0  0  0  0  0  0  0  0  0
   -5.2691   -1.2125    2.7964 H   0  0  0  0  0  0  0  0  0  0  0  0
   -8.4690    0.5398    0.9756 H   0  0  0  0  0  0  0  0  0  0  0  0
   -7.3083    1.6051    1.7712 H   0  0  0  0  0  0  0  0  0  0  0  0
   -7.0251    1.5579   -0.7426 H   0  0  0  0  0  0  0  0  0  0  0  0
   -6.6889   -0.1667   -0.6738 H   0  0  0  0  0  0  0  0  0  0  0  0
   -2.8168    1.0576   -1.7111 H   0  0  0  0  0  0  0  0  0  0  0  0
    0.8974    0.6124   -1.7629 H   0  0  0  0  0  0  0  0  0  0  0  0
   -0.0640   -1.3047   -4.5316 H   0  0  0  0  0  0  0  0  0  0  0  0
    1.1614   -0.1983   -3.9456 H   0  0  0  0  0  0  0  0  0  0  0  0
    2.9938   -3.6700   -2.3038 H   0  0  0  0  0  0  0  0  0  0  0  0
    1.8296   -3.5644   -0.9412 H   0  0  0  0  0  0  0  0  0  0  0  0
    3.4103   -2.2413    0.2878 H   0  0  0  0  0  0  0  0  0  0  0  0
    4.9679   -2.8795    1.7476 H   0  0  0  0  0  0  0  0  0  0  0  0
    6.6296   -1.9875    3.3345 H   0  0  0  0  0  0  0  0  0  0  0  0
    8.5872   -0.7063    2.5084 H   0  0  0  0  0  0  0  0  0  0  0  0
    8.8826   -0.3175    0.0770 H   0  0  0  0  0  0  0  0  0  0  0  0
    7.2113   -1.1847   -1.5328 H   0  0  0  0  0  0  0  0  0  0  0  0
  1  2  1  0
  2  3  2  0
  3  4  1  0
  4  5  2  0
  5  6  1  0
  6  7  2  0
  6  8  2  0
  6  9  1  0
  9 10  1  0
 10 11  1  0
 11 12  1  0
 12 13  1  0
 13 14  1  0
  5 15  1  0
 15 16  2  0
 16 17  1  0
 17 18  1  0
 18 19  2  0
 18 20  1  0
 20 21  1  0
 21 22  1  0
 22 23  2  0
 22 24  1  0
 24 25  1  0
 25 26  1  0
 26 27  2  0
 26 28  1  0
 28 29  2  0
 29 30  1  0
 30 31  2  0
 31 32  1  0
 32 33  2  0
 16  2  1  0
 33 28  1  0
 14  9  1  0
  1 34  1  0
  1 35  1  0
  1 36  1  0
  3 37  1  0
  4 38  1  0
 10 39  1  0
 10 40  1  0
 11 41  1  0
 11 42  1  0
 13 43  1  0
 13 44  1  0
 14 45  1  0
 14 46  1  0
 15 47  1  0
 17 48  1  0
 20 49  1  0
 20 50  1  0
 24 51  1  0
 24 52  1  0
 25 53  1  0
 29 54  1  0
 30 55  1  0
 31 56  1  0
 32 57  1  0
 33 58  1  0
M  END
$$$$
