
     RDKit          3D

 42 44  0  0  0  0  0  0  0  0999 V2000
   -4.9007    0.6441   -2.5228 C   0  0  0  0  0  0  0  0  0  0  0  0
   -4.2857    0.1108   -1.3577 O   0  0  0  0  0  0  0  0  0  0  0  0
   -5.0457    0.0255   -0.2179 C   0  0  0  0  0  0  0  0  0  0  0  0
   -6.3751    0.4559   -0.1241 C   0  0  0  0  0  0  0  0  0  0  0  0
   -7.0869    0.3106    1.0698 C   0  0  0  0  0  0  0  0  0  0  0  0
   -6.4806   -0.2684    2.1797 C   0  0  0  0  0  0  0  0  0  0  0  0
   -5.1570   -0.6988    2.1006 C   0  0  0  0  0  0  0  0  0  0  0  0
   -4.4245   -0.5472    0.9126 C   0  0  0  0  0  0  0  0  0  0  0  0
   -3.0365   -1.0401    0.9133 C   0  0  0  0  0  0  0  0  0  0  0  0
   -1.9968   -0.2683    0.5637 C   0  0  0  0  0  0  0  0  0  0  0  0
   -0.6113   -0.7415    0.5652 C   0  0  0  0  0  0  0  0  0  0  0  0
    0.4328   -0.0553    0.2430 N   0  0  0  0  0  0  0  0  0  0  0  0
    1.4599   -0.9505    0.4143 C   0  0  0  0  0  0  0  0  0  0  0  0
    2.7442   -0.6435    0.1827 C   0  0  0  0  0  0  0  0  0  0  0  0
    3.8958   -1.5097    0.3357 C   0  0  0  0  0  0  0  0  0  0  0  0
    5.1721   -1.1819    0.0739 C   0  0  0  0  0  0  0  0  0  0  0  0
    5.6463    0.1064   -0.4367 C   0  0  0  0  0  0  0  0  0  0  0  0
    6.2973    0.9975    0.4223 C   0  0  0  0  0  0  0  0  0  0  0  0
    6.7547    2.2269   -0.0564 C   0  0  0  0  0  0  0  0  0  0  0  0
    6.5653    2.5693   -1.3949 C   0  0  0  0  0  0  0  0  0  0  0  0
    5.9194    1.6835   -2.2565 C   0  0  0  0  0  0  0  0  0  0  0  0
    5.4615    0.4539   -1.7796 C   0  0  0  0  0  0  0  0  0  0  0  0
    0.9136   -2.2587    0.8797 C   0  0  0  0  0  0  0  0  0  0  0  0
    1.4790   -3.2995    1.1468 O   0  0  0  0  0  0  0  0  0  0  0  0
   -0.4255   -2.0239    0.9473 O   0  0  0  0  0  0  0  0  0  0  0  0
   -5.1942    1.6879   -2.3710 H   0  0  0  0  0  0  0  0  0  0  0  0
   -4.1622    0.6213   -3.3300 H   0  0  0  0  0  0  0  0  0  0  0  0
   -5.7534    0.0325   -2.8354 H   0  0  0  0  0  0  0  0  0  0  0  0
   -6.8914    0.9069   -0.9649 H   0  0  0  0  0  0  0  0  0  0  0  0
   -8.1190    0.6475    1.1297 H   0  0  0  0  0  0  0  0  0  0  0  0
   -7.0363   -0.3850    3.1067 H   0  0  0  0  0  0  0  0  0  0  0  0
   -4.6959   -1.1475    2.9781 H   0  0  0  0  0  0  0  0  0  0  0  0
   -2.9061   -2.0689    1.2382 H   0  0  0  0  0  0  0  0  0  0  0  0
   -2.1318    0.7623    0.2514 H   0  0  0  0  0  0  0  0  0  0  0  0
    2.9448    0.3732   -0.1522 H   0  0  0  0  0  0  0  0  0  0  0  0
    3.7181   -2.5173    0.7083 H   0  0  0  0  0  0  0  0  0  0  0  0
    5.9557   -1.9161    0.2504 H   0  0  0  0  0  0  0  0  0  0  0  0
    6.4469    0.7424    1.4687 H   0  0  0  0  0  0  0  0  0  0  0  0
    7.2573    2.9175    0.6157 H   0  0  0  0  0  0  0  0  0  0  0  0
    6.9211    3.5267   -1.7665 H   0  0  0  0  0  0  0  0  0  0  0  0
    5.7716    1.9495   -3.2999 H   0  0  0  0  0  0  0  0  0  0  0  0
    4.9594   -0.2303   -2.4595 H   0  0  0  0  0  0  0  0  0  0  0  0
  1  2  1  0
  2  3  1  0
  3  4  2  0
  4  5  1  0
  5  6  2  0
  6  7  1  0
  7  8  2  0
  8  9  1  0
  9 10  2  3
 10 11  1  0
 11 12  2  0
 12 13  1  0
 13 14  2  3
 14 15  1  0
 15 16  2  3
 16 17  1  0
 17 18  2  0
 18 19  1  0
 19 20  2  0
 20 21  1  0
 21 22  2  0
 13 23  1  0
 23 24  2  0
 23 25  1  0
  8  3  1  0
 25 11  1  0
 22 17  1  0
  1 26  1  0
  1 27  1  0
  1 28  1  0
  4 29  1  0
  5 30  1  0
  6 31  1  0
  7 32  1  0
  9 33  1  0
 10 34  1  0
 14 35  1  0
 15 36  1  0
 16 37  1  0
 18 38  1  0
 19 39  1  0
 20 40  1  0
 21 41  1  0
 22 42  1  0
M  END
$$$$
