
     RDKit          3D

 58 62  0  0  0  0  0  0  0  0999 V2000
    3.7056    4.5909    1.6228 C   0  0  0  0  0  0  0  0  0  0  0  0
    3.5705    3.3082    2.2219 O   0  0  0  0  0  0  0  0  0  0  0  0
    3.5895    2.2325    1.3767 C   0  0  0  0  0  0  0  0  0  0  0  0
    3.3730    0.9997    1.9942 C   0  0  0  0  0  0  0  0  0  0  0  0
    3.3559   -0.1796    1.2458 C   0  0  0  0  0  0  0  0  0  0  0  0
    3.5592   -0.1438   -0.1389 C   0  0  0  0  0  0  0  0  0  0  0  0
    3.5237   -1.4199   -0.9475 C   0  0  0  0  0  0  0  0  0  0  0  0
    2.4327   -1.4970   -2.0315 C   0  0  0  0  0  0  0  0  0  0  0  0
    1.0857   -1.1772   -1.5146 N   0  0  0  0  0  0  0  0  0  0  0  0
    0.5209    0.0697   -1.8308 C   0  0  0  0  0  0  0  0  0  0  0  0
    1.1040    0.8568   -2.6942 N   0  0  0  0  0  0  0  0  0  0  0  0
   -0.7753    0.4920   -1.1732 C   0  0  0  0  0  0  0  0  0  0  0  0
   -1.4104    1.8167   -1.4422 C   0  0  0  0  0  0  0  0  0  0  0  0
   -0.7620    2.7393   -1.9297 O   0  0  0  0  0  0  0  0  0  0  0  0
   -2.7542    1.9177   -1.1830 N   0  0  0  0  0  0  0  0  0  0  0  0
   -3.4857    3.1039   -1.5644 C   0  0  0  0  0  0  0  0  0  0  0  0
   -4.8270    3.0535   -0.9360 C   0  0  0  0  0  0  0  0  0  0  0  0
   -5.4962    3.8826   -0.0599 C   0  0  0  0  0  0  0  0  0  0  0  0
   -6.7561    3.2815    0.1764 C   0  0  0  0  0  0  0  0  0  0  0  0
   -6.7756    2.1254   -0.5674 C   0  0  0  0  0  0  0  0  0  0  0  0
   -5.6090    1.9762   -1.2460 O   0  0  0  0  0  0  0  0  0  0  0  0
   -1.2876   -0.3821   -0.2892 C   0  0  0  0  0  0  0  0  0  0  0  0
   -0.6977   -1.6873   -0.0299 C   0  0  0  0  0  0  0  0  0  0  0  0
   -1.3756   -2.6195    0.9149 C   0  0  0  0  0  0  0  0  0  0  0  0
   -2.4363   -2.2854    1.4485 O   0  0  0  0  0  0  0  0  0  0  0  0
   -0.7490   -3.8342    1.1264 N   0  0  0  0  0  0  0  0  0  0  0  0
   -1.3128   -4.7535    2.0050 C   0  0  0  0  0  0  0  0  0  0  0  0
   -0.7482   -5.9450    2.2361 C   0  0  0  0  0  0  0  0  0  0  0  0
    0.4725   -6.3009    1.5640 C   0  0  0  0  0  0  0  0  0  0  0  0
    1.0482   -5.4471    0.7094 C   0  0  0  0  0  0  0  0  0  0  0  0
    0.4233   -4.1185    0.4521 C   0  0  0  0  0  0  0  0  0  0  0  0
    1.0041   -3.3132   -0.3772 N   0  0  0  0  0  0  0  0  0  0  0  0
    0.4521   -2.0760   -0.6252 C   0  0  0  0  0  0  0  0  0  0  0  0
    3.7918    1.0928   -0.7513 C   0  0  0  0  0  0  0  0  0  0  0  0
    3.8015    2.2739   -0.0005 C   0  0  0  0  0  0  0  0  0  0  0  0
    4.6841    4.7016    1.1438 H   0  0  0  0  0  0  0  0  0  0  0  0
    3.6390    5.3395    2.4181 H   0  0  0  0  0  0  0  0  0  0  0  0
    2.8931    4.7851    0.9148 H   0  0  0  0  0  0  0  0  0  0  0  0
    3.2092    0.9582    3.0677 H   0  0  0  0  0  0  0  0  0  0  0  0
    3.1740   -1.1242    1.7524 H   0  0  0  0  0  0  0  0  0  0  0  0
    3.4239   -2.2748   -0.2680 H   0  0  0  0  0  0  0  0  0  0  0  0
    4.5040   -1.5480   -1.4247 H   0  0  0  0  0  0  0  0  0  0  0  0
    2.4278   -2.5072   -2.4618 H   0  0  0  0  0  0  0  0  0  0  0  0
    2.7128   -0.8460   -2.8675 H   0  0  0  0  0  0  0  0  0  0  0  0
    0.5856    1.7488   -2.7715 H   0  0  0  0  0  0  0  0  0  0  0  0
   -3.3094    1.0843   -1.0398 H   0  0  0  0  0  0  0  0  0  0  0  0
   -2.9295    3.9924   -1.2477 H   0  0  0  0  0  0  0  0  0  0  0  0
   -3.5696    3.1194   -2.6561 H   0  0  0  0  0  0  0  0  0  0  0  0
   -5.1182    4.8056    0.3581 H   0  0  0  0  0  0  0  0  0  0  0  0
   -7.5519    3.6442    0.8117 H   0  0  0  0  0  0  0  0  0  0  0  0
   -7.5055    1.3413   -0.7140 H   0  0  0  0  0  0  0  0  0  0  0  0
   -2.1780   -0.1445    0.2863 H   0  0  0  0  0  0  0  0  0  0  0  0
   -2.2362   -4.4632    2.5003 H   0  0  0  0  0  0  0  0  0  0  0  0
   -1.1949   -6.6557    2.9240 H   0  0  0  0  0  0  0  0  0  0  0  0
    0.9114   -7.2729    1.7653 H   0  0  0  0  0  0  0  0  0  0  0  0
    1.9660   -5.6767    0.1829 H   0  0  0  0  0  0  0  0  0  0  0  0
    3.9388    1.1532   -1.8281 H   0  0  0  0  0  0  0  0  0  0  0  0
    3.9679    3.2064   -0.5287 H   0  0  0  0  0  0  0  0  0  0  0  0
  1  2  1  0
  2  3  1  0
  3  4  2  0
  4  5  1  0
  5  6  2  0
  6  7  1  0
  7  8  1  0
  8  9  1  0
  9 10  1  0
 10 11  2  3
 10 12  1  0
 12 13  1  0
 13 14  2  0
 13 15  1  0
 15 16  1  0
 16 17  1  0
 17 18  2  0
 18 19  1  0
 19 20  2  0
 20 21  1  0
 12 22  2  0
 22 23  1  0
 23 24  1  0
 24 25  2  0
 24 26  1  0
 26 27  1  0
 27 28  2  0
 28 29  1  0
 29 30  2  0
 30 31  1  0
 31 32  2  0
 32 33  1  0
  6 34  1  0
 34 35  2  0
 35  3  1  0
 33  9  1  0
 21 17  1  0
 33 23  2  0
 31 26  1  0
  1 36  1  0
  1 37  1  0
  1 38  1  0
  4 39  1  0
  5 40  1  0
  7 41  1  0
  7 42  1  0
  8 43  1  0
  8 44  1  0
 11 45  1  0
 15 46  1  0
 16 47  1  0
 16 48  1  0
 18 49  1  0
 19 50  1  0
 20 51  1  0
 22 52  1  0
 27 53  1  0
 28 54  1  0
 29 55  1  0
 30 56  1  0
 34 57  1  0
 35 58  1  0
M  END
$$$$
