
     RDKit          3D

 50 53  0  0  0  0  0  0  0  0999 V2000
   -0.7581    1.4421    4.4157 C   0  0  0  0  0  0  0  0  0  0  0  0
   -1.1276    0.5494    3.2406 C   0  0  0  0  0  0  0  0  0  0  0  0
   -0.6501    1.1149    1.9115 C   0  0  0  0  0  0  0  0  0  0  0  0
   -0.0132    2.1703    1.8699 O   0  0  0  0  0  0  0  0  0  0  0  0
   -0.9439    0.3874    0.7620 N   0  0  0  0  0  0  0  0  0  0  0  0
   -1.7259   -0.8549    0.7330 C   0  0  0  0  0  0  0  0  0  0  0  0
   -3.0693   -0.6869    0.0569 C   0  0  0  0  0  0  0  0  0  0  0  0
   -3.3256   -1.3072   -1.1760 C   0  0  0  0  0  0  0  0  0  0  0  0
   -4.5615   -1.1537   -1.8099 C   0  0  0  0  0  0  0  0  0  0  0  0
   -5.5725   -0.3920   -1.2161 C   0  0  0  0  0  0  0  0  0  0  0  0
   -6.8932   -0.2045   -1.9057 C   0  0  0  0  0  0  0  0  0  0  0  0
   -5.3160    0.2402    0.0072 C   0  0  0  0  0  0  0  0  0  0  0  0
   -4.0771    0.0929    0.6376 C   0  0  0  0  0  0  0  0  0  0  0  0
   -0.4237    0.8807   -0.5190 C   0  0  0  0  0  0  0  0  0  0  0  0
    0.9508    0.3274   -0.7792 C   0  0  0  0  0  0  0  0  0  0  0  0
    2.0750    0.9348   -0.3529 C   0  0  0  0  0  0  0  0  0  0  0  0
    3.3955    0.3853   -0.6537 C   0  0  0  0  0  0  0  0  0  0  0  0
    4.5627    1.0223   -0.2148 C   0  0  0  0  0  0  0  0  0  0  0  0
    5.7695    0.4435   -0.5513 C   0  0  0  0  0  0  0  0  0  0  0  0
    5.8417   -0.7206   -1.2820 C   0  0  0  0  0  0  0  0  0  0  0  0
    4.7135   -1.3761   -1.7250 C   0  0  0  0  0  0  0  0  0  0  0  0
    3.4803   -0.8050   -1.4055 C   0  0  0  0  0  0  0  0  0  0  0  0
    2.2999   -1.4082   -1.8520 N   0  0  0  0  0  0  0  0  0  0  0  0
    1.0476   -0.9065   -1.6132 C   0  0  0  0  0  0  0  0  0  0  0  0
    0.0542   -1.4632   -2.0696 O   0  0  0  0  0  0  0  0  0  0  0  0
    7.1251   -1.1149   -1.5027 O   0  0  0  0  0  0  0  0  0  0  0  0
    7.8523   -0.0343   -0.8805 C   0  0  0  0  0  0  0  0  0  0  0  0
    6.9994    0.9305   -0.2317 O   0  0  0  0  0  0  0  0  0  0  0  0
   -1.2208    2.4312    4.3134 H   0  0  0  0  0  0  0  0  0  0  0  0
    0.3269    1.5830    4.4854 H   0  0  0  0  0  0  0  0  0  0  0  0
   -1.1072    0.9995    5.3542 H   0  0  0  0  0  0  0  0  0  0  0  0
   -0.6698   -0.4345    3.3894 H   0  0  0  0  0  0  0  0  0  0  0  0
   -2.2144    0.4448    3.2207 H   0  0  0  0  0  0  0  0  0  0  0  0
   -1.9013   -1.2431    1.7388 H   0  0  0  0  0  0  0  0  0  0  0  0
   -1.1265   -1.6201    0.2281 H   0  0  0  0  0  0  0  0  0  0  0  0
   -2.5538   -1.9034   -1.6631 H   0  0  0  0  0  0  0  0  0  0  0  0
   -4.7257   -1.6322   -2.7719 H   0  0  0  0  0  0  0  0  0  0  0  0
   -6.9039    0.7466   -2.4416 H   0  0  0  0  0  0  0  0  0  0  0  0
   -7.0828   -1.0103   -2.6200 H   0  0  0  0  0  0  0  0  0  0  0  0
   -7.7144   -0.2143   -1.1847 H   0  0  0  0  0  0  0  0  0  0  0  0
   -6.0817    0.8551    0.4763 H   0  0  0  0  0  0  0  0  0  0  0  0
   -3.9072    0.5988    1.5861 H   0  0  0  0  0  0  0  0  0  0  0  0
   -0.3787    1.9778   -0.4889 H   0  0  0  0  0  0  0  0  0  0  0  0
   -1.1204    0.6436   -1.3292 H   0  0  0  0  0  0  0  0  0  0  0  0
    2.0228    1.8505    0.2284 H   0  0  0  0  0  0  0  0  0  0  0  0
    4.5330    1.9416    0.3585 H   0  0  0  0  0  0  0  0  0  0  0  0
    4.7971   -2.2896   -2.3031 H   0  0  0  0  0  0  0  0  0  0  0  0
    2.3386   -2.2505   -2.4104 H   0  0  0  0  0  0  0  0  0  0  0  0
    8.5398   -0.4504   -0.1349 H   0  0  0  0  0  0  0  0  0  0  0  0
    8.4407    0.4822   -1.6501 H   0  0  0  0  0  0  0  0  0  0  0  0
  1  2  1  0
  2  3  1  0
  3  4  2  0
  3  5  1  0
  5  6  1  0
  6  7  1  0
  7  8  2  0
  8  9  1  0
  9 10  2  0
 10 11  1  0
 10 12  1  0
 12 13  2  0
  5 14  1  0
 14 15  1  0
 15 16  2  0
 16 17  1  0
 17 18  2  0
 18 19  1  0
 19 20  2  0
 20 21  1  0
 21 22  2  0
 22 23  1  0
 23 24  1  0
 24 25  2  0
 20 26  1  0
 26 27  1  0
 27 28  1  0
 13  7  1  0
 24 15  1  0
 22 17  1  0
 28 19  1  0
  1 29  1  0
  1 30  1  0
  1 31  1  0
  2 32  1  0
  2 33  1  0
  6 34  1  0
  6 35  1  0
  8 36  1  0
  9 37  1  0
 11 38  1  0
 11 39  1  0
 11 40  1  0
 12 41  1  0
 13 42  1  0
 14 43  1  0
 14 44  1  0
 16 45  1  0
 18 46  1  0
 21 47  1  0
 23 48  1  0
 27 49  1  0
 27 50  1  0
M  END
$$$$
