
     RDKit          3D

 67 72  0  0  0  0  0  0  0  0999 V2000
   -5.6527    3.1913    2.4082 C   0  0  0  0  0  0  0  0  0  0  0  0
   -4.5062    2.9589    1.4683 C   0  0  0  0  0  0  0  0  0  0  0  0
   -4.3251    3.7400    0.3114 C   0  0  0  0  0  0  0  0  0  0  0  0
   -5.4144    5.0242   -0.0872 Cl  0  0  0  0  0  0  0  0  0  0  0  0
   -3.2627    3.4969   -0.5818 C   0  0  0  0  0  0  0  0  0  0  0  0
   -2.3507    2.4656   -0.3486 C   0  0  0  0  0  0  0  0  0  0  0  0
   -2.5157    1.6859    0.7873 C   0  0  0  0  0  0  0  0  0  0  0  0
   -3.5904    1.9295    1.6593 C   0  0  0  0  0  0  0  0  0  0  0  0
   -3.5961    0.9763    2.6743 N   0  0  0  0  0  0  0  0  0  0  0  0
   -2.5525    0.0604    2.5379 C   0  0  0  0  0  0  0  0  0  0  0  0
   -2.3734   -0.8929    3.2818 O   0  0  0  0  0  0  0  0  0  0  0  0
   -1.7275    0.4996    1.2889 C   0  0  1  0  0  0  0  0  0  0  0  0
   -1.7064   -0.5310    0.2274 C   0  0  0  0  0  0  0  0  0  0  0  0
   -0.4222   -1.0509    0.0844 C   0  0  0  0  0  0  0  0  0  0  0  0
   -0.4218   -1.9766   -0.9212 C   0  0  0  0  0  0  0  0  0  0  0  0
    0.6293   -2.5982   -1.4511 O   0  0  0  0  0  0  0  0  0  0  0  0
   -1.7541   -2.1158   -1.3552 N   0  0  0  0  0  0  0  0  0  0  0  0
   -2.2360   -3.0761   -2.2994 C   0  0  0  0  0  0  0  0  0  0  0  0
   -3.3168   -2.7756   -3.1386 C   0  0  0  0  0  0  0  0  0  0  0  0
   -3.7712   -3.7256   -4.0516 C   0  0  0  0  0  0  0  0  0  0  0  0
   -4.7933   -3.4198   -4.8625 F   0  0  0  0  0  0  0  0  0  0  0  0
   -3.1819   -4.9776   -4.1432 C   0  0  0  0  0  0  0  0  0  0  0  0
   -2.1234   -5.2765   -3.2990 C   0  0  0  0  0  0  0  0  0  0  0  0
   -1.5531   -6.4864   -3.3626 F   0  0  0  0  0  0  0  0  0  0  0  0
   -1.6432   -4.3445   -2.3804 C   0  0  0  0  0  0  0  0  0  0  0  0
   -2.5311   -1.1571   -0.6750 C   0  0  0  0  0  0  0  0  0  0  0  0
   -3.8361   -1.0119   -0.8918 O   0  0  0  0  0  0  0  0  0  0  0  0
    0.5442   -0.4175    1.0077 C   0  0  1  0  0  0  0  0  0  0  0  0
    1.8227    0.0885    0.3077 C   0  0  0  0  0  0  0  0  0  0  0  0
    2.5731    1.0435    1.1297 N   0  0  0  0  0  0  0  0  0  0  0  0
    3.9510    1.1333    1.1342 C   0  0  0  0  0  0  0  0  0  0  0  0
    4.5694    1.9364    1.8201 O   0  0  0  0  0  0  0  0  0  0  0  0
    4.5243    0.2353    0.2933 O   0  0  0  0  0  0  0  0  0  0  0  0
    5.9644    0.1447    0.1504 C   0  0  0  0  0  0  0  0  0  0  0  0
    6.6339   -0.2511    1.4715 C   0  0  0  0  0  0  0  0  0  0  0  0
    6.5491    1.4387   -0.4272 C   0  0  0  0  0  0  0  0  0  0  0  0
    6.1805   -0.9868   -0.8679 C   0  0  0  0  0  0  0  0  0  0  0  0
    1.8001    1.9526    1.9718 C   0  0  0  0  0  0  0  0  0  0  0  0
    0.3058    1.9824    1.6008 C   0  0  0  0  0  0  0  0  0  0  0  0
   -0.2903    0.6518    1.6712 N   0  0  0  0  0  0  0  0  0  0  0  0
   -5.5198    2.6658    3.3592 H   0  0  0  0  0  0  0  0  0  0  0  0
   -6.5864    2.8428    1.9554 H   0  0  0  0  0  0  0  0  0  0  0  0
   -5.7444    4.2537    2.6574 H   0  0  0  0  0  0  0  0  0  0  0  0
   -3.1520    4.1144   -1.4725 H   0  0  0  0  0  0  0  0  0  0  0  0
   -1.5445    2.2747   -1.0521 H   0  0  0  0  0  0  0  0  0  0  0  0
   -4.2671    0.9006    3.4244 H   0  0  0  0  0  0  0  0  0  0  0  0
    0.4055   -2.9060   -2.3472 H   0  0  0  0  0  0  0  0  0  0  0  0
   -3.8062   -1.8063   -3.1289 H   0  0  0  0  0  0  0  0  0  0  0  0
   -3.5459   -5.7094   -4.8545 H   0  0  0  0  0  0  0  0  0  0  0  0
   -0.8484   -4.6577   -1.7074 H   0  0  0  0  0  0  0  0  0  0  0  0
   -4.1761   -0.3302   -0.2841 H   0  0  0  0  0  0  0  0  0  0  0  0
    0.8269   -1.1305    1.7925 H   0  0  0  0  0  0  0  0  0  0  0  0
    1.5740    0.6150   -0.6233 H   0  0  0  0  0  0  0  0  0  0  0  0
    2.4507   -0.7643    0.0297 H   0  0  0  0  0  0  0  0  0  0  0  0
    6.1474   -1.1310    1.9070 H   0  0  0  0  0  0  0  0  0  0  0  0
    6.5691    0.5455    2.2188 H   0  0  0  0  0  0  0  0  0  0  0  0
    7.6958   -0.4778    1.3262 H   0  0  0  0  0  0  0  0  0  0  0  0
    6.4718    2.2732    0.2771 H   0  0  0  0  0  0  0  0  0  0  0  0
    7.6088    1.3178   -0.6794 H   0  0  0  0  0  0  0  0  0  0  0  0
    6.0079    1.7417   -1.3308 H   0  0  0  0  0  0  0  0  0  0  0  0
    5.7570   -1.9280   -0.4986 H   0  0  0  0  0  0  0  0  0  0  0  0
    5.6648   -0.7649   -1.8094 H   0  0  0  0  0  0  0  0  0  0  0  0
    7.2424   -1.1458   -1.0835 H   0  0  0  0  0  0  0  0  0  0  0  0
    2.2237    2.9602    1.8905 H   0  0  0  0  0  0  0  0  0  0  0  0
    1.9299    1.6237    3.0106 H   0  0  0  0  0  0  0  0  0  0  0  0
    0.2251    2.3980    0.5908 H   0  0  0  0  0  0  0  0  0  0  0  0
   -0.2097    2.6612    2.2888 H   0  0  0  0  0  0  0  0  0  0  0  0
  1  2  1  0
  2  3  2  0
  3  4  1  0
  3  5  1  0
  5  6  2  0
  6  7  1  0
  7  8  2  0
  8  9  1  0
  9 10  1  0
 10 11  2  0
 10 12  1  0
 12 13  1  0
 13 14  1  0
 14 15  2  0
 15 16  1  0
 15 17  1  0
 17 18  1  0
 18 19  2  0
 19 20  1  0
 20 21  1  0
 20 22  2  0
 22 23  1  0
 23 24  1  0
 23 25  2  0
 17 26  1  0
 26 27  1  0
 14 28  1  0
 28 29  1  0
 29 30  1  0
 30 31  1  0
 31 32  2  0
 31 33  1  0
 33 34  1  0
 34 35  1  0
 34 36  1  0
 34 37  1  0
 30 38  1  0
 38 39  1  0
 39 40  1  0
  8  2  1  0
 12 40  1  1
 12  7  1  0
 26 13  2  0
 40 28  1  0
 25 18  1  0
  1 41  1  0
  1 42  1  0
  1 43  1  0
  5 44  1  0
  6 45  1  0
  9 46  1  0
 16 47  1  0
 19 48  1  0
 22 49  1  0
 25 50  1  0
 27 51  1  0
 28 52  1  1
 29 53  1  0
 29 54  1  0
 35 55  1  0
 35 56  1  0
 35 57  1  0
 36 58  1  0
 36 59  1  0
 36 60  1  0
 37 61  1  0
 37 62  1  0
 37 63  1  0
 38 64  1  0
 38 65  1  0
 39 66  1  0
 39 67  1  0
M  END
$$$$
