
     RDKit          3D

 36 38  0  0  0  0  0  0  0  0999 V2000
    4.5980    2.7177   -0.6127 C   0  0  0  0  0  0  0  0  0  0  0  0
    4.2348    1.3174   -0.2114 C   0  0  0  0  0  0  0  0  0  0  0  0
    5.2372    0.3735    0.0284 C   0  0  0  0  0  0  0  0  0  0  0  0
    4.9287   -0.9455    0.3752 C   0  0  0  0  0  0  0  0  0  0  0  0
    3.5773   -1.2960    0.4639 C   0  0  0  0  0  0  0  0  0  0  0  0
    2.9985   -2.5027    0.7801 N   0  0  0  0  0  0  0  0  0  0  0  0
    1.6316   -2.3993    0.7417 C   0  0  0  0  0  0  0  0  0  0  0  0
    1.3121   -1.1032    0.3965 C   0  0  0  0  0  0  0  0  0  0  0  0
   -0.0058   -0.5685    0.2384 C   0  0  0  0  0  0  0  0  0  0  0  0
   -1.1568   -1.2182    0.4838 C   0  0  0  0  0  0  0  0  0  0  0  0
   -2.4825   -0.6161    0.3073 C   0  0  0  0  0  0  0  0  0  0  0  0
   -3.4677   -0.8454    1.2656 C   0  0  0  0  0  0  0  0  0  0  0  0
   -4.7348   -0.2985    1.0967 C   0  0  0  0  0  0  0  0  0  0  0  0
   -5.0229    0.4474    0.0070 N   0  0  0  0  0  4  0  0  0  0  0  0
   -6.3753    1.0075   -0.1558 C   0  0  0  0  0  0  0  0  0  0  0  0
   -4.0912    0.6621   -0.9483 C   0  0  0  0  0  0  0  0  0  0  0  0
   -2.8104    0.1370   -0.8192 C   0  0  0  0  0  0  0  0  0  0  0  0
    2.5427   -0.3923    0.2184 C   0  0  0  0  0  0  0  0  0  0  0  0
    2.8848    0.9341   -0.1301 C   0  0  0  0  0  0  0  0  0  0  0  0
    3.8346    3.4295   -0.2812 H   0  0  0  0  0  0  0  0  0  0  0  0
    5.5453    3.0222   -0.1552 H   0  0  0  0  0  0  0  0  0  0  0  0
    4.6931    2.7819   -1.7010 H   0  0  0  0  0  0  0  0  0  0  0  0
    6.2846    0.6605   -0.0518 H   0  0  0  0  0  0  0  0  0  0  0  0
    5.7177   -1.6666    0.5644 H   0  0  0  0  0  0  0  0  0  0  0  0
    3.5158   -3.3420    1.0039 H   0  0  0  0  0  0  0  0  0  0  0  0
    1.0228   -3.2650    0.9618 H   0  0  0  0  0  0  0  0  0  0  0  0
   -0.0495    0.4647   -0.0988 H   0  0  0  0  0  0  0  0  0  0  0  0
   -1.1435   -2.2401    0.8560 H   0  0  0  0  0  0  0  0  0  0  0  0
   -3.2533   -1.4409    2.1516 H   0  0  0  0  0  0  0  0  0  0  0  0
   -5.5245   -0.4545    1.8264 H   0  0  0  0  0  0  0  0  0  0  0  0
   -6.8001    1.2107    0.8306 H   0  0  0  0  0  0  0  0  0  0  0  0
   -6.3108    1.9411   -0.7206 H   0  0  0  0  0  0  0  0  0  0  0  0
   -6.9734    0.2673   -0.6929 H   0  0  0  0  0  0  0  0  0  0  0  0
   -4.3811    1.2499   -1.8149 H   0  0  0  0  0  0  0  0  0  0  0  0
   -2.0798    0.3099   -1.6075 H   0  0  0  0  0  0  0  0  0  0  0  0
    2.1039    1.6605   -0.3325 H   0  0  0  0  0  0  0  0  0  0  0  0
  1  2  1  0
  2  3  2  0
  3  4  1  0
  4  5  2  0
  5  6  1  0
  6  7  1  0
  7  8  2  0
  8  9  1  0
  9 10  2  3
 10 11  1  0
 11 12  2  0
 12 13  1  0
 13 14  2  0
 14 15  1  0
 14 16  1  0
 16 17  2  0
  8 18  1  0
 18 19  2  0
 19  2  1  0
 18  5  1  0
 17 11  1  0
  1 20  1  0
  1 21  1  0
  1 22  1  0
  3 23  1  0
  4 24  1  0
  6 25  1  0
  7 26  1  0
  9 27  1  0
 10 28  1  0
 12 29  1  0
 13 30  1  0
 15 31  1  0
 15 32  1  0
 15 33  1  0
 16 34  1  0
 17 35  1  0
 19 36  1  0
M  CHG  1  14   1
M  END
$$$$
