
     RDKit          3D

 44 47  0  0  0  0  0  0  0  0999 V2000
   -5.3568    1.4213   -1.4944 C   0  0  0  0  0  0  0  0  0  0  0  0
   -4.2774    1.4406   -0.4121 C   0  0  0  0  0  0  0  0  0  0  0  0
   -2.9007    1.2399   -1.0231 C   0  0  0  0  0  0  0  0  0  0  0  0
   -1.8269    1.0782    0.0272 C   0  0  0  0  0  0  0  0  0  0  0  0
   -1.1668    2.0538    0.3968 O   0  0  0  0  0  0  0  0  0  0  0  0
   -1.5781   -0.2082    0.4949 N   0  0  0  0  0  0  0  0  0  0  0  0
   -0.3739   -0.3742    1.3068 C   0  0  0  0  0  0  0  0  0  0  0  0
    0.8997   -0.3851    0.4423 C   0  0  0  0  0  0  0  0  0  0  0  0
    0.9502   -1.0073   -0.6169 O   0  0  0  0  0  0  0  0  0  0  0  0
    1.9443    0.3303    1.0144 N   0  0  0  0  0  0  0  0  0  0  0  0
    3.2660    0.4535    0.5339 C   0  0  0  0  0  0  0  0  0  0  0  0
    3.7642   -0.2491   -0.5812 C   0  0  0  0  0  0  0  0  0  0  0  0
    5.0895   -0.0859   -1.0055 C   0  0  0  0  0  0  0  0  0  0  0  0
    5.8922    0.7754   -0.2913 C   0  0  0  0  0  0  0  0  0  0  0  0
    5.4167    1.4652    0.7967 C   0  0  0  0  0  0  0  0  0  0  0  0
    4.1144    1.3280    1.2332 C   0  0  0  0  0  0  0  0  0  0  0  0
    6.3643    2.2635    1.3607 O   0  0  0  0  0  0  0  0  0  0  0  0
    7.4884    2.0024    0.4933 C   0  0  0  0  0  0  0  0  0  0  0  0
    7.1957    1.0534   -0.5551 O   0  0  0  0  0  0  0  0  0  0  0  0
   -2.4393   -1.3298    0.2755 C   0  0  0  0  0  0  0  0  0  0  0  0
   -1.8726   -2.5895    0.0133 C   0  0  0  0  0  0  0  0  0  0  0  0
   -2.6729   -3.7123   -0.2191 C   0  0  0  0  0  0  0  0  0  0  0  0
   -4.0568   -3.5993   -0.1779 C   0  0  0  0  0  0  0  0  0  0  0  0
   -4.6420   -2.3657    0.1057 C   0  0  0  0  0  0  0  0  0  0  0  0
   -3.8486   -1.2280    0.3325 C   0  0  0  0  0  0  0  0  0  0  0  0
   -4.7210    0.2338    0.8911 S   0  0  0  0  0  0  0  0  0  0  0  0
   -5.3989    0.4520   -2.0064 H   0  0  0  0  0  0  0  0  0  0  0  0
   -5.1544    2.1870   -2.2524 H   0  0  0  0  0  0  0  0  0  0  0  0
   -6.3464    1.6336   -1.0756 H   0  0  0  0  0  0  0  0  0  0  0  0
   -4.3042    2.4225    0.0771 H   0  0  0  0  0  0  0  0  0  0  0  0
   -2.6375    2.1170   -1.6283 H   0  0  0  0  0  0  0  0  0  0  0  0
   -2.8725    0.3981   -1.7248 H   0  0  0  0  0  0  0  0  0  0  0  0
   -0.3324    0.4485    2.0320 H   0  0  0  0  0  0  0  0  0  0  0  0
   -0.4108   -1.3039    1.8895 H   0  0  0  0  0  0  0  0  0  0  0  0
    1.7174    0.9018    1.8198 H   0  0  0  0  0  0  0  0  0  0  0  0
    3.1364   -0.9278   -1.1531 H   0  0  0  0  0  0  0  0  0  0  0  0
    5.4692   -0.6193   -1.8705 H   0  0  0  0  0  0  0  0  0  0  0  0
    3.7775    1.8958    2.0930 H   0  0  0  0  0  0  0  0  0  0  0  0
    7.8033    2.9460    0.0353 H   0  0  0  0  0  0  0  0  0  0  0  0
    8.3149    1.6080    1.0970 H   0  0  0  0  0  0  0  0  0  0  0  0
   -0.7948   -2.7151   -0.0604 H   0  0  0  0  0  0  0  0  0  0  0  0
   -2.2111   -4.6706   -0.4413 H   0  0  0  0  0  0  0  0  0  0  0  0
   -4.6812   -4.4748   -0.3486 H   0  0  0  0  0  0  0  0  0  0  0  0
   -5.7266   -2.3038    0.1710 H   0  0  0  0  0  0  0  0  0  0  0  0
  1  2  1  0
  2  3  1  0
  3  4  1  0
  4  5  2  0
  4  6  1  0
  6  7  1  0
  7  8  1  0
  8  9  2  0
  8 10  1  0
 10 11  1  0
 11 12  2  0
 12 13  1  0
 13 14  2  0
 14 15  1  0
 15 16  2  0
 15 17  1  0
 17 18  1  0
 18 19  1  0
  6 20  1  0
 20 21  2  0
 21 22  1  0
 22 23  2  0
 23 24  1  0
 24 25  2  0
 25 26  1  0
 26  2  1  0
 16 11  1  0
 25 20  1  0
 19 14  1  0
  1 27  1  0
  1 28  1  0
  1 29  1  0
  2 30  1  0
  3 31  1  0
  3 32  1  0
  7 33  1  0
  7 34  1  0
 10 35  1  0
 12 36  1  0
 13 37  1  0
 16 38  1  0
 18 39  1  0
 18 40  1  0
 21 41  1  0
 22 42  1  0
 23 43  1  0
 24 44  1  0
M  END
$$$$
