
     RDKit          3D

 26 27  0  0  0  0  0  0  0  0999 V2000
    4.8969    1.1118    0.4084 C   0  0  0  0  0  0  0  0  0  0  0  0
    3.7239    0.3861   -0.0140 N   0  0  0  0  0  0  0  0  0  0  0  0
    3.6866   -0.7195   -0.8075 C   0  0  0  0  0  0  0  0  0  0  0  0
    2.3557   -1.0442   -0.9296 C   0  0  0  0  0  0  0  0  0  0  0  0
    1.6663   -0.0729   -0.1728 C   0  0  0  0  0  0  0  0  0  0  0  0
    0.3206    0.0788    0.0525 N   0  0  0  0  0  0  0  0  0  0  0  0
   -0.6700   -0.7078   -0.4845 C   0  0  0  0  0  0  0  0  0  0  0  0
   -0.5148   -1.6322   -1.2751 O   0  0  0  0  0  0  0  0  0  0  0  0
   -2.0576   -0.3535   -0.0672 C   0  0  0  0  0  0  0  0  0  0  0  0
   -2.3428    0.1732    1.2008 C   0  0  0  0  0  0  0  0  0  0  0  0
   -3.6616    0.4846    1.5478 C   0  0  0  0  0  0  0  0  0  0  0  0
   -4.6929    0.2630    0.6352 C   0  0  0  0  0  0  0  0  0  0  0  0
   -6.3125    0.6477    1.0680 Cl  0  0  0  0  0  0  0  0  0  0  0  0
   -4.4207   -0.2751   -0.6210 C   0  0  0  0  0  0  0  0  0  0  0  0
   -3.1043   -0.5881   -0.9704 C   0  0  0  0  0  0  0  0  0  0  0  0
    2.5083    0.7992    0.3894 N   0  0  0  0  0  0  0  0  0  0  0  0
    4.8150    2.1397    0.0466 H   0  0  0  0  0  0  0  0  0  0  0  0
    4.9409    1.0902    1.5001 H   0  0  0  0  0  0  0  0  0  0  0  0
    5.7884    0.6386   -0.0105 H   0  0  0  0  0  0  0  0  0  0  0  0
    4.5796   -1.1748   -1.2113 H   0  0  0  0  0  0  0  0  0  0  0  0
    1.9422   -1.8705   -1.4906 H   0  0  0  0  0  0  0  0  0  0  0  0
    0.1121    0.8876    0.6177 H   0  0  0  0  0  0  0  0  0  0  0  0
   -1.5607    0.3205    1.9408 H   0  0  0  0  0  0  0  0  0  0  0  0
   -3.8792    0.8896    2.5332 H   0  0  0  0  0  0  0  0  0  0  0  0
   -5.2240   -0.4573   -1.3303 H   0  0  0  0  0  0  0  0  0  0  0  0
   -2.8952   -1.0147   -1.9502 H   0  0  0  0  0  0  0  0  0  0  0  0
  1  2  1  0
  2  3  1  0
  3  4  2  0
  4  5  1  0
  5  6  1  0
  6  7  1  0
  7  8  2  0
  7  9  1  0
  9 10  2  0
 10 11  1  0
 11 12  2  0
 12 13  1  0
 12 14  1  0
 14 15  2  0
  5 16  2  0
 16  2  1  0
 15  9  1  0
  1 17  1  0
  1 18  1  0
  1 19  1  0
  3 20  1  0
  4 21  1  0
  6 22  1  0
 10 23  1  0
 11 24  1  0
 14 25  1  0
 15 26  1  0
M  END
$$$$
