
     RDKit          3D

 23 24  0  0  0  0  0  0  0  0999 V2000
    0.2078    2.2125    0.4930 O   0  0  0  0  0  0  0  0  0  0  0  0
    1.2401    1.6459    0.1947 C   0  0  0  0  0  0  0  0  0  0  0  0
    2.4909    2.1525    0.4045 O   0  0  0  0  0  0  0  0  0  0  0  0
    3.4708    1.1678    0.0779 C   0  0  0  0  0  0  0  0  0  0  0  0
    2.8182    0.2498   -0.9216 C   0  0  0  0  0  0  0  0  0  0  0  0
    1.3997    0.3345   -0.4875 C   0  0  0  0  0  0  0  0  0  0  0  0
    0.4926   -0.6405   -0.6515 C   0  0  0  0  0  0  0  0  0  0  0  0
   -0.9058   -0.6390   -0.2126 C   0  0  0  0  0  0  0  0  0  0  0  0
   -1.3471   -1.6449    0.6561 C   0  0  0  0  0  0  0  0  0  0  0  0
   -2.6840   -1.6972    1.0578 C   0  0  0  0  0  0  0  0  0  0  0  0
   -3.5909   -0.7498    0.5871 C   0  0  0  0  0  0  0  0  0  0  0  0
   -3.1627    0.2477   -0.2868 C   0  0  0  0  0  0  0  0  0  0  0  0
   -1.8264    0.2992   -0.6905 C   0  0  0  0  0  0  0  0  0  0  0  0
    4.3556    1.6572   -0.3404 H   0  0  0  0  0  0  0  0  0  0  0  0
    3.7634    0.6466    0.9968 H   0  0  0  0  0  0  0  0  0  0  0  0
    3.2436   -0.7569   -0.8928 H   0  0  0  0  0  0  0  0  0  0  0  0
    2.9155    0.6514   -1.9366 H   0  0  0  0  0  0  0  0  0  0  0  0
    0.7943   -1.5640   -1.1427 H   0  0  0  0  0  0  0  0  0  0  0  0
   -0.6532   -2.3920    1.0331 H   0  0  0  0  0  0  0  0  0  0  0  0
   -3.0164   -2.4752    1.7399 H   0  0  0  0  0  0  0  0  0  0  0  0
   -4.6300   -0.7854    0.9035 H   0  0  0  0  0  0  0  0  0  0  0  0
   -3.8657    0.9921   -0.6511 H   0  0  0  0  0  0  0  0  0  0  0  0
   -1.5103    1.0876   -1.3694 H   0  0  0  0  0  0  0  0  0  0  0  0
  1  2  2  0
  2  3  1  0
  3  4  1  0
  4  5  1  0
  5  6  1  0
  6  7  2  3
  7  8  1  0
  8  9  2  0
  9 10  1  0
 10 11  2  0
 11 12  1  0
 12 13  2  0
  6  2  1  0
 13  8  1  0
  4 14  1  0
  4 15  1  0
  5 16  1  0
  5 17  1  0
  7 18  1  0
  9 19  1  0
 10 20  1  0
 11 21  1  0
 12 22  1  0
 13 23  1  0
M  END
$$$$
