
     RDKit          3D

 48 51  0  0  0  0  0  0  0  0999 V2000
    2.6567   -2.0449   -2.5583 C   0  0  0  0  0  0  0  0  0  0  0  0
    2.8687   -2.3484   -1.0827 C   0  0  0  0  0  0  0  0  0  0  0  0
    2.6985   -1.1436   -0.2755 N   0  0  0  0  0  0  0  0  0  0  0  0
    1.5185   -0.6622    0.2983 C   0  0  0  0  0  0  0  0  0  0  0  0
    0.2929   -1.2096    0.1810 C   0  0  0  0  0  0  0  0  0  0  0  0
   -0.9366   -0.6916    0.8051 C   0  0  0  0  0  0  0  0  0  0  0  0
   -1.2182   -1.1708    2.0773 C   0  0  0  0  0  0  0  0  0  0  0  0
   -2.3510   -0.7504    2.7283 C   0  0  0  0  0  0  0  0  0  0  0  0
   -3.1956    0.1550    2.1077 C   0  0  0  0  0  0  0  0  0  0  0  0
   -4.3276    0.5367    2.8335 C   0  0  0  0  0  0  0  0  0  0  0  0
   -5.2299    1.4397    2.3077 C   0  0  0  0  0  0  0  0  0  0  0  0
   -4.9984    1.9709    1.0504 C   0  0  0  0  0  0  0  0  0  0  0  0
   -3.8661    1.6138    0.2718 C   0  0  0  0  0  0  0  0  0  0  0  0
   -3.8106    2.3583   -1.0396 C   0  0  0  0  0  0  0  0  0  0  0  0
   -2.9178    0.6741    0.7880 C   0  0  0  0  0  0  0  0  0  0  0  0
   -1.7647    0.1989    0.1635 N   0  0  0  0  0  4  0  0  0  0  0  0
   -1.3762    0.5959   -1.2195 C   0  0  0  0  0  0  0  0  0  0  0  0
   -2.0104   -0.3521   -2.2223 C   0  0  0  0  0  0  0  0  0  0  0  0
    1.7321    0.8548    1.2205 S   0  0  0  0  0  0  0  0  0  0  0  0
    3.4611    0.8387    0.7677 C   0  0  0  0  0  0  0  0  0  0  0  0
    4.3988    1.7980    1.1242 C   0  0  0  0  0  0  0  0  0  0  0  0
    5.7085    1.6412    0.6761 C   0  0  0  0  0  0  0  0  0  0  0  0
    6.0560    0.5400   -0.1154 C   0  0  0  0  0  0  0  0  0  0  0  0
    5.1003   -0.4222   -0.4683 C   0  0  0  0  0  0  0  0  0  0  0  0
    3.7890   -0.2838   -0.0259 C   0  0  0  0  0  0  0  0  0  0  0  0
    2.7685   -2.9573   -3.1523 H   0  0  0  0  0  0  0  0  0  0  0  0
    3.3822   -1.3110   -2.9234 H   0  0  0  0  0  0  0  0  0  0  0  0
    1.6546   -1.6423   -2.7392 H   0  0  0  0  0  0  0  0  0  0  0  0
    3.8528   -2.8046   -0.9267 H   0  0  0  0  0  0  0  0  0  0  0  0
    2.1526   -3.1172   -0.7691 H   0  0  0  0  0  0  0  0  0  0  0  0
    0.1523   -2.1250   -0.3853 H   0  0  0  0  0  0  0  0  0  0  0  0
   -0.5486   -1.8738    2.5714 H   0  0  0  0  0  0  0  0  0  0  0  0
   -2.5582   -1.1348    3.7271 H   0  0  0  0  0  0  0  0  0  0  0  0
   -4.5254    0.1364    3.8284 H   0  0  0  0  0  0  0  0  0  0  0  0
   -6.1084    1.7369    2.8777 H   0  0  0  0  0  0  0  0  0  0  0  0
   -5.7265    2.6926    0.6739 H   0  0  0  0  0  0  0  0  0  0  0  0
   -2.9943    3.0864   -1.0306 H   0  0  0  0  0  0  0  0  0  0  0  0
   -4.7242    2.9379   -1.2211 H   0  0  0  0  0  0  0  0  0  0  0  0
   -3.7394    1.6797   -1.8895 H   0  0  0  0  0  0  0  0  0  0  0  0
   -1.6098    1.6402   -1.3868 H   0  0  0  0  0  0  0  0  0  0  0  0
   -0.2900    0.5769   -1.3305 H   0  0  0  0  0  0  0  0  0  0  0  0
   -1.5949   -1.3603   -2.1274 H   0  0  0  0  0  0  0  0  0  0  0  0
   -1.8190   -0.0066   -3.2426 H   0  0  0  0  0  0  0  0  0  0  0  0
   -3.0915   -0.4379   -2.0816 H   0  0  0  0  0  0  0  0  0  0  0  0
    4.1264    2.6509    1.7375 H   0  0  0  0  0  0  0  0  0  0  0  0
    6.4657    2.3761    0.9414 H   0  0  0  0  0  0  0  0  0  0  0  0
    7.0830    0.4303   -0.4594 H   0  0  0  0  0  0  0  0  0  0  0  0
    5.4141   -1.2567   -1.0856 H   0  0  0  0  0  0  0  0  0  0  0  0
  1  2  1  0
  2  3  1  0
  3  4  1  0
  4  5  2  3
  5  6  1  0
  6  7  2  0
  7  8  1  0
  8  9  2  0
  9 10  1  0
 10 11  2  0
 11 12  1  0
 12 13  2  0
 13 14  1  0
 13 15  1  0
 15 16  2  0
 16 17  1  0
 17 18  1  0
  4 19  1  0
 19 20  1  0
 20 21  2  0
 21 22  1  0
 22 23  2  0
 23 24  1  0
 24 25  2  0
 25  3  1  0
 16  6  1  0
 25 20  1  0
 15  9  1  0
  1 26  1  0
  1 27  1  0
  1 28  1  0
  2 29  1  0
  2 30  1  0
  5 31  1  0
  7 32  1  0
  8 33  1  0
 10 34  1  0
 11 35  1  0
 12 36  1  0
 14 37  1  0
 14 38  1  0
 14 39  1  0
 17 40  1  0
 17 41  1  0
 18 42  1  0
 18 43  1  0
 18 44  1  0
 21 45  1  0
 22 46  1  0
 23 47  1  0
 24 48  1  0
M  CHG  1  16   1
M  END
$$$$
