
     RDKit          3D

 43 43  0  0  0  0  0  0  0  0999 V2000
   -6.8168    1.3595    2.4578 C   0  0  0  0  0  0  0  0  0  0  0  0
   -5.4098    0.8425    2.4534 C   0  0  0  0  0  0  0  0  0  0  0  0
   -4.5065    1.2319    3.8772 Cl  0  0  0  0  0  0  0  0  0  0  0  0
   -4.8713    0.1452    1.4386 C   0  0  0  0  0  0  0  0  0  0  0  0
   -3.4969   -0.4464    1.3763 C   0  0  0  0  0  0  0  0  0  0  0  0
   -2.4889    0.2841    0.4710 N   0  0  0  0  0  4  0  0  0  0  0  0
   -2.9728    0.3034   -0.9726 C   0  0  0  0  0  0  0  0  0  0  0  0
   -2.2775    1.7137    0.9633 C   0  0  0  0  0  0  0  0  0  0  0  0
   -1.1298   -0.5131    0.5713 C   0  0  0  0  0  0  0  0  0  0  0  0
    0.0593    0.0034   -0.2375 C   0  0  0  0  0  0  0  0  0  0  0  0
    0.0394    0.9786   -0.9736 O   0  0  0  0  0  0  0  0  0  0  0  0
    1.1407   -0.7924   -0.0134 O   0  0  0  0  0  0  0  0  0  0  0  0
    2.3303   -0.4017   -0.7253 C   0  0  0  0  0  0  0  0  0  0  0  0
    3.4486   -1.3784   -0.3699 C   0  0  0  0  0  0  0  0  0  0  0  0
    4.7340   -1.0417   -1.0754 C   0  0  0  0  0  0  0  0  0  0  0  0
    5.0129   -1.5795   -2.3392 C   0  0  0  0  0  0  0  0  0  0  0  0
    6.1956   -1.2488   -3.0023 C   0  0  0  0  0  0  0  0  0  0  0  0
    7.1072   -0.3765   -2.4113 C   0  0  0  0  0  0  0  0  0  0  0  0
    6.8379    0.1661   -1.1566 C   0  0  0  0  0  0  0  0  0  0  0  0
    5.6560   -0.1628   -0.4911 C   0  0  0  0  0  0  0  0  0  0  0  0
   -7.3790    0.9368    3.2970 H   0  0  0  0  0  0  0  0  0  0  0  0
   -6.8253    2.4509    2.5464 H   0  0  0  0  0  0  0  0  0  0  0  0
   -7.3490    1.0980    1.5370 H   0  0  0  0  0  0  0  0  0  0  0  0
   -5.5110   -0.0737    0.5851 H   0  0  0  0  0  0  0  0  0  0  0  0
   -3.5757   -1.4714    0.9923 H   0  0  0  0  0  0  0  0  0  0  0  0
   -3.0333   -0.5174    2.3662 H   0  0  0  0  0  0  0  0  0  0  0  0
   -2.2511    0.8325   -1.5964 H   0  0  0  0  0  0  0  0  0  0  0  0
   -3.0883   -0.7303   -1.3107 H   0  0  0  0  0  0  0  0  0  0  0  0
   -3.9302    0.8298   -1.0166 H   0  0  0  0  0  0  0  0  0  0  0  0
   -3.2298    2.2483    0.9149 H   0  0  0  0  0  0  0  0  0  0  0  0
   -1.5573    2.2188    0.3177 H   0  0  0  0  0  0  0  0  0  0  0  0
   -1.9056    1.6733    1.9908 H   0  0  0  0  0  0  0  0  0  0  0  0
   -0.8551   -0.5076    1.6319 H   0  0  0  0  0  0  0  0  0  0  0  0
   -1.3556   -1.5336    0.2429 H   0  0  0  0  0  0  0  0  0  0  0  0
    2.6067    0.6189   -0.4335 H   0  0  0  0  0  0  0  0  0  0  0  0
    2.1297   -0.4256   -1.8033 H   0  0  0  0  0  0  0  0  0  0  0  0
    3.1406   -2.4032   -0.6148 H   0  0  0  0  0  0  0  0  0  0  0  0
    3.6053   -1.3867    0.7166 H   0  0  0  0  0  0  0  0  0  0  0  0
    4.3157   -2.2640   -2.8170 H   0  0  0  0  0  0  0  0  0  0  0  0
    6.4091   -1.6734   -3.9802 H   0  0  0  0  0  0  0  0  0  0  0  0
    8.0297   -0.1218   -2.9275 H   0  0  0  0  0  0  0  0  0  0  0  0
    7.5521    0.8444   -0.6959 H   0  0  0  0  0  0  0  0  0  0  0  0
    5.4660    0.2700    0.4884 H   0  0  0  0  0  0  0  0  0  0  0  0
  1  2  1  0
  2  3  1  0
  2  4  2  3
  4  5  1  0
  5  6  1  0
  6  7  1  0
  6  8  1  0
  6  9  1  0
  9 10  1  0
 10 11  2  0
 10 12  1  0
 12 13  1  0
 13 14  1  0
 14 15  1  0
 15 16  2  0
 16 17  1  0
 17 18  2  0
 18 19  1  0
 19 20  2  0
 20 15  1  0
  1 21  1  0
  1 22  1  0
  1 23  1  0
  4 24  1  0
  5 25  1  0
  5 26  1  0
  7 27  1  0
  7 28  1  0
  7 29  1  0
  8 30  1  0
  8 31  1  0
  8 32  1  0
  9 33  1  0
  9 34  1  0
 13 35  1  0
 13 36  1  0
 14 37  1  0
 14 38  1  0
 16 39  1  0
 17 40  1  0
 18 41  1  0
 19 42  1  0
 20 43  1  0
M  CHG  1   6   1
M  END
$$$$
