
     RDKit          3D

 46 49  0  0  0  0  0  0  0  0999 V2000
    3.9969    0.9498    1.7219 O   0  0  0  0  0  0  0  0  0  0  0  0
    3.3540    1.3163    0.7404 C   0  0  0  0  0  0  0  0  0  0  0  0
    2.8147    2.7385    0.6540 C   0  0  0  0  0  0  0  0  0  0  0  0
    1.1285    2.8240    1.3396 S   0  0  0  0  0  0  0  0  0  0  0  0
    0.2515    1.9937    0.1043 C   0  0  0  0  0  0  0  0  0  0  0  0
    0.6406    1.8829   -1.1441 N   0  0  0  0  0  0  0  0  0  0  0  0
   -0.2570    1.0797   -1.7897 N   0  0  0  0  0  0  0  0  0  0  0  0
   -1.1965    0.7295   -0.9283 C   0  0  0  0  0  0  0  0  0  0  0  0
   -2.3714   -0.1437   -1.2393 C   0  0  0  0  0  0  0  0  0  0  0  0
   -2.2489   -1.5391   -0.6876 C   0  0  0  0  0  0  0  0  0  0  0  0
   -3.0813   -2.1784    0.2128 C   0  0  0  0  0  0  0  0  0  0  0  0
   -2.6447   -3.5006    0.5123 C   0  0  0  0  0  0  0  0  0  0  0  0
   -1.5070   -3.8383   -0.1853 C   0  0  0  0  0  0  0  0  0  0  0  0
   -0.9770   -2.5710   -1.1996 S   0  0  0  0  0  0  0  0  0  0  0  0
   -0.9120    1.3011    0.2959 N   0  0  0  0  0  0  0  0  0  0  0  0
   -1.6580    1.1539    1.5291 C   0  0  0  0  0  0  0  0  0  0  0  0
   -2.7282    2.1767    1.6157 C   0  0  0  0  0  0  0  0  0  0  0  0
   -2.7521    3.4939    2.0263 C   0  0  0  0  0  0  0  0  0  0  0  0
   -4.0874    3.9359    1.8673 C   0  0  0  0  0  0  0  0  0  0  0  0
   -4.7921    2.8632    1.3750 C   0  0  0  0  0  0  0  0  0  0  0  0
   -3.9757    1.7875    1.2254 O   0  0  0  0  0  0  0  0  0  0  0  0
    3.0225    0.5371   -0.3555 N   0  0  0  0  0  0  0  0  0  0  0  0
    3.3528   -0.8124   -0.5865 C   0  0  0  0  0  0  0  0  0  0  0  0
    2.7369   -1.4382   -1.6785 C   0  0  0  0  0  0  0  0  0  0  0  0
    2.9944   -2.7796   -1.9711 C   0  0  0  0  0  0  0  0  0  0  0  0
    3.8782   -3.5004   -1.1728 C   0  0  0  0  0  0  0  0  0  0  0  0
    4.2239   -5.3167   -1.5564 Br  0  0  0  0  0  0  0  0  0  0  0  0
    4.5074   -2.8887   -0.0916 C   0  0  0  0  0  0  0  0  0  0  0  0
    4.2442   -1.5452    0.2000 C   0  0  0  0  0  0  0  0  0  0  0  0
    3.4672    3.3875    1.2466 H   0  0  0  0  0  0  0  0  0  0  0  0
    2.8487    3.1078   -0.3764 H   0  0  0  0  0  0  0  0  0  0  0  0
   -2.4891   -0.2064   -2.3284 H   0  0  0  0  0  0  0  0  0  0  0  0
   -3.2889    0.3261   -0.8688 H   0  0  0  0  0  0  0  0  0  0  0  0
   -3.9617   -1.7181    0.6452 H   0  0  0  0  0  0  0  0  0  0  0  0
   -3.1423   -4.1744    1.1997 H   0  0  0  0  0  0  0  0  0  0  0  0
   -0.9622   -4.7725   -0.1547 H   0  0  0  0  0  0  0  0  0  0  0  0
   -2.0714    0.1436    1.5688 H   0  0  0  0  0  0  0  0  0  0  0  0
   -0.9717    1.2352    2.3771 H   0  0  0  0  0  0  0  0  0  0  0  0
   -1.9105    4.0689    2.3881 H   0  0  0  0  0  0  0  0  0  0  0  0
   -4.4876    4.9192    2.0803 H   0  0  0  0  0  0  0  0  0  0  0  0
   -5.8256    2.7131    1.0914 H   0  0  0  0  0  0  0  0  0  0  0  0
    2.3517    0.9411   -1.0121 H   0  0  0  0  0  0  0  0  0  0  0  0
    2.0310   -0.8935   -2.3049 H   0  0  0  0  0  0  0  0  0  0  0  0
    2.4956   -3.2480   -2.8150 H   0  0  0  0  0  0  0  0  0  0  0  0
    5.2036   -3.4416    0.5339 H   0  0  0  0  0  0  0  0  0  0  0  0
    4.7559   -1.0993    1.0471 H   0  0  0  0  0  0  0  0  0  0  0  0
  1  2  2  0
  2  3  1  0
  3  4  1  0
  4  5  1  0
  5  6  2  0
  6  7  1  0
  7  8  2  0
  8  9  1  0
  9 10  1  0
 10 11  2  0
 11 12  1  0
 12 13  2  0
 13 14  1  0
  8 15  1  0
 15 16  1  0
 16 17  1  0
 17 18  2  0
 18 19  1  0
 19 20  2  0
 20 21  1  0
  2 22  1  0
 22 23  1  0
 23 24  2  0
 24 25  1  0
 25 26  2  0
 26 27  1  0
 26 28  1  0
 28 29  2  0
 15  5  1  0
 21 17  1  0
 29 23  1  0
 14 10  1  0
  3 30  1  0
  3 31  1  0
  9 32  1  0
  9 33  1  0
 11 34  1  0
 12 35  1  0
 13 36  1  0
 16 37  1  0
 16 38  1  0
 18 39  1  0
 19 40  1  0
 20 41  1  0
 22 42  1  0
 24 43  1  0
 25 44  1  0
 28 45  1  0
 29 46  1  0
M  END
$$$$
