
     RDKit          3D

 37 38  0  0  0  0  0  0  0  0999 V2000
    1.2179   -1.7520   -0.6203 O   0  0  0  0  0  0  0  0  0  0  0  0
    0.8377   -0.7511   -0.0260 C   0  0  0  0  0  0  0  0  0  0  0  0
   -0.5232   -0.6727    0.6500 C   0  0  0  0  0  0  0  0  0  0  0  0
   -1.3682   -1.9233    0.4022 C   0  0  0  0  0  0  0  0  0  0  0  0
   -2.6973   -1.9073    1.1638 C   0  0  0  0  0  0  0  0  0  0  0  0
   -3.6201   -0.7834    0.7600 C   0  0  0  0  0  0  0  0  0  0  0  0
   -4.1800   -0.7470   -0.5244 C   0  0  0  0  0  0  0  0  0  0  0  0
   -5.0273    0.2971   -0.8988 C   0  0  0  0  0  0  0  0  0  0  0  0
   -5.3265    1.3124    0.0072 C   0  0  0  0  0  0  0  0  0  0  0  0
   -4.7807    1.2835    1.2890 C   0  0  0  0  0  0  0  0  0  0  0  0
   -3.9324    0.2404    1.6648 C   0  0  0  0  0  0  0  0  0  0  0  0
    1.5511    0.4265    0.1372 N   0  0  0  0  0  0  0  0  0  0  0  0
    2.8469    0.7217   -0.3354 C   0  0  0  0  0  0  0  0  0  0  0  0
    3.3425    2.0056   -0.0606 C   0  0  0  0  0  0  0  0  0  0  0  0
    4.6151    2.3942   -0.4878 C   0  0  0  0  0  0  0  0  0  0  0  0
    5.4124    1.5002   -1.1970 C   0  0  0  0  0  0  0  0  0  0  0  0
    4.9247    0.2163   -1.4729 C   0  0  0  0  0  0  0  0  0  0  0  0
    5.7675   -0.7273   -2.2194 N   0  0  0  0  0  4  0  0  0  0  0  0
    5.3569   -1.8864   -2.3649 O   0  0  0  0  0  0  0  0  0  0  0  0
    6.8478   -0.3066   -2.6598 O   0  0  0  0  0  1  0  0  0  0  0  0
    3.6465   -0.1771   -1.0456 C   0  0  0  0  0  0  0  0  0  0  0  0
   -1.0395    0.2150    0.2671 H   0  0  0  0  0  0  0  0  0  0  0  0
   -0.3594   -0.5408    1.7261 H   0  0  0  0  0  0  0  0  0  0  0  0
   -0.8045   -2.8108    0.7168 H   0  0  0  0  0  0  0  0  0  0  0  0
   -1.5450   -2.0385   -0.6745 H   0  0  0  0  0  0  0  0  0  0  0  0
   -3.2207   -2.8574    0.9971 H   0  0  0  0  0  0  0  0  0  0  0  0
   -2.4966   -1.8612    2.2417 H   0  0  0  0  0  0  0  0  0  0  0  0
   -3.9611   -1.5350   -1.2420 H   0  0  0  0  0  0  0  0  0  0  0  0
   -5.4566    0.3153   -1.8972 H   0  0  0  0  0  0  0  0  0  0  0  0
   -5.9894    2.1228   -0.2842 H   0  0  0  0  0  0  0  0  0  0  0  0
   -5.0197    2.0716    1.9981 H   0  0  0  0  0  0  0  0  0  0  0  0
   -3.5196    0.2318    2.6709 H   0  0  0  0  0  0  0  0  0  0  0  0
    1.0798    1.1685    0.6406 H   0  0  0  0  0  0  0  0  0  0  0  0
    2.7421    2.7263    0.4907 H   0  0  0  0  0  0  0  0  0  0  0  0
    4.9820    3.3941   -0.2667 H   0  0  0  0  0  0  0  0  0  0  0  0
    6.4018    1.8136   -1.5243 H   0  0  0  0  0  0  0  0  0  0  0  0
    3.2952   -1.1790   -1.2739 H   0  0  0  0  0  0  0  0  0  0  0  0
  1  2  2  0
  2  3  1  0
  3  4  1  0
  4  5  1  0
  5  6  1  0
  6  7  2  0
  7  8  1  0
  8  9  2  0
  9 10  1  0
 10 11  2  0
  2 12  1  0
 12 13  1  0
 13 14  2  0
 14 15  1  0
 15 16  2  0
 16 17  1  0
 17 18  1  0
 18 19  2  0
 18 20  1  0
 17 21  2  0
 11  6  1  0
 21 13  1  0
  3 22  1  0
  3 23  1  0
  4 24  1  0
  4 25  1  0
  5 26  1  0
  5 27  1  0
  7 28  1  0
  8 29  1  0
  9 30  1  0
 10 31  1  0
 11 32  1  0
 12 33  1  0
 14 34  1  0
 15 35  1  0
 16 36  1  0
 21 37  1  0
M  CHG  2  18   1  20  -1
M  END
$$$$
