
     RDKit          3D

 53 54  0  0  0  0  0  0  0  0999 V2000
   -5.7425   -2.4216   -1.9720 C   0  0  0  0  0  0  0  0  0  0  0  0
   -5.4268   -1.0379   -1.4332 C   0  0  0  0  0  0  0  0  0  0  0  0
   -5.6149   -0.9000    0.0326 N   0  0  0  0  0  0  0  0  0  0  0  0
   -7.0363   -0.8109    0.4567 C   0  0  0  0  0  0  0  0  0  0  0  0
   -7.3156    0.5953    0.9578 C   0  0  0  0  0  0  0  0  0  0  0  0
   -4.6027   -1.7617    1.0949 S   0  0  0  0  0  6  0  0  0  0  0  0
   -4.8222   -1.2556    2.4337 O   0  0  0  0  0  0  0  0  0  0  0  0
   -4.7373   -3.1734    0.8078 O   0  0  0  0  0  0  0  0  0  0  0  0
   -2.9765   -1.2383    0.6065 C   0  0  0  0  0  0  0  0  0  0  0  0
   -2.5793    0.0752    0.8758 C   0  0  0  0  0  0  0  0  0  0  0  0
   -1.3009    0.4998    0.5040 C   0  0  0  0  0  0  0  0  0  0  0  0
   -0.4192   -0.3890   -0.1304 C   0  0  0  0  0  0  0  0  0  0  0  0
    0.9529    0.0111   -0.5458 C   0  0  0  0  0  0  0  0  0  0  0  0
    1.7679   -0.7656   -1.0209 O   0  0  0  0  0  0  0  0  0  0  0  0
    1.1559    1.3308   -0.3234 O   0  0  0  0  0  0  0  0  0  0  0  0
    2.4337    1.8330   -0.7199 C   0  0  0  0  0  0  0  0  0  0  0  0
    3.5410    1.5668    0.3024 C   0  0  0  0  0  0  0  0  0  0  0  0
    4.0308    2.4613    0.9877 O   0  0  0  0  0  0  0  0  0  0  0  0
    3.9466    0.2521    0.3666 N   0  0  0  0  0  0  0  0  0  0  0  0
    5.0875   -0.1842    1.1503 C   0  0  0  0  0  0  0  0  0  0  0  0
    6.3937   -0.2166    0.3418 C   0  0  0  0  0  0  0  0  0  0  0  0
    6.8474    1.0985   -0.0746 N   0  0  0  0  0  0  0  0  0  0  0  0
    7.5380    1.9513    0.7506 C   0  0  0  0  0  0  0  0  0  0  0  0
    7.9006    1.5187    1.9914 O   0  0  0  0  0  0  0  0  0  0  0  0
    7.7768    3.1600    0.2289 C   0  0  0  0  0  0  0  0  0  0  0  0
    7.1201    3.2952   -1.3743 S   0  0  0  0  0  0  0  0  0  0  0  0
    6.4643    1.6477   -1.2875 C   0  0  0  0  0  0  0  0  0  0  0  0
    5.7893    1.1452   -2.1719 O   0  0  0  0  0  0  0  0  0  0  0  0
   -0.8278   -1.7083   -0.3830 C   0  0  0  0  0  0  0  0  0  0  0  0
   -2.1052   -2.1370   -0.0134 C   0  0  0  0  0  0  0  0  0  0  0  0
   -5.7670   -2.3974   -3.0665 H   0  0  0  0  0  0  0  0  0  0  0  0
   -4.9769   -3.1481   -1.6866 H   0  0  0  0  0  0  0  0  0  0  0  0
   -6.7108   -2.7898   -1.6202 H   0  0  0  0  0  0  0  0  0  0  0  0
   -4.4053   -0.7523   -1.7043 H   0  0  0  0  0  0  0  0  0  0  0  0
   -6.0730   -0.3035   -1.9306 H   0  0  0  0  0  0  0  0  0  0  0  0
   -7.7108   -1.0399   -0.3755 H   0  0  0  0  0  0  0  0  0  0  0  0
   -7.2607   -1.5413    1.2420 H   0  0  0  0  0  0  0  0  0  0  0  0
   -8.3591    0.6869    1.2741 H   0  0  0  0  0  0  0  0  0  0  0  0
   -7.1298    1.3353    0.1720 H   0  0  0  0  0  0  0  0  0  0  0  0
   -6.6767    0.8470    1.8106 H   0  0  0  0  0  0  0  0  0  0  0  0
   -3.2586    0.7645    1.3744 H   0  0  0  0  0  0  0  0  0  0  0  0
   -1.0046    1.5236    0.7224 H   0  0  0  0  0  0  0  0  0  0  0  0
    2.3352    2.9181   -0.8330 H   0  0  0  0  0  0  0  0  0  0  0  0
    2.7297    1.4434   -1.7016 H   0  0  0  0  0  0  0  0  0  0  0  0
    3.5264   -0.4030   -0.2945 H   0  0  0  0  0  0  0  0  0  0  0  0
    5.1910    0.4622    2.0282 H   0  0  0  0  0  0  0  0  0  0  0  0
    4.8543   -1.1955    1.4995 H   0  0  0  0  0  0  0  0  0  0  0  0
    6.2459   -0.8299   -0.5557 H   0  0  0  0  0  0  0  0  0  0  0  0
    7.1861   -0.6949    0.9291 H   0  0  0  0  0  0  0  0  0  0  0  0
    8.2877    2.2722    2.4692 H   0  0  0  0  0  0  0  0  0  0  0  0
    8.2945    3.9746    0.7123 H   0  0  0  0  0  0  0  0  0  0  0  0
   -0.1496   -2.4099   -0.8670 H   0  0  0  0  0  0  0  0  0  0  0  0
   -2.4073   -3.1640   -0.2086 H   0  0  0  0  0  0  0  0  0  0  0  0
  1  2  1  0
  2  3  1  0
  3  4  1  0
  4  5  1  0
  3  6  1  0
  6  7  2  0
  6  8  2  0
  6  9  1  0
  9 10  2  0
 10 11  1  0
 11 12  2  0
 12 13  1  0
 13 14  2  0
 13 15  1  0
 15 16  1  0
 16 17  1  0
 17 18  2  0
 17 19  1  0
 19 20  1  0
 20 21  1  0
 21 22  1  0
 22 23  1  0
 23 24  1  0
 23 25  2  0
 25 26  1  0
 26 27  1  0
 27 28  2  0
 12 29  1  0
 29 30  2  0
 30  9  1  0
 27 22  1  0
  1 31  1  0
  1 32  1  0
  1 33  1  0
  2 34  1  0
  2 35  1  0
  4 36  1  0
  4 37  1  0
  5 38  1  0
  5 39  1  0
  5 40  1  0
 10 41  1  0
 11 42  1  0
 16 43  1  0
 16 44  1  0
 19 45  1  0
 20 46  1  0
 20 47  1  0
 21 48  1  0
 21 49  1  0
 24 50  1  0
 25 51  1  0
 29 52  1  0
 30 53  1  0
M  END
$$$$
