
     RDKit          3D

 92 95  0  0  0  0  0  0  0  0999 V2000
    4.4291    2.5383   -0.2019 C   0  0  0  0  0  0  0  0  0  0  0  0
    3.1030    2.3653   -0.1324 C   0  0  0  0  0  0  0  0  0  0  0  0
    2.3389    1.3895   -0.9894 C   0  0  0  0  0  0  0  0  0  0  0  0
    1.5682    0.3055   -0.2039 C   0  0  0  0  0  0  0  0  0  0  0  0
    2.4809   -0.5612    0.6841 C   0  0  0  0  0  0  0  0  0  0  0  0
    3.3447   -1.5280   -0.1105 C   0  0  0  0  0  0  0  0  0  0  0  0
    3.2364   -1.6151   -1.3350 O   0  0  0  0  0  0  0  0  0  0  0  0
    4.2693   -2.2871    0.6015 N   0  0  0  0  0  0  0  0  0  0  0  0
    4.3355   -2.3517    2.0661 C   0  0  0  0  0  0  0  0  0  0  0  0
    3.3347   -3.3218    2.7032 C   0  0  0  0  0  0  0  0  0  0  0  0
    3.5217   -3.3548    4.1176 O   0  0  0  0  0  0  0  0  0  0  0  0
    5.2127   -3.1143   -0.1524 C   0  0  0  0  0  0  0  0  0  0  0  0
    4.9817   -4.5963    0.0057 C   0  0  0  0  0  0  0  0  0  0  0  0
    3.8513   -5.2006   -0.5649 C   0  0  0  0  0  0  0  0  0  0  0  0
    3.6304   -6.5713   -0.4147 C   0  0  0  0  0  0  0  0  0  0  0  0
    4.5372   -7.3513    0.3043 C   0  0  0  0  0  0  0  0  0  0  0  0
    5.6635   -6.7613    0.8777 C   0  0  0  0  0  0  0  0  0  0  0  0
    5.8867   -5.3908    0.7280 C   0  0  0  0  0  0  0  0  0  0  0  0
    0.4527    0.9234    0.6363 C   0  0  0  0  0  0  0  0  0  0  0  0
    0.4044    0.8426    1.8617 O   0  0  0  0  0  0  0  0  0  0  0  0
   -0.5072    1.5851   -0.0936 N   0  0  0  0  0  0  0  0  0  0  0  0
   -1.6378    2.2870    0.5275 C   0  0  0  0  0  0  0  0  0  0  0  0
   -2.7417    2.5756   -0.5137 C   0  0  0  0  0  0  0  0  0  0  0  0
   -3.3601    1.3597   -0.9900 O   0  0  0  0  0  0  0  0  0  0  0  0
   -2.7508    0.7404   -2.0372 C   0  0  0  0  0  0  0  0  0  0  0  0
   -1.6932    1.1080   -2.5375 O   0  0  0  0  0  0  0  0  0  0  0  0
   -3.5541   -0.4488   -2.5289 C   0  0  0  0  0  0  0  0  0  0  0  0
   -4.8968    0.0139   -3.1181 C   0  0  0  0  0  0  0  0  0  0  0  0
   -4.7395    0.8274   -4.3748 C   0  0  0  0  0  0  0  0  0  0  0  0
   -5.1989    0.4484   -5.5742 C   0  0  0  0  0  0  0  0  0  0  0  0
   -3.7893   -1.4569   -1.3916 C   0  0  0  0  0  0  0  0  0  0  0  0
   -2.5206   -2.0981   -0.8783 C   0  0  0  0  0  0  0  0  0  0  0  0
   -1.8043   -3.0007   -1.6809 C   0  0  0  0  0  0  0  0  0  0  0  0
   -0.6336   -3.5936   -1.2036 C   0  0  0  0  0  0  0  0  0  0  0  0
   -0.1825   -3.2899    0.0742 C   0  0  0  0  0  0  0  0  0  0  0  0
    0.9437   -3.8531    0.5270 F   0  0  0  0  0  0  0  0  0  0  0  0
   -0.8797   -2.4032    0.8854 C   0  0  0  0  0  0  0  0  0  0  0  0
   -2.0464   -1.8036    0.4094 C   0  0  0  0  0  0  0  0  0  0  0  0
   -1.1397    3.5882    1.1944 C   0  0  0  0  0  0  0  0  0  0  0  0
   -2.2073    4.3474    1.9214 C   0  0  0  0  0  0  0  0  0  0  0  0
   -2.8093    3.9758    3.1083 C   0  0  0  0  0  0  0  0  0  0  0  0
   -3.7338    4.9282    3.4395 N   0  0  0  0  0  0  0  0  0  0  0  0
   -3.7576    5.9193    2.4863 C   0  0  0  0  0  0  0  0  0  0  0  0
   -4.5460    7.0734    2.4081 C   0  0  0  0  0  0  0  0  0  0  0  0
   -4.3454    7.9222    1.3163 C   0  0  0  0  0  0  0  0  0  0  0  0
   -3.3946    7.6274    0.3436 C   0  0  0  0  0  0  0  0  0  0  0  0
   -2.6184    6.4659    0.4348 C   0  0  0  0  0  0  0  0  0  0  0  0
   -2.8002    5.5909    1.5263 C   0  0  0  0  0  0  0  0  0  0  0  0
    4.9299    3.2602    0.4363 H   0  0  0  0  0  0  0  0  0  0  0  0
    5.0426    1.9712   -0.8954 H   0  0  0  0  0  0  0  0  0  0  0  0
    2.5301    2.9669    0.5709 H   0  0  0  0  0  0  0  0  0  0  0  0
    3.0184    0.9087   -1.7037 H   0  0  0  0  0  0  0  0  0  0  0  0
    1.6429    1.9733   -1.6037 H   0  0  0  0  0  0  0  0  0  0  0  0
    1.0667   -0.3467   -0.9331 H   0  0  0  0  0  0  0  0  0  0  0  0
    3.1211    0.0782    1.2988 H   0  0  0  0  0  0  0  0  0  0  0  0
    1.8633   -1.1592    1.3591 H   0  0  0  0  0  0  0  0  0  0  0  0
    4.1803   -1.3536    2.4881 H   0  0  0  0  0  0  0  0  0  0  0  0
    5.3561   -2.6225    2.3628 H   0  0  0  0  0  0  0  0  0  0  0  0
    2.3048   -3.0088    2.5143 H   0  0  0  0  0  0  0  0  0  0  0  0
    3.4408   -4.3418    2.3242 H   0  0  0  0  0  0  0  0  0  0  0  0
    4.2963   -3.9174    4.2887 H   0  0  0  0  0  0  0  0  0  0  0  0
    6.2203   -2.8455    0.1870 H   0  0  0  0  0  0  0  0  0  0  0  0
    5.1892   -2.8704   -1.2201 H   0  0  0  0  0  0  0  0  0  0  0  0
    3.1341   -4.5973   -1.1226 H   0  0  0  0  0  0  0  0  0  0  0  0
    2.7476   -7.0286   -0.8578 H   0  0  0  0  0  0  0  0  0  0  0  0
    4.3643   -8.4193    0.4180 H   0  0  0  0  0  0  0  0  0  0  0  0
    6.3711   -7.3701    1.4376 H   0  0  0  0  0  0  0  0  0  0  0  0
    6.7726   -4.9470    1.1794 H   0  0  0  0  0  0  0  0  0  0  0  0
   -0.5042    1.4888   -1.1108 H   0  0  0  0  0  0  0  0  0  0  0  0
   -2.0452    1.6117    1.2901 H   0  0  0  0  0  0  0  0  0  0  0  0
   -3.5574    3.1526   -0.0672 H   0  0  0  0  0  0  0  0  0  0  0  0
   -2.3574    3.1645   -1.3557 H   0  0  0  0  0  0  0  0  0  0  0  0
   -2.9637   -0.9268   -3.3211 H   0  0  0  0  0  0  0  0  0  0  0  0
   -5.4511    0.6187   -2.3900 H   0  0  0  0  0  0  0  0  0  0  0  0
   -5.5202   -0.8646   -3.3303 H   0  0  0  0  0  0  0  0  0  0  0  0
   -4.2346    1.7889   -4.2914 H   0  0  0  0  0  0  0  0  0  0  0  0
   -5.0597    1.0825   -6.4460 H   0  0  0  0  0  0  0  0  0  0  0  0
   -5.7165   -0.4949   -5.7210 H   0  0  0  0  0  0  0  0  0  0  0  0
   -4.3304   -0.9833   -0.5606 H   0  0  0  0  0  0  0  0  0  0  0  0
   -4.4477   -2.2638   -1.7409 H   0  0  0  0  0  0  0  0  0  0  0  0
   -2.1548   -3.2507   -2.6812 H   0  0  0  0  0  0  0  0  0  0  0  0
   -0.0698   -4.2862   -1.8206 H   0  0  0  0  0  0  0  0  0  0  0  0
   -0.5049   -2.1704    1.8794 H   0  0  0  0  0  0  0  0  0  0  0  0
   -2.5748   -1.0999    1.0514 H   0  0  0  0  0  0  0  0  0  0  0  0
   -0.6726    4.2280    0.4351 H   0  0  0  0  0  0  0  0  0  0  0  0
   -0.3408    3.3604    1.9117 H   0  0  0  0  0  0  0  0  0  0  0  0
   -2.6516    3.1137    3.7446 H   0  0  0  0  0  0  0  0  0  0  0  0
   -4.3176    4.9132    4.2638 H   0  0  0  0  0  0  0  0  0  0  0  0
   -5.2858    7.3089    3.1659 H   0  0  0  0  0  0  0  0  0  0  0  0
   -4.9387    8.8292    1.2287 H   0  0  0  0  0  0  0  0  0  0  0  0
   -3.2505    8.3045   -0.4944 H   0  0  0  0  0  0  0  0  0  0  0  0
   -1.8804    6.2493   -0.3300 H   0  0  0  0  0  0  0  0  0  0  0  0
  1  2  2  0
  2  3  1  0
  3  4  1  0
  4  5  1  0
  5  6  1  0
  6  7  2  0
  6  8  1  0
  8  9  1  0
  9 10  1  0
 10 11  1  0
  8 12  1  0
 12 13  1  0
 13 14  2  0
 14 15  1  0
 15 16  2  0
 16 17  1  0
 17 18  2  0
  4 19  1  0
 19 20  2  0
 19 21  1  0
 21 22  1  0
 22 23  1  0
 23 24  1  0
 24 25  1  0
 25 26  2  0
 25 27  1  0
 27 28  1  0
 28 29  1  0
 29 30  2  0
 27 31  1  0
 31 32  1  0
 32 33  2  0
 33 34  1  0
 34 35  2  0
 35 36  1  0
 35 37  1  0
 37 38  2  0
 22 39  1  0
 39 40  1  0
 40 41  2  0
 41 42  1  0
 42 43  1  0
 43 44  2  0
 44 45  1  0
 45 46  2  0
 46 47  1  0
 47 48  2  0
 18 13  1  0
 38 32  1  0
 48 40  1  0
 48 43  1  0
  1 49  1  0
  1 50  1  0
  2 51  1  0
  3 52  1  0
  3 53  1  0
  4 54  1  0
  5 55  1  0
  5 56  1  0
  9 57  1  0
  9 58  1  0
 10 59  1  0
 10 60  1  0
 11 61  1  0
 12 62  1  0
 12 63  1  0
 14 64  1  0
 15 65  1  0
 16 66  1  0
 17 67  1  0
 18 68  1  0
 21 69  1  0
 22 70  1  0
 23 71  1  0
 23 72  1  0
 27 73  1  0
 28 74  1  0
 28 75  1  0
 29 76  1  0
 30 77  1  0
 30 78  1  0
 31 79  1  0
 31 80  1  0
 33 81  1  0
 34 82  1  0
 37 83  1  0
 38 84  1  0
 39 85  1  0
 39 86  1  0
 41 87  1  0
 42 88  1  0
 44 89  1  0
 45 90  1  0
 46 91  1  0
 47 92  1  0
M  END
$$$$
