
     RDKit          3D

 55 60  0  0  0  0  0  0  0  0999 V2000
    7.4374    2.1361    0.3894 C   0  0  0  0  0  0  0  0  0  0  0  0
    6.8996    2.1756   -0.8977 C   0  0  0  0  0  0  0  0  0  0  0  0
    5.7344    1.4653   -1.1886 C   0  0  0  0  0  0  0  0  0  0  0  0
    5.1001    0.7261   -0.1842 C   0  0  0  0  0  0  0  0  0  0  0  0
    3.8721   -0.0353   -0.5232 C   0  0  0  0  0  0  0  0  0  0  0  0
    3.8998   -0.8184   -1.5602 N   0  0  0  0  0  0  0  0  0  0  0  0
    2.7657   -1.5971   -1.8624 C   0  0  0  0  0  0  0  0  0  0  0  0
    2.8658   -2.5001   -2.9251 C   0  0  0  0  0  0  0  0  0  0  0  0
    1.8023   -3.3434   -3.2491 C   0  0  0  0  0  0  0  0  0  0  0  0
    0.6302   -3.3004   -2.4980 C   0  0  0  0  0  0  0  0  0  0  0  0
    0.5107   -2.4028   -1.4349 C   0  0  0  0  0  0  0  0  0  0  0  0
    1.5646   -1.5349   -1.1349 C   0  0  0  0  0  0  0  0  0  0  0  0
    1.5206   -0.5852   -0.0832 N   0  0  0  0  0  0  0  0  0  0  0  0
    0.4740   -0.1624    0.7411 C   0  0  0  0  0  0  0  0  0  0  0  0
   -0.8420   -0.5006    0.5475 N   0  0  0  0  0  0  0  0  0  0  0  0
   -1.5285    0.1706   -0.5955 C   0  0  0  0  0  0  0  0  0  0  0  0
   -2.7648    0.9917   -0.1623 C   0  0  0  0  0  0  0  0  0  0  0  0
   -3.7360    0.1568    0.5686 N   0  0  0  0  0  0  0  0  0  0  0  0
   -5.0781    0.4878    0.6475 C   0  0  0  0  0  0  0  0  0  0  0  0
   -5.5497    1.7738    0.3369 C   0  0  0  0  0  0  0  0  0  0  0  0
   -6.9084    2.1064    0.4141 C   0  0  0  0  0  0  0  0  0  0  0  0
   -7.8393    1.1515    0.8026 C   0  0  0  0  0  0  0  0  0  0  0  0
   -7.4083   -0.1323    1.1110 C   0  0  0  0  0  0  0  0  0  0  0  0
   -6.0474   -0.4539    1.0322 C   0  0  0  0  0  0  0  0  0  0  0  0
   -3.1710   -0.9483    1.3678 C   0  0  0  0  0  0  0  0  0  0  0  0
   -1.6980   -0.6735    1.7452 C   0  0  0  0  0  0  0  0  0  0  0  0
    1.0218    0.6698    1.7001 C   0  0  0  0  0  0  0  0  0  0  0  0
    2.3798    0.8768    1.3795 C   0  0  0  0  0  0  0  0  0  0  0  0
    2.6676    0.1125    0.2661 C   0  0  0  0  0  0  0  0  0  0  0  0
    5.6522    0.6682    1.1001 C   0  0  0  0  0  0  0  0  0  0  0  0
    6.8183    1.3801    1.3860 C   0  0  0  0  0  0  0  0  0  0  0  0
    8.3483    2.6865    0.6130 H   0  0  0  0  0  0  0  0  0  0  0  0
    7.3912    2.7536   -1.6761 H   0  0  0  0  0  0  0  0  0  0  0  0
    5.3220    1.4862   -2.1947 H   0  0  0  0  0  0  0  0  0  0  0  0
    3.7903   -2.5505   -3.4945 H   0  0  0  0  0  0  0  0  0  0  0  0
    1.8978   -4.0438   -4.0744 H   0  0  0  0  0  0  0  0  0  0  0  0
   -0.1905   -3.9739   -2.7324 H   0  0  0  0  0  0  0  0  0  0  0  0
   -0.3980   -2.4255   -0.8445 H   0  0  0  0  0  0  0  0  0  0  0  0
   -0.8411    0.8267   -1.1445 H   0  0  0  0  0  0  0  0  0  0  0  0
   -1.8566   -0.6077   -1.2949 H   0  0  0  0  0  0  0  0  0  0  0  0
   -2.4516    1.8275    0.4751 H   0  0  0  0  0  0  0  0  0  0  0  0
   -3.2166    1.4041   -1.0724 H   0  0  0  0  0  0  0  0  0  0  0  0
   -4.8599    2.5608    0.0466 H   0  0  0  0  0  0  0  0  0  0  0  0
   -7.2317    3.1152    0.1719 H   0  0  0  0  0  0  0  0  0  0  0  0
   -8.8937    1.4054    0.8619 H   0  0  0  0  0  0  0  0  0  0  0  0
   -8.1265   -0.8919    1.4074 H   0  0  0  0  0  0  0  0  0  0  0  0
   -5.7609   -1.4778    1.2557 H   0  0  0  0  0  0  0  0  0  0  0  0
   -3.7269   -1.0821    2.3035 H   0  0  0  0  0  0  0  0  0  0  0  0
   -3.2410   -1.8779    0.7904 H   0  0  0  0  0  0  0  0  0  0  0  0
   -1.6639    0.2258    2.3733 H   0  0  0  0  0  0  0  0  0  0  0  0
   -1.3188   -1.5136    2.3391 H   0  0  0  0  0  0  0  0  0  0  0  0
    0.4792    1.1569    2.4987 H   0  0  0  0  0  0  0  0  0  0  0  0
    3.0593    1.5395    1.8991 H   0  0  0  0  0  0  0  0  0  0  0  0
    5.1931    0.0585    1.8737 H   0  0  0  0  0  0  0  0  0  0  0  0
    7.2507    1.3376    2.3826 H   0  0  0  0  0  0  0  0  0  0  0  0
  1  2  2  0
  2  3  1  0
  3  4  2  0
  4  5  1  0
  5  6  2  0
  6  7  1  0
  7  8  2  0
  8  9  1  0
  9 10  2  0
 10 11  1  0
 11 12  2  0
 12 13  1  0
 13 14  1  0
 14 15  1  0
 15 16  1  0
 16 17  1  0
 17 18  1  0
 18 19  1  0
 19 20  2  0
 20 21  1  0
 21 22  2  0
 22 23  1  0
 23 24  2  0
 18 25  1  0
 25 26  1  0
 14 27  2  0
 27 28  1  0
 28 29  2  0
  4 30  1  0
 30 31  2  0
 31  1  1  0
 29  5  1  0
 12  7  1  0
 29 13  1  0
 26 15  1  0
 24 19  1  0
  1 32  1  0
  2 33  1  0
  3 34  1  0
  8 35  1  0
  9 36  1  0
 10 37  1  0
 11 38  1  0
 16 39  1  0
 16 40  1  0
 17 41  1  0
 17 42  1  0
 20 43  1  0
 21 44  1  0
 22 45  1  0
 23 46  1  0
 24 47  1  0
 25 48  1  0
 25 49  1  0
 26 50  1  0
 26 51  1  0
 27 52  1  0
 28 53  1  0
 30 54  1  0
 31 55  1  0
M  END
$$$$
