
     RDKit          3D

 51 55  0  0  0  0  0  0  0  0999 V2000
    6.0870   -0.2439   -1.8484 F   0  0  0  0  0  0  0  0  0  0  0  0
    6.2410   -0.6448   -0.5785 C   0  0  0  0  0  0  0  0  0  0  0  0
    7.3090   -1.4799   -0.2641 C   0  0  0  0  0  0  0  0  0  0  0  0
    7.4803   -1.9161    1.0482 C   0  0  0  0  0  0  0  0  0  0  0  0
    6.5801   -1.5148    2.0358 C   0  0  0  0  0  0  0  0  0  0  0  0
    5.5093   -0.6763    1.7140 C   0  0  0  0  0  0  0  0  0  0  0  0
    5.3320   -0.2274    0.3982 C   0  0  0  0  0  0  0  0  0  0  0  0
    4.1703    0.6641    0.0350 C   0  0  0  0  0  0  0  0  0  0  0  0
    3.0041   -0.1403   -0.5658 C   0  0  0  0  0  0  0  0  0  0  0  0
    1.8533    0.6992   -0.9444 N   0  0  0  0  0  0  0  0  0  0  0  0
    1.2332    1.3559    0.2306 C   0  0  0  0  0  0  0  0  0  0  0  0
   -0.2791    1.6210    0.0802 C   0  0  0  0  0  0  0  0  0  0  0  0
   -1.0115    0.3521   -0.0872 N   0  0  0  0  0  0  0  0  0  0  0  0
   -2.3993    0.3506    0.0280 C   0  0  0  0  0  0  0  0  0  0  0  0
   -3.0178    1.5068    0.0094 N   0  0  0  0  0  0  0  0  0  0  0  0
   -4.4211    1.5801    0.0799 C   0  0  0  0  0  0  0  0  0  0  0  0
   -5.0223    2.8396    0.0366 C   0  0  0  0  0  0  0  0  0  0  0  0
   -6.4126    2.9695    0.0908 C   0  0  0  0  0  0  0  0  0  0  0  0
   -7.2179    1.8345    0.1887 C   0  0  0  0  0  0  0  0  0  0  0  0
   -6.6383    0.5659    0.2338 C   0  0  0  0  0  0  0  0  0  0  0  0
   -5.2457    0.4524    0.1779 C   0  0  0  0  0  0  0  0  0  0  0  0
   -4.5789   -0.7821    0.2316 N   0  0  0  0  0  0  0  0  0  0  0  0
   -5.1008   -2.0481    0.3553 C   0  0  0  0  0  0  0  0  0  0  0  0
   -4.0542   -2.9385    0.4434 C   0  0  0  0  0  0  0  0  0  0  0  0
   -2.8591   -2.1877    0.3540 C   0  0  0  0  0  0  0  0  0  0  0  0
   -3.2022   -0.8572    0.1814 C   0  0  0  0  0  0  0  0  0  0  0  0
   -0.3023   -0.6710   -0.8710 C   0  0  0  0  0  0  0  0  0  0  0  0
    0.8464   -0.0683   -1.7097 C   0  0  0  0  0  0  0  0  0  0  0  0
    7.9986   -1.7846   -1.0447 H   0  0  0  0  0  0  0  0  0  0  0  0
    8.3126   -2.5677    1.3013 H   0  0  0  0  0  0  0  0  0  0  0  0
    6.7123   -1.8556    3.0602 H   0  0  0  0  0  0  0  0  0  0  0  0
    4.8167   -0.3753    2.4971 H   0  0  0  0  0  0  0  0  0  0  0  0
    3.8495    1.2079    0.9317 H   0  0  0  0  0  0  0  0  0  0  0  0
    4.5092    1.4285   -0.6761 H   0  0  0  0  0  0  0  0  0  0  0  0
    2.6911   -0.9308    0.1297 H   0  0  0  0  0  0  0  0  0  0  0  0
    3.3792   -0.6488   -1.4639 H   0  0  0  0  0  0  0  0  0  0  0  0
    1.7436    2.3091    0.4084 H   0  0  0  0  0  0  0  0  0  0  0  0
    1.3694    0.7387    1.1293 H   0  0  0  0  0  0  0  0  0  0  0  0
   -0.4661    2.2822   -0.7752 H   0  0  0  0  0  0  0  0  0  0  0  0
   -0.6283    2.1339    0.9846 H   0  0  0  0  0  0  0  0  0  0  0  0
   -4.3971    3.7251   -0.0425 H   0  0  0  0  0  0  0  0  0  0  0  0
   -6.8645    3.9575    0.0555 H   0  0  0  0  0  0  0  0  0  0  0  0
   -8.2993    1.9399    0.2309 H   0  0  0  0  0  0  0  0  0  0  0  0
   -7.2850   -0.3013    0.3127 H   0  0  0  0  0  0  0  0  0  0  0  0
   -6.1658   -2.2247    0.3917 H   0  0  0  0  0  0  0  0  0  0  0  0
   -4.1435   -4.0097    0.5707 H   0  0  0  0  0  0  0  0  0  0  0  0
   -1.8563   -2.5857    0.4141 H   0  0  0  0  0  0  0  0  0  0  0  0
    0.1033   -1.4250   -0.1871 H   0  0  0  0  0  0  0  0  0  0  0  0
   -0.9882   -1.1728   -1.5630 H   0  0  0  0  0  0  0  0  0  0  0  0
    0.4070    0.6217   -2.4426 H   0  0  0  0  0  0  0  0  0  0  0  0
    1.3185   -0.8580   -2.3071 H   0  0  0  0  0  0  0  0  0  0  0  0
  1  2  1  0
  2  3  2  0
  3  4  1  0
  4  5  2  0
  5  6  1  0
  6  7  2  0
  7  8  1  0
  8  9  1  0
  9 10  1  0
 10 11  1  0
 11 12  1  0
 12 13  1  0
 13 14  1  0
 14 15  2  0
 15 16  1  0
 16 17  2  0
 17 18  1  0
 18 19  2  0
 19 20  1  0
 20 21  2  0
 21 22  1  0
 22 23  1  0
 23 24  2  0
 24 25  1  0
 25 26  2  0
 13 27  1  0
 27 28  1  0
  7  2  1  0
 28 10  1  0
 26 14  1  0
 21 16  1  0
 26 22  1  0
  3 29  1  0
  4 30  1  0
  5 31  1  0
  6 32  1  0
  8 33  1  0
  8 34  1  0
  9 35  1  0
  9 36  1  0
 11 37  1  0
 11 38  1  0
 12 39  1  0
 12 40  1  0
 17 41  1  0
 18 42  1  0
 19 43  1  0
 20 44  1  0
 23 45  1  0
 24 46  1  0
 25 47  1  0
 27 48  1  0
 27 49  1  0
 28 50  1  0
 28 51  1  0
M  END
$$$$
