
     RDKit          3D

 32 32  0  0  0  0  0  0  0  0999 V2000
    1.7273    2.7744   -1.5892 C   0  0  0  0  0  0  0  0  0  0  0  0
    0.5582    2.5768   -1.7832 C   0  0  0  0  0  0  0  0  0  0  0  0
   -0.8771    2.3469   -2.0173 C   0  0  0  0  0  0  0  0  0  0  0  0
   -1.1363    1.0980   -2.7454 N   0  0  0  0  0  0  0  0  0  0  0  0
   -2.5400    1.0205   -3.1447 C   0  0  0  0  0  0  0  0  0  0  0  0
   -0.6901   -0.1225   -2.0502 C   0  0  0  0  0  0  0  0  0  0  0  0
   -1.2876   -0.3767   -0.6582 C   0  0  0  0  0  0  0  0  0  0  0  0
   -0.8256   -1.7125   -0.0712 C   0  0  0  0  0  0  0  0  0  0  0  0
    0.6052   -1.7925   -0.0256 O   0  0  0  0  0  0  0  0  0  0  0  0
    1.0998   -1.4842    1.2143 C   0  0  0  0  0  0  0  0  0  0  0  0
    1.6437   -0.2100    1.3875 C   0  0  0  0  0  0  0  0  0  0  0  0
    2.1939    0.1414    2.6178 C   0  0  0  0  0  0  0  0  0  0  0  0
    2.8476    1.7168    2.8412 Cl  0  0  0  0  0  0  0  0  0  0  0  0
    2.2219   -0.7751    3.6691 C   0  0  0  0  0  0  0  0  0  0  0  0
    1.7040   -2.0603    3.4852 C   0  0  0  0  0  0  0  0  0  0  0  0
    1.1504   -2.4206    2.2542 C   0  0  0  0  0  0  0  0  0  0  0  0
    0.5586   -4.0291    2.0569 Cl  0  0  0  0  0  0  0  0  0  0  0  0
    2.7657    2.9469   -1.4238 H   0  0  0  0  0  0  0  0  0  0  0  0
   -1.2449    3.1915   -2.6146 H   0  0  0  0  0  0  0  0  0  0  0  0
   -1.4252    2.3810   -1.0685 H   0  0  0  0  0  0  0  0  0  0  0  0
   -3.2232    1.0443   -2.2891 H   0  0  0  0  0  0  0  0  0  0  0  0
   -2.7961    1.8573   -3.8045 H   0  0  0  0  0  0  0  0  0  0  0  0
   -2.7332    0.1067   -3.7174 H   0  0  0  0  0  0  0  0  0  0  0  0
    0.4042   -0.1038   -1.9794 H   0  0  0  0  0  0  0  0  0  0  0  0
   -0.9074   -0.9851   -2.6943 H   0  0  0  0  0  0  0  0  0  0  0  0
   -2.3819   -0.3817   -0.7020 H   0  0  0  0  0  0  0  0  0  0  0  0
   -0.9899    0.4279    0.0226 H   0  0  0  0  0  0  0  0  0  0  0  0
   -1.2873   -1.8639    0.9132 H   0  0  0  0  0  0  0  0  0  0  0  0
   -1.1701   -2.5327   -0.7115 H   0  0  0  0  0  0  0  0  0  0  0  0
    1.6365    0.4978    0.5636 H   0  0  0  0  0  0  0  0  0  0  0  0
    2.6548   -0.5002    4.6278 H   0  0  0  0  0  0  0  0  0  0  0  0
    1.7441   -2.7773    4.3015 H   0  0  0  0  0  0  0  0  0  0  0  0
  1  2  3  0
  2  3  1  0
  3  4  1  0
  4  5  1  0
  4  6  1  0
  6  7  1  0
  7  8  1  0
  8  9  1  0
  9 10  1  0
 10 11  2  0
 11 12  1  0
 12 13  1  0
 12 14  2  0
 14 15  1  0
 15 16  2  0
 16 17  1  0
 16 10  1  0
  1 18  1  0
  3 19  1  0
  3 20  1  0
  5 21  1  0
  5 22  1  0
  5 23  1  0
  6 24  1  0
  6 25  1  0
  7 26  1  0
  7 27  1  0
  8 28  1  0
  8 29  1  0
 11 30  1  0
 14 31  1  0
 15 32  1  0
M  END
$$$$
