
     RDKit          3D

 28 30  0  0  0  0  0  0  0  0999 V2000
   -0.1964    3.2135   -1.2475 O   0  0  0  0  0  0  0  0  0  0  0  0
    0.0466    2.1596   -0.6487 C   0  0  0  0  0  0  0  0  0  0  0  0
   -1.0141    1.5177    0.1837 C   0  0  0  0  0  0  0  0  0  0  0  0
   -1.1546    0.0484   -0.1534 C   0  0  0  0  0  0  0  0  0  0  0  0
   -2.5909   -0.4319   -0.0712 C   0  0  0  0  0  0  0  0  0  0  0  0
   -3.2676   -1.1185   -1.1382 C   0  0  0  0  0  0  0  0  0  0  0  0
   -4.5683   -1.4448   -0.8254 C   0  0  0  0  0  0  0  0  0  0  0  0
   -4.9959   -0.9343    0.7461 S   0  0  0  0  0  0  0  0  0  0  0  0
   -3.4411   -0.2762    1.0129 C   0  0  0  0  0  0  0  0  0  0  0  0
   -0.1466   -0.8923    1.0317 S   0  0  0  0  0  0  0  0  0  0  0  0
    1.5171   -0.5236    0.5077 C   0  0  0  0  0  0  0  0  0  0  0  0
    2.4347   -1.5103    0.9399 C   0  0  0  0  0  0  0  0  0  0  0  0
    3.7906   -1.4560    0.6215 C   0  0  0  0  0  0  0  0  0  0  0  0
    4.2646   -0.4057   -0.1420 C   0  0  0  0  0  0  0  0  0  0  0  0
    3.3796    0.5841   -0.5688 C   0  0  0  0  0  0  0  0  0  0  0  0
    2.0021    0.5571   -0.2478 C   0  0  0  0  0  0  0  0  0  0  0  0
    1.3021    1.6692   -0.7562 N   0  0  0  0  0  0  0  0  0  0  0  0
   -1.9465    2.0470   -0.0588 H   0  0  0  0  0  0  0  0  0  0  0  0
   -0.8159    1.7268    1.2420 H   0  0  0  0  0  0  0  0  0  0  0  0
   -0.7891   -0.1695   -1.1652 H   0  0  0  0  0  0  0  0  0  0  0  0
   -2.8168   -1.3632   -2.0930 H   0  0  0  0  0  0  0  0  0  0  0  0
   -5.2893   -1.9602   -1.4451 H   0  0  0  0  0  0  0  0  0  0  0  0
   -3.2219    0.1939    1.9625 H   0  0  0  0  0  0  0  0  0  0  0  0
    2.0905   -2.3563    1.5360 H   0  0  0  0  0  0  0  0  0  0  0  0
    4.4646   -2.2350    0.9679 H   0  0  0  0  0  0  0  0  0  0  0  0
    5.3183   -0.3480   -0.4027 H   0  0  0  0  0  0  0  0  0  0  0  0
    3.7943    1.4008   -1.1585 H   0  0  0  0  0  0  0  0  0  0  0  0
    1.8500    2.3081   -1.3242 H   0  0  0  0  0  0  0  0  0  0  0  0
  1  2  2  0
  2  3  1  0
  3  4  1  0
  4  5  1  0
  5  6  1  0
  6  7  2  0
  7  8  1  0
  8  9  1  0
  4 10  1  0
 10 11  1  0
 11 12  2  0
 12 13  1  0
 13 14  2  0
 14 15  1  0
 15 16  2  0
 16 17  1  0
 17  2  1  0
  9  5  2  0
 16 11  1  0
  3 18  1  0
  3 19  1  0
  4 20  1  0
  6 21  1  0
  7 22  1  0
  9 23  1  0
 12 24  1  0
 13 25  1  0
 14 26  1  0
 15 27  1  0
 17 28  1  0
M  END
$$$$
