
     RDKit          3D

 53 56  0  0  0  0  0  0  0  0999 V2000
    7.3196    0.0084   -3.3079 C   0  0  0  0  0  0  0  0  0  0  0  0
    7.1626    1.1671   -2.4984 O   0  0  0  0  0  0  0  0  0  0  0  0
    6.1353    1.1512   -1.5965 C   0  0  0  0  0  0  0  0  0  0  0  0
    6.1245    2.2323   -0.7137 C   0  0  0  0  0  0  0  0  0  0  0  0
    5.1345    2.3357    0.2620 C   0  0  0  0  0  0  0  0  0  0  0  0
    4.1451    1.3559    0.3530 C   0  0  0  0  0  0  0  0  0  0  0  0
    4.1366    0.2694   -0.5313 C   0  0  0  0  0  0  0  0  0  0  0  0
    3.1169   -0.6876   -0.3550 N   0  0  0  0  0  0  0  0  0  0  0  0
    2.8166   -1.7716   -1.1611 C   0  0  0  0  0  0  0  0  0  0  0  0
    3.3442   -2.0386   -2.2401 O   0  0  0  0  0  0  0  0  0  0  0  0
    1.7448   -2.6795   -0.5776 C   0  0  0  0  0  0  0  0  0  0  0  0
    0.0779   -2.0627   -0.9408 S   0  0  0  0  0  0  0  0  0  0  0  0
   -0.1902   -0.9936    0.3970 C   0  0  0  0  0  0  0  0  0  0  0  0
    0.7734   -0.5217    1.1575 N   0  0  0  0  0  0  0  0  0  0  0  0
    0.1993    0.1982    2.1632 N   0  0  0  0  0  0  0  0  0  0  0  0
   -1.1114    0.1632    2.0039 C   0  0  0  0  0  0  0  0  0  0  0  0
   -2.0845    0.9815    2.8013 C   0  0  0  0  0  0  0  0  0  0  0  0
   -2.7684    2.0515    1.9879 C   0  0  0  0  0  0  0  0  0  0  0  0
   -4.0812    2.0985    1.5573 C   0  0  0  0  0  0  0  0  0  0  0  0
   -4.3624    3.2665    0.7919 C   0  0  0  0  0  0  0  0  0  0  0  0
   -3.2612    4.0820    0.6724 C   0  0  0  0  0  0  0  0  0  0  0  0
   -1.9008    3.4452    1.4921 S   0  0  0  0  0  0  0  0  0  0  0  0
   -1.4270   -0.6419    0.9137 N   0  0  0  0  0  0  0  0  0  0  0  0
   -2.7149   -1.0470    0.4816 C   0  0  0  0  0  0  0  0  0  0  0  0
   -3.6343   -1.5446    1.4149 C   0  0  0  0  0  0  0  0  0  0  0  0
   -4.8991   -1.9657    0.9938 C   0  0  0  0  0  0  0  0  0  0  0  0
   -5.2550   -1.8980   -0.3593 C   0  0  0  0  0  0  0  0  0  0  0  0
   -6.6228   -2.3270   -0.8039 C   0  0  0  0  0  0  0  0  0  0  0  0
   -4.3366   -1.3817   -1.2823 C   0  0  0  0  0  0  0  0  0  0  0  0
   -3.0672   -0.9663   -0.8693 C   0  0  0  0  0  0  0  0  0  0  0  0
    5.1351    0.1741   -1.5057 C   0  0  0  0  0  0  0  0  0  0  0  0
    7.4165   -0.8962   -2.6952 H   0  0  0  0  0  0  0  0  0  0  0  0
    8.2486    0.1200   -3.8780 H   0  0  0  0  0  0  0  0  0  0  0  0
    6.4952   -0.0837   -4.0230 H   0  0  0  0  0  0  0  0  0  0  0  0
    6.8978    2.9945   -0.7844 H   0  0  0  0  0  0  0  0  0  0  0  0
    5.1328    3.1801    0.9469 H   0  0  0  0  0  0  0  0  0  0  0  0
    3.3762    1.4554    1.1193 H   0  0  0  0  0  0  0  0  0  0  0  0
    2.4747   -0.5085    0.4152 H   0  0  0  0  0  0  0  0  0  0  0  0
    1.9025   -2.8239    0.4976 H   0  0  0  0  0  0  0  0  0  0  0  0
    1.8524   -3.6652   -1.0437 H   0  0  0  0  0  0  0  0  0  0  0  0
   -1.5446    1.4587    3.6306 H   0  0  0  0  0  0  0  0  0  0  0  0
   -2.8320    0.3375    3.2854 H   0  0  0  0  0  0  0  0  0  0  0  0
   -4.8094    1.3240    1.7666 H   0  0  0  0  0  0  0  0  0  0  0  0
   -5.3237    3.4946    0.3481 H   0  0  0  0  0  0  0  0  0  0  0  0
   -3.1847    5.0234    0.1447 H   0  0  0  0  0  0  0  0  0  0  0  0
   -3.3755   -1.6649    2.4642 H   0  0  0  0  0  0  0  0  0  0  0  0
   -5.6032   -2.3622    1.7267 H   0  0  0  0  0  0  0  0  0  0  0  0
   -6.9729   -3.1796   -0.2103 H   0  0  0  0  0  0  0  0  0  0  0  0
   -7.3311   -1.5000   -0.6906 H   0  0  0  0  0  0  0  0  0  0  0  0
   -6.6120   -2.6425   -1.8524 H   0  0  0  0  0  0  0  0  0  0  0  0
   -4.6028   -1.3012   -2.3343 H   0  0  0  0  0  0  0  0  0  0  0  0
   -2.3909   -0.5504   -1.6120 H   0  0  0  0  0  0  0  0  0  0  0  0
    5.1368   -0.6628   -2.1909 H   0  0  0  0  0  0  0  0  0  0  0  0
  1  2  1  0
  2  3  1  0
  3  4  2  0
  4  5  1  0
  5  6  2  0
  6  7  1  0
  7  8  1  0
  8  9  1  0
  9 10  2  0
  9 11  1  0
 11 12  1  0
 12 13  1  0
 13 14  2  0
 14 15  1  0
 15 16  2  0
 16 17  1  0
 17 18  1  0
 18 19  2  0
 19 20  1  0
 20 21  2  0
 21 22  1  0
 16 23  1  0
 23 24  1  0
 24 25  2  0
 25 26  1  0
 26 27  2  0
 27 28  1  0
 27 29  1  0
 29 30  2  0
  7 31  2  0
 31  3  1  0
 23 13  1  0
 30 24  1  0
 22 18  1  0
  1 32  1  0
  1 33  1  0
  1 34  1  0
  4 35  1  0
  5 36  1  0
  6 37  1  0
  8 38  1  0
 11 39  1  0
 11 40  1  0
 17 41  1  0
 17 42  1  0
 19 43  1  0
 20 44  1  0
 21 45  1  0
 25 46  1  0
 26 47  1  0
 28 48  1  0
 28 49  1  0
 28 50  1  0
 29 51  1  0
 30 52  1  0
 31 53  1  0
M  END
$$$$
