
     RDKit          3D

 40 42  0  0  0  0  0  0  0  0999 V2000
    2.3854   -1.1908    0.9552 O   0  0  0  0  0  0  0  0  0  0  0  0
    2.6808   -0.1800    0.3302 C   0  0  0  0  0  0  0  0  0  0  0  0
    1.8837    0.5040   -0.5698 N   0  0  0  0  0  0  0  0  0  0  0  0
    0.6030    0.1318   -1.0293 C   0  0  0  0  0  0  0  0  0  0  0  0
   -0.0720    1.0464   -1.8512 C   0  0  0  0  0  0  0  0  0  0  0  0
   -1.3454    0.7562   -2.3492 C   0  0  0  0  0  0  0  0  0  0  0  0
   -1.9509   -0.4573   -2.0193 C   0  0  0  0  0  0  0  0  0  0  0  0
   -3.5666   -0.8345   -2.6644 S   0  0  0  0  0  6  0  0  0  0  0  0
   -3.7653   -2.2658   -2.5706 O   0  0  0  0  0  0  0  0  0  0  0  0
   -3.6872   -0.1513   -3.9362 O   0  0  0  0  0  0  0  0  0  0  0  0
   -4.6129   -0.0564   -1.6012 N   0  0  0  0  0  0  0  0  0  0  0  0
   -4.4709   -0.3699   -0.2377 C   0  0  0  0  0  0  0  0  0  0  0  0
   -4.7648   -1.6154    0.2890 C   0  0  0  0  0  0  0  0  0  0  0  0
   -4.5406   -1.8138    1.6470 C   0  0  0  0  0  0  0  0  0  0  0  0
   -4.0382   -0.7667    2.4131 C   0  0  0  0  0  0  0  0  0  0  0  0
   -3.7855    0.4441    1.7862 C   0  0  0  0  0  0  0  0  0  0  0  0
   -3.9953    0.6691    0.4702 N   0  0  0  0  0  0  0  0  0  0  0  0
   -1.2800   -1.3898   -1.2265 C   0  0  0  0  0  0  0  0  0  0  0  0
   -0.0079   -1.0886   -0.7284 C   0  0  0  0  0  0  0  0  0  0  0  0
    4.0155    0.4339    0.5760 C   0  0  0  0  0  0  0  0  0  0  0  0
    4.7461    1.0417   -0.4553 C   0  0  0  0  0  0  0  0  0  0  0  0
    5.9963    1.6031   -0.1866 C   0  0  0  0  0  0  0  0  0  0  0  0
    6.5215    1.5523    1.1053 C   0  0  0  0  0  0  0  0  0  0  0  0
    5.7997    0.9306    2.1242 C   0  0  0  0  0  0  0  0  0  0  0  0
    6.5222    0.8538    3.8695 Br  0  0  0  0  0  0  0  0  0  0  0  0
    4.5523    0.3659    1.8672 C   0  0  0  0  0  0  0  0  0  0  0  0
    2.2144    1.4082   -0.8804 H   0  0  0  0  0  0  0  0  0  0  0  0
    0.3812    1.9991   -2.1137 H   0  0  0  0  0  0  0  0  0  0  0  0
   -1.8519    1.4760   -2.9881 H   0  0  0  0  0  0  0  0  0  0  0  0
   -4.5975    0.9510   -1.7418 H   0  0  0  0  0  0  0  0  0  0  0  0
   -5.1564   -2.4127   -0.3330 H   0  0  0  0  0  0  0  0  0  0  0  0
   -4.7532   -2.7771    2.1024 H   0  0  0  0  0  0  0  0  0  0  0  0
   -3.8482   -0.8910    3.4739 H   0  0  0  0  0  0  0  0  0  0  0  0
   -3.3932    1.2895    2.3449 H   0  0  0  0  0  0  0  0  0  0  0  0
   -1.7333   -2.3488   -0.9848 H   0  0  0  0  0  0  0  0  0  0  0  0
    0.4850   -1.8363   -0.1139 H   0  0  0  0  0  0  0  0  0  0  0  0
    4.3713    1.0568   -1.4755 H   0  0  0  0  0  0  0  0  0  0  0  0
    6.5682    2.0697   -0.9856 H   0  0  0  0  0  0  0  0  0  0  0  0
    7.4972    1.9888    1.3056 H   0  0  0  0  0  0  0  0  0  0  0  0
    3.9936   -0.1256    2.6609 H   0  0  0  0  0  0  0  0  0  0  0  0
  1  2  2  0
  2  3  1  0
  3  4  1  0
  4  5  2  0
  5  6  1  0
  6  7  2  0
  7  8  1  0
  8  9  2  0
  8 10  2  0
  8 11  1  0
 11 12  1  0
 12 13  2  0
 13 14  1  0
 14 15  2  0
 15 16  1  0
 16 17  2  0
  7 18  1  0
 18 19  2  0
  2 20  1  0
 20 21  2  0
 21 22  1  0
 22 23  2  0
 23 24  1  0
 24 25  1  0
 24 26  2  0
 19  4  1  0
 26 20  1  0
 17 12  1  0
  3 27  1  0
  5 28  1  0
  6 29  1  0
 11 30  1  0
 13 31  1  0
 14 32  1  0
 15 33  1  0
 16 34  1  0
 18 35  1  0
 19 36  1  0
 21 37  1  0
 22 38  1  0
 23 39  1  0
 26 40  1  0
M  END
$$$$
