
     RDKit          3D

 54 57  0  0  0  0  0  0  0  0999 V2000
    5.6083    1.3668    4.0427 C   0  0  0  0  0  0  0  0  0  0  0  0
    4.5937    0.4757    3.3445 C   0  0  0  0  0  0  0  0  0  0  0  0
    3.8217    1.2141    2.2618 C   0  0  0  0  0  0  0  0  0  0  0  0
    3.9468    2.4269    2.0939 O   0  0  0  0  0  0  0  0  0  0  0  0
    2.9675    0.4522    1.4784 N   0  0  0  0  0  0  0  0  0  0  0  0
    2.7481   -0.9927    1.6265 C   0  0  0  0  0  0  0  0  0  0  0  0
    1.3774   -1.4520    1.0953 C   0  0  0  0  0  0  0  0  0  0  0  0
    1.0985   -0.9975   -0.2885 N   0  0  0  0  0  0  0  0  0  0  0  0
    1.0283   -2.0333   -1.2552 C   0  0  0  0  0  0  0  0  0  0  0  0
    2.0657   -2.9566   -1.4454 C   0  0  0  0  0  0  0  0  0  0  0  0
    1.9602   -3.9443   -2.4260 C   0  0  0  0  0  0  0  0  0  0  0  0
    0.8184   -4.0135   -3.2227 C   0  0  0  0  0  0  0  0  0  0  0  0
    0.7026   -5.2400   -4.4261 Cl  0  0  0  0  0  0  0  0  0  0  0  0
   -0.2258   -3.1055   -3.0554 C   0  0  0  0  0  0  0  0  0  0  0  0
   -0.1251   -2.1161   -2.0774 C   0  0  0  0  0  0  0  0  0  0  0  0
   -1.1292   -1.1610   -1.8113 N   0  0  0  0  0  0  0  0  0  0  0  0
   -2.3146   -0.9544   -2.4798 C   0  0  0  0  0  0  0  0  0  0  0  0
   -2.6943   -1.5414   -3.4860 O   0  0  0  0  0  0  0  0  0  0  0  0
   -3.1751    0.1265   -1.9176 C   0  0  0  0  0  0  0  0  0  0  0  0
   -3.9947    0.8510   -2.7954 C   0  0  0  0  0  0  0  0  0  0  0  0
   -4.8070    1.8801   -2.3138 C   0  0  0  0  0  0  0  0  0  0  0  0
   -4.8076    2.1826   -0.9543 C   0  0  0  0  0  0  0  0  0  0  0  0
   -4.0253    1.4328   -0.0692 C   0  0  0  0  0  0  0  0  0  0  0  0
   -3.2023    0.4130   -0.5463 C   0  0  0  0  0  0  0  0  0  0  0  0
   -4.0115    1.6466    1.2861 O   0  0  0  0  0  0  0  0  0  0  0  0
   -5.1225    2.4527    1.6979 C   0  0  0  0  0  0  0  0  0  0  0  0
   -5.2891    3.6481    0.7743 C   0  0  0  0  0  0  0  0  0  0  0  0
   -5.6101    3.2196   -0.5541 O   0  0  0  0  0  0  0  0  0  0  0  0
    1.9330    0.1339   -0.7693 C   0  0  0  0  0  0  0  0  0  0  0  0
    2.2526    1.1076    0.3760 C   0  0  0  0  0  0  0  0  0  0  0  0
    5.1177    2.2159    4.5300 H   0  0  0  0  0  0  0  0  0  0  0  0
    6.3384    1.7641    3.3297 H   0  0  0  0  0  0  0  0  0  0  0  0
    6.1492    0.8010    4.8075 H   0  0  0  0  0  0  0  0  0  0  0  0
    5.1186   -0.3729    2.8933 H   0  0  0  0  0  0  0  0  0  0  0  0
    3.8818    0.1031    4.0884 H   0  0  0  0  0  0  0  0  0  0  0  0
    3.5542   -1.4883    1.0737 H   0  0  0  0  0  0  0  0  0  0  0  0
    2.8419   -1.2823    2.6765 H   0  0  0  0  0  0  0  0  0  0  0  0
    0.5982   -1.0131    1.7313 H   0  0  0  0  0  0  0  0  0  0  0  0
    1.2794   -2.5394    1.2029 H   0  0  0  0  0  0  0  0  0  0  0  0
    2.9690   -2.9090   -0.8457 H   0  0  0  0  0  0  0  0  0  0  0  0
    2.7712   -4.6540   -2.5672 H   0  0  0  0  0  0  0  0  0  0  0  0
   -1.1036   -3.1891   -3.6870 H   0  0  0  0  0  0  0  0  0  0  0  0
   -0.8658   -0.5409   -1.0504 H   0  0  0  0  0  0  0  0  0  0  0  0
   -3.9951    0.6190   -3.8592 H   0  0  0  0  0  0  0  0  0  0  0  0
   -5.4303    2.4482   -2.9994 H   0  0  0  0  0  0  0  0  0  0  0  0
   -2.6216   -0.1666    0.1649 H   0  0  0  0  0  0  0  0  0  0  0  0
   -4.9267    2.7889    2.7209 H   0  0  0  0  0  0  0  0  0  0  0  0
   -6.0226    1.8255    1.7103 H   0  0  0  0  0  0  0  0  0  0  0  0
   -6.1072    4.2857    1.1238 H   0  0  0  0  0  0  0  0  0  0  0  0
   -4.3758    4.2546    0.7338 H   0  0  0  0  0  0  0  0  0  0  0  0
    1.3952    0.6712   -1.5595 H   0  0  0  0  0  0  0  0  0  0  0  0
    2.8782   -0.2313   -1.1930 H   0  0  0  0  0  0  0  0  0  0  0  0
    1.3253    1.5141    0.7975 H   0  0  0  0  0  0  0  0  0  0  0  0
    2.8417    1.9477   -0.0070 H   0  0  0  0  0  0  0  0  0  0  0  0
  1  2  1  0
  2  3  1  0
  3  4  2  0
  3  5  1  0
  5  6  1  0
  6  7  1  0
  7  8  1  0
  8  9  1  0
  9 10  2  0
 10 11  1  0
 11 12  2  0
 12 13  1  0
 12 14  1  0
 14 15  2  0
 15 16  1  0
 16 17  1  0
 17 18  2  0
 17 19  1  0
 19 20  2  0
 20 21  1  0
 21 22  2  0
 22 23  1  0
 23 24  2  0
 23 25  1  0
 25 26  1  0
 26 27  1  0
 27 28  1  0
  8 29  1  0
 29 30  1  0
 30  5  1  0
 15  9  1  0
 24 19  1  0
 28 22  1  0
  1 31  1  0
  1 32  1  0
  1 33  1  0
  2 34  1  0
  2 35  1  0
  6 36  1  0
  6 37  1  0
  7 38  1  0
  7 39  1  0
 10 40  1  0
 11 41  1  0
 14 42  1  0
 16 43  1  0
 20 44  1  0
 21 45  1  0
 24 46  1  0
 26 47  1  0
 26 48  1  0
 27 49  1  0
 27 50  1  0
 29 51  1  0
 29 52  1  0
 30 53  1  0
 30 54  1  0
M  END
$$$$
