
     RDKit          3D

 38 39  0  0  0  0  0  0  0  0999 V2000
    0.1445    1.8780    0.7417 C   0  0  0  0  0  0  0  0  0  0  0  0
   -0.3050    0.4933    0.6817 N   0  0  0  0  0  0  0  0  0  0  0  0
   -1.7446    0.2575    0.8205 C   0  0  0  0  0  0  0  0  0  0  0  0
   -2.4621    0.2705   -0.5290 C   0  0  0  0  0  0  0  0  0  0  0  0
   -3.9311   -0.0062   -0.3578 C   0  0  0  0  0  0  0  0  0  0  0  0
   -4.4082   -1.3151   -0.3658 C   0  0  0  0  0  0  0  0  0  0  0  0
   -5.7703   -1.5338   -0.1821 C   0  0  0  0  0  0  0  0  0  0  0  0
   -6.6147   -0.4470    0.0072 C   0  0  0  0  0  0  0  0  0  0  0  0
   -6.0578    0.8205    0.0083 C   0  0  0  0  0  0  0  0  0  0  0  0
   -4.7397    1.0643   -0.1647 N   0  0  0  0  0  0  0  0  0  0  0  0
    0.4943   -0.5930    0.3286 C   0  0  0  0  0  0  0  0  0  0  0  0
    0.0858   -1.7514    0.2880 O   0  0  0  0  0  0  0  0  0  0  0  0
    1.9078   -0.3605   -0.0301 C   0  0  0  0  0  0  0  0  0  0  0  0
    2.2406    0.3742   -1.1695 C   0  0  0  0  0  0  0  0  0  0  0  0
    3.5852    0.5528   -1.5013 C   0  0  0  0  0  0  0  0  0  0  0  0
    4.5992   -0.0086   -0.7141 C   0  0  0  0  0  0  0  0  0  0  0  0
    5.8636    0.2495   -1.1610 O   0  0  0  0  0  0  0  0  0  0  0  0
    6.9495   -0.2739   -0.4154 C   0  0  0  0  0  0  0  0  0  0  0  0
    6.9509    0.2080    0.8459 F   0  0  0  0  0  0  0  0  0  0  0  0
    6.9142   -1.6228   -0.3837 F   0  0  0  0  0  0  0  0  0  0  0  0
    8.1035    0.1028   -1.0093 F   0  0  0  0  0  0  0  0  0  0  0  0
    4.2537   -0.7628    0.4105 C   0  0  0  0  0  0  0  0  0  0  0  0
    2.9082   -0.9453    0.7488 C   0  0  0  0  0  0  0  0  0  0  0  0
   -0.1194    2.3744   -0.1961 H   0  0  0  0  0  0  0  0  0  0  0  0
    1.2224    1.9473    0.9014 H   0  0  0  0  0  0  0  0  0  0  0  0
   -0.3522    2.3831    1.5752 H   0  0  0  0  0  0  0  0  0  0  0  0
   -2.1631    1.0109    1.4989 H   0  0  0  0  0  0  0  0  0  0  0  0
   -1.8911   -0.7140    1.3094 H   0  0  0  0  0  0  0  0  0  0  0  0
   -2.3341    1.2477   -1.0111 H   0  0  0  0  0  0  0  0  0  0  0  0
   -2.0226   -0.4637   -1.2151 H   0  0  0  0  0  0  0  0  0  0  0  0
   -3.7320   -2.1530   -0.5090 H   0  0  0  0  0  0  0  0  0  0  0  0
   -6.1672   -2.5449   -0.1852 H   0  0  0  0  0  0  0  0  0  0  0  0
   -7.6801   -0.5838    0.1522 H   0  0  0  0  0  0  0  0  0  0  0  0
   -6.6756    1.7021    0.1535 H   0  0  0  0  0  0  0  0  0  0  0  0
    1.4639    0.7957   -1.8015 H   0  0  0  0  0  0  0  0  0  0  0  0
    3.8445    1.1277   -2.3883 H   0  0  0  0  0  0  0  0  0  0  0  0
    4.9983   -1.2330    1.0469 H   0  0  0  0  0  0  0  0  0  0  0  0
    2.6406   -1.5474    1.6145 H   0  0  0  0  0  0  0  0  0  0  0  0
  1  2  1  0
  2  3  1  0
  3  4  1  0
  4  5  1  0
  5  6  2  0
  6  7  1  0
  7  8  2  0
  8  9  1  0
  9 10  2  0
  2 11  1  0
 11 12  2  0
 11 13  1  0
 13 14  2  0
 14 15  1  0
 15 16  2  0
 16 17  1  0
 17 18  1  0
 18 19  1  0
 18 20  1  0
 18 21  1  0
 16 22  1  0
 22 23  2  0
 10  5  1  0
 23 13  1  0
  1 24  1  0
  1 25  1  0
  1 26  1  0
  3 27  1  0
  3 28  1  0
  4 29  1  0
  4 30  1  0
  6 31  1  0
  7 32  1  0
  8 33  1  0
  9 34  1  0
 14 35  1  0
 15 36  1  0
 22 37  1  0
 23 38  1  0
M  END
$$$$
