
     RDKit          3D

 61 67  0  0  0  0  0  0  0  0999 V2000
    3.1217    2.2605    2.2103 O   0  0  0  0  0  0  0  0  0  0  0  0
    3.1191    1.3669    1.3669 C   0  0  0  0  0  0  0  0  0  0  0  0
    4.3874    1.0862    0.6554 C   0  0  0  0  0  0  0  0  0  0  0  0
    5.0936    2.1679    0.0878 C   0  0  0  0  0  0  0  0  0  0  0  0
    6.3045    1.9506   -0.5759 C   0  0  0  0  0  0  0  0  0  0  0  0
    6.7769    0.6564   -0.6353 C   0  0  0  0  0  0  0  0  0  0  0  0
    6.0972   -0.3941   -0.0610 C   0  0  0  0  0  0  0  0  0  0  0  0
    4.9021   -0.2152    0.6010 C   0  0  0  0  0  0  0  0  0  0  0  0
    6.7423   -1.5800   -0.2253 O   0  0  0  0  0  0  0  0  0  0  0  0
    7.9132   -1.1551   -0.9548 C   0  0  0  0  0  0  0  0  0  0  0  0
    7.9319    0.2604   -1.2334 O   0  0  0  0  0  0  0  0  0  0  0  0
    1.9838    0.6173    1.0529 N   0  0  0  0  0  0  0  0  0  0  0  0
    1.8319   -0.1540   -0.1800 C   0  0  0  0  0  0  0  0  0  0  0  0
    0.3856   -0.1479   -0.6680 C   0  0  0  0  0  0  0  0  0  0  0  0
   -0.5595   -0.7958    0.3767 C   0  0  0  0  0  0  0  0  0  0  0  0
   -0.1547   -0.3648    1.8199 C   0  0  0  0  0  0  0  0  0  0  0  0
    0.7905    0.8312    1.8608 C   0  0  0  0  0  0  0  0  0  0  0  0
   -0.3041   -2.2321    0.3706 O   0  0  0  0  0  0  0  0  0  0  0  0
   -0.9208   -2.9909   -0.5802 C   0  0  0  0  0  0  0  0  0  0  0  0
   -0.4732   -4.3062   -0.7009 C   0  0  0  0  0  0  0  0  0  0  0  0
   -1.0258   -5.1486   -1.6692 C   0  0  0  0  0  0  0  0  0  0  0  0
   -2.0278   -4.6722   -2.5152 C   0  0  0  0  0  0  0  0  0  0  0  0
   -2.6973   -5.7098   -3.7119 Cl  0  0  0  0  0  0  0  0  0  0  0  0
   -2.4895   -3.3644   -2.3957 C   0  0  0  0  0  0  0  0  0  0  0  0
   -1.9367   -2.5354   -1.4149 C   0  0  0  0  0  0  0  0  0  0  0  0
   -2.4124   -1.1564   -1.2460 C   0  0  0  0  0  0  0  0  0  0  0  0
   -3.0325   -0.6074   -2.1523 O   0  0  0  0  0  0  0  0  0  0  0  0
   -2.0575   -0.4978    0.0810 C   0  0  0  0  0  0  0  0  0  0  0  0
   -2.4471    0.9716    0.0999 C   0  0  0  0  0  0  0  0  0  0  0  0
   -3.7974    0.8417    0.7205 C   0  0  0  0  0  0  0  0  0  0  0  0
   -4.7755    1.9547    0.7202 C   0  0  0  0  0  0  0  0  0  0  0  0
   -6.0525    1.7339    1.2516 C   0  0  0  0  0  0  0  0  0  0  0  0
   -6.9954    2.7632    1.2702 C   0  0  0  0  0  0  0  0  0  0  0  0
   -6.6674    4.0177    0.7600 C   0  0  0  0  0  0  0  0  0  0  0  0
   -5.3972    4.2450    0.2318 C   0  0  0  0  0  0  0  0  0  0  0  0
   -4.4502    3.2172    0.2113 C   0  0  0  0  0  0  0  0  0  0  0  0
   -4.0243   -0.3019    1.2855 N   0  0  0  0  0  0  0  0  0  0  0  0
   -2.8845   -1.1103    1.0858 O   0  0  0  0  0  0  0  0  0  0  0  0
    4.6956    3.1775    0.1723 H   0  0  0  0  0  0  0  0  0  0  0  0
    6.8584    2.7703   -1.0199 H   0  0  0  0  0  0  0  0  0  0  0  0
    4.3969   -1.0499    1.0721 H   0  0  0  0  0  0  0  0  0  0  0  0
    7.9503   -1.6999   -1.9050 H   0  0  0  0  0  0  0  0  0  0  0  0
    8.8036   -1.4095   -0.3681 H   0  0  0  0  0  0  0  0  0  0  0  0
    2.1636   -1.1776    0.0249 H   0  0  0  0  0  0  0  0  0  0  0  0
    2.4767    0.2626   -0.9605 H   0  0  0  0  0  0  0  0  0  0  0  0
    0.3480   -0.6856   -1.6222 H   0  0  0  0  0  0  0  0  0  0  0  0
    0.0860    0.8875   -0.8703 H   0  0  0  0  0  0  0  0  0  0  0  0
    0.3408   -1.2018    2.3316 H   0  0  0  0  0  0  0  0  0  0  0  0
   -1.0339   -0.1323    2.4312 H   0  0  0  0  0  0  0  0  0  0  0  0
    1.0827    1.0320    2.8981 H   0  0  0  0  0  0  0  0  0  0  0  0
    0.3009    1.7373    1.4875 H   0  0  0  0  0  0  0  0  0  0  0  0
    0.3108   -4.6771   -0.0446 H   0  0  0  0  0  0  0  0  0  0  0  0
   -0.6700   -6.1722   -1.7591 H   0  0  0  0  0  0  0  0  0  0  0  0
   -3.2770   -2.9944   -3.0479 H   0  0  0  0  0  0  0  0  0  0  0  0
   -2.4739    1.4406   -0.8859 H   0  0  0  0  0  0  0  0  0  0  0  0
   -1.8331    1.5742    0.7729 H   0  0  0  0  0  0  0  0  0  0  0  0
   -6.3228    0.7589    1.6527 H   0  0  0  0  0  0  0  0  0  0  0  0
   -7.9853    2.5837    1.6825 H   0  0  0  0  0  0  0  0  0  0  0  0
   -7.4026    4.8187    0.7740 H   0  0  0  0  0  0  0  0  0  0  0  0
   -5.1443    5.2253   -0.1651 H   0  0  0  0  0  0  0  0  0  0  0  0
   -3.4701    3.4297   -0.2035 H   0  0  0  0  0  0  0  0  0  0  0  0
  1  2  2  0
  2  3  1  0
  3  4  2  0
  4  5  1  0
  5  6  2  0
  6  7  1  0
  7  8  2  0
  7  9  1  0
  9 10  1  0
 10 11  1  0
  2 12  1  0
 12 13  1  0
 13 14  1  0
 14 15  1  0
 15 16  1  0
 16 17  1  0
 15 18  1  0
 18 19  1  0
 19 20  2  0
 20 21  1  0
 21 22  2  0
 22 23  1  0
 22 24  1  0
 24 25  2  0
 25 26  1  0
 26 27  2  0
 26 28  1  0
 28 29  1  0
 29 30  1  0
 30 31  1  0
 31 32  2  0
 32 33  1  0
 33 34  2  0
 34 35  1  0
 35 36  2  0
 30 37  2  0
 37 38  1  0
  8  3  1  0
 17 12  1  0
 25 19  1  0
 38 28  1  0
 11  6  1  0
 28 15  1  0
 36 31  1  0
  4 39  1  0
  5 40  1  0
  8 41  1  0
 10 42  1  0
 10 43  1  0
 13 44  1  0
 13 45  1  0
 14 46  1  0
 14 47  1  0
 16 48  1  0
 16 49  1  0
 17 50  1  0
 17 51  1  0
 20 52  1  0
 21 53  1  0
 24 54  1  0
 29 55  1  0
 29 56  1  0
 32 57  1  0
 33 58  1  0
 34 59  1  0
 35 60  1  0
 36 61  1  0
M  END
$$$$
