
     RDKit          3D

 55 58  0  0  0  0  0  0  0  0999 V2000
    4.8418   -4.4648   -1.8767 O   0  0  0  0  0  0  0  0  0  0  0  0
    4.8971   -3.0669   -2.1551 C   0  0  0  0  0  0  0  0  0  0  0  0
    4.7005   -2.2787   -0.8523 C   0  0  0  0  0  0  0  0  0  0  0  0
    4.8293   -0.8201   -1.0197 N   0  0  0  0  0  0  0  0  0  0  0  0
    3.6954   -0.2187   -1.7527 C   0  0  0  0  0  0  0  0  0  0  0  0
    2.3603   -0.1573   -0.9694 C   0  0  0  0  0  0  0  0  0  0  0  0
    2.4979    0.5169    0.3375 N   0  0  0  0  0  0  0  0  0  0  0  0
    1.2549    0.4703    1.1287 C   0  0  0  0  0  0  0  0  0  0  0  0
    0.1106    1.3027    0.5163 C   0  0  0  0  0  0  0  0  0  0  0  0
   -1.0800    1.3714    1.4439 C   0  0  0  0  0  0  0  0  0  0  0  0
   -2.3770    1.0732    1.1988 C   0  0  0  0  0  0  0  0  0  0  0  0
   -3.3060    1.0403    2.3649 C   0  0  0  0  0  0  0  0  0  0  0  0
   -3.3497    2.0733    3.3149 C   0  0  0  0  0  0  0  0  0  0  0  0
   -4.2339    2.0086    4.3936 C   0  0  0  0  0  0  0  0  0  0  0  0
   -5.0872    0.9170    4.5324 C   0  0  0  0  0  0  0  0  0  0  0  0
   -5.0713   -0.1057    3.5833 C   0  0  0  0  0  0  0  0  0  0  0  0
   -4.1945   -0.0460    2.4923 C   0  0  0  0  0  0  0  0  0  0  0  0
   -4.2409   -1.3788    1.2916 S   0  0  0  0  0  0  0  0  0  0  0  0
   -3.7121   -0.5128   -0.1859 C   0  0  0  0  0  0  0  0  0  0  0  0
   -4.1863   -0.9642   -1.4237 C   0  0  0  0  0  0  0  0  0  0  0  0
   -3.8506   -0.2895   -2.5997 C   0  0  0  0  0  0  0  0  0  0  0  0
   -3.0444    0.8554   -2.5552 C   0  0  0  0  0  0  0  0  0  0  0  0
   -2.6941    1.6164   -3.8106 C   0  0  0  0  0  0  0  0  0  0  0  0
   -3.0480    0.9688   -4.9557 F   0  0  0  0  0  0  0  0  0  0  0  0
   -3.2994    2.8344   -3.8666 F   0  0  0  0  0  0  0  0  0  0  0  0
   -1.3574    1.8563   -3.9182 F   0  0  0  0  0  0  0  0  0  0  0  0
   -2.5717    1.3049   -1.3102 C   0  0  0  0  0  0  0  0  0  0  0  0
   -2.8627    0.6079   -0.1267 C   0  0  0  0  0  0  0  0  0  0  0  0
    3.6099   -0.0906    1.0993 C   0  0  0  0  0  0  0  0  0  0  0  0
    4.9293   -0.1437    0.2931 C   0  0  0  0  0  0  0  0  0  0  0  0
    5.0217   -4.9238   -2.7149 H   0  0  0  0  0  0  0  0  0  0  0  0
    5.8731   -2.8425   -2.5981 H   0  0  0  0  0  0  0  0  0  0  0  0
    4.1144   -2.8430   -2.8845 H   0  0  0  0  0  0  0  0  0  0  0  0
    5.4725   -2.6314   -0.1547 H   0  0  0  0  0  0  0  0  0  0  0  0
    3.7463   -2.5669   -0.3946 H   0  0  0  0  0  0  0  0  0  0  0  0
    3.9812    0.8069   -2.0239 H   0  0  0  0  0  0  0  0  0  0  0  0
    3.5338   -0.7270   -2.7086 H   0  0  0  0  0  0  0  0  0  0  0  0
    1.9643   -1.1732   -0.8408 H   0  0  0  0  0  0  0  0  0  0  0  0
    1.6476    0.3909   -1.5965 H   0  0  0  0  0  0  0  0  0  0  0  0
    0.9246   -0.5669    1.2725 H   0  0  0  0  0  0  0  0  0  0  0  0
    1.4654    0.8748    2.1274 H   0  0  0  0  0  0  0  0  0  0  0  0
   -0.1609    0.8671   -0.4468 H   0  0  0  0  0  0  0  0  0  0  0  0
    0.4582    2.3265    0.3304 H   0  0  0  0  0  0  0  0  0  0  0  0
   -0.7981    1.6600    2.4570 H   0  0  0  0  0  0  0  0  0  0  0  0
   -2.7030    2.9422    3.2171 H   0  0  0  0  0  0  0  0  0  0  0  0
   -4.2581    2.8135    5.1239 H   0  0  0  0  0  0  0  0  0  0  0  0
   -5.7746    0.8659    5.3734 H   0  0  0  0  0  0  0  0  0  0  0  0
   -5.7541   -0.9451    3.6961 H   0  0  0  0  0  0  0  0  0  0  0  0
   -4.8323   -1.8380   -1.4794 H   0  0  0  0  0  0  0  0  0  0  0  0
   -4.2354   -0.6561   -3.5505 H   0  0  0  0  0  0  0  0  0  0  0  0
   -1.9696    2.2129   -1.2687 H   0  0  0  0  0  0  0  0  0  0  0  0
    3.3430   -1.1032    1.4289 H   0  0  0  0  0  0  0  0  0  0  0  0
    3.7933    0.5042    2.0025 H   0  0  0  0  0  0  0  0  0  0  0  0
    5.2744    0.8847    0.1187 H   0  0  0  0  0  0  0  0  0  0  0  0
    5.7126   -0.6127    0.9017 H   0  0  0  0  0  0  0  0  0  0  0  0
  1  2  1  0
  2  3  1  0
  3  4  1  0
  4  5  1  0
  5  6  1  0
  6  7  1  0
  7  8  1  0
  8  9  1  0
  9 10  1  0
 10 11  2  3
 11 12  1  0
 12 13  2  0
 13 14  1  0
 14 15  2  0
 15 16  1  0
 16 17  2  0
 17 18  1  0
 18 19  1  0
 19 20  2  0
 20 21  1  0
 21 22  2  0
 22 23  1  0
 23 24  1  0
 23 25  1  0
 23 26  1  0
 22 27  1  0
 27 28  2  0
  7 29  1  0
 29 30  1  0
 30  4  1  0
 28 11  1  0
 17 12  1  0
 28 19  1  0
  1 31  1  0
  2 32  1  0
  2 33  1  0
  3 34  1  0
  3 35  1  0
  5 36  1  0
  5 37  1  0
  6 38  1  0
  6 39  1  0
  8 40  1  0
  8 41  1  0
  9 42  1  0
  9 43  1  0
 10 44  1  0
 13 45  1  0
 14 46  1  0
 15 47  1  0
 16 48  1  0
 20 49  1  0
 21 50  1  0
 27 51  1  0
 29 52  1  0
 29 53  1  0
 30 54  1  0
 30 55  1  0
M  END
$$$$
