
     RDKit          3D

 51 55  0  0  0  0  0  0  0  0999 V2000
    4.5953    0.3770   -1.9938 F   0  0  0  0  0  0  0  0  0  0  0  0
    5.5840    0.2249   -1.0959 C   0  0  0  0  0  0  0  0  0  0  0  0
    6.8225   -0.2415   -1.5337 C   0  0  0  0  0  0  0  0  0  0  0  0
    7.8584   -0.4149   -0.6151 C   0  0  0  0  0  0  0  0  0  0  0  0
    7.6489   -0.1178    0.7339 C   0  0  0  0  0  0  0  0  0  0  0  0
    6.4017    0.3488    1.1689 C   0  0  0  0  0  0  0  0  0  0  0  0
    5.3533    0.5235    0.2535 C   0  0  0  0  0  0  0  0  0  0  0  0
    3.9959    1.0150    0.7002 C   0  0  0  0  0  0  0  0  0  0  0  0
    2.9525   -0.1155    0.7124 C   0  0  0  0  0  0  0  0  0  0  0  0
    1.6045    0.3418    1.1062 N   0  0  0  0  0  0  0  0  0  0  0  0
    1.0524    1.2978    0.1119 C   0  0  0  0  0  0  0  0  0  0  0  0
   -0.4881    1.3172    0.0385 C   0  0  0  0  0  0  0  0  0  0  0  0
   -1.0357   -0.0050   -0.3423 N   0  0  0  0  0  0  0  0  0  0  0  0
   -2.4148   -0.1547   -0.2167 C   0  0  0  0  0  0  0  0  0  0  0  0
   -2.9008   -0.9109    0.7348 N   0  0  0  0  0  0  0  0  0  0  0  0
   -4.2964   -1.0438    0.8953 C   0  0  0  0  0  0  0  0  0  0  0  0
   -4.7703   -1.8449    1.9356 C   0  0  0  0  0  0  0  0  0  0  0  0
   -6.1439   -2.0054    2.1427 C   0  0  0  0  0  0  0  0  0  0  0  0
   -7.0606   -1.3627    1.3078 C   0  0  0  0  0  0  0  0  0  0  0  0
   -6.6104   -0.5578    0.2610 C   0  0  0  0  0  0  0  0  0  0  0  0
   -5.2344   -0.4059    0.0665 C   0  0  0  0  0  0  0  0  0  0  0  0
   -4.6971    0.3818   -0.9644 N   0  0  0  0  0  0  0  0  0  0  0  0
   -5.3376    1.1041   -1.9456 C   0  0  0  0  0  0  0  0  0  0  0  0
   -4.3784    1.6758   -2.7551 C   0  0  0  0  0  0  0  0  0  0  0  0
   -3.1156    1.2934   -2.2424 C   0  0  0  0  0  0  0  0  0  0  0  0
   -3.3365    0.5121   -1.1216 C   0  0  0  0  0  0  0  0  0  0  0  0
   -0.1676   -1.1378    0.0425 C   0  0  0  0  0  0  0  0  0  0  0  0
    0.6799   -0.8083    1.2843 C   0  0  0  0  0  0  0  0  0  0  0  0
    6.9687   -0.4722   -2.5839 H   0  0  0  0  0  0  0  0  0  0  0  0
    8.8274   -0.7826   -0.9496 H   0  0  0  0  0  0  0  0  0  0  0  0
    8.4582   -0.2549    1.4487 H   0  0  0  0  0  0  0  0  0  0  0  0
    6.2571    0.5743    2.2254 H   0  0  0  0  0  0  0  0  0  0  0  0
    3.6941    1.8308    0.0315 H   0  0  0  0  0  0  0  0  0  0  0  0
    4.0710    1.4564    1.7037 H   0  0  0  0  0  0  0  0  0  0  0  0
    3.2984   -0.8698    1.4322 H   0  0  0  0  0  0  0  0  0  0  0  0
    2.9117   -0.6169   -0.2638 H   0  0  0  0  0  0  0  0  0  0  0  0
    1.4009    2.3058    0.3647 H   0  0  0  0  0  0  0  0  0  0  0  0
    1.4271    1.0651   -0.8950 H   0  0  0  0  0  0  0  0  0  0  0  0
   -0.8967    1.6236    1.0104 H   0  0  0  0  0  0  0  0  0  0  0  0
   -0.7924    2.0701   -0.6966 H   0  0  0  0  0  0  0  0  0  0  0  0
   -4.0603   -2.3463    2.5889 H   0  0  0  0  0  0  0  0  0  0  0  0
   -6.4966   -2.6323    2.9577 H   0  0  0  0  0  0  0  0  0  0  0  0
   -8.1278   -1.4895    1.4752 H   0  0  0  0  0  0  0  0  0  0  0  0
   -7.3402   -0.0680   -0.3752 H   0  0  0  0  0  0  0  0  0  0  0  0
   -6.4154    1.1499   -2.0089 H   0  0  0  0  0  0  0  0  0  0  0  0
   -4.5702    2.2910   -3.6264 H   0  0  0  0  0  0  0  0  0  0  0  0
   -2.1462    1.5504   -2.6501 H   0  0  0  0  0  0  0  0  0  0  0  0
    0.4894   -1.3623   -0.8021 H   0  0  0  0  0  0  0  0  0  0  0  0
   -0.7441   -2.0484    0.2199 H   0  0  0  0  0  0  0  0  0  0  0  0
    1.2211   -1.7043    1.6117 H   0  0  0  0  0  0  0  0  0  0  0  0
    0.0035   -0.5563    2.1116 H   0  0  0  0  0  0  0  0  0  0  0  0
  1  2  1  0
  2  3  2  0
  3  4  1  0
  4  5  2  0
  5  6  1  0
  6  7  2  0
  7  8  1  0
  8  9  1  0
  9 10  1  0
 10 11  1  0
 11 12  1  0
 12 13  1  0
 13 14  1  0
 14 15  2  0
 15 16  1  0
 16 17  2  0
 17 18  1  0
 18 19  2  0
 19 20  1  0
 20 21  2  0
 21 22  1  0
 22 23  1  0
 23 24  2  0
 24 25  1  0
 25 26  2  0
 13 27  1  0
 27 28  1  0
  7  2  1  0
 28 10  1  0
 26 14  1  0
 21 16  1  0
 26 22  1  0
  3 29  1  0
  4 30  1  0
  5 31  1  0
  6 32  1  0
  8 33  1  0
  8 34  1  0
  9 35  1  0
  9 36  1  0
 11 37  1  0
 11 38  1  0
 12 39  1  0
 12 40  1  0
 17 41  1  0
 18 42  1  0
 19 43  1  0
 20 44  1  0
 23 45  1  0
 24 46  1  0
 25 47  1  0
 27 48  1  0
 27 49  1  0
 28 50  1  0
 28 51  1  0
M  END
$$$$
