
     RDKit          3D

 53 54  0  0  0  0  0  0  0  0999 V2000
   -5.8441   -0.2196    2.0232 C   0  0  0  0  0  0  0  0  0  0  0  0
   -5.0179   -1.0309    1.0364 C   0  0  0  0  0  0  0  0  0  0  0  0
   -4.8940   -0.2832   -0.2444 N   0  0  0  0  0  0  0  0  0  0  0  0
   -6.1111   -0.3780   -1.1019 C   0  0  0  0  0  0  0  0  0  0  0  0
   -6.5884    1.0231   -1.4399 C   0  0  0  0  0  0  0  0  0  0  0  0
   -3.4350   -0.5437   -1.1028 S   0  0  0  0  0  6  0  0  0  0  0  0
   -3.4588    0.2566   -2.3071 O   0  0  0  0  0  0  0  0  0  0  0  0
   -3.2105   -1.9744   -1.1448 O   0  0  0  0  0  0  0  0  0  0  0  0
   -2.2125    0.1770   -0.0357 C   0  0  0  0  0  0  0  0  0  0  0  0
   -2.3927    1.4864    0.4211 C   0  0  0  0  0  0  0  0  0  0  0  0
   -1.4386    2.0572    1.2623 C   0  0  0  0  0  0  0  0  0  0  0  0
   -0.3087    1.3237    1.6352 C   0  0  0  0  0  0  0  0  0  0  0  0
   -0.1237    0.0126    1.1683 C   0  0  0  0  0  0  0  0  0  0  0  0
    1.1168   -0.7087    1.5629 C   0  0  0  0  0  0  0  0  0  0  0  0
    1.9596   -0.2558    2.3237 O   0  0  0  0  0  0  0  0  0  0  0  0
    1.1910   -1.9068    0.9295 O   0  0  0  0  0  0  0  0  0  0  0  0
    2.4109   -2.6228    1.1295 C   0  0  0  0  0  0  0  0  0  0  0  0
    3.5914   -1.9269    0.4509 C   0  0  0  0  0  0  0  0  0  0  0  0
    3.7680   -1.9372   -0.7669 O   0  0  0  0  0  0  0  0  0  0  0  0
    4.4140   -1.2203    1.3100 N   0  0  0  0  0  0  0  0  0  0  0  0
    5.4701   -0.3952    0.7582 C   0  0  0  0  0  0  0  0  0  0  0  0
    4.9196    0.8612    0.0750 C   0  0  0  0  0  0  0  0  0  0  0  0
    5.6692    1.2107   -1.1129 N   0  0  0  0  0  0  0  0  0  0  0  0
    5.3677    0.7941   -2.3880 C   0  0  0  0  0  0  0  0  0  0  0  0
    4.3189   -0.0415   -2.6459 O   0  0  0  0  0  0  0  0  0  0  0  0
    6.1794    1.2772   -3.3351 C   0  0  0  0  0  0  0  0  0  0  0  0
    7.4244    2.2807   -2.6556 S   0  0  0  0  0  0  0  0  0  0  0  0
    6.8000    2.0111   -1.0187 C   0  0  0  0  0  0  0  0  0  0  0  0
    7.3143    2.4621   -0.0051 O   0  0  0  0  0  0  0  0  0  0  0  0
   -1.0872   -0.5663    0.3323 C   0  0  0  0  0  0  0  0  0  0  0  0
   -5.8459   -0.7050    3.0057 H   0  0  0  0  0  0  0  0  0  0  0  0
   -5.4351    0.7923    2.1381 H   0  0  0  0  0  0  0  0  0  0  0  0
   -6.8821   -0.1292    1.6934 H   0  0  0  0  0  0  0  0  0  0  0  0
   -5.4725   -2.0152    0.8666 H   0  0  0  0  0  0  0  0  0  0  0  0
   -4.0357   -1.1973    1.4856 H   0  0  0  0  0  0  0  0  0  0  0  0
   -6.9132   -0.9201   -0.5900 H   0  0  0  0  0  0  0  0  0  0  0  0
   -5.9077   -0.9412   -2.0209 H   0  0  0  0  0  0  0  0  0  0  0  0
   -5.8241    1.5816   -1.9879 H   0  0  0  0  0  0  0  0  0  0  0  0
   -7.4874    0.9780   -2.0607 H   0  0  0  0  0  0  0  0  0  0  0  0
   -6.8266    1.5899   -0.5307 H   0  0  0  0  0  0  0  0  0  0  0  0
   -3.2666    2.0594    0.1174 H   0  0  0  0  0  0  0  0  0  0  0  0
   -1.5677    3.0767    1.6175 H   0  0  0  0  0  0  0  0  0  0  0  0
    0.4343    1.7866    2.2817 H   0  0  0  0  0  0  0  0  0  0  0  0
    2.5979   -2.7802    2.1992 H   0  0  0  0  0  0  0  0  0  0  0  0
    2.3013   -3.6152    0.6757 H   0  0  0  0  0  0  0  0  0  0  0  0
    3.9724   -0.9044    2.1737 H   0  0  0  0  0  0  0  0  0  0  0  0
    6.0350   -1.0150    0.0444 H   0  0  0  0  0  0  0  0  0  0  0  0
    6.1488   -0.1318    1.5800 H   0  0  0  0  0  0  0  0  0  0  0  0
    4.9717    1.6947    0.7858 H   0  0  0  0  0  0  0  0  0  0  0  0
    3.8641    0.7636   -0.1917 H   0  0  0  0  0  0  0  0  0  0  0  0
    4.2162   -0.6799   -1.9041 H   0  0  0  0  0  0  0  0  0  0  0  0
    6.0949    1.0685   -4.3914 H   0  0  0  0  0  0  0  0  0  0  0  0
   -0.9641   -1.5790   -0.0449 H   0  0  0  0  0  0  0  0  0  0  0  0
  1  2  1  0
  2  3  1  0
  3  4  1  0
  4  5  1  0
  3  6  1  0
  6  7  2  0
  6  8  2  0
  6  9  1  0
  9 10  2  0
 10 11  1  0
 11 12  2  0
 12 13  1  0
 13 14  1  0
 14 15  2  0
 14 16  1  0
 16 17  1  0
 17 18  1  0
 18 19  2  0
 18 20  1  0
 20 21  1  0
 21 22  1  0
 22 23  1  0
 23 24  1  0
 24 25  1  0
 24 26  2  0
 26 27  1  0
 27 28  1  0
 28 29  2  0
 13 30  2  0
 30  9  1  0
 28 23  1  0
  1 31  1  0
  1 32  1  0
  1 33  1  0
  2 34  1  0
  2 35  1  0
  4 36  1  0
  4 37  1  0
  5 38  1  0
  5 39  1  0
  5 40  1  0
 10 41  1  0
 11 42  1  0
 12 43  1  0
 17 44  1  0
 17 45  1  0
 20 46  1  0
 21 47  1  0
 21 48  1  0
 22 49  1  0
 22 50  1  0
 25 51  1  0
 26 52  1  0
 30 53  1  0
M  END
$$$$
