
     RDKit          3D

 39 39  0  0  0  0  0  0  0  0999 V2000
   -5.3254    2.3782    1.4627 C   0  0  0  0  0  0  0  0  0  0  0  0
   -4.2336    1.5673    0.8350 C   0  0  0  0  0  0  0  0  0  0  0  0
   -4.3548    0.4056    0.4744 O   0  0  0  0  0  0  0  0  0  0  0  0
   -3.0992    2.3129    0.7354 O   0  0  0  0  0  0  0  0  0  0  0  0
   -1.9649    1.6550    0.1406 C   0  0  0  0  0  0  0  0  0  0  0  0
   -1.2103    0.8567    1.1997 C   0  0  0  0  0  0  0  0  0  0  0  0
    0.1271    0.2488    0.7488 C   0  0  0  0  0  0  0  0  0  0  0  0
    1.0690    1.3186    0.3904 N   0  0  0  0  0  0  0  0  0  0  0  0
    2.5357    1.3783    1.1833 S   0  0  0  0  0  6  0  0  0  0  0  0
    3.3120    2.3765    0.4844 O   0  0  0  0  0  0  0  0  0  0  0  0
    2.2625    1.4797    2.5965 O   0  0  0  0  0  0  0  0  0  0  0  0
    3.1929   -0.0760    0.9041 O   0  0  0  0  0  0  0  0  0  0  0  0
    3.8548   -0.3129   -0.3357 C   0  0  0  0  0  0  0  0  0  0  0  0
    4.6287   -1.6396   -0.3214 C   0  0  0  0  0  0  0  0  0  0  0  0
    3.5434   -3.0183    0.0249 Cl  0  0  0  0  0  0  0  0  0  0  0  0
    5.3831   -1.9012   -1.9276 Cl  0  0  0  0  0  0  0  0  0  0  0  0
    5.9244   -1.5975    0.9139 Cl  0  0  0  0  0  0  0  0  0  0  0  0
   -0.0091   -0.7997   -0.3426 C   0  0  0  0  0  0  0  0  0  0  0  0
   -0.0404   -2.1581    0.0136 C   0  0  0  0  0  0  0  0  0  0  0  0
   -0.1484   -3.1530   -0.9600 C   0  0  0  0  0  0  0  0  0  0  0  0
   -0.2326   -2.8068   -2.3051 C   0  0  0  0  0  0  0  0  0  0  0  0
   -0.2165   -1.4658   -2.6773 C   0  0  0  0  0  0  0  0  0  0  0  0
   -0.1085   -0.4689   -1.7048 C   0  0  0  0  0  0  0  0  0  0  0  0
   -5.0324    2.6751    2.4728 H   0  0  0  0  0  0  0  0  0  0  0  0
   -6.2348    1.7738    1.5264 H   0  0  0  0  0  0  0  0  0  0  0  0
   -5.5348    3.2572    0.8480 H   0  0  0  0  0  0  0  0  0  0  0  0
   -2.2892    1.0328   -0.7001 H   0  0  0  0  0  0  0  0  0  0  0  0
   -1.3308    2.4476   -0.2694 H   0  0  0  0  0  0  0  0  0  0  0  0
   -1.8633    0.0587    1.5763 H   0  0  0  0  0  0  0  0  0  0  0  0
   -1.0319    1.5138    2.0621 H   0  0  0  0  0  0  0  0  0  0  0  0
    0.5221   -0.2646    1.6365 H   0  0  0  0  0  0  0  0  0  0  0  0
    1.1326    1.6075   -0.5799 H   0  0  0  0  0  0  0  0  0  0  0  0
    4.5529    0.5073   -0.5435 H   0  0  0  0  0  0  0  0  0  0  0  0
    3.1002   -0.3177   -1.1312 H   0  0  0  0  0  0  0  0  0  0  0  0
    0.0248   -2.4591    1.0582 H   0  0  0  0  0  0  0  0  0  0  0  0
   -0.1661   -4.1999   -0.6660 H   0  0  0  0  0  0  0  0  0  0  0  0
   -0.3204   -3.5826   -3.0615 H   0  0  0  0  0  0  0  0  0  0  0  0
   -0.2984   -1.1962   -3.7277 H   0  0  0  0  0  0  0  0  0  0  0  0
   -0.1203    0.5667   -2.0340 H   0  0  0  0  0  0  0  0  0  0  0  0
  1  2  1  0
  2  3  2  0
  2  4  1  0
  4  5  1  0
  5  6  1  0
  6  7  1  0
  7  8  1  0
  8  9  1  0
  9 10  2  0
  9 11  2  0
  9 12  1  0
 12 13  1  0
 13 14  1  0
 14 15  1  0
 14 16  1  0
 14 17  1  0
  7 18  1  0
 18 19  2  0
 19 20  1  0
 20 21  2  0
 21 22  1  0
 22 23  2  0
 23 18  1  0
  1 24  1  0
  1 25  1  0
  1 26  1  0
  5 27  1  0
  5 28  1  0
  6 29  1  0
  6 30  1  0
  7 31  1  0
  8 32  1  0
 13 33  1  0
 13 34  1  0
 19 35  1  0
 20 36  1  0
 21 37  1  0
 22 38  1  0
 23 39  1  0
M  END
$$$$
