
     RDKit          3D

 68 69  0  0  0  0  0  0  0  0999 V2000
   -1.9549    3.6760    1.8347 C   0  0  0  0  0  0  0  0  0  0  0  0
   -0.9672    3.9639    0.8534 O   0  0  0  0  0  0  0  0  0  0  0  0
   -0.2200    2.8082    0.4619 C   0  0  0  0  0  0  0  0  0  0  0  0
   -0.9321    2.0187   -0.6467 C   0  0  0  0  0  0  0  0  0  0  0  0
   -0.3131    0.7103   -0.9084 N   0  0  0  0  0  0  0  0  0  0  0  0
    0.8460    0.7044   -1.6720 C   0  0  0  0  0  0  0  0  0  0  0  0
    1.3876    1.7488   -2.0407 O   0  0  0  0  0  0  0  0  0  0  0  0
    1.4442   -0.6406   -2.0544 C   0  0  0  0  0  0  0  0  0  0  0  0
    2.7884   -0.4624   -2.7581 C   0  0  0  0  0  0  0  0  0  0  0  0
    3.8655   -0.0533   -1.7648 C   0  0  0  0  0  0  0  0  0  0  0  0
    3.8591   -0.4664   -0.6074 O   0  0  0  0  0  0  0  0  0  0  0  0
    4.8301    0.7475   -2.3277 N   0  0  0  0  0  0  0  0  0  0  0  0
    5.9247    1.2578   -1.6657 C   0  0  0  0  0  0  0  0  0  0  0  0
    6.3403    1.0621   -0.3304 C   0  0  0  0  0  0  0  0  0  0  0  0
    7.4834    1.8119   -0.2096 C   0  0  0  0  0  0  0  0  0  0  0  0
    8.4279    2.0803    0.8876 C   0  0  0  0  0  0  0  0  0  0  0  0
    7.7462    2.4147   -1.3982 O   0  0  0  0  0  0  0  0  0  0  0  0
    6.7705    2.0671   -2.3143 N   0  0  0  0  0  0  0  0  0  0  0  0
   -1.0495   -0.5029   -0.4906 C   0  0  0  0  0  0  0  0  0  0  0  0
   -2.2764   -0.7993   -1.4050 C   0  0  0  0  0  0  0  0  0  0  0  0
   -2.6669   -0.0253   -2.2749 O   0  0  0  0  0  0  0  0  0  0  0  0
   -2.8685   -2.0326   -1.1646 N   0  0  0  0  0  0  0  0  0  0  0  0
   -4.0837   -2.5227   -1.8349 C   0  0  0  0  0  0  0  0  0  0  0  0
   -4.3773   -3.9384   -1.3043 C   0  0  0  0  0  0  0  0  0  0  0  0
   -5.2843   -1.6211   -1.5108 C   0  0  0  0  0  0  0  0  0  0  0  0
   -3.8834   -2.6147   -3.3562 C   0  0  0  0  0  0  0  0  0  0  0  0
   -1.3636   -0.4896    1.0044 C   0  0  0  0  0  0  0  0  0  0  0  0
   -2.6223   -0.1358    1.5105 C   0  0  0  0  0  0  0  0  0  0  0  0
   -2.8525   -0.1206    2.8885 C   0  0  0  0  0  0  0  0  0  0  0  0
   -1.8349   -0.4422    3.7883 C   0  0  0  0  0  0  0  0  0  0  0  0
   -2.1977   -0.3811    5.1048 O   0  0  0  0  0  0  0  0  0  0  0  0
   -1.1807   -0.6390    6.0657 C   0  0  0  0  0  0  0  0  0  0  0  0
   -0.5766   -0.7836    3.2970 C   0  0  0  0  0  0  0  0  0  0  0  0
   -0.3428   -0.8047    1.9173 C   0  0  0  0  0  0  0  0  0  0  0  0
   -2.4458    4.6140    2.1071 H   0  0  0  0  0  0  0  0  0  0  0  0
   -2.7127    2.9938    1.4406 H   0  0  0  0  0  0  0  0  0  0  0  0
   -1.4942    3.2528    2.7330 H   0  0  0  0  0  0  0  0  0  0  0  0
   -0.0058    2.1833    1.3357 H   0  0  0  0  0  0  0  0  0  0  0  0
    0.7466    3.1662    0.0924 H   0  0  0  0  0  0  0  0  0  0  0  0
   -0.9099    2.6121   -1.5701 H   0  0  0  0  0  0  0  0  0  0  0  0
   -1.9945    1.8888   -0.4213 H   0  0  0  0  0  0  0  0  0  0  0  0
    1.5748   -1.2581   -1.1609 H   0  0  0  0  0  0  0  0  0  0  0  0
    0.7452   -1.1388   -2.7353 H   0  0  0  0  0  0  0  0  0  0  0  0
    2.7145    0.2642   -3.5752 H   0  0  0  0  0  0  0  0  0  0  0  0
    3.1025   -1.4188   -3.1926 H   0  0  0  0  0  0  0  0  0  0  0  0
    4.7298    1.0881   -3.2742 H   0  0  0  0  0  0  0  0  0  0  0  0
    5.8743    0.4690    0.4413 H   0  0  0  0  0  0  0  0  0  0  0  0
    9.4355    1.7530    0.6152 H   0  0  0  0  0  0  0  0  0  0  0  0
    8.4607    3.1507    1.1114 H   0  0  0  0  0  0  0  0  0  0  0  0
    8.1335    1.5517    1.7993 H   0  0  0  0  0  0  0  0  0  0  0  0
   -0.4107   -1.3778   -0.6477 H   0  0  0  0  0  0  0  0  0  0  0  0
   -2.6080   -2.5000   -0.3034 H   0  0  0  0  0  0  0  0  0  0  0  0
   -4.5343   -3.9297   -0.2192 H   0  0  0  0  0  0  0  0  0  0  0  0
   -3.5396   -4.6162   -1.5052 H   0  0  0  0  0  0  0  0  0  0  0  0
   -5.2742   -4.3624   -1.7687 H   0  0  0  0  0  0  0  0  0  0  0  0
   -5.4236   -1.5288   -0.4277 H   0  0  0  0  0  0  0  0  0  0  0  0
   -5.1546   -0.6096   -1.9092 H   0  0  0  0  0  0  0  0  0  0  0  0
   -6.2102   -2.0237   -1.9365 H   0  0  0  0  0  0  0  0  0  0  0  0
   -4.7472   -3.0857   -3.8388 H   0  0  0  0  0  0  0  0  0  0  0  0
   -2.9953   -3.2088   -3.6008 H   0  0  0  0  0  0  0  0  0  0  0  0
   -3.7551   -1.6306   -3.8172 H   0  0  0  0  0  0  0  0  0  0  0  0
   -3.4385    0.1461    0.8475 H   0  0  0  0  0  0  0  0  0  0  0  0
   -3.8344    0.1557    3.2669 H   0  0  0  0  0  0  0  0  0  0  0  0
   -0.3668    0.0896    5.9849 H   0  0  0  0  0  0  0  0  0  0  0  0
   -1.6259   -0.5323    7.0602 H   0  0  0  0  0  0  0  0  0  0  0  0
   -0.8051   -1.6641    5.9775 H   0  0  0  0  0  0  0  0  0  0  0  0
    0.2480   -1.0326    3.9569 H   0  0  0  0  0  0  0  0  0  0  0  0
    0.6553   -1.0567    1.5596 H   0  0  0  0  0  0  0  0  0  0  0  0
  1  2  1  0
  2  3  1  0
  3  4  1  0
  4  5  1  0
  5  6  1  0
  6  7  2  0
  6  8  1  0
  8  9  1  0
  9 10  1  0
 10 11  2  0
 10 12  1  0
 12 13  1  0
 13 14  1  0
 14 15  2  0
 15 16  1  0
 15 17  1  0
 17 18  1  0
  5 19  1  0
 19 20  1  0
 20 21  2  0
 20 22  1  0
 22 23  1  0
 23 24  1  0
 23 25  1  0
 23 26  1  0
 19 27  1  0
 27 28  2  0
 28 29  1  0
 29 30  2  0
 30 31  1  0
 31 32  1  0
 30 33  1  0
 33 34  2  0
 18 13  2  0
 34 27  1  0
  1 35  1  0
  1 36  1  0
  1 37  1  0
  3 38  1  0
  3 39  1  0
  4 40  1  0
  4 41  1  0
  8 42  1  0
  8 43  1  0
  9 44  1  0
  9 45  1  0
 12 46  1  0
 14 47  1  0
 16 48  1  0
 16 49  1  0
 16 50  1  0
 19 51  1  0
 22 52  1  0
 24 53  1  0
 24 54  1  0
 24 55  1  0
 25 56  1  0
 25 57  1  0
 25 58  1  0
 26 59  1  0
 26 60  1  0
 26 61  1  0
 28 62  1  0
 29 63  1  0
 32 64  1  0
 32 65  1  0
 32 66  1  0
 33 67  1  0
 34 68  1  0
M  END
$$$$
