
     RDKit          3D

 37 37  0  0  0  0  0  0  0  0999 V2000
   -2.5639   -3.9308    1.0608 C   0  0  0  0  0  0  0  0  0  0  0  0
   -2.4230   -2.5115    1.1221 O   0  0  0  0  0  0  0  0  0  0  0  0
   -1.6297   -1.9917    0.1436 C   0  0  0  0  0  0  0  0  0  0  0  0
   -1.1248   -2.6334   -0.7722 O   0  0  0  0  0  0  0  0  0  0  0  0
   -1.5145   -0.4707    0.2923 C   0  0  0  0  0  0  0  0  0  0  0  0
   -2.6843    0.1775   -0.4570 C   0  0  0  0  0  0  0  0  0  0  0  0
   -2.7813    1.6931   -0.2847 C   0  0  0  0  0  0  0  0  0  0  0  0
   -3.1337    2.2464    1.4169 S   0  0  0  0  0  0  0  0  0  0  0  0
   -4.8323    1.6474    1.5941 C   0  0  0  0  0  0  0  0  0  0  0  0
   -0.2285   -0.0519   -0.2748 N   0  0  0  0  0  0  0  0  0  0  0  0
    0.8959   -0.1331    0.5088 C   0  0  0  0  0  0  0  0  0  0  0  0
    0.8968   -0.4558    1.6873 O   0  0  0  0  0  0  0  0  0  0  0  0
    2.0149    0.1922   -0.2070 N   0  0  0  0  0  0  0  0  0  0  0  0
    3.2884    0.2543    0.4712 C   0  0  0  0  0  0  0  0  0  0  0  0
    4.3434    0.6059   -0.5268 C   0  0  0  0  0  0  0  0  0  0  0  0
    4.8219    1.8595   -0.8587 C   0  0  0  0  0  0  0  0  0  0  0  0
    5.8334    1.8066   -1.8608 C   0  0  0  0  0  0  0  0  0  0  0  0
    6.0949    0.5156   -2.2605 C   0  0  0  0  0  0  0  0  0  0  0  0
    5.1262   -0.6227   -1.4306 S   0  0  0  0  0  0  0  0  0  0  0  0
   -3.0707   -4.2242    0.1363 H   0  0  0  0  0  0  0  0  0  0  0  0
   -3.1785   -4.2472    1.9081 H   0  0  0  0  0  0  0  0  0  0  0  0
   -1.5874   -4.4189    1.1404 H   0  0  0  0  0  0  0  0  0  0  0  0
   -1.5283   -0.2293    1.3605 H   0  0  0  0  0  0  0  0  0  0  0  0
   -2.5793   -0.0317   -1.5308 H   0  0  0  0  0  0  0  0  0  0  0  0
   -3.6292   -0.2940   -0.1612 H   0  0  0  0  0  0  0  0  0  0  0  0
   -3.5640    2.0899   -0.9404 H   0  0  0  0  0  0  0  0  0  0  0  0
   -1.8446    2.1667   -0.5968 H   0  0  0  0  0  0  0  0  0  0  0  0
   -5.2457    2.0238    2.5337 H   0  0  0  0  0  0  0  0  0  0  0  0
   -4.8559    0.5556    1.6251 H   0  0  0  0  0  0  0  0  0  0  0  0
   -5.4556    2.0100    0.7728 H   0  0  0  0  0  0  0  0  0  0  0  0
   -0.0506   -0.3979   -1.2107 H   0  0  0  0  0  0  0  0  0  0  0  0
    1.8614    0.8594   -0.9482 H   0  0  0  0  0  0  0  0  0  0  0  0
    3.4835   -0.7065    0.9609 H   0  0  0  0  0  0  0  0  0  0  0  0
    3.2258    1.0199    1.2535 H   0  0  0  0  0  0  0  0  0  0  0  0
    4.4641    2.7744   -0.4010 H   0  0  0  0  0  0  0  0  0  0  0  0
    6.3450    2.6709   -2.2662 H   0  0  0  0  0  0  0  0  0  0  0  0
    6.8103    0.1824   -2.9999 H   0  0  0  0  0  0  0  0  0  0  0  0
  1  2  1  0
  2  3  1  0
  3  4  2  0
  3  5  1  0
  5  6  1  0
  6  7  1  0
  7  8  1  0
  8  9  1  0
  5 10  1  0
 10 11  1  0
 11 12  2  0
 11 13  1  0
 13 14  1  0
 14 15  1  0
 15 16  2  0
 16 17  1  0
 17 18  2  0
 18 19  1  0
 19 15  1  0
  1 20  1  0
  1 21  1  0
  1 22  1  0
  5 23  1  0
  6 24  1  0
  6 25  1  0
  7 26  1  0
  7 27  1  0
  9 28  1  0
  9 29  1  0
  9 30  1  0
 10 31  1  0
 13 32  1  0
 14 33  1  0
 14 34  1  0
 16 35  1  0
 17 36  1  0
 18 37  1  0
M  END
$$$$
