
     RDKit          3D

 31 32  0  0  0  0  0  0  0  0999 V2000
    3.0573   -2.6301   -1.0496 C   0  0  0  0  0  0  0  0  0  0  0  0
    2.7717   -1.7715    0.1742 C   0  0  0  0  0  0  0  0  0  0  0  0
    2.8093   -0.3440   -0.1319 N   0  0  0  0  0  0  0  0  0  0  0  0
    1.7760    0.5376   -0.2705 C   0  0  0  0  0  0  0  0  0  0  0  0
    0.3653    0.2003   -0.2467 C   0  0  0  0  0  0  0  0  0  0  0  0
   -0.2108   -0.9338   -0.7837 C   0  0  0  0  0  0  0  0  0  0  0  0
   -1.9060   -0.9948   -0.5754 S   0  0  0  0  0  0  0  0  0  0  0  0
   -1.9339    0.5315    0.1983 C   0  0  0  0  0  0  0  0  0  0  0  0
   -3.2207    1.1650    0.6794 C   0  0  0  0  0  0  0  0  0  0  0  0
   -4.1814    1.4614   -0.4731 C   0  0  0  0  0  0  0  0  0  0  0  0
   -3.9012    0.3304    1.7655 C   0  0  0  0  0  0  0  0  0  0  0  0
   -0.6589    1.0557    0.2937 C   0  0  0  0  0  0  0  0  0  0  0  0
    2.1393    1.7833   -0.4063 N   0  0  0  0  0  0  0  0  0  0  0  0
    3.5002    1.7416   -0.3760 N   0  0  0  0  0  0  0  0  0  0  0  0
    3.9387    0.4419   -0.1845 C   0  0  0  0  0  0  0  0  0  0  0  0
    5.5392    0.0359   -0.0393 S   0  0  0  0  0  0  0  0  0  0  0  0
    2.9583   -3.6907   -0.7985 H   0  0  0  0  0  0  0  0  0  0  0  0
    4.0725   -2.4674   -1.4237 H   0  0  0  0  0  0  0  0  0  0  0  0
    2.3700   -2.4045   -1.8698 H   0  0  0  0  0  0  0  0  0  0  0  0
    1.7994   -2.0324    0.6000 H   0  0  0  0  0  0  0  0  0  0  0  0
    3.5204   -1.9843    0.9451 H   0  0  0  0  0  0  0  0  0  0  0  0
    0.2655   -1.7460   -1.3102 H   0  0  0  0  0  0  0  0  0  0  0  0
   -2.9607    2.1307    1.1349 H   0  0  0  0  0  0  0  0  0  0  0  0
   -5.0530    2.0188   -0.1131 H   0  0  0  0  0  0  0  0  0  0  0  0
   -3.6932    2.0656   -1.2459 H   0  0  0  0  0  0  0  0  0  0  0  0
   -4.5476    0.5443   -0.9472 H   0  0  0  0  0  0  0  0  0  0  0  0
   -3.2126    0.1259    2.5929 H   0  0  0  0  0  0  0  0  0  0  0  0
   -4.2565   -0.6316    1.3804 H   0  0  0  0  0  0  0  0  0  0  0  0
   -4.7666    0.8634    2.1740 H   0  0  0  0  0  0  0  0  0  0  0  0
   -0.4510    2.0215    0.7423 H   0  0  0  0  0  0  0  0  0  0  0  0
    4.0711    2.5763   -0.4354 H   0  0  0  0  0  0  0  0  0  0  0  0
  1  2  1  0
  2  3  1  0
  3  4  1  0
  4  5  1  0
  5  6  2  0
  6  7  1  0
  7  8  1  0
  8  9  1  0
  9 10  1  0
  9 11  1  0
  8 12  2  0
  4 13  2  0
 13 14  1  0
 14 15  1  0
 15 16  2  0
 15  3  1  0
 12  5  1  0
  1 17  1  0
  1 18  1  0
  1 19  1  0
  2 20  1  0
  2 21  1  0
  6 22  1  0
  9 23  1  0
 10 24  1  0
 10 25  1  0
 10 26  1  0
 11 27  1  0
 11 28  1  0
 11 29  1  0
 12 30  1  0
 14 31  1  0
M  END
$$$$
