
     RDKit          3D

 43 46  0  0  0  0  0  0  0  0999 V2000
    2.1737   -1.5885   -0.4398 O   0  0  0  0  0  0  0  0  0  0  0  0
    2.3821   -1.6617    0.7710 C   0  0  0  0  0  0  0  0  0  0  0  0
    1.6263   -2.5995    1.6975 C   0  0  0  0  0  0  0  0  0  0  0  0
   -0.1108   -2.7863    1.1879 S   0  0  0  0  0  0  0  0  0  0  0  0
   -0.6291   -1.1401    1.2945 C   0  0  0  0  0  0  0  0  0  0  0  0
   -0.1052   -0.2293    2.0757 N   0  0  0  0  0  0  0  0  0  0  0  0
   -0.7685    0.9464    1.8402 N   0  0  0  0  0  0  0  0  0  0  0  0
   -1.6759    0.7413    0.9011 C   0  0  0  0  0  0  0  0  0  0  0  0
   -2.5839    1.7584    0.3886 C   0  0  0  0  0  0  0  0  0  0  0  0
   -2.7528    2.0051   -0.9753 C   0  0  0  0  0  0  0  0  0  0  0  0
   -3.6305    3.0028   -1.3967 C   0  0  0  0  0  0  0  0  0  0  0  0
   -4.3068    3.7358   -0.4359 C   0  0  0  0  0  0  0  0  0  0  0  0
   -4.1643    3.5385    0.8930 N   0  0  0  0  0  0  0  0  0  0  0  0
   -3.2972    2.5669    1.2719 C   0  0  0  0  0  0  0  0  0  0  0  0
   -1.6365   -0.5945    0.5485 N   0  0  0  0  0  0  0  0  0  0  0  0
   -2.5578   -1.2983   -0.3238 C   0  0  0  0  0  0  0  0  0  0  0  0
   -2.0710   -1.3815   -1.7243 C   0  0  0  0  0  0  0  0  0  0  0  0
   -0.8484   -1.2220   -2.3511 C   0  0  0  0  0  0  0  0  0  0  0  0
   -1.0713   -1.4446   -3.7311 C   0  0  0  0  0  0  0  0  0  0  0  0
   -2.4100   -1.7241   -3.8635 C   0  0  0  0  0  0  0  0  0  0  0  0
   -3.0248   -1.6865   -2.6545 O   0  0  0  0  0  0  0  0  0  0  0  0
    3.4463   -0.8025    1.3568 C   0  0  0  0  0  0  0  0  0  0  0  0
    4.1958   -1.2067    2.4666 C   0  0  0  0  0  0  0  0  0  0  0  0
    5.2007   -0.3722    2.9655 C   0  0  0  0  0  0  0  0  0  0  0  0
    5.4615    0.8617    2.3620 C   0  0  0  0  0  0  0  0  0  0  0  0
    6.7229    1.8309    3.0352 Cl  0  0  0  0  0  0  0  0  0  0  0  0
    4.7127    1.2646    1.2501 C   0  0  0  0  0  0  0  0  0  0  0  0
    4.9897    2.7684    0.4463 Cl  0  0  0  0  0  0  0  0  0  0  0  0
    3.7093    0.4318    0.7484 C   0  0  0  0  0  0  0  0  0  0  0  0
    2.1093   -3.5812    1.6649 H   0  0  0  0  0  0  0  0  0  0  0  0
    1.6451   -2.2365    2.7296 H   0  0  0  0  0  0  0  0  0  0  0  0
   -2.1904    1.4537   -1.7232 H   0  0  0  0  0  0  0  0  0  0  0  0
   -3.7627    3.2157   -2.4523 H   0  0  0  0  0  0  0  0  0  0  0  0
   -4.9947    4.5289   -0.7143 H   0  0  0  0  0  0  0  0  0  0  0  0
   -3.1899    2.4534    2.3478 H   0  0  0  0  0  0  0  0  0  0  0  0
   -3.5238   -0.7831   -0.2805 H   0  0  0  0  0  0  0  0  0  0  0  0
   -2.7257   -2.3018    0.0807 H   0  0  0  0  0  0  0  0  0  0  0  0
    0.0962   -0.9751   -1.8799 H   0  0  0  0  0  0  0  0  0  0  0  0
   -0.3395   -1.4094   -4.5281 H   0  0  0  0  0  0  0  0  0  0  0  0
   -3.0438   -1.9606   -4.7037 H   0  0  0  0  0  0  0  0  0  0  0  0
    4.0339   -2.1706    2.9457 H   0  0  0  0  0  0  0  0  0  0  0  0
    5.7864   -0.6934    3.8243 H   0  0  0  0  0  0  0  0  0  0  0  0
    3.1240    0.7458   -0.1152 H   0  0  0  0  0  0  0  0  0  0  0  0
  1  2  2  0
  2  3  1  0
  3  4  1  0
  4  5  1  0
  5  6  2  0
  6  7  1  0
  7  8  2  0
  8  9  1  0
  9 10  2  0
 10 11  1  0
 11 12  2  0
 12 13  1  0
 13 14  2  0
  8 15  1  0
 15 16  1  0
 16 17  1  0
 17 18  2  0
 18 19  1  0
 19 20  2  0
 20 21  1  0
  2 22  1  0
 22 23  2  0
 23 24  1  0
 24 25  2  0
 25 26  1  0
 25 27  1  0
 27 28  1  0
 27 29  2  0
 15  5  1  0
 21 17  1  0
 29 22  1  0
 14  9  1  0
  3 30  1  0
  3 31  1  0
 10 32  1  0
 11 33  1  0
 12 34  1  0
 14 35  1  0
 16 36  1  0
 16 37  1  0
 18 38  1  0
 19 39  1  0
 20 40  1  0
 23 41  1  0
 24 42  1  0
 29 43  1  0
M  END
$$$$
