
     RDKit          3D

 46 48  0  0  0  0  0  0  0  0999 V2000
   -3.3738    0.1243   -1.9276 O   0  0  0  0  0  0  0  0  0  0  0  0
   -2.9009   -0.2325   -0.8565 C   0  0  0  0  0  0  0  0  0  0  0  0
   -3.5561   -0.2967    0.3601 N   0  0  0  0  0  0  0  0  0  0  0  0
   -4.9225   -0.0357    0.6042 C   0  0  0  0  0  0  0  0  0  0  0  0
   -5.3538   -0.0798    1.9357 C   0  0  0  0  0  0  0  0  0  0  0  0
   -6.6904    0.1629    2.2478 C   0  0  0  0  0  0  0  0  0  0  0  0
   -7.0816    0.1175    3.5280 F   0  0  0  0  0  0  0  0  0  0  0  0
   -7.6182    0.4480    1.2601 C   0  0  0  0  0  0  0  0  0  0  0  0
   -7.1884    0.4871   -0.0572 C   0  0  0  0  0  0  0  0  0  0  0  0
   -8.0737    0.7569   -1.0258 F   0  0  0  0  0  0  0  0  0  0  0  0
   -5.8559    0.2484   -0.3950 C   0  0  0  0  0  0  0  0  0  0  0  0
   -1.4592   -0.6055   -0.8194 C   0  0  0  0  0  0  0  0  0  0  0  0
   -0.9825   -1.6268    0.0047 C   0  0  0  0  0  0  0  0  0  0  0  0
    0.3792   -1.9579   -0.0013 C   0  0  0  0  0  0  0  0  0  0  0  0
    1.3065   -1.2880   -0.8195 C   0  0  0  0  0  0  0  0  0  0  0  0
    2.6498   -1.6779   -0.8123 N   0  0  0  0  0  0  0  0  0  0  0  0
    3.3493   -1.9680    0.4440 C   0  0  0  0  0  0  0  0  0  0  0  0
    3.4863   -0.7411    1.3593 C   0  0  0  0  0  0  0  0  0  0  0  0
    4.2108    0.4220    0.7229 C   0  0  0  0  0  0  0  0  0  0  0  0
    5.5749    0.3325    0.4130 C   0  0  0  0  0  0  0  0  0  0  0  0
    6.2323    1.3999   -0.2006 C   0  0  0  0  0  0  0  0  0  0  0  0
    5.5349    2.5661   -0.5082 C   0  0  0  0  0  0  0  0  0  0  0  0
    4.1812    2.6696   -0.1964 C   0  0  0  0  0  0  0  0  0  0  0  0
    3.5229    1.6055    0.4209 C   0  0  0  0  0  0  0  0  0  0  0  0
    0.7907   -0.2810   -1.6692 C   0  0  0  0  0  0  0  0  0  0  0  0
    1.6683    0.4921   -2.5553 N   0  0  0  0  0  4  0  0  0  0  0  0
    2.6807   -0.0615   -3.0079 O   0  0  0  0  0  0  0  0  0  0  0  0
    1.3424    1.6647   -2.7943 O   0  0  0  0  0  1  0  0  0  0  0  0
   -0.5748    0.0602   -1.6702 C   0  0  0  0  0  0  0  0  0  0  0  0
   -2.9923   -0.4852    1.1790 H   0  0  0  0  0  0  0  0  0  0  0  0
   -4.6698   -0.2984    2.7497 H   0  0  0  0  0  0  0  0  0  0  0  0
   -8.6556    0.6351    1.5090 H   0  0  0  0  0  0  0  0  0  0  0  0
   -5.5908    0.2902   -1.4458 H   0  0  0  0  0  0  0  0  0  0  0  0
   -1.6573   -2.2106    0.6261 H   0  0  0  0  0  0  0  0  0  0  0  0
    0.7011   -2.7884    0.6233 H   0  0  0  0  0  0  0  0  0  0  0  0
    3.2361   -1.1237   -1.4486 H   0  0  0  0  0  0  0  0  0  0  0  0
    4.3459   -2.3443    0.1831 H   0  0  0  0  0  0  0  0  0  0  0  0
    2.8597   -2.7840    0.9863 H   0  0  0  0  0  0  0  0  0  0  0  0
    4.0313   -1.0305    2.2670 H   0  0  0  0  0  0  0  0  0  0  0  0
    2.4942   -0.4186    1.6990 H   0  0  0  0  0  0  0  0  0  0  0  0
    6.1369   -0.5698    0.6423 H   0  0  0  0  0  0  0  0  0  0  0  0
    7.2887    1.3204   -0.4441 H   0  0  0  0  0  0  0  0  0  0  0  0
    6.0454    3.3939   -0.9935 H   0  0  0  0  0  0  0  0  0  0  0  0
    3.6363    3.5782   -0.4407 H   0  0  0  0  0  0  0  0  0  0  0  0
    2.4659    1.7071    0.6551 H   0  0  0  0  0  0  0  0  0  0  0  0
   -0.9542    0.8398   -2.3308 H   0  0  0  0  0  0  0  0  0  0  0  0
  1  2  2  0
  2  3  1  0
  3  4  1  0
  4  5  2  0
  5  6  1  0
  6  7  1  0
  6  8  2  0
  8  9  1  0
  9 10  1  0
  9 11  2  0
  2 12  1  0
 12 13  2  0
 13 14  1  0
 14 15  2  0
 15 16  1  0
 16 17  1  0
 17 18  1  0
 18 19  1  0
 19 20  2  0
 20 21  1  0
 21 22  2  0
 22 23  1  0
 23 24  2  0
 15 25  1  0
 25 26  1  0
 26 27  2  0
 26 28  1  0
 25 29  2  0
 11  4  1  0
 29 12  1  0
 24 19  1  0
  3 30  1  0
  5 31  1  0
  8 32  1  0
 11 33  1  0
 13 34  1  0
 14 35  1  0
 16 36  1  0
 17 37  1  0
 17 38  1  0
 18 39  1  0
 18 40  1  0
 20 41  1  0
 21 42  1  0
 22 43  1  0
 23 44  1  0
 24 45  1  0
 29 46  1  0
M  CHG  2  26   1  28  -1
M  END
$$$$
