
     RDKit          3D

 44 46  0  0  0  0  0  0  0  0999 V2000
   -3.7592    0.0251    2.3915 C   0  0  0  0  0  0  0  0  0  0  0  0
   -2.6406   -0.6860    1.6896 C   0  0  0  0  0  0  0  0  0  0  0  0
   -2.9139   -1.5472    0.6275 C   0  0  0  0  0  0  0  0  0  0  0  0
   -1.8842   -2.2063   -0.0706 C   0  0  0  0  0  0  0  0  0  0  0  0
   -2.3098   -3.1453   -1.1694 C   0  0  0  0  0  0  0  0  0  0  0  0
   -0.5350   -1.9881    0.3197 C   0  0  0  0  0  0  0  0  0  0  0  0
    0.7890   -2.8246   -0.5852 S   0  0  0  0  0  6  0  0  0  0  0  0
    0.3445   -4.1713   -0.8823 O   0  0  0  0  0  0  0  0  0  0  0  0
    2.0620   -2.6247    0.0708 O   0  0  0  0  0  0  0  0  0  0  0  0
    0.8263   -2.0085   -2.0666 N   0  0  0  0  0  0  0  0  0  0  0  0
    0.9202   -0.5907   -2.0912 C   0  0  0  0  0  0  0  0  0  0  0  0
   -0.1620    0.1457   -2.5748 C   0  0  0  0  0  0  0  0  0  0  0  0
   -0.1085    1.5401   -2.5880 C   0  0  0  0  0  0  0  0  0  0  0  0
    1.0304    2.1925   -2.1146 C   0  0  0  0  0  0  0  0  0  0  0  0
    1.0819    3.5601   -2.1424 O   0  0  0  0  0  0  0  0  0  0  0  0
    2.1214    1.4624   -1.6207 C   0  0  0  0  0  0  0  0  0  0  0  0
    3.6011    2.2522   -1.0099 S   0  0  0  0  0  0  0  0  0  0  0  0
    3.0792    2.8552    0.5432 C   0  0  0  0  0  0  0  0  0  0  0  0
    1.9285    2.4660    1.1848 N   0  0  0  0  0  0  0  0  0  0  0  0
    1.9674    3.1451    2.3058 C   0  0  0  0  0  0  0  0  0  0  0  0
    3.0975    3.8960    2.3404 N   0  0  0  0  0  0  0  0  0  0  0  0
    3.8308    3.7233    1.2329 N   0  0  0  0  0  0  0  0  0  0  0  0
    2.0597    0.0624   -1.6239 C   0  0  0  0  0  0  0  0  0  0  0  0
   -0.2474   -1.1278    1.4083 C   0  0  0  0  0  0  0  0  0  0  0  0
    1.1330   -0.8574    1.9456 C   0  0  0  0  0  0  0  0  0  0  0  0
   -1.3131   -0.4806    2.0648 C   0  0  0  0  0  0  0  0  0  0  0  0
   -4.5717   -0.6725    2.6204 H   0  0  0  0  0  0  0  0  0  0  0  0
   -3.4248    0.4603    3.3392 H   0  0  0  0  0  0  0  0  0  0  0  0
   -4.1456    0.8307    1.7591 H   0  0  0  0  0  0  0  0  0  0  0  0
   -3.9525   -1.7119    0.3418 H   0  0  0  0  0  0  0  0  0  0  0  0
   -1.7494   -2.9704   -2.0897 H   0  0  0  0  0  0  0  0  0  0  0  0
   -2.1983   -4.1840   -0.8457 H   0  0  0  0  0  0  0  0  0  0  0  0
   -3.3647   -3.0003   -1.4299 H   0  0  0  0  0  0  0  0  0  0  0  0
    0.2701   -2.4714   -2.7810 H   0  0  0  0  0  0  0  0  0  0  0  0
   -1.0568   -0.3536   -2.9355 H   0  0  0  0  0  0  0  0  0  0  0  0
   -0.9582    2.0987   -2.9683 H   0  0  0  0  0  0  0  0  0  0  0  0
    0.2257    3.9089   -2.4352 H   0  0  0  0  0  0  0  0  0  0  0  0
    1.2355    3.1304    3.0999 H   0  0  0  0  0  0  0  0  0  0  0  0
    3.4291    4.5253    3.0624 H   0  0  0  0  0  0  0  0  0  0  0  0
    2.9037   -0.5178   -1.2571 H   0  0  0  0  0  0  0  0  0  0  0  0
    1.1098   -0.1352    2.7699 H   0  0  0  0  0  0  0  0  0  0  0  0
    1.5704   -1.7743    2.3517 H   0  0  0  0  0  0  0  0  0  0  0  0
    1.7778   -0.4244    1.1791 H   0  0  0  0  0  0  0  0  0  0  0  0
   -1.0995    0.1941    2.8933 H   0  0  0  0  0  0  0  0  0  0  0  0
  1  2  1  0
  2  3  2  0
  3  4  1  0
  4  5  1  0
  4  6  2  0
  6  7  1  0
  7  8  2  0
  7  9  2  0
  7 10  1  0
 10 11  1  0
 11 12  2  0
 12 13  1  0
 13 14  2  0
 14 15  1  0
 14 16  1  0
 16 17  1  0
 17 18  1  0
 18 19  1  0
 19 20  2  0
 20 21  1  0
 21 22  1  0
 16 23  2  0
  6 24  1  0
 24 25  1  0
 24 26  2  0
 26  2  1  0
 23 11  1  0
 22 18  2  0
  1 27  1  0
  1 28  1  0
  1 29  1  0
  3 30  1  0
  5 31  1  0
  5 32  1  0
  5 33  1  0
 10 34  1  0
 12 35  1  0
 13 36  1  0
 15 37  1  0
 20 38  1  0
 21 39  1  0
 23 40  1  0
 25 41  1  0
 25 42  1  0
 25 43  1  0
 26 44  1  0
M  END
$$$$
