
     RDKit          3D

 54 57  0  0  0  0  0  0  0  0999 V2000
    4.6353    0.2034    4.4155 C   0  0  0  0  0  0  0  0  0  0  0  0
    5.3150    0.2011    3.0582 C   0  0  0  0  0  0  0  0  0  0  0  0
    4.5061    0.9866    2.0439 C   0  0  0  0  0  0  0  0  0  0  0  0
    4.7026    2.1959    1.9108 O   0  0  0  0  0  0  0  0  0  0  0  0
    3.5437    0.3168    1.3088 N   0  0  0  0  0  0  0  0  0  0  0  0
    3.2267   -1.1143    1.4163 C   0  0  0  0  0  0  0  0  0  0  0  0
    1.7820   -1.4456    0.9953 C   0  0  0  0  0  0  0  0  0  0  0  0
    1.4172   -0.9054   -0.3378 N   0  0  0  0  0  0  0  0  0  0  0  0
    1.1767   -1.8956   -1.3258 C   0  0  0  0  0  0  0  0  0  0  0  0
    2.1375   -2.8535   -1.6794 C   0  0  0  0  0  0  0  0  0  0  0  0
    1.8638   -3.7932   -2.6744 C   0  0  0  0  0  0  0  0  0  0  0  0
    0.6302   -3.7787   -3.3230 C   0  0  0  0  0  0  0  0  0  0  0  0
    0.3093   -4.9427   -4.5513 Cl  0  0  0  0  0  0  0  0  0  0  0  0
   -0.3410   -2.8357   -2.9905 C   0  0  0  0  0  0  0  0  0  0  0  0
   -0.0748   -1.8972   -1.9934 C   0  0  0  0  0  0  0  0  0  0  0  0
   -0.9886   -0.9076   -1.5720 N   0  0  0  0  0  0  0  0  0  0  0  0
   -2.2767   -0.6905   -2.0063 C   0  0  0  0  0  0  0  0  0  0  0  0
   -2.8909   -1.3585   -2.8297 O   0  0  0  0  0  0  0  0  0  0  0  0
   -2.9683    0.4654   -1.3676 C   0  0  0  0  0  0  0  0  0  0  0  0
   -2.2746    1.6262   -0.9914 C   0  0  0  0  0  0  0  0  0  0  0  0
   -2.9604    2.6886   -0.3966 C   0  0  0  0  0  0  0  0  0  0  0  0
   -4.3344    2.5952   -0.1809 C   0  0  0  0  0  0  0  0  0  0  0  0
   -5.0343    1.4548   -0.5905 C   0  0  0  0  0  0  0  0  0  0  0  0
   -4.3538    0.3885   -1.1751 C   0  0  0  0  0  0  0  0  0  0  0  0
   -6.3908    1.3125   -0.4403 O   0  0  0  0  0  0  0  0  0  0  0  0
   -7.0202    2.5699   -0.1684 C   0  0  0  0  0  0  0  0  0  0  0  0
   -6.2485    3.3363    0.8936 C   0  0  0  0  0  0  0  0  0  0  0  0
   -4.9351    3.6682    0.4257 O   0  0  0  0  0  0  0  0  0  0  0  0
    2.3016    0.1706   -0.8527 C   0  0  0  0  0  0  0  0  0  0  0  0
    2.7965    1.0683    0.2924 C   0  0  0  0  0  0  0  0  0  0  0  0
    5.2219   -0.3746    5.1358 H   0  0  0  0  0  0  0  0  0  0  0  0
    3.6299   -0.2246    4.3673 H   0  0  0  0  0  0  0  0  0  0  0  0
    4.5378    1.2250    4.7983 H   0  0  0  0  0  0  0  0  0  0  0  0
    5.4970   -0.8183    2.7077 H   0  0  0  0  0  0  0  0  0  0  0  0
    6.3020    0.6725    3.1358 H   0  0  0  0  0  0  0  0  0  0  0  0
    3.9399   -1.6405    0.7716 H   0  0  0  0  0  0  0  0  0  0  0  0
    3.3883   -1.4635    2.4387 H   0  0  0  0  0  0  0  0  0  0  0  0
    1.0985   -0.9817    1.7180 H   0  0  0  0  0  0  0  0  0  0  0  0
    1.6110   -2.5270    1.0663 H   0  0  0  0  0  0  0  0  0  0  0  0
    3.1089   -2.8707   -1.1957 H   0  0  0  0  0  0  0  0  0  0  0  0
    2.6162   -4.5300   -2.9433 H   0  0  0  0  0  0  0  0  0  0  0  0
   -1.2905   -2.8509   -3.5145 H   0  0  0  0  0  0  0  0  0  0  0  0
   -0.6181   -0.3557   -0.8030 H   0  0  0  0  0  0  0  0  0  0  0  0
   -1.2087    1.7306   -1.1775 H   0  0  0  0  0  0  0  0  0  0  0  0
   -2.4257    3.5885   -0.1020 H   0  0  0  0  0  0  0  0  0  0  0  0
   -4.9033   -0.4976   -1.4879 H   0  0  0  0  0  0  0  0  0  0  0  0
   -7.0861    3.1371   -1.1052 H   0  0  0  0  0  0  0  0  0  0  0  0
   -8.0377    2.3629    0.1778 H   0  0  0  0  0  0  0  0  0  0  0  0
   -6.1510    2.7541    1.8190 H   0  0  0  0  0  0  0  0  0  0  0  0
   -6.7621    4.2731    1.1322 H   0  0  0  0  0  0  0  0  0  0  0  0
    1.7447    0.7806   -1.5744 H   0  0  0  0  0  0  0  0  0  0  0  0
    3.1740   -0.2501   -1.3709 H   0  0  0  0  0  0  0  0  0  0  0  0
    1.9438    1.5302    0.8056 H   0  0  0  0  0  0  0  0  0  0  0  0
    3.4176    1.8747   -0.1130 H   0  0  0  0  0  0  0  0  0  0  0  0
  1  2  1  0
  2  3  1  0
  3  4  2  0
  3  5  1  0
  5  6  1  0
  6  7  1  0
  7  8  1  0
  8  9  1  0
  9 10  2  0
 10 11  1  0
 11 12  2  0
 12 13  1  0
 12 14  1  0
 14 15  2  0
 15 16  1  0
 16 17  1  0
 17 18  2  0
 17 19  1  0
 19 20  2  0
 20 21  1  0
 21 22  2  0
 22 23  1  0
 23 24  2  0
 23 25  1  0
 25 26  1  0
 26 27  1  0
 27 28  1  0
  8 29  1  0
 29 30  1  0
 30  5  1  0
 15  9  1  0
 24 19  1  0
 28 22  1  0
  1 31  1  0
  1 32  1  0
  1 33  1  0
  2 34  1  0
  2 35  1  0
  6 36  1  0
  6 37  1  0
  7 38  1  0
  7 39  1  0
 10 40  1  0
 11 41  1  0
 14 42  1  0
 16 43  1  0
 20 44  1  0
 21 45  1  0
 24 46  1  0
 26 47  1  0
 26 48  1  0
 27 49  1  0
 27 50  1  0
 29 51  1  0
 29 52  1  0
 30 53  1  0
 30 54  1  0
M  END
$$$$
