
     RDKit          3D

 57 62  0  0  0  0  0  0  0  0999 V2000
    5.5059   -0.7113    3.2910 C   0  0  0  0  0  0  0  0  0  0  0  0
    4.1876   -0.8151    2.7695 O   0  0  0  0  0  0  0  0  0  0  0  0
    4.0672   -1.0850    1.4323 C   0  0  0  0  0  0  0  0  0  0  0  0
    5.1350   -1.2970    0.5391 C   0  0  0  0  0  0  0  0  0  0  0  0
    4.8982   -1.5713   -0.8137 C   0  0  0  0  0  0  0  0  0  0  0  0
    3.5869   -1.6219   -1.2351 C   0  0  0  0  0  0  0  0  0  0  0  0
    2.5123   -1.4079   -0.3685 C   0  0  0  0  0  0  0  0  0  0  0  0
    2.7450   -1.1446    0.9735 C   0  0  0  0  0  0  0  0  0  0  0  0
    1.2348   -1.5314   -1.1464 C   0  0  0  0  0  0  0  0  0  0  0  0
    0.2726   -2.5615   -0.6233 N   0  0  0  0  0  0  0  0  0  0  0  0
   -0.8740   -1.8538    0.0712 C   0  0  2  0  0  0  0  0  0  0  0  0
   -2.2052   -2.5263   -0.3155 C   0  0  0  0  0  0  0  0  0  0  0  0
   -3.4005   -2.0702    0.4892 C   0  0  0  0  0  0  0  0  0  0  0  0
   -3.4484   -2.2639    1.8769 C   0  0  0  0  0  0  0  0  0  0  0  0
   -4.5479   -1.8236    2.6151 C   0  0  0  0  0  0  0  0  0  0  0  0
   -5.6133   -1.1952    1.9741 C   0  0  0  0  0  0  0  0  0  0  0  0
   -5.5846   -1.0132    0.5934 C   0  0  0  0  0  0  0  0  0  0  0  0
   -4.4868   -1.4529   -0.1473 C   0  0  0  0  0  0  0  0  0  0  0  0
   -0.7133   -0.4445   -0.3702 C   0  0  0  0  0  0  0  0  0  0  0  0
    0.4907   -0.2719   -1.0519 C   0  0  0  0  0  0  0  0  0  0  0  0
    0.5781    1.0201   -1.4904 C   0  0  0  0  0  0  0  0  0  0  0  0
    1.4822    1.5454   -2.3161 O   0  0  0  0  0  0  0  0  0  0  0  0
   -0.5196    1.7137   -0.9475 N   0  0  0  0  0  0  0  0  0  0  0  0
   -0.7425    3.1256   -1.0292 C   0  0  0  0  0  0  0  0  0  0  0  0
   -2.0435    3.6422   -1.0692 C   0  0  0  0  0  0  0  0  0  0  0  0
   -2.2509    5.0213   -1.1592 C   0  0  0  0  0  0  0  0  0  0  0  0
   -1.1648    5.8931   -1.1986 C   0  0  0  0  0  0  0  0  0  0  0  0
    0.1326    5.3893   -1.1414 C   0  0  0  0  0  0  0  0  0  0  0  0
    0.3461    4.0114   -1.0544 C   0  0  0  0  0  0  0  0  0  0  0  0
   -1.3356    0.7766   -0.2813 C   0  0  0  0  0  0  0  0  0  0  0  0
   -2.4444    1.1381    0.3590 O   0  0  0  0  0  0  0  0  0  0  0  0
    1.7383   -1.8891   -2.5704 C   0  0  0  0  0  0  0  0  0  0  0  0
    1.0628   -2.1682   -3.5515 O   0  0  0  0  0  0  0  0  0  0  0  0
    3.1326   -1.8972   -2.5189 N   0  0  0  0  0  0  0  0  0  0  0  0
    5.4263   -0.4796    4.3576 H   0  0  0  0  0  0  0  0  0  0  0  0
    6.0432   -1.6607    3.1962 H   0  0  0  0  0  0  0  0  0  0  0  0
    6.0570    0.1055    2.8133 H   0  0  0  0  0  0  0  0  0  0  0  0
    6.1669   -1.2573    0.8728 H   0  0  0  0  0  0  0  0  0  0  0  0
    5.7225   -1.7389   -1.4972 H   0  0  0  0  0  0  0  0  0  0  0  0
    1.9187   -0.9828    1.6585 H   0  0  0  0  0  0  0  0  0  0  0  0
   -0.1149   -2.9945   -1.4657 H   0  0  0  0  0  0  0  0  0  0  0  0
   -0.6931   -1.9212    1.1502 H   0  0  0  0  0  0  0  0  0  0  0  0
   -2.4015   -2.3757   -1.3860 H   0  0  0  0  0  0  0  0  0  0  0  0
   -2.1230   -3.6131   -0.1749 H   0  0  0  0  0  0  0  0  0  0  0  0
   -2.6326   -2.7641    2.3953 H   0  0  0  0  0  0  0  0  0  0  0  0
   -4.5759   -1.9763    3.6912 H   0  0  0  0  0  0  0  0  0  0  0  0
   -6.4702   -0.8544    2.5498 H   0  0  0  0  0  0  0  0  0  0  0  0
   -6.4186   -0.5287    0.0915 H   0  0  0  0  0  0  0  0  0  0  0  0
   -4.4805   -1.2974   -1.2247 H   0  0  0  0  0  0  0  0  0  0  0  0
    1.0903    2.3284   -2.7441 H   0  0  0  0  0  0  0  0  0  0  0  0
   -2.9132    2.9905   -1.0620 H   0  0  0  0  0  0  0  0  0  0  0  0
   -3.2644    5.4129   -1.1979 H   0  0  0  0  0  0  0  0  0  0  0  0
   -1.3306    6.9654   -1.2622 H   0  0  0  0  0  0  0  0  0  0  0  0
    0.9799    6.0706   -1.1471 H   0  0  0  0  0  0  0  0  0  0  0  0
    1.3696    3.6564   -0.9511 H   0  0  0  0  0  0  0  0  0  0  0  0
   -2.7983    0.3620    0.8304 H   0  0  0  0  0  0  0  0  0  0  0  0
    3.7087   -2.1070   -3.3188 H   0  0  0  0  0  0  0  0  0  0  0  0
  1  2  1  0
  2  3  1  0
  3  4  2  0
  4  5  1  0
  5  6  2  0
  6  7  1  0
  7  8  2  0
  7  9  1  0
  9 10  1  0
 10 11  1  0
 11 12  1  0
 12 13  1  0
 13 14  2  0
 14 15  1  0
 15 16  2  0
 16 17  1  0
 17 18  2  0
 11 19  1  0
 19 20  1  0
 20 21  2  0
 21 22  1  0
 21 23  1  0
 23 24  1  0
 24 25  2  0
 25 26  1  0
 26 27  2  0
 27 28  1  0
 28 29  2  0
 23 30  1  0
 30 31  1  0
  9 32  1  0
 32 33  2  0
 32 34  1  0
  8  3  1  0
 20  9  1  0
 29 24  1  0
 34  6  1  0
 18 13  1  0
 30 19  2  0
  1 35  1  0
  1 36  1  0
  1 37  1  0
  4 38  1  0
  5 39  1  0
  8 40  1  0
 10 41  1  0
 11 42  1  1
 12 43  1  0
 12 44  1  0
 14 45  1  0
 15 46  1  0
 16 47  1  0
 17 48  1  0
 18 49  1  0
 22 50  1  0
 25 51  1  0
 26 52  1  0
 27 53  1  0
 28 54  1  0
 29 55  1  0
 31 56  1  0
 34 57  1  0
M  END
$$$$
