
     RDKit          3D

 42 44  0  0  0  0  0  0  0  0999 V2000
    0.7600   -1.0226    2.2887 C   0  0  0  0  0  0  0  0  0  0  0  0
   -0.1731   -0.7840    1.1422 C   0  0  0  0  0  0  0  0  0  0  0  0
    0.1354   -0.7789   -0.1675 C   0  0  0  0  0  0  0  0  0  0  0  0
    1.3744   -0.9643   -0.7184 N   0  0  0  0  0  0  0  0  0  0  0  0
    1.6641   -1.2846   -2.0306 C   0  0  0  0  0  0  0  0  0  0  0  0
    0.8481   -1.6977   -2.8515 O   0  0  0  0  0  0  0  0  0  0  0  0
    3.1362   -1.2466   -2.3940 C   0  0  0  0  0  0  0  0  0  0  0  0
    3.8762   -0.1913   -1.7209 N   0  0  0  0  0  0  0  0  0  0  0  0
    4.4529    0.9080   -2.2925 C   0  0  0  0  0  0  0  0  0  0  0  0
    5.0521    1.6076   -1.2691 C   0  0  0  0  0  0  0  0  0  0  0  0
    4.7812    0.8484   -0.1102 C   0  0  0  0  0  0  0  0  0  0  0  0
    5.1605    1.1262    1.2637 N   0  0  0  0  0  4  0  0  0  0  0  0
    5.9159    2.0938    1.4390 O   0  0  0  0  0  0  0  0  0  0  0  0
    4.7019    0.3992    2.1579 O   0  0  0  0  0  1  0  0  0  0  0  0
    4.0716   -0.2641   -0.3825 N   0  0  0  0  0  0  0  0  0  0  0  0
   -1.1392   -0.4305   -0.8844 C   0  0  0  0  0  0  0  0  0  0  0  0
   -1.2182   -0.1387   -2.0672 O   0  0  0  0  0  0  0  0  0  0  0  0
   -2.1332   -0.3511    0.1104 N   0  0  0  0  0  0  0  0  0  0  0  0
   -3.3383    0.3941   -0.0111 C   0  0  0  0  0  0  0  0  0  0  0  0
   -3.9849    0.5119   -1.2491 C   0  0  0  0  0  0  0  0  0  0  0  0
   -5.1762    1.2342   -1.3754 C   0  0  0  0  0  0  0  0  0  0  0  0
   -5.7393    1.8539   -0.2638 C   0  0  0  0  0  0  0  0  0  0  0  0
   -5.1103    1.7536    0.9733 C   0  0  0  0  0  0  0  0  0  0  0  0
   -3.9200    1.0296    1.0973 C   0  0  0  0  0  0  0  0  0  0  0  0
   -1.5407   -0.5854    1.3866 N   0  0  0  0  0  0  0  0  0  0  0  0
   -2.2539   -1.5997    2.1840 C   0  0  0  0  0  0  0  0  0  0  0  0
    0.5551   -1.9901    2.7578 H   0  0  0  0  0  0  0  0  0  0  0  0
    0.6363   -0.2390    3.0437 H   0  0  0  0  0  0  0  0  0  0  0  0
    1.8108   -1.0175    1.9872 H   0  0  0  0  0  0  0  0  0  0  0  0
    2.1712   -0.9273   -0.0829 H   0  0  0  0  0  0  0  0  0  0  0  0
    3.2351   -1.0839   -3.4723 H   0  0  0  0  0  0  0  0  0  0  0  0
    3.6034   -2.2004   -2.1289 H   0  0  0  0  0  0  0  0  0  0  0  0
    4.3868    1.1022   -3.3555 H   0  0  0  0  0  0  0  0  0  0  0  0
    5.6001    2.5373   -1.3419 H   0  0  0  0  0  0  0  0  0  0  0  0
   -3.5836    0.0290   -2.1372 H   0  0  0  0  0  0  0  0  0  0  0  0
   -5.6597    1.3095   -2.3461 H   0  0  0  0  0  0  0  0  0  0  0  0
   -6.6627    2.4180   -0.3638 H   0  0  0  0  0  0  0  0  0  0  0  0
   -5.5382    2.2459    1.8426 H   0  0  0  0  0  0  0  0  0  0  0  0
   -3.4372    0.9996    2.0700 H   0  0  0  0  0  0  0  0  0  0  0  0
   -3.3251   -1.3903    2.2529 H   0  0  0  0  0  0  0  0  0  0  0  0
   -1.8639   -1.6175    3.2071 H   0  0  0  0  0  0  0  0  0  0  0  0
   -2.1317   -2.5966    1.7449 H   0  0  0  0  0  0  0  0  0  0  0  0
  1  2  1  0
  2  3  2  0
  3  4  1  0
  4  5  1  0
  5  6  2  0
  5  7  1  0
  7  8  1  0
  8  9  1  0
  9 10  2  0
 10 11  1  0
 11 12  1  0
 12 13  2  0
 12 14  1  0
 11 15  2  0
  3 16  1  0
 16 17  2  0
 16 18  1  0
 18 19  1  0
 19 20  2  0
 20 21  1  0
 21 22  2  0
 22 23  1  0
 23 24  2  0
 18 25  1  0
 25 26  1  0
 25  2  1  0
 15  8  1  0
 24 19  1  0
  1 27  1  0
  1 28  1  0
  1 29  1  0
  4 30  1  0
  7 31  1  0
  7 32  1  0
  9 33  1  0
 10 34  1  0
 20 35  1  0
 21 36  1  0
 22 37  1  0
 23 38  1  0
 24 39  1  0
 26 40  1  0
 26 41  1  0
 26 42  1  0
M  CHG  2  12   1  14  -1
M  END
$$$$
