
     RDKit          3D

 35 35  0  0  0  0  0  0  0  0999 V2000
   -3.7677    0.7708   -0.3527 C   0  0  0  0  0  0  0  0  0  0  0  0
   -2.3343    0.5050    0.1252 C   0  0  0  0  0  0  0  0  0  0  0  0
   -2.3539   -0.0358    1.5617 C   0  0  0  0  0  0  0  0  0  0  0  0
   -1.5289   -0.3811   -0.7449 N   0  0  0  0  0  0  0  0  0  0  0  0
   -2.1902   -1.6453   -1.0747 C   0  0  0  0  0  0  0  0  0  0  0  0
   -1.0596    0.2798   -1.9828 C   0  0  0  0  0  0  0  0  0  0  0  0
   -0.0038    1.3822   -1.7798 C   0  0  0  0  0  0  0  0  0  0  0  0
    1.1781    0.8203   -1.1876 O   0  0  0  0  0  0  0  0  0  0  0  0
    1.3849    1.1160    0.1157 C   0  0  0  0  0  0  0  0  0  0  0  0
    0.7420    1.8618    0.8339 O   0  0  0  0  0  0  0  0  0  0  0  0
    2.5093    0.3007    0.5956 C   0  0  0  0  0  0  0  0  0  0  0  0
    2.2191   -0.6829    1.5511 C   0  0  0  0  0  0  0  0  0  0  0  0
    3.2394   -1.4930    2.0491 C   0  0  0  0  0  0  0  0  0  0  0  0
    4.5479   -1.3172    1.6001 C   0  0  0  0  0  0  0  0  0  0  0  0
    4.8405   -0.3279    0.6574 C   0  0  0  0  0  0  0  0  0  0  0  0
    3.8222    0.4883    0.1535 C   0  0  0  0  0  0  0  0  0  0  0  0
    4.3085    1.8442   -1.0823 Br  0  0  0  0  0  0  0  0  0  0  0  0
   -4.3811   -0.1361   -0.3374 H   0  0  0  0  0  0  0  0  0  0  0  0
   -4.2543    1.5027    0.3020 H   0  0  0  0  0  0  0  0  0  0  0  0
   -3.7854    1.1822   -1.3663 H   0  0  0  0  0  0  0  0  0  0  0  0
   -1.8381    1.4783    0.1947 H   0  0  0  0  0  0  0  0  0  0  0  0
   -2.9320   -0.9610    1.6506 H   0  0  0  0  0  0  0  0  0  0  0  0
   -2.8056    0.6987    2.2380 H   0  0  0  0  0  0  0  0  0  0  0  0
   -1.3379   -0.2296    1.9222 H   0  0  0  0  0  0  0  0  0  0  0  0
   -1.4872   -2.3188   -1.5787 H   0  0  0  0  0  0  0  0  0  0  0  0
   -2.5207   -2.1773   -0.1777 H   0  0  0  0  0  0  0  0  0  0  0  0
   -3.0523   -1.5069   -1.7362 H   0  0  0  0  0  0  0  0  0  0  0  0
   -1.9019    0.6817   -2.5573 H   0  0  0  0  0  0  0  0  0  0  0  0
   -0.5819   -0.4818   -2.6140 H   0  0  0  0  0  0  0  0  0  0  0  0
    0.2944    1.7668   -2.7617 H   0  0  0  0  0  0  0  0  0  0  0  0
   -0.3934    2.2388   -1.2205 H   0  0  0  0  0  0  0  0  0  0  0  0
    1.1973   -0.8189    1.8999 H   0  0  0  0  0  0  0  0  0  0  0  0
    3.0137   -2.2593    2.7869 H   0  0  0  0  0  0  0  0  0  0  0  0
    5.3443   -1.9476    1.9893 H   0  0  0  0  0  0  0  0  0  0  0  0
    5.8687   -0.1976    0.3277 H   0  0  0  0  0  0  0  0  0  0  0  0
  1  2  1  0
  2  3  1  0
  2  4  1  0
  4  5  1  0
  4  6  1  0
  6  7  1  0
  7  8  1  0
  8  9  1  0
  9 10  2  0
  9 11  1  0
 11 12  2  0
 12 13  1  0
 13 14  2  0
 14 15  1  0
 15 16  2  0
 16 17  1  0
 16 11  1  0
  1 18  1  0
  1 19  1  0
  1 20  1  0
  2 21  1  0
  3 22  1  0
  3 23  1  0
  3 24  1  0
  5 25  1  0
  5 26  1  0
  5 27  1  0
  6 28  1  0
  6 29  1  0
  7 30  1  0
  7 31  1  0
 12 32  1  0
 13 33  1  0
 14 34  1  0
 15 35  1  0
M  END
$$$$
