
     RDKit          3D

 58 61  0  0  0  0  0  0  0  0999 V2000
   -2.7646    6.2164    1.0844 C   0  0  0  0  0  0  0  0  0  0  0  0
   -2.0224    5.0164    0.9085 O   0  0  0  0  0  0  0  0  0  0  0  0
   -2.7234    3.8419    0.9475 C   0  0  0  0  0  0  0  0  0  0  0  0
   -4.0963    3.7150    1.1106 C   0  0  0  0  0  0  0  0  0  0  0  0
   -4.6990    2.4516    1.1330 C   0  0  0  0  0  0  0  0  0  0  0  0
   -3.8972    1.3034    0.9872 C   0  0  0  0  0  0  0  0  0  0  0  0
   -4.4260   -0.3319    0.9836 S   0  0  0  0  0  0  0  0  0  0  0  0
   -2.8410   -0.9334    0.7669 C   0  0  0  0  0  0  0  0  0  0  0  0
   -2.6504   -2.3863    0.6746 C   0  0  0  0  0  0  0  0  0  0  0  0
   -2.7783   -3.0041   -0.5806 C   0  0  0  0  0  0  0  0  0  0  0  0
   -2.5892   -4.3779   -0.7165 C   0  0  0  0  0  0  0  0  0  0  0  0
   -2.2694   -5.1446    0.3998 C   0  0  0  0  0  0  0  0  0  0  0  0
   -2.1368   -4.5422    1.6546 C   0  0  0  0  0  0  0  0  0  0  0  0
   -2.3228   -3.1628    1.8051 C   0  0  0  0  0  0  0  0  0  0  0  0
   -2.2146   -2.4915    2.9975 O   0  0  0  0  0  0  0  0  0  0  0  0
   -1.8044   -3.2358    4.1357 C   0  0  0  0  0  0  0  0  0  0  0  0
   -1.9115    0.0897    0.6935 C   0  0  0  0  0  0  0  0  0  0  0  0
   -0.4937   -0.1802    0.5006 C   0  0  0  0  0  0  0  0  0  0  0  0
    0.3231   -0.4669    1.5959 C   0  0  0  0  0  0  0  0  0  0  0  0
    1.6844   -0.7118    1.4031 C   0  0  0  0  0  0  0  0  0  0  0  0
    2.2443   -0.6719    0.1225 C   0  0  0  0  0  0  0  0  0  0  0  0
    3.5870   -0.9252    0.0870 O   0  0  0  0  0  0  0  0  0  0  0  0
    4.2478   -0.9602   -1.1825 C   0  0  0  0  0  0  0  0  0  0  0  0
    4.6906    0.4512   -1.6071 C   0  0  0  0  0  0  0  0  0  0  0  0
    5.4868    0.4825   -2.8500 N   0  0  0  0  0  0  0  0  0  0  0  0
    4.6735    0.1622   -4.0249 C   0  0  0  0  0  0  0  0  0  0  0  0
    6.0935    1.8067   -3.0179 C   0  0  0  0  0  0  0  0  0  0  0  0
    1.4260   -0.3800   -0.9697 C   0  0  0  0  0  0  0  0  0  0  0  0
    0.0611   -0.1329   -0.7814 C   0  0  0  0  0  0  0  0  0  0  0  0
   -2.5149    1.3957    0.8206 C   0  0  0  0  0  0  0  0  0  0  0  0
   -1.9377    2.6922    0.8032 C   0  0  0  0  0  0  0  0  0  0  0  0
   -2.0612    7.0536    1.0413 H   0  0  0  0  0  0  0  0  0  0  0  0
   -3.4927    6.3516    0.2778 H   0  0  0  0  0  0  0  0  0  0  0  0
   -3.2509    6.2401    2.0652 H   0  0  0  0  0  0  0  0  0  0  0  0
   -4.7404    4.5808    1.2248 H   0  0  0  0  0  0  0  0  0  0  0  0
   -5.7739    2.3596    1.2624 H   0  0  0  0  0  0  0  0  0  0  0  0
   -3.0253   -2.4103   -1.4575 H   0  0  0  0  0  0  0  0  0  0  0  0
   -2.6910   -4.8475   -1.6911 H   0  0  0  0  0  0  0  0  0  0  0  0
   -2.1216   -6.2168    0.2963 H   0  0  0  0  0  0  0  0  0  0  0  0
   -1.8881   -5.1805    2.4956 H   0  0  0  0  0  0  0  0  0  0  0  0
   -0.8121   -3.6737    3.9856 H   0  0  0  0  0  0  0  0  0  0  0  0
   -2.5430   -4.0022    4.3926 H   0  0  0  0  0  0  0  0  0  0  0  0
   -1.7376   -2.5438    4.9811 H   0  0  0  0  0  0  0  0  0  0  0  0
   -0.0947   -0.5051    2.5991 H   0  0  0  0  0  0  0  0  0  0  0  0
    2.3148   -0.9369    2.2600 H   0  0  0  0  0  0  0  0  0  0  0  0
    3.6429   -1.4785   -1.9334 H   0  0  0  0  0  0  0  0  0  0  0  0
    5.1423   -1.5792   -1.0423 H   0  0  0  0  0  0  0  0  0  0  0  0
    5.2932    0.8518   -0.7802 H   0  0  0  0  0  0  0  0  0  0  0  0
    3.8241    1.1201   -1.6830 H   0  0  0  0  0  0  0  0  0  0  0  0
    4.2936   -0.8629   -3.9759 H   0  0  0  0  0  0  0  0  0  0  0  0
    3.8220    0.8432   -4.1379 H   0  0  0  0  0  0  0  0  0  0  0  0
    5.2783    0.2164   -4.9374 H   0  0  0  0  0  0  0  0  0  0  0  0
    6.7530    2.0392   -2.1740 H   0  0  0  0  0  0  0  0  0  0  0  0
    5.3407    2.5993   -3.0969 H   0  0  0  0  0  0  0  0  0  0  0  0
    6.7190    1.8332   -3.9171 H   0  0  0  0  0  0  0  0  0  0  0  0
    1.8112   -0.3297   -1.9817 H   0  0  0  0  0  0  0  0  0  0  0  0
   -0.5653    0.0959   -1.6405 H   0  0  0  0  0  0  0  0  0  0  0  0
   -0.8620    2.7970    0.6790 H   0  0  0  0  0  0  0  0  0  0  0  0
  1  2  1  0
  2  3  1  0
  3  4  2  0
  4  5  1  0
  5  6  2  0
  6  7  1  0
  7  8  1  0
  8  9  1  0
  9 10  2  0
 10 11  1  0
 11 12  2  0
 12 13  1  0
 13 14  2  0
 14 15  1  0
 15 16  1  0
  8 17  2  0
 17 18  1  0
 18 19  2  0
 19 20  1  0
 20 21  2  0
 21 22  1  0
 22 23  1  0
 23 24  1  0
 24 25  1  0
 25 26  1  0
 25 27  1  0
 21 28  1  0
 28 29  2  0
 17 30  1  0
 30 31  2  0
 31  3  1  0
 30  6  1  0
 14  9  1  0
 29 18  1  0
  1 32  1  0
  1 33  1  0
  1 34  1  0
  4 35  1  0
  5 36  1  0
 10 37  1  0
 11 38  1  0
 12 39  1  0
 13 40  1  0
 16 41  1  0
 16 42  1  0
 16 43  1  0
 19 44  1  0
 20 45  1  0
 23 46  1  0
 23 47  1  0
 24 48  1  0
 24 49  1  0
 26 50  1  0
 26 51  1  0
 26 52  1  0
 27 53  1  0
 27 54  1  0
 27 55  1  0
 28 56  1  0
 29 57  1  0
 31 58  1  0
M  END
$$$$
