
     RDKit          3D

 31 32  0  0  0  0  0  0  0  0999 V2000
   -2.8985   -0.0303    2.2678 C   0  0  0  0  0  0  0  0  0  0  0  0
   -2.6565    0.6915    0.9499 C   0  0  0  0  0  0  0  0  0  0  0  0
   -1.7200   -0.0591    0.1015 N   0  0  0  0  0  0  0  0  0  0  0  0
   -2.3358   -1.0023   -0.8435 C   0  0  0  0  0  0  0  0  0  0  0  0
   -2.5867   -0.3403   -2.1909 C   0  0  0  0  0  0  0  0  0  0  0  0
   -0.3436    0.1126    0.1838 C   0  0  0  0  0  0  0  0  0  0  0  0
    0.2586    0.9171    1.1663 C   0  0  0  0  0  0  0  0  0  0  0  0
    1.6521    1.0979    1.2590 C   0  0  0  0  0  0  0  0  0  0  0  0
    2.5196    0.4755    0.3616 C   0  0  0  0  0  0  0  0  0  0  0  0
    3.9823    0.5994    0.3723 C   0  0  0  0  0  0  0  0  0  0  0  0
    4.6991    1.6005    1.6017 Cl  0  0  0  0  0  0  0  0  0  0  0  0
    4.7344   -0.0419   -0.5400 C   0  0  0  0  0  0  0  0  0  0  0  0
    6.6154    0.0564   -0.6056 Br  0  0  0  0  0  0  0  0  0  0  0  0
    4.1007   -0.8934   -1.5834 C   0  0  0  0  0  0  0  0  0  0  0  0
    4.7479   -1.4953   -2.4344 O   0  0  0  0  0  0  0  0  0  0  0  0
    2.7166   -0.9894   -1.5648 O   0  0  0  0  0  0  0  0  0  0  0  0
    1.9338   -0.3190   -0.6099 C   0  0  0  0  0  0  0  0  0  0  0  0
    0.5467   -0.5035   -0.7063 C   0  0  0  0  0  0  0  0  0  0  0  0
   -3.3084   -1.0315    2.0982 H   0  0  0  0  0  0  0  0  0  0  0  0
   -3.6133    0.5294    2.8791 H   0  0  0  0  0  0  0  0  0  0  0  0
   -1.9754   -0.1438    2.8441 H   0  0  0  0  0  0  0  0  0  0  0  0
   -3.6187    0.7984    0.4325 H   0  0  0  0  0  0  0  0  0  0  0  0
   -2.3171    1.7191    1.1215 H   0  0  0  0  0  0  0  0  0  0  0  0
   -3.2975   -1.3493   -0.4442 H   0  0  0  0  0  0  0  0  0  0  0  0
   -1.7372   -1.9128   -0.9588 H   0  0  0  0  0  0  0  0  0  0  0  0
   -1.6570    0.0042   -2.6536 H   0  0  0  0  0  0  0  0  0  0  0  0
   -3.0645   -1.0477   -2.8759 H   0  0  0  0  0  0  0  0  0  0  0  0
   -3.2459    0.5277   -2.0858 H   0  0  0  0  0  0  0  0  0  0  0  0
   -0.3426    1.4301    1.9118 H   0  0  0  0  0  0  0  0  0  0  0  0
    2.0215    1.7382    2.0568 H   0  0  0  0  0  0  0  0  0  0  0  0
    0.1898   -1.1384   -1.5108 H   0  0  0  0  0  0  0  0  0  0  0  0
  1  2  1  0
  2  3  1  0
  3  4  1  0
  4  5  1  0
  3  6  1  0
  6  7  2  0
  7  8  1  0
  8  9  2  0
  9 10  1  0
 10 11  1  0
 10 12  2  0
 12 13  1  0
 12 14  1  0
 14 15  2  0
 14 16  1  0
 16 17  1  0
 17 18  2  0
 18  6  1  0
 17  9  1  0
  1 19  1  0
  1 20  1  0
  1 21  1  0
  2 22  1  0
  2 23  1  0
  4 24  1  0
  4 25  1  0
  5 26  1  0
  5 27  1  0
  5 28  1  0
  7 29  1  0
  8 30  1  0
 18 31  1  0
M  END
$$$$
