
     RDKit          3D

 50 53  0  0  0  0  0  0  0  0999 V2000
   -6.0498   -2.9190    0.3821 C   0  0  0  0  0  0  0  0  0  0  0  0
   -4.7347   -3.3759   -0.2247 C   0  0  0  0  0  0  0  0  0  0  0  0
   -4.2935   -2.4604   -1.2253 O   0  0  0  0  0  0  0  0  0  0  0  0
   -3.4976   -1.4128   -0.8571 C   0  0  0  0  0  0  0  0  0  0  0  0
   -3.0047   -0.6589   -1.9254 C   0  0  0  0  0  0  0  0  0  0  0  0
   -2.1791    0.4461   -1.7023 C   0  0  0  0  0  0  0  0  0  0  0  0
   -1.8440    0.8162   -0.3970 C   0  0  0  0  0  0  0  0  0  0  0  0
   -0.9773    1.9618   -0.1550 C   0  0  0  0  0  0  0  0  0  0  0  0
    0.3943    2.0128    0.0565 C   0  0  0  0  0  0  0  0  0  0  0  0
    1.3538    0.9103    0.1115 C   0  0  0  0  0  0  0  0  0  0  0  0
    1.0112   -0.2653    0.0409 O   0  0  0  0  0  0  0  0  0  0  0  0
    2.6610    1.3645    0.2702 N   0  0  0  0  0  0  0  0  0  0  0  0
    3.7762    0.6008    0.5061 N   0  0  0  0  0  0  0  0  0  0  0  0
    3.8307   -0.5915    0.0023 C   0  0  0  0  0  0  0  0  0  0  0  0
    4.9843   -1.4826    0.2500 C   0  0  0  0  0  0  0  0  0  0  0  0
    6.0635   -1.0630    1.0354 C   0  0  0  0  0  0  0  0  0  0  0  0
    7.1451   -1.9209    1.2490 C   0  0  0  0  0  0  0  0  0  0  0  0
    7.1355   -3.1890    0.6748 C   0  0  0  0  0  0  0  0  0  0  0  0
    8.1710   -4.0572    0.8552 O   0  0  0  0  0  0  0  0  0  0  0  0
    6.0653   -3.6136   -0.1065 C   0  0  0  0  0  0  0  0  0  0  0  0
    4.9825   -2.7591   -0.3214 C   0  0  0  0  0  0  0  0  0  0  0  0
    0.7800    3.3183    0.2182 N   0  0  0  0  0  0  0  0  0  0  0  0
   -0.2910    4.0835    0.1204 N   0  0  0  0  0  0  0  0  0  0  0  0
   -1.3875    3.2968   -0.0994 N   0  0  0  0  0  0  0  0  0  0  0  0
   -2.6856    3.8571   -0.2141 C   0  0  0  0  0  0  0  0  0  0  0  0
   -3.7633    3.0870   -0.3640 N   0  0  0  0  0  0  0  0  0  0  0  0
   -4.8232    3.9892   -0.4202 O   0  0  0  0  0  0  0  0  0  0  0  0
   -4.3764    5.3005   -0.2960 N   0  0  0  0  0  0  0  0  0  0  0  0
   -3.0521    5.2159   -0.1761 C   0  0  0  0  0  0  0  0  0  0  0  0
   -2.2343    6.2770   -0.0441 N   0  0  0  0  0  0  0  0  0  0  0  0
   -2.3340    0.0617    0.6740 C   0  0  0  0  0  0  0  0  0  0  0  0
   -3.1603   -1.0455    0.4446 C   0  0  0  0  0  0  0  0  0  0  0  0
   -6.4258   -3.6606    1.0927 H   0  0  0  0  0  0  0  0  0  0  0  0
   -6.8011   -2.7687   -0.4002 H   0  0  0  0  0  0  0  0  0  0  0  0
   -5.9402   -1.9632    0.9030 H   0  0  0  0  0  0  0  0  0  0  0  0
   -3.9688   -3.5733    0.5337 H   0  0  0  0  0  0  0  0  0  0  0  0
   -4.9042   -4.3316   -0.7342 H   0  0  0  0  0  0  0  0  0  0  0  0
   -3.2637   -0.9389   -2.9437 H   0  0  0  0  0  0  0  0  0  0  0  0
   -1.8066    1.0069   -2.5555 H   0  0  0  0  0  0  0  0  0  0  0  0
    2.7755    2.3492    0.5032 H   0  0  0  0  0  0  0  0  0  0  0  0
    3.0509   -0.9999   -0.6613 H   0  0  0  0  0  0  0  0  0  0  0  0
    6.0674   -0.0711    1.4804 H   0  0  0  0  0  0  0  0  0  0  0  0
    7.9755   -1.5851    1.8623 H   0  0  0  0  0  0  0  0  0  0  0  0
    8.8468   -3.6262    1.4035 H   0  0  0  0  0  0  0  0  0  0  0  0
    6.0750   -4.6076   -0.5462 H   0  0  0  0  0  0  0  0  0  0  0  0
    4.1485   -3.0985   -0.9301 H   0  0  0  0  0  0  0  0  0  0  0  0
   -2.6345    7.1850    0.1667 H   0  0  0  0  0  0  0  0  0  0  0  0
   -1.2602    6.1668    0.2327 H   0  0  0  0  0  0  0  0  0  0  0  0
   -2.0775    0.3236    1.6978 H   0  0  0  0  0  0  0  0  0  0  0  0
   -3.5230   -1.5918    1.3078 H   0  0  0  0  0  0  0  0  0  0  0  0
  1  2  1  0
  2  3  1  0
  3  4  1  0
  4  5  2  0
  5  6  1  0
  6  7  2  0
  7  8  1  0
  8  9  2  0
  9 10  1  0
 10 11  2  0
 10 12  1  0
 12 13  1  0
 13 14  2  3
 14 15  1  0
 15 16  2  0
 16 17  1  0
 17 18  2  0
 18 19  1  0
 18 20  1  0
 20 21  2  0
  9 22  1  0
 22 23  2  0
 23 24  1  0
 24 25  1  0
 25 26  2  0
 26 27  1  0
 27 28  1  0
 28 29  2  0
 29 30  1  0
  7 31  1  0
 31 32  2  0
 32  4  1  0
 24  8  1  0
 29 25  1  0
 21 15  1  0
  1 33  1  0
  1 34  1  0
  1 35  1  0
  2 36  1  0
  2 37  1  0
  5 38  1  0
  6 39  1  0
 12 40  1  0
 14 41  1  0
 16 42  1  0
 17 43  1  0
 19 44  1  0
 20 45  1  0
 21 46  1  0
 30 47  1  0
 30 48  1  0
 31 49  1  0
 32 50  1  0
M  END
$$$$
