
     RDKit          3D

 56 58  0  0  0  0  0  0  0  0999 V2000
    0.7655   -0.0547   -3.8126 C   0  0  0  0  0  0  0  0  0  0  0  0
    1.5688   -0.0771   -2.6421 O   0  0  0  0  0  0  0  0  0  0  0  0
    0.9285   -0.1086   -1.4272 C   0  0  0  0  0  0  0  0  0  0  0  0
   -0.4615   -0.0400   -1.2631 C   0  0  0  0  0  0  0  0  0  0  0  0
   -1.0357   -0.0880    0.0144 C   0  0  0  0  0  0  0  0  0  0  0  0
   -2.4958    0.0106    0.1451 C   0  0  0  0  0  0  0  0  0  0  0  0
   -3.2049   -0.7855    0.9597 C   0  0  0  0  0  0  0  0  0  0  0  0
   -4.6802   -0.7415    1.1294 C   0  0  0  0  0  0  0  0  0  0  0  0
   -5.2437   -1.4784    1.9315 O   0  0  0  0  0  0  0  0  0  0  0  0
   -5.4788    0.1886    0.3247 C   0  0  0  0  0  0  0  0  0  0  0  0
   -5.7867    1.4627    0.8193 C   0  0  0  0  0  0  0  0  0  0  0  0
   -5.2834    1.8912    2.0190 O   0  0  0  0  0  0  0  0  0  0  0  0
   -6.2457    1.6976    3.0594 C   0  0  0  0  0  0  0  0  0  0  0  0
   -6.5378    2.3624    0.0505 C   0  0  0  0  0  0  0  0  0  0  0  0
   -7.0238    1.9781   -1.2004 C   0  0  0  0  0  0  0  0  0  0  0  0
   -6.7342    0.7006   -1.6616 C   0  0  0  0  0  0  0  0  0  0  0  0
   -7.2010    0.2841   -2.9068 O   0  0  0  0  0  0  0  0  0  0  0  0
   -6.7524   -1.0178   -3.1063 C   0  0  0  0  0  0  0  0  0  0  0  0
   -7.0023   -1.6497   -4.1229 O   0  0  0  0  0  0  0  0  0  0  0  0
   -5.7769   -1.6984   -1.8003 S   0  0  0  0  0  0  0  0  0  0  0  0
   -5.9700   -0.1940   -0.9165 C   0  0  0  0  0  0  0  0  0  0  0  0
   -0.2014   -0.1779    1.1322 C   0  0  0  0  0  0  0  0  0  0  0  0
    1.1868   -0.2426    0.9798 C   0  0  0  0  0  0  0  0  0  0  0  0
    1.7605   -0.2118   -0.2942 C   0  0  0  0  0  0  0  0  0  0  0  0
    3.1095   -0.2688   -0.5402 O   0  0  0  0  0  0  0  0  0  0  0  0
    3.9852   -0.4303    0.5739 C   0  0  0  0  0  0  0  0  0  0  0  0
    5.4144   -0.5008    0.0376 C   0  0  0  0  0  0  0  0  0  0  0  0
    6.4190   -0.6807    1.1801 C   0  0  0  0  0  0  0  0  0  0  0  0
    7.8385   -0.7563    0.8089 N   0  0  0  0  0  0  0  0  0  0  0  0
    8.1448   -1.9127   -0.0293 C   0  0  0  0  0  0  0  0  0  0  0  0
    8.3312    0.4758    0.1987 C   0  0  0  0  0  0  0  0  0  0  0  0
    0.1201   -0.9371   -3.8683 H   0  0  0  0  0  0  0  0  0  0  0  0
    1.4348   -0.0783   -4.6777 H   0  0  0  0  0  0  0  0  0  0  0  0
    0.1803    0.8685   -3.8705 H   0  0  0  0  0  0  0  0  0  0  0  0
   -1.1188    0.0429   -2.1225 H   0  0  0  0  0  0  0  0  0  0  0  0
   -2.9644    0.7659   -0.4786 H   0  0  0  0  0  0  0  0  0  0  0  0
   -2.7260   -1.5475    1.5686 H   0  0  0  0  0  0  0  0  0  0  0  0
   -6.5535    0.6498    3.1334 H   0  0  0  0  0  0  0  0  0  0  0  0
   -7.1198    2.3397    2.9083 H   0  0  0  0  0  0  0  0  0  0  0  0
   -5.7758    1.9812    4.0052 H   0  0  0  0  0  0  0  0  0  0  0  0
   -6.7348    3.3640    0.4258 H   0  0  0  0  0  0  0  0  0  0  0  0
   -7.6108    2.6667   -1.8011 H   0  0  0  0  0  0  0  0  0  0  0  0
   -0.6186   -0.1868    2.1369 H   0  0  0  0  0  0  0  0  0  0  0  0
    1.7906   -0.3100    1.8786 H   0  0  0  0  0  0  0  0  0  0  0  0
    3.7487   -1.3591    1.1073 H   0  0  0  0  0  0  0  0  0  0  0  0
    3.8923    0.4276    1.2509 H   0  0  0  0  0  0  0  0  0  0  0  0
    5.6221    0.4139   -0.5298 H   0  0  0  0  0  0  0  0  0  0  0  0
    5.4811   -1.3274   -0.6795 H   0  0  0  0  0  0  0  0  0  0  0  0
    6.2956    0.1406    1.8981 H   0  0  0  0  0  0  0  0  0  0  0  0
    6.1626   -1.5885    1.7415 H   0  0  0  0  0  0  0  0  0  0  0  0
    7.7930   -2.8373    0.4414 H   0  0  0  0  0  0  0  0  0  0  0  0
    9.2289   -2.0171   -0.1502 H   0  0  0  0  0  0  0  0  0  0  0  0
    7.7007   -1.8410   -1.0278 H   0  0  0  0  0  0  0  0  0  0  0  0
    7.8947    0.6618   -0.7880 H   0  0  0  0  0  0  0  0  0  0  0  0
    9.4205    0.4329    0.0826 H   0  0  0  0  0  0  0  0  0  0  0  0
    8.1200    1.3385    0.8410 H   0  0  0  0  0  0  0  0  0  0  0  0
  1  2  1  0
  2  3  1  0
  3  4  2  0
  4  5  1  0
  5  6  1  0
  6  7  2  0
  7  8  1  0
  8  9  2  0
  8 10  1  0
 10 11  2  0
 11 12  1  0
 12 13  1  0
 11 14  1  0
 14 15  2  0
 15 16  1  0
 16 17  1  0
 17 18  1  0
 18 19  2  0
 18 20  1  0
 20 21  1  0
  5 22  2  0
 22 23  1  0
 23 24  2  0
 24 25  1  0
 25 26  1  0
 26 27  1  0
 27 28  1  0
 28 29  1  0
 29 30  1  0
 29 31  1  0
 24  3  1  0
 21 10  1  0
 21 16  2  0
  1 32  1  0
  1 33  1  0
  1 34  1  0
  4 35  1  0
  6 36  1  0
  7 37  1  0
 13 38  1  0
 13 39  1  0
 13 40  1  0
 14 41  1  0
 15 42  1  0
 22 43  1  0
 23 44  1  0
 26 45  1  0
 26 46  1  0
 27 47  1  0
 27 48  1  0
 28 49  1  0
 28 50  1  0
 30 51  1  0
 30 52  1  0
 30 53  1  0
 31 54  1  0
 31 55  1  0
 31 56  1  0
M  END
$$$$
