
     RDKit          3D

 22 22  0  0  0  0  0  0  0  0999 V2000
    2.2107   -2.2189   -2.4639 N   0  0  0  0  0  0  0  0  0  0  0  0
    2.4547   -1.1744   -1.7625 C   0  0  0  0  0  0  0  0  0  0  0  0
    3.6725   -0.8952   -1.2577 N   0  0  0  0  0  0  0  0  0  0  0  0
    1.1887   -0.0356   -1.4596 S   0  0  0  0  0  0  0  0  0  0  0  0
    0.6456   -0.6906    0.1410 C   0  0  0  0  0  0  0  0  0  0  0  0
   -0.4878    0.1358    0.6702 C   0  0  0  0  0  0  0  0  0  0  0  0
   -0.3932    0.9952    1.6990 C   0  0  0  0  0  0  0  0  0  0  0  0
   -1.6382    1.7150    2.1136 C   0  0  0  0  0  0  0  0  0  0  0  0
   -2.9011    1.0454    1.0384 S   0  0  0  0  0  6  0  0  0  0  0  0
   -3.7917    0.2174    1.8305 O   0  0  0  0  0  0  0  0  0  0  0  0
   -3.4103    2.1105    0.1954 O   0  0  0  0  0  0  0  0  0  0  0  0
   -1.8530   -0.0228    0.0553 C   0  0  0  0  0  0  0  0  0  0  0  0
    1.2257   -2.1786   -2.7479 H   0  0  0  0  0  0  0  0  0  0  0  0
    4.3982   -1.4330   -1.7197 H   0  0  0  0  0  0  0  0  0  0  0  0
    3.8823    0.0937   -1.2037 H   0  0  0  0  0  0  0  0  0  0  0  0
    1.4916   -0.6740    0.8371 H   0  0  0  0  0  0  0  0  0  0  0  0
    0.3292   -1.7337    0.0330 H   0  0  0  0  0  0  0  0  0  0  0  0
    0.5362    1.1819    2.2265 H   0  0  0  0  0  0  0  0  0  0  0  0
   -1.5542    2.7904    1.9447 H   0  0  0  0  0  0  0  0  0  0  0  0
   -1.9018    1.4993    3.1510 H   0  0  0  0  0  0  0  0  0  0  0  0
   -1.8835    0.3201   -0.9811 H   0  0  0  0  0  0  0  0  0  0  0  0
   -2.2206   -1.0480    0.1409 H   0  0  0  0  0  0  0  0  0  0  0  0
  1  2  2  3
  2  3  1  0
  2  4  1  0
  4  5  1  0
  5  6  1  0
  6  7  2  0
  7  8  1  0
  8  9  1  0
  9 10  2  0
  9 11  2  0
  9 12  1  0
 12  6  1  0
  1 13  1  0
  3 14  1  0
  3 15  1  0
  5 16  1  0
  5 17  1  0
  7 18  1  0
  8 19  1  0
  8 20  1  0
 12 21  1  0
 12 22  1  0
M  END
$$$$
