
     RDKit          3D

 49 51  0  0  0  0  0  0  0  0999 V2000
    1.9376   -2.1278   -2.5254 O   0  0  0  0  0  0  0  0  0  0  0  0
    2.3266   -1.2859   -1.7280 C   0  0  0  0  0  0  0  0  0  0  0  0
    3.6084   -0.8072   -1.6037 N   0  0  0  0  0  0  0  0  0  0  0  0
    4.7195   -1.3845   -2.3135 C   0  0  0  0  0  0  0  0  0  0  0  0
    5.4378   -2.3939   -1.4572 C   0  0  0  0  0  0  0  0  0  0  0  0
    4.9991   -3.7253   -1.4143 C   0  0  0  0  0  0  0  0  0  0  0  0
    5.6470   -4.6592   -0.6047 C   0  0  0  0  0  0  0  0  0  0  0  0
    6.7345   -4.2706    0.1751 C   0  0  0  0  0  0  0  0  0  0  0  0
    7.1730   -2.9478    0.1491 C   0  0  0  0  0  0  0  0  0  0  0  0
    6.5262   -2.0119   -0.6601 C   0  0  0  0  0  0  0  0  0  0  0  0
    1.3356   -0.6526   -0.7244 C   0  0  0  0  0  0  0  0  0  0  0  0
    1.7064    0.2299    0.0363 O   0  0  0  0  0  0  0  0  0  0  0  0
    0.0603   -1.1585   -0.8078 N   0  0  0  0  0  0  0  0  0  0  0  0
   -1.0454   -0.5691   -0.0724 C   0  0  0  0  0  0  0  0  0  0  0  0
   -1.4604    0.8211   -0.5921 C   0  0  0  0  0  0  0  0  0  0  0  0
   -1.7988    0.7175   -1.9921 O   0  0  0  0  0  0  0  0  0  0  0  0
   -2.7047    1.7965   -2.2255 C   0  0  0  0  0  0  0  0  0  0  0  0
   -3.5892    1.7804   -0.9997 C   0  0  0  0  0  0  0  0  0  0  0  0
   -2.6976    1.2948    0.0762 N   0  0  0  0  0  0  0  0  0  0  0  0
   -2.4025    2.3422    1.3676 S   0  0  0  0  0  6  0  0  0  0  0  0
   -2.0460    3.6273    0.8051 O   0  0  0  0  0  0  0  0  0  0  0  0
   -1.5480    1.6629    2.3145 O   0  0  0  0  0  0  0  0  0  0  0  0
   -4.0084    2.4799    2.1151 C   0  0  0  0  0  0  0  0  0  0  0  0
   -4.5798    1.3460    2.7027 C   0  0  0  0  0  0  0  0  0  0  0  0
   -5.8409    1.4398    3.2933 C   0  0  0  0  0  0  0  0  0  0  0  0
   -6.5144    2.6625    3.2958 C   0  0  0  0  0  0  0  0  0  0  0  0
   -8.2231    2.7869    4.0954 Br  0  0  0  0  0  0  0  0  0  0  0  0
   -5.9389    3.7954    2.7168 C   0  0  0  0  0  0  0  0  0  0  0  0
   -4.6775    3.7074    2.1246 C   0  0  0  0  0  0  0  0  0  0  0  0
    3.7837   -0.1949   -0.8122 H   0  0  0  0  0  0  0  0  0  0  0  0
    4.3774   -1.8502   -3.2447 H   0  0  0  0  0  0  0  0  0  0  0  0
    5.3955   -0.5672   -2.5880 H   0  0  0  0  0  0  0  0  0  0  0  0
    4.1437   -4.0382   -2.0112 H   0  0  0  0  0  0  0  0  0  0  0  0
    5.2997   -5.6888   -0.5802 H   0  0  0  0  0  0  0  0  0  0  0  0
    7.2374   -4.9979    0.8070 H   0  0  0  0  0  0  0  0  0  0  0  0
    8.0175   -2.6442    0.7624 H   0  0  0  0  0  0  0  0  0  0  0  0
    6.8768   -0.9824   -0.6634 H   0  0  0  0  0  0  0  0  0  0  0  0
   -0.1317   -1.7553   -1.6086 H   0  0  0  0  0  0  0  0  0  0  0  0
   -1.8804   -1.2726   -0.1652 H   0  0  0  0  0  0  0  0  0  0  0  0
   -0.7626   -0.5149    0.9838 H   0  0  0  0  0  0  0  0  0  0  0  0
   -0.6407    1.5443   -0.5086 H   0  0  0  0  0  0  0  0  0  0  0  0
   -2.1332    2.7280   -2.3061 H   0  0  0  0  0  0  0  0  0  0  0  0
   -3.2596    1.6333   -3.1529 H   0  0  0  0  0  0  0  0  0  0  0  0
   -4.0413    2.7573   -0.8140 H   0  0  0  0  0  0  0  0  0  0  0  0
   -4.3962    1.0481   -1.1129 H   0  0  0  0  0  0  0  0  0  0  0  0
   -4.0469    0.3972    2.7058 H   0  0  0  0  0  0  0  0  0  0  0  0
   -6.2861    0.5601    3.7518 H   0  0  0  0  0  0  0  0  0  0  0  0
   -6.4619    4.7487    2.7271 H   0  0  0  0  0  0  0  0  0  0  0  0
   -4.2273    4.5935    1.6822 H   0  0  0  0  0  0  0  0  0  0  0  0
  1  2  2  0
  2  3  1  0
  3  4  1  0
  4  5  1  0
  5  6  2  0
  6  7  1  0
  7  8  2  0
  8  9  1  0
  9 10  2  0
  2 11  1  0
 11 12  2  0
 11 13  1  0
 13 14  1  0
 14 15  1  0
 15 16  1  0
 16 17  1  0
 17 18  1  0
 18 19  1  0
 19 20  1  0
 20 21  2  0
 20 22  2  0
 20 23  1  0
 23 24  2  0
 24 25  1  0
 25 26  2  0
 26 27  1  0
 26 28  1  0
 28 29  2  0
 10  5  1  0
 19 15  1  0
 29 23  1  0
  3 30  1  0
  4 31  1  0
  4 32  1  0
  6 33  1  0
  7 34  1  0
  8 35  1  0
  9 36  1  0
 10 37  1  0
 13 38  1  0
 14 39  1  0
 14 40  1  0
 15 41  1  0
 17 42  1  0
 17 43  1  0
 18 44  1  0
 18 45  1  0
 24 46  1  0
 25 47  1  0
 28 48  1  0
 29 49  1  0
M  END
$$$$
