
     RDKit          3D

 26 27  0  0  0  0  0  0  0  0999 V2000
   -2.5666   -2.4358   -0.8127 C   0  0  0  0  0  0  0  0  0  0  0  0
   -2.2589   -1.1757   -1.4126 O   0  0  0  0  0  0  0  0  0  0  0  0
   -1.0147   -0.7465   -1.0357 C   0  0  0  0  0  0  0  0  0  0  0  0
    0.0830   -1.2559   -1.7332 C   0  0  0  0  0  0  0  0  0  0  0  0
    1.3594   -0.7741   -1.4632 C   0  0  0  0  0  0  0  0  0  0  0  0
    1.5384    0.2174   -0.4957 C   0  0  0  0  0  0  0  0  0  0  0  0
    2.7974    0.7331   -0.3432 O   0  0  0  0  0  0  0  0  0  0  0  0
    3.5956   -0.1095    0.4906 C   0  0  0  0  0  0  0  0  0  0  0  0
    0.4370    0.7541    0.1914 C   0  0  0  0  0  0  0  0  0  0  0  0
   -0.8469    0.2694   -0.0801 C   0  0  0  0  0  0  0  0  0  0  0  0
   -2.0014    0.8372    0.6537 C   0  0  0  0  0  0  0  0  0  0  0  0
   -3.0514    0.2195    0.7763 O   0  0  0  0  0  0  0  0  0  0  0  0
   -1.8175    2.1807    1.2595 C   0  0  0  0  0  0  0  0  0  0  0  0
   -3.2633    3.0482    1.6456 Cl  0  0  0  0  0  0  0  0  0  0  0  0
   -0.5913    2.6436    1.5188 C   0  0  0  0  0  0  0  0  0  0  0  0
   -0.2909    4.1704    2.2742 Cl  0  0  0  0  0  0  0  0  0  0  0  0
    0.6047    1.8211    1.2049 C   0  0  0  0  0  0  0  0  0  0  0  0
    1.6727    2.0029    1.7754 O   0  0  0  0  0  0  0  0  0  0  0  0
   -2.3809   -2.4295    0.2673 H   0  0  0  0  0  0  0  0  0  0  0  0
   -3.6303   -2.6334   -0.9746 H   0  0  0  0  0  0  0  0  0  0  0  0
   -1.9948   -3.2389   -1.2895 H   0  0  0  0  0  0  0  0  0  0  0  0
   -0.0609   -2.0034   -2.5100 H   0  0  0  0  0  0  0  0  0  0  0  0
    2.2100   -1.1461   -2.0297 H   0  0  0  0  0  0  0  0  0  0  0  0
    4.5072    0.4386    0.7464 H   0  0  0  0  0  0  0  0  0  0  0  0
    3.0797   -0.3681    1.4222 H   0  0  0  0  0  0  0  0  0  0  0  0
    3.8848   -1.0192   -0.0460 H   0  0  0  0  0  0  0  0  0  0  0  0
  1  2  1  0
  2  3  1  0
  3  4  2  0
  4  5  1  0
  5  6  2  0
  6  7  1  0
  7  8  1  0
  6  9  1  0
  9 10  2  0
 10 11  1  0
 11 12  2  0
 11 13  1  0
 13 14  1  0
 13 15  2  0
 15 16  1  0
 15 17  1  0
 17 18  2  0
 10  3  1  0
 17  9  1  0
  1 19  1  0
  1 20  1  0
  1 21  1  0
  4 22  1  0
  5 23  1  0
  8 24  1  0
  8 25  1  0
  8 26  1  0
M  END
$$$$
