
     RDKit          3D

 72 77  0  0  0  0  0  0  0  0999 V2000
   -7.8017   -3.5461    0.8545 C   0  0  0  0  0  0  0  0  0  0  0  0
   -7.3968   -2.2995    0.1233 C   0  0  0  0  0  0  0  0  0  0  0  0
   -7.2630   -2.2924   -1.2653 C   0  0  0  0  0  0  0  0  0  0  0  0
   -6.9043   -1.1191   -1.9324 C   0  0  0  0  0  0  0  0  0  0  0  0
   -6.6778    0.0763   -1.2291 C   0  0  0  0  0  0  0  0  0  0  0  0
   -6.2902    1.3044   -2.0074 C   0  0  0  0  0  0  0  0  0  0  0  0
   -6.8088    0.0845    0.1762 C   0  0  0  0  0  0  0  0  0  0  0  0
   -6.6010    1.3355    1.0082 C   0  0  0  0  0  0  0  0  0  0  0  0
   -5.5759    1.1588    2.0210 N   0  0  0  0  0  0  0  0  0  0  0  0
   -5.9097    0.9210    3.3156 N   0  0  0  0  0  0  0  0  0  0  0  0
   -4.7792    0.7797    4.0081 N   0  0  0  0  0  0  0  0  0  0  0  0
   -3.7486    0.9631    3.1395 C   0  0  0  0  0  0  0  0  0  0  0  0
   -2.3268    0.9172    3.3443 C   0  0  0  0  0  0  0  0  0  0  0  0
   -1.7680    0.7027    4.4139 O   0  0  0  0  0  0  0  0  0  0  0  0
   -1.6263    1.1576    2.1686 N   0  0  0  0  0  0  0  0  0  0  0  0
   -2.2179    1.4638    0.9493 C   0  0  0  0  0  0  0  0  0  0  0  0
   -1.2780    1.7397   -0.2239 C   0  0  0  0  0  0  0  0  0  0  0  0
   -0.1812    2.7611    0.1278 C   0  0  0  0  0  0  0  0  0  0  0  0
    1.1968    2.1238    0.3181 C   0  0  0  0  0  0  0  0  0  0  0  0
    1.0209    0.8163    0.9870 N   0  0  0  0  0  0  0  0  0  0  0  0
    2.3237    0.2576    1.9473 S   0  0  0  0  0  6  0  0  0  0  0  0
    1.9282   -1.0144    2.5126 O   0  0  0  0  0  0  0  0  0  0  0  0
    2.7419    1.3580    2.7881 O   0  0  0  0  0  0  0  0  0  0  0  0
    3.6257   -0.0533    0.7713 C   0  0  0  0  0  0  0  0  0  0  0  0
    4.5361    0.9645    0.4633 C   0  0  0  0  0  0  0  0  0  0  0  0
    5.5855    0.7061   -0.4219 C   0  0  0  0  0  0  0  0  0  0  0  0
    5.7247   -0.5725   -0.9743 C   0  0  0  0  0  0  0  0  0  0  0  0
    7.0496   -0.8854   -2.1188 S   0  0  0  0  0  6  0  0  0  0  0  0
    6.7332   -2.0930   -2.8512 O   0  0  0  0  0  0  0  0  0  0  0  0
    7.3493    0.3612   -2.7910 O   0  0  0  0  0  0  0  0  0  0  0  0
    8.3023   -1.2916   -1.0462 N   0  0  0  0  0  0  0  0  0  0  0  0
    9.5723   -0.5823   -1.2740 C   0  0  0  0  0  0  0  0  0  0  0  0
   10.8544   -1.1167   -0.7004 C   0  0  0  0  0  0  0  0  0  0  0  0
   10.6266   -1.1459   -2.1843 C   0  0  0  0  0  0  0  0  0  0  0  0
    4.8207   -1.5930   -0.6608 C   0  0  0  0  0  0  0  0  0  0  0  0
    3.7761   -1.3357    0.2289 C   0  0  0  0  0  0  0  0  0  0  0  0
    0.3607   -0.2028    0.1274 C   0  0  0  0  0  0  0  0  0  0  0  0
   -0.6971    0.4366   -0.7770 C   0  0  0  0  0  0  0  0  0  0  0  0
   -3.5085    1.5070    0.7537 N   0  0  0  0  0  0  0  0  0  0  0  0
   -4.2195    1.2354    1.8762 C   0  0  0  0  0  0  0  0  0  0  0  0
   -7.1844   -1.1096    0.8298 C   0  0  0  0  0  0  0  0  0  0  0  0
   -8.8520   -3.4816    1.1580 H   0  0  0  0  0  0  0  0  0  0  0  0
   -7.6768   -4.4340    0.2254 H   0  0  0  0  0  0  0  0  0  0  0  0
   -7.1777   -3.6846    1.7439 H   0  0  0  0  0  0  0  0  0  0  0  0
   -7.4365   -3.1988   -1.8402 H   0  0  0  0  0  0  0  0  0  0  0  0
   -6.8074   -1.1463   -3.0173 H   0  0  0  0  0  0  0  0  0  0  0  0
   -5.2577    1.5889   -1.7754 H   0  0  0  0  0  0  0  0  0  0  0  0
   -6.3609    1.1323   -3.0896 H   0  0  0  0  0  0  0  0  0  0  0  0
   -6.9658    2.1355   -1.7725 H   0  0  0  0  0  0  0  0  0  0  0  0
   -6.3024    2.2027    0.4120 H   0  0  0  0  0  0  0  0  0  0  0  0
   -7.5394    1.5982    1.5117 H   0  0  0  0  0  0  0  0  0  0  0  0
   -0.6164    1.1206    2.2540 H   0  0  0  0  0  0  0  0  0  0  0  0
   -1.9027    2.1897   -1.0077 H   0  0  0  0  0  0  0  0  0  0  0  0
   -0.4552    3.3251    1.0298 H   0  0  0  0  0  0  0  0  0  0  0  0
   -0.1027    3.5045   -0.6754 H   0  0  0  0  0  0  0  0  0  0  0  0
    1.6929    1.9844   -0.6481 H   0  0  0  0  0  0  0  0  0  0  0  0
    1.8153    2.8026    0.9122 H   0  0  0  0  0  0  0  0  0  0  0  0
    4.4457    1.9479    0.9189 H   0  0  0  0  0  0  0  0  0  0  0  0
    6.2953    1.4948   -0.6664 H   0  0  0  0  0  0  0  0  0  0  0  0
    8.4134   -2.3093   -1.0558 H   0  0  0  0  0  0  0  0  0  0  0  0
    9.4536    0.4997   -1.2485 H   0  0  0  0  0  0  0  0  0  0  0  0
   10.8276   -2.0519   -0.1573 H   0  0  0  0  0  0  0  0  0  0  0  0
   11.5649   -0.3979   -0.3059 H   0  0  0  0  0  0  0  0  0  0  0  0
   10.4498   -2.1072   -2.6535 H   0  0  0  0  0  0  0  0  0  0  0  0
   11.1834   -0.4507   -2.8020 H   0  0  0  0  0  0  0  0  0  0  0  0
    4.9275   -2.5867   -1.0930 H   0  0  0  0  0  0  0  0  0  0  0  0
    3.0881   -2.1354    0.4970 H   0  0  0  0  0  0  0  0  0  0  0  0
    1.0917   -0.7216   -0.4983 H   0  0  0  0  0  0  0  0  0  0  0  0
   -0.1229   -0.9442    0.7740 H   0  0  0  0  0  0  0  0  0  0  0  0
   -0.2349    0.6559   -1.7491 H   0  0  0  0  0  0  0  0  0  0  0  0
   -1.4914   -0.2936   -0.9771 H   0  0  0  0  0  0  0  0  0  0  0  0
   -7.3104   -1.1178    1.9148 H   0  0  0  0  0  0  0  0  0  0  0  0
  1  2  1  0
  2  3  2  0
  3  4  1  0
  4  5  2  0
  5  6  1  0
  5  7  1  0
  7  8  1  0
  8  9  1  0
  9 10  1  0
 10 11  2  0
 11 12  1  0
 12 13  1  0
 13 14  2  0
 13 15  1  0
 15 16  1  0
 16 17  1  0
 17 18  1  0
 18 19  1  0
 19 20  1  0
 20 21  1  0
 21 22  2  0
 21 23  2  0
 21 24  1  0
 24 25  2  0
 25 26  1  0
 26 27  2  0
 27 28  1  0
 28 29  2  0
 28 30  2  0
 28 31  1  0
 31 32  1  0
 32 33  1  0
 33 34  1  0
 27 35  1  0
 35 36  2  0
 20 37  1  0
 37 38  1  0
 16 39  2  0
 39 40  1  0
  7 41  2  0
 41  2  1  0
 40  9  1  0
 40 12  2  0
 38 17  1  0
 36 24  1  0
 34 32  1  0
  1 42  1  0
  1 43  1  0
  1 44  1  0
  3 45  1  0
  4 46  1  0
  6 47  1  0
  6 48  1  0
  6 49  1  0
  8 50  1  0
  8 51  1  0
 15 52  1  0
 17 53  1  0
 18 54  1  0
 18 55  1  0
 19 56  1  0
 19 57  1  0
 25 58  1  0
 26 59  1  0
 31 60  1  0
 32 61  1  0
 33 62  1  0
 33 63  1  0
 34 64  1  0
 34 65  1  0
 35 66  1  0
 36 67  1  0
 37 68  1  0
 37 69  1  0
 38 70  1  0
 38 71  1  0
 41 72  1  0
M  END
$$$$
