
     RDKit          3D

 61 64  0  0  0  0  0  0  0  0999 V2000
   -5.0685   -1.7808   -3.7113 C   0  0  0  0  0  0  0  0  0  0  0  0
   -6.1586   -1.7138   -2.7998 O   0  0  0  0  0  0  0  0  0  0  0  0
   -5.9485   -1.0547   -1.6184 C   0  0  0  0  0  0  0  0  0  0  0  0
   -7.0840   -0.9483   -0.8039 C   0  0  0  0  0  0  0  0  0  0  0  0
   -7.0244   -0.2893    0.4250 C   0  0  0  0  0  0  0  0  0  0  0  0
   -8.0630   -0.1170    1.2976 O   0  0  0  0  0  0  0  0  0  0  0  0
   -9.3210   -0.6641    0.9205 C   0  0  0  0  0  0  0  0  0  0  0  0
   -5.8130    0.2584    0.8453 C   0  0  0  0  0  0  0  0  0  0  0  0
   -4.6681    0.1352    0.0513 C   0  0  0  0  0  0  0  0  0  0  0  0
   -3.3937    0.7199    0.5506 C   0  0  0  0  0  0  0  0  0  0  0  0
   -3.4317    1.7501    1.2132 O   0  0  0  0  0  0  0  0  0  0  0  0
   -2.2565   -0.0166    0.2313 N   0  0  0  0  0  0  0  0  0  0  0  0
   -0.9958    0.2352    0.7102 N   0  0  0  0  0  0  0  0  0  0  0  0
   -0.6411    1.4724    0.8666 C   0  0  0  0  0  0  0  0  0  0  0  0
    0.6795    1.8330    1.4233 C   0  0  0  0  0  0  0  0  0  0  0  0
    1.0129    3.1803    1.5496 C   0  0  0  0  0  0  0  0  0  0  0  0
    2.2573    3.5420    2.0741 C   0  0  0  0  0  0  0  0  0  0  0  0
    3.1779    2.5616    2.4636 C   0  0  0  0  0  0  0  0  0  0  0  0
    4.4012    2.8349    3.0171 O   0  0  0  0  0  0  0  0  0  0  0  0
    4.9283    4.1403    2.8022 C   0  0  0  0  0  0  0  0  0  0  0  0
    2.8446    1.1994    2.3382 C   0  0  0  0  0  0  0  0  0  0  0  0
    3.8123    0.1111    2.7520 C   0  0  0  0  0  0  0  0  0  0  0  0
    5.0240    0.1306    1.9942 O   0  0  0  0  0  0  0  0  0  0  0  0
    5.0810   -0.4952    0.7824 C   0  0  0  0  0  0  0  0  0  0  0  0
    6.3098   -0.3695    0.1307 C   0  0  0  0  0  0  0  0  0  0  0  0
    6.5218   -0.9559   -1.1188 C   0  0  0  0  0  0  0  0  0  0  0  0
    5.4992   -1.6804   -1.7457 C   0  0  0  0  0  0  0  0  0  0  0  0
    5.6879   -2.2742   -3.0046 C   0  0  0  0  0  0  0  0  0  0  0  0
    4.6573   -2.9874   -3.6181 C   0  0  0  0  0  0  0  0  0  0  0  0
    3.4266   -3.1160   -2.9809 C   0  0  0  0  0  0  0  0  0  0  0  0
    3.2247   -2.5339   -1.7276 C   0  0  0  0  0  0  0  0  0  0  0  0
    4.2515   -1.8128   -1.0952 C   0  0  0  0  0  0  0  0  0  0  0  0
    4.0603   -1.2203    0.1682 C   0  0  0  0  0  0  0  0  0  0  0  0
    1.5838    0.8471    1.8248 C   0  0  0  0  0  0  0  0  0  0  0  0
   -4.7377   -0.5108   -1.1911 C   0  0  0  0  0  0  0  0  0  0  0  0
   -5.4118   -2.3111   -4.6042 H   0  0  0  0  0  0  0  0  0  0  0  0
   -4.2347   -2.3491   -3.2868 H   0  0  0  0  0  0  0  0  0  0  0  0
   -4.7491   -0.7797   -4.0194 H   0  0  0  0  0  0  0  0  0  0  0  0
   -8.0088   -1.3866   -1.1662 H   0  0  0  0  0  0  0  0  0  0  0  0
  -10.0364   -0.4391    1.7179 H   0  0  0  0  0  0  0  0  0  0  0  0
   -9.6921   -0.2022   -0.0006 H   0  0  0  0  0  0  0  0  0  0  0  0
   -9.2632   -1.7535    0.8226 H   0  0  0  0  0  0  0  0  0  0  0  0
   -5.7606    0.7769    1.8010 H   0  0  0  0  0  0  0  0  0  0  0  0
   -2.3919   -0.9900   -0.0244 H   0  0  0  0  0  0  0  0  0  0  0  0
   -1.2818    2.3199    0.5683 H   0  0  0  0  0  0  0  0  0  0  0  0
    0.3115    3.9572    1.2558 H   0  0  0  0  0  0  0  0  0  0  0  0
    2.4745    4.5997    2.1821 H   0  0  0  0  0  0  0  0  0  0  0  0
    5.9732    4.1357    3.1256 H   0  0  0  0  0  0  0  0  0  0  0  0
    4.9091    4.4129    1.7405 H   0  0  0  0  0  0  0  0  0  0  0  0
    4.3956    4.8794    3.4106 H   0  0  0  0  0  0  0  0  0  0  0  0
    3.3531   -0.8848    2.7528 H   0  0  0  0  0  0  0  0  0  0  0  0
    4.0893    0.2879    3.7990 H   0  0  0  0  0  0  0  0  0  0  0  0
    7.1122    0.1940    0.6018 H   0  0  0  0  0  0  0  0  0  0  0  0
    7.4914   -0.8383   -1.5971 H   0  0  0  0  0  0  0  0  0  0  0  0
    6.6429   -2.1833   -3.5179 H   0  0  0  0  0  0  0  0  0  0  0  0
    4.8164   -3.4403   -4.5937 H   0  0  0  0  0  0  0  0  0  0  0  0
    2.6223   -3.6690   -3.4585 H   0  0  0  0  0  0  0  0  0  0  0  0
    2.2548   -2.6437   -1.2470 H   0  0  0  0  0  0  0  0  0  0  0  0
    3.0966   -1.3453    0.6474 H   0  0  0  0  0  0  0  0  0  0  0  0
    1.3031   -0.1996    1.7375 H   0  0  0  0  0  0  0  0  0  0  0  0
   -3.8522   -0.5588   -1.8155 H   0  0  0  0  0  0  0  0  0  0  0  0
  1  2  1  0
  2  3  1  0
  3  4  2  0
  4  5  1  0
  5  6  1  0
  6  7  1  0
  5  8  2  0
  8  9  1  0
  9 10  1  0
 10 11  2  0
 10 12  1  0
 12 13  1  0
 13 14  2  3
 14 15  1  0
 15 16  2  0
 16 17  1  0
 17 18  2  0
 18 19  1  0
 19 20  1  0
 18 21  1  0
 21 22  1  0
 22 23  1  0
 23 24  1  0
 24 25  2  0
 25 26  1  0
 26 27  2  0
 27 28  1  0
 28 29  2  0
 29 30  1  0
 30 31  2  0
 31 32  1  0
 32 33  2  0
 21 34  2  0
  9 35  2  0
 35  3  1  0
 34 15  1  0
 33 24  1  0
 32 27  1  0
  1 36  1  0
  1 37  1  0
  1 38  1  0
  4 39  1  0
  7 40  1  0
  7 41  1  0
  7 42  1  0
  8 43  1  0
 12 44  1  0
 14 45  1  0
 16 46  1  0
 17 47  1  0
 20 48  1  0
 20 49  1  0
 20 50  1  0
 22 51  1  0
 22 52  1  0
 25 53  1  0
 26 54  1  0
 28 55  1  0
 29 56  1  0
 30 57  1  0
 31 58  1  0
 33 59  1  0
 34 60  1  0
 35 61  1  0
M  END
$$$$
