
     RDKit          3D

 57 59  0  0  0  0  0  0  0  0999 V2000
   -3.4746    1.3521   -1.3718 C   0  0  0  0  0  0  0  0  0  0  0  0
   -2.3182    1.0173   -2.1839 N   0  0  0  0  0  0  0  0  0  0  0  0
   -1.4903   -0.0427   -1.9619 C   0  0  0  0  0  0  0  0  0  0  0  0
   -0.9204   -0.8346   -3.3271 S   0  0  0  0  0  0  0  0  0  0  0  0
   -1.1663   -0.3563   -0.6536 N   0  0  0  0  0  0  0  0  0  0  0  0
   -0.8967   -1.7481   -0.2246 C   0  0  0  0  0  0  0  0  0  0  0  0
   -1.9736   -2.3245    0.7124 C   0  0  0  0  0  0  0  0  0  0  0  0
   -3.3706   -2.3677    0.1378 C   0  0  0  0  0  0  0  0  0  0  0  0
   -3.6383   -3.0252   -1.0698 C   0  0  0  0  0  0  0  0  0  0  0  0
   -4.9341   -3.0677   -1.5815 C   0  0  0  0  0  0  0  0  0  0  0  0
   -5.9790   -2.4593   -0.8904 C   0  0  0  0  0  0  0  0  0  0  0  0
   -5.7361   -1.7962    0.3169 C   0  0  0  0  0  0  0  0  0  0  0  0
   -6.8676   -1.1727    1.0805 C   0  0  0  0  0  0  0  0  0  0  0  0
   -4.4346   -1.7722    0.8329 C   0  0  0  0  0  0  0  0  0  0  0  0
   -0.9290    0.7024    0.3485 C   0  0  0  0  0  0  0  0  0  0  0  0
    0.5364    0.9690    0.5905 C   0  0  0  0  0  0  0  0  0  0  0  0
    1.5614    0.6206   -0.2092 C   0  0  0  0  0  0  0  0  0  0  0  0
    2.9452    0.9478    0.1369 C   0  0  0  0  0  0  0  0  0  0  0  0
    4.0108    0.5698   -0.6854 C   0  0  0  0  0  0  0  0  0  0  0  0
    5.3241    0.9029   -0.3352 C   0  0  0  0  0  0  0  0  0  0  0  0
    6.4303    0.5753   -1.0797 O   0  0  0  0  0  0  0  0  0  0  0  0
    6.2359   -0.2207   -2.2394 C   0  0  0  0  0  0  0  0  0  0  0  0
    5.5694    1.6338    0.8476 C   0  0  0  0  0  0  0  0  0  0  0  0
    6.8855    1.9203    1.1161 O   0  0  0  0  0  0  0  0  0  0  0  0
    7.1562    2.8686    2.1385 C   0  0  0  0  0  0  0  0  0  0  0  0
    4.5013    2.0008    1.6738 C   0  0  0  0  0  0  0  0  0  0  0  0
    3.1993    1.6556    1.3127 C   0  0  0  0  0  0  0  0  0  0  0  0
    2.1254    2.0184    2.1333 N   0  0  0  0  0  0  0  0  0  0  0  0
    0.8183    1.7229    1.8526 C   0  0  0  0  0  0  0  0  0  0  0  0
   -0.0844    2.0675    2.6105 O   0  0  0  0  0  0  0  0  0  0  0  0
   -4.3682    1.2202   -1.9868 H   0  0  0  0  0  0  0  0  0  0  0  0
   -3.5511    0.7201   -0.4869 H   0  0  0  0  0  0  0  0  0  0  0  0
   -3.3966    2.4030   -1.0849 H   0  0  0  0  0  0  0  0  0  0  0  0
   -2.4465    1.1897   -3.1744 H   0  0  0  0  0  0  0  0  0  0  0  0
    0.0720   -1.7731    0.2872 H   0  0  0  0  0  0  0  0  0  0  0  0
   -0.8002   -2.4085   -1.0895 H   0  0  0  0  0  0  0  0  0  0  0  0
   -1.6913   -3.3487    0.9869 H   0  0  0  0  0  0  0  0  0  0  0  0
   -1.9776   -1.7554    1.6491 H   0  0  0  0  0  0  0  0  0  0  0  0
   -2.8419   -3.5115   -1.6261 H   0  0  0  0  0  0  0  0  0  0  0  0
   -5.1287   -3.5798   -2.5206 H   0  0  0  0  0  0  0  0  0  0  0  0
   -6.9858   -2.5093   -1.2978 H   0  0  0  0  0  0  0  0  0  0  0  0
   -7.6309   -0.7884    0.3970 H   0  0  0  0  0  0  0  0  0  0  0  0
   -6.5172   -0.3276    1.6811 H   0  0  0  0  0  0  0  0  0  0  0  0
   -7.3238   -1.9141    1.7447 H   0  0  0  0  0  0  0  0  0  0  0  0
   -4.2465   -1.2743    1.7826 H   0  0  0  0  0  0  0  0  0  0  0  0
   -1.4368    0.4008    1.2677 H   0  0  0  0  0  0  0  0  0  0  0  0
   -1.3653    1.6488    0.0274 H   0  0  0  0  0  0  0  0  0  0  0  0
    1.3929    0.0941   -1.1431 H   0  0  0  0  0  0  0  0  0  0  0  0
    3.7952    0.0212   -1.5960 H   0  0  0  0  0  0  0  0  0  0  0  0
    5.7774   -1.1823   -1.9885 H   0  0  0  0  0  0  0  0  0  0  0  0
    7.2194   -0.4251   -2.6737 H   0  0  0  0  0  0  0  0  0  0  0  0
    5.6451    0.3154   -2.9896 H   0  0  0  0  0  0  0  0  0  0  0  0
    8.2315    3.0764    2.1263 H   0  0  0  0  0  0  0  0  0  0  0  0
    6.9073    2.4613    3.1248 H   0  0  0  0  0  0  0  0  0  0  0  0
    6.6319    3.8143    1.9550 H   0  0  0  0  0  0  0  0  0  0  0  0
    4.6654    2.5439    2.5972 H   0  0  0  0  0  0  0  0  0  0  0  0
    2.2845    2.5317    2.9889 H   0  0  0  0  0  0  0  0  0  0  0  0
  1  2  1  0
  2  3  1  0
  3  4  2  0
  3  5  1  0
  5  6  1  0
  6  7  1  0
  7  8  1  0
  8  9  2  0
  9 10  1  0
 10 11  2  0
 11 12  1  0
 12 13  1  0
 12 14  2  0
  5 15  1  0
 15 16  1  0
 16 17  2  0
 17 18  1  0
 18 19  2  0
 19 20  1  0
 20 21  1  0
 21 22  1  0
 20 23  2  0
 23 24  1  0
 24 25  1  0
 23 26  1  0
 26 27  2  0
 27 28  1  0
 28 29  1  0
 29 30  2  0
 14  8  1  0
 29 16  1  0
 27 18  1  0
  1 31  1  0
  1 32  1  0
  1 33  1  0
  2 34  1  0
  6 35  1  0
  6 36  1  0
  7 37  1  0
  7 38  1  0
  9 39  1  0
 10 40  1  0
 11 41  1  0
 13 42  1  0
 13 43  1  0
 13 44  1  0
 14 45  1  0
 15 46  1  0
 15 47  1  0
 17 48  1  0
 19 49  1  0
 22 50  1  0
 22 51  1  0
 22 52  1  0
 25 53  1  0
 25 54  1  0
 25 55  1  0
 26 56  1  0
 28 57  1  0
M  END
$$$$
