
     RDKit          3D

 44 45  0  0  0  0  0  0  0  0999 V2000
   -6.8900   -0.5953    2.8990 C   0  0  0  0  0  0  0  0  0  0  0  0
   -5.9317   -0.2981    1.7596 C   0  0  0  0  0  0  0  0  0  0  0  0
   -4.9787   -1.4607    1.5055 C   0  0  0  0  0  0  0  0  0  0  0  0
   -4.1262   -1.1611    0.3887 O   0  0  0  0  0  0  0  0  0  0  0  0
   -2.9904   -0.4804    0.6792 C   0  0  0  0  0  0  0  0  0  0  0  0
   -2.6406   -0.1037    1.7867 O   0  0  0  0  0  0  0  0  0  0  0  0
   -2.1949   -0.2345   -0.5537 C   0  0  0  0  0  0  0  0  0  0  0  0
   -2.6129   -0.6651   -1.8172 C   0  0  0  0  0  0  0  0  0  0  0  0
   -1.8223   -0.4026   -2.9356 C   0  0  0  0  0  0  0  0  0  0  0  0
   -0.6140    0.2879   -2.8000 C   0  0  0  0  0  0  0  0  0  0  0  0
   -0.1829    0.7224   -1.5459 C   0  0  0  0  0  0  0  0  0  0  0  0
    1.0184    1.4217   -1.3259 N   0  0  0  0  0  0  0  0  0  0  0  0
    1.9927    1.7563   -2.2501 C   0  0  0  0  0  0  0  0  0  0  0  0
    1.9808    1.5115   -3.4526 O   0  0  0  0  0  0  0  0  0  0  0  0
    3.1536    2.5372   -1.6221 C   0  0  0  0  0  0  0  0  0  0  0  0
    3.3456    2.2959   -0.2322 O   0  0  0  0  0  0  0  0  0  0  0  0
    4.0264    1.1682    0.1372 C   0  0  0  0  0  0  0  0  0  0  0  0
    4.4374    0.1370   -0.7109 C   0  0  0  0  0  0  0  0  0  0  0  0
    5.1156   -0.9735   -0.1930 C   0  0  0  0  0  0  0  0  0  0  0  0
    5.3795   -1.0500    1.1803 C   0  0  0  0  0  0  0  0  0  0  0  0
    6.0918   -2.2134    1.7235 N   0  0  0  0  0  4  0  0  0  0  0  0
    6.2977   -2.2442    2.9451 O   0  0  0  0  0  0  0  0  0  0  0  0
    6.4458   -3.0952    0.9281 O   0  0  0  0  0  1  0  0  0  0  0  0
    4.9672   -0.0244    2.0373 C   0  0  0  0  0  0  0  0  0  0  0  0
    4.2908    1.0783    1.5087 C   0  0  0  0  0  0  0  0  0  0  0  0
   -0.9808    0.4584   -0.4260 C   0  0  0  0  0  0  0  0  0  0  0  0
   -6.3460   -0.7774    3.8313 H   0  0  0  0  0  0  0  0  0  0  0  0
   -7.5638    0.2523    3.0589 H   0  0  0  0  0  0  0  0  0  0  0  0
   -7.5000   -1.4771    2.6788 H   0  0  0  0  0  0  0  0  0  0  0  0
   -6.4962   -0.0809    0.8449 H   0  0  0  0  0  0  0  0  0  0  0  0
   -5.3628    0.6112    1.9850 H   0  0  0  0  0  0  0  0  0  0  0  0
   -5.5452   -2.3594    1.2382 H   0  0  0  0  0  0  0  0  0  0  0  0
   -4.3895   -1.7079    2.3968 H   0  0  0  0  0  0  0  0  0  0  0  0
   -3.5483   -1.2035   -1.9476 H   0  0  0  0  0  0  0  0  0  0  0  0
   -2.1445   -0.7349   -3.9200 H   0  0  0  0  0  0  0  0  0  0  0  0
   -0.0332    0.4717   -3.6990 H   0  0  0  0  0  0  0  0  0  0  0  0
    1.2311    1.6750   -0.3648 H   0  0  0  0  0  0  0  0  0  0  0  0
    4.0764    2.3703   -2.1898 H   0  0  0  0  0  0  0  0  0  0  0  0
    2.9063    3.5997   -1.7293 H   0  0  0  0  0  0  0  0  0  0  0  0
    4.2448    0.1529   -1.7801 H   0  0  0  0  0  0  0  0  0  0  0  0
    5.4261   -1.7658   -0.8721 H   0  0  0  0  0  0  0  0  0  0  0  0
    5.1612   -0.0653    3.1071 H   0  0  0  0  0  0  0  0  0  0  0  0
    3.9701    1.8777    2.1743 H   0  0  0  0  0  0  0  0  0  0  0  0
   -0.6646    0.7888    0.5618 H   0  0  0  0  0  0  0  0  0  0  0  0
  1  2  1  0
  2  3  1  0
  3  4  1  0
  4  5  1  0
  5  6  2  0
  5  7  1  0
  7  8  2  0
  8  9  1  0
  9 10  2  0
 10 11  1  0
 11 12  1  0
 12 13  1  0
 13 14  2  0
 13 15  1  0
 15 16  1  0
 16 17  1  0
 17 18  2  0
 18 19  1  0
 19 20  2  0
 20 21  1  0
 21 22  2  0
 21 23  1  0
 20 24  1  0
 24 25  2  0
 11 26  2  0
 26  7  1  0
 25 17  1  0
  1 27  1  0
  1 28  1  0
  1 29  1  0
  2 30  1  0
  2 31  1  0
  3 32  1  0
  3 33  1  0
  8 34  1  0
  9 35  1  0
 10 36  1  0
 12 37  1  0
 15 38  1  0
 15 39  1  0
 18 40  1  0
 19 41  1  0
 24 42  1  0
 25 43  1  0
 26 44  1  0
M  CHG  2  21   1  23  -1
M  END
$$$$
