
     RDKit          3D

 50 53  0  0  0  0  0  0  0  0999 V2000
    7.8414    2.4459    0.1351 C   0  0  0  0  0  0  0  0  0  0  0  0
    6.4931    2.8993    0.1608 O   0  0  0  0  0  0  0  0  0  0  0  0
    5.5211    1.9432    0.0675 C   0  0  0  0  0  0  0  0  0  0  0  0
    4.2158    2.4208    0.1830 C   0  0  0  0  0  0  0  0  0  0  0  0
    3.1222    1.5477    0.1121 C   0  0  0  0  0  0  0  0  0  0  0  0
    3.3014    0.1672   -0.0859 C   0  0  0  0  0  0  0  0  0  0  0  0
    2.1668   -0.7825   -0.1565 C   0  0  0  0  0  0  0  0  0  0  0  0
    0.8865   -0.4160   -0.5354 C   0  0  0  0  0  0  0  0  0  0  0  0
   -0.1104   -1.3937   -0.5464 C   0  0  0  0  0  0  0  0  0  0  0  0
   -1.4767   -0.9697   -0.9261 C   0  0  0  0  0  0  0  0  0  0  0  0
   -1.9656   -1.4271   -1.9489 O   0  0  0  0  0  0  0  0  0  0  0  0
   -2.0412   -0.0820   -0.0311 N   0  0  0  0  0  0  0  0  0  0  0  0
   -3.3174    0.5154   -0.1079 C   0  0  0  0  0  0  0  0  0  0  0  0
   -4.2113    0.3070   -1.1527 C   0  0  0  0  0  0  0  0  0  0  0  0
   -5.4703    0.9144   -1.1321 C   0  0  0  0  0  0  0  0  0  0  0  0
   -5.8491    1.7625   -0.0786 C   0  0  0  0  0  0  0  0  0  0  0  0
   -7.2369    2.3436   -0.0761 C   0  0  0  0  0  0  0  0  0  0  0  0
   -4.9325    2.0250    0.9522 C   0  0  0  0  0  0  0  0  0  0  0  0
   -5.3008    2.7523    2.0971 N   0  0  0  0  0  0  0  0  0  0  0  0
   -3.6955    1.3604    0.9454 C   0  0  0  0  0  0  0  0  0  0  0  0
    0.1672   -2.7309   -0.2046 C   0  0  0  0  0  0  0  0  0  0  0  0
   -0.7855   -3.7800   -0.1914 C   0  0  0  0  0  0  0  0  0  0  0  0
   -0.4214   -5.0746    0.1728 C   0  0  0  0  0  0  0  0  0  0  0  0
    0.8936   -5.3383    0.5281 C   0  0  0  0  0  0  0  0  0  0  0  0
    1.8337   -4.3052    0.5159 C   0  0  0  0  0  0  0  0  0  0  0  0
    1.4956   -3.0066    0.1581 C   0  0  0  0  0  0  0  0  0  0  0  0
    2.4546   -2.0642    0.1837 N   0  0  0  0  0  0  0  0  0  0  0  0
    4.6283   -0.2903   -0.2009 C   0  0  0  0  0  0  0  0  0  0  0  0
    5.7246    0.5810   -0.1274 C   0  0  0  0  0  0  0  0  0  0  0  0
    8.0470    1.7743    0.9763 H   0  0  0  0  0  0  0  0  0  0  0  0
    8.4902    3.3208    0.2412 H   0  0  0  0  0  0  0  0  0  0  0  0
    8.0812    1.9676   -0.8213 H   0  0  0  0  0  0  0  0  0  0  0  0
    4.0459    3.4842    0.3390 H   0  0  0  0  0  0  0  0  0  0  0  0
    2.1299    1.9752    0.2337 H   0  0  0  0  0  0  0  0  0  0  0  0
    0.6558    0.5971   -0.8455 H   0  0  0  0  0  0  0  0  0  0  0  0
   -1.5019    0.1401    0.7961 H   0  0  0  0  0  0  0  0  0  0  0  0
   -3.9733   -0.3407   -1.9910 H   0  0  0  0  0  0  0  0  0  0  0  0
   -6.1625    0.7036   -1.9460 H   0  0  0  0  0  0  0  0  0  0  0  0
   -7.7649    2.1344   -1.0135 H   0  0  0  0  0  0  0  0  0  0  0  0
   -7.2004    3.4297    0.0412 H   0  0  0  0  0  0  0  0  0  0  0  0
   -7.8236    1.9107    0.7403 H   0  0  0  0  0  0  0  0  0  0  0  0
   -4.5109    3.1635    2.5883 H   0  0  0  0  0  0  0  0  0  0  0  0
   -6.0344    3.4335    1.9344 H   0  0  0  0  0  0  0  0  0  0  0  0
   -3.0245    1.5050    1.7872 H   0  0  0  0  0  0  0  0  0  0  0  0
   -1.8201   -3.5936   -0.4762 H   0  0  0  0  0  0  0  0  0  0  0  0
   -1.1610   -5.8708    0.1741 H   0  0  0  0  0  0  0  0  0  0  0  0
    1.1944   -6.3429    0.8138 H   0  0  0  0  0  0  0  0  0  0  0  0
    2.8630   -4.5200    0.7960 H   0  0  0  0  0  0  0  0  0  0  0  0
    4.8211   -1.3523   -0.3515 H   0  0  0  0  0  0  0  0  0  0  0  0
    6.7178    0.1557   -0.2266 H   0  0  0  0  0  0  0  0  0  0  0  0
  1  2  1  0
  2  3  1  0
  3  4  2  0
  4  5  1  0
  5  6  2  0
  6  7  1  0
  7  8  2  0
  8  9  1  0
  9 10  1  0
 10 11  2  0
 10 12  1  0
 12 13  1  0
 13 14  2  0
 14 15  1  0
 15 16  2  0
 16 17  1  0
 16 18  1  0
 18 19  1  0
 18 20  2  0
  9 21  2  0
 21 22  1  0
 22 23  2  0
 23 24  1  0
 24 25  2  0
 25 26  1  0
 26 27  2  0
  6 28  1  0
 28 29  2  0
 29  3  1  0
 27  7  1  0
 20 13  1  0
 26 21  1  0
  1 30  1  0
  1 31  1  0
  1 32  1  0
  4 33  1  0
  5 34  1  0
  8 35  1  0
 12 36  1  0
 14 37  1  0
 15 38  1  0
 17 39  1  0
 17 40  1  0
 17 41  1  0
 19 42  1  0
 19 43  1  0
 20 44  1  0
 22 45  1  0
 23 46  1  0
 24 47  1  0
 25 48  1  0
 28 49  1  0
 29 50  1  0
M  END
$$$$
