
     RDKit          3D

 44 46  0  0  0  0  0  0  0  0999 V2000
   -6.9996    0.7637    0.2423 C   0  0  0  0  0  0  0  0  0  0  0  0
   -5.6308    0.3118   -0.1749 C   0  0  0  0  0  0  0  0  0  0  0  0
   -5.2749    0.2894   -1.5296 C   0  0  0  0  0  0  0  0  0  0  0  0
   -3.9921   -0.1078   -1.9329 C   0  0  0  0  0  0  0  0  0  0  0  0
   -3.6479   -0.1364   -3.3937 C   0  0  0  0  0  0  0  0  0  0  0  0
   -3.0499   -0.4376   -0.9473 C   0  0  0  0  0  0  0  0  0  0  0  0
   -1.7802   -0.8048   -1.3146 O   0  0  0  0  0  0  0  0  0  0  0  0
   -0.9350    0.3378   -1.4226 C   0  0  0  0  0  0  0  0  0  0  0  0
    0.4623    0.0817   -0.8442 C   0  0  0  0  0  0  0  0  0  0  0  0
    0.7272   -0.9144   -0.1792 O   0  0  0  0  0  0  0  0  0  0  0  0
    1.3317    1.1118   -1.1590 N   0  0  0  0  0  0  0  0  0  0  0  0
    2.6334    1.1234   -0.7436 C   0  0  0  0  0  0  0  0  0  0  0  0
    3.2835    0.2489   -0.0255 N   0  0  0  0  0  0  0  0  0  0  0  0
    4.5942    0.6741    0.1562 C   0  0  0  0  0  0  0  0  0  0  0  0
    5.5619   -0.1075    0.9225 C   0  0  0  0  0  0  0  0  0  0  0  0
    5.1941   -1.3287    1.4813 C   0  0  0  0  0  0  0  0  0  0  0  0
    6.1409   -2.0485    2.2057 C   0  0  0  0  0  0  0  0  0  0  0  0
    7.4219   -1.5310    2.3517 C   0  0  0  0  0  0  0  0  0  0  0  0
    7.7055   -0.3092    1.7639 C   0  0  0  0  0  0  0  0  0  0  0  0
    6.8105    0.4137    1.0548 N   0  0  0  0  0  0  0  0  0  0  0  0
    4.8946    1.8844   -0.4441 C   0  0  0  0  0  0  0  0  0  0  0  0
    3.5103    2.4972   -1.2518 S   0  0  0  0  0  0  0  0  0  0  0  0
   -3.3916   -0.4508    0.4140 C   0  0  0  0  0  0  0  0  0  0  0  0
   -2.3941   -0.8475    1.4653 C   0  0  0  0  0  0  0  0  0  0  0  0
   -4.6814   -0.0507    0.7887 C   0  0  0  0  0  0  0  0  0  0  0  0
   -7.3070    0.2731    1.1722 H   0  0  0  0  0  0  0  0  0  0  0  0
   -7.0060    1.8476    0.3941 H   0  0  0  0  0  0  0  0  0  0  0  0
   -7.7436    0.5084   -0.5195 H   0  0  0  0  0  0  0  0  0  0  0  0
   -6.0104    0.5742   -2.2797 H   0  0  0  0  0  0  0  0  0  0  0  0
   -4.5505   -0.1972   -4.0116 H   0  0  0  0  0  0  0  0  0  0  0  0
   -3.1029    0.7718   -3.6689 H   0  0  0  0  0  0  0  0  0  0  0  0
   -3.0366   -1.0122   -3.6348 H   0  0  0  0  0  0  0  0  0  0  0  0
   -1.3417    1.2188   -0.9065 H   0  0  0  0  0  0  0  0  0  0  0  0
   -0.8255    0.5743   -2.4875 H   0  0  0  0  0  0  0  0  0  0  0  0
    1.0315    1.9005   -1.7110 H   0  0  0  0  0  0  0  0  0  0  0  0
    4.1864   -1.7160    1.3554 H   0  0  0  0  0  0  0  0  0  0  0  0
    5.8763   -3.0040    2.6501 H   0  0  0  0  0  0  0  0  0  0  0  0
    8.1812   -2.0671    2.9102 H   0  0  0  0  0  0  0  0  0  0  0  0
    8.6930    0.1351    1.8511 H   0  0  0  0  0  0  0  0  0  0  0  0
    5.8356    2.4168   -0.4442 H   0  0  0  0  0  0  0  0  0  0  0  0
   -2.8876   -1.0633    2.4190 H   0  0  0  0  0  0  0  0  0  0  0  0
   -1.8592   -1.7558    1.1696 H   0  0  0  0  0  0  0  0  0  0  0  0
   -1.6754   -0.0383    1.6273 H   0  0  0  0  0  0  0  0  0  0  0  0
   -4.9524   -0.0294    1.8428 H   0  0  0  0  0  0  0  0  0  0  0  0
  1  2  1  0
  2  3  2  0
  3  4  1  0
  4  5  1  0
  4  6  2  0
  6  7  1  0
  7  8  1  0
  8  9  1  0
  9 10  2  0
  9 11  1  0
 11 12  1  0
 12 13  2  0
 13 14  1  0
 14 15  1  0
 15 16  2  0
 16 17  1  0
 17 18  2  0
 18 19  1  0
 19 20  2  0
 14 21  2  0
 21 22  1  0
  6 23  1  0
 23 24  1  0
 23 25  2  0
 25  2  1  0
 22 12  1  0
 20 15  1  0
  1 26  1  0
  1 27  1  0
  1 28  1  0
  3 29  1  0
  5 30  1  0
  5 31  1  0
  5 32  1  0
  8 33  1  0
  8 34  1  0
 11 35  1  0
 16 36  1  0
 17 37  1  0
 18 38  1  0
 19 39  1  0
 21 40  1  0
 24 41  1  0
 24 42  1  0
 24 43  1  0
 25 44  1  0
M  END
$$$$
