
     RDKit          3D

 32 32  0  0  0  0  0  0  0  0999 V2000
   -1.2316    1.7163   -5.2111 C   0  0  0  0  0  0  0  0  0  0  0  0
   -1.4719    1.0305   -4.2497 C   0  0  0  0  0  0  0  0  0  0  0  0
   -1.7613    0.1775   -3.0759 C   0  0  0  0  0  0  0  0  0  0  0  0
   -1.6622    0.8644   -1.7741 N   0  0  0  0  0  0  0  0  0  0  0  0
   -2.6812    1.9019   -1.6353 C   0  0  0  0  0  0  0  0  0  0  0  0
   -0.3020    1.3652   -1.5166 C   0  0  0  0  0  0  0  0  0  0  0  0
   -0.0201    1.6216   -0.0267 C   0  0  0  0  0  0  0  0  0  0  0  0
   -0.0851    0.3511    0.8243 C   0  0  0  0  0  0  0  0  0  0  0  0
    0.9682   -0.5315    0.4052 O   0  0  0  0  0  0  0  0  0  0  0  0
    1.4172   -1.3063    1.4457 C   0  0  0  0  0  0  0  0  0  0  0  0
    2.5957   -0.8955    2.0743 C   0  0  0  0  0  0  0  0  0  0  0  0
    3.1209   -1.6565    3.1157 C   0  0  0  0  0  0  0  0  0  0  0  0
    4.5650   -1.1470    3.8972 Cl  0  0  0  0  0  0  0  0  0  0  0  0
    2.4831   -2.8285    3.5296 C   0  0  0  0  0  0  0  0  0  0  0  0
    1.3118   -3.2487    2.8897 C   0  0  0  0  0  0  0  0  0  0  0  0
    0.7825   -2.4943    1.8371 C   0  0  0  0  0  0  0  0  0  0  0  0
   -0.6410   -3.0756    1.0509 Cl  0  0  0  0  0  0  0  0  0  0  0  0
   -1.0160    2.3190   -6.0653 H   0  0  0  0  0  0  0  0  0  0  0  0
   -1.0841   -0.6843   -3.0718 H   0  0  0  0  0  0  0  0  0  0  0  0
   -2.7644   -0.2538   -3.1823 H   0  0  0  0  0  0  0  0  0  0  0  0
   -2.7170    2.2785   -0.6053 H   0  0  0  0  0  0  0  0  0  0  0  0
   -3.6779    1.4922   -1.8405 H   0  0  0  0  0  0  0  0  0  0  0  0
   -2.5141    2.7552   -2.3054 H   0  0  0  0  0  0  0  0  0  0  0  0
    0.4352    0.6338   -1.8716 H   0  0  0  0  0  0  0  0  0  0  0  0
   -0.1134    2.2923   -2.0797 H   0  0  0  0  0  0  0  0  0  0  0  0
    0.9907    2.0496    0.0490 H   0  0  0  0  0  0  0  0  0  0  0  0
   -0.7111    2.3709    0.3783 H   0  0  0  0  0  0  0  0  0  0  0  0
    0.0202    0.6292    1.8846 H   0  0  0  0  0  0  0  0  0  0  0  0
   -1.0496   -0.1500    0.6957 H   0  0  0  0  0  0  0  0  0  0  0  0
    3.0950    0.0140    1.7468 H   0  0  0  0  0  0  0  0  0  0  0  0
    2.8939   -3.4220    4.3435 H   0  0  0  0  0  0  0  0  0  0  0  0
    0.8246   -4.1692    3.2087 H   0  0  0  0  0  0  0  0  0  0  0  0
  1  2  3  0
  2  3  1  0
  3  4  1  0
  4  5  1  0
  4  6  1  0
  6  7  1  0
  7  8  1  0
  8  9  1  0
  9 10  1  0
 10 11  2  0
 11 12  1  0
 12 13  1  0
 12 14  2  0
 14 15  1  0
 15 16  2  0
 16 17  1  0
 16 10  1  0
  1 18  1  0
  3 19  1  0
  3 20  1  0
  5 21  1  0
  5 22  1  0
  5 23  1  0
  6 24  1  0
  6 25  1  0
  7 26  1  0
  7 27  1  0
  8 28  1  0
  8 29  1  0
 11 30  1  0
 14 31  1  0
 15 32  1  0
M  END
$$$$
