
     RDKit          3D

 61 65  0  0  0  0  0  0  0  0999 V2000
   -8.4389    1.5940    3.3218 C   0  0  0  0  0  0  0  0  0  0  0  0
   -7.8734    2.0087    2.0859 O   0  0  0  0  0  0  0  0  0  0  0  0
   -6.6268    1.5268    1.7703 C   0  0  0  0  0  0  0  0  0  0  0  0
   -5.7816    0.8789    2.6765 C   0  0  0  0  0  0  0  0  0  0  0  0
   -4.5287    0.4110    2.2641 C   0  0  0  0  0  0  0  0  0  0  0  0
   -4.0978    0.5844    0.9419 C   0  0  0  0  0  0  0  0  0  0  0  0
   -2.8107    0.0754    0.4756 C   0  0  0  0  0  0  0  0  0  0  0  0
   -2.3376    0.0064   -0.7555 N   0  0  0  0  0  0  0  0  0  0  0  0
   -1.0959   -0.5806   -0.6164 C   0  0  0  0  0  0  0  0  0  0  0  0
   -0.2661   -0.8763   -1.8116 C   0  0  0  0  0  0  0  0  0  0  0  0
    0.8968   -0.0079   -1.8825 N   0  0  0  0  0  0  0  0  0  0  0  0
    2.2171   -0.3521   -1.7246 C   0  0  0  0  0  0  0  0  0  0  0  0
    2.7369   -1.9597   -1.3401 S   0  0  0  0  0  0  0  0  0  0  0  0
    4.4629   -1.9434   -1.9123 C   0  0  0  0  0  0  0  0  0  0  0  0
    5.4439   -1.7744   -0.7780 C   0  0  0  0  0  0  0  0  0  0  0  0
    5.8855   -2.8856   -0.0457 C   0  0  0  0  0  0  0  0  0  0  0  0
    6.7930   -2.7284    1.0063 C   0  0  0  0  0  0  0  0  0  0  0  0
    7.2789   -1.4584    1.3427 C   0  0  0  0  0  0  0  0  0  0  0  0
    8.2175   -1.2824    2.4991 C   0  0  0  0  0  0  0  0  0  0  0  0
    6.8214   -0.3453    0.6290 C   0  0  0  0  0  0  0  0  0  0  0  0
    5.9118   -0.5018   -0.4211 C   0  0  0  0  0  0  0  0  0  0  0  0
    3.0169    0.6740   -1.9037 N   0  0  0  0  0  0  0  0  0  0  0  0
    2.1942    1.7256   -2.2183 C   0  0  0  0  0  0  0  0  0  0  0  0
    2.5216    3.0478   -2.5168 C   0  0  0  0  0  0  0  0  0  0  0  0
    1.4537    3.8738   -2.8277 C   0  0  0  0  0  0  0  0  0  0  0  0
    0.1550    3.4868   -2.8561 N   0  0  0  0  0  0  0  0  0  0  0  0
   -0.1634    2.2092   -2.5432 C   0  0  0  0  0  0  0  0  0  0  0  0
    0.8622    1.3274   -2.2296 C   0  0  0  0  0  0  0  0  0  0  0  0
   -0.8619   -0.8351    0.7200 C   0  0  0  0  0  0  0  0  0  0  0  0
    0.2389   -1.4335    1.4953 C   0  0  0  0  0  0  0  0  0  0  0  0
   -1.9574   -0.4201    1.4253 O   0  0  0  0  0  0  0  0  0  0  0  0
   -4.9428    1.2531    0.0404 C   0  0  0  0  0  0  0  0  0  0  0  0
   -6.1979    1.7288    0.4424 C   0  0  0  0  0  0  0  0  0  0  0  0
   -7.0786    2.3854   -0.3833 O   0  0  0  0  0  0  0  0  0  0  0  0
   -6.6616    2.6549   -1.7157 C   0  0  0  0  0  0  0  0  0  0  0  0
   -9.4809    1.9250    3.3429 H   0  0  0  0  0  0  0  0  0  0  0  0
   -8.4370    0.5043    3.4192 H   0  0  0  0  0  0  0  0  0  0  0  0
   -7.9215    2.0660    4.1632 H   0  0  0  0  0  0  0  0  0  0  0  0
   -6.0672    0.7222    3.7132 H   0  0  0  0  0  0  0  0  0  0  0  0
   -3.8966   -0.1004    2.9898 H   0  0  0  0  0  0  0  0  0  0  0  0
   -0.8412   -0.7164   -2.7314 H   0  0  0  0  0  0  0  0  0  0  0  0
    0.0399   -1.9255   -1.8141 H   0  0  0  0  0  0  0  0  0  0  0  0
    4.6298   -1.1929   -2.6956 H   0  0  0  0  0  0  0  0  0  0  0  0
    4.6495   -2.9106   -2.3970 H   0  0  0  0  0  0  0  0  0  0  0  0
    5.5189   -3.8835   -0.2827 H   0  0  0  0  0  0  0  0  0  0  0  0
    7.1150   -3.6055    1.5639 H   0  0  0  0  0  0  0  0  0  0  0  0
    8.9820   -0.5339    2.2649 H   0  0  0  0  0  0  0  0  0  0  0  0
    7.6638   -0.9605    3.3878 H   0  0  0  0  0  0  0  0  0  0  0  0
    8.7390   -2.2175    2.7320 H   0  0  0  0  0  0  0  0  0  0  0  0
    7.1613    0.6521    0.8974 H   0  0  0  0  0  0  0  0  0  0  0  0
    5.5597    0.3789   -0.9569 H   0  0  0  0  0  0  0  0  0  0  0  0
    3.5445    3.3988   -2.5117 H   0  0  0  0  0  0  0  0  0  0  0  0
    1.6217    4.9169   -3.0810 H   0  0  0  0  0  0  0  0  0  0  0  0
   -1.2152    1.9418   -2.5640 H   0  0  0  0  0  0  0  0  0  0  0  0
    0.5211   -2.4034    1.0772 H   0  0  0  0  0  0  0  0  0  0  0  0
    1.1164   -0.7790    1.4950 H   0  0  0  0  0  0  0  0  0  0  0  0
   -0.0576   -1.5968    2.5375 H   0  0  0  0  0  0  0  0  0  0  0  0
   -4.5951    1.3885   -0.9809 H   0  0  0  0  0  0  0  0  0  0  0  0
   -7.4813    3.1706   -2.2234 H   0  0  0  0  0  0  0  0  0  0  0  0
   -6.4658    1.7296   -2.2677 H   0  0  0  0  0  0  0  0  0  0  0  0
   -5.7903    3.3182   -1.7321 H   0  0  0  0  0  0  0  0  0  0  0  0
  1  2  1  0
  2  3  1  0
  3  4  2  0
  4  5  1  0
  5  6  2  0
  6  7  1  0
  7  8  2  0
  8  9  1  0
  9 10  1  0
 10 11  1  0
 11 12  1  0
 12 13  1  0
 13 14  1  0
 14 15  1  0
 15 16  2  0
 16 17  1  0
 17 18  2  0
 18 19  1  0
 18 20  1  0
 20 21  2  0
 12 22  2  0
 22 23  1  0
 23 24  2  0
 24 25  1  0
 25 26  2  0
 26 27  1  0
 27 28  2  0
  9 29  2  0
 29 30  1  0
 29 31  1  0
  6 32  1  0
 32 33  2  0
 33 34  1  0
 34 35  1  0
 33  3  1  0
 31  7  1  0
 28 11  1  0
 21 15  1  0
 28 23  1  0
  1 36  1  0
  1 37  1  0
  1 38  1  0
  4 39  1  0
  5 40  1  0
 10 41  1  0
 10 42  1  0
 14 43  1  0
 14 44  1  0
 16 45  1  0
 17 46  1  0
 19 47  1  0
 19 48  1  0
 19 49  1  0
 20 50  1  0
 21 51  1  0
 24 52  1  0
 25 53  1  0
 27 54  1  0
 30 55  1  0
 30 56  1  0
 30 57  1  0
 32 58  1  0
 35 59  1  0
 35 60  1  0
 35 61  1  0
M  END
$$$$
