
     RDKit          3D

 37 39  0  0  0  0  0  0  0  0999 V2000
    4.4755    3.5612   -2.5744 C   0  0  0  0  0  0  0  0  0  0  0  0
    4.0134    3.2309   -1.2701 O   0  0  0  0  0  0  0  0  0  0  0  0
    3.2777    2.0827   -1.1427 C   0  0  0  0  0  0  0  0  0  0  0  0
    2.8475    1.2705   -2.1906 C   0  0  0  0  0  0  0  0  0  0  0  0
    2.0915    0.1144   -1.9404 C   0  0  0  0  0  0  0  0  0  0  0  0
    1.7613   -0.2308   -0.6144 C   0  0  0  0  0  0  0  0  0  0  0  0
    1.0235   -1.2865   -0.0055 C   0  0  0  0  0  0  0  0  0  0  0  0
    0.3949   -2.3826   -0.6648 C   0  0  0  0  0  0  0  0  0  0  0  0
   -0.9092   -2.7090   -0.6393 C   0  0  0  0  0  0  0  0  0  0  0  0
   -1.9753   -1.9597    0.0335 C   0  0  0  0  0  0  0  0  0  0  0  0
   -2.1635   -0.5973   -0.1948 C   0  0  0  0  0  0  0  0  0  0  0  0
   -3.1897    0.0742    0.4557 C   0  0  0  0  0  0  0  0  0  0  0  0
   -4.0154   -0.5839    1.2994 N   0  0  0  0  0  4  0  0  0  0  0  0
   -5.1024    0.1490    1.9692 C   0  0  0  0  0  0  0  0  0  0  0  0
   -3.8683   -1.9106    1.5145 C   0  0  0  0  0  0  0  0  0  0  0  0
   -2.8522   -2.6228    0.8873 C   0  0  0  0  0  0  0  0  0  0  0  0
    1.0481   -1.0907    1.3580 C   0  0  0  0  0  0  0  0  0  0  0  0
    1.7804    0.0426    1.6019 N   0  0  0  0  0  0  0  0  0  0  0  0
    2.2049    0.5980    0.4161 C   0  0  0  0  0  0  0  0  0  0  0  0
    2.9584    1.7543    0.1809 C   0  0  0  0  0  0  0  0  0  0  0  0
    5.1091    2.7672   -2.9834 H   0  0  0  0  0  0  0  0  0  0  0  0
    5.0855    4.4660   -2.4936 H   0  0  0  0  0  0  0  0  0  0  0  0
    3.6374    3.7833   -3.2430 H   0  0  0  0  0  0  0  0  0  0  0  0
    3.0829    1.5037   -3.2243 H   0  0  0  0  0  0  0  0  0  0  0  0
    1.7682   -0.5089   -2.7694 H   0  0  0  0  0  0  0  0  0  0  0  0
    1.0579   -3.0119   -1.2585 H   0  0  0  0  0  0  0  0  0  0  0  0
   -1.2280   -3.6011   -1.1765 H   0  0  0  0  0  0  0  0  0  0  0  0
   -1.5101   -0.0504   -0.8728 H   0  0  0  0  0  0  0  0  0  0  0  0
   -3.3595    1.1366    0.3050 H   0  0  0  0  0  0  0  0  0  0  0  0
   -5.9692    0.1288    1.3040 H   0  0  0  0  0  0  0  0  0  0  0  0
   -5.3310   -0.3370    2.9211 H   0  0  0  0  0  0  0  0  0  0  0  0
   -4.7781    1.1759    2.1567 H   0  0  0  0  0  0  0  0  0  0  0  0
   -4.5688   -2.3937    2.1898 H   0  0  0  0  0  0  0  0  0  0  0  0
   -2.7434   -3.6889    1.0771 H   0  0  0  0  0  0  0  0  0  0  0  0
    0.6427   -1.6702    2.1762 H   0  0  0  0  0  0  0  0  0  0  0  0
    2.0016    0.4143    2.5161 H   0  0  0  0  0  0  0  0  0  0  0  0
    3.3016    2.3824    0.9976 H   0  0  0  0  0  0  0  0  0  0  0  0
  1  2  1  0
  2  3  1  0
  3  4  2  0
  4  5  1  0
  5  6  2  0
  6  7  1  0
  7  8  1  0
  8  9  2  3
  9 10  1  0
 10 11  2  0
 11 12  1  0
 12 13  2  0
 13 14  1  0
 13 15  1  0
 15 16  2  0
  7 17  2  0
 17 18  1  0
 18 19  1  0
 19 20  2  0
 20  3  1  0
 19  6  1  0
 16 10  1  0
  1 21  1  0
  1 22  1  0
  1 23  1  0
  4 24  1  0
  5 25  1  0
  8 26  1  0
  9 27  1  0
 11 28  1  0
 12 29  1  0
 14 30  1  0
 14 31  1  0
 14 32  1  0
 15 33  1  0
 16 34  1  0
 17 35  1  0
 18 36  1  0
 20 37  1  0
M  CHG  1  13   1
M  END
$$$$
