
     RDKit          3D

 43 46  0  0  0  0  0  0  0  0999 V2000
   -7.7161    0.1728    1.8598 C   0  0  0  0  0  0  0  0  0  0  0  0
   -7.2602   -0.7411    0.8702 O   0  0  0  0  0  0  0  0  0  0  0  0
   -5.9860   -0.5638    0.4067 C   0  0  0  0  0  0  0  0  0  0  0  0
   -5.5770   -1.4977   -0.5482 C   0  0  0  0  0  0  0  0  0  0  0  0
   -4.2972   -1.4347   -1.1085 C   0  0  0  0  0  0  0  0  0  0  0  0
   -3.4102   -0.4235   -0.7259 C   0  0  0  0  0  0  0  0  0  0  0  0
   -2.0681   -0.3302   -1.2827 C   0  0  0  0  0  0  0  0  0  0  0  0
   -0.9837   -0.1205   -0.4428 N   0  0  0  0  0  0  0  0  0  0  0  0
    0.1239   -0.0811   -1.1422 C   0  0  0  0  0  0  0  0  0  0  0  0
    1.3344    0.0960   -0.5346 N   0  0  0  0  0  0  0  0  0  0  0  0
    2.5772    0.1584   -1.1239 C   0  0  0  0  0  0  0  0  0  0  0  0
    2.8314    0.0667   -2.3197 O   0  0  0  0  0  0  0  0  0  0  0  0
    3.6311    0.3595   -0.1021 C   0  0  0  0  0  0  0  0  0  0  0  0
    3.3234    0.4663    1.2399 N   0  0  0  0  0  0  0  0  0  0  0  0
    4.4905    0.6330    1.8197 C   0  0  0  0  0  0  0  0  0  0  0  0
    4.7742    0.7931    3.1455 N   0  0  0  0  0  0  0  0  0  0  0  0
    6.0290    0.9379    3.4398 C   0  0  0  0  0  0  0  0  0  0  0  0
    7.1675    0.9458    2.4799 C   0  0  0  0  0  0  0  0  0  0  0  0
    6.8451    0.7858    1.1839 C   0  0  0  0  0  0  0  0  0  0  0  0
    7.8603    0.7685    0.0842 C   0  0  0  0  0  0  0  0  0  0  0  0
    5.4955    0.6272    0.8419 N   0  0  0  0  0  0  0  0  0  0  0  0
    4.9406    0.4537   -0.3784 N   0  0  0  0  0  0  0  0  0  0  0  0
   -0.0559   -0.2587   -2.8224 S   0  0  0  0  0  0  0  0  0  0  0  0
   -1.7589   -0.3933   -2.6326 C   0  0  0  0  0  0  0  0  0  0  0  0
   -2.6285   -0.5401   -3.8317 C   0  0  0  0  0  0  0  0  0  0  0  0
   -3.8171    0.5011    0.2441 C   0  0  0  0  0  0  0  0  0  0  0  0
   -5.0989    0.4358    0.8044 C   0  0  0  0  0  0  0  0  0  0  0  0
   -7.7398    1.1961    1.4709 H   0  0  0  0  0  0  0  0  0  0  0  0
   -7.1074    0.1080    2.7678 H   0  0  0  0  0  0  0  0  0  0  0  0
   -8.7404   -0.1059    2.1254 H   0  0  0  0  0  0  0  0  0  0  0  0
   -6.2589   -2.2880   -0.8528 H   0  0  0  0  0  0  0  0  0  0  0  0
   -4.0020   -2.1931   -1.8284 H   0  0  0  0  0  0  0  0  0  0  0  0
    1.2940    0.1871    0.4753 H   0  0  0  0  0  0  0  0  0  0  0  0
    6.3128    1.0707    4.4976 H   0  0  0  0  0  0  0  0  0  0  0  0
    8.1729    1.0760    2.8560 H   0  0  0  0  0  0  0  0  0  0  0  0
    7.8320   -0.1858   -0.4525 H   0  0  0  0  0  0  0  0  0  0  0  0
    8.8770    0.9006    0.4699 H   0  0  0  0  0  0  0  0  0  0  0  0
    7.6702    1.5769   -0.6297 H   0  0  0  0  0  0  0  0  0  0  0  0
   -2.1604   -0.1207   -4.7287 H   0  0  0  0  0  0  0  0  0  0  0  0
   -3.5805   -0.0177   -3.6923 H   0  0  0  0  0  0  0  0  0  0  0  0
   -2.8380   -1.5975   -4.0220 H   0  0  0  0  0  0  0  0  0  0  0  0
   -3.1319    1.2814    0.5705 H   0  0  0  0  0  0  0  0  0  0  0  0
   -5.3659    1.1781    1.5489 H   0  0  0  0  0  0  0  0  0  0  0  0
  1  2  1  0
  2  3  1  0
  3  4  2  0
  4  5  1  0
  5  6  2  0
  6  7  1  0
  7  8  1  0
  8  9  2  0
  9 10  1  0
 10 11  1  0
 11 12  2  0
 11 13  1  0
 13 14  1  0
 14 15  2  0
 15 16  1  0
 16 17  2  0
 17 18  1  0
 18 19  2  0
 19 20  1  0
 19 21  1  0
 21 22  1  0
  9 23  1  0
 23 24  1  0
 24 25  1  0
  6 26  1  0
 26 27  2  0
 27  3  1  0
 24  7  2  0
 22 13  2  0
 21 15  1  0
  1 28  1  0
  1 29  1  0
  1 30  1  0
  4 31  1  0
  5 32  1  0
 10 33  1  0
 17 34  1  0
 18 35  1  0
 20 36  1  0
 20 37  1  0
 20 38  1  0
 25 39  1  0
 25 40  1  0
 25 41  1  0
 26 42  1  0
 27 43  1  0
M  END
$$$$
