
     RDKit          3D

 40 42  0  0  0  0  0  0  0  0999 V2000
   -6.3392   -0.1428    0.7882 C   0  0  0  0  0  0  0  0  0  0  0  0
   -5.2044   -0.4751    0.1579 C   0  0  0  0  0  0  0  0  0  0  0  0
   -4.4700    0.4192   -0.7983 C   0  0  0  0  0  0  0  0  0  0  0  0
   -3.0761    0.6073   -0.4039 N   0  0  0  0  0  0  0  0  0  0  0  0
   -2.0243   -0.1097   -0.9199 C   0  0  0  0  0  0  0  0  0  0  0  0
   -0.8664    0.3434   -0.3272 C   0  0  0  0  0  0  0  0  0  0  0  0
    0.4152   -0.2101   -0.6303 C   0  0  0  0  0  0  0  0  0  0  0  0
    1.4226   -0.3526    0.2472 C   0  0  0  0  0  0  0  0  0  0  0  0
    2.7286   -0.9334   -0.0820 C   0  0  0  0  0  0  0  0  0  0  0  0
    2.8629   -2.0530   -0.9018 C   0  0  0  0  0  0  0  0  0  0  0  0
    4.1262   -2.5767   -1.1533 C   0  0  0  0  0  0  0  0  0  0  0  0
    5.2267   -2.0127   -0.6079 N   0  0  0  0  0  4  0  0  0  0  0  0
    6.5534   -2.5905   -0.8818 C   0  0  0  0  0  0  0  0  0  0  0  0
    5.1198   -0.9412    0.2087 C   0  0  0  0  0  0  0  0  0  0  0  0
    3.8763   -0.3863    0.4893 C   0  0  0  0  0  0  0  0  0  0  0  0
   -1.2206    1.4111    0.5557 C   0  0  0  0  0  0  0  0  0  0  0  0
   -0.4994    2.2954    1.3899 C   0  0  0  0  0  0  0  0  0  0  0  0
   -1.1791    3.2518    2.1521 C   0  0  0  0  0  0  0  0  0  0  0  0
   -2.5641    3.3460    2.0931 C   0  0  0  0  0  0  0  0  0  0  0  0
   -3.3047    2.4986    1.2661 C   0  0  0  0  0  0  0  0  0  0  0  0
   -2.6142    1.5447    0.4993 C   0  0  0  0  0  0  0  0  0  0  0  0
   -6.8154    0.8228    0.6467 H   0  0  0  0  0  0  0  0  0  0  0  0
   -6.8194   -0.8389    1.4703 H   0  0  0  0  0  0  0  0  0  0  0  0
   -4.7727   -1.4574    0.3385 H   0  0  0  0  0  0  0  0  0  0  0  0
   -4.9282    1.4106   -0.8843 H   0  0  0  0  0  0  0  0  0  0  0  0
   -4.4710   -0.0299   -1.7981 H   0  0  0  0  0  0  0  0  0  0  0  0
   -2.1949   -0.8902   -1.6501 H   0  0  0  0  0  0  0  0  0  0  0  0
    0.5425   -0.5535   -1.6547 H   0  0  0  0  0  0  0  0  0  0  0  0
    1.2922   -0.0288    1.2780 H   0  0  0  0  0  0  0  0  0  0  0  0
    1.9901   -2.5343   -1.3388 H   0  0  0  0  0  0  0  0  0  0  0  0
    4.2654   -3.4502   -1.7841 H   0  0  0  0  0  0  0  0  0  0  0  0
    6.7466   -3.3445   -0.1147 H   0  0  0  0  0  0  0  0  0  0  0  0
    7.3041   -1.7968   -0.8463 H   0  0  0  0  0  0  0  0  0  0  0  0
    6.5498   -3.0399   -1.8782 H   0  0  0  0  0  0  0  0  0  0  0  0
    6.0336   -0.5369    0.6353 H   0  0  0  0  0  0  0  0  0  0  0  0
    3.8113    0.4780    1.1484 H   0  0  0  0  0  0  0  0  0  0  0  0
    0.5830    2.2506    1.4400 H   0  0  0  0  0  0  0  0  0  0  0  0
   -0.6199    3.9286    2.7933 H   0  0  0  0  0  0  0  0  0  0  0  0
   -3.0803    4.0925    2.6929 H   0  0  0  0  0  0  0  0  0  0  0  0
   -4.3860    2.5851    1.2254 H   0  0  0  0  0  0  0  0  0  0  0  0
  1  2  2  0
  2  3  1  0
  3  4  1  0
  4  5  1  0
  5  6  2  0
  6  7  1  0
  7  8  2  3
  8  9  1  0
  9 10  2  0
 10 11  1  0
 11 12  2  0
 12 13  1  0
 12 14  1  0
 14 15  2  0
  6 16  1  0
 16 17  2  0
 17 18  1  0
 18 19  2  0
 19 20  1  0
 20 21  2  0
 21  4  1  0
 15  9  1  0
 21 16  1  0
  1 22  1  0
  1 23  1  0
  2 24  1  0
  3 25  1  0
  3 26  1  0
  5 27  1  0
  7 28  1  0
  8 29  1  0
 10 30  1  0
 11 31  1  0
 13 32  1  0
 13 33  1  0
 13 34  1  0
 14 35  1  0
 15 36  1  0
 17 37  1  0
 18 38  1  0
 19 39  1  0
 20 40  1  0
M  CHG  1  12   1
M  END
$$$$
