
     RDKit          3D

 53 55  0  0  0  0  0  0  0  0999 V2000
    8.4483   -2.3779    1.5730 C   0  0  0  0  0  0  0  0  0  0  0  0
    8.2673   -0.9734    1.4454 O   0  0  0  0  0  0  0  0  0  0  0  0
    7.0214   -0.4839    1.7263 C   0  0  0  0  0  0  0  0  0  0  0  0
    5.9195   -1.2311    2.1406 C   0  0  0  0  0  0  0  0  0  0  0  0
    4.6970   -0.5993    2.3951 C   0  0  0  0  0  0  0  0  0  0  0  0
    4.5608    0.7876    2.2451 C   0  0  0  0  0  0  0  0  0  0  0  0
    3.2344    1.4548    2.4965 C   0  0  0  0  0  0  0  0  0  0  0  0
    2.4045    1.4072    1.3219 N   0  0  0  0  0  0  0  0  0  0  0  0
    1.4668    0.4241    1.1195 C   0  0  0  0  0  0  0  0  0  0  0  0
    1.1201   -0.4294    1.9248 O   0  0  0  0  0  0  0  0  0  0  0  0
    0.8339    0.4569   -0.2906 C   0  0  0  0  0  0  0  0  0  0  0  0
    1.1564    1.3288   -1.0843 O   0  0  0  0  0  0  0  0  0  0  0  0
   -0.0651   -0.5620   -0.5074 N   0  0  0  0  0  0  0  0  0  0  0  0
   -0.8950   -0.6292   -1.6984 C   0  0  0  0  0  0  0  0  0  0  0  0
   -2.2581    0.0750   -1.5258 C   0  0  0  0  0  0  0  0  0  0  0  0
   -2.0745    1.4977   -1.4076 O   0  0  0  0  0  0  0  0  0  0  0  0
   -3.1764    2.1053   -2.0847 C   0  0  0  0  0  0  0  0  0  0  0  0
   -3.4459    1.1825   -3.2509 C   0  0  0  0  0  0  0  0  0  0  0  0
   -3.1024   -0.1342   -2.7104 N   0  0  0  0  0  0  0  0  0  0  0  0
   -4.2454   -1.3566   -2.6596 S   0  0  0  0  0  6  0  0  0  0  0  0
   -4.8688   -1.4344   -3.9633 O   0  0  0  0  0  0  0  0  0  0  0  0
   -3.6181   -2.5144   -2.0579 O   0  0  0  0  0  0  0  0  0  0  0  0
   -5.4753   -0.7582   -1.5176 C   0  0  0  0  0  0  0  0  0  0  0  0
   -5.3979   -1.1070   -0.1653 C   0  0  0  0  0  0  0  0  0  0  0  0
   -6.3752   -0.6516    0.7197 C   0  0  0  0  0  0  0  0  0  0  0  0
   -7.4332    0.1291    0.2516 C   0  0  0  0  0  0  0  0  0  0  0  0
   -7.5261    0.4472   -1.1041 C   0  0  0  0  0  0  0  0  0  0  0  0
   -6.5523   -0.0037   -1.9951 C   0  0  0  0  0  0  0  0  0  0  0  0
    5.6677    1.5308    1.8190 C   0  0  0  0  0  0  0  0  0  0  0  0
    6.8872    0.8971    1.5670 C   0  0  0  0  0  0  0  0  0  0  0  0
    7.7999   -2.9246    0.8803 H   0  0  0  0  0  0  0  0  0  0  0  0
    8.2888   -2.7042    2.6060 H   0  0  0  0  0  0  0  0  0  0  0  0
    9.4853   -2.6067    1.3084 H   0  0  0  0  0  0  0  0  0  0  0  0
    5.9730   -2.3063    2.2733 H   0  0  0  0  0  0  0  0  0  0  0  0
    3.8437   -1.1994    2.7084 H   0  0  0  0  0  0  0  0  0  0  0  0
    3.3798    2.5095    2.7548 H   0  0  0  0  0  0  0  0  0  0  0  0
    2.7250    0.9799    3.3428 H   0  0  0  0  0  0  0  0  0  0  0  0
    2.6506    1.9646    0.5086 H   0  0  0  0  0  0  0  0  0  0  0  0
   -0.2425   -1.1826    0.2782 H   0  0  0  0  0  0  0  0  0  0  0  0
   -0.3442   -0.1755   -2.5307 H   0  0  0  0  0  0  0  0  0  0  0  0
   -1.0340   -1.6915   -1.9212 H   0  0  0  0  0  0  0  0  0  0  0  0
   -2.7426   -0.2581   -0.6039 H   0  0  0  0  0  0  0  0  0  0  0  0
   -4.0261    2.1486   -1.3946 H   0  0  0  0  0  0  0  0  0  0  0  0
   -2.9166    3.1205   -2.3956 H   0  0  0  0  0  0  0  0  0  0  0  0
   -4.4667    1.2749   -3.6250 H   0  0  0  0  0  0  0  0  0  0  0  0
   -2.7602    1.3938   -4.0789 H   0  0  0  0  0  0  0  0  0  0  0  0
   -4.5917   -1.7356    0.2059 H   0  0  0  0  0  0  0  0  0  0  0  0
   -6.3202   -0.9145    1.7739 H   0  0  0  0  0  0  0  0  0  0  0  0
   -8.1974    0.4763    0.9434 H   0  0  0  0  0  0  0  0  0  0  0  0
   -8.3659    1.0357   -1.4666 H   0  0  0  0  0  0  0  0  0  0  0  0
   -6.6471    0.2259   -3.0542 H   0  0  0  0  0  0  0  0  0  0  0  0
    5.5920    2.6065    1.6789 H   0  0  0  0  0  0  0  0  0  0  0  0
    7.7414    1.4848    1.2394 H   0  0  0  0  0  0  0  0  0  0  0  0
  1  2  1  0
  2  3  1  0
  3  4  2  0
  4  5  1  0
  5  6  2  0
  6  7  1  0
  7  8  1  0
  8  9  1  0
  9 10  2  0
  9 11  1  0
 11 12  2  0
 11 13  1  0
 13 14  1  0
 14 15  1  0
 15 16  1  0
 16 17  1  0
 17 18  1  0
 18 19  1  0
 19 20  1  0
 20 21  2  0
 20 22  2  0
 20 23  1  0
 23 24  2  0
 24 25  1  0
 25 26  2  0
 26 27  1  0
 27 28  2  0
  6 29  1  0
 29 30  2  0
 30  3  1  0
 19 15  1  0
 28 23  1  0
  1 31  1  0
  1 32  1  0
  1 33  1  0
  4 34  1  0
  5 35  1  0
  7 36  1  0
  7 37  1  0
  8 38  1  0
 13 39  1  0
 14 40  1  0
 14 41  1  0
 15 42  1  0
 17 43  1  0
 17 44  1  0
 18 45  1  0
 18 46  1  0
 24 47  1  0
 25 48  1  0
 26 49  1  0
 27 50  1  0
 28 51  1  0
 29 52  1  0
 30 53  1  0
M  END
$$$$
