
     RDKit          3D

 34 36  0  0  0  0  0  0  0  0999 V2000
    4.1027   -0.2326    1.1254 N   0  0  0  0  0  0  0  0  0  0  0  0
    3.4251   -1.1317    0.2014 C   0  0  0  0  0  0  0  0  0  0  0  0
    2.1023   -0.5804   -0.3305 C   0  0  0  0  0  0  0  0  0  0  0  0
    1.0102   -0.5123    0.7470 C   0  0  0  0  0  0  0  0  0  0  0  0
   -0.2874   -0.0681    0.1834 N   0  0  0  0  0  0  0  0  0  0  0  0
   -1.1914   -1.0848   -0.2459 C   0  0  0  0  0  0  0  0  0  0  0  0
   -0.7759   -2.4177   -0.4725 C   0  0  0  0  0  0  0  0  0  0  0  0
   -1.6529   -3.4202   -0.9056 C   0  0  0  0  0  0  0  0  0  0  0  0
   -2.9852   -3.1231   -1.1330 C   0  0  0  0  0  0  0  0  0  0  0  0
   -3.4312   -1.8231   -0.9285 C   0  0  0  0  0  0  0  0  0  0  0  0
   -2.5516   -0.8104   -0.4950 C   0  0  0  0  0  0  0  0  0  0  0  0
   -3.2919    0.7869   -0.2585 S   0  0  0  0  0  0  0  0  0  0  0  0
   -1.8767    1.8249    0.0116 C   0  0  0  0  0  0  0  0  0  0  0  0
   -2.1438    3.2091    0.0386 C   0  0  0  0  0  0  0  0  0  0  0  0
   -1.1284    4.1313    0.2634 C   0  0  0  0  0  0  0  0  0  0  0  0
    0.1601    3.6682    0.4619 C   0  0  0  0  0  0  0  0  0  0  0  0
    1.4380    4.7893    0.7346 Cl  0  0  0  0  0  0  0  0  0  0  0  0
    0.4346    2.2967    0.4394 C   0  0  0  0  0  0  0  0  0  0  0  0
   -0.5721    1.3290    0.2197 C   0  0  0  0  0  0  0  0  0  0  0  0
    3.5469   -0.0645    1.9610 H   0  0  0  0  0  0  0  0  0  0  0  0
    4.2610    0.6741    0.6865 H   0  0  0  0  0  0  0  0  0  0  0  0
    3.2637   -2.0985    0.6908 H   0  0  0  0  0  0  0  0  0  0  0  0
    4.0965   -1.3162   -0.6446 H   0  0  0  0  0  0  0  0  0  0  0  0
    2.2683    0.4040   -0.7829 H   0  0  0  0  0  0  0  0  0  0  0  0
    1.7733   -1.2238   -1.1547 H   0  0  0  0  0  0  0  0  0  0  0  0
    1.3176    0.1414    1.5726 H   0  0  0  0  0  0  0  0  0  0  0  0
    0.9094   -1.4834    1.2488 H   0  0  0  0  0  0  0  0  0  0  0  0
    0.2557   -2.7241   -0.3363 H   0  0  0  0  0  0  0  0  0  0  0  0
   -1.2845   -4.4302   -1.0673 H   0  0  0  0  0  0  0  0  0  0  0  0
   -3.6738   -3.8931   -1.4688 H   0  0  0  0  0  0  0  0  0  0  0  0
   -4.4806   -1.5974   -1.1090 H   0  0  0  0  0  0  0  0  0  0  0  0
   -3.1574    3.5755   -0.1163 H   0  0  0  0  0  0  0  0  0  0  0  0
   -1.3507    5.1942    0.2798 H   0  0  0  0  0  0  0  0  0  0  0  0
    1.4701    2.0110    0.5835 H   0  0  0  0  0  0  0  0  0  0  0  0
  1  2  1  0
  2  3  1  0
  3  4  1  0
  4  5  1  0
  5  6  1  0
  6  7  2  0
  7  8  1  0
  8  9  2  0
  9 10  1  0
 10 11  2  0
 11 12  1  0
 12 13  1  0
 13 14  2  0
 14 15  1  0
 15 16  2  0
 16 17  1  0
 16 18  1  0
 18 19  2  0
 19  5  1  0
 11  6  1  0
 19 13  1  0
  1 20  1  0
  1 21  1  0
  2 22  1  0
  2 23  1  0
  3 24  1  0
  3 25  1  0
  4 26  1  0
  4 27  1  0
  7 28  1  0
  8 29  1  0
  9 30  1  0
 10 31  1  0
 14 32  1  0
 15 33  1  0
 18 34  1  0
M  END
$$$$
