
     RDKit          3D

 33 35  0  0  0  0  0  0  0  0999 V2000
    5.9645    0.4720    1.0780 C   0  0  0  0  0  0  0  0  0  0  0  0
    4.5989    0.1647    0.6200 N   0  0  0  0  0  4  0  0  0  0  0  0
    4.3560    0.0064   -0.7002 C   0  0  0  0  0  0  0  0  0  0  0  0
    3.0765   -0.2939   -1.1539 C   0  0  0  0  0  0  0  0  0  0  0  0
    2.0324   -0.4251   -0.2406 C   0  0  0  0  0  0  0  0  0  0  0  0
    0.6919   -0.7661   -0.7284 C   0  0  0  0  0  0  0  0  0  0  0  0
   -0.4347   -0.1923   -0.2714 C   0  0  0  0  0  0  0  0  0  0  0  0
   -1.7649   -0.4822   -0.7120 C   0  0  0  0  0  0  0  0  0  0  0  0
   -2.1322   -1.4577   -1.6145 C   0  0  0  0  0  0  0  0  0  0  0  0
   -3.4953   -1.4111   -1.7580 N   0  0  0  0  0  0  0  0  0  0  0  0
   -4.0253   -0.4219   -0.9630 C   0  0  0  0  0  0  0  0  0  0  0  0
   -5.3571   -0.0242   -0.7932 C   0  0  0  0  0  0  0  0  0  0  0  0
   -5.6130    1.0264    0.0915 C   0  0  0  0  0  0  0  0  0  0  0  0
   -4.5768    1.6531    0.7778 C   0  0  0  0  0  0  0  0  0  0  0  0
   -3.2505    1.2429    0.5967 C   0  0  0  0  0  0  0  0  0  0  0  0
   -2.9613    0.1829   -0.2907 C   0  0  0  0  0  0  0  0  0  0  0  0
    2.3121   -0.2801    1.1175 C   0  0  0  0  0  0  0  0  0  0  0  0
    3.6072    0.0172    1.5265 C   0  0  0  0  0  0  0  0  0  0  0  0
    6.4789    1.0518    0.3073 H   0  0  0  0  0  0  0  0  0  0  0  0
    5.9100    1.0612    1.9971 H   0  0  0  0  0  0  0  0  0  0  0  0
    6.4723   -0.4794    1.2542 H   0  0  0  0  0  0  0  0  0  0  0  0
    5.1916    0.1193   -1.3854 H   0  0  0  0  0  0  0  0  0  0  0  0
    2.8996   -0.4146   -2.2214 H   0  0  0  0  0  0  0  0  0  0  0  0
    0.6481   -1.5122   -1.5185 H   0  0  0  0  0  0  0  0  0  0  0  0
   -0.3572    0.5766    0.4941 H   0  0  0  0  0  0  0  0  0  0  0  0
   -1.5601   -2.1874   -2.1704 H   0  0  0  0  0  0  0  0  0  0  0  0
   -4.0414   -2.0145   -2.3579 H   0  0  0  0  0  0  0  0  0  0  0  0
   -6.1685   -0.5094   -1.3266 H   0  0  0  0  0  0  0  0  0  0  0  0
   -6.6377    1.3587    0.2445 H   0  0  0  0  0  0  0  0  0  0  0  0
   -4.7999    2.4696    1.4605 H   0  0  0  0  0  0  0  0  0  0  0  0
   -2.4566    1.7454    1.1395 H   0  0  0  0  0  0  0  0  0  0  0  0
    1.5318   -0.4092    1.8654 H   0  0  0  0  0  0  0  0  0  0  0  0
    3.8604    0.1329    2.5767 H   0  0  0  0  0  0  0  0  0  0  0  0
  1  2  1  0
  2  3  2  0
  3  4  1  0
  4  5  2  0
  5  6  1  0
  6  7  2  3
  7  8  1  0
  8  9  2  0
  9 10  1  0
 10 11  1  0
 11 12  2  0
 12 13  1  0
 13 14  2  0
 14 15  1  0
 15 16  2  0
  5 17  1  0
 17 18  2  0
 18  2  1  0
 16  8  1  0
 16 11  1  0
  1 19  1  0
  1 20  1  0
  1 21  1  0
  3 22  1  0
  4 23  1  0
  6 24  1  0
  7 25  1  0
  9 26  1  0
 10 27  1  0
 12 28  1  0
 13 29  1  0
 14 30  1  0
 15 31  1  0
 17 32  1  0
 18 33  1  0
M  CHG  1   2   1
M  END
$$$$
