
     RDKit          3D

 46 49  0  0  0  0  0  0  0  0999 V2000
    3.6431    3.1577   -1.3146 O   0  0  0  0  0  0  0  0  0  0  0  0
    3.1645    2.2048   -0.7073 C   0  0  0  0  0  0  0  0  0  0  0  0
    1.9737    2.3798    0.2207 C   0  0  0  0  0  0  0  0  0  0  0  0
    0.4919    1.6958   -0.5805 S   0  0  0  0  0  0  0  0  0  0  0  0
   -0.6346    1.7819    0.7257 C   0  0  0  0  0  0  0  0  0  0  0  0
   -0.3662    2.2002    1.9388 N   0  0  0  0  0  0  0  0  0  0  0  0
   -1.5205    2.1209    2.6731 N   0  0  0  0  0  0  0  0  0  0  0  0
   -2.4770    1.6513    1.8939 C   0  0  0  0  0  0  0  0  0  0  0  0
   -3.8954    1.4332    2.3084 C   0  0  0  0  0  0  0  0  0  0  0  0
   -4.2527   -0.0140    2.5012 C   0  0  0  0  0  0  0  0  0  0  0  0
   -3.4851   -1.0401    3.0189 C   0  0  0  0  0  0  0  0  0  0  0  0
   -4.1785   -2.2840    3.0351 C   0  0  0  0  0  0  0  0  0  0  0  0
   -5.4631   -2.1636    2.5592 C   0  0  0  0  0  0  0  0  0  0  0  0
   -5.8247   -0.5629    2.0833 S   0  0  0  0  0  0  0  0  0  0  0  0
   -1.9515    1.4124    0.6397 N   0  0  0  0  0  0  0  0  0  0  0  0
   -2.6622    0.9386   -0.5341 C   0  0  0  0  0  0  0  0  0  0  0  0
   -2.6402   -0.5422   -0.6474 C   0  0  0  0  0  0  0  0  0  0  0  0
   -3.6240   -1.4815   -0.8856 C   0  0  0  0  0  0  0  0  0  0  0  0
   -2.9829   -2.7441   -0.8841 C   0  0  0  0  0  0  0  0  0  0  0  0
   -1.6476   -2.4962   -0.6736 C   0  0  0  0  0  0  0  0  0  0  0  0
   -1.4289   -1.1640   -0.5401 O   0  0  0  0  0  0  0  0  0  0  0  0
    3.6122    0.8943   -0.7614 N   0  0  0  0  0  0  0  0  0  0  0  0
    4.6776    0.3627   -1.5240 C   0  0  0  0  0  0  0  0  0  0  0  0
    5.5033    1.1444   -2.3375 C   0  0  0  0  0  0  0  0  0  0  0  0
    6.5353    0.5541   -3.0777 C   0  0  0  0  0  0  0  0  0  0  0  0
    6.7501   -0.8203   -3.0063 C   0  0  0  0  0  0  0  0  0  0  0  0
    8.0165   -1.5391   -3.9239 Cl  0  0  0  0  0  0  0  0  0  0  0  0
    5.9442   -1.6169   -2.2008 C   0  0  0  0  0  0  0  0  0  0  0  0
    4.9149   -1.0254   -1.4648 C   0  0  0  0  0  0  0  0  0  0  0  0
    3.9290   -2.0526   -0.4776 Cl  0  0  0  0  0  0  0  0  0  0  0  0
    2.1854    1.8713    1.1675 H   0  0  0  0  0  0  0  0  0  0  0  0
    1.8323    3.4467    0.4226 H   0  0  0  0  0  0  0  0  0  0  0  0
   -4.5587    1.9101    1.5763 H   0  0  0  0  0  0  0  0  0  0  0  0
   -4.0675    1.9557    3.2590 H   0  0  0  0  0  0  0  0  0  0  0  0
   -2.4636   -0.9088    3.3592 H   0  0  0  0  0  0  0  0  0  0  0  0
   -3.7555   -3.2159    3.3869 H   0  0  0  0  0  0  0  0  0  0  0  0
   -6.2094   -2.9400    2.4659 H   0  0  0  0  0  0  0  0  0  0  0  0
   -2.2237    1.3985   -1.4250 H   0  0  0  0  0  0  0  0  0  0  0  0
   -3.6917    1.3069   -0.4733 H   0  0  0  0  0  0  0  0  0  0  0  0
   -4.6770   -1.2875   -1.0334 H   0  0  0  0  0  0  0  0  0  0  0  0
   -3.4376   -3.7142   -1.0279 H   0  0  0  0  0  0  0  0  0  0  0  0
   -0.7702   -3.1253   -0.5987 H   0  0  0  0  0  0  0  0  0  0  0  0
    3.0715    0.2071   -0.2423 H   0  0  0  0  0  0  0  0  0  0  0  0
    5.3710    2.2194   -2.4250 H   0  0  0  0  0  0  0  0  0  0  0  0
    7.1622    1.1786   -3.7105 H   0  0  0  0  0  0  0  0  0  0  0  0
    6.1113   -2.6876   -2.1489 H   0  0  0  0  0  0  0  0  0  0  0  0
  1  2  2  0
  2  3  1  0
  3  4  1  0
  4  5  1  0
  5  6  2  0
  6  7  1  0
  7  8  2  0
  8  9  1  0
  9 10  1  0
 10 11  2  0
 11 12  1  0
 12 13  2  0
 13 14  1  0
  8 15  1  0
 15 16  1  0
 16 17  1  0
 17 18  2  0
 18 19  1  0
 19 20  2  0
 20 21  1  0
  2 22  1  0
 22 23  1  0
 23 24  2  0
 24 25  1  0
 25 26  2  0
 26 27  1  0
 26 28  1  0
 28 29  2  0
 29 30  1  0
 15  5  1  0
 21 17  1  0
 29 23  1  0
 14 10  1  0
  3 31  1  0
  3 32  1  0
  9 33  1  0
  9 34  1  0
 11 35  1  0
 12 36  1  0
 13 37  1  0
 16 38  1  0
 16 39  1  0
 18 40  1  0
 19 41  1  0
 20 42  1  0
 22 43  1  0
 24 44  1  0
 25 45  1  0
 28 46  1  0
M  END
$$$$
