
     RDKit          3D

 29 30  0  0  0  0  0  0  0  0999 V2000
    0.5460    0.2847   -1.5940 O   0  0  0  0  0  0  0  0  0  0  0  0
    1.1159   -0.3198   -0.6855 C   0  0  0  0  0  0  0  0  0  0  0  0
    0.3641   -1.1974    0.3147 C   0  0  0  0  0  0  0  0  0  0  0  0
   -1.0525   -1.0773    0.2061 O   0  0  0  0  0  0  0  0  0  0  0  0
   -1.5554    0.0792    0.7118 C   0  0  0  0  0  0  0  0  0  0  0  0
   -0.9093    0.9356    1.3006 O   0  0  0  0  0  0  0  0  0  0  0  0
   -3.0246    0.1739    0.4592 C   0  0  0  0  0  0  0  0  0  0  0  0
   -3.6729    1.3722    0.7443 C   0  0  0  0  0  0  0  0  0  0  0  0
   -5.0431    1.4563    0.5132 C   0  0  0  0  0  0  0  0  0  0  0  0
   -5.7176    0.3490    0.0100 C   0  0  0  0  0  0  0  0  0  0  0  0
   -4.9939   -0.8060   -0.2416 C   0  0  0  0  0  0  0  0  0  0  0  0
   -3.6668   -0.9234   -0.0258 N   0  0  0  0  0  0  0  0  0  0  0  0
    2.6013   -0.2075   -0.5595 C   0  0  0  0  0  0  0  0  0  0  0  0
    3.3437   -0.9951    0.3305 C   0  0  0  0  0  0  0  0  0  0  0  0
    4.7339   -0.8508    0.4055 C   0  0  0  0  0  0  0  0  0  0  0  0
    5.3831    0.0766   -0.4080 C   0  0  0  0  0  0  0  0  0  0  0  0
    7.2604    0.2658   -0.3018 Br  0  0  0  0  0  0  0  0  0  0  0  0
    4.6573    0.8626   -1.2990 C   0  0  0  0  0  0  0  0  0  0  0  0
    3.2693    0.7192   -1.3747 C   0  0  0  0  0  0  0  0  0  0  0  0
    0.6782   -0.9752    1.3407 H   0  0  0  0  0  0  0  0  0  0  0  0
    0.6082   -2.2422    0.0965 H   0  0  0  0  0  0  0  0  0  0  0  0
   -3.1230    2.2238    1.1331 H   0  0  0  0  0  0  0  0  0  0  0  0
   -5.5783    2.3788    0.7212 H   0  0  0  0  0  0  0  0  0  0  0  0
   -6.7844    0.3850   -0.1836 H   0  0  0  0  0  0  0  0  0  0  0  0
   -5.4790   -1.6947   -0.6362 H   0  0  0  0  0  0  0  0  0  0  0  0
    2.8739   -1.7325    0.9745 H   0  0  0  0  0  0  0  0  0  0  0  0
    5.3004   -1.4667    1.1002 H   0  0  0  0  0  0  0  0  0  0  0  0
    5.1561    1.5874   -1.9375 H   0  0  0  0  0  0  0  0  0  0  0  0
    2.7091    1.3385   -2.0742 H   0  0  0  0  0  0  0  0  0  0  0  0
  1  2  2  0
  2  3  1  0
  3  4  1  0
  4  5  1  0
  5  6  2  0
  5  7  1  0
  7  8  2  0
  8  9  1  0
  9 10  2  0
 10 11  1  0
 11 12  2  0
  2 13  1  0
 13 14  2  0
 14 15  1  0
 15 16  2  0
 16 17  1  0
 16 18  1  0
 18 19  2  0
 12  7  1  0
 19 13  1  0
  3 20  1  0
  3 21  1  0
  8 22  1  0
  9 23  1  0
 10 24  1  0
 11 25  1  0
 14 26  1  0
 15 27  1  0
 18 28  1  0
 19 29  1  0
M  END
$$$$
