
     RDKit          3D

 45 47  0  0  0  0  0  0  0  0999 V2000
   -7.9413   -1.1084   -1.0117 C   0  0  0  0  0  0  0  0  0  0  0  0
   -6.4695   -0.8048   -1.2279 C   0  0  0  0  0  0  0  0  0  0  0  0
   -5.8896   -0.5179    0.0412 O   0  0  0  0  0  0  0  0  0  0  0  0
   -4.5465   -0.2373    0.0848 C   0  0  0  0  0  0  0  0  0  0  0  0
   -3.7153   -0.1733   -1.0376 C   0  0  0  0  0  0  0  0  0  0  0  0
   -2.3566    0.1208   -0.8953 C   0  0  0  0  0  0  0  0  0  0  0  0
   -1.8118    0.3467    0.3705 C   0  0  0  0  0  0  0  0  0  0  0  0
   -0.3913    0.6717    0.5384 C   0  0  0  0  0  0  0  0  0  0  0  0
    0.6398   -0.1409    0.2701 C   0  0  0  0  0  0  0  0  0  0  0  0
    0.5917   -1.7637   -0.3156 S   0  0  0  0  0  0  0  0  0  0  0  0
    2.3471   -1.9212   -0.3303 C   0  0  0  0  0  0  0  0  0  0  0  0
    3.1412   -3.3204   -0.7710 S   0  0  0  0  0  0  0  0  0  0  0  0
    2.8953   -0.7349    0.1114 N   0  0  0  0  0  0  0  0  0  0  0  0
    4.2850   -0.5071    0.1386 N   0  0  0  0  0  0  0  0  0  0  0  0
    4.8254    0.0711   -0.9988 C   0  0  0  0  0  0  0  0  0  0  0  0
    4.2056    0.2119   -2.0483 O   0  0  0  0  0  0  0  0  0  0  0  0
    6.2202    0.5674   -0.8790 C   0  0  0  0  0  0  0  0  0  0  0  0
    6.6248    1.6103   -1.7124 C   0  0  0  0  0  0  0  0  0  0  0  0
    7.9238    2.0664   -1.5964 C   0  0  0  0  0  0  0  0  0  0  0  0
    8.8204    1.5528   -0.7272 N   0  0  0  0  0  0  0  0  0  0  0  0
    8.4094    0.5299    0.0512 C   0  0  0  0  0  0  0  0  0  0  0  0
    7.1305    0.0031    0.0158 C   0  0  0  0  0  0  0  0  0  0  0  0
    2.0472    0.2903    0.4902 C   0  0  0  0  0  0  0  0  0  0  0  0
    2.3820    1.3651    0.9715 O   0  0  0  0  0  0  0  0  0  0  0  0
   -2.6422    0.2958    1.4970 C   0  0  0  0  0  0  0  0  0  0  0  0
   -4.0056    0.0022    1.3645 C   0  0  0  0  0  0  0  0  0  0  0  0
   -4.8884   -0.0731    2.4141 O   0  0  0  0  0  0  0  0  0  0  0  0
   -4.3838    0.1542    3.7217 C   0  0  0  0  0  0  0  0  0  0  0  0
   -8.4359   -1.3359   -1.9602 H   0  0  0  0  0  0  0  0  0  0  0  0
   -8.0638   -1.9610   -0.3354 H   0  0  0  0  0  0  0  0  0  0  0  0
   -8.4462   -0.2562   -0.5449 H   0  0  0  0  0  0  0  0  0  0  0  0
   -5.9873   -1.6796   -1.6791 H   0  0  0  0  0  0  0  0  0  0  0  0
   -6.3780    0.0619   -1.8924 H   0  0  0  0  0  0  0  0  0  0  0  0
   -4.0927   -0.3444   -2.0400 H   0  0  0  0  0  0  0  0  0  0  0  0
   -1.7327    0.1727   -1.7852 H   0  0  0  0  0  0  0  0  0  0  0  0
   -0.2019    1.6696    0.9328 H   0  0  0  0  0  0  0  0  0  0  0  0
    4.6473   -0.2238    1.0436 H   0  0  0  0  0  0  0  0  0  0  0  0
    5.9457    2.0574   -2.4314 H   0  0  0  0  0  0  0  0  0  0  0  0
    8.2910    2.8793   -2.2170 H   0  0  0  0  0  0  0  0  0  0  0  0
    9.1649    0.1287    0.7216 H   0  0  0  0  0  0  0  0  0  0  0  0
    6.8807   -0.8391    0.6499 H   0  0  0  0  0  0  0  0  0  0  0  0
   -2.2040    0.4843    2.4714 H   0  0  0  0  0  0  0  0  0  0  0  0
   -3.9891    1.1706    3.8216 H   0  0  0  0  0  0  0  0  0  0  0  0
   -5.2165    0.0513    4.4242 H   0  0  0  0  0  0  0  0  0  0  0  0
   -3.6293   -0.5926    3.9897 H   0  0  0  0  0  0  0  0  0  0  0  0
  1  2  1  0
  2  3  1  0
  3  4  1  0
  4  5  2  0
  5  6  1  0
  6  7  2  0
  7  8  1  0
  8  9  2  3
  9 10  1  0
 10 11  1  0
 11 12  2  0
 11 13  1  0
 13 14  1  0
 14 15  1  0
 15 16  2  0
 15 17  1  0
 17 18  2  0
 18 19  1  0
 19 20  2  0
 20 21  1  0
 21 22  2  0
 13 23  1  0
 23 24  2  0
  7 25  1  0
 25 26  2  0
 26 27  1  0
 27 28  1  0
 26  4  1  0
 23  9  1  0
 22 17  1  0
  1 29  1  0
  1 30  1  0
  1 31  1  0
  2 32  1  0
  2 33  1  0
  5 34  1  0
  6 35  1  0
  8 36  1  0
 14 37  1  0
 18 38  1  0
 19 39  1  0
 21 40  1  0
 22 41  1  0
 25 42  1  0
 28 43  1  0
 28 44  1  0
 28 45  1  0
M  END
$$$$
