
     RDKit          3D

 50 51  0  0  0  0  0  0  0  0999 V2000
   -6.3319   -2.9385    0.8965 C   0  0  0  0  0  0  0  0  0  0  0  0
   -5.6333   -1.7801    0.4630 O   0  0  0  0  0  0  0  0  0  0  0  0
   -4.2797   -1.7315    0.6842 C   0  0  0  0  0  0  0  0  0  0  0  0
   -3.5724   -2.6628    1.4518 C   0  0  0  0  0  0  0  0  0  0  0  0
   -2.1938   -2.5274    1.6281 C   0  0  0  0  0  0  0  0  0  0  0  0
   -1.5161   -1.4524    1.0554 C   0  0  0  0  0  0  0  0  0  0  0  0
   -0.0924   -1.3878    1.2501 N   0  0  0  0  0  0  0  0  0  0  0  0
    0.7369   -1.8315    0.0972 C   0  0  0  0  0  0  0  0  0  0  0  0
    1.0358   -0.7659   -0.9510 C   0  0  0  0  0  0  0  0  0  0  0  0
    0.2889   -0.6179   -1.9155 O   0  0  0  0  0  0  0  0  0  0  0  0
    2.1873   -0.0356   -0.6887 N   0  0  0  0  0  0  0  0  0  0  0  0
    2.8034    0.9361   -1.5180 C   0  0  0  0  0  0  0  0  0  0  0  0
    2.4119    1.1148   -2.8559 C   0  0  0  0  0  0  0  0  0  0  0  0
    3.0419    2.0445   -3.6878 C   0  0  0  0  0  0  0  0  0  0  0  0
    4.0934    2.8054   -3.2006 C   0  0  0  0  0  0  0  0  0  0  0  0
    4.4953    2.6301   -1.8714 C   0  0  0  0  0  0  0  0  0  0  0  0
    5.6301    3.4256   -1.4342 N   0  0  0  0  0  4  0  0  0  0  0  0
    5.4868    4.6554   -1.4269 O   0  0  0  0  0  0  0  0  0  0  0  0
    6.6624    2.8153   -1.1245 O   0  0  0  0  0  1  0  0  0  0  0  0
    3.8613    1.7206   -0.9951 C   0  0  0  0  0  0  0  0  0  0  0  0
    4.2707    1.6002    0.4509 C   0  0  0  0  0  0  0  0  0  0  0  0
    0.5148   -0.0634    2.1203 S   0  0  0  0  0  6  0  0  0  0  0  0
   -0.1288   -0.3606    3.7548 C   0  0  0  0  0  0  0  0  0  0  0  0
    1.9558   -0.2389    2.1700 O   0  0  0  0  0  0  0  0  0  0  0  0
   -0.0423    1.1654    1.6017 O   0  0  0  0  0  0  0  0  0  0  0  0
   -2.2100   -0.5284    0.2718 C   0  0  0  0  0  0  0  0  0  0  0  0
   -3.5917   -0.6544    0.0883 C   0  0  0  0  0  0  0  0  0  0  0  0
   -4.3555    0.2124   -0.6545 O   0  0  0  0  0  0  0  0  0  0  0  0
   -3.6860    1.2815   -1.3106 C   0  0  0  0  0  0  0  0  0  0  0  0
   -6.3458   -3.0012    1.9897 H   0  0  0  0  0  0  0  0  0  0  0  0
   -5.9105   -3.8471    0.4527 H   0  0  0  0  0  0  0  0  0  0  0  0
   -7.3681   -2.8522    0.5547 H   0  0  0  0  0  0  0  0  0  0  0  0
   -4.0655   -3.5046    1.9260 H   0  0  0  0  0  0  0  0  0  0  0  0
   -1.6556   -3.2652    2.2176 H   0  0  0  0  0  0  0  0  0  0  0  0
    0.2473   -2.6704   -0.4144 H   0  0  0  0  0  0  0  0  0  0  0  0
    1.6782   -2.2481    0.4760 H   0  0  0  0  0  0  0  0  0  0  0  0
    2.5672   -0.1393    0.2516 H   0  0  0  0  0  0  0  0  0  0  0  0
    1.6111    0.5282   -3.2974 H   0  0  0  0  0  0  0  0  0  0  0  0
    2.7109    2.1585   -4.7180 H   0  0  0  0  0  0  0  0  0  0  0  0
    4.5930    3.5209   -3.8502 H   0  0  0  0  0  0  0  0  0  0  0  0
    4.7073    0.6145    0.6387 H   0  0  0  0  0  0  0  0  0  0  0  0
    3.4004    1.7494    1.0964 H   0  0  0  0  0  0  0  0  0  0  0  0
    4.9990    2.3522    0.7636 H   0  0  0  0  0  0  0  0  0  0  0  0
    0.1829   -1.3544    4.0824 H   0  0  0  0  0  0  0  0  0  0  0  0
   -1.2158   -0.2713    3.7375 H   0  0  0  0  0  0  0  0  0  0  0  0
    0.2905    0.3972    4.4208 H   0  0  0  0  0  0  0  0  0  0  0  0
   -1.6602    0.2836   -0.1920 H   0  0  0  0  0  0  0  0  0  0  0  0
   -3.2223    1.9595   -0.5867 H   0  0  0  0  0  0  0  0  0  0  0  0
   -4.4354    1.8526   -1.8670 H   0  0  0  0  0  0  0  0  0  0  0  0
   -2.9518    0.9068   -2.0317 H   0  0  0  0  0  0  0  0  0  0  0  0
  1  2  1  0
  2  3  1  0
  3  4  2  0
  4  5  1  0
  5  6  2  0
  6  7  1  0
  7  8  1  0
  8  9  1  0
  9 10  2  0
  9 11  1  0
 11 12  1  0
 12 13  2  0
 13 14  1  0
 14 15  2  0
 15 16  1  0
 16 17  1  0
 17 18  2  0
 17 19  1  0
 16 20  2  0
 20 21  1  0
  7 22  1  0
 22 23  1  0
 22 24  2  0
 22 25  2  0
  6 26  1  0
 26 27  2  0
 27 28  1  0
 28 29  1  0
 27  3  1  0
 20 12  1  0
  1 30  1  0
  1 31  1  0
  1 32  1  0
  4 33  1  0
  5 34  1  0
  8 35  1  0
  8 36  1  0
 11 37  1  0
 13 38  1  0
 14 39  1  0
 15 40  1  0
 21 41  1  0
 21 42  1  0
 21 43  1  0
 23 44  1  0
 23 45  1  0
 23 46  1  0
 26 47  1  0
 29 48  1  0
 29 49  1  0
 29 50  1  0
M  CHG  2  17   1  19  -1
M  END
$$$$
