
     RDKit          3D

 47 50  0  0  0  0  0  0  0  0999 V2000
   -6.9323    1.2457    2.5054 C   0  0  0  0  0  0  0  0  0  0  0  0
   -5.8821    1.0320    1.4298 C   0  0  0  0  0  0  0  0  0  0  0  0
   -5.6457   -0.4511    1.1583 C   0  0  0  0  0  0  0  0  0  0  0  0
   -4.6823   -0.6181    0.1204 O   0  0  0  0  0  0  0  0  0  0  0  0
   -3.3635   -0.8033    0.4500 C   0  0  0  0  0  0  0  0  0  0  0  0
   -2.8213   -0.5573    1.7146 C   0  0  0  0  0  0  0  0  0  0  0  0
   -1.4595   -0.7593    1.9522 C   0  0  0  0  0  0  0  0  0  0  0  0
   -0.6226   -1.1974    0.9249 C   0  0  0  0  0  0  0  0  0  0  0  0
    0.8019   -1.4079    1.2032 C   0  0  0  0  0  0  0  0  0  0  0  0
    1.8173   -0.7058    0.6801 C   0  0  0  0  0  0  0  0  0  0  0  0
    1.7131    0.6333   -0.4481 S   0  0  0  0  0  0  0  0  0  0  0  0
    3.4221    0.7722   -0.4294 C   0  0  0  0  0  0  0  0  0  0  0  0
    4.2973    1.5392   -1.0103 N   0  0  0  0  0  0  0  0  0  0  0  0
    5.4861    1.0425   -0.4960 C   0  0  0  0  0  0  0  0  0  0  0  0
    6.8774    1.6387   -0.8904 C   0  0  0  0  0  0  0  0  0  0  0  0
    8.1047    1.2045   -0.4259 C   0  0  0  0  0  0  0  0  0  0  0  0
    9.0856    2.0209   -1.0393 C   0  0  0  0  0  0  0  0  0  0  0  0
    8.3994    2.9027   -1.8397 C   0  0  0  0  0  0  0  0  0  0  0  0
    7.0630    2.6802   -1.7571 O   0  0  0  0  0  0  0  0  0  0  0  0
    5.3538    0.0106    0.3653 N   0  0  0  0  0  0  0  0  0  0  0  0
    4.0171   -0.1278    0.3770 N   0  0  0  0  0  0  0  0  0  0  0  0
    3.2271   -1.0225    1.0655 C   0  0  0  0  0  0  0  0  0  0  0  0
    3.6548   -1.8767    1.8202 O   0  0  0  0  0  0  0  0  0  0  0  0
   -1.1608   -1.4485   -0.3438 C   0  0  0  0  0  0  0  0  0  0  0  0
   -2.5237   -1.2484   -0.5926 C   0  0  0  0  0  0  0  0  0  0  0  0
   -3.1364   -1.4524   -1.8032 O   0  0  0  0  0  0  0  0  0  0  0  0
   -2.3854   -1.9424   -2.9098 C   0  0  0  0  0  0  0  0  0  0  0  0
   -1.7118   -0.8050   -3.6582 C   0  0  0  0  0  0  0  0  0  0  0  0
   -7.8905    0.8055    2.2116 H   0  0  0  0  0  0  0  0  0  0  0  0
   -6.6210    0.7925    3.4520 H   0  0  0  0  0  0  0  0  0  0  0  0
   -7.0884    2.3154    2.6761 H   0  0  0  0  0  0  0  0  0  0  0  0
   -6.1949    1.5263    0.5022 H   0  0  0  0  0  0  0  0  0  0  0  0
   -4.9476    1.5205    1.7268 H   0  0  0  0  0  0  0  0  0  0  0  0
   -5.3909   -1.0145    2.0634 H   0  0  0  0  0  0  0  0  0  0  0  0
   -6.5772   -0.8941    0.7861 H   0  0  0  0  0  0  0  0  0  0  0  0
   -3.4282   -0.1928    2.5361 H   0  0  0  0  0  0  0  0  0  0  0  0
   -1.0617   -0.5596    2.9450 H   0  0  0  0  0  0  0  0  0  0  0  0
    1.0066   -2.2032    1.9200 H   0  0  0  0  0  0  0  0  0  0  0  0
    8.2626    0.3941    0.2727 H   0  0  0  0  0  0  0  0  0  0  0  0
   10.1581    1.9730   -0.9138 H   0  0  0  0  0  0  0  0  0  0  0  0
    8.6980    3.7074   -2.4972 H   0  0  0  0  0  0  0  0  0  0  0  0
   -0.4956   -1.7951   -1.1266 H   0  0  0  0  0  0  0  0  0  0  0  0
   -3.1066   -2.4170   -3.5851 H   0  0  0  0  0  0  0  0  0  0  0  0
   -1.6833   -2.7327   -2.6235 H   0  0  0  0  0  0  0  0  0  0  0  0
   -1.2015   -1.1790   -4.5504 H   0  0  0  0  0  0  0  0  0  0  0  0
   -2.4512   -0.0572   -3.9635 H   0  0  0  0  0  0  0  0  0  0  0  0
   -0.9799   -0.2881   -3.0307 H   0  0  0  0  0  0  0  0  0  0  0  0
  1  2  1  0
  2  3  1  0
  3  4  1  0
  4  5  1  0
  5  6  2  0
  6  7  1  0
  7  8  2  0
  8  9  1  0
  9 10  2  3
 10 11  1  0
 11 12  1  0
 12 13  2  0
 13 14  1  0
 14 15  1  0
 15 16  2  0
 16 17  1  0
 17 18  2  0
 18 19  1  0
 14 20  2  0
 20 21  1  0
 21 22  1  0
 22 23  2  0
  8 24  1  0
 24 25  2  0
 25 26  1  0
 26 27  1  0
 27 28  1  0
 25  5  1  0
 22 10  1  0
 21 12  1  0
 19 15  1  0
  1 29  1  0
  1 30  1  0
  1 31  1  0
  2 32  1  0
  2 33  1  0
  3 34  1  0
  3 35  1  0
  6 36  1  0
  7 37  1  0
  9 38  1  0
 16 39  1  0
 17 40  1  0
 18 41  1  0
 24 42  1  0
 27 43  1  0
 27 44  1  0
 28 45  1  0
 28 46  1  0
 28 47  1  0
M  END
$$$$
