
     RDKit          3D

 61 65  0  0  0  0  0  0  0  0999 V2000
   -7.1660    0.7219   -3.5489 C   0  0  0  0  0  0  0  0  0  0  0  0
   -6.2278   -0.1989   -2.8270 C   0  0  0  0  0  0  0  0  0  0  0  0
   -6.5393   -0.6690   -1.5483 C   0  0  0  0  0  0  0  0  0  0  0  0
   -5.6495   -1.5017   -0.8620 C   0  0  0  0  0  0  0  0  0  0  0  0
   -4.4191   -1.8627   -1.4287 C   0  0  0  0  0  0  0  0  0  0  0  0
   -3.5127   -2.7214   -0.7198 N   0  0  0  0  0  0  0  0  0  0  0  0
   -2.1601   -2.4317   -0.5536 C   0  0  0  0  0  0  0  0  0  0  0  0
   -1.5130   -0.8590   -0.9921 S   0  0  0  0  0  0  0  0  0  0  0  0
   -1.5824   -0.1069    0.6602 C   0  0  0  0  0  0  0  0  0  0  0  0
   -0.6000    1.0480    0.7655 C   0  0  0  0  0  0  0  0  0  0  0  0
   -0.9848    2.1711    1.0790 O   0  0  0  0  0  0  0  0  0  0  0  0
    0.7108    0.6588    0.5380 N   0  0  0  0  0  0  0  0  0  0  0  0
    1.8738    1.4456    0.6302 C   0  0  0  0  0  0  0  0  0  0  0  0
    3.0859    0.8399    0.3004 C   0  0  0  0  0  0  0  0  0  0  0  0
    4.2907    1.5545    0.3818 C   0  0  0  0  0  0  0  0  0  0  0  0
    4.3366    2.8926    0.7960 C   0  0  0  0  0  0  0  0  0  0  0  0
    5.5244    3.5941    0.8834 N   0  0  0  0  0  0  0  0  0  0  0  0
    5.6519    4.8073    1.7082 C   0  0  0  0  0  0  0  0  0  0  0  0
    7.0971    4.9558    2.2140 C   0  0  0  0  0  0  0  0  0  0  0  0
    8.0806    5.0308    1.1733 O   0  0  0  0  0  0  0  0  0  0  0  0
    7.6955    4.3342   -0.0198 C   0  0  0  0  0  0  0  0  0  0  0  0
    6.7587    3.1394    0.2260 C   0  0  0  0  0  0  0  0  0  0  0  0
    3.1030    3.4793    1.1145 C   0  0  0  0  0  0  0  0  0  0  0  0
    1.8909    2.7739    1.0368 C   0  0  0  0  0  0  0  0  0  0  0  0
   -1.2934   -3.2199   -0.0039 N   0  0  0  0  0  0  0  0  0  0  0  0
   -1.7274   -4.4589    0.4674 C   0  0  0  0  0  0  0  0  0  0  0  0
   -0.7904   -5.3343    1.0229 C   0  0  0  0  0  0  0  0  0  0  0  0
   -1.1872   -6.5744    1.5294 C   0  0  0  0  0  0  0  0  0  0  0  0
   -2.5294   -6.9474    1.4859 C   0  0  0  0  0  0  0  0  0  0  0  0
   -3.4719   -6.0809    0.9333 C   0  0  0  0  0  0  0  0  0  0  0  0
   -3.0635   -4.8397    0.4267 C   0  0  0  0  0  0  0  0  0  0  0  0
   -4.0318   -3.9088   -0.1839 C   0  0  0  0  0  0  0  0  0  0  0  0
   -5.2127   -4.2544   -0.2029 O   0  0  0  0  0  0  0  0  0  0  0  0
   -4.1174   -1.3952   -2.7155 C   0  0  0  0  0  0  0  0  0  0  0  0
   -5.0069   -0.5626   -3.4026 C   0  0  0  0  0  0  0  0  0  0  0  0
   -6.9342    1.7620   -3.3004 H   0  0  0  0  0  0  0  0  0  0  0  0
   -7.0849    0.5909   -4.6330 H   0  0  0  0  0  0  0  0  0  0  0  0
   -8.2056    0.5154   -3.2737 H   0  0  0  0  0  0  0  0  0  0  0  0
   -7.4806   -0.3958   -1.0755 H   0  0  0  0  0  0  0  0  0  0  0  0
   -5.9291   -1.8506    0.1295 H   0  0  0  0  0  0  0  0  0  0  0  0
   -2.5960    0.2620    0.8419 H   0  0  0  0  0  0  0  0  0  0  0  0
   -1.3343   -0.8333    1.4409 H   0  0  0  0  0  0  0  0  0  0  0  0
    0.8377   -0.2924    0.2079 H   0  0  0  0  0  0  0  0  0  0  0  0
    3.1224   -0.1977   -0.0203 H   0  0  0  0  0  0  0  0  0  0  0  0
    5.2037    1.0219    0.1325 H   0  0  0  0  0  0  0  0  0  0  0  0
    5.3750    5.6786    1.1025 H   0  0  0  0  0  0  0  0  0  0  0  0
    4.9966    4.7653    2.5859 H   0  0  0  0  0  0  0  0  0  0  0  0
    7.3615    4.1070    2.8555 H   0  0  0  0  0  0  0  0  0  0  0  0
    7.1909    5.8622    2.8208 H   0  0  0  0  0  0  0  0  0  0  0  0
    8.6131    3.9974   -0.5126 H   0  0  0  0  0  0  0  0  0  0  0  0
    7.2154    5.0611   -0.6859 H   0  0  0  0  0  0  0  0  0  0  0  0
    7.2540    2.4027    0.8682 H   0  0  0  0  0  0  0  0  0  0  0  0
    6.5433    2.6765   -0.7436 H   0  0  0  0  0  0  0  0  0  0  0  0
    3.0478    4.5220    1.4158 H   0  0  0  0  0  0  0  0  0  0  0  0
    0.9817    3.3037    1.3016 H   0  0  0  0  0  0  0  0  0  0  0  0
    0.2572   -5.0451    1.0622 H   0  0  0  0  0  0  0  0  0  0  0  0
   -0.4481   -7.2473    1.9583 H   0  0  0  0  0  0  0  0  0  0  0  0
   -2.8408   -7.9124    1.8789 H   0  0  0  0  0  0  0  0  0  0  0  0
   -4.5192   -6.3744    0.8937 H   0  0  0  0  0  0  0  0  0  0  0  0
   -3.1998   -1.6908   -3.2188 H   0  0  0  0  0  0  0  0  0  0  0  0
   -4.7409   -0.2082   -4.3964 H   0  0  0  0  0  0  0  0  0  0  0  0
  1  2  1  0
  2  3  2  0
  3  4  1  0
  4  5  2  0
  5  6  1  0
  6  7  1  0
  7  8  1  0
  8  9  1  0
  9 10  1  0
 10 11  2  0
 10 12  1  0
 12 13  1  0
 13 14  2  0
 14 15  1  0
 15 16  2  0
 16 17  1  0
 17 18  1  0
 18 19  1  0
 19 20  1  0
 20 21  1  0
 21 22  1  0
 16 23  1  0
 23 24  2  0
  7 25  2  0
 25 26  1  0
 26 27  2  0
 27 28  1  0
 28 29  2  0
 29 30  1  0
 30 31  2  0
 31 32  1  0
 32 33  2  0
  5 34  1  0
 34 35  2  0
 35  2  1  0
 32  6  1  0
 24 13  1  0
 31 26  1  0
 22 17  1  0
  1 36  1  0
  1 37  1  0
  1 38  1  0
  3 39  1  0
  4 40  1  0
  9 41  1  0
  9 42  1  0
 12 43  1  0
 14 44  1  0
 15 45  1  0
 18 46  1  0
 18 47  1  0
 19 48  1  0
 19 49  1  0
 21 50  1  0
 21 51  1  0
 22 52  1  0
 22 53  1  0
 23 54  1  0
 24 55  1  0
 27 56  1  0
 28 57  1  0
 29 58  1  0
 30 59  1  0
 34 60  1  0
 35 61  1  0
M  END
$$$$
