
     RDKit          3D

 52 54  0  0  0  0  0  0  0  0999 V2000
    6.8111   -1.8043   -4.8823 C   0  0  0  0  0  0  0  0  0  0  0  0
    6.3356   -1.7224   -3.4631 C   0  0  0  0  0  0  0  0  0  0  0  0
    6.0229   -2.8848   -2.7515 C   0  0  0  0  0  0  0  0  0  0  0  0
    5.5392   -2.8081   -1.4433 C   0  0  0  0  0  0  0  0  0  0  0  0
    5.3597   -1.5651   -0.8230 C   0  0  0  0  0  0  0  0  0  0  0  0
    4.8100   -1.4774    0.5762 C   0  0  0  0  0  0  0  0  0  0  0  0
    3.3740   -1.3814    0.5589 N   0  0  0  0  0  0  0  0  0  0  0  0
    2.7158   -0.1762    0.5892 C   0  0  0  0  0  0  0  0  0  0  0  0
    3.2172    0.9244    0.7739 O   0  0  0  0  0  0  0  0  0  0  0  0
    1.1942   -0.3012    0.3418 C   0  0  0  0  0  0  0  0  0  0  0  0
    0.6864   -1.4026    0.1838 O   0  0  0  0  0  0  0  0  0  0  0  0
    0.5431    0.9114    0.3087 N   0  0  0  0  0  0  0  0  0  0  0  0
   -0.9043    1.0066    0.2608 C   0  0  0  0  0  0  0  0  0  0  0  0
   -1.5597    1.0910    1.6583 C   0  0  0  0  0  0  0  0  0  0  0  0
   -1.2085   -0.0613    2.4523 O   0  0  0  0  0  0  0  0  0  0  0  0
   -2.3587   -0.9071    2.4864 C   0  0  0  0  0  0  0  0  0  0  0  0
   -3.5164    0.0636    2.4707 C   0  0  0  0  0  0  0  0  0  0  0  0
   -3.0357    1.0857    1.5297 N   0  0  0  0  0  0  0  0  0  0  0  0
   -3.7350    2.6152    1.5929 S   0  0  0  0  0  6  0  0  0  0  0  0
   -3.7092    3.0606    2.9679 O   0  0  0  0  0  0  0  0  0  0  0  0
   -3.1489    3.4100    0.5367 O   0  0  0  0  0  0  0  0  0  0  0  0
   -5.4186    2.2798    1.1406 C   0  0  0  0  0  0  0  0  0  0  0  0
   -5.7099    1.9364   -0.1842 C   0  0  0  0  0  0  0  0  0  0  0  0
   -7.0310    1.6738   -0.5508 C   0  0  0  0  0  0  0  0  0  0  0  0
   -8.0452    1.7637    0.4036 C   0  0  0  0  0  0  0  0  0  0  0  0
   -9.8335    1.4074   -0.0967 Br  0  0  0  0  0  0  0  0  0  0  0  0
   -7.7542    2.1162    1.7231 C   0  0  0  0  0  0  0  0  0  0  0  0
   -6.4347    2.3796    2.0962 C   0  0  0  0  0  0  0  0  0  0  0  0
    5.6553   -0.4010   -1.5433 C   0  0  0  0  0  0  0  0  0  0  0  0
    6.1362   -0.4792   -2.8522 C   0  0  0  0  0  0  0  0  0  0  0  0
    5.9572   -1.7503   -5.5658 H   0  0  0  0  0  0  0  0  0  0  0  0
    7.3488   -2.7410   -5.0609 H   0  0  0  0  0  0  0  0  0  0  0  0
    7.5009   -0.9841   -5.1113 H   0  0  0  0  0  0  0  0  0  0  0  0
    6.1496   -3.8616   -3.2103 H   0  0  0  0  0  0  0  0  0  0  0  0
    5.2987   -3.7278   -0.9145 H   0  0  0  0  0  0  0  0  0  0  0  0
    5.2426   -0.6197    1.1041 H   0  0  0  0  0  0  0  0  0  0  0  0
    5.0742   -2.3753    1.1459 H   0  0  0  0  0  0  0  0  0  0  0  0
    2.8210   -2.1843    0.2747 H   0  0  0  0  0  0  0  0  0  0  0  0
    1.1078    1.7328    0.5138 H   0  0  0  0  0  0  0  0  0  0  0  0
   -1.2878    0.1313   -0.2773 H   0  0  0  0  0  0  0  0  0  0  0  0
   -1.1453    1.8941   -0.3318 H   0  0  0  0  0  0  0  0  0  0  0  0
   -1.1893    1.9664    2.2014 H   0  0  0  0  0  0  0  0  0  0  0  0
   -2.3476   -1.5437    1.5950 H   0  0  0  0  0  0  0  0  0  0  0  0
   -2.3410   -1.5385    3.3782 H   0  0  0  0  0  0  0  0  0  0  0  0
   -3.6608    0.4913    3.4687 H   0  0  0  0  0  0  0  0  0  0  0  0
   -4.4399   -0.4118    2.1329 H   0  0  0  0  0  0  0  0  0  0  0  0
   -4.9175    1.8761   -0.9277 H   0  0  0  0  0  0  0  0  0  0  0  0
   -7.2601    1.4051   -1.5793 H   0  0  0  0  0  0  0  0  0  0  0  0
   -8.5466    2.1921    2.4630 H   0  0  0  0  0  0  0  0  0  0  0  0
   -6.2118    2.6623    3.1226 H   0  0  0  0  0  0  0  0  0  0  0  0
    5.5006    0.5764   -1.0887 H   0  0  0  0  0  0  0  0  0  0  0  0
    6.3494    0.4395   -3.3942 H   0  0  0  0  0  0  0  0  0  0  0  0
  1  2  1  0
  2  3  2  0
  3  4  1  0
  4  5  2  0
  5  6  1  0
  6  7  1  0
  7  8  1  0
  8  9  2  0
  8 10  1  0
 10 11  2  0
 10 12  1  0
 12 13  1  0
 13 14  1  0
 14 15  1  0
 15 16  1  0
 16 17  1  0
 17 18  1  0
 18 19  1  0
 19 20  2  0
 19 21  2  0
 19 22  1  0
 22 23  2  0
 23 24  1  0
 24 25  2  0
 25 26  1  0
 25 27  1  0
 27 28  2  0
  5 29  1  0
 29 30  2  0
 30  2  1  0
 18 14  1  0
 28 22  1  0
  1 31  1  0
  1 32  1  0
  1 33  1  0
  3 34  1  0
  4 35  1  0
  6 36  1  0
  6 37  1  0
  7 38  1  0
 12 39  1  0
 13 40  1  0
 13 41  1  0
 14 42  1  0
 16 43  1  0
 16 44  1  0
 17 45  1  0
 17 46  1  0
 23 47  1  0
 24 48  1  0
 27 49  1  0
 28 50  1  0
 29 51  1  0
 30 52  1  0
M  END
$$$$
