
     RDKit          3D

 30 32  0  0  0  0  0  0  0  0999 V2000
   -0.1189    1.9828    0.8731 C   0  0  0  0  0  0  0  0  0  0  0  0
   -0.5916    0.7033    0.3822 N   0  0  0  0  0  0  0  0  0  0  0  0
    0.2097   -0.3089   -0.1115 C   0  0  0  0  0  0  0  0  0  0  0  0
    1.6705   -0.2580   -0.1609 C   0  0  0  0  0  0  0  0  0  0  0  0
    2.3090   -0.0898   -1.3961 C   0  0  0  0  0  0  0  0  0  0  0  0
    3.7021   -0.0067   -1.4672 C   0  0  0  0  0  0  0  0  0  0  0  0
    4.4681   -0.0924   -0.3047 C   0  0  0  0  0  0  0  0  0  0  0  0
    3.8442   -0.2697    0.9297 C   0  0  0  0  0  0  0  0  0  0  0  0
    2.4561   -0.3606    0.9968 C   0  0  0  0  0  0  0  0  0  0  0  0
    1.9124   -0.5608    2.2375 O   0  0  0  0  0  0  0  0  0  0  0  0
   -0.6328   -1.3233   -0.5261 C   0  0  0  0  0  0  0  0  0  0  0  0
   -1.9687   -0.9453   -0.2330 C   0  0  0  0  0  0  0  0  0  0  0  0
   -3.2168   -1.5754   -0.4053 C   0  0  0  0  0  0  0  0  0  0  0  0
   -4.3809   -0.9230    0.0126 C   0  0  0  0  0  0  0  0  0  0  0  0
   -4.3133    0.3386    0.5955 C   0  0  0  0  0  0  0  0  0  0  0  0
   -3.0858    0.9842    0.7744 C   0  0  0  0  0  0  0  0  0  0  0  0
   -1.9213    0.3232    0.3488 C   0  0  0  0  0  0  0  0  0  0  0  0
    0.0499    1.8911    1.9487 H   0  0  0  0  0  0  0  0  0  0  0  0
   -0.8689    2.7502    0.6673 H   0  0  0  0  0  0  0  0  0  0  0  0
    0.8051    2.2587    0.3599 H   0  0  0  0  0  0  0  0  0  0  0  0
    1.7226   -0.0133   -2.3091 H   0  0  0  0  0  0  0  0  0  0  0  0
    4.1887    0.1272   -2.4300 H   0  0  0  0  0  0  0  0  0  0  0  0
    5.5516   -0.0269   -0.3599 H   0  0  0  0  0  0  0  0  0  0  0  0
    4.4372   -0.3469    1.8366 H   0  0  0  0  0  0  0  0  0  0  0  0
    0.9851   -0.8319    2.1114 H   0  0  0  0  0  0  0  0  0  0  0  0
   -0.3153   -2.2563   -0.9743 H   0  0  0  0  0  0  0  0  0  0  0  0
   -3.2764   -2.5615   -0.8563 H   0  0  0  0  0  0  0  0  0  0  0  0
   -5.3449   -1.4080   -0.1186 H   0  0  0  0  0  0  0  0  0  0  0  0
   -5.2281    0.8316    0.9165 H   0  0  0  0  0  0  0  0  0  0  0  0
   -3.0484    1.9680    1.2306 H   0  0  0  0  0  0  0  0  0  0  0  0
  1  2  1  0
  2  3  1  0
  3  4  1  0
  4  5  2  0
  5  6  1  0
  6  7  2  0
  7  8  1  0
  8  9  2  0
  9 10  1  0
  3 11  2  0
 11 12  1  0
 12 13  2  0
 13 14  1  0
 14 15  2  0
 15 16  1  0
 16 17  2  0
 17  2  1  0
  9  4  1  0
 17 12  1  0
  1 18  1  0
  1 19  1  0
  1 20  1  0
  5 21  1  0
  6 22  1  0
  7 23  1  0
  8 24  1  0
 10 25  1  0
 11 26  1  0
 13 27  1  0
 14 28  1  0
 15 29  1  0
 16 30  1  0
M  END
$$$$
