
     RDKit          3D

 47 51  0  0  0  0  0  0  0  0999 V2000
   -1.1737   -1.0887   -3.3614 C   0  0  0  0  0  0  0  0  0  0  0  0
   -1.9147   -0.2669   -2.3535 C   0  0  0  0  0  0  0  0  0  0  0  0
   -3.1739    0.0227   -2.5710 N   0  0  0  0  0  0  0  0  0  0  0  0
   -3.8174    0.7787   -1.6307 C   0  0  0  0  0  0  0  0  0  0  0  0
   -5.4574    1.2337   -1.7902 S   0  0  0  0  0  0  0  0  0  0  0  0
   -5.4305    2.0867   -0.3101 C   0  0  0  0  0  0  0  0  0  0  0  0
   -4.2021    2.0318    0.3251 C   0  0  0  0  0  0  0  0  0  0  0  0
   -3.2976    1.2828   -0.4572 C   0  0  0  0  0  0  0  0  0  0  0  0
   -1.8252    0.9184   -0.2481 C   0  0  0  0  0  0  0  0  0  0  0  0
   -1.0154    1.2167    0.7351 N   0  0  0  0  0  0  0  0  0  0  0  0
    0.1941    0.6407    0.4340 N   0  0  0  0  0  0  0  0  0  0  0  0
    0.0796    0.0112   -0.7190 C   0  0  0  0  0  0  0  0  0  0  0  0
    1.3723   -0.8707   -1.4528 S   0  0  0  0  0  0  0  0  0  0  0  0
    2.7958   -0.1700   -0.5662 C   0  0  0  0  0  0  0  0  0  0  0  0
    4.0722   -0.7520   -1.1460 C   0  0  0  0  0  0  0  0  0  0  0  0
    4.5006   -0.4363   -2.2542 O   0  0  0  0  0  0  0  0  0  0  0  0
    4.7098   -1.6620   -0.3323 N   0  0  0  0  0  0  0  0  0  0  0  0
    5.8525   -2.3993   -0.8197 C   0  0  0  0  0  0  0  0  0  0  0  0
    6.4828   -3.1030    0.3222 C   0  0  0  0  0  0  0  0  0  0  0  0
    7.7226   -3.0156    0.9226 C   0  0  0  0  0  0  0  0  0  0  0  0
    7.7204   -3.9537    1.9834 C   0  0  0  0  0  0  0  0  0  0  0  0
    6.4823   -4.5517    1.9645 C   0  0  0  0  0  0  0  0  0  0  0  0
    5.7202   -4.0400    0.9626 O   0  0  0  0  0  0  0  0  0  0  0  0
   -1.2007    0.1537   -1.2114 N   0  0  0  0  0  0  0  0  0  0  0  0
   -3.9434    2.7154    1.6325 C   0  0  0  0  0  0  0  0  0  0  0  0
   -5.2560    3.0951    2.3379 C   0  0  0  0  0  0  0  0  0  0  0  0
   -6.2602    3.7356    1.3665 C   0  0  0  0  0  0  0  0  0  0  0  0
   -6.6458    2.7784    0.2265 C   0  0  0  0  0  0  0  0  0  0  0  0
   -1.8390   -1.3325   -4.1976 H   0  0  0  0  0  0  0  0  0  0  0  0
   -0.3301   -0.5259   -3.7698 H   0  0  0  0  0  0  0  0  0  0  0  0
   -0.8441   -2.0324   -2.9190 H   0  0  0  0  0  0  0  0  0  0  0  0
    2.7233   -0.3973    0.5033 H   0  0  0  0  0  0  0  0  0  0  0  0
    2.8329    0.9187   -0.6850 H   0  0  0  0  0  0  0  0  0  0  0  0
    4.1949   -2.0861    0.4306 H   0  0  0  0  0  0  0  0  0  0  0  0
    5.5046   -3.1137   -1.5734 H   0  0  0  0  0  0  0  0  0  0  0  0
    6.5542   -1.7075   -1.2989 H   0  0  0  0  0  0  0  0  0  0  0  0
    8.5258   -2.3517    0.6303 H   0  0  0  0  0  0  0  0  0  0  0  0
    8.5227   -4.1670    2.6775 H   0  0  0  0  0  0  0  0  0  0  0  0
    6.0126   -5.3207    2.5630 H   0  0  0  0  0  0  0  0  0  0  0  0
   -3.3516    2.0713    2.2926 H   0  0  0  0  0  0  0  0  0  0  0  0
   -3.3580    3.6237    1.4420 H   0  0  0  0  0  0  0  0  0  0  0  0
   -5.0439    3.7819    3.1642 H   0  0  0  0  0  0  0  0  0  0  0  0
   -5.7084    2.1958    2.7773 H   0  0  0  0  0  0  0  0  0  0  0  0
   -5.8184    4.6481    0.9452 H   0  0  0  0  0  0  0  0  0  0  0  0
   -7.1637    4.0397    1.9072 H   0  0  0  0  0  0  0  0  0  0  0  0
   -7.3447    2.0235    0.6075 H   0  0  0  0  0  0  0  0  0  0  0  0
   -7.1602    3.3402   -0.5614 H   0  0  0  0  0  0  0  0  0  0  0  0
  1  2  1  0
  2  3  2  0
  3  4  1  0
  4  5  1  0
  5  6  1  0
  6  7  2  0
  7  8  1  0
  8  9  1  0
  9 10  2  0
 10 11  1  0
 11 12  2  0
 12 13  1  0
 13 14  1  0
 14 15  1  0
 15 16  2  0
 15 17  1  0
 17 18  1  0
 18 19  1  0
 19 20  2  0
 20 21  1  0
 21 22  2  0
 22 23  1  0
 12 24  1  0
  7 25  1  0
 25 26  1  0
 26 27  1  0
 27 28  1  0
 24  2  1  0
  8  4  2  0
 24  9  1  0
 28  6  1  0
 23 19  1  0
  1 29  1  0
  1 30  1  0
  1 31  1  0
 14 32  1  0
 14 33  1  0
 17 34  1  0
 18 35  1  0
 18 36  1  0
 20 37  1  0
 21 38  1  0
 22 39  1  0
 25 40  1  0
 25 41  1  0
 26 42  1  0
 26 43  1  0
 27 44  1  0
 27 45  1  0
 28 46  1  0
 28 47  1  0
M  END
$$$$
