
     RDKit          3D

 42 44  0  0  0  0  0  0  0  0999 V2000
   -3.3307   -2.3122    2.6490 C   0  0  0  0  0  0  0  0  0  0  0  0
   -3.9079   -1.3567    1.7682 O   0  0  0  0  0  0  0  0  0  0  0  0
   -3.0936   -0.3510    1.3257 C   0  0  0  0  0  0  0  0  0  0  0  0
   -3.7102    0.5550    0.4561 C   0  0  0  0  0  0  0  0  0  0  0  0
   -2.9975    1.6293   -0.0790 C   0  0  0  0  0  0  0  0  0  0  0  0
   -1.6511    1.7881    0.2525 C   0  0  0  0  0  0  0  0  0  0  0  0
   -0.7350    3.1573   -0.4189 S   0  0  0  0  0  6  0  0  0  0  0  0
   -1.6914    4.1720   -0.8104 O   0  0  0  0  0  0  0  0  0  0  0  0
    0.3446    3.4622    0.4947 O   0  0  0  0  0  0  0  0  0  0  0  0
   -0.1063    2.5357   -1.8572 N   0  0  0  0  0  0  0  0  0  0  0  0
    0.6621    1.3347   -1.8450 C   0  0  0  0  0  0  0  0  0  0  0  0
    1.8724    1.2966   -1.1415 C   0  0  0  0  0  0  0  0  0  0  0  0
    2.6370    0.1238   -1.0775 C   0  0  0  0  0  0  0  0  0  0  0  0
    4.2008    0.2051   -0.2192 S   0  0  0  0  0  0  0  0  0  0  0  0
    3.9848   -0.9435    1.0677 C   0  0  0  0  0  0  0  0  0  0  0  0
    3.7274   -2.2705    0.8298 N   0  0  0  0  0  0  0  0  0  0  0  0
    3.6873   -2.7807    2.0392 C   0  0  0  0  0  0  0  0  0  0  0  0
    3.9179   -1.8016    2.9539 N   0  0  0  0  0  0  0  0  0  0  0  0
    4.1124   -0.6170    2.3557 N   0  0  0  0  0  0  0  0  0  0  0  0
    2.1683   -1.0099   -1.7498 C   0  0  0  0  0  0  0  0  0  0  0  0
    2.8281   -2.2080   -1.7567 O   0  0  0  0  0  0  0  0  0  0  0  0
    0.9772   -0.9723   -2.4754 C   0  0  0  0  0  0  0  0  0  0  0  0
    0.2065    0.1977   -2.5306 C   0  0  0  0  0  0  0  0  0  0  0  0
   -1.0676    0.1948   -3.3269 C   0  0  0  0  0  0  0  0  0  0  0  0
   -1.0304    0.9057    1.1412 C   0  0  0  0  0  0  0  0  0  0  0  0
   -1.7522   -0.1692    1.6697 C   0  0  0  0  0  0  0  0  0  0  0  0
   -2.5097   -2.8506    2.1640 H   0  0  0  0  0  0  0  0  0  0  0  0
   -4.1042   -3.0434    2.9024 H   0  0  0  0  0  0  0  0  0  0  0  0
   -3.0002   -1.8413    3.5805 H   0  0  0  0  0  0  0  0  0  0  0  0
   -4.7588    0.4219    0.1983 H   0  0  0  0  0  0  0  0  0  0  0  0
   -3.4977    2.3281   -0.7450 H   0  0  0  0  0  0  0  0  0  0  0  0
   -0.7153    2.7163   -2.6525 H   0  0  0  0  0  0  0  0  0  0  0  0
    2.2336    2.1986   -0.6500 H   0  0  0  0  0  0  0  0  0  0  0  0
    3.5072   -3.8130    2.3046 H   0  0  0  0  0  0  0  0  0  0  0  0
    3.9606   -1.8623    3.9657 H   0  0  0  0  0  0  0  0  0  0  0  0
    3.3927   -2.2489   -0.9560 H   0  0  0  0  0  0  0  0  0  0  0  0
    0.6550   -1.8722   -2.9957 H   0  0  0  0  0  0  0  0  0  0  0  0
   -1.9165    0.4744   -2.6967 H   0  0  0  0  0  0  0  0  0  0  0  0
   -0.9903    0.8947   -4.1653 H   0  0  0  0  0  0  0  0  0  0  0  0
   -1.2821   -0.7961   -3.7411 H   0  0  0  0  0  0  0  0  0  0  0  0
    0.0117    1.0434    1.4231 H   0  0  0  0  0  0  0  0  0  0  0  0
   -1.2387   -0.8422    2.3483 H   0  0  0  0  0  0  0  0  0  0  0  0
  1  2  1  0
  2  3  1  0
  3  4  2  0
  4  5  1  0
  5  6  2  0
  6  7  1  0
  7  8  2  0
  7  9  2  0
  7 10  1  0
 10 11  1  0
 11 12  2  0
 12 13  1  0
 13 14  1  0
 14 15  1  0
 15 16  1  0
 16 17  2  0
 17 18  1  0
 18 19  1  0
 13 20  2  0
 20 21  1  0
 20 22  1  0
 22 23  2  0
 23 24  1  0
  6 25  1  0
 25 26  2  0
 26  3  1  0
 23 11  1  0
 19 15  2  0
  1 27  1  0
  1 28  1  0
  1 29  1  0
  4 30  1  0
  5 31  1  0
 10 32  1  0
 12 33  1  0
 17 34  1  0
 18 35  1  0
 21 36  1  0
 22 37  1  0
 24 38  1  0
 24 39  1  0
 24 40  1  0
 25 41  1  0
 26 42  1  0
M  END
$$$$
