
     RDKit          3D

 52 54  0  0  0  0  0  0  0  0999 V2000
    2.0904   -3.6077    2.3659 C   0  0  0  0  0  0  0  0  0  0  0  0
    2.3149   -2.8855    1.0720 C   0  0  0  0  0  0  0  0  0  0  0  0
    2.0179   -3.4995   -0.1505 C   0  0  0  0  0  0  0  0  0  0  0  0
    2.1920   -2.8095   -1.3541 C   0  0  0  0  0  0  0  0  0  0  0  0
    2.6653   -1.4913   -1.3531 C   0  0  0  0  0  0  0  0  0  0  0  0
    2.8246   -0.7279   -2.6419 C   0  0  0  0  0  0  0  0  0  0  0  0
    1.6835    0.1197   -2.8751 N   0  0  0  0  0  0  0  0  0  0  0  0
    1.6671    1.4383   -2.4748 C   0  0  0  0  0  0  0  0  0  0  0  0
    2.6287    2.1073   -2.1313 O   0  0  0  0  0  0  0  0  0  0  0  0
    0.2455    2.0498   -2.4516 C   0  0  0  0  0  0  0  0  0  0  0  0
   -0.6972    1.4172   -2.9063 O   0  0  0  0  0  0  0  0  0  0  0  0
    0.1879    3.2879   -1.8542 N   0  0  0  0  0  0  0  0  0  0  0  0
   -1.0713    3.9232   -1.5181 C   0  0  0  0  0  0  0  0  0  0  0  0
   -1.5492    3.6955   -0.0666 C   0  0  0  0  0  0  0  0  0  0  0  0
   -2.7966    4.3961    0.1117 O   0  0  0  0  0  0  0  0  0  0  0  0
   -3.5490    3.6174    1.0417 C   0  0  0  0  0  0  0  0  0  0  0  0
   -3.2290    2.1931    0.6555 C   0  0  0  0  0  0  0  0  0  0  0  0
   -1.8174    2.2628    0.2230 N   0  0  0  0  0  0  0  0  0  0  0  0
   -0.6737    1.5623    1.2531 S   0  0  0  0  0  6  0  0  0  0  0  0
   -0.9408    2.0629    2.5852 O   0  0  0  0  0  0  0  0  0  0  0  0
    0.6333    1.7076    0.6534 O   0  0  0  0  0  0  0  0  0  0  0  0
   -1.0972   -0.1608    1.2138 C   0  0  0  0  0  0  0  0  0  0  0  0
   -1.4031   -0.8308    2.4011 C   0  0  0  0  0  0  0  0  0  0  0  0
   -1.7268   -2.1870    2.3596 C   0  0  0  0  0  0  0  0  0  0  0  0
   -1.7383   -2.8601    1.1368 C   0  0  0  0  0  0  0  0  0  0  0  0
   -2.1392   -4.7059    1.0876 Br  0  0  0  0  0  0  0  0  0  0  0  0
   -1.4410   -2.1877   -0.0483 C   0  0  0  0  0  0  0  0  0  0  0  0
   -1.1173   -0.8316   -0.0120 C   0  0  0  0  0  0  0  0  0  0  0  0
    2.9439   -0.8732   -0.1264 C   0  0  0  0  0  0  0  0  0  0  0  0
    2.7682   -1.5630    1.0744 C   0  0  0  0  0  0  0  0  0  0  0  0
    2.9024   -3.4043    3.0703 H   0  0  0  0  0  0  0  0  0  0  0  0
    1.1465   -3.2881    2.8140 H   0  0  0  0  0  0  0  0  0  0  0  0
    2.0560   -4.6911    2.2145 H   0  0  0  0  0  0  0  0  0  0  0  0
    1.6420   -4.5203   -0.1753 H   0  0  0  0  0  0  0  0  0  0  0  0
    1.9498   -3.3081   -2.2909 H   0  0  0  0  0  0  0  0  0  0  0  0
    3.7461   -0.1356   -2.6234 H   0  0  0  0  0  0  0  0  0  0  0  0
    2.8963   -1.4177   -3.4914 H   0  0  0  0  0  0  0  0  0  0  0  0
    0.7774   -0.3069   -3.0329 H   0  0  0  0  0  0  0  0  0  0  0  0
    1.0463    3.5816   -1.3933 H   0  0  0  0  0  0  0  0  0  0  0  0
   -1.8462    3.5914   -2.2211 H   0  0  0  0  0  0  0  0  0  0  0  0
   -0.9384    4.9985   -1.6857 H   0  0  0  0  0  0  0  0  0  0  0  0
   -0.8281    4.1290    0.6380 H   0  0  0  0  0  0  0  0  0  0  0  0
   -3.2030    3.8575    2.0537 H   0  0  0  0  0  0  0  0  0  0  0  0
   -4.6146    3.8464    0.9613 H   0  0  0  0  0  0  0  0  0  0  0  0
   -3.4216    1.4965    1.4731 H   0  0  0  0  0  0  0  0  0  0  0  0
   -3.8242    1.8776   -0.2074 H   0  0  0  0  0  0  0  0  0  0  0  0
   -1.3805   -0.3110    3.3573 H   0  0  0  0  0  0  0  0  0  0  0  0
   -1.9489   -2.7140    3.2845 H   0  0  0  0  0  0  0  0  0  0  0  0
   -1.4391   -2.7123   -0.9997 H   0  0  0  0  0  0  0  0  0  0  0  0
   -0.8618   -0.3129   -0.9322 H   0  0  0  0  0  0  0  0  0  0  0  0
    3.2871    0.1606   -0.0974 H   0  0  0  0  0  0  0  0  0  0  0  0
    2.9804   -1.0542    2.0132 H   0  0  0  0  0  0  0  0  0  0  0  0
  1  2  1  0
  2  3  2  0
  3  4  1  0
  4  5  2  0
  5  6  1  0
  6  7  1  0
  7  8  1  0
  8  9  2  0
  8 10  1  0
 10 11  2  0
 10 12  1  0
 12 13  1  0
 13 14  1  0
 14 15  1  0
 15 16  1  0
 16 17  1  0
 17 18  1  0
 18 19  1  0
 19 20  2  0
 19 21  2  0
 19 22  1  0
 22 23  2  0
 23 24  1  0
 24 25  2  0
 25 26  1  0
 25 27  1  0
 27 28  2  0
  5 29  1  0
 29 30  2  0
 30  2  1  0
 18 14  1  0
 28 22  1  0
  1 31  1  0
  1 32  1  0
  1 33  1  0
  3 34  1  0
  4 35  1  0
  6 36  1  0
  6 37  1  0
  7 38  1  0
 12 39  1  0
 13 40  1  0
 13 41  1  0
 14 42  1  0
 16 43  1  0
 16 44  1  0
 17 45  1  0
 17 46  1  0
 23 47  1  0
 24 48  1  0
 27 49  1  0
 28 50  1  0
 29 51  1  0
 30 52  1  0
M  END
$$$$
