
     RDKit          3D

 24 25  0  0  0  0  0  0  0  0999 V2000
    4.6688    0.7256    0.4494 C   0  0  0  0  0  0  0  0  0  0  0  0
    2.8680    0.8808    0.4378 S   0  0  0  0  0  0  0  0  0  0  0  0
    2.4108   -0.5899   -0.3565 C   0  0  0  0  0  0  0  0  0  0  0  0
    3.2780   -1.4683   -0.8129 N   0  0  0  0  0  0  0  0  0  0  0  0
    2.5555   -2.4148   -1.4736 N   0  0  0  0  0  0  0  0  0  0  0  0
    1.2640   -2.1364   -1.4384 N   0  0  0  0  0  0  0  0  0  0  0  0
    1.1239   -1.0000   -0.6960 N   0  0  0  0  0  0  0  0  0  0  0  0
   -0.1840   -0.4967   -0.4276 C   0  0  0  0  0  0  0  0  0  0  0  0
   -1.2750   -1.0609   -1.1133 C   0  0  0  0  0  0  0  0  0  0  0  0
   -2.5793   -0.6067   -0.8915 C   0  0  0  0  0  0  0  0  0  0  0  0
   -2.8332    0.4177    0.0268 C   0  0  0  0  0  0  0  0  0  0  0  0
   -4.2442    0.8852    0.2462 C   0  0  0  0  0  0  0  0  0  0  0  0
   -1.7490    0.9681    0.7230 C   0  0  0  0  0  0  0  0  0  0  0  0
   -1.9781    2.2216    1.8928 Cl  0  0  0  0  0  0  0  0  0  0  0  0
   -0.4387    0.5155    0.5022 C   0  0  0  0  0  0  0  0  0  0  0  0
    5.1007    1.6033    0.9378 H   0  0  0  0  0  0  0  0  0  0  0  0
    5.0588    0.6723   -0.5709 H   0  0  0  0  0  0  0  0  0  0  0  0
    4.9764   -0.1645    1.0053 H   0  0  0  0  0  0  0  0  0  0  0  0
   -1.1358   -1.8590   -1.8429 H   0  0  0  0  0  0  0  0  0  0  0  0
   -3.3963   -1.0648   -1.4469 H   0  0  0  0  0  0  0  0  0  0  0  0
   -4.5490    0.7057    1.2822 H   0  0  0  0  0  0  0  0  0  0  0  0
   -4.9486    0.3512   -0.4008 H   0  0  0  0  0  0  0  0  0  0  0  0
   -4.3341    1.9516    0.0158 H   0  0  0  0  0  0  0  0  0  0  0  0
    0.3405    0.9636    1.1053 H   0  0  0  0  0  0  0  0  0  0  0  0
  1  2  1  0
  2  3  1  0
  3  4  2  0
  4  5  1  0
  5  6  2  0
  6  7  1  0
  7  8  1  0
  8  9  2  0
  9 10  1  0
 10 11  2  0
 11 12  1  0
 11 13  1  0
 13 14  1  0
 13 15  2  0
  7  3  1  0
 15  8  1  0
  1 16  1  0
  1 17  1  0
  1 18  1  0
  9 19  1  0
 10 20  1  0
 12 21  1  0
 12 22  1  0
 12 23  1  0
 15 24  1  0
M  END
$$$$
