
     RDKit          3D

 58 63  0  0  0  0  0  0  0  0999 V2000
    7.8304   -2.4975    1.0224 C   0  0  0  0  0  0  0  0  0  0  0  0
    6.6473   -1.5980    1.1311 C   0  0  0  0  0  0  0  0  0  0  0  0
    6.4705   -0.3414    0.5920 C   0  0  0  0  0  0  0  0  0  0  0  0
    5.1994    0.2122    0.9236 C   0  0  0  0  0  0  0  0  0  0  0  0
    4.4332   -0.6465    1.6898 C   0  0  0  0  0  0  0  0  0  0  0  0
    3.0972   -0.4623    2.2390 C   0  0  0  0  0  0  0  0  0  0  0  0
    2.8169   -0.7639    3.4006 O   0  0  0  0  0  0  0  0  0  0  0  0
    2.1149    0.0988    1.4048 N   0  0  0  0  0  0  0  0  0  0  0  0
    2.1925    0.0931   -0.0570 C   0  0  0  0  0  0  0  0  0  0  0  0
    0.8209   -0.1328   -0.6879 C   0  0  0  0  0  0  0  0  0  0  0  0
   -0.1752    0.9899   -0.2919 C   0  0  0  0  0  0  0  0  0  0  0  0
    0.0550    1.4447    1.1760 C   0  0  0  0  0  0  0  0  0  0  0  0
    0.8297    0.4281    2.0056 C   0  0  0  0  0  0  0  0  0  0  0  0
    0.2287    2.0940   -1.1542 O   0  0  0  0  0  0  0  0  0  0  0  0
   -0.6718    3.0903   -1.3819 C   0  0  0  0  0  0  0  0  0  0  0  0
   -0.1679    4.2452   -1.9811 C   0  0  0  0  0  0  0  0  0  0  0  0
   -1.0112    5.3300   -2.2346 C   0  0  0  0  0  0  0  0  0  0  0  0
   -2.3604    5.2551   -1.8900 C   0  0  0  0  0  0  0  0  0  0  0  0
   -3.3942    6.5946   -2.1970 Cl  0  0  0  0  0  0  0  0  0  0  0  0
   -2.8749    4.1027   -1.3027 C   0  0  0  0  0  0  0  0  0  0  0  0
   -2.0226    3.0195   -1.0628 C   0  0  0  0  0  0  0  0  0  0  0  0
   -2.5410    1.7831   -0.4651 C   0  0  0  0  0  0  0  0  0  0  0  0
   -3.6350    1.7921    0.0934 O   0  0  0  0  0  0  0  0  0  0  0  0
   -1.6418    0.5559   -0.5751 C   0  0  0  0  0  0  0  0  0  0  0  0
   -2.1650   -0.5807    0.2925 C   0  0  0  0  0  0  0  0  0  0  0  0
   -2.9423   -1.3213   -0.7427 C   0  0  0  0  0  0  0  0  0  0  0  0
   -3.8988   -2.3966   -0.3887 C   0  0  0  0  0  0  0  0  0  0  0  0
   -4.6524   -2.9949   -1.4066 C   0  0  0  0  0  0  0  0  0  0  0  0
   -5.5585   -4.0136   -1.1063 C   0  0  0  0  0  0  0  0  0  0  0  0
   -5.7152   -4.4405    0.2109 C   0  0  0  0  0  0  0  0  0  0  0  0
   -4.9667   -3.8506    1.2286 C   0  0  0  0  0  0  0  0  0  0  0  0
   -4.0586   -2.8304    0.9323 C   0  0  0  0  0  0  0  0  0  0  0  0
   -2.6864   -0.9746   -1.9643 N   0  0  0  0  0  0  0  0  0  0  0  0
   -1.7436    0.0743   -1.9254 O   0  0  0  0  0  0  0  0  0  0  0  0
    5.2834   -2.0921    2.0380 S   0  0  0  0  0  0  0  0  0  0  0  0
    7.5507   -3.4553    0.5714 H   0  0  0  0  0  0  0  0  0  0  0  0
    8.2647   -2.6885    2.0092 H   0  0  0  0  0  0  0  0  0  0  0  0
    8.6074   -2.0472    0.3958 H   0  0  0  0  0  0  0  0  0  0  0  0
    7.2213    0.1648   -0.0034 H   0  0  0  0  0  0  0  0  0  0  0  0
    4.8706    1.1993    0.6225 H   0  0  0  0  0  0  0  0  0  0  0  0
    2.6056    1.0586   -0.3692 H   0  0  0  0  0  0  0  0  0  0  0  0
    2.8716   -0.6954   -0.3957 H   0  0  0  0  0  0  0  0  0  0  0  0
    0.9424   -0.1654   -1.7782 H   0  0  0  0  0  0  0  0  0  0  0  0
    0.4615   -1.1194   -0.3776 H   0  0  0  0  0  0  0  0  0  0  0  0
    0.6147    2.3899    1.1878 H   0  0  0  0  0  0  0  0  0  0  0  0
   -0.8956    1.6567    1.6786 H   0  0  0  0  0  0  0  0  0  0  0  0
    0.2651   -0.5039    2.1180 H   0  0  0  0  0  0  0  0  0  0  0  0
    0.9918    0.8278    3.0135 H   0  0  0  0  0  0  0  0  0  0  0  0
    0.8849    4.3058   -2.2469 H   0  0  0  0  0  0  0  0  0  0  0  0
   -0.6101    6.2278   -2.6985 H   0  0  0  0  0  0  0  0  0  0  0  0
   -3.9293    4.0402   -1.0432 H   0  0  0  0  0  0  0  0  0  0  0  0
   -2.7817   -0.2549    1.1331 H   0  0  0  0  0  0  0  0  0  0  0  0
   -1.3858   -1.2499    0.6631 H   0  0  0  0  0  0  0  0  0  0  0  0
   -4.5413   -2.6704   -2.4395 H   0  0  0  0  0  0  0  0  0  0  0  0
   -6.1417   -4.4717   -1.9013 H   0  0  0  0  0  0  0  0  0  0  0  0
   -6.4219   -5.2333    0.4444 H   0  0  0  0  0  0  0  0  0  0  0  0
   -5.0915   -4.1861    2.2555 H   0  0  0  0  0  0  0  0  0  0  0  0
   -3.4901   -2.3955    1.7483 H   0  0  0  0  0  0  0  0  0  0  0  0
  1  2  1  0
  2  3  2  0
  3  4  1  0
  4  5  2  0
  5  6  1  0
  6  7  2  0
  6  8  1  0
  8  9  1  0
  9 10  1  0
 10 11  1  0
 11 12  1  0
 12 13  1  0
 11 14  1  0
 14 15  1  0
 15 16  2  0
 16 17  1  0
 17 18  2  0
 18 19  1  0
 18 20  1  0
 20 21  2  0
 21 22  1  0
 22 23  2  0
 22 24  1  0
 24 25  1  0
 25 26  1  0
 26 27  1  0
 27 28  2  0
 28 29  1  0
 29 30  2  0
 30 31  1  0
 31 32  2  0
 26 33  2  0
 33 34  1  0
  5 35  1  0
 35  2  1  0
 13  8  1  0
 21 15  1  0
 34 24  1  0
 24 11  1  0
 32 27  1  0
  1 36  1  0
  1 37  1  0
  1 38  1  0
  3 39  1  0
  4 40  1  0
  9 41  1  0
  9 42  1  0
 10 43  1  0
 10 44  1  0
 12 45  1  0
 12 46  1  0
 13 47  1  0
 13 48  1  0
 16 49  1  0
 17 50  1  0
 20 51  1  0
 25 52  1  0
 25 53  1  0
 28 54  1  0
 29 55  1  0
 30 56  1  0
 31 57  1  0
 32 58  1  0
M  END
$$$$
