
     RDKit          3D

 44 45  0  0  0  0  0  0  0  0999 V2000
    7.9789    0.8597    0.6331 C   0  0  0  0  0  0  0  0  0  0  0  0
    7.1726    0.3093    1.7944 C   0  0  0  0  0  0  0  0  0  0  0  0
    5.7753    0.2982    1.4649 O   0  0  0  0  0  0  0  0  0  0  0  0
    5.3320   -0.8062    0.8155 C   0  0  0  0  0  0  0  0  0  0  0  0
    6.0072   -1.7693    0.4898 O   0  0  0  0  0  0  0  0  0  0  0  0
    3.8737   -0.6971    0.5334 C   0  0  0  0  0  0  0  0  0  0  0  0
    3.2480   -1.7623   -0.1333 C   0  0  0  0  0  0  0  0  0  0  0  0
    1.8819   -1.7131   -0.4238 C   0  0  0  0  0  0  0  0  0  0  0  0
    1.1413   -0.5882   -0.0522 C   0  0  0  0  0  0  0  0  0  0  0  0
   -0.5965   -0.5244   -0.3904 S   0  0  0  0  0  6  0  0  0  0  0  0
   -1.0519   -1.8395   -0.7778 O   0  0  0  0  0  0  0  0  0  0  0  0
   -1.2450    0.2302    0.6646 O   0  0  0  0  0  0  0  0  0  0  0  0
   -0.6266    0.4680   -1.8001 N   0  0  0  0  0  0  0  0  0  0  0  0
   -1.7109    1.4180   -1.7464 N   0  0  0  0  0  0  0  0  0  0  0  0
   -3.1234    0.8347   -2.5636 S   0  0  0  0  0  6  0  0  0  0  0  0
   -2.7450   -0.4072   -3.2101 O   0  0  0  0  0  0  0  0  0  0  0  0
   -3.6811    1.9375   -3.3150 O   0  0  0  0  0  0  0  0  0  0  0  0
   -4.2168    0.4853   -1.2151 C   0  0  0  0  0  0  0  0  0  0  0  0
   -4.9446    1.5300   -0.6387 C   0  0  0  0  0  0  0  0  0  0  0  0
   -5.8136    1.2595    0.4192 C   0  0  0  0  0  0  0  0  0  0  0  0
   -5.9732   -0.0510    0.8896 C   0  0  0  0  0  0  0  0  0  0  0  0
   -6.8812   -0.3342    2.0507 C   0  0  0  0  0  0  0  0  0  0  0  0
   -5.2385   -1.0880    0.2984 C   0  0  0  0  0  0  0  0  0  0  0  0
   -4.3695   -0.8259   -0.7618 C   0  0  0  0  0  0  0  0  0  0  0  0
    1.7479    0.4755    0.6228 C   0  0  0  0  0  0  0  0  0  0  0  0
    3.1149    0.4214    0.9111 C   0  0  0  0  0  0  0  0  0  0  0  0
    7.8779    0.2234   -0.2518 H   0  0  0  0  0  0  0  0  0  0  0  0
    9.0385    0.9284    0.8947 H   0  0  0  0  0  0  0  0  0  0  0  0
    7.6187    1.8549    0.3525 H   0  0  0  0  0  0  0  0  0  0  0  0
    7.2901    0.9614    2.6661 H   0  0  0  0  0  0  0  0  0  0  0  0
    7.5210   -0.6874    2.0886 H   0  0  0  0  0  0  0  0  0  0  0  0
    3.8253   -2.6388   -0.4260 H   0  0  0  0  0  0  0  0  0  0  0  0
    1.4124   -2.5525   -0.9333 H   0  0  0  0  0  0  0  0  0  0  0  0
   -0.7136   -0.1587   -2.6231 H   0  0  0  0  0  0  0  0  0  0  0  0
   -1.9414    1.6984   -0.7774 H   0  0  0  0  0  0  0  0  0  0  0  0
   -4.8478    2.5494   -1.0065 H   0  0  0  0  0  0  0  0  0  0  0  0
   -6.3726    2.0759    0.8726 H   0  0  0  0  0  0  0  0  0  0  0  0
   -7.3032   -1.3423    1.9798 H   0  0  0  0  0  0  0  0  0  0  0  0
   -7.7210    0.3683    2.0702 H   0  0  0  0  0  0  0  0  0  0  0  0
   -6.3254   -0.2480    2.9894 H   0  0  0  0  0  0  0  0  0  0  0  0
   -5.3411   -2.1095    0.6601 H   0  0  0  0  0  0  0  0  0  0  0  0
   -3.8172   -1.6470   -1.2149 H   0  0  0  0  0  0  0  0  0  0  0  0
    1.1686    1.3456    0.9259 H   0  0  0  0  0  0  0  0  0  0  0  0
    3.5750    1.2576    1.4333 H   0  0  0  0  0  0  0  0  0  0  0  0
  1  2  1  0
  2  3  1  0
  3  4  1  0
  4  5  2  0
  4  6  1  0
  6  7  2  0
  7  8  1  0
  8  9  2  0
  9 10  1  0
 10 11  2  0
 10 12  2  0
 10 13  1  0
 13 14  1  0
 14 15  1  0
 15 16  2  0
 15 17  2  0
 15 18  1  0
 18 19  2  0
 19 20  1  0
 20 21  2  0
 21 22  1  0
 21 23  1  0
 23 24  2  0
  9 25  1  0
 25 26  2  0
 26  6  1  0
 24 18  1  0
  1 27  1  0
  1 28  1  0
  1 29  1  0
  2 30  1  0
  2 31  1  0
  7 32  1  0
  8 33  1  0
 13 34  1  0
 14 35  1  0
 19 36  1  0
 20 37  1  0
 22 38  1  0
 22 39  1  0
 22 40  1  0
 23 41  1  0
 24 42  1  0
 25 43  1  0
 26 44  1  0
M  END
$$$$
