
     RDKit          3D

 38 38  0  0  0  0  0  0  0  0999 V2000
    5.0559   -1.6712   -3.0070 C   0  0  0  0  0  0  0  0  0  0  0  0
    3.6674   -1.0752   -2.8642 C   0  0  0  0  0  0  0  0  0  0  0  0
    3.5917   -0.4160   -1.5889 O   0  0  0  0  0  0  0  0  0  0  0  0
    2.4385    0.2852   -1.3817 C   0  0  0  0  0  0  0  0  0  0  0  0
    1.5049    0.3418   -2.1681 O   0  0  0  0  0  0  0  0  0  0  0  0
    2.4972    0.9686   -0.0441 C   0  0  0  0  0  0  0  0  0  0  0  0
    1.2544    1.7629    0.2682 C   0  0  0  0  0  0  0  0  0  0  0  0
    1.2789    2.9890    0.3762 O   0  0  0  0  0  0  0  0  0  0  0  0
   -0.0374    1.0496    0.4649 C   0  0  0  0  0  0  0  0  0  0  0  0
   -1.1971    1.6357   -0.0613 C   0  0  0  0  0  0  0  0  0  0  0  0
   -2.4313    1.0049    0.0883 C   0  0  0  0  0  0  0  0  0  0  0  0
   -3.6167    1.4823   -0.4075 O   0  0  0  0  0  0  0  0  0  0  0  0
   -3.5430    2.5249   -1.3689 C   0  0  0  0  0  0  0  0  0  0  0  0
   -2.4918   -0.1952    0.8164 C   0  0  0  0  0  0  0  0  0  0  0  0
   -3.6963   -0.8511    0.9575 O   0  0  0  0  0  0  0  0  0  0  0  0
   -4.4101   -0.3213    2.0753 C   0  0  0  0  0  0  0  0  0  0  0  0
   -1.3341   -0.7867    1.3556 C   0  0  0  0  0  0  0  0  0  0  0  0
   -1.5185   -1.9590    2.0418 O   0  0  0  0  0  0  0  0  0  0  0  0
   -0.3986   -2.5258    2.7021 C   0  0  0  0  0  0  0  0  0  0  0  0
   -0.1024   -0.1566    1.1720 C   0  0  0  0  0  0  0  0  0  0  0  0
    5.8202   -0.8972   -2.8813 H   0  0  0  0  0  0  0  0  0  0  0  0
    5.1822   -2.1403   -3.9898 H   0  0  0  0  0  0  0  0  0  0  0  0
    5.2310   -2.4280   -2.2286 H   0  0  0  0  0  0  0  0  0  0  0  0
    2.9156   -1.8712   -2.9058 H   0  0  0  0  0  0  0  0  0  0  0  0
    3.4931   -0.3517   -3.6706 H   0  0  0  0  0  0  0  0  0  0  0  0
    3.3466    1.6638   -0.0508 H   0  0  0  0  0  0  0  0  0  0  0  0
    2.6783    0.2272    0.7474 H   0  0  0  0  0  0  0  0  0  0  0  0
   -1.1019    2.5792   -0.5912 H   0  0  0  0  0  0  0  0  0  0  0  0
   -2.9226    2.2335   -2.2251 H   0  0  0  0  0  0  0  0  0  0  0  0
   -3.1832    3.4537   -0.9149 H   0  0  0  0  0  0  0  0  0  0  0  0
   -4.5571    2.7090   -1.7368 H   0  0  0  0  0  0  0  0  0  0  0  0
   -4.8013    0.6775    1.8511 H   0  0  0  0  0  0  0  0  0  0  0  0
   -5.2608   -0.9814    2.2686 H   0  0  0  0  0  0  0  0  0  0  0  0
   -3.7905   -0.2906    2.9795 H   0  0  0  0  0  0  0  0  0  0  0  0
   -0.7402   -3.4243    3.2299 H   0  0  0  0  0  0  0  0  0  0  0  0
    0.0094   -1.8341    3.4502 H   0  0  0  0  0  0  0  0  0  0  0  0
    0.3707   -2.8300    1.9838 H   0  0  0  0  0  0  0  0  0  0  0  0
    0.7993   -0.5820    1.5926 H   0  0  0  0  0  0  0  0  0  0  0  0
  1  2  1  0
  2  3  1  0
  3  4  1  0
  4  5  2  0
  4  6  1  0
  6  7  1  0
  7  8  2  0
  7  9  1  0
  9 10  2  0
 10 11  1  0
 11 12  1  0
 12 13  1  0
 11 14  2  0
 14 15  1  0
 15 16  1  0
 14 17  1  0
 17 18  1  0
 18 19  1  0
 17 20  2  0
 20  9  1  0
  1 21  1  0
  1 22  1  0
  1 23  1  0
  2 24  1  0
  2 25  1  0
  6 26  1  0
  6 27  1  0
 10 28  1  0
 13 29  1  0
 13 30  1  0
 13 31  1  0
 16 32  1  0
 16 33  1  0
 16 34  1  0
 19 35  1  0
 19 36  1  0
 19 37  1  0
 20 38  1  0
M  END
$$$$
