
     RDKit          3D

 68 71  0  0  0  0  0  0  0  0999 V2000
    8.7760    5.1123    2.5131 C   0  0  0  0  0  0  0  0  0  0  0  0
    7.3296    5.0289    2.2485 C   0  0  0  0  0  0  0  0  0  0  0  0
    6.4739    4.0106    1.9101 C   0  0  0  0  0  0  0  0  0  0  0  0
    5.2067    4.6279    1.8151 C   0  0  0  0  0  0  0  0  0  0  0  0
    3.9818    4.0733    1.5221 N   0  0  0  0  0  0  0  0  0  0  0  0
    3.7508    2.7475    1.2337 C   0  0  0  0  0  0  0  0  0  0  0  0
    4.6066    1.8725    1.1538 O   0  0  0  0  0  0  0  0  0  0  0  0
    2.2751    2.4711    1.0227 C   0  0  0  0  0  0  0  0  0  0  0  0
    2.0054    1.0064    0.6898 C   0  0  0  0  0  0  0  0  0  0  0  0
    0.5137    0.7304    0.6057 C   0  0  0  0  0  0  0  0  0  0  0  0
   -0.2946    1.6599    0.6876 O   0  0  0  0  0  0  0  0  0  0  0  0
    0.0945   -0.5818    0.4214 N   0  0  0  0  0  0  0  0  0  0  0  0
    1.0082   -1.6929    0.1313 C   0  0  0  0  0  0  0  0  0  0  0  0
    1.3046   -2.4834    1.3592 C   0  0  0  0  0  0  0  0  0  0  0  0
    1.1979   -3.8281    1.6570 C   0  0  0  0  0  0  0  0  0  0  0  0
    1.6508   -3.9824    2.9907 C   0  0  0  0  0  0  0  0  0  0  0  0
    2.0043   -2.7261    3.4202 C   0  0  0  0  0  0  0  0  0  0  0  0
    1.8115   -1.8117    2.4369 O   0  0  0  0  0  0  0  0  0  0  0  0
   -1.3550   -0.7893    0.2268 C   0  0  0  0  0  0  0  0  0  0  0  0
   -1.7102   -0.6546   -1.2821 C   0  0  0  0  0  0  0  0  0  0  0  0
   -0.9383   -0.9728   -2.1873 O   0  0  0  0  0  0  0  0  0  0  0  0
   -2.9944   -0.1938   -1.5269 N   0  0  0  0  0  0  0  0  0  0  0  0
   -3.5360   -0.1024   -2.8738 C   0  0  0  0  0  0  0  0  0  0  0  0
   -4.6283    0.9652   -2.9459 C   0  0  0  0  0  0  0  0  0  0  0  0
   -5.1501    1.1522   -4.3723 C   0  0  0  0  0  0  0  0  0  0  0  0
   -5.0528   -0.1097   -5.2314 C   0  0  0  0  0  0  0  0  0  0  0  0
   -5.1721   -1.3744   -4.3927 C   0  0  0  0  0  0  0  0  0  0  0  0
   -4.0589   -1.4698   -3.3453 C   0  0  0  0  0  0  0  0  0  0  0  0
   -1.8924   -2.0652    0.8683 C   0  0  0  0  0  0  0  0  0  0  0  0
   -2.0624   -2.0969    2.2642 C   0  0  0  0  0  0  0  0  0  0  0  0
   -2.5340   -3.2459    2.9013 C   0  0  0  0  0  0  0  0  0  0  0  0
   -2.8412   -4.3803    2.1545 C   0  0  0  0  0  0  0  0  0  0  0  0
   -2.6748   -4.3682    0.7712 C   0  0  0  0  0  0  0  0  0  0  0  0
   -2.2003   -3.2207    0.1311 C   0  0  0  0  0  0  0  0  0  0  0  0
    5.2893    5.9354    2.0842 N   0  0  0  0  0  0  0  0  0  0  0  0
    6.6238    6.1866    2.3511 O   0  0  0  0  0  0  0  0  0  0  0  0
    9.2750    5.6880    1.7273 H   0  0  0  0  0  0  0  0  0  0  0  0
    8.9651    5.6026    3.4732 H   0  0  0  0  0  0  0  0  0  0  0  0
    9.2271    4.1160    2.5466 H   0  0  0  0  0  0  0  0  0  0  0  0
    6.7289    2.9689    1.7723 H   0  0  0  0  0  0  0  0  0  0  0  0
    3.2146    4.7350    1.5502 H   0  0  0  0  0  0  0  0  0  0  0  0
    1.9112    3.1136    0.2113 H   0  0  0  0  0  0  0  0  0  0  0  0
    1.7434    2.7507    1.9407 H   0  0  0  0  0  0  0  0  0  0  0  0
    2.4504    0.3739    1.4614 H   0  0  0  0  0  0  0  0  0  0  0  0
    2.4666    0.7691   -0.2747 H   0  0  0  0  0  0  0  0  0  0  0  0
    1.9489   -1.3228   -0.2842 H   0  0  0  0  0  0  0  0  0  0  0  0
    0.5699   -2.3377   -0.6366 H   0  0  0  0  0  0  0  0  0  0  0  0
    0.8319   -4.5977    0.9937 H   0  0  0  0  0  0  0  0  0  0  0  0
    1.7079   -4.8934    3.5714 H   0  0  0  0  0  0  0  0  0  0  0  0
    2.3985   -2.3360    4.3483 H   0  0  0  0  0  0  0  0  0  0  0  0
   -1.8909    0.0343    0.7188 H   0  0  0  0  0  0  0  0  0  0  0  0
   -3.6385   -0.1349   -0.7454 H   0  0  0  0  0  0  0  0  0  0  0  0
   -2.7163    0.2033   -3.5377 H   0  0  0  0  0  0  0  0  0  0  0  0
   -5.4613    0.6826   -2.2863 H   0  0  0  0  0  0  0  0  0  0  0  0
   -4.2563    1.9267   -2.5659 H   0  0  0  0  0  0  0  0  0  0  0  0
   -6.1937    1.4885   -4.3230 H   0  0  0  0  0  0  0  0  0  0  0  0
   -4.5950    1.9591   -4.8678 H   0  0  0  0  0  0  0  0  0  0  0  0
   -5.8308   -0.0893   -6.0043 H   0  0  0  0  0  0  0  0  0  0  0  0
   -4.0904   -0.1183   -5.7603 H   0  0  0  0  0  0  0  0  0  0  0  0
   -6.1467   -1.3813   -3.8861 H   0  0  0  0  0  0  0  0  0  0  0  0
   -5.1507   -2.2609   -5.0367 H   0  0  0  0  0  0  0  0  0  0  0  0
   -4.4300   -2.0629   -2.4999 H   0  0  0  0  0  0  0  0  0  0  0  0
   -3.2165   -2.0376   -3.7605 H   0  0  0  0  0  0  0  0  0  0  0  0
   -1.8058   -1.2253    2.8645 H   0  0  0  0  0  0  0  0  0  0  0  0
   -2.6498   -3.2590    3.9825 H   0  0  0  0  0  0  0  0  0  0  0  0
   -3.2028   -5.2768    2.6517 H   0  0  0  0  0  0  0  0  0  0  0  0
   -2.9064   -5.2575    0.1906 H   0  0  0  0  0  0  0  0  0  0  0  0
   -2.0666   -3.2509   -0.9488 H   0  0  0  0  0  0  0  0  0  0  0  0
  1  2  1  0
  2  3  2  0
  3  4  1  0
  4  5  1  0
  5  6  1  0
  6  7  2  0
  6  8  1  0
  8  9  1  0
  9 10  1  0
 10 11  2  0
 10 12  1  0
 12 13  1  0
 13 14  1  0
 14 15  2  0
 15 16  1  0
 16 17  2  0
 17 18  1  0
 12 19  1  0
 19 20  1  0
 20 21  2  0
 20 22  1  0
 22 23  1  0
 23 24  1  0
 24 25  1  0
 25 26  1  0
 26 27  1  0
 27 28  1  0
 19 29  1  0
 29 30  2  0
 30 31  1  0
 31 32  2  0
 32 33  1  0
 33 34  2  0
  4 35  2  0
 35 36  1  0
 36  2  1  0
 18 14  1  0
 28 23  1  0
 34 29  1  0
  1 37  1  0
  1 38  1  0
  1 39  1  0
  3 40  1  0
  5 41  1  0
  8 42  1  0
  8 43  1  0
  9 44  1  0
  9 45  1  0
 13 46  1  0
 13 47  1  0
 15 48  1  0
 16 49  1  0
 17 50  1  0
 19 51  1  0
 22 52  1  0
 23 53  1  0
 24 54  1  0
 24 55  1  0
 25 56  1  0
 25 57  1  0
 26 58  1  0
 26 59  1  0
 27 60  1  0
 27 61  1  0
 28 62  1  0
 28 63  1  0
 30 64  1  0
 31 65  1  0
 32 66  1  0
 33 67  1  0
 34 68  1  0
M  END
$$$$
