
     RDKit          3D

 42 43  0  0  0  0  0  0  0  0999 V2000
   -4.9236    1.0581    1.2092 C   0  0  0  0  0  0  0  0  0  0  0  0
   -4.2734   -0.2749    1.0129 C   0  0  0  0  0  0  0  0  0  0  0  0
   -3.5169   -0.6957   -0.0240 C   0  0  0  0  0  0  0  0  0  0  0  0
   -2.9877   -2.1082   -0.0122 C   0  0  0  0  0  0  0  0  0  0  0  0
   -3.2257    0.1235   -1.2713 C   0  0  0  0  0  0  0  0  0  0  0  0
   -1.8757    0.6496   -1.4450 N   0  0  0  0  0  0  0  0  0  0  0  0
   -0.9098   -0.2857   -2.0338 C   0  0  0  0  0  0  0  0  0  0  0  0
    0.5677    0.1238   -1.8242 C   0  0  0  0  0  0  0  0  0  0  0  0
    0.8795    0.2383   -0.3906 N   0  0  0  0  0  0  0  0  0  0  0  0
    2.1736    0.1190    0.0903 C   0  0  0  0  0  0  0  0  0  0  0  0
    3.2942    0.1978   -0.7507 C   0  0  0  0  0  0  0  0  0  0  0  0
    4.6031    0.0715   -0.2638 C   0  0  0  0  0  0  0  0  0  0  0  0
    4.8364   -0.1553    1.0920 C   0  0  0  0  0  0  0  0  0  0  0  0
    6.2340   -0.2581    1.6226 C   0  0  0  0  0  0  0  0  0  0  0  0
    3.7404   -0.2277    1.9505 C   0  0  0  0  0  0  0  0  0  0  0  0
    2.4364   -0.0981    1.4524 C   0  0  0  0  0  0  0  0  0  0  0  0
   -0.2184    0.6817    0.4890 C   0  0  0  0  0  0  0  0  0  0  0  0
   -1.3336    1.4007   -0.3057 C   0  0  0  0  0  0  0  0  0  0  0  0
   -4.6610    1.7948    0.4481 H   0  0  0  0  0  0  0  0  0  0  0  0
   -6.0117    0.9416    1.2120 H   0  0  0  0  0  0  0  0  0  0  0  0
   -4.6237    1.4697    2.1784 H   0  0  0  0  0  0  0  0  0  0  0  0
   -4.4477   -0.9650    1.8388 H   0  0  0  0  0  0  0  0  0  0  0  0
   -3.1626   -2.5939   -0.9777 H   0  0  0  0  0  0  0  0  0  0  0  0
   -1.9163   -2.1201    0.2041 H   0  0  0  0  0  0  0  0  0  0  0  0
   -3.4790   -2.7257    0.7481 H   0  0  0  0  0  0  0  0  0  0  0  0
   -3.9119    0.9752   -1.3296 H   0  0  0  0  0  0  0  0  0  0  0  0
   -3.5000   -0.4759   -2.1505 H   0  0  0  0  0  0  0  0  0  0  0  0
   -1.0283   -1.2914   -1.6210 H   0  0  0  0  0  0  0  0  0  0  0  0
   -1.1044   -0.3614   -3.1100 H   0  0  0  0  0  0  0  0  0  0  0  0
    1.1880   -0.6475   -2.2965 H   0  0  0  0  0  0  0  0  0  0  0  0
    0.7697    1.0783   -2.3256 H   0  0  0  0  0  0  0  0  0  0  0  0
    3.1748    0.3874   -1.8134 H   0  0  0  0  0  0  0  0  0  0  0  0
    5.4351    0.1557   -0.9589 H   0  0  0  0  0  0  0  0  0  0  0  0
    6.6031    0.7339    1.9004 H   0  0  0  0  0  0  0  0  0  0  0  0
    6.2710   -0.9088    2.5027 H   0  0  0  0  0  0  0  0  0  0  0  0
    6.9060   -0.6885    0.8727 H   0  0  0  0  0  0  0  0  0  0  0  0
    3.8848   -0.3923    3.0156 H   0  0  0  0  0  0  0  0  0  0  0  0
    1.6184   -0.1939    2.1609 H   0  0  0  0  0  0  0  0  0  0  0  0
    0.1500    1.3911    1.2404 H   0  0  0  0  0  0  0  0  0  0  0  0
   -0.6310   -0.1850    1.0170 H   0  0  0  0  0  0  0  0  0  0  0  0
   -0.9042    2.3252   -0.7152 H   0  0  0  0  0  0  0  0  0  0  0  0
   -2.1193    1.7363    0.3798 H   0  0  0  0  0  0  0  0  0  0  0  0
  1  2  1  0
  2  3  2  3
  3  4  1  0
  3  5  1  0
  5  6  1  0
  6  7  1  0
  7  8  1  0
  8  9  1  0
  9 10  1  0
 10 11  2  0
 11 12  1  0
 12 13  2  0
 13 14  1  0
 13 15  1  0
 15 16  2  0
  9 17  1  0
 17 18  1  0
 18  6  1  0
 16 10  1  0
  1 19  1  0
  1 20  1  0
  1 21  1  0
  2 22  1  0
  4 23  1  0
  4 24  1  0
  4 25  1  0
  5 26  1  0
  5 27  1  0
  7 28  1  0
  7 29  1  0
  8 30  1  0
  8 31  1  0
 11 32  1  0
 12 33  1  0
 14 34  1  0
 14 35  1  0
 14 36  1  0
 15 37  1  0
 16 38  1  0
 17 39  1  0
 17 40  1  0
 18 41  1  0
 18 42  1  0
M  END
$$$$
