
     RDKit          3D

 60 62  0  0  0  0  0  0  0  0999 V2000
   -3.4661    3.6985   -2.5694 C   0  0  0  0  0  0  0  0  0  0  0  0
   -4.1065    2.8341   -1.4910 C   0  0  0  0  0  0  0  0  0  0  0  0
   -3.2128    1.7035   -1.0426 C   0  0  0  0  0  0  0  0  0  0  0  0
   -2.9392    0.6285   -1.8925 C   0  0  0  0  0  0  0  0  0  0  0  0
   -2.1278   -0.4297   -1.4644 C   0  0  0  0  0  0  0  0  0  0  0  0
   -1.5812   -0.4377   -0.1773 C   0  0  0  0  0  0  0  0  0  0  0  0
   -0.7860   -1.5468    0.1788 N   0  0  0  0  0  0  0  0  0  0  0  0
   -0.0982   -1.7384    1.3635 C   0  0  0  0  0  0  0  0  0  0  0  0
   -0.1205   -1.0049    2.3513 O   0  0  0  0  0  0  0  0  0  0  0  0
    0.7796   -3.0052    1.3611 C   0  0  0  0  0  0  0  0  0  0  0  0
    1.9537   -2.7640    2.2328 N   0  0  0  0  0  0  0  0  0  0  0  0
    3.3649   -2.1601    1.5397 S   0  0  0  0  0  6  0  0  0  0  0  0
    3.7715   -3.0819    0.5003 O   0  0  0  0  0  0  0  0  0  0  0  0
    4.2401   -1.8015    2.6318 O   0  0  0  0  0  0  0  0  0  0  0  0
    2.8328   -0.6584    0.7529 C   0  0  0  0  0  0  0  0  0  0  0  0
    2.6699    0.5012    1.5259 C   0  0  0  0  0  0  0  0  0  0  0  0
    2.1563    1.6697    0.9467 C   0  0  0  0  0  0  0  0  0  0  0  0
    1.8136    1.6623   -0.3956 C   0  0  0  0  0  0  0  0  0  0  0  0
    2.0312    0.5098   -1.1635 C   0  0  0  0  0  0  0  0  0  0  0  0
    2.5472   -0.6563   -0.6124 C   0  0  0  0  0  0  0  0  0  0  0  0
    1.5632    0.6938   -2.5706 C   0  0  0  0  0  0  0  0  0  0  0  0
    1.2223    2.1839   -2.5937 C   0  0  0  0  0  0  0  0  0  0  0  0
    1.2513    2.6657   -1.2079 N   0  0  0  0  0  0  0  0  0  0  0  0
    0.7890    3.9356   -0.9356 C   0  0  0  0  0  0  0  0  0  0  0  0
    0.7529    4.4275    0.4813 C   0  0  0  0  0  0  0  0  0  0  0  0
    0.4046    4.6877   -1.8399 O   0  0  0  0  0  0  0  0  0  0  0  0
   -0.0312   -4.2275    1.8394 C   0  0  0  0  0  0  0  0  0  0  0  0
   -0.4312   -4.1652    3.3177 C   0  0  0  0  0  0  0  0  0  0  0  0
    0.7292   -5.5274    1.5661 C   0  0  0  0  0  0  0  0  0  0  0  0
   -1.8383    0.6443    0.6642 C   0  0  0  0  0  0  0  0  0  0  0  0
   -2.6438    1.7080    0.2349 C   0  0  0  0  0  0  0  0  0  0  0  0
   -2.5071    4.1102   -2.2370 H   0  0  0  0  0  0  0  0  0  0  0  0
   -4.1265    4.5337   -2.8251 H   0  0  0  0  0  0  0  0  0  0  0  0
   -3.2825    3.1236   -3.4827 H   0  0  0  0  0  0  0  0  0  0  0  0
   -4.3763    3.4599   -0.6346 H   0  0  0  0  0  0  0  0  0  0  0  0
   -5.0456    2.4131   -1.8701 H   0  0  0  0  0  0  0  0  0  0  0  0
   -3.3662    0.6032   -2.8931 H   0  0  0  0  0  0  0  0  0  0  0  0
   -1.9318   -1.2372   -2.1606 H   0  0  0  0  0  0  0  0  0  0  0  0
   -0.6682   -2.2452   -0.5442 H   0  0  0  0  0  0  0  0  0  0  0  0
    1.1169   -3.1977    0.3360 H   0  0  0  0  0  0  0  0  0  0  0  0
    1.7273   -2.2768    3.1062 H   0  0  0  0  0  0  0  0  0  0  0  0
    2.9082    0.4932    2.5888 H   0  0  0  0  0  0  0  0  0  0  0  0
    2.0427    2.5366    1.5812 H   0  0  0  0  0  0  0  0  0  0  0  0
    2.6901   -1.5444   -1.2201 H   0  0  0  0  0  0  0  0  0  0  0  0
    2.3347    0.4452   -3.3033 H   0  0  0  0  0  0  0  0  0  0  0  0
    0.6729    0.0872   -2.7550 H   0  0  0  0  0  0  0  0  0  0  0  0
    1.9740    2.7493   -3.1601 H   0  0  0  0  0  0  0  0  0  0  0  0
    0.2435    2.3776   -3.0509 H   0  0  0  0  0  0  0  0  0  0  0  0
    1.7679    4.6353    0.8219 H   0  0  0  0  0  0  0  0  0  0  0  0
    0.1884    5.3655    0.5204 H   0  0  0  0  0  0  0  0  0  0  0  0
    0.2419    3.7179    1.1325 H   0  0  0  0  0  0  0  0  0  0  0  0
   -0.9600   -4.2636    1.2539 H   0  0  0  0  0  0  0  0  0  0  0  0
   -1.0831   -5.0038    3.5774 H   0  0  0  0  0  0  0  0  0  0  0  0
    0.4432   -4.2149    3.9728 H   0  0  0  0  0  0  0  0  0  0  0  0
   -0.9766   -3.2483    3.5449 H   0  0  0  0  0  0  0  0  0  0  0  0
    0.1112   -6.3953    1.8163 H   0  0  0  0  0  0  0  0  0  0  0  0
    1.0010   -5.6040    0.5076 H   0  0  0  0  0  0  0  0  0  0  0  0
    1.6482   -5.5895    2.1592 H   0  0  0  0  0  0  0  0  0  0  0  0
   -1.4389    0.6938    1.6714 H   0  0  0  0  0  0  0  0  0  0  0  0
   -2.8400    2.5260    0.9232 H   0  0  0  0  0  0  0  0  0  0  0  0
  1  2  1  0
  2  3  1  0
  3  4  2  0
  4  5  1  0
  5  6  2  0
  6  7  1  0
  7  8  1  0
  8  9  2  0
  8 10  1  0
 10 11  1  0
 11 12  1  0
 12 13  2  0
 12 14  2  0
 12 15  1  0
 15 16  2  0
 16 17  1  0
 17 18  2  0
 18 19  1  0
 19 20  2  0
 19 21  1  0
 21 22  1  0
 22 23  1  0
 23 24  1  0
 24 25  1  0
 24 26  2  0
 10 27  1  0
 27 28  1  0
 27 29  1  0
  6 30  1  0
 30 31  2  0
 31  3  1  0
 20 15  1  0
 23 18  1  0
  1 32  1  0
  1 33  1  0
  1 34  1  0
  2 35  1  0
  2 36  1  0
  4 37  1  0
  5 38  1  0
  7 39  1  0
 10 40  1  0
 11 41  1  0
 16 42  1  0
 17 43  1  0
 20 44  1  0
 21 45  1  0
 21 46  1  0
 22 47  1  0
 22 48  1  0
 25 49  1  0
 25 50  1  0
 25 51  1  0
 27 52  1  0
 28 53  1  0
 28 54  1  0
 28 55  1  0
 29 56  1  0
 29 57  1  0
 29 58  1  0
 30 59  1  0
 31 60  1  0
M  END
$$$$
