
     RDKit          3D

 54 57  0  0  0  0  0  0  0  0999 V2000
   -4.2548    4.7663   -0.5206 C   0  0  0  0  0  0  0  0  0  0  0  0
   -3.6580    3.3911   -0.4912 C   0  0  0  0  0  0  0  0  0  0  0  0
   -3.8768    2.4894   -1.5334 C   0  0  0  0  0  0  0  0  0  0  0  0
   -3.3187    1.1945   -1.5213 C   0  0  0  0  0  0  0  0  0  0  0  0
   -3.7407    0.2781   -2.6386 C   0  0  0  0  0  0  0  0  0  0  0  0
   -2.4570    0.8253   -0.4668 C   0  0  0  0  0  0  0  0  0  0  0  0
   -1.8184   -0.4365   -0.3868 N   0  0  0  0  0  0  0  0  0  0  0  0
   -1.2258   -1.1233   -1.4354 C   0  0  0  0  0  0  0  0  0  0  0  0
   -1.0929   -0.7264   -2.5902 O   0  0  0  0  0  0  0  0  0  0  0  0
   -0.6306   -2.4619   -0.9967 C   0  0  0  0  0  0  0  0  0  0  0  0
    0.7231   -2.2926   -0.4645 N   0  0  0  0  0  0  0  0  0  0  0  0
    0.8302   -2.0014    0.8904 C   0  0  0  0  0  0  0  0  0  0  0  0
   -0.1856   -1.8041    1.5643 O   0  0  0  0  0  0  0  0  0  0  0  0
    2.1036   -1.9496    1.4279 N   0  0  0  0  0  0  0  0  0  0  0  0
    2.2336   -1.6913    2.8557 C   0  0  0  0  0  0  0  0  0  0  0  0
    2.4443   -0.2348    3.0921 C   0  0  0  0  0  0  0  0  0  0  0  0
    3.5237    0.6074    2.9129 C   0  0  0  0  0  0  0  0  0  0  0  0
    3.1072    1.8901    3.3406 C   0  0  0  0  0  0  0  0  0  0  0  0
    1.8060    1.7494    3.7601 C   0  0  0  0  0  0  0  0  0  0  0  0
    1.3939    0.4640    3.6128 O   0  0  0  0  0  0  0  0  0  0  0  0
    3.2722   -2.1435    0.7066 C   0  0  0  0  0  0  0  0  0  0  0  0
    4.3929   -2.1693    1.2117 O   0  0  0  0  0  0  0  0  0  0  0  0
    3.1340   -2.3201   -0.7473 C   0  0  0  0  0  0  0  0  0  0  0  0
    4.2876   -2.4231   -1.5409 C   0  0  0  0  0  0  0  0  0  0  0  0
    4.1738   -2.5769   -2.9190 C   0  0  0  0  0  0  0  0  0  0  0  0
    2.9115   -2.6221   -3.4997 C   0  0  0  0  0  0  0  0  0  0  0  0
    1.7639   -2.5239   -2.7036 C   0  0  0  0  0  0  0  0  0  0  0  0
    1.8599   -2.3808   -1.3108 C   0  0  0  0  0  0  0  0  0  0  0  0
   -2.2531    1.7262    0.6068 C   0  0  0  0  0  0  0  0  0  0  0  0
   -1.3708    1.3914    1.7821 C   0  0  0  0  0  0  0  0  0  0  0  0
   -2.8512    2.9982    0.5762 C   0  0  0  0  0  0  0  0  0  0  0  0
   -3.4773    5.5084   -0.7274 H   0  0  0  0  0  0  0  0  0  0  0  0
   -5.0262    4.8516   -1.2930 H   0  0  0  0  0  0  0  0  0  0  0  0
   -4.7263    4.9981    0.4402 H   0  0  0  0  0  0  0  0  0  0  0  0
   -4.5159    2.7839   -2.3650 H   0  0  0  0  0  0  0  0  0  0  0  0
   -4.7742    0.4904   -2.9356 H   0  0  0  0  0  0  0  0  0  0  0  0
   -3.1030    0.4211   -3.5152 H   0  0  0  0  0  0  0  0  0  0  0  0
   -3.7343   -0.7715   -2.3313 H   0  0  0  0  0  0  0  0  0  0  0  0
   -1.4619   -0.7039    0.5311 H   0  0  0  0  0  0  0  0  0  0  0  0
   -1.2809   -2.9030   -0.2300 H   0  0  0  0  0  0  0  0  0  0  0  0
   -0.6552   -3.1744   -1.8268 H   0  0  0  0  0  0  0  0  0  0  0  0
    1.3419   -2.0384    3.3901 H   0  0  0  0  0  0  0  0  0  0  0  0
    3.0838   -2.2525    3.2607 H   0  0  0  0  0  0  0  0  0  0  0  0
    4.4915    0.3226    2.5210 H   0  0  0  0  0  0  0  0  0  0  0  0
    3.6849    2.8036    3.3465 H   0  0  0  0  0  0  0  0  0  0  0  0
    1.0729    2.4316    4.1673 H   0  0  0  0  0  0  0  0  0  0  0  0
    5.2754   -2.3777   -1.0859 H   0  0  0  0  0  0  0  0  0  0  0  0
    5.0649   -2.6505   -3.5375 H   0  0  0  0  0  0  0  0  0  0  0  0
    2.8124   -2.7239   -4.5786 H   0  0  0  0  0  0  0  0  0  0  0  0
    0.8076   -2.5348   -3.2196 H   0  0  0  0  0  0  0  0  0  0  0  0
   -1.2851    2.2338    2.4769 H   0  0  0  0  0  0  0  0  0  0  0  0
   -0.3605    1.1506    1.4372 H   0  0  0  0  0  0  0  0  0  0  0  0
   -1.7854    0.5477    2.3424 H   0  0  0  0  0  0  0  0  0  0  0  0
   -2.6760    3.6973    1.3923 H   0  0  0  0  0  0  0  0  0  0  0  0
  1  2  1  0
  2  3  2  0
  3  4  1  0
  4  5  1  0
  4  6  2  0
  6  7  1  0
  7  8  1  0
  8  9  2  0
  8 10  1  0
 10 11  1  0
 11 12  1  0
 12 13  2  0
 12 14  1  0
 14 15  1  0
 15 16  1  0
 16 17  2  0
 17 18  1  0
 18 19  2  0
 19 20  1  0
 14 21  1  0
 21 22  2  0
 21 23  1  0
 23 24  2  0
 24 25  1  0
 25 26  2  0
 26 27  1  0
 27 28  2  0
  6 29  1  0
 29 30  1  0
 29 31  2  0
 31  2  1  0
 28 11  1  0
 20 16  1  0
 28 23  1  0
  1 32  1  0
  1 33  1  0
  1 34  1  0
  3 35  1  0
  5 36  1  0
  5 37  1  0
  5 38  1  0
  7 39  1  0
 10 40  1  0
 10 41  1  0
 15 42  1  0
 15 43  1  0
 17 44  1  0
 18 45  1  0
 19 46  1  0
 24 47  1  0
 25 48  1  0
 26 49  1  0
 27 50  1  0
 30 51  1  0
 30 52  1  0
 30 53  1  0
 31 54  1  0
M  END
$$$$
