
     RDKit          3D

 46 48  0  0  0  0  0  0  0  0999 V2000
   -3.1751   -1.6198   -3.5654 C   0  0  0  0  0  0  0  0  0  0  0  0
   -3.4391   -1.3238   -2.2840 C   0  0  0  0  0  0  0  0  0  0  0  0
   -2.8366   -0.1646   -1.5421 C   0  0  0  0  0  0  0  0  0  0  0  0
   -2.1487   -0.5765   -0.3330 N   0  0  0  0  0  0  0  0  0  0  0  0
   -0.8596   -1.0343   -0.2273 C   0  0  0  0  0  0  0  0  0  0  0  0
    0.1539   -1.3782   -1.5860 S   0  0  0  0  0  0  0  0  0  0  0  0
    1.5514   -2.2213   -0.8031 C   0  0  0  0  0  0  0  0  0  0  0  0
    2.7001   -1.2877   -0.5164 C   0  0  0  0  0  0  0  0  0  0  0  0
    3.6076   -0.9427   -1.5281 C   0  0  0  0  0  0  0  0  0  0  0  0
    4.6797   -0.0840   -1.2624 C   0  0  0  0  0  0  0  0  0  0  0  0
    4.8604    0.4438    0.0227 C   0  0  0  0  0  0  0  0  0  0  0  0
    6.0053    1.3306    0.3681 C   0  0  0  0  0  0  0  0  0  0  0  0
    6.2234    1.7502    1.4924 O   0  0  0  0  0  0  0  0  0  0  0  0
    6.7590    1.5822   -0.7361 O   0  0  0  0  0  0  0  0  0  0  0  0
    7.9015    2.4022   -0.4869 C   0  0  0  0  0  0  0  0  0  0  0  0
    3.9482    0.1138    1.0309 C   0  0  0  0  0  0  0  0  0  0  0  0
    2.8745   -0.7433    0.7621 C   0  0  0  0  0  0  0  0  0  0  0  0
   -0.5411   -1.1740    1.0377 N   0  0  0  0  0  0  0  0  0  0  0  0
   -1.6305   -0.8052    1.7876 N   0  0  0  0  0  0  0  0  0  0  0  0
   -2.6058   -0.4761    0.9638 C   0  0  0  0  0  0  0  0  0  0  0  0
   -3.8916   -0.0314    1.4038 C   0  0  0  0  0  0  0  0  0  0  0  0
   -5.3535   -0.7670    0.8957 S   0  0  0  0  0  0  0  0  0  0  0  0
   -6.2451    0.3556    1.8309 C   0  0  0  0  0  0  0  0  0  0  0  0
   -7.5842    0.3543    1.8401 N   0  0  0  0  0  0  0  0  0  0  0  0
   -5.5307    1.1917    2.5354 N   0  0  0  0  0  0  0  0  0  0  0  0
   -4.1767    0.9685    2.3196 C   0  0  0  0  0  0  0  0  0  0  0  0
   -3.1985    1.8125    3.0568 C   0  0  0  0  0  0  0  0  0  0  0  0
   -2.4829   -1.0306   -4.1643 H   0  0  0  0  0  0  0  0  0  0  0  0
   -3.6480   -2.4738   -4.0451 H   0  0  0  0  0  0  0  0  0  0  0  0
   -4.1411   -1.9546   -1.7392 H   0  0  0  0  0  0  0  0  0  0  0  0
   -3.6195    0.5454   -1.2674 H   0  0  0  0  0  0  0  0  0  0  0  0
   -2.1260    0.3916   -2.1632 H   0  0  0  0  0  0  0  0  0  0  0  0
    1.2448   -2.7571    0.1028 H   0  0  0  0  0  0  0  0  0  0  0  0
    1.8967   -2.9984   -1.4975 H   0  0  0  0  0  0  0  0  0  0  0  0
    3.4866   -1.3437   -2.5322 H   0  0  0  0  0  0  0  0  0  0  0  0
    5.3685    0.1590   -2.0653 H   0  0  0  0  0  0  0  0  0  0  0  0
    8.5981    1.8846    0.1739 H   0  0  0  0  0  0  0  0  0  0  0  0
    7.6045    3.3657   -0.0636 H   0  0  0  0  0  0  0  0  0  0  0  0
    8.4012    2.5838   -1.4428 H   0  0  0  0  0  0  0  0  0  0  0  0
    4.0699    0.5207    2.0344 H   0  0  0  0  0  0  0  0  0  0  0  0
    2.1752   -0.9842    1.5606 H   0  0  0  0  0  0  0  0  0  0  0  0
   -7.9995    0.8460    2.6249 H   0  0  0  0  0  0  0  0  0  0  0  0
   -8.0418   -0.5274    1.6358 H   0  0  0  0  0  0  0  0  0  0  0  0
   -2.4978    2.2941    2.3675 H   0  0  0  0  0  0  0  0  0  0  0  0
   -3.7101    2.6008    3.6194 H   0  0  0  0  0  0  0  0  0  0  0  0
   -2.6269    1.2023    3.7679 H   0  0  0  0  0  0  0  0  0  0  0  0
  1  2  2  0
  2  3  1  0
  3  4  1  0
  4  5  1  0
  5  6  1  0
  6  7  1  0
  7  8  1  0
  8  9  2  0
  9 10  1  0
 10 11  2  0
 11 12  1  0
 12 13  2  0
 12 14  1  0
 14 15  1  0
 11 16  1  0
 16 17  2  0
  5 18  2  0
 18 19  1  0
 19 20  2  0
 20 21  1  0
 21 22  1  0
 22 23  1  0
 23 24  1  0
 23 25  2  0
 25 26  1  0
 26 27  1  0
 20  4  1  0
 26 21  2  0
 17  8  1  0
  1 28  1  0
  1 29  1  0
  2 30  1  0
  3 31  1  0
  3 32  1  0
  7 33  1  0
  7 34  1  0
  9 35  1  0
 10 36  1  0
 15 37  1  0
 15 38  1  0
 15 39  1  0
 16 40  1  0
 17 41  1  0
 24 42  1  0
 24 43  1  0
 27 44  1  0
 27 45  1  0
 27 46  1  0
M  END
$$$$
