
     RDKit          3D

 51 54  0  0  0  0  0  0  0  0999 V2000
    7.5153   -1.6437   -0.5812 N   0  0  0  0  0  0  0  0  0  0  0  0
    6.1965   -1.4783   -1.6155 S   0  0  0  0  0  6  0  0  0  0  0  0
    5.7854   -2.8257   -1.9381 O   0  0  0  0  0  0  0  0  0  0  0  0
    6.5375   -0.5070   -2.6267 O   0  0  0  0  0  0  0  0  0  0  0  0
    4.9864   -0.7635   -0.5359 C   0  0  0  0  0  0  0  0  0  0  0  0
    4.0109   -1.5692    0.0510 C   0  0  0  0  0  0  0  0  0  0  0  0
    3.0606   -0.9884    0.8946 C   0  0  0  0  0  0  0  0  0  0  0  0
    3.0735    0.3912    1.1500 C   0  0  0  0  0  0  0  0  0  0  0  0
    2.0751    0.8858    2.0102 N   0  0  0  0  0  0  0  0  0  0  0  0
    1.8012    2.2055    2.3309 C   0  0  0  0  0  0  0  0  0  0  0  0
    2.4114    3.1901    1.9213 O   0  0  0  0  0  0  0  0  0  0  0  0
    0.6208    2.3609    3.2817 C   0  0  0  0  0  0  0  0  0  0  0  0
   -0.9457    2.4486    2.3621 S   0  0  0  0  0  0  0  0  0  0  0  0
   -1.1163    0.8022    1.8381 C   0  0  0  0  0  0  0  0  0  0  0  0
   -0.4698   -0.2025    2.3854 N   0  0  0  0  0  0  0  0  0  0  0  0
   -0.6646   -1.3018    1.6040 N   0  0  0  0  0  0  0  0  0  0  0  0
   -1.4723   -0.9699    0.6113 C   0  0  0  0  0  0  0  0  0  0  0  0
   -2.0742   -1.9508   -0.3449 C   0  0  0  0  0  0  0  0  0  0  0  0
   -3.5330   -2.2051   -0.0803 C   0  0  0  0  0  0  0  0  0  0  0  0
   -4.6311   -1.7170   -0.7634 C   0  0  0  0  0  0  0  0  0  0  0  0
   -5.8623   -2.1786   -0.2145 C   0  0  0  0  0  0  0  0  0  0  0  0
   -5.6661   -3.0139    0.8615 C   0  0  0  0  0  0  0  0  0  0  0  0
   -4.0077   -3.2375    1.2065 S   0  0  0  0  0  0  0  0  0  0  0  0
   -1.7674    0.3887    0.6888 N   0  0  0  0  0  0  0  0  0  0  0  0
   -2.5373    1.1634   -0.2140 C   0  0  0  0  0  0  0  0  0  0  0  0
   -3.5170    2.0379    0.2720 C   0  0  0  0  0  0  0  0  0  0  0  0
   -4.2801    2.7911   -0.6220 C   0  0  0  0  0  0  0  0  0  0  0  0
   -4.0629    2.6811   -1.9947 C   0  0  0  0  0  0  0  0  0  0  0  0
   -3.0797    1.8197   -2.4794 C   0  0  0  0  0  0  0  0  0  0  0  0
   -2.3151    1.0589   -1.5928 C   0  0  0  0  0  0  0  0  0  0  0  0
    4.0522    1.1853    0.5473 C   0  0  0  0  0  0  0  0  0  0  0  0
    5.0067    0.6128   -0.3003 C   0  0  0  0  0  0  0  0  0  0  0  0
    7.7195   -2.6371   -0.4618 H   0  0  0  0  0  0  0  0  0  0  0  0
    7.3890   -1.1693    0.3119 H   0  0  0  0  0  0  0  0  0  0  0  0
    3.9763   -2.6394   -0.1413 H   0  0  0  0  0  0  0  0  0  0  0  0
    2.3003   -1.6262    1.3431 H   0  0  0  0  0  0  0  0  0  0  0  0
    1.4006    0.1939    2.3419 H   0  0  0  0  0  0  0  0  0  0  0  0
    0.6074    1.5546    4.0225 H   0  0  0  0  0  0  0  0  0  0  0  0
    0.7533    3.2967    3.8351 H   0  0  0  0  0  0  0  0  0  0  0  0
   -1.9289   -1.6351   -1.3817 H   0  0  0  0  0  0  0  0  0  0  0  0
   -1.5259   -2.8991   -0.2613 H   0  0  0  0  0  0  0  0  0  0  0  0
   -4.5629   -1.0519   -1.6166 H   0  0  0  0  0  0  0  0  0  0  0  0
   -6.8423   -1.9135   -0.5925 H   0  0  0  0  0  0  0  0  0  0  0  0
   -6.4170   -3.5083    1.4630 H   0  0  0  0  0  0  0  0  0  0  0  0
   -3.7292    2.1250    1.3353 H   0  0  0  0  0  0  0  0  0  0  0  0
   -5.0467    3.4652   -0.2465 H   0  0  0  0  0  0  0  0  0  0  0  0
   -4.6546    3.2757   -2.6869 H   0  0  0  0  0  0  0  0  0  0  0  0
   -2.8989    1.7537   -3.5500 H   0  0  0  0  0  0  0  0  0  0  0  0
   -1.5214    0.4378   -1.9997 H   0  0  0  0  0  0  0  0  0  0  0  0
    4.0974    2.2580    0.7121 H   0  0  0  0  0  0  0  0  0  0  0  0
    5.7529    1.2486   -0.7740 H   0  0  0  0  0  0  0  0  0  0  0  0
  1  2  1  0
  2  3  2  0
  2  4  2  0
  2  5  1  0
  5  6  2  0
  6  7  1  0
  7  8  2  0
  8  9  1  0
  9 10  1  0
 10 11  2  0
 10 12  1  0
 12 13  1  0
 13 14  1  0
 14 15  2  0
 15 16  1  0
 16 17  2  0
 17 18  1  0
 18 19  1  0
 19 20  2  0
 20 21  1  0
 21 22  2  0
 22 23  1  0
 17 24  1  0
 24 25  1  0
 25 26  2  0
 26 27  1  0
 27 28  2  0
 28 29  1  0
 29 30  2  0
  8 31  1  0
 31 32  2  0
 32  5  1  0
 24 14  1  0
 30 25  1  0
 23 19  1  0
  1 33  1  0
  1 34  1  0
  6 35  1  0
  7 36  1  0
  9 37  1  0
 12 38  1  0
 12 39  1  0
 18 40  1  0
 18 41  1  0
 20 42  1  0
 21 43  1  0
 22 44  1  0
 26 45  1  0
 27 46  1  0
 28 47  1  0
 29 48  1  0
 30 49  1  0
 31 50  1  0
 32 51  1  0
M  END
$$$$
