
     RDKit          3D

 42 45  0  0  0  0  0  0  0  0999 V2000
    4.3384   -1.7890   -1.2160 O   0  0  0  0  0  0  0  0  0  0  0  0
    3.5352   -0.9942   -0.7349 C   0  0  0  0  0  0  0  0  0  0  0  0
    4.0780    0.1489    0.0313 C   0  0  0  0  0  0  0  0  0  0  0  0
    3.6412    0.4023    1.3395 C   0  0  0  0  0  0  0  0  0  0  0  0
    4.1867    1.4667    2.0598 C   0  0  0  0  0  0  0  0  0  0  0  0
    5.1735    2.2626    1.4772 C   0  0  0  0  0  0  0  0  0  0  0  0
    5.6149    1.9835    0.1860 C   0  0  0  0  0  0  0  0  0  0  0  0
    6.5699    2.7473   -0.3601 F   0  0  0  0  0  0  0  0  0  0  0  0
    5.0835    0.9282   -0.5433 C   0  0  0  0  0  0  0  0  0  0  0  0
    2.1501   -1.1314   -0.8467 N   0  0  0  0  0  0  0  0  0  0  0  0
    1.6631   -2.2926   -1.5912 C   0  0  0  0  0  0  0  0  0  0  0  0
    0.2340   -2.6714   -1.1958 C   0  0  0  0  0  0  0  0  0  0  0  0
   -0.6927   -1.5340   -1.1866 N   0  0  0  0  0  0  0  0  0  0  0  0
   -2.0515   -1.8300   -1.3925 C   0  0  0  0  0  0  0  0  0  0  0  0
   -2.3834   -2.8815   -1.9449 O   0  0  0  0  0  0  0  0  0  0  0  0
   -3.1072   -0.8858   -0.9571 C   0  0  0  0  0  0  0  0  0  0  0  0
   -4.4330   -0.8745   -1.4665 C   0  0  0  0  0  0  0  0  0  0  0  0
   -5.1018    0.1029   -0.7737 C   0  0  0  0  0  0  0  0  0  0  0  0
   -6.3893    0.5574   -0.8490 N   0  0  0  0  0  0  0  0  0  0  0  0
   -6.7005    1.5074   -0.0154 C   0  0  0  0  0  0  0  0  0  0  0  0
   -5.7871    2.1289    0.9921 C   0  0  0  0  0  0  0  0  0  0  0  0
   -6.4160    3.4731    2.0928 Br  0  0  0  0  0  0  0  0  0  0  0  0
   -4.5416    1.6376    1.0097 C   0  0  0  0  0  0  0  0  0  0  0  0
   -4.1788    0.6228    0.1328 N   0  0  0  0  0  0  0  0  0  0  0  0
   -2.9696    0.0233    0.0271 N   0  0  0  0  0  0  0  0  0  0  0  0
   -0.1940   -0.3190   -0.5331 C   0  0  0  0  0  0  0  0  0  0  0  0
    1.2535    0.0264   -0.9130 C   0  0  0  0  0  0  0  0  0  0  0  0
    2.8893   -0.2346    1.7996 H   0  0  0  0  0  0  0  0  0  0  0  0
    3.8526    1.6687    3.0746 H   0  0  0  0  0  0  0  0  0  0  0  0
    5.6121    3.0918    2.0244 H   0  0  0  0  0  0  0  0  0  0  0  0
    5.4541    0.7172   -1.5416 H   0  0  0  0  0  0  0  0  0  0  0  0
    1.7080   -2.0375   -2.6573 H   0  0  0  0  0  0  0  0  0  0  0  0
    2.3252   -3.1505   -1.4288 H   0  0  0  0  0  0  0  0  0  0  0  0
    0.2302   -3.0779   -0.1765 H   0  0  0  0  0  0  0  0  0  0  0  0
   -0.1245   -3.4641   -1.8606 H   0  0  0  0  0  0  0  0  0  0  0  0
   -4.8412   -1.5081   -2.2416 H   0  0  0  0  0  0  0  0  0  0  0  0
   -7.7293    1.9050   -0.0391 H   0  0  0  0  0  0  0  0  0  0  0  0
   -3.7672    1.9823    1.6809 H   0  0  0  0  0  0  0  0  0  0  0  0
   -0.8112    0.5393   -0.8078 H   0  0  0  0  0  0  0  0  0  0  0  0
   -0.2660   -0.4820    0.5486 H   0  0  0  0  0  0  0  0  0  0  0  0
    1.6060    0.8519   -0.2913 H   0  0  0  0  0  0  0  0  0  0  0  0
    1.2864    0.3828   -1.9509 H   0  0  0  0  0  0  0  0  0  0  0  0
  1  2  2  0
  2  3  1  0
  3  4  2  0
  4  5  1  0
  5  6  2  0
  6  7  1  0
  7  8  1  0
  7  9  2  0
  2 10  1  0
 10 11  1  0
 11 12  1  0
 12 13  1  0
 13 14  1  0
 14 15  2  0
 14 16  1  0
 16 17  1  0
 17 18  2  0
 18 19  1  0
 19 20  2  0
 20 21  1  0
 21 22  1  0
 21 23  2  0
 23 24  1  0
 24 25  1  0
 13 26  1  0
 26 27  1  0
  9  3  1  0
 27 10  1  0
 25 16  2  0
 24 18  1  0
  4 28  1  0
  5 29  1  0
  6 30  1  0
  9 31  1  0
 11 32  1  0
 11 33  1  0
 12 34  1  0
 12 35  1  0
 17 36  1  0
 20 37  1  0
 23 38  1  0
 26 39  1  0
 26 40  1  0
 27 41  1  0
 27 42  1  0
M  END
$$$$
