
     RDKit          3D

 57 59  0  0  0  0  0  0  0  0999 V2000
   -3.9409   -1.8288    1.0697 C   0  0  0  0  0  0  0  0  0  0  0  0
   -2.8174   -1.2065    0.2327 C   0  0  0  0  0  0  0  0  0  0  0  0
   -3.1748   -1.0152   -1.1848 N   0  0  0  0  0  0  0  0  0  0  0  0
   -3.5158   -2.2650   -1.8872 C   0  0  0  0  0  0  0  0  0  0  0  0
   -2.4444   -3.3550   -1.8901 C   0  0  0  0  0  0  0  0  0  0  0  0
   -2.1429   -0.2448   -1.9184 C   0  0  0  0  0  0  0  0  0  0  0  0
   -2.0773    1.2424   -1.5097 C   0  0  0  0  0  0  0  0  0  0  0  0
   -1.1150    1.3966   -0.4612 O   0  0  0  0  0  0  0  0  0  0  0  0
   -1.1151    2.5648    0.2608 C   0  0  0  0  0  0  0  0  0  0  0  0
   -1.8025    3.6910   -0.0343 C   0  0  0  0  0  0  0  0  0  0  0  0
   -1.7763    4.8267    0.9435 C   0  0  2  0  0  0  0  0  0  0  0  0
   -2.0565    6.1023    0.3819 O   0  0  0  0  0  0  0  0  0  0  0  0
   -1.6501    7.0176    1.3348 C   0  0  0  0  0  0  0  0  0  0  0  0
   -1.9178    8.2043    1.2760 O   0  0  0  0  0  0  0  0  0  0  0  0
   -0.6312    6.3331    2.6273 S   0  0  0  0  0  0  0  0  0  0  0  0
   -0.3877    4.9173    1.5731 C   0  0  1  0  0  0  0  0  0  0  0  0
    0.0197    3.6189    2.1734 C   0  0  0  0  0  0  0  0  0  0  0  0
   -0.3126    2.5009    1.4951 C   0  0  0  0  0  0  0  0  0  0  0  0
    0.2169    1.2151    2.0376 C   0  0  0  0  0  0  0  0  0  0  0  0
   -0.1470    0.7688    3.1200 O   0  0  0  0  0  0  0  0  0  0  0  0
    1.2495    0.5616    1.1982 C   0  0  0  0  0  0  0  0  0  0  0  0
    1.8660   -0.5581    1.6151 C   0  0  0  0  0  0  0  0  0  0  0  0
    2.9296   -1.2109    0.8412 C   0  0  0  0  0  0  0  0  0  0  0  0
    2.9216   -2.6008    0.6821 C   0  0  0  0  0  0  0  0  0  0  0  0
    3.9594   -3.2491   -0.0045 C   0  0  0  0  0  0  0  0  0  0  0  0
    5.0233   -2.5132   -0.5247 C   0  0  0  0  0  0  0  0  0  0  0  0
    6.1059   -3.0191   -1.1958 O   0  0  0  0  0  0  0  0  0  0  0  0
    6.1990   -4.4355   -1.2865 C   0  0  0  0  0  0  0  0  0  0  0  0
    5.0350   -1.1244   -0.3652 C   0  0  0  0  0  0  0  0  0  0  0  0
    4.0012   -0.4751    0.3132 C   0  0  0  0  0  0  0  0  0  0  0  0
   -4.8824   -1.2677    0.9550 H   0  0  0  0  0  0  0  0  0  0  0  0
   -3.6669   -1.8157    2.1376 H   0  0  0  0  0  0  0  0  0  0  0  0
   -4.1176   -2.8750    0.7961 H   0  0  0  0  0  0  0  0  0  0  0  0
   -1.9047   -1.8105    0.3427 H   0  0  0  0  0  0  0  0  0  0  0  0
   -2.6033   -0.2375    0.6951 H   0  0  0  0  0  0  0  0  0  0  0  0
   -3.7759   -2.0308   -2.9230 H   0  0  0  0  0  0  0  0  0  0  0  0
   -4.4404   -2.6805   -1.4716 H   0  0  0  0  0  0  0  0  0  0  0  0
   -1.4898   -2.9801   -2.2904 H   0  0  0  0  0  0  0  0  0  0  0  0
   -2.7556   -4.2054   -2.5194 H   0  0  0  0  0  0  0  0  0  0  0  0
   -2.2767   -3.7502   -0.8920 H   0  0  0  0  0  0  0  0  0  0  0  0
   -2.4058   -0.2533   -2.9829 H   0  0  0  0  0  0  0  0  0  0  0  0
   -1.1559   -0.7171   -1.8135 H   0  0  0  0  0  0  0  0  0  0  0  0
   -3.0701    1.5820   -1.1989 H   0  0  0  0  0  0  0  0  0  0  0  0
   -1.7501    1.8385   -2.3665 H   0  0  0  0  0  0  0  0  0  0  0  0
   -2.4244    3.7933   -0.9146 H   0  0  0  0  0  0  0  0  0  0  0  0
   -2.5643    4.6175    1.6765 H   0  0  0  0  0  0  0  0  0  0  0  0
    0.3703    5.2114    0.8323 H   0  0  0  0  0  0  0  0  0  0  0  0
    0.6231    3.5898    3.0769 H   0  0  0  0  0  0  0  0  0  0  0  0
    1.4878    1.0302    0.2533 H   0  0  0  0  0  0  0  0  0  0  0  0
    1.6060   -1.0221    2.5573 H   0  0  0  0  0  0  0  0  0  0  0  0
    2.1094   -3.1971    1.0902 H   0  0  0  0  0  0  0  0  0  0  0  0
    3.9098   -4.3287   -0.1068 H   0  0  0  0  0  0  0  0  0  0  0  0
    6.2291   -4.8938   -0.2914 H   0  0  0  0  0  0  0  0  0  0  0  0
    5.3821   -4.8488   -1.8897 H   0  0  0  0  0  0  0  0  0  0  0  0
    7.1405   -4.6701   -1.7917 H   0  0  0  0  0  0  0  0  0  0  0  0
    5.8675   -0.5426   -0.7609 H   0  0  0  0  0  0  0  0  0  0  0  0
    4.0563    0.6047    0.4426 H   0  0  0  0  0  0  0  0  0  0  0  0
  1  2  1  0
  2  3  1  0
  3  4  1  0
  4  5  1  0
  3  6  1  0
  6  7  1  0
  7  8  1  0
  8  9  1  0
  9 10  2  0
 10 11  1  0
 11 12  1  0
 12 13  1  0
 13 14  2  0
 13 15  1  0
 15 16  1  0
 16 17  1  0
 17 18  2  0
 18 19  1  0
 19 20  2  0
 19 21  1  0
 21 22  2  0
 22 23  1  0
 23 24  2  0
 24 25  1  0
 25 26  2  0
 26 27  1  0
 27 28  1  0
 26 29  1  0
 29 30  2  0
 18  9  1  0
 30 23  1  0
 16 11  1  0
  1 31  1  0
  1 32  1  0
  1 33  1  0
  2 34  1  0
  2 35  1  0
  4 36  1  0
  4 37  1  0
  5 38  1  0
  5 39  1  0
  5 40  1  0
  6 41  1  0
  6 42  1  0
  7 43  1  0
  7 44  1  0
 10 45  1  0
 11 46  1  1
 16 47  1  6
 17 48  1  0
 21 49  1  0
 22 50  1  0
 24 51  1  0
 25 52  1  0
 28 53  1  0
 28 54  1  0
 28 55  1  0
 29 56  1  0
 30 57  1  0
M  END
$$$$
