
     RDKit          3D

 60 63  0  0  0  0  0  0  0  0999 V2000
   -4.0923    6.0854    1.3244 C   0  0  0  0  0  0  0  0  0  0  0  0
   -2.8543    5.4756    0.9820 O   0  0  0  0  0  0  0  0  0  0  0  0
   -2.7298    4.1383    1.2375 C   0  0  0  0  0  0  0  0  0  0  0  0
   -1.4880    3.5941    0.9022 C   0  0  0  0  0  0  0  0  0  0  0  0
   -1.2187    2.2390    1.1116 C   0  0  0  0  0  0  0  0  0  0  0  0
   -2.2041    1.4130    1.6584 C   0  0  0  0  0  0  0  0  0  0  0  0
   -1.9484    0.0341    1.8713 N   0  0  0  0  0  0  0  0  0  0  0  0
   -2.7608   -1.0399    1.5214 C   0  0  0  0  0  0  0  0  0  0  0  0
   -3.9681   -0.9800    0.6434 C   0  0  0  0  0  0  0  0  0  0  0  0
   -3.6256   -0.6299   -0.7760 C   0  0  0  0  0  0  0  0  0  0  0  0
   -3.8959    0.5335   -1.4778 C   0  0  0  0  0  0  0  0  0  0  0  0
   -3.3568    0.3954   -2.7769 C   0  0  0  0  0  0  0  0  0  0  0  0
   -2.7742   -0.8487   -2.8452 C   0  0  0  0  0  0  0  0  0  0  0  0
   -2.9439   -1.4705   -1.6330 N   0  0  0  0  0  0  0  0  0  0  0  0
   -2.4469   -2.7979   -1.3309 C   0  0  0  0  0  0  0  0  0  0  0  0
   -2.2102   -2.1637    1.9411 N   0  0  0  0  0  0  0  0  0  0  0  0
   -1.0056   -1.8646    2.5087 N   0  0  0  0  0  0  0  0  0  0  0  0
   -0.8414   -0.5642    2.4516 C   0  0  0  0  0  0  0  0  0  0  0  0
    0.4909    0.2805    3.1815 S   0  0  0  0  0  0  0  0  0  0  0  0
    1.6560   -1.0898    3.4670 C   0  0  0  0  0  0  0  0  0  0  0  0
    2.2772   -1.6301    2.1862 C   0  0  0  0  0  0  0  0  0  0  0  0
    2.6232   -2.8050    2.0817 O   0  0  0  0  0  0  0  0  0  0  0  0
    2.5327   -0.6976    1.2016 N   0  0  0  0  0  0  0  0  0  0  0  0
    3.1123   -1.0642   -0.0764 C   0  0  0  0  0  0  0  0  0  0  0  0
    4.6230   -1.2928    0.0128 C   0  0  0  0  0  0  0  0  0  0  0  0
    5.2214   -1.5845   -1.3408 C   0  0  0  0  0  0  0  0  0  0  0  0
    5.7978   -0.5594   -2.1035 C   0  0  0  0  0  0  0  0  0  0  0  0
    6.3306   -0.8312   -3.3648 C   0  0  0  0  0  0  0  0  0  0  0  0
    6.2874   -2.1277   -3.8761 C   0  0  0  0  0  0  0  0  0  0  0  0
    5.7139   -3.1536   -3.1264 C   0  0  0  0  0  0  0  0  0  0  0  0
    5.1814   -2.8839   -1.8648 C   0  0  0  0  0  0  0  0  0  0  0  0
   -3.4514    1.9518    1.9947 C   0  0  0  0  0  0  0  0  0  0  0  0
   -3.7104    3.3119    1.7856 C   0  0  0  0  0  0  0  0  0  0  0  0
   -4.9194    5.6479    0.7546 H   0  0  0  0  0  0  0  0  0  0  0  0
   -4.2765    6.0226    2.4024 H   0  0  0  0  0  0  0  0  0  0  0  0
   -4.0284    7.1452    1.0582 H   0  0  0  0  0  0  0  0  0  0  0  0
   -0.7237    4.2329    0.4654 H   0  0  0  0  0  0  0  0  0  0  0  0
   -0.2545    1.8507    0.7973 H   0  0  0  0  0  0  0  0  0  0  0  0
   -4.7096   -0.2791    1.0374 H   0  0  0  0  0  0  0  0  0  0  0  0
   -4.4680   -1.9567    0.6581 H   0  0  0  0  0  0  0  0  0  0  0  0
   -4.4189    1.3993   -1.0904 H   0  0  0  0  0  0  0  0  0  0  0  0
   -3.3873    1.1245   -3.5763 H   0  0  0  0  0  0  0  0  0  0  0  0
   -2.2524   -1.3383   -3.6580 H   0  0  0  0  0  0  0  0  0  0  0  0
   -1.5189   -2.6939   -0.7624 H   0  0  0  0  0  0  0  0  0  0  0  0
   -2.2519   -3.3291   -2.2668 H   0  0  0  0  0  0  0  0  0  0  0  0
   -3.2019   -3.3446   -0.7606 H   0  0  0  0  0  0  0  0  0  0  0  0
    1.1573   -1.9037    4.0015 H   0  0  0  0  0  0  0  0  0  0  0  0
    2.4707   -0.7205    4.0981 H   0  0  0  0  0  0  0  0  0  0  0  0
    2.1899    0.2458    1.3347 H   0  0  0  0  0  0  0  0  0  0  0  0
    2.8859   -0.2493   -0.7732 H   0  0  0  0  0  0  0  0  0  0  0  0
    2.6049   -1.9648   -0.4413 H   0  0  0  0  0  0  0  0  0  0  0  0
    4.8494   -2.1215    0.6954 H   0  0  0  0  0  0  0  0  0  0  0  0
    5.1090   -0.4117    0.4506 H   0  0  0  0  0  0  0  0  0  0  0  0
    5.8383    0.4573   -1.7196 H   0  0  0  0  0  0  0  0  0  0  0  0
    6.7784   -0.0305   -3.9495 H   0  0  0  0  0  0  0  0  0  0  0  0
    6.7021   -2.3390   -4.8582 H   0  0  0  0  0  0  0  0  0  0  0  0
    5.6795   -4.1655   -3.5238 H   0  0  0  0  0  0  0  0  0  0  0  0
    4.7339   -3.6941   -1.2897 H   0  0  0  0  0  0  0  0  0  0  0  0
   -4.2239    1.3475    2.4636 H   0  0  0  0  0  0  0  0  0  0  0  0
   -4.6851    3.6949    2.0697 H   0  0  0  0  0  0  0  0  0  0  0  0
  1  2  1  0
  2  3  1  0
  3  4  2  0
  4  5  1  0
  5  6  2  0
  6  7  1  0
  7  8  1  0
  8  9  1  0
  9 10  1  0
 10 11  2  0
 11 12  1  0
 12 13  2  0
 13 14  1  0
 14 15  1  0
  8 16  2  0
 16 17  1  0
 17 18  2  0
 18 19  1  0
 19 20  1  0
 20 21  1  0
 21 22  2  0
 21 23  1  0
 23 24  1  0
 24 25  1  0
 25 26  1  0
 26 27  2  0
 27 28  1  0
 28 29  2  0
 29 30  1  0
 30 31  2  0
  6 32  1  0
 32 33  2  0
 33  3  1  0
 18  7  1  0
 31 26  1  0
 14 10  1  0
  1 34  1  0
  1 35  1  0
  1 36  1  0
  4 37  1  0
  5 38  1  0
  9 39  1  0
  9 40  1  0
 11 41  1  0
 12 42  1  0
 13 43  1  0
 15 44  1  0
 15 45  1  0
 15 46  1  0
 20 47  1  0
 20 48  1  0
 23 49  1  0
 24 50  1  0
 24 51  1  0
 25 52  1  0
 25 53  1  0
 27 54  1  0
 28 55  1  0
 29 56  1  0
 30 57  1  0
 31 58  1  0
 32 59  1  0
 33 60  1  0
M  END
$$$$
