
     RDKit          3D

 36 37  0  0  0  0  0  0  0  0999 V2000
   -1.5182   -0.4816    1.7130 O   0  0  0  0  0  0  0  0  0  0  0  0
   -0.8367    0.4942    1.3998 C   0  0  0  0  0  0  0  0  0  0  0  0
    0.3068    1.0245    2.2667 C   0  0  0  0  0  0  0  0  0  0  0  0
    1.5819    0.4998    1.8948 O   0  0  0  0  0  0  0  0  0  0  0  0
    2.1269    1.0437    0.7806 C   0  0  0  0  0  0  0  0  0  0  0  0
    1.6040    1.9036    0.0874 O   0  0  0  0  0  0  0  0  0  0  0  0
    3.4596    0.4497    0.4947 C   0  0  0  0  0  0  0  0  0  0  0  0
    4.0048   -0.5816    1.2739 C   0  0  0  0  0  0  0  0  0  0  0  0
    5.2608   -1.1082    0.9625 C   0  0  0  0  0  0  0  0  0  0  0  0
    5.9760   -0.6088   -0.1259 C   0  0  0  0  0  0  0  0  0  0  0  0
    5.4338    0.4155   -0.9006 C   0  0  0  0  0  0  0  0  0  0  0  0
    6.3195    1.0288   -2.2419 Cl  0  0  0  0  0  0  0  0  0  0  0  0
    4.1814    0.9470   -0.5982 C   0  0  0  0  0  0  0  0  0  0  0  0
   -1.0555    1.2012    0.2345 N   0  0  0  0  0  0  0  0  0  0  0  0
   -1.9703    0.6874   -0.7687 C   0  0  0  0  0  0  0  0  0  0  0  0
   -3.4380    0.7023   -0.3144 C   0  0  0  0  0  0  0  0  0  0  0  0
   -4.1568   -0.4689   -0.7727 N   0  0  0  0  0  0  0  0  0  0  0  0
   -4.3242   -1.6295   -0.0547 C   0  0  0  0  0  0  0  0  0  0  0  0
   -3.7998   -1.7951    1.1924 O   0  0  0  0  0  0  0  0  0  0  0  0
   -5.0384   -2.5691   -0.6812 C   0  0  0  0  0  0  0  0  0  0  0  0
   -5.5278   -2.0507   -2.2635 S   0  0  0  0  0  0  0  0  0  0  0  0
   -4.7153   -0.4921   -2.0439 C   0  0  0  0  0  0  0  0  0  0  0  0
   -4.6677    0.3791   -2.8971 O   0  0  0  0  0  0  0  0  0  0  0  0
    0.3151    2.1214    2.2605 H   0  0  0  0  0  0  0  0  0  0  0  0
    0.1115    0.7209    3.3009 H   0  0  0  0  0  0  0  0  0  0  0  0
    3.4637   -0.9881    2.1257 H   0  0  0  0  0  0  0  0  0  0  0  0
    5.6810   -1.9086    1.5678 H   0  0  0  0  0  0  0  0  0  0  0  0
    6.9531   -1.0217   -0.3651 H   0  0  0  0  0  0  0  0  0  0  0  0
    3.7700    1.7462   -1.2112 H   0  0  0  0  0  0  0  0  0  0  0  0
   -0.2699    1.7682   -0.0941 H   0  0  0  0  0  0  0  0  0  0  0  0
   -1.6395   -0.3285   -1.0164 H   0  0  0  0  0  0  0  0  0  0  0  0
   -1.8501    1.3022   -1.6672 H   0  0  0  0  0  0  0  0  0  0  0  0
   -3.5515    0.7907    0.7715 H   0  0  0  0  0  0  0  0  0  0  0  0
   -3.9214    1.5937   -0.7342 H   0  0  0  0  0  0  0  0  0  0  0  0
   -2.9921   -1.2461    1.2897 H   0  0  0  0  0  0  0  0  0  0  0  0
   -5.2769   -3.5415   -0.2746 H   0  0  0  0  0  0  0  0  0  0  0  0
  1  2  2  0
  2  3  1  0
  3  4  1  0
  4  5  1  0
  5  6  2  0
  5  7  1  0
  7  8  2  0
  8  9  1  0
  9 10  2  0
 10 11  1  0
 11 12  1  0
 11 13  2  0
  2 14  1  0
 14 15  1  0
 15 16  1  0
 16 17  1  0
 17 18  1  0
 18 19  1  0
 18 20  2  0
 20 21  1  0
 21 22  1  0
 22 23  2  0
 13  7  1  0
 22 17  1  0
  3 24  1  0
  3 25  1  0
  8 26  1  0
  9 27  1  0
 10 28  1  0
 13 29  1  0
 14 30  1  0
 15 31  1  0
 15 32  1  0
 16 33  1  0
 16 34  1  0
 19 35  1  0
 20 36  1  0
M  END
$$$$
