
     RDKit          3D

 32 34  0  0  0  0  0  0  0  0999 V2000
    0.2562    0.1341   -2.6098 O   0  0  0  0  0  0  0  0  0  0  0  0
   -0.2610    0.1308   -1.4960 C   0  0  0  0  0  0  0  0  0  0  0  0
   -1.7584    0.4138   -1.3422 C   0  0  0  0  0  0  0  0  0  0  0  0
   -2.1578    0.4001    0.0289 O   0  0  0  0  0  0  0  0  0  0  0  0
   -3.5080    0.4432    0.2529 C   0  0  0  0  0  0  0  0  0  0  0  0
   -4.4649    0.9031   -0.6556 C   0  0  0  0  0  0  0  0  0  0  0  0
   -5.8227    0.8822   -0.3173 C   0  0  0  0  0  0  0  0  0  0  0  0
   -6.2214    0.4103    0.9319 C   0  0  0  0  0  0  0  0  0  0  0  0
   -8.0577    0.3713    1.3797 Br  0  0  0  0  0  0  0  0  0  0  0  0
   -5.2737   -0.0337    1.8513 C   0  0  0  0  0  0  0  0  0  0  0  0
   -3.9179   -0.0119    1.5104 C   0  0  0  0  0  0  0  0  0  0  0  0
    0.3596   -0.1231   -0.2966 N   0  0  0  0  0  0  0  0  0  0  0  0
    1.6810   -0.4147   -0.0871 C   0  0  0  0  0  0  0  0  0  0  0  0
    2.1705   -0.6234    1.1154 N   0  0  0  0  0  0  0  0  0  0  0  0
    3.5288   -0.8799    1.0866 N   0  0  0  0  0  0  0  0  0  0  0  0
    3.9966   -0.8500   -0.1406 C   0  0  0  0  0  0  0  0  0  0  0  0
    5.5040   -1.1015   -0.4553 C   0  0  0  0  0  0  0  0  0  0  0  0
    6.2830   -0.1003   -1.2710 C   0  0  0  0  0  0  0  0  0  0  0  0
    6.5359   -0.2179    0.2031 C   0  0  0  0  0  0  0  0  0  0  0  0
    2.8256   -0.5409   -1.3433 S   0  0  0  0  0  0  0  0  0  0  0  0
   -2.2844   -0.3757   -1.8910 H   0  0  0  0  0  0  0  0  0  0  0  0
   -1.9443    1.4020   -1.7764 H   0  0  0  0  0  0  0  0  0  0  0  0
   -4.1919    1.2912   -1.6320 H   0  0  0  0  0  0  0  0  0  0  0  0
   -6.5585    1.2373   -1.0348 H   0  0  0  0  0  0  0  0  0  0  0  0
   -5.5751   -0.3962    2.8310 H   0  0  0  0  0  0  0  0  0  0  0  0
   -3.1810   -0.3528    2.2338 H   0  0  0  0  0  0  0  0  0  0  0  0
   -0.2029   -0.0708    0.5463 H   0  0  0  0  0  0  0  0  0  0  0  0
    5.7600   -2.1519   -0.5598 H   0  0  0  0  0  0  0  0  0  0  0  0
    7.0443   -0.4770   -1.9444 H   0  0  0  0  0  0  0  0  0  0  0  0
    5.7827    0.7941   -1.6278 H   0  0  0  0  0  0  0  0  0  0  0  0
    7.4602   -0.6782    0.5302 H   0  0  0  0  0  0  0  0  0  0  0  0
    6.1931    0.5865    0.8442 H   0  0  0  0  0  0  0  0  0  0  0  0
  1  2  2  0
  2  3  1  0
  3  4  1  0
  4  5  1  0
  5  6  2  0
  6  7  1  0
  7  8  2  0
  8  9  1  0
  8 10  1  0
 10 11  2  0
  2 12  1  0
 12 13  1  0
 13 14  2  0
 14 15  1  0
 15 16  2  0
 16 17  1  0
 17 18  1  0
 18 19  1  0
 16 20  1  0
 11  5  1  0
 20 13  1  0
 19 17  1  0
  3 21  1  0
  3 22  1  0
  6 23  1  0
  7 24  1  0
 10 25  1  0
 11 26  1  0
 12 27  1  0
 17 28  1  0
 18 29  1  0
 18 30  1  0
 19 31  1  0
 19 32  1  0
M  END
$$$$
