
     RDKit          3D

 61 67  0  0  0  0  0  0  0  0999 V2000
    3.4072    2.0747   -1.5944 O   0  0  0  0  0  0  0  0  0  0  0  0
    3.2819    1.1182   -0.8323 C   0  0  0  0  0  0  0  0  0  0  0  0
    4.4664    0.7033   -0.0458 C   0  0  0  0  0  0  0  0  0  0  0  0
    5.1754    1.6893    0.6726 C   0  0  0  0  0  0  0  0  0  0  0  0
    6.3072    1.3436    1.4180 C   0  0  0  0  0  0  0  0  0  0  0  0
    6.7002    0.0215    1.4073 C   0  0  0  0  0  0  0  0  0  0  0  0
    6.0206   -0.9341    0.6855 C   0  0  0  0  0  0  0  0  0  0  0  0
    4.9044   -0.6276   -0.0628 C   0  0  0  0  0  0  0  0  0  0  0  0
    6.5806   -2.1680    0.8039 O   0  0  0  0  0  0  0  0  0  0  0  0
    7.6892   -1.8816    1.6839 C   0  0  0  0  0  0  0  0  0  0  0  0
    7.7703   -0.4938    2.0706 O   0  0  0  0  0  0  0  0  0  0  0  0
    2.0838    0.4182   -0.6813 N   0  0  0  0  0  0  0  0  0  0  0  0
    1.7879   -0.4728    0.4435 C   0  0  0  0  0  0  0  0  0  0  0  0
    0.3180   -0.3919    0.8447 C   0  0  0  0  0  0  0  0  0  0  0  0
   -0.6095   -0.8196   -0.3243 C   0  0  0  0  0  0  0  0  0  0  0  0
   -0.0387   -0.3466   -1.6902 C   0  0  0  0  0  0  0  0  0  0  0  0
    0.9792    0.7796   -1.5595 C   0  0  0  0  0  0  0  0  0  0  0  0
   -0.5111   -2.2741   -0.2949 O   0  0  0  0  0  0  0  0  0  0  0  0
   -1.4949   -2.9933   -0.9042 C   0  0  0  0  0  0  0  0  0  0  0  0
   -1.2285   -4.3502   -1.1008 C   0  0  0  0  0  0  0  0  0  0  0  0
   -2.1700   -5.1629   -1.7351 C   0  0  0  0  0  0  0  0  0  0  0  0
   -3.3730   -4.6130   -2.1660 C   0  0  0  0  0  0  0  0  0  0  0  0
   -4.2720   -5.3946   -2.7772 F   0  0  0  0  0  0  0  0  0  0  0  0
   -3.6566   -3.2681   -1.9678 C   0  0  0  0  0  0  0  0  0  0  0  0
   -2.7117   -2.4649   -1.3230 C   0  0  0  0  0  0  0  0  0  0  0  0
   -2.9873   -1.0446   -1.0744 C   0  0  0  0  0  0  0  0  0  0  0  0
   -3.9089   -0.4905   -1.6691 O   0  0  0  0  0  0  0  0  0  0  0  0
   -2.0699   -0.3466   -0.0746 C   0  0  0  0  0  0  0  0  0  0  0  0
   -2.2821    1.1613   -0.1058 C   0  0  0  0  0  0  0  0  0  0  0  0
   -3.2707    1.2742    1.0053 C   0  0  0  0  0  0  0  0  0  0  0  0
   -4.0563    2.5085    1.2394 C   0  0  0  0  0  0  0  0  0  0  0  0
   -3.8059    3.6833    0.5206 C   0  0  0  0  0  0  0  0  0  0  0  0
   -4.5625    4.8328    0.7731 C   0  0  0  0  0  0  0  0  0  0  0  0
   -5.5663    4.8081    1.7406 C   0  0  0  0  0  0  0  0  0  0  0  0
   -6.4908    6.2256    2.0479 Cl  0  0  0  0  0  0  0  0  0  0  0  0
   -5.8222    3.6436    2.4604 C   0  0  0  0  0  0  0  0  0  0  0  0
   -5.0666    2.4945    2.2110 C   0  0  0  0  0  0  0  0  0  0  0  0
   -3.3593    0.2265    1.7614 N   0  0  0  0  0  0  0  0  0  0  0  0
   -2.4871   -0.7529    1.2398 O   0  0  0  0  0  0  0  0  0  0  0  0
    4.8410    2.7250    0.6451 H   0  0  0  0  0  0  0  0  0  0  0  0
    6.8613    2.0885    1.9788 H   0  0  0  0  0  0  0  0  0  0  0  0
    4.4003   -1.3891   -0.6462 H   0  0  0  0  0  0  0  0  0  0  0  0
    8.6198   -2.1607    1.1774 H   0  0  0  0  0  0  0  0  0  0  0  0
    7.5844   -2.4924    2.5882 H   0  0  0  0  0  0  0  0  0  0  0  0
    2.0477   -1.4920    0.1360 H   0  0  0  0  0  0  0  0  0  0  0  0
    2.4098   -0.2081    1.3047 H   0  0  0  0  0  0  0  0  0  0  0  0
    0.1597   -1.0439    1.7132 H   0  0  0  0  0  0  0  0  0  0  0  0
    0.1104    0.6320    1.1722 H   0  0  0  0  0  0  0  0  0  0  0  0
   -0.8405   -0.0188   -2.3621 H   0  0  0  0  0  0  0  0  0  0  0  0
    0.4507   -1.1884   -2.1994 H   0  0  0  0  0  0  0  0  0  0  0  0
    1.3712    1.0371   -2.5505 H   0  0  0  0  0  0  0  0  0  0  0  0
    0.5156    1.6858   -1.1542 H   0  0  0  0  0  0  0  0  0  0  0  0
   -0.2851   -4.7749   -0.7655 H   0  0  0  0  0  0  0  0  0  0  0  0
   -1.9731   -6.2186   -1.8965 H   0  0  0  0  0  0  0  0  0  0  0  0
   -4.6069   -2.8629   -2.3037 H   0  0  0  0  0  0  0  0  0  0  0  0
   -1.3994    1.7386    0.1769 H   0  0  0  0  0  0  0  0  0  0  0  0
   -2.6662    1.5410   -1.0554 H   0  0  0  0  0  0  0  0  0  0  0  0
   -3.0277    3.7339   -0.2351 H   0  0  0  0  0  0  0  0  0  0  0  0
   -4.3637    5.7436    0.2136 H   0  0  0  0  0  0  0  0  0  0  0  0
   -6.6046    3.6208    3.2146 H   0  0  0  0  0  0  0  0  0  0  0  0
   -5.2755    1.5886    2.7774 H   0  0  0  0  0  0  0  0  0  0  0  0
  1  2  2  0
  2  3  1  0
  3  4  2  0
  4  5  1  0
  5  6  2  0
  6  7  1  0
  7  8  2  0
  7  9  1  0
  9 10  1  0
 10 11  1  0
  2 12  1  0
 12 13  1  0
 13 14  1  0
 14 15  1  0
 15 16  1  0
 16 17  1  0
 15 18  1  0
 18 19  1  0
 19 20  2  0
 20 21  1  0
 21 22  2  0
 22 23  1  0
 22 24  1  0
 24 25  2  0
 25 26  1  0
 26 27  2  0
 26 28  1  0
 28 29  1  0
 29 30  1  0
 30 31  1  0
 31 32  2  0
 32 33  1  0
 33 34  2  0
 34 35  1  0
 34 36  1  0
 36 37  2  0
 30 38  2  0
 38 39  1  0
  8  3  1  0
 17 12  1  0
 25 19  1  0
 39 28  1  0
 11  6  1  0
 28 15  1  0
 37 31  1  0
  4 40  1  0
  5 41  1  0
  8 42  1  0
 10 43  1  0
 10 44  1  0
 13 45  1  0
 13 46  1  0
 14 47  1  0
 14 48  1  0
 16 49  1  0
 16 50  1  0
 17 51  1  0
 17 52  1  0
 20 53  1  0
 21 54  1  0
 24 55  1  0
 29 56  1  0
 29 57  1  0
 32 58  1  0
 33 59  1  0
 36 60  1  0
 37 61  1  0
M  END
$$$$
