
     RDKit          3D

 57 61  0  0  0  0  0  0  0  0999 V2000
   -4.7267    5.0109    2.1338 C   0  0  0  0  0  0  0  0  0  0  0  0
   -4.7073    3.5115    2.1989 C   0  0  0  0  0  0  0  0  0  0  0  0
   -5.7350    2.7682    1.6051 C   0  0  0  0  0  0  0  0  0  0  0  0
   -5.7065    1.3714    1.6275 C   0  0  0  0  0  0  0  0  0  0  0  0
   -4.6444    0.6921    2.2389 C   0  0  0  0  0  0  0  0  0  0  0  0
   -4.5920   -0.8154    2.2310 C   0  0  0  0  0  0  0  0  0  0  0  0
   -4.1664   -1.3226    0.9423 N   0  0  0  0  0  0  0  0  0  0  0  0
   -5.0632   -1.8230    0.0548 N   0  0  0  0  0  0  0  0  0  0  0  0
   -4.3897   -2.2000   -1.0341 N   0  0  0  0  0  0  0  0  0  0  0  0
   -3.0716   -1.9486   -0.8024 C   0  0  0  0  0  0  0  0  0  0  0  0
   -1.9110   -2.1433   -1.6302 C   0  0  0  0  0  0  0  0  0  0  0  0
   -1.9089   -2.5933   -2.7719 O   0  0  0  0  0  0  0  0  0  0  0  0
   -0.7391   -1.7475   -0.9915 N   0  0  0  0  0  0  0  0  0  0  0  0
   -0.6909   -1.2066    0.2885 C   0  0  0  0  0  0  0  0  0  0  0  0
    0.6811   -0.8263    0.8335 C   0  0  0  0  0  0  0  0  0  0  0  0
    1.4184    0.1651   -0.0715 C   0  0  0  0  0  0  0  0  0  0  0  0
    2.9062   -0.1466   -0.1475 C   0  0  0  0  0  0  0  0  0  0  0  0
    3.0827   -1.5061   -0.7228 N   0  0  0  0  0  0  0  0  0  0  0  0
    4.7204   -1.9292   -1.0670 S   0  0  0  0  0  6  0  0  0  0  0  0
    5.4748   -1.6836    0.1462 O   0  0  0  0  0  0  0  0  0  0  0  0
    4.7130   -3.2292   -1.7029 O   0  0  0  0  0  0  0  0  0  0  0  0
    5.1960   -0.7374   -2.2913 C   0  0  0  0  0  0  0  0  0  0  0  0
    6.1014    0.2777   -1.9668 C   0  0  0  0  0  0  0  0  0  0  0  0
    6.4617    1.2104   -2.9405 C   0  0  0  0  0  0  0  0  0  0  0  0
    5.9312    1.1167   -4.2296 C   0  0  0  0  0  0  0  0  0  0  0  0
    5.0429    0.0884   -4.5527 C   0  0  0  0  0  0  0  0  0  0  0  0
    4.6717   -0.8442   -3.5831 C   0  0  0  0  0  0  0  0  0  0  0  0
    2.3571   -2.5891    0.0097 C   0  0  0  0  0  0  0  0  0  0  0  0
    1.5093   -2.0716    1.1657 C   0  0  0  0  0  0  0  0  0  0  0  0
   -1.7381   -1.0343    1.0492 N   0  0  0  0  0  0  0  0  0  0  0  0
   -2.8945   -1.4120    0.4501 C   0  0  0  0  0  0  0  0  0  0  0  0
   -3.6097    1.4387    2.8238 C   0  0  0  0  0  0  0  0  0  0  0  0
   -3.6401    2.8355    2.8013 C   0  0  0  0  0  0  0  0  0  0  0  0
   -5.7337    5.3901    2.3397 H   0  0  0  0  0  0  0  0  0  0  0  0
   -4.0539    5.4507    2.8781 H   0  0  0  0  0  0  0  0  0  0  0  0
   -4.4130    5.3465    1.1397 H   0  0  0  0  0  0  0  0  0  0  0  0
   -6.5630    3.2736    1.1110 H   0  0  0  0  0  0  0  0  0  0  0  0
   -6.5145    0.8179    1.1494 H   0  0  0  0  0  0  0  0  0  0  0  0
   -3.8917   -1.1949    2.9835 H   0  0  0  0  0  0  0  0  0  0  0  0
   -5.5759   -1.2375    2.4657 H   0  0  0  0  0  0  0  0  0  0  0  0
    0.0923   -1.8316   -1.5600 H   0  0  0  0  0  0  0  0  0  0  0  0
    0.4930   -0.3155    1.7904 H   0  0  0  0  0  0  0  0  0  0  0  0
    0.9994    0.1837   -1.0857 H   0  0  0  0  0  0  0  0  0  0  0  0
    1.2834    1.1813    0.3237 H   0  0  0  0  0  0  0  0  0  0  0  0
    3.3738   -0.0752    0.8425 H   0  0  0  0  0  0  0  0  0  0  0  0
    3.3692    0.6039   -0.7962 H   0  0  0  0  0  0  0  0  0  0  0  0
    6.5346    0.3446   -0.9724 H   0  0  0  0  0  0  0  0  0  0  0  0
    7.1627    2.0068   -2.6974 H   0  0  0  0  0  0  0  0  0  0  0  0
    6.2195    1.8402   -4.9904 H   0  0  0  0  0  0  0  0  0  0  0  0
    4.6466    0.0114   -5.5634 H   0  0  0  0  0  0  0  0  0  0  0  0
    3.9884   -1.6512   -3.8395 H   0  0  0  0  0  0  0  0  0  0  0  0
    1.7274   -3.1130   -0.7212 H   0  0  0  0  0  0  0  0  0  0  0  0
    3.0537   -3.3361    0.4143 H   0  0  0  0  0  0  0  0  0  0  0  0
    2.1847   -1.8204    1.9954 H   0  0  0  0  0  0  0  0  0  0  0  0
    0.8674   -2.8808    1.5361 H   0  0  0  0  0  0  0  0  0  0  0  0
   -2.7625    0.9371    3.2884 H   0  0  0  0  0  0  0  0  0  0  0  0
   -2.8205    3.3920    3.2519 H   0  0  0  0  0  0  0  0  0  0  0  0
  1  2  1  0
  2  3  2  0
  3  4  1  0
  4  5  2  0
  5  6  1  0
  6  7  1  0
  7  8  1  0
  8  9  2  0
  9 10  1  0
 10 11  1  0
 11 12  2  0
 11 13  1  0
 13 14  1  0
 14 15  1  0
 15 16  1  0
 16 17  1  0
 17 18  1  0
 18 19  1  0
 19 20  2  0
 19 21  2  0
 19 22  1  0
 22 23  2  0
 23 24  1  0
 24 25  2  0
 25 26  1  0
 26 27  2  0
 18 28  1  0
 28 29  1  0
 14 30  2  0
 30 31  1  0
  5 32  1  0
 32 33  2  0
 33  2  1  0
 31  7  1  0
 31 10  2  0
 29 15  1  0
 27 22  1  0
  1 34  1  0
  1 35  1  0
  1 36  1  0
  3 37  1  0
  4 38  1  0
  6 39  1  0
  6 40  1  0
 13 41  1  0
 15 42  1  0
 16 43  1  0
 16 44  1  0
 17 45  1  0
 17 46  1  0
 23 47  1  0
 24 48  1  0
 25 49  1  0
 26 50  1  0
 27 51  1  0
 28 52  1  0
 28 53  1  0
 29 54  1  0
 29 55  1  0
 32 56  1  0
 33 57  1  0
M  END
$$$$
