
     RDKit          3D

 45 46  0  0  0  0  0  0  0  0999 V2000
    7.0829   -2.7496   -0.1567 C   0  0  0  0  0  0  0  0  0  0  0  0
    6.9848   -1.4547    0.4221 O   0  0  0  0  0  0  0  0  0  0  0  0
    5.7629   -0.8435    0.3804 C   0  0  0  0  0  0  0  0  0  0  0  0
    4.6040   -1.3653   -0.1950 C   0  0  0  0  0  0  0  0  0  0  0  0
    3.4071   -0.6345   -0.1681 C   0  0  0  0  0  0  0  0  0  0  0  0
    3.3550    0.6257    0.4435 C   0  0  0  0  0  0  0  0  0  0  0  0
    2.1026    1.4286    0.5040 C   0  0  0  0  0  0  0  0  0  0  0  0
    2.1789    2.6417    0.6925 O   0  0  0  0  0  0  0  0  0  0  0  0
    0.7895    0.7394    0.3856 C   0  0  0  0  0  0  0  0  0  0  0  0
   -0.3294    1.4721    0.2755 C   0  0  0  0  0  0  0  0  0  0  0  0
   -1.6698    0.8787    0.1949 C   0  0  0  0  0  0  0  0  0  0  0  0
   -1.9626   -0.1497   -0.7138 C   0  0  0  0  0  0  0  0  0  0  0  0
   -3.2501   -0.6867   -0.7870 C   0  0  0  0  0  0  0  0  0  0  0  0
   -3.6337   -1.6929   -1.6357 O   0  0  0  0  0  0  0  0  0  0  0  0
   -2.6278   -2.3037   -2.4306 C   0  0  0  0  0  0  0  0  0  0  0  0
   -4.2512   -0.1640    0.0496 C   0  0  0  0  0  0  0  0  0  0  0  0
   -5.5122   -0.7198    0.0167 O   0  0  0  0  0  0  0  0  0  0  0  0
   -6.3276   -0.0127   -0.9161 C   0  0  0  0  0  0  0  0  0  0  0  0
   -3.9744    0.8615    0.9697 C   0  0  0  0  0  0  0  0  0  0  0  0
   -5.0236    1.2815    1.7459 O   0  0  0  0  0  0  0  0  0  0  0  0
   -4.7394    2.2057    2.7871 C   0  0  0  0  0  0  0  0  0  0  0  0
   -2.6814    1.3868    1.0227 C   0  0  0  0  0  0  0  0  0  0  0  0
    4.5332    1.1517    0.9939 C   0  0  0  0  0  0  0  0  0  0  0  0
    4.5996    2.3899    1.5783 O   0  0  0  0  0  0  0  0  0  0  0  0
    5.7203    0.4201    0.9714 C   0  0  0  0  0  0  0  0  0  0  0  0
    6.8715   -2.7183   -1.2306 H   0  0  0  0  0  0  0  0  0  0  0  0
    8.1133   -3.0956   -0.0300 H   0  0  0  0  0  0  0  0  0  0  0  0
    6.4269   -3.4616    0.3551 H   0  0  0  0  0  0  0  0  0  0  0  0
    4.5980   -2.3371   -0.6790 H   0  0  0  0  0  0  0  0  0  0  0  0
    2.5380   -1.0692   -0.6526 H   0  0  0  0  0  0  0  0  0  0  0  0
    0.7544   -0.3407    0.4355 H   0  0  0  0  0  0  0  0  0  0  0  0
   -0.2880    2.5604    0.2740 H   0  0  0  0  0  0  0  0  0  0  0  0
   -1.1737   -0.5079   -1.3661 H   0  0  0  0  0  0  0  0  0  0  0  0
   -1.8443   -2.7476   -1.8075 H   0  0  0  0  0  0  0  0  0  0  0  0
   -3.0964   -3.1115   -3.0009 H   0  0  0  0  0  0  0  0  0  0  0  0
   -2.2073   -1.5914   -3.1478 H   0  0  0  0  0  0  0  0  0  0  0  0
   -5.9190   -0.0731   -1.9307 H   0  0  0  0  0  0  0  0  0  0  0  0
   -7.3147   -0.4846   -0.9220 H   0  0  0  0  0  0  0  0  0  0  0  0
   -6.4566    1.0346   -0.6220 H   0  0  0  0  0  0  0  0  0  0  0  0
   -5.6633    2.3696    3.3500 H   0  0  0  0  0  0  0  0  0  0  0  0
   -4.4236    3.1712    2.3789 H   0  0  0  0  0  0  0  0  0  0  0  0
   -3.9932    1.8056    3.4817 H   0  0  0  0  0  0  0  0  0  0  0  0
   -2.4327    2.1904    1.7092 H   0  0  0  0  0  0  0  0  0  0  0  0
    3.7534    2.8577    1.3969 H   0  0  0  0  0  0  0  0  0  0  0  0
    6.6197    0.8429    1.4126 H   0  0  0  0  0  0  0  0  0  0  0  0
  1  2  1  0
  2  3  1  0
  3  4  2  0
  4  5  1  0
  5  6  2  0
  6  7  1  0
  7  8  2  0
  7  9  1  0
  9 10  2  0
 10 11  1  0
 11 12  2  0
 12 13  1  0
 13 14  1  0
 14 15  1  0
 13 16  2  0
 16 17  1  0
 17 18  1  0
 16 19  1  0
 19 20  1  0
 20 21  1  0
 19 22  2  0
  6 23  1  0
 23 24  1  0
 23 25  2  0
 25  3  1  0
 22 11  1  0
  1 26  1  0
  1 27  1  0
  1 28  1  0
  4 29  1  0
  5 30  1  0
  9 31  1  0
 10 32  1  0
 12 33  1  0
 15 34  1  0
 15 35  1  0
 15 36  1  0
 18 37  1  0
 18 38  1  0
 18 39  1  0
 21 40  1  0
 21 41  1  0
 21 42  1  0
 22 43  1  0
 24 44  1  0
 25 45  1  0
M  END
$$$$
