
     RDKit          3D

 35 37  0  0  0  0  0  0  0  0999 V2000
    7.3473    0.0827   -1.7209 C   0  0  0  0  0  0  0  0  0  0  0  0
    5.9624   -0.0875   -1.4158 O   0  0  0  0  0  0  0  0  0  0  0  0
    5.4297    0.9269   -0.6902 C   0  0  0  0  0  0  0  0  0  0  0  0
    6.0282    1.9163   -0.2977 O   0  0  0  0  0  0  0  0  0  0  0  0
    3.9867    0.6804   -0.4201 C   0  0  0  0  0  0  0  0  0  0  0  0
    3.3229   -0.4711   -0.8618 C   0  0  0  0  0  0  0  0  0  0  0  0
    1.9647   -0.6542   -0.5793 C   0  0  0  0  0  0  0  0  0  0  0  0
    1.2532    0.3146    0.1384 C   0  0  0  0  0  0  0  0  0  0  0  0
   -0.1688    0.1401    0.4601 C   0  0  0  0  0  0  0  0  0  0  0  0
   -1.1745    0.0552   -0.4360 C   0  0  0  0  0  0  0  0  0  0  0  0
   -0.9597    0.1099   -1.8461 C   0  0  0  0  0  0  0  0  0  0  0  0
   -0.7696    0.1664   -2.9904 N   0  0  0  0  0  0  0  0  0  0  0  0
   -2.5123   -0.1240    0.0319 C   0  0  0  0  0  0  0  0  0  0  0  0
   -3.2893   -1.1541   -0.2385 N   0  0  0  0  0  0  0  0  0  0  0  0
   -4.5330   -1.0055    0.3515 C   0  0  0  0  0  0  0  0  0  0  0  0
   -5.6009   -1.9218    0.2697 C   0  0  0  0  0  0  0  0  0  0  0  0
   -6.8080   -1.6427    0.9187 C   0  0  0  0  0  0  0  0  0  0  0  0
   -6.9616   -0.4657    1.6443 C   0  0  0  0  0  0  0  0  0  0  0  0
   -5.9171    0.4592    1.7393 C   0  0  0  0  0  0  0  0  0  0  0  0
   -4.7094    0.1677    1.0833 C   0  0  0  0  0  0  0  0  0  0  0  0
   -3.2633    1.0939    1.0115 S   0  0  0  0  0  0  0  0  0  0  0  0
    1.9186    1.4595    0.5894 C   0  0  0  0  0  0  0  0  0  0  0  0
    3.2762    1.6430    0.3091 C   0  0  0  0  0  0  0  0  0  0  0  0
    7.9403    0.1215   -0.8018 H   0  0  0  0  0  0  0  0  0  0  0  0
    7.6734   -0.7809   -2.3070 H   0  0  0  0  0  0  0  0  0  0  0  0
    7.4999    0.9857   -2.3203 H   0  0  0  0  0  0  0  0  0  0  0  0
    3.8478   -1.2370   -1.4281 H   0  0  0  0  0  0  0  0  0  0  0  0
    1.4751   -1.5620   -0.9277 H   0  0  0  0  0  0  0  0  0  0  0  0
   -0.3727    0.0891    1.5290 H   0  0  0  0  0  0  0  0  0  0  0  0
   -5.4776   -2.8383   -0.2991 H   0  0  0  0  0  0  0  0  0  0  0  0
   -7.6301   -2.3518    0.8523 H   0  0  0  0  0  0  0  0  0  0  0  0
   -7.9065   -0.2601    2.1433 H   0  0  0  0  0  0  0  0  0  0  0  0
   -6.0399    1.3784    2.3043 H   0  0  0  0  0  0  0  0  0  0  0  0
    1.3900    2.2234    1.1561 H   0  0  0  0  0  0  0  0  0  0  0  0
    3.7778    2.5429    0.6616 H   0  0  0  0  0  0  0  0  0  0  0  0
  1  2  1  0
  2  3  1  0
  3  4  2  0
  3  5  1  0
  5  6  2  0
  6  7  1  0
  7  8  2  0
  8  9  1  0
  9 10  2  3
 10 11  1  0
 11 12  3  0
 10 13  1  0
 13 14  2  0
 14 15  1  0
 15 16  2  0
 16 17  1  0
 17 18  2  0
 18 19  1  0
 19 20  2  0
 20 21  1  0
  8 22  1  0
 22 23  2  0
 23  5  1  0
 21 13  1  0
 20 15  1  0
  1 24  1  0
  1 25  1  0
  1 26  1  0
  6 27  1  0
  7 28  1  0
  9 29  1  0
 16 30  1  0
 17 31  1  0
 18 32  1  0
 19 33  1  0
 22 34  1  0
 23 35  1  0
M  END
$$$$
