
     RDKit          3D

 19 19  0  0  0  0  0  0  0  0999 V2000
   -2.8709    0.6483   -1.2680 C   0  0  0  0  0  0  0  0  0  0  0  0
   -1.8049   -0.4307   -1.4032 C   0  0  0  0  0  0  0  0  0  0  0  0
   -1.5916   -1.2544   -0.1315 C   0  0  0  0  0  0  0  0  0  0  0  0
   -0.9563   -0.2946    1.2787 S   0  0  0  0  0  0  0  0  0  0  0  0
    0.7170   -0.0663    0.8244 C   0  0  0  0  0  0  0  0  0  0  0  0
    1.2884   -0.7130   -0.1671 N   0  0  0  0  0  0  0  0  0  0  0  0
    2.6133   -0.3530   -0.3225 N   0  0  0  0  0  0  0  0  0  0  0  0
    2.9954    0.5429    0.5595 C   0  0  0  0  0  0  0  0  0  0  0  0
    4.2385    1.0568    0.6367 N   0  0  0  0  0  0  0  0  0  0  0  0
    1.7584    1.0107    1.6554 S   0  0  0  0  0  0  0  0  0  0  0  0
   -3.8201    0.2221   -0.9281 H   0  0  0  0  0  0  0  0  0  0  0  0
   -3.0441    1.1264   -2.2376 H   0  0  0  0  0  0  0  0  0  0  0  0
   -2.5699    1.4297   -0.5641 H   0  0  0  0  0  0  0  0  0  0  0  0
   -0.8656    0.0244   -1.7367 H   0  0  0  0  0  0  0  0  0  0  0  0
   -2.1148   -1.1158   -2.2021 H   0  0  0  0  0  0  0  0  0  0  0  0
   -0.9200   -2.0954   -0.3352 H   0  0  0  0  0  0  0  0  0  0  0  0
   -2.5474   -1.6907    0.1793 H   0  0  0  0  0  0  0  0  0  0  0  0
    4.9576    0.5260    0.1560 H   0  0  0  0  0  0  0  0  0  0  0  0
    4.5370    1.4267    1.5314 H   0  0  0  0  0  0  0  0  0  0  0  0
  1  2  1  0
  2  3  1  0
  3  4  1  0
  4  5  1  0
  5  6  2  0
  6  7  1  0
  7  8  2  0
  8  9  1  0
  8 10  1  0
 10  5  1  0
  1 11  1  0
  1 12  1  0
  1 13  1  0
  2 14  1  0
  2 15  1  0
  3 16  1  0
  3 17  1  0
  9 18  1  0
  9 19  1  0
M  END
$$$$
