
     RDKit          3D

 64 69  0  0  0  0  0  0  0  0999 V2000
    6.4040   -1.4194    0.2748 C   0  0  0  0  0  0  0  0  0  0  0  0
    6.0653   -0.0384    0.1630 O   0  0  0  0  0  0  0  0  0  0  0  0
    4.7283    0.1918    0.3496 C   0  0  0  0  0  0  0  0  0  0  0  0
    3.7565   -0.4224   -0.4411 C   0  0  0  0  0  0  0  0  0  0  0  0
    2.3832   -0.1752   -0.2370 C   0  0  0  0  0  0  0  0  0  0  0  0
    1.9958    0.7572    0.7371 C   0  0  0  0  0  0  0  0  0  0  0  0
    2.9879    1.3849    1.5179 C   0  0  0  0  0  0  0  0  0  0  0  0
    4.3383    1.1172    1.3121 C   0  0  0  0  0  0  0  0  0  0  0  0
    5.2579    1.7277    2.1225 O   0  0  0  0  0  0  0  0  0  0  0  0
    5.7363    2.9217    1.5008 C   0  0  0  0  0  0  0  0  0  0  0  0
    0.6184    1.2798    0.9274 C   0  0  0  0  0  0  0  0  0  0  0  0
    0.4965    2.4106    1.4006 O   0  0  0  0  0  0  0  0  0  0  0  0
   -0.4805    0.5410    0.5491 N   0  0  0  0  0  0  0  0  0  0  0  0
   -1.8123    1.1573    0.5492 C   0  0  0  0  0  0  0  0  0  0  0  0
   -2.1701    1.8029   -0.7754 C   0  0  0  0  0  0  0  0  0  0  0  0
   -1.3404    2.7768   -1.3585 C   0  0  0  0  0  0  0  0  0  0  0  0
   -1.6592    3.3682   -2.5899 C   0  0  0  0  0  0  0  0  0  0  0  0
   -0.7290    4.3703   -3.2067 C   0  0  0  0  0  0  0  0  0  0  0  0
   -2.8207    2.9689   -3.2550 C   0  0  0  0  0  0  0  0  0  0  0  0
   -3.6678    2.0249   -2.6770 C   0  0  0  0  0  0  0  0  0  0  0  0
   -3.3568    1.4655   -1.4373 C   0  0  0  0  0  0  0  0  0  0  0  0
   -4.2592    0.5529   -0.9608 O   0  0  0  0  0  0  0  0  0  0  0  0
   -4.1605    0.3095    0.4410 C   0  0  0  0  0  0  0  0  0  0  0  0
   -2.7437   -0.0012    0.8893 C   0  0  0  0  0  0  0  0  0  0  0  0
   -2.0832   -1.1993    0.1638 C   0  0  0  0  0  0  0  0  0  0  0  0
   -2.6168   -2.5685    0.5644 C   0  0  0  0  0  0  0  0  0  0  0  0
   -3.0216   -2.8881    1.8701 C   0  0  0  0  0  0  0  0  0  0  0  0
   -3.5045   -4.1629    2.1812 C   0  0  0  0  0  0  0  0  0  0  0  0
   -3.5909   -5.1398    1.1941 C   0  0  0  0  0  0  0  0  0  0  0  0
   -3.1926   -4.8438   -0.1055 C   0  0  0  0  0  0  0  0  0  0  0  0
   -2.7100   -3.5708   -0.4160 C   0  0  0  0  0  0  0  0  0  0  0  0
   -0.5453   -0.9245    0.3662 C   0  0  0  0  0  0  0  0  0  0  0  0
    0.0182   -1.6803    1.5839 C   0  0  0  0  0  0  0  0  0  0  0  0
    0.2271   -1.2867   -0.9147 C   0  0  0  0  0  0  0  0  0  0  0  0
   -0.2307   -2.0340   -1.7844 O   0  0  0  0  0  0  0  0  0  0  0  0
    1.5319   -0.9197   -1.0661 N   0  0  0  0  0  0  0  0  0  0  0  0
    5.8990   -1.8964    1.1227 H   0  0  0  0  0  0  0  0  0  0  0  0
    7.4828   -1.4864    0.4435 H   0  0  0  0  0  0  0  0  0  0  0  0
    6.1782   -1.9491   -0.6557 H   0  0  0  0  0  0  0  0  0  0  0  0
    4.0743   -1.1163   -1.2158 H   0  0  0  0  0  0  0  0  0  0  0  0
    2.7106    2.1127    2.2790 H   0  0  0  0  0  0  0  0  0  0  0  0
    6.1869    2.7179    0.5227 H   0  0  0  0  0  0  0  0  0  0  0  0
    6.5097    3.3504    2.1459 H   0  0  0  0  0  0  0  0  0  0  0  0
    4.9309    3.6582    1.4011 H   0  0  0  0  0  0  0  0  0  0  0  0
   -1.8803    1.9289    1.3263 H   0  0  0  0  0  0  0  0  0  0  0  0
   -0.4304    3.0887   -0.8504 H   0  0  0  0  0  0  0  0  0  0  0  0
   -0.3144    5.0348   -2.4409 H   0  0  0  0  0  0  0  0  0  0  0  0
    0.0915    3.8545   -3.7146 H   0  0  0  0  0  0  0  0  0  0  0  0
   -1.2519    4.9986   -3.9352 H   0  0  0  0  0  0  0  0  0  0  0  0
   -3.0790    3.3957   -4.2212 H   0  0  0  0  0  0  0  0  0  0  0  0
   -4.5777    1.7272   -3.1915 H   0  0  0  0  0  0  0  0  0  0  0  0
   -4.5593    1.1793    0.9788 H   0  0  0  0  0  0  0  0  0  0  0  0
   -4.8232   -0.5317    0.6703 H   0  0  0  0  0  0  0  0  0  0  0  0
   -2.7273   -0.1475    1.9761 H   0  0  0  0  0  0  0  0  0  0  0  0
   -2.3135   -1.0900   -0.9056 H   0  0  0  0  0  0  0  0  0  0  0  0
   -2.9625   -2.1630    2.6765 H   0  0  0  0  0  0  0  0  0  0  0  0
   -3.8127   -4.3913    3.1983 H   0  0  0  0  0  0  0  0  0  0  0  0
   -3.9682   -6.1298    1.4355 H   0  0  0  0  0  0  0  0  0  0  0  0
   -3.2575   -5.6010   -0.8823 H   0  0  0  0  0  0  0  0  0  0  0  0
   -2.4084   -3.3662   -1.4428 H   0  0  0  0  0  0  0  0  0  0  0  0
   -0.0433   -2.7650    1.4417 H   0  0  0  0  0  0  0  0  0  0  0  0
    1.0731   -1.4727    1.7751 H   0  0  0  0  0  0  0  0  0  0  0  0
   -0.5185   -1.4126    2.5006 H   0  0  0  0  0  0  0  0  0  0  0  0
    1.9417   -1.3821   -1.8704 H   0  0  0  0  0  0  0  0  0  0  0  0
  1  2  1  0
  2  3  1  0
  3  4  2  0
  4  5  1  0
  5  6  2  0
  6  7  1  0
  7  8  2  0
  8  9  1  0
  9 10  1  0
  6 11  1  0
 11 12  2  0
 11 13  1  0
 13 14  1  0
 14 15  1  0
 15 16  2  0
 16 17  1  0
 17 18  1  0
 17 19  2  0
 19 20  1  0
 20 21  2  0
 21 22  1  0
 22 23  1  0
 23 24  1  0
 24 25  1  0
 25 26  1  0
 26 27  2  0
 27 28  1  0
 28 29  2  0
 29 30  1  0
 30 31  2  0
 25 32  1  0
 32 33  1  0
 32 34  1  0
 34 35  2  0
 34 36  1  0
  8  3  1  0
 32 13  1  0
 36  5  1  0
 24 14  1  0
 31 26  1  0
 21 15  1  0
  1 37  1  0
  1 38  1  0
  1 39  1  0
  4 40  1  0
  7 41  1  0
 10 42  1  0
 10 43  1  0
 10 44  1  0
 14 45  1  0
 16 46  1  0
 18 47  1  0
 18 48  1  0
 18 49  1  0
 19 50  1  0
 20 51  1  0
 23 52  1  0
 23 53  1  0
 24 54  1  0
 25 55  1  0
 27 56  1  0
 28 57  1  0
 29 58  1  0
 30 59  1  0
 31 60  1  0
 33 61  1  0
 33 62  1  0
 33 63  1  0
 36 64  1  0
M  END
$$$$
