
     RDKit          3D

 55 58  0  0  0  0  0  0  0  0999 V2000
    4.1721    0.4783    1.4693 C   0  0  0  0  0  0  0  0  0  0  0  0
    3.2245   -0.4747    0.9517 N   0  0  0  0  0  0  0  0  0  0  0  0
    2.9463   -0.7335   -0.3729 C   0  0  0  0  0  0  0  0  0  0  0  0
    3.6053   -0.0788   -1.5438 C   0  0  0  0  0  0  0  0  0  0  0  0
    5.0828   -0.3847   -1.6657 C   0  0  0  0  0  0  0  0  0  0  0  0
    6.0152    0.6557   -1.7963 C   0  0  0  0  0  0  0  0  0  0  0  0
    7.3778    0.3755   -1.9171 C   0  0  0  0  0  0  0  0  0  0  0  0
    7.8229   -0.9450   -1.9171 C   0  0  0  0  0  0  0  0  0  0  0  0
    6.9059   -1.9878   -1.8038 C   0  0  0  0  0  0  0  0  0  0  0  0
    5.5431   -1.7108   -1.6842 C   0  0  0  0  0  0  0  0  0  0  0  0
    2.0066   -1.6595   -0.4371 N   0  0  0  0  0  0  0  0  0  0  0  0
    1.6905   -2.0380    0.8400 N   0  0  0  0  0  0  0  0  0  0  0  0
    2.4210   -1.3214    1.6622 C   0  0  0  0  0  0  0  0  0  0  0  0
    2.3635   -1.4006    3.3865 S   0  0  0  0  0  0  0  0  0  0  0  0
    0.8305   -2.3469    3.6364 C   0  0  0  0  0  0  0  0  0  0  0  0
   -0.3927   -1.4738    3.3894 C   0  0  0  0  0  0  0  0  0  0  0  0
   -0.9414   -0.8882    4.3205 O   0  0  0  0  0  0  0  0  0  0  0  0
   -0.7739   -1.4316    2.0591 N   0  0  0  0  0  0  0  0  0  0  0  0
   -1.8616   -0.7417    1.4918 C   0  0  0  0  0  0  0  0  0  0  0  0
   -2.8369   -0.0759    2.2237 C   0  0  0  0  0  0  0  0  0  0  0  0
   -3.8901    0.5845    1.5693 C   0  0  0  0  0  0  0  0  0  0  0  0
   -4.0129    0.6021    0.1719 C   0  0  0  0  0  0  0  0  0  0  0  0
   -5.0523    1.2547   -0.4646 N   0  0  0  0  0  0  0  0  0  0  0  0
   -5.8548    2.2891    0.2073 C   0  0  0  0  0  0  0  0  0  0  0  0
   -6.4596    3.2434   -0.8361 C   0  0  0  0  0  0  0  0  0  0  0  0
   -7.3083    2.5989   -1.7970 O   0  0  0  0  0  0  0  0  0  0  0  0
   -6.9480    1.2319   -2.0417 C   0  0  0  0  0  0  0  0  0  0  0  0
   -5.4526    0.9304   -1.8426 C   0  0  0  0  0  0  0  0  0  0  0  0
   -3.0170   -0.0791   -0.5425 C   0  0  0  0  0  0  0  0  0  0  0  0
   -1.9600   -0.7401    0.1004 C   0  0  0  0  0  0  0  0  0  0  0  0
    4.3194    1.2845    0.7485 H   0  0  0  0  0  0  0  0  0  0  0  0
    3.7888    0.9188    2.3923 H   0  0  0  0  0  0  0  0  0  0  0  0
    5.1153   -0.0416    1.6560 H   0  0  0  0  0  0  0  0  0  0  0  0
    3.4411    1.0040   -1.4816 H   0  0  0  0  0  0  0  0  0  0  0  0
    3.1145   -0.4074   -2.4687 H   0  0  0  0  0  0  0  0  0  0  0  0
    5.6894    1.6937   -1.8095 H   0  0  0  0  0  0  0  0  0  0  0  0
    8.0930    1.1879   -2.0175 H   0  0  0  0  0  0  0  0  0  0  0  0
    8.8835   -1.1627   -2.0146 H   0  0  0  0  0  0  0  0  0  0  0  0
    7.2497   -3.0195   -1.8147 H   0  0  0  0  0  0  0  0  0  0  0  0
    4.8403   -2.5396   -1.6054 H   0  0  0  0  0  0  0  0  0  0  0  0
    0.8026   -3.2435    3.0089 H   0  0  0  0  0  0  0  0  0  0  0  0
    0.7974   -2.6887    4.6763 H   0  0  0  0  0  0  0  0  0  0  0  0
   -0.1319   -1.8618    1.3913 H   0  0  0  0  0  0  0  0  0  0  0  0
   -2.8206   -0.0535    3.3085 H   0  0  0  0  0  0  0  0  0  0  0  0
   -4.6338    1.0690    2.1960 H   0  0  0  0  0  0  0  0  0  0  0  0
   -6.6556    1.8055    0.7782 H   0  0  0  0  0  0  0  0  0  0  0  0
   -5.2409    2.8845    0.8924 H   0  0  0  0  0  0  0  0  0  0  0  0
   -5.6622    3.7513   -1.3910 H   0  0  0  0  0  0  0  0  0  0  0  0
   -7.0535    4.0168   -0.3393 H   0  0  0  0  0  0  0  0  0  0  0  0
   -7.2465    0.9925   -3.0675 H   0  0  0  0  0  0  0  0  0  0  0  0
   -7.5520    0.6072   -1.3726 H   0  0  0  0  0  0  0  0  0  0  0  0
   -5.2915   -0.1302   -2.0666 H   0  0  0  0  0  0  0  0  0  0  0  0
   -4.8551    1.5326   -2.5361 H   0  0  0  0  0  0  0  0  0  0  0  0
   -3.0254   -0.0902   -1.6284 H   0  0  0  0  0  0  0  0  0  0  0  0
   -1.2116   -1.2422   -0.5095 H   0  0  0  0  0  0  0  0  0  0  0  0
  1  2  1  0
  2  3  1  0
  3  4  1  0
  4  5  1  0
  5  6  2  0
  6  7  1  0
  7  8  2  0
  8  9  1  0
  9 10  2  0
  3 11  2  0
 11 12  1  0
 12 13  2  0
 13 14  1  0
 14 15  1  0
 15 16  1  0
 16 17  2  0
 16 18  1  0
 18 19  1  0
 19 20  2  0
 20 21  1  0
 21 22  2  0
 22 23  1  0
 23 24  1  0
 24 25  1  0
 25 26  1  0
 26 27  1  0
 27 28  1  0
 22 29  1  0
 29 30  2  0
 13  2  1  0
 30 19  1  0
 10  5  1  0
 28 23  1  0
  1 31  1  0
  1 32  1  0
  1 33  1  0
  4 34  1  0
  4 35  1  0
  6 36  1  0
  7 37  1  0
  8 38  1  0
  9 39  1  0
 10 40  1  0
 15 41  1  0
 15 42  1  0
 18 43  1  0
 20 44  1  0
 21 45  1  0
 24 46  1  0
 24 47  1  0
 25 48  1  0
 25 49  1  0
 27 50  1  0
 27 51  1  0
 28 52  1  0
 28 53  1  0
 29 54  1  0
 30 55  1  0
M  END
$$$$
