
     RDKit          3D

 33 35  0  0  0  0  0  0  0  0999 V2000
    3.7271    1.1360    2.0056 O   0  0  0  0  0  0  0  0  0  0  0  0
    4.0430    0.2242    1.0313 C   0  0  0  0  0  0  0  0  0  0  0  0
    5.3841   -0.0810    0.7865 C   0  0  0  0  0  0  0  0  0  0  0  0
    5.7127   -1.0115   -0.1982 C   0  0  0  0  0  0  0  0  0  0  0  0
    4.7046   -1.6368   -0.9285 C   0  0  0  0  0  0  0  0  0  0  0  0
    3.3639   -1.3283   -0.6806 C   0  0  0  0  0  0  0  0  0  0  0  0
    3.0127   -0.3813    0.2931 C   0  0  0  0  0  0  0  0  0  0  0  0
    1.6022   -0.0677    0.5863 C   0  0  0  0  0  0  0  0  0  0  0  0
    0.6309   -0.0071   -0.3401 C   0  0  0  0  0  0  0  0  0  0  0  0
   -0.7767    0.3082   -0.0719 C   0  0  0  0  0  0  0  0  0  0  0  0
   -1.1858    1.1305    0.9710 C   0  0  0  0  0  0  0  0  0  0  0  0
   -2.5445    1.3947    1.1251 C   0  0  0  0  0  0  0  0  0  0  0  0
   -3.4652    0.8406    0.2301 C   0  0  0  0  0  0  0  0  0  0  0  0
   -4.8503    1.0717    0.3370 C   0  0  0  0  0  0  0  0  0  0  0  0
   -5.7359    0.5022   -0.5798 C   0  0  0  0  0  0  0  0  0  0  0  0
   -5.2461   -0.2986   -1.6061 C   0  0  0  0  0  0  0  0  0  0  0  0
   -3.8751   -0.5181   -1.6998 C   0  0  0  0  0  0  0  0  0  0  0  0
   -3.4159   -1.3142   -2.7225 O   0  0  0  0  0  0  0  0  0  0  0  0
   -2.9610    0.0319   -0.8053 C   0  0  0  0  0  0  0  0  0  0  0  0
   -1.6450   -0.2267   -0.9631 N   0  0  0  0  0  0  0  0  0  0  0  0
    4.5504    1.4782    2.3895 H   0  0  0  0  0  0  0  0  0  0  0  0
    6.1812    0.3912    1.3521 H   0  0  0  0  0  0  0  0  0  0  0  0
    6.7541   -1.2548   -0.3926 H   0  0  0  0  0  0  0  0  0  0  0  0
    4.9585   -2.3712   -1.6890 H   0  0  0  0  0  0  0  0  0  0  0  0
    2.5968   -1.8474   -1.2504 H   0  0  0  0  0  0  0  0  0  0  0  0
    1.3935    0.1339    1.6340 H   0  0  0  0  0  0  0  0  0  0  0  0
    0.8434   -0.2092   -1.3862 H   0  0  0  0  0  0  0  0  0  0  0  0
   -0.4702    1.5760    1.6537 H   0  0  0  0  0  0  0  0  0  0  0  0
   -2.8747    2.0348    1.9390 H   0  0  0  0  0  0  0  0  0  0  0  0
   -5.2446    1.6967    1.1353 H   0  0  0  0  0  0  0  0  0  0  0  0
   -6.8042    0.6831   -0.4932 H   0  0  0  0  0  0  0  0  0  0  0  0
   -5.9197   -0.7501   -2.3283 H   0  0  0  0  0  0  0  0  0  0  0  0
   -2.4441   -1.3299   -2.5881 H   0  0  0  0  0  0  0  0  0  0  0  0
  1  2  1  0
  2  3  2  0
  3  4  1  0
  4  5  2  0
  5  6  1  0
  6  7  2  0
  7  8  1  0
  8  9  2  0
  9 10  1  0
 10 11  2  0
 11 12  1  0
 12 13  2  0
 13 14  1  0
 14 15  2  0
 15 16  1  0
 16 17  2  0
 17 18  1  0
 17 19  1  0
 19 20  2  0
  7  2  1  0
 20 10  1  0
 19 13  1  0
  1 21  1  0
  3 22  1  0
  4 23  1  0
  5 24  1  0
  6 25  1  0
  8 26  1  0
  9 27  1  0
 11 28  1  0
 12 29  1  0
 14 30  1  0
 15 31  1  0
 16 32  1  0
 18 33  1  0
M  END
$$$$
