
     RDKit          3D

 46 49  0  0  0  0  0  0  0  0999 V2000
    3.6242   -1.6782    0.6277 O   0  0  0  0  0  0  0  0  0  0  0  0
    2.7850   -1.4641    1.4992 C   0  0  0  0  0  0  0  0  0  0  0  0
    2.2967   -2.5872    2.4052 C   0  0  0  0  0  0  0  0  0  0  0  0
    0.7885   -3.3503    1.7345 S   0  0  0  0  0  0  0  0  0  0  0  0
   -0.3409   -2.0639    1.9661 C   0  0  0  0  0  0  0  0  0  0  0  0
   -0.2852   -1.1776    2.9328 N   0  0  0  0  0  0  0  0  0  0  0  0
   -1.3152   -0.2946    2.7469 N   0  0  0  0  0  0  0  0  0  0  0  0
   -1.9899   -0.6628    1.6722 C   0  0  0  0  0  0  0  0  0  0  0  0
   -3.2293   -0.0022    1.1600 C   0  0  0  0  0  0  0  0  0  0  0  0
   -3.0320    0.7429   -0.1288 C   0  0  0  0  0  0  0  0  0  0  0  0
   -2.0326    1.6347   -0.4694 C   0  0  0  0  0  0  0  0  0  0  0  0
   -2.1827    2.1441   -1.7907 C   0  0  0  0  0  0  0  0  0  0  0  0
   -3.3037    1.6415   -2.4115 C   0  0  0  0  0  0  0  0  0  0  0  0
   -4.1668    0.5641   -1.4035 S   0  0  0  0  0  0  0  0  0  0  0  0
   -1.3764   -1.7699    1.1215 N   0  0  0  0  0  0  0  0  0  0  0  0
   -1.7358   -2.4579   -0.1048 C   0  0  0  0  0  0  0  0  0  0  0  0
   -1.0108   -1.9183   -1.2865 C   0  0  0  0  0  0  0  0  0  0  0  0
   -1.3428   -1.8074   -2.6221 C   0  0  0  0  0  0  0  0  0  0  0  0
   -0.2275   -1.2181   -3.2657 C   0  0  0  0  0  0  0  0  0  0  0  0
    0.7170   -1.0157   -2.2891 C   0  0  0  0  0  0  0  0  0  0  0  0
    0.2508   -1.4369   -1.0881 O   0  0  0  0  0  0  0  0  0  0  0  0
    2.1912   -0.2424    1.7754 N   0  0  0  0  0  0  0  0  0  0  0  0
    2.3666    0.9764    1.0911 C   0  0  0  0  0  0  0  0  0  0  0  0
    3.2963    1.1747    0.0691 C   0  0  0  0  0  0  0  0  0  0  0  0
    3.3811    2.4153   -0.5676 C   0  0  0  0  0  0  0  0  0  0  0  0
    4.5198    2.6467   -1.8384 Cl  0  0  0  0  0  0  0  0  0  0  0  0
    2.5536    3.4696   -0.1933 C   0  0  0  0  0  0  0  0  0  0  0  0
    1.6336    3.2729    0.8297 C   0  0  0  0  0  0  0  0  0  0  0  0
    0.5912    4.5601    1.2963 Cl  0  0  0  0  0  0  0  0  0  0  0  0
    1.5383    2.0389    1.4734 C   0  0  0  0  0  0  0  0  0  0  0  0
    3.0824   -3.3485    2.4584 H   0  0  0  0  0  0  0  0  0  0  0  0
    2.1399   -2.2216    3.4248 H   0  0  0  0  0  0  0  0  0  0  0  0
   -4.0190   -0.7581    1.0671 H   0  0  0  0  0  0  0  0  0  0  0  0
   -3.5835    0.7130    1.9138 H   0  0  0  0  0  0  0  0  0  0  0  0
   -1.2221    1.9023    0.1968 H   0  0  0  0  0  0  0  0  0  0  0  0
   -1.5036    2.8455   -2.2598 H   0  0  0  0  0  0  0  0  0  0  0  0
   -3.6605    1.8583   -3.4089 H   0  0  0  0  0  0  0  0  0  0  0  0
   -2.8182   -2.3656   -0.2393 H   0  0  0  0  0  0  0  0  0  0  0  0
   -1.5269   -3.5251    0.0186 H   0  0  0  0  0  0  0  0  0  0  0  0
   -2.2755   -2.1094   -3.0780 H   0  0  0  0  0  0  0  0  0  0  0  0
   -0.1215   -0.9756   -4.3134 H   0  0  0  0  0  0  0  0  0  0  0  0
    1.7188   -0.6094   -2.2845 H   0  0  0  0  0  0  0  0  0  0  0  0
    1.4368   -0.2575    2.4640 H   0  0  0  0  0  0  0  0  0  0  0  0
    3.9624    0.3812   -0.2534 H   0  0  0  0  0  0  0  0  0  0  0  0
    2.6247    4.4300   -0.6945 H   0  0  0  0  0  0  0  0  0  0  0  0
    0.8034    1.9060    2.2652 H   0  0  0  0  0  0  0  0  0  0  0  0
  1  2  2  0
  2  3  1  0
  3  4  1  0
  4  5  1  0
  5  6  2  0
  6  7  1  0
  7  8  2  0
  8  9  1  0
  9 10  1  0
 10 11  2  0
 11 12  1  0
 12 13  2  0
 13 14  1  0
  8 15  1  0
 15 16  1  0
 16 17  1  0
 17 18  2  0
 18 19  1  0
 19 20  2  0
 20 21  1  0
  2 22  1  0
 22 23  1  0
 23 24  2  0
 24 25  1  0
 25 26  1  0
 25 27  2  0
 27 28  1  0
 28 29  1  0
 28 30  2  0
 15  5  1  0
 21 17  1  0
 30 23  1  0
 14 10  1  0
  3 31  1  0
  3 32  1  0
  9 33  1  0
  9 34  1  0
 11 35  1  0
 12 36  1  0
 13 37  1  0
 16 38  1  0
 16 39  1  0
 18 40  1  0
 19 41  1  0
 20 42  1  0
 22 43  1  0
 24 44  1  0
 27 45  1  0
 30 46  1  0
M  END
$$$$
