
     RDKit          3D

 40 42  0  0  0  0  0  0  0  0999 V2000
   -6.0615   -1.2234    1.5701 C   0  0  0  0  0  0  0  0  0  0  0  0
   -5.4305   -0.1426    0.6658 C   0  0  0  0  0  0  0  0  0  0  0  0
   -5.8232    1.2359    1.2284 C   0  0  0  0  0  0  0  0  0  0  0  0
   -6.0115   -0.3101   -0.7502 C   0  0  0  0  0  0  0  0  0  0  0  0
   -3.9175   -0.3036    0.6484 C   0  0  0  0  0  0  0  0  0  0  0  0
   -3.2516   -1.2273    1.3159 N   0  0  0  0  0  0  0  0  0  0  0  0
   -1.8893   -1.1428    1.1185 N   0  0  0  0  0  0  0  0  0  0  0  0
   -1.5648   -0.1601    0.3100 C   0  0  0  0  0  0  0  0  0  0  0  0
   -0.2652    0.1080   -0.0273 N   0  0  0  0  0  0  0  0  0  0  0  0
    0.2007    1.0999   -0.8576 C   0  0  0  0  0  0  0  0  0  0  0  0
   -0.4679    1.9380   -1.4558 O   0  0  0  0  0  0  0  0  0  0  0  0
    1.7266    1.0894   -0.9959 C   0  0  0  0  0  0  0  0  0  0  0  0
    2.3059    0.0331   -0.2324 O   0  0  0  0  0  0  0  0  0  0  0  0
    3.6694   -0.0842   -0.2744 C   0  0  0  0  0  0  0  0  0  0  0  0
    4.1846   -1.1478    0.4948 C   0  0  0  0  0  0  0  0  0  0  0  0
    5.5593   -1.3977    0.5546 C   0  0  0  0  0  0  0  0  0  0  0  0
    6.3878   -0.5672   -0.1645 C   0  0  0  0  0  0  0  0  0  0  0  0
    5.8907    0.4710   -0.9160 C   0  0  0  0  0  0  0  0  0  0  0  0
    4.5384    0.7410   -0.9935 C   0  0  0  0  0  0  0  0  0  0  0  0
    6.8732    1.1688   -1.5481 O   0  0  0  0  0  0  0  0  0  0  0  0
    8.0446    0.4500   -1.1069 C   0  0  0  0  0  0  0  0  0  0  0  0
    7.7425   -0.6536   -0.2282 O   0  0  0  0  0  0  0  0  0  0  0  0
   -2.8889    0.7346   -0.2706 S   0  0  0  0  0  0  0  0  0  0  0  0
   -5.6953   -1.1465    2.6008 H   0  0  0  0  0  0  0  0  0  0  0  0
   -5.8268   -2.2324    1.2106 H   0  0  0  0  0  0  0  0  0  0  0  0
   -7.1532   -1.1289    1.5996 H   0  0  0  0  0  0  0  0  0  0  0  0
   -5.3978    1.3936    2.2266 H   0  0  0  0  0  0  0  0  0  0  0  0
   -5.4728    2.0537    0.5886 H   0  0  0  0  0  0  0  0  0  0  0  0
   -6.9120    1.3332    1.3100 H   0  0  0  0  0  0  0  0  0  0  0  0
   -5.6669    0.4774   -1.4297 H   0  0  0  0  0  0  0  0  0  0  0  0
   -7.1068   -0.2670   -0.7350 H   0  0  0  0  0  0  0  0  0  0  0  0
   -5.7211   -1.2726   -1.1876 H   0  0  0  0  0  0  0  0  0  0  0  0
    0.4177   -0.5111    0.3957 H   0  0  0  0  0  0  0  0  0  0  0  0
    1.9511    0.9531   -2.0601 H   0  0  0  0  0  0  0  0  0  0  0  0
    2.0878    2.0591   -0.6345 H   0  0  0  0  0  0  0  0  0  0  0  0
    3.5041   -1.7874    1.0531 H   0  0  0  0  0  0  0  0  0  0  0  0
    5.9584   -2.2145    1.1449 H   0  0  0  0  0  0  0  0  0  0  0  0
    4.2053    1.5724   -1.6011 H   0  0  0  0  0  0  0  0  0  0  0  0
    8.7058    1.1474   -0.5799 H   0  0  0  0  0  0  0  0  0  0  0  0
    8.5708    0.0634   -1.9873 H   0  0  0  0  0  0  0  0  0  0  0  0
  1  2  1  0
  2  3  1  0
  2  4  1  0
  2  5  1  0
  5  6  2  0
  6  7  1  0
  7  8  2  0
  8  9  1  0
  9 10  1  0
 10 11  2  0
 10 12  1  0
 12 13  1  0
 13 14  1  0
 14 15  2  0
 15 16  1  0
 16 17  2  0
 17 18  1  0
 18 19  2  0
 18 20  1  0
 20 21  1  0
 21 22  1  0
  8 23  1  0
 23  5  1  0
 19 14  1  0
 22 17  1  0
  1 24  1  0
  1 25  1  0
  1 26  1  0
  3 27  1  0
  3 28  1  0
  3 29  1  0
  4 30  1  0
  4 31  1  0
  4 32  1  0
  9 33  1  0
 12 34  1  0
 12 35  1  0
 15 36  1  0
 16 37  1  0
 19 38  1  0
 21 39  1  0
 21 40  1  0
M  END
$$$$
