
     RDKit          3D

 37 39  0  0  0  0  0  0  0  0999 V2000
   -0.8617   -1.8458    2.2980 C   0  0  0  0  0  0  0  0  0  0  0  0
   -1.0784   -1.0226    1.1234 N   0  0  0  0  0  0  0  0  0  0  0  0
   -0.1228   -0.3740    0.3170 C   0  0  0  0  0  0  0  0  0  0  0  0
    1.2122   -0.5471    0.4195 C   0  0  0  0  0  0  0  0  0  0  0  0
    2.2622    0.0593   -0.3759 C   0  0  0  0  0  0  0  0  0  0  0  0
    3.5822   -0.1131   -0.2164 C   0  0  0  0  0  0  0  0  0  0  0  0
    4.4101   -1.0732    0.9561 S   0  0  0  0  0  0  0  0  0  0  0  0
    5.9830   -0.6296    0.3338 C   0  0  0  0  0  0  0  0  0  0  0  0
    7.4491   -1.1367    0.9107 S   0  0  0  0  0  0  0  0  0  0  0  0
    5.8383    0.2159   -0.7224 N   0  0  0  0  0  0  0  0  0  0  0  0
    4.5718    0.5606   -1.1023 C   0  0  0  0  0  0  0  0  0  0  0  0
    4.3041    1.3087   -2.0283 O   0  0  0  0  0  0  0  0  0  0  0  0
   -0.8892    0.5626   -0.6807 C   0  0  0  0  0  0  0  0  0  0  0  0
   -0.7512    0.1040   -2.1396 C   0  0  0  0  0  0  0  0  0  0  0  0
   -0.5249    2.0456   -0.5084 C   0  0  0  0  0  0  0  0  0  0  0  0
   -2.3345    0.3590   -0.2307 C   0  0  0  0  0  0  0  0  0  0  0  0
   -3.4952    0.9505   -0.7175 C   0  0  0  0  0  0  0  0  0  0  0  0
   -4.7103    0.6163   -0.1213 C   0  0  0  0  0  0  0  0  0  0  0  0
   -4.7501   -0.2936    0.9432 C   0  0  0  0  0  0  0  0  0  0  0  0
   -3.5755   -0.8844    1.4230 C   0  0  0  0  0  0  0  0  0  0  0  0
   -2.3655   -0.5587    0.8303 C   0  0  0  0  0  0  0  0  0  0  0  0
   -0.9129   -1.2377    3.2075 H   0  0  0  0  0  0  0  0  0  0  0  0
   -1.6036   -2.6489    2.3684 H   0  0  0  0  0  0  0  0  0  0  0  0
    0.1120   -2.3441    2.2782 H   0  0  0  0  0  0  0  0  0  0  0  0
    1.5663   -1.2330    1.1839 H   0  0  0  0  0  0  0  0  0  0  0  0
    1.9503    0.7106   -1.1866 H   0  0  0  0  0  0  0  0  0  0  0  0
    6.6339    0.5862   -1.2196 H   0  0  0  0  0  0  0  0  0  0  0  0
    0.2679    0.2251   -2.5168 H   0  0  0  0  0  0  0  0  0  0  0  0
   -1.4066    0.6809   -2.8029 H   0  0  0  0  0  0  0  0  0  0  0  0
   -1.0218   -0.9526   -2.2558 H   0  0  0  0  0  0  0  0  0  0  0  0
   -0.6145    2.3612    0.5384 H   0  0  0  0  0  0  0  0  0  0  0  0
   -1.1860    2.6910   -1.0988 H   0  0  0  0  0  0  0  0  0  0  0  0
    0.4955    2.2658   -0.8317 H   0  0  0  0  0  0  0  0  0  0  0  0
   -3.4636    1.6585   -1.5390 H   0  0  0  0  0  0  0  0  0  0  0  0
   -5.6323    1.0652   -0.4823 H   0  0  0  0  0  0  0  0  0  0  0  0
   -5.7042   -0.5448    1.4002 H   0  0  0  0  0  0  0  0  0  0  0  0
   -3.6342   -1.5873    2.2456 H   0  0  0  0  0  0  0  0  0  0  0  0
  1  2  1  0
  2  3  1  0
  3  4  2  3
  4  5  1  0
  5  6  2  3
  6  7  1  0
  7  8  1  0
  8  9  2  0
  8 10  1  0
 10 11  1  0
 11 12  2  0
  3 13  1  0
 13 14  1  0
 13 15  1  0
 13 16  1  0
 16 17  2  0
 17 18  1  0
 18 19  2  0
 19 20  1  0
 20 21  2  0
 21  2  1  0
 11  6  1  0
 21 16  1  0
  1 22  1  0
  1 23  1  0
  1 24  1  0
  4 25  1  0
  5 26  1  0
 10 27  1  0
 14 28  1  0
 14 29  1  0
 14 30  1  0
 15 31  1  0
 15 32  1  0
 15 33  1  0
 17 34  1  0
 18 35  1  0
 19 36  1  0
 20 37  1  0
M  END
$$$$
