
     RDKit          3D

 39 41  0  0  0  0  0  0  0  0999 V2000
   -3.0035   -2.8873    3.2609 C   0  0  0  0  0  0  0  0  0  0  0  0
   -2.2896   -2.7126    2.0435 O   0  0  0  0  0  0  0  0  0  0  0  0
   -2.1845   -1.4359    1.5643 C   0  0  0  0  0  0  0  0  0  0  0  0
   -2.6774   -0.2840    2.1827 C   0  0  0  0  0  0  0  0  0  0  0  0
   -2.4960    0.9683    1.5854 C   0  0  0  0  0  0  0  0  0  0  0  0
   -1.8137    1.0642    0.3694 C   0  0  0  0  0  0  0  0  0  0  0  0
   -1.5931    2.6559   -0.3948 S   0  0  0  0  0  6  0  0  0  0  0  0
   -2.5976    3.5429    0.1563 O   0  0  0  0  0  0  0  0  0  0  0  0
   -1.4735    2.4608   -1.8228 O   0  0  0  0  0  0  0  0  0  0  0  0
   -0.1177    3.1859    0.2372 N   0  0  0  0  0  0  0  0  0  0  0  0
    1.0329    2.3569    0.1247 C   0  0  0  0  0  0  0  0  0  0  0  0
    1.6079    1.8451    1.2888 C   0  0  0  0  0  0  0  0  0  0  0  0
    2.7093    0.9917    1.2070 C   0  0  0  0  0  0  0  0  0  0  0  0
    3.2301    0.6524   -0.0424 C   0  0  0  0  0  0  0  0  0  0  0  0
    4.3103   -0.1848   -0.1160 O   0  0  0  0  0  0  0  0  0  0  0  0
    2.6606    1.1616   -1.2181 C   0  0  0  0  0  0  0  0  0  0  0  0
    3.2989    0.7512   -2.8334 S   0  0  0  0  0  0  0  0  0  0  0  0
    2.3595   -0.6622   -3.2436 C   0  0  0  0  0  0  0  0  0  0  0  0
    1.3402   -1.1721   -2.4765 N   0  0  0  0  0  0  0  0  0  0  0  0
    0.9208   -2.1967   -3.1797 C   0  0  0  0  0  0  0  0  0  0  0  0
    1.6531   -2.2936   -4.3184 N   0  0  0  0  0  0  0  0  0  0  0  0
    2.5765   -1.3250   -4.3867 N   0  0  0  0  0  0  0  0  0  0  0  0
    1.5621    2.0265   -1.1228 C   0  0  0  0  0  0  0  0  0  0  0  0
   -1.3387   -0.0830   -0.2675 C   0  0  0  0  0  0  0  0  0  0  0  0
   -1.5162   -1.3267    0.3405 C   0  0  0  0  0  0  0  0  0  0  0  0
   -3.0117   -3.9566    3.4932 H   0  0  0  0  0  0  0  0  0  0  0  0
   -2.5048   -2.3708    4.0876 H   0  0  0  0  0  0  0  0  0  0  0  0
   -4.0437   -2.5604    3.1595 H   0  0  0  0  0  0  0  0  0  0  0  0
   -3.2101   -0.3260    3.1272 H   0  0  0  0  0  0  0  0  0  0  0  0
   -2.8936    1.8565    2.0716 H   0  0  0  0  0  0  0  0  0  0  0  0
   -0.2431    3.7217    1.0938 H   0  0  0  0  0  0  0  0  0  0  0  0
    1.2000    2.0911    2.2651 H   0  0  0  0  0  0  0  0  0  0  0  0
    3.1437    0.5991    2.1213 H   0  0  0  0  0  0  0  0  0  0  0  0
    4.5330   -0.5048    0.7722 H   0  0  0  0  0  0  0  0  0  0  0  0
    0.1204   -2.8763   -2.9255 H   0  0  0  0  0  0  0  0  0  0  0  0
    1.5830   -2.9675   -5.0725 H   0  0  0  0  0  0  0  0  0  0  0  0
    1.1165    2.4346   -2.0273 H   0  0  0  0  0  0  0  0  0  0  0  0
   -0.8212   -0.0209   -1.2228 H   0  0  0  0  0  0  0  0  0  0  0  0
   -1.1294   -2.2191   -0.1461 H   0  0  0  0  0  0  0  0  0  0  0  0
  1  2  1  0
  2  3  1  0
  3  4  2  0
  4  5  1  0
  5  6  2  0
  6  7  1  0
  7  8  2  0
  7  9  2  0
  7 10  1  0
 10 11  1  0
 11 12  2  0
 12 13  1  0
 13 14  2  0
 14 15  1  0
 14 16  1  0
 16 17  1  0
 17 18  1  0
 18 19  1  0
 19 20  2  0
 20 21  1  0
 21 22  1  0
 16 23  2  0
  6 24  1  0
 24 25  2  0
 25  3  1  0
 23 11  1  0
 22 18  2  0
  1 26  1  0
  1 27  1  0
  1 28  1  0
  4 29  1  0
  5 30  1  0
 10 31  1  0
 12 32  1  0
 13 33  1  0
 15 34  1  0
 20 35  1  0
 21 36  1  0
 23 37  1  0
 24 38  1  0
 25 39  1  0
M  END
$$$$
