
     RDKit          3D

 44 46  0  0  0  0  0  0  0  0999 V2000
   -7.3964    0.8866    0.2405 C   0  0  0  0  0  0  0  0  0  0  0  0
   -6.3932    0.5561   -0.7114 O   0  0  0  0  0  0  0  0  0  0  0  0
   -5.1496    0.2511   -0.2264 C   0  0  0  0  0  0  0  0  0  0  0  0
   -4.7239    0.4928    1.0826 C   0  0  0  0  0  0  0  0  0  0  0  0
   -3.4337    0.1264    1.4877 C   0  0  0  0  0  0  0  0  0  0  0  0
   -2.5496   -0.4831    0.5906 C   0  0  0  0  0  0  0  0  0  0  0  0
   -1.2118   -0.8687    1.0553 C   0  0  0  0  0  0  0  0  0  0  0  0
   -0.0460   -0.3842    0.5798 C   0  0  0  0  0  0  0  0  0  0  0  0
    0.0147    0.5838   -0.4584 C   0  0  0  0  0  0  0  0  0  0  0  0
    0.1625    1.3593   -1.3086 N   0  0  0  0  0  0  0  0  0  0  0  0
    1.2271   -0.8915    1.2135 C   0  0  0  0  0  0  0  0  0  0  0  0
    1.1627   -1.6957    2.1391 O   0  0  0  0  0  0  0  0  0  0  0  0
    2.3959   -0.3816    0.6687 N   0  0  0  0  0  0  0  0  0  0  0  0
    3.7407   -0.6532    1.0545 C   0  0  0  0  0  0  0  0  0  0  0  0
    4.0397   -1.5225    2.1100 C   0  0  0  0  0  0  0  0  0  0  0  0
    5.3592   -1.7712    2.4715 C   0  0  0  0  0  0  0  0  0  0  0  0
    6.3951   -1.1516    1.7808 C   0  0  0  0  0  0  0  0  0  0  0  0
    6.1525   -0.2823    0.7328 C   0  0  0  0  0  0  0  0  0  0  0  0
    7.2238    0.2691    0.1370 N   0  0  0  0  0  0  0  0  0  0  0  0
    7.0226    1.1244   -0.8832 C   0  0  0  0  0  0  0  0  0  0  0  0
    5.7748    1.4691   -1.3498 C   0  0  0  0  0  0  0  0  0  0  0  0
    4.6680    0.8941   -0.7339 C   0  0  0  0  0  0  0  0  0  0  0  0
    4.8153   -0.0147    0.3469 C   0  0  0  0  0  0  0  0  0  0  0  0
   -2.9720   -0.7339   -0.7166 C   0  0  0  0  0  0  0  0  0  0  0  0
   -4.2500   -0.3410   -1.1251 C   0  0  0  0  0  0  0  0  0  0  0  0
   -4.6025   -0.6337   -2.4201 O   0  0  0  0  0  0  0  0  0  0  0  0
   -4.5572    0.5460   -3.2239 C   0  0  0  0  0  0  0  0  0  0  0  0
   -7.5008    0.1038    0.9991 H   0  0  0  0  0  0  0  0  0  0  0  0
   -7.1913    1.8604    0.6987 H   0  0  0  0  0  0  0  0  0  0  0  0
   -8.3501    0.9626   -0.2907 H   0  0  0  0  0  0  0  0  0  0  0  0
   -5.3709    0.9646    1.8152 H   0  0  0  0  0  0  0  0  0  0  0  0
   -3.1297    0.3236    2.5142 H   0  0  0  0  0  0  0  0  0  0  0  0
   -1.2179   -1.5903    1.8720 H   0  0  0  0  0  0  0  0  0  0  0  0
    2.3063    0.2627   -0.1027 H   0  0  0  0  0  0  0  0  0  0  0  0
    3.2701   -2.0280    2.6839 H   0  0  0  0  0  0  0  0  0  0  0  0
    5.5811   -2.4439    3.2972 H   0  0  0  0  0  0  0  0  0  0  0  0
    7.4242   -1.3500    2.0730 H   0  0  0  0  0  0  0  0  0  0  0  0
    7.9239    1.5392   -1.3255 H   0  0  0  0  0  0  0  0  0  0  0  0
    5.6615    2.1678   -2.1709 H   0  0  0  0  0  0  0  0  0  0  0  0
    3.6947    1.1814   -1.1185 H   0  0  0  0  0  0  0  0  0  0  0  0
   -2.3241   -1.2338   -1.4317 H   0  0  0  0  0  0  0  0  0  0  0  0
   -3.5829    1.0430   -3.1496 H   0  0  0  0  0  0  0  0  0  0  0  0
   -4.7027    0.2444   -4.2660 H   0  0  0  0  0  0  0  0  0  0  0  0
   -5.3601    1.2425   -2.9632 H   0  0  0  0  0  0  0  0  0  0  0  0
  1  2  1  0
  2  3  1  0
  3  4  2  0
  4  5  1  0
  5  6  2  0
  6  7  1  0
  7  8  2  3
  8  9  1  0
  9 10  3  0
  8 11  1  0
 11 12  2  0
 11 13  1  0
 13 14  1  0
 14 15  2  0
 15 16  1  0
 16 17  2  0
 17 18  1  0
 18 19  2  0
 19 20  1  0
 20 21  2  0
 21 22  1  0
 22 23  2  0
  6 24  1  0
 24 25  2  0
 25 26  1  0
 26 27  1  0
 25  3  1  0
 23 14  1  0
 23 18  1  0
  1 28  1  0
  1 29  1  0
  1 30  1  0
  4 31  1  0
  5 32  1  0
  7 33  1  0
 13 34  1  0
 15 35  1  0
 16 36  1  0
 17 37  1  0
 20 38  1  0
 21 39  1  0
 22 40  1  0
 24 41  1  0
 27 42  1  0
 27 43  1  0
 27 44  1  0
M  END
$$$$
