
     RDKit          3D

 51 55  0  0  0  0  0  0  0  0999 V2000
    7.3162    2.2377    3.1210 F   0  0  0  0  0  0  0  0  0  0  0  0
    6.6048    1.4373    2.3161 C   0  0  0  0  0  0  0  0  0  0  0  0
    6.8980    0.0799    2.2686 C   0  0  0  0  0  0  0  0  0  0  0  0
    6.1573   -0.7563    1.4317 C   0  0  0  0  0  0  0  0  0  0  0  0
    5.1246   -0.2316    0.6389 C   0  0  0  0  0  0  0  0  0  0  0  0
    4.3154   -1.1367   -0.2627 C   0  0  0  0  0  0  0  0  0  0  0  0
    2.9797   -1.5911    0.3586 C   0  0  0  0  0  0  0  0  0  0  0  0
    1.9594   -0.5321    0.4276 N   0  0  0  0  0  0  0  0  0  0  0  0
    0.9283   -0.8635    1.4362 C   0  0  0  0  0  0  0  0  0  0  0  0
   -0.4090   -0.1326    1.2080 C   0  0  0  0  0  0  0  0  0  0  0  0
   -1.0071   -0.5405   -0.0764 N   0  0  0  0  0  0  0  0  0  0  0  0
   -2.3179   -0.1700   -0.3629 C   0  0  0  0  0  0  0  0  0  0  0  0
   -2.8664    0.7650    0.3747 N   0  0  0  0  0  0  0  0  0  0  0  0
   -4.1729    1.2192    0.1164 C   0  0  0  0  0  0  0  0  0  0  0  0
   -4.6952    2.2306    0.9251 C   0  0  0  0  0  0  0  0  0  0  0  0
   -5.9826    2.7276    0.7049 C   0  0  0  0  0  0  0  0  0  0  0  0
   -6.7625    2.2147   -0.3320 C   0  0  0  0  0  0  0  0  0  0  0  0
   -6.2607    1.2035   -1.1522 C   0  0  0  0  0  0  0  0  0  0  0  0
   -4.9705    0.7171   -0.9196 C   0  0  0  0  0  0  0  0  0  0  0  0
   -4.3928   -0.3080   -1.6856 N   0  0  0  0  0  0  0  0  0  0  0  0
   -4.9262   -1.0143   -2.7378 C   0  0  0  0  0  0  0  0  0  0  0  0
   -4.0157   -1.9752   -3.1170 C   0  0  0  0  0  0  0  0  0  0  0  0
   -2.8868   -1.8349   -2.2769 C   0  0  0  0  0  0  0  0  0  0  0  0
   -3.1193   -0.7693   -1.4235 C   0  0  0  0  0  0  0  0  0  0  0  0
   -0.0409   -0.8565   -1.1377 C   0  0  0  0  0  0  0  0  0  0  0  0
    1.3433   -0.2175   -0.8784 C   0  0  0  0  0  0  0  0  0  0  0  0
    4.8430    1.1416    0.7054 C   0  0  0  0  0  0  0  0  0  0  0  0
    5.5838    1.9756    1.5435 C   0  0  0  0  0  0  0  0  0  0  0  0
    7.6986   -0.3179    2.8835 H   0  0  0  0  0  0  0  0  0  0  0  0
    6.3905   -1.8181    1.4025 H   0  0  0  0  0  0  0  0  0  0  0  0
    4.9111   -2.0313   -0.4874 H   0  0  0  0  0  0  0  0  0  0  0  0
    4.1662   -0.6435   -1.2303 H   0  0  0  0  0  0  0  0  0  0  0  0
    3.1938   -1.9627    1.3700 H   0  0  0  0  0  0  0  0  0  0  0  0
    2.5886   -2.4444   -0.2107 H   0  0  0  0  0  0  0  0  0  0  0  0
    1.3149   -0.6056    2.4289 H   0  0  0  0  0  0  0  0  0  0  0  0
    0.7264   -1.9438    1.4337 H   0  0  0  0  0  0  0  0  0  0  0  0
   -1.0885   -0.3904    2.0292 H   0  0  0  0  0  0  0  0  0  0  0  0
   -0.2539    0.9535    1.2256 H   0  0  0  0  0  0  0  0  0  0  0  0
   -4.0885    2.6334    1.7318 H   0  0  0  0  0  0  0  0  0  0  0  0
   -6.3739    3.5152    1.3436 H   0  0  0  0  0  0  0  0  0  0  0  0
   -7.7639    2.6039   -0.4995 H   0  0  0  0  0  0  0  0  0  0  0  0
   -6.8871    0.8188   -1.9498 H   0  0  0  0  0  0  0  0  0  0  0  0
   -5.9115   -0.8017   -3.1259 H   0  0  0  0  0  0  0  0  0  0  0  0
   -4.1566   -2.7050   -3.9039 H   0  0  0  0  0  0  0  0  0  0  0  0
   -2.0016   -2.4545   -2.2971 H   0  0  0  0  0  0  0  0  0  0  0  0
   -0.3948   -0.4896   -2.1078 H   0  0  0  0  0  0  0  0  0  0  0  0
    0.0681   -1.9449   -1.2063 H   0  0  0  0  0  0  0  0  0  0  0  0
    2.0093   -0.4655   -1.7123 H   0  0  0  0  0  0  0  0  0  0  0  0
    1.2229    0.8734   -0.9158 H   0  0  0  0  0  0  0  0  0  0  0  0
    4.0354    1.5637    0.1108 H   0  0  0  0  0  0  0  0  0  0  0  0
    5.3670    3.0371    1.6006 H   0  0  0  0  0  0  0  0  0  0  0  0
  1  2  1  0
  2  3  2  0
  3  4  1  0
  4  5  2  0
  5  6  1  0
  6  7  1  0
  7  8  1  0
  8  9  1  0
  9 10  1  0
 10 11  1  0
 11 12  1  0
 12 13  2  0
 13 14  1  0
 14 15  2  0
 15 16  1  0
 16 17  2  0
 17 18  1  0
 18 19  2  0
 19 20  1  0
 20 21  1  0
 21 22  2  0
 22 23  1  0
 23 24  2  0
 11 25  1  0
 25 26  1  0
  5 27  1  0
 27 28  2  0
 28  2  1  0
 26  8  1  0
 24 12  1  0
 19 14  1  0
 24 20  1  0
  3 29  1  0
  4 30  1  0
  6 31  1  0
  6 32  1  0
  7 33  1  0
  7 34  1  0
  9 35  1  0
  9 36  1  0
 10 37  1  0
 10 38  1  0
 15 39  1  0
 16 40  1  0
 17 41  1  0
 18 42  1  0
 21 43  1  0
 22 44  1  0
 23 45  1  0
 25 46  1  0
 25 47  1  0
 26 48  1  0
 26 49  1  0
 27 50  1  0
 28 51  1  0
M  END
$$$$
