
     RDKit          3D

 61 67  0  0  0  0  0  0  0  0999 V2000
    2.2607    2.1623   -2.4573 O   0  0  0  0  0  0  0  0  0  0  0  0
    2.4992    1.3148   -1.6020 C   0  0  0  0  0  0  0  0  0  0  0  0
    3.8994    1.1699   -1.1388 C   0  0  0  0  0  0  0  0  0  0  0  0
    4.6126    2.3301   -0.7716 C   0  0  0  0  0  0  0  0  0  0  0  0
    5.9428    2.2377   -0.3521 C   0  0  0  0  0  0  0  0  0  0  0  0
    6.5193    0.9860   -0.3255 C   0  0  0  0  0  0  0  0  0  0  0  0
    5.8278   -0.1432   -0.7026 C   0  0  0  0  0  0  0  0  0  0  0  0
    4.5181   -0.0871   -1.1260 C   0  0  0  0  0  0  0  0  0  0  0  0
    6.5819   -1.2699   -0.6059 O   0  0  0  0  0  0  0  0  0  0  0  0
    7.8291   -0.7233   -0.1271 C   0  0  0  0  0  0  0  0  0  0  0  0
    7.7950    0.7091    0.0518 O   0  0  0  0  0  0  0  0  0  0  0  0
    1.5172    0.4860   -1.0594 N   0  0  0  0  0  0  0  0  0  0  0  0
    0.1914    0.5249   -1.6645 C   0  0  0  0  0  0  0  0  0  0  0  0
   -0.6214   -0.7195   -1.3316 C   0  0  0  0  0  0  0  0  0  0  0  0
   -0.7749   -0.9745    0.1976 C   0  0  0  0  0  0  0  0  0  0  0  0
    0.3372   -0.2244    0.9835 C   0  0  0  0  0  0  0  0  0  0  0  0
    1.6542   -0.2256    0.2113 C   0  0  0  0  0  0  0  0  0  0  0  0
   -0.5052   -2.4047    0.3211 O   0  0  0  0  0  0  0  0  0  0  0  0
   -0.8981   -3.0293    1.4678 C   0  0  0  0  0  0  0  0  0  0  0  0
   -0.3826   -4.3095    1.6751 C   0  0  0  0  0  0  0  0  0  0  0  0
   -0.6998   -5.0120    2.8403 C   0  0  0  0  0  0  0  0  0  0  0  0
   -1.5369   -4.4333    3.7951 C   0  0  0  0  0  0  0  0  0  0  0  0
   -1.9125   -5.2972    5.2342 Cl  0  0  0  0  0  0  0  0  0  0  0  0
   -2.0668   -3.1623    3.5915 C   0  0  0  0  0  0  0  0  0  0  0  0
   -1.7505   -2.4721    2.4167 C   0  0  0  0  0  0  0  0  0  0  0  0
   -2.3012   -1.1316    2.1637 C   0  0  0  0  0  0  0  0  0  0  0  0
   -2.7721   -0.4856    3.0947 O   0  0  0  0  0  0  0  0  0  0  0  0
   -2.2044   -0.6403    0.7260 C   0  0  0  0  0  0  0  0  0  0  0  0
   -2.6603    0.8060    0.5904 C   0  0  0  0  0  0  0  0  0  0  0  0
   -3.7225    0.6494   -0.4392 C   0  0  0  0  0  0  0  0  0  0  0  0
   -4.3999    1.8187   -1.0500 C   0  0  0  0  0  0  0  0  0  0  0  0
   -5.3035    1.6103   -2.0983 C   0  0  0  0  0  0  0  0  0  0  0  0
   -5.9551    2.6929   -2.6929 C   0  0  0  0  0  0  0  0  0  0  0  0
   -5.7105    3.9868   -2.2437 C   0  0  0  0  0  0  0  0  0  0  0  0
   -4.8128    4.2003   -1.1991 C   0  0  0  0  0  0  0  0  0  0  0  0
   -4.1568    3.1202   -0.6004 C   0  0  0  0  0  0  0  0  0  0  0  0
   -4.0024   -0.5727   -0.7573 N   0  0  0  0  0  0  0  0  0  0  0  0
   -3.1864   -1.4234    0.0155 O   0  0  0  0  0  0  0  0  0  0  0  0
    4.1260    3.3018   -0.8202 H   0  0  0  0  0  0  0  0  0  0  0  0
    6.5047    3.1193   -0.0637 H   0  0  0  0  0  0  0  0  0  0  0  0
    4.0006   -0.9823   -1.4503 H   0  0  0  0  0  0  0  0  0  0  0  0
    8.0695   -1.1908    0.8365 H   0  0  0  0  0  0  0  0  0  0  0  0
    8.6200   -0.9718   -0.8450 H   0  0  0  0  0  0  0  0  0  0  0  0
   -0.3063    1.4343   -1.3142 H   0  0  0  0  0  0  0  0  0  0  0  0
    0.2962    0.6185   -2.7518 H   0  0  0  0  0  0  0  0  0  0  0  0
   -1.5909   -0.6533   -1.8314 H   0  0  0  0  0  0  0  0  0  0  0  0
   -0.1197   -1.5786   -1.7992 H   0  0  0  0  0  0  0  0  0  0  0  0
    0.5159   -0.6908    1.9583 H   0  0  0  0  0  0  0  0  0  0  0  0
    0.0474    0.8148    1.1759 H   0  0  0  0  0  0  0  0  0  0  0  0
    1.9698   -1.2500   -0.0141 H   0  0  0  0  0  0  0  0  0  0  0  0
    2.4294    0.2430    0.8240 H   0  0  0  0  0  0  0  0  0  0  0  0
    0.2741   -4.7570    0.9335 H   0  0  0  0  0  0  0  0  0  0  0  0
   -0.2879   -6.0062    2.9985 H   0  0  0  0  0  0  0  0  0  0  0  0
   -2.7238   -2.7130    4.3328 H   0  0  0  0  0  0  0  0  0  0  0  0
   -1.8801    1.4857    0.2468 H   0  0  0  0  0  0  0  0  0  0  0  0
   -3.1092    1.2232    1.4964 H   0  0  0  0  0  0  0  0  0  0  0  0
   -5.5088    0.6048   -2.4577 H   0  0  0  0  0  0  0  0  0  0  0  0
   -6.6568    2.5233   -3.5040 H   0  0  0  0  0  0  0  0  0  0  0  0
   -6.2207    4.8301   -2.7051 H   0  0  0  0  0  0  0  0  0  0  0  0
   -4.6262    5.2112   -0.8488 H   0  0  0  0  0  0  0  0  0  0  0  0
   -3.4727    3.3202    0.2192 H   0  0  0  0  0  0  0  0  0  0  0  0
  1  2  2  0
  2  3  1  0
  3  4  2  0
  4  5  1  0
  5  6  2  0
  6  7  1  0
  7  8  2  0
  7  9  1  0
  9 10  1  0
 10 11  1  0
  2 12  1  0
 12 13  1  0
 13 14  1  0
 14 15  1  0
 15 16  1  0
 16 17  1  0
 15 18  1  0
 18 19  1  0
 19 20  2  0
 20 21  1  0
 21 22  2  0
 22 23  1  0
 22 24  1  0
 24 25  2  0
 25 26  1  0
 26 27  2  0
 26 28  1  0
 28 29  1  0
 29 30  1  0
 30 31  1  0
 31 32  2  0
 32 33  1  0
 33 34  2  0
 34 35  1  0
 35 36  2  0
 30 37  2  0
 37 38  1  0
  8  3  1  0
 17 12  1  0
 25 19  1  0
 38 28  1  0
 11  6  1  0
 28 15  1  0
 36 31  1  0
  4 39  1  0
  5 40  1  0
  8 41  1  0
 10 42  1  0
 10 43  1  0
 13 44  1  0
 13 45  1  0
 14 46  1  0
 14 47  1  0
 16 48  1  0
 16 49  1  0
 17 50  1  0
 17 51  1  0
 20 52  1  0
 21 53  1  0
 24 54  1  0
 29 55  1  0
 29 56  1  0
 32 57  1  0
 33 58  1  0
 34 59  1  0
 35 60  1  0
 36 61  1  0
M  END
$$$$
