
     RDKit          3D

 49 50  0  0  0  0  0  0  0  0999 V2000
    6.2490    0.2946    1.1797 C   0  0  0  0  0  0  0  0  0  0  0  0
    5.8691   -0.9894    0.4668 C   0  0  0  0  0  0  0  0  0  0  0  0
    4.6776   -0.7869   -0.3045 O   0  0  0  0  0  0  0  0  0  0  0  0
    3.4969   -1.0012    0.3479 C   0  0  0  0  0  0  0  0  0  0  0  0
    3.4291   -1.3507    1.5218 O   0  0  0  0  0  0  0  0  0  0  0  0
    2.3189   -0.7652   -0.5032 C   0  0  0  0  0  0  0  0  0  0  0  0
    2.2567   -0.2525   -1.8489 C   0  0  0  0  0  0  0  0  0  0  0  0
    3.4234    0.1378   -2.6950 C   0  0  0  0  0  0  0  0  0  0  0  0
    0.9162   -0.1785   -2.2075 C   0  0  0  0  0  0  0  0  0  0  0  0
    0.2922    0.3003   -3.4768 C   0  0  0  0  0  0  0  0  0  0  0  0
    0.1650   -0.6438   -1.1437 N   0  0  0  0  0  0  0  0  0  0  0  0
   -1.3015   -0.7529   -1.1267 C   0  0  0  0  0  0  0  0  0  0  0  0
   -1.9852    0.2812   -0.2554 C   0  0  0  0  0  0  0  0  0  0  0  0
   -1.4508    1.5681   -0.0764 C   0  0  0  0  0  0  0  0  0  0  0  0
   -2.1047    2.5065    0.7191 C   0  0  0  0  0  0  0  0  0  0  0  0
   -3.3035    2.1797    1.3518 C   0  0  0  0  0  0  0  0  0  0  0  0
   -3.8717    0.9145    1.1812 C   0  0  0  0  0  0  0  0  0  0  0  0
   -5.0323    0.5138    1.7906 O   0  0  0  0  0  0  0  0  0  0  0  0
   -5.4742    1.2736    2.9083 C   0  0  0  0  0  0  0  0  0  0  0  0
   -3.2297   -0.0162    0.3387 C   0  0  0  0  0  0  0  0  0  0  0  0
   -3.7263   -1.2780    0.1019 O   0  0  0  0  0  0  0  0  0  0  0  0
   -5.0697   -1.2818   -0.3807 C   0  0  0  0  0  0  0  0  0  0  0  0
    1.0039   -1.0164   -0.1109 C   0  0  0  0  0  0  0  0  0  0  0  0
    0.5116   -1.5667    1.1917 C   0  0  0  0  0  0  0  0  0  0  0  0
    7.1816    0.1688    1.7368 H   0  0  0  0  0  0  0  0  0  0  0  0
    5.4639    0.6063    1.8762 H   0  0  0  0  0  0  0  0  0  0  0  0
    6.3755    1.1096    0.4594 H   0  0  0  0  0  0  0  0  0  0  0  0
    6.6614   -1.2682   -0.2358 H   0  0  0  0  0  0  0  0  0  0  0  0
    5.7586   -1.8223    1.1710 H   0  0  0  0  0  0  0  0  0  0  0  0
    3.1229    0.4773   -3.6892 H   0  0  0  0  0  0  0  0  0  0  0  0
    4.0924   -0.7174   -2.8403 H   0  0  0  0  0  0  0  0  0  0  0  0
    3.9837    0.9513   -2.2223 H   0  0  0  0  0  0  0  0  0  0  0  0
   -0.4822    1.0467   -3.2734 H   0  0  0  0  0  0  0  0  0  0  0  0
    1.0208    0.7723   -4.1402 H   0  0  0  0  0  0  0  0  0  0  0  0
   -0.1580   -0.5367   -4.0201 H   0  0  0  0  0  0  0  0  0  0  0  0
   -1.5140   -1.7771   -0.8010 H   0  0  0  0  0  0  0  0  0  0  0  0
   -1.6760   -0.6632   -2.1506 H   0  0  0  0  0  0  0  0  0  0  0  0
   -0.5117    1.8529   -0.5487 H   0  0  0  0  0  0  0  0  0  0  0  0
   -1.6720    3.4954    0.8525 H   0  0  0  0  0  0  0  0  0  0  0  0
   -3.7742    2.9393    1.9670 H   0  0  0  0  0  0  0  0  0  0  0  0
   -5.8661    2.2440    2.5877 H   0  0  0  0  0  0  0  0  0  0  0  0
   -6.2940    0.7245    3.3826 H   0  0  0  0  0  0  0  0  0  0  0  0
   -4.6799    1.3941    3.6530 H   0  0  0  0  0  0  0  0  0  0  0  0
   -5.1711   -2.1300   -1.0653 H   0  0  0  0  0  0  0  0  0  0  0  0
   -5.3261   -0.3724   -0.9366 H   0  0  0  0  0  0  0  0  0  0  0  0
   -5.7682   -1.4425    0.4455 H   0  0  0  0  0  0  0  0  0  0  0  0
    0.6275   -0.8170    1.9815 H   0  0  0  0  0  0  0  0  0  0  0  0
    1.0836   -2.4581    1.4689 H   0  0  0  0  0  0  0  0  0  0  0  0
   -0.5380   -1.8673    1.1684 H   0  0  0  0  0  0  0  0  0  0  0  0
  1  2  1  0
  2  3  1  0
  3  4  1  0
  4  5  2  0
  4  6  1  0
  6  7  1  0
  7  8  1  0
  7  9  2  0
  9 10  1  0
  9 11  1  0
 11 12  1  0
 12 13  1  0
 13 14  2  0
 14 15  1  0
 15 16  2  0
 16 17  1  0
 17 18  1  0
 18 19  1  0
 17 20  2  0
 20 21  1  0
 21 22  1  0
 11 23  1  0
 23 24  1  0
 23  6  2  0
 20 13  1  0
  1 25  1  0
  1 26  1  0
  1 27  1  0
  2 28  1  0
  2 29  1  0
  8 30  1  0
  8 31  1  0
  8 32  1  0
 10 33  1  0
 10 34  1  0
 10 35  1  0
 12 36  1  0
 12 37  1  0
 14 38  1  0
 15 39  1  0
 16 40  1  0
 19 41  1  0
 19 42  1  0
 19 43  1  0
 22 44  1  0
 22 45  1  0
 22 46  1  0
 24 47  1  0
 24 48  1  0
 24 49  1  0
M  END
$$$$
