
     RDKit          3D

 57 59  0  0  0  0  0  0  0  0999 V2000
   -0.0718   -0.9511   -4.0222 C   0  0  0  0  0  0  0  0  0  0  0  0
   -0.5922   -2.0294   -3.2018 N   0  0  0  0  0  0  0  0  0  0  0  0
   -0.6017   -2.0060   -1.8324 C   0  0  0  0  0  0  0  0  0  0  0  0
    0.0329   -3.3690   -1.0899 S   0  0  0  0  0  0  0  0  0  0  0  0
   -1.1394   -0.8868   -1.2031 N   0  0  0  0  0  0  0  0  0  0  0  0
   -2.2218   -0.1068   -1.8399 C   0  0  0  0  0  0  0  0  0  0  0  0
   -3.5520   -0.8693   -1.9707 C   0  0  0  0  0  0  0  0  0  0  0  0
   -4.2198   -1.1777   -0.6539 C   0  0  0  0  0  0  0  0  0  0  0  0
   -4.1524   -2.4668   -0.1122 C   0  0  0  0  0  0  0  0  0  0  0  0
   -4.7511   -2.7484    1.1146 C   0  0  0  0  0  0  0  0  0  0  0  0
   -5.4164   -1.7440    1.8153 C   0  0  0  0  0  0  0  0  0  0  0  0
   -5.4822   -0.4456    1.2987 C   0  0  0  0  0  0  0  0  0  0  0  0
   -6.2171    0.6270    2.0438 C   0  0  0  0  0  0  0  0  0  0  0  0
   -4.8947   -0.1743    0.0562 C   0  0  0  0  0  0  0  0  0  0  0  0
   -1.0348   -0.7060    0.2667 C   0  0  0  0  0  0  0  0  0  0  0  0
    0.2726   -0.0789    0.6835 C   0  0  0  0  0  0  0  0  0  0  0  0
    1.2902    0.2934   -0.1166 C   0  0  0  0  0  0  0  0  0  0  0  0
    2.5174    0.8747    0.4292 C   0  0  0  0  0  0  0  0  0  0  0  0
    3.5829    1.2455   -0.4022 C   0  0  0  0  0  0  0  0  0  0  0  0
    4.7467    1.7963    0.1469 C   0  0  0  0  0  0  0  0  0  0  0  0
    5.8475    2.1822   -0.5686 O   0  0  0  0  0  0  0  0  0  0  0  0
    5.7339    2.1872   -1.9847 C   0  0  0  0  0  0  0  0  0  0  0  0
    4.8306    1.9567    1.5407 C   0  0  0  0  0  0  0  0  0  0  0  0
    5.9439    2.5449    2.0912 O   0  0  0  0  0  0  0  0  0  0  0  0
    6.7702    1.5624    2.7123 C   0  0  0  0  0  0  0  0  0  0  0  0
    3.7685    1.6063    2.3760 C   0  0  0  0  0  0  0  0  0  0  0  0
    2.6213    1.0562    1.8136 C   0  0  0  0  0  0  0  0  0  0  0  0
    1.5517    0.6843    2.6327 N   0  0  0  0  0  0  0  0  0  0  0  0
    0.3883    0.1359    2.1626 C   0  0  0  0  0  0  0  0  0  0  0  0
   -0.5236   -0.1532    2.9296 O   0  0  0  0  0  0  0  0  0  0  0  0
   -0.8395   -0.6651   -4.7474 H   0  0  0  0  0  0  0  0  0  0  0  0
    0.2383   -0.0938   -3.4202 H   0  0  0  0  0  0  0  0  0  0  0  0
    0.8009   -1.3312   -4.5630 H   0  0  0  0  0  0  0  0  0  0  0  0
   -0.3027   -2.9440   -3.5329 H   0  0  0  0  0  0  0  0  0  0  0  0
   -2.3548    0.8313   -1.2879 H   0  0  0  0  0  0  0  0  0  0  0  0
   -1.9145    0.1936   -2.8424 H   0  0  0  0  0  0  0  0  0  0  0  0
   -4.2467   -0.2675   -2.5718 H   0  0  0  0  0  0  0  0  0  0  0  0
   -3.4045   -1.7976   -2.5354 H   0  0  0  0  0  0  0  0  0  0  0  0
   -3.6251   -3.2593   -0.6380 H   0  0  0  0  0  0  0  0  0  0  0  0
   -4.6926   -3.7517    1.5279 H   0  0  0  0  0  0  0  0  0  0  0  0
   -5.8777   -1.9789    2.7712 H   0  0  0  0  0  0  0  0  0  0  0  0
   -7.2734    0.6215    1.7618 H   0  0  0  0  0  0  0  0  0  0  0  0
   -6.1371    0.4748    3.1246 H   0  0  0  0  0  0  0  0  0  0  0  0
   -5.7963    1.6138    1.8249 H   0  0  0  0  0  0  0  0  0  0  0  0
   -4.9571    0.8302   -0.3565 H   0  0  0  0  0  0  0  0  0  0  0  0
   -1.1770   -1.6675    0.7700 H   0  0  0  0  0  0  0  0  0  0  0  0
   -1.8482   -0.0522    0.6025 H   0  0  0  0  0  0  0  0  0  0  0  0
    1.2382    0.1583   -1.1905 H   0  0  0  0  0  0  0  0  0  0  0  0
    3.4855    1.0916   -1.4717 H   0  0  0  0  0  0  0  0  0  0  0  0
    5.6103    1.1706   -2.3736 H   0  0  0  0  0  0  0  0  0  0  0  0
    6.6671    2.5871   -2.3933 H   0  0  0  0  0  0  0  0  0  0  0  0
    4.9189    2.8403   -2.3167 H   0  0  0  0  0  0  0  0  0  0  0  0
    6.3276    1.2293    3.6576 H   0  0  0  0  0  0  0  0  0  0  0  0
    7.7337    2.0315    2.9386 H   0  0  0  0  0  0  0  0  0  0  0  0
    6.9533    0.7052    2.0526 H   0  0  0  0  0  0  0  0  0  0  0  0
    3.8433    1.7754    3.4452 H   0  0  0  0  0  0  0  0  0  0  0  0
    1.6024    0.8142    3.6351 H   0  0  0  0  0  0  0  0  0  0  0  0
  1  2  1  0
  2  3  1  0
  3  4  2  0
  3  5  1  0
  5  6  1  0
  6  7  1  0
  7  8  1  0
  8  9  2  0
  9 10  1  0
 10 11  2  0
 11 12  1  0
 12 13  1  0
 12 14  2  0
  5 15  1  0
 15 16  1  0
 16 17  2  0
 17 18  1  0
 18 19  2  0
 19 20  1  0
 20 21  1  0
 21 22  1  0
 20 23  2  0
 23 24  1  0
 24 25  1  0
 23 26  1  0
 26 27  2  0
 27 28  1  0
 28 29  1  0
 29 30  2  0
 14  8  1  0
 29 16  1  0
 27 18  1  0
  1 31  1  0
  1 32  1  0
  1 33  1  0
  2 34  1  0
  6 35  1  0
  6 36  1  0
  7 37  1  0
  7 38  1  0
  9 39  1  0
 10 40  1  0
 11 41  1  0
 13 42  1  0
 13 43  1  0
 13 44  1  0
 14 45  1  0
 15 46  1  0
 15 47  1  0
 17 48  1  0
 19 49  1  0
 22 50  1  0
 22 51  1  0
 22 52  1  0
 25 53  1  0
 25 54  1  0
 25 55  1  0
 26 56  1  0
 28 57  1  0
M  END
$$$$
