
     RDKit          3D

 26 27  0  0  0  0  0  0  0  0999 V2000
    0.7736    1.5382   -1.8692 O   0  0  0  0  0  0  0  0  0  0  0  0
    1.3191    0.9560   -0.9355 C   0  0  0  0  0  0  0  0  0  0  0  0
    2.7943    1.1586   -0.6494 C   0  0  0  0  0  0  0  0  0  0  0  0
    3.2491    0.3916    0.5878 C   0  0  0  0  0  0  0  0  0  0  0  0
    2.8777   -1.0837    0.4807 C   0  0  0  0  0  0  0  0  0  0  0  0
    1.4014   -1.2794    0.1969 C   0  0  0  0  0  0  0  0  0  0  0  0
    0.9151   -2.4057    0.1335 O   0  0  0  0  0  0  0  0  0  0  0  0
    0.6053   -0.0459   -0.0859 C   0  0  0  0  0  0  0  0  0  0  0  0
   -0.5954    0.1958    0.4850 C   0  0  0  0  0  0  0  0  0  0  0  0
   -1.4415    1.7204    0.2707 S   0  0  0  0  0  0  0  0  0  0  0  0
   -3.1815    1.2140    0.4414 C   0  0  0  0  0  0  0  0  0  0  0  0
   -3.4436   -0.1766   -0.1221 C   0  0  0  0  0  0  0  0  0  0  0  0
   -2.8496   -1.3163    0.7070 C   0  0  0  0  0  0  0  0  0  0  0  0
   -1.3297   -0.9168    1.6206 S   0  0  0  0  0  0  0  0  0  0  0  0
    2.9744    2.2289   -0.5047 H   0  0  0  0  0  0  0  0  0  0  0  0
    3.3569    0.8210   -1.5269 H   0  0  0  0  0  0  0  0  0  0  0  0
    2.7828    0.8249    1.4821 H   0  0  0  0  0  0  0  0  0  0  0  0
    4.3331    0.4937    0.7104 H   0  0  0  0  0  0  0  0  0  0  0  0
    3.1194   -1.5922    1.4198 H   0  0  0  0  0  0  0  0  0  0  0  0
    3.4424   -1.5544   -0.3318 H   0  0  0  0  0  0  0  0  0  0  0  0
   -3.7852    1.9474   -0.1033 H   0  0  0  0  0  0  0  0  0  0  0  0
   -3.4780    1.2735    1.4944 H   0  0  0  0  0  0  0  0  0  0  0  0
   -3.0693   -0.2384   -1.1529 H   0  0  0  0  0  0  0  0  0  0  0  0
   -4.5267   -0.3366   -0.1963 H   0  0  0  0  0  0  0  0  0  0  0  0
   -2.6592   -2.1805    0.0614 H   0  0  0  0  0  0  0  0  0  0  0  0
   -3.5848   -1.6375    1.4531 H   0  0  0  0  0  0  0  0  0  0  0  0
  1  2  2  0
  2  3  1  0
  3  4  1  0
  4  5  1  0
  5  6  1  0
  6  7  2  0
  6  8  1  0
  8  9  2  3
  9 10  1  0
 10 11  1  0
 11 12  1  0
 12 13  1  0
 13 14  1  0
  8  2  1  0
 14  9  1  0
  3 15  1  0
  3 16  1  0
  4 17  1  0
  4 18  1  0
  5 19  1  0
  5 20  1  0
 11 21  1  0
 11 22  1  0
 12 23  1  0
 12 24  1  0
 13 25  1  0
 13 26  1  0
M  END
$$$$
