
     RDKit          3D

 55 59  0  0  0  0  0  0  0  0999 V2000
    7.5116    3.0353    0.1216 C   0  0  0  0  0  0  0  0  0  0  0  0
    6.2475    2.4057   -0.0472 O   0  0  0  0  0  0  0  0  0  0  0  0
    5.3474    2.5362    0.9743 C   0  0  0  0  0  0  0  0  0  0  0  0
    5.5439    3.2593    2.1515 C   0  0  0  0  0  0  0  0  0  0  0  0
    4.5366    3.3118    3.1183 C   0  0  0  0  0  0  0  0  0  0  0  0
    3.3322    2.6358    2.9174 C   0  0  0  0  0  0  0  0  0  0  0  0
    3.1260    1.8926    1.7475 C   0  0  0  0  0  0  0  0  0  0  0  0
    1.8820    1.1620    1.5157 C   0  0  0  0  0  0  0  0  0  0  0  0
    1.1388    1.2398    0.4252 N   0  0  0  0  0  0  0  0  0  0  0  0
    0.0420    0.4312    0.5885 N   0  0  0  0  0  0  0  0  0  0  0  0
    0.1502   -0.1625    1.7521 C   0  0  0  0  0  0  0  0  0  0  0  0
   -0.9601   -1.2797    2.4656 S   0  0  0  0  0  0  0  0  0  0  0  0
   -2.0302   -1.7756    1.0577 C   0  0  0  0  0  0  0  0  0  0  0  0
   -2.9223   -0.6281    0.5428 C   0  0  0  0  0  0  0  0  0  0  0  0
   -2.9673    0.4679    1.1075 O   0  0  0  0  0  0  0  0  0  0  0  0
   -3.8455   -0.8918   -0.5787 C   0  0  0  0  0  0  0  0  0  0  0  0
   -4.2564   -2.1306   -1.0440 C   0  0  0  0  0  0  0  0  0  0  0  0
   -5.1067   -1.9411   -2.1013 N   0  0  0  0  0  0  0  0  0  0  0  0
   -5.2875   -0.5990   -2.3314 C   0  0  0  0  0  0  0  0  0  0  0  0
   -6.0681    0.0512   -3.2953 C   0  0  0  0  0  0  0  0  0  0  0  0
   -6.0625    1.4493   -3.3001 C   0  0  0  0  0  0  0  0  0  0  0  0
   -5.3043    2.1653   -2.3777 C   0  0  0  0  0  0  0  0  0  0  0  0
   -4.5286    1.4983   -1.4226 C   0  0  0  0  0  0  0  0  0  0  0  0
   -4.5162    0.0864   -1.3912 C   0  0  0  0  0  0  0  0  0  0  0  0
   -1.2575   -2.5957    0.0279 C   0  0  0  0  0  0  0  0  0  0  0  0
   -0.7300   -2.0345   -1.1461 C   0  0  0  0  0  0  0  0  0  0  0  0
   -0.0314   -2.8220   -2.0647 C   0  0  0  0  0  0  0  0  0  0  0  0
    0.1591   -4.1797   -1.8220 C   0  0  0  0  0  0  0  0  0  0  0  0
   -0.3440   -4.7526   -0.6567 C   0  0  0  0  0  0  0  0  0  0  0  0
   -1.0436   -3.9676    0.2627 C   0  0  0  0  0  0  0  0  0  0  0  0
    1.3036    0.2438    2.3685 N   0  0  0  0  0  0  0  0  0  0  0  0
    1.8484   -0.2564    3.6059 C   0  0  0  0  0  0  0  0  0  0  0  0
    4.1357    1.8661    0.7769 C   0  0  0  0  0  0  0  0  0  0  0  0
    8.0455    2.6245    0.9871 H   0  0  0  0  0  0  0  0  0  0  0  0
    8.1111    2.8270   -0.7705 H   0  0  0  0  0  0  0  0  0  0  0  0
    7.4043    4.1236    0.2076 H   0  0  0  0  0  0  0  0  0  0  0  0
    6.4646    3.8011    2.3435 H   0  0  0  0  0  0  0  0  0  0  0  0
    4.6896    3.8910    4.0271 H   0  0  0  0  0  0  0  0  0  0  0  0
    2.5522    2.7092    3.6726 H   0  0  0  0  0  0  0  0  0  0  0  0
   -2.7536   -2.4620    1.5200 H   0  0  0  0  0  0  0  0  0  0  0  0
   -4.0161   -3.1368   -0.7273 H   0  0  0  0  0  0  0  0  0  0  0  0
   -5.5455   -2.6776   -2.6390 H   0  0  0  0  0  0  0  0  0  0  0  0
   -6.6581   -0.5037   -4.0176 H   0  0  0  0  0  0  0  0  0  0  0  0
   -6.6571    1.9854   -4.0360 H   0  0  0  0  0  0  0  0  0  0  0  0
   -5.3095    3.2528   -2.3965 H   0  0  0  0  0  0  0  0  0  0  0  0
   -3.9374    2.0681   -0.7092 H   0  0  0  0  0  0  0  0  0  0  0  0
   -0.8487   -0.9738   -1.3644 H   0  0  0  0  0  0  0  0  0  0  0  0
    0.3692   -2.3672   -2.9677 H   0  0  0  0  0  0  0  0  0  0  0  0
    0.7069   -4.7868   -2.5375 H   0  0  0  0  0  0  0  0  0  0  0  0
   -0.1871   -5.8097   -0.4606 H   0  0  0  0  0  0  0  0  0  0  0  0
   -1.4202   -4.4357    1.1711 H   0  0  0  0  0  0  0  0  0  0  0  0
    2.9261   -0.0873    3.6395 H   0  0  0  0  0  0  0  0  0  0  0  0
    1.3598    0.2623    4.4339 H   0  0  0  0  0  0  0  0  0  0  0  0
    1.6790   -1.3336    3.6746 H   0  0  0  0  0  0  0  0  0  0  0  0
    3.9823    1.3082   -0.1464 H   0  0  0  0  0  0  0  0  0  0  0  0
  1  2  1  0
  2  3  1  0
  3  4  2  0
  4  5  1  0
  5  6  2  0
  6  7  1  0
  7  8  1  0
  8  9  2  0
  9 10  1  0
 10 11  2  0
 11 12  1  0
 12 13  1  0
 13 14  1  0
 14 15  2  0
 14 16  1  0
 16 17  2  0
 17 18  1  0
 18 19  1  0
 19 20  2  0
 20 21  1  0
 21 22  2  0
 22 23  1  0
 23 24  2  0
 13 25  1  0
 25 26  2  0
 26 27  1  0
 27 28  2  0
 28 29  1  0
 29 30  2  0
 11 31  1  0
 31 32  1  0
  7 33  2  0
 33  3  1  0
 31  8  1  0
 24 16  1  0
 30 25  1  0
 24 19  1  0
  1 34  1  0
  1 35  1  0
  1 36  1  0
  4 37  1  0
  5 38  1  0
  6 39  1  0
 13 40  1  0
 17 41  1  0
 18 42  1  0
 20 43  1  0
 21 44  1  0
 22 45  1  0
 23 46  1  0
 26 47  1  0
 27 48  1  0
 28 49  1  0
 29 50  1  0
 30 51  1  0
 32 52  1  0
 32 53  1  0
 32 54  1  0
 33 55  1  0
M  END
$$$$
