
     RDKit          3D

 53 58  0  0  0  0  0  0  0  0999 V2000
   -1.6362    0.8932    1.7391 O   0  0  0  0  0  0  0  0  0  0  0  0
   -1.7746    0.0685    0.8345 C   0  0  0  0  0  0  0  0  0  0  0  0
   -0.8039   -1.1191    0.7136 C   0  0  0  0  0  0  0  0  0  0  0  0
    0.6064   -0.7045    0.8270 N   0  0  0  0  0  4  0  0  0  0  0  0
    1.5887   -0.8183   -0.1567 C   0  0  0  0  0  0  0  0  0  0  0  0
    2.7903   -0.3322    0.3447 C   0  0  0  0  0  0  0  0  0  0  0  0
    4.1554   -0.2352   -0.4315 C   0  0  0  0  0  0  0  0  0  0  0  0
    4.2534   -0.7156   -1.7432 C   0  0  0  0  0  0  0  0  0  0  0  0
    5.4679   -0.6326   -2.4352 C   0  0  0  0  0  0  0  0  0  0  0  0
    6.5926   -0.0703   -1.8259 C   0  0  0  0  0  0  0  0  0  0  0  0
    8.0556   -0.0050   -2.7369 Cl  0  0  0  0  0  0  0  0  0  0  0  0
    6.4950    0.4142   -0.5184 C   0  0  0  0  0  0  0  0  0  0  0  0
    7.8347    1.1251    0.3112 Cl  0  0  0  0  0  0  0  0  0  0  0  0
    5.2779    0.3343    0.1741 C   0  0  0  0  0  0  0  0  0  0  0  0
    2.4727    0.0166    1.6451 N   0  0  0  0  0  0  0  0  0  0  0  0
    1.1812   -0.1817    1.9090 C   0  0  0  0  0  0  0  0  0  0  0  0
    0.8137    0.1753    3.3018 C   0  0  0  0  0  0  0  0  0  0  0  0
    2.1929    0.2877    3.9790 C   0  0  0  0  0  0  0  0  0  0  0  0
    3.1855    0.5301    2.8105 C   0  0  0  0  0  0  0  0  0  0  0  0
   -2.8141    0.0459   -0.1020 N   0  0  0  0  0  0  0  0  0  0  0  0
   -2.5027    0.1337   -1.5076 C   0  0  0  0  0  0  0  0  0  0  0  0
   -1.2623    0.6841   -1.9028 C   0  0  0  0  0  0  0  0  0  0  0  0
   -0.8977    0.7859   -3.2483 C   0  0  0  0  0  0  0  0  0  0  0  0
   -1.7706    0.3467   -4.2330 C   0  0  0  0  0  0  0  0  0  0  0  0
   -3.0114   -0.1696   -3.8694 C   0  0  0  0  0  0  0  0  0  0  0  0
   -3.3890   -0.2626   -2.5186 C   0  0  0  0  0  0  0  0  0  0  0  0
   -4.9885   -0.9306   -2.1777 S   0  0  0  0  0  0  0  0  0  0  0  0
   -5.2498   -0.2907   -0.5417 C   0  0  0  0  0  0  0  0  0  0  0  0
   -6.5846   -0.2582   -0.0968 C   0  0  0  0  0  0  0  0  0  0  0  0
   -6.8947    0.1290    1.2026 C   0  0  0  0  0  0  0  0  0  0  0  0
   -5.8706    0.4709    2.0713 C   0  0  0  0  0  0  0  0  0  0  0  0
   -4.5402    0.4355    1.6361 C   0  0  0  0  0  0  0  0  0  0  0  0
   -4.1955    0.0769    0.3159 C   0  0  0  0  0  0  0  0  0  0  0  0
   -0.9421   -1.6754   -0.2187 H   0  0  0  0  0  0  0  0  0  0  0  0
   -1.0156   -1.8084    1.5387 H   0  0  0  0  0  0  0  0  0  0  0  0
    1.3004   -1.2289   -1.1102 H   0  0  0  0  0  0  0  0  0  0  0  0
    3.4101   -1.1674   -2.2591 H   0  0  0  0  0  0  0  0  0  0  0  0
    5.5340   -1.0121   -3.4546 H   0  0  0  0  0  0  0  0  0  0  0  0
    5.2371    0.7366    1.1791 H   0  0  0  0  0  0  0  0  0  0  0  0
    0.1821   -0.6097    3.7196 H   0  0  0  0  0  0  0  0  0  0  0  0
    0.3079    1.1416    3.2642 H   0  0  0  0  0  0  0  0  0  0  0  0
    2.2314    1.0717    4.7412 H   0  0  0  0  0  0  0  0  0  0  0  0
    2.4356   -0.6679    4.4608 H   0  0  0  0  0  0  0  0  0  0  0  0
    3.3737    1.5984    2.6636 H   0  0  0  0  0  0  0  0  0  0  0  0
    4.1190   -0.0138    2.9724 H   0  0  0  0  0  0  0  0  0  0  0  0
   -0.5763    1.1108   -1.1737 H   0  0  0  0  0  0  0  0  0  0  0  0
    0.0511    1.2367   -3.5302 H   0  0  0  0  0  0  0  0  0  0  0  0
   -1.5036    0.4289   -5.2845 H   0  0  0  0  0  0  0  0  0  0  0  0
   -3.6954   -0.4906   -4.6553 H   0  0  0  0  0  0  0  0  0  0  0  0
   -7.3972   -0.5474   -0.7627 H   0  0  0  0  0  0  0  0  0  0  0  0
   -7.9307    0.1564    1.5340 H   0  0  0  0  0  0  0  0  0  0  0  0
   -6.1016    0.7756    3.0908 H   0  0  0  0  0  0  0  0  0  0  0  0
   -3.7974    0.7375    2.3683 H   0  0  0  0  0  0  0  0  0  0  0  0
  1  2  2  0
  2  3  1  0
  3  4  1  0
  4  5  1  0
  5  6  2  0
  6  7  1  0
  7  8  2  0
  8  9  1  0
  9 10  2  0
 10 11  1  0
 10 12  1  0
 12 13  1  0
 12 14  2  0
  6 15  1  0
 15 16  1  0
 16 17  1  0
 17 18  1  0
 18 19  1  0
  2 20  1  0
 20 21  1  0
 21 22  2  0
 22 23  1  0
 23 24  2  0
 24 25  1  0
 25 26  2  0
 26 27  1  0
 27 28  1  0
 28 29  2  0
 29 30  1  0
 30 31  2  0
 31 32  1  0
 32 33  2  0
 16  4  2  0
 33 20  1  0
 14  7  1  0
 19 15  1  0
 26 21  1  0
 33 28  1  0
  3 34  1  0
  3 35  1  0
  5 36  1  0
  8 37  1  0
  9 38  1  0
 14 39  1  0
 17 40  1  0
 17 41  1  0
 18 42  1  0
 18 43  1  0
 19 44  1  0
 19 45  1  0
 22 46  1  0
 23 47  1  0
 24 48  1  0
 25 49  1  0
 29 50  1  0
 30 51  1  0
 31 52  1  0
 32 53  1  0
M  CHG  1   4   1
M  END
$$$$
