
     RDKit          3D

 47 51  0  0  0  0  0  0  0  0999 V2000
   -1.1299   -1.1124   -3.3311 C   0  0  0  0  0  0  0  0  0  0  0  0
   -1.8783   -0.2872   -2.3309 C   0  0  0  0  0  0  0  0  0  0  0  0
   -3.1377   -0.0042   -2.5540 N   0  0  0  0  0  0  0  0  0  0  0  0
   -3.7882    0.7535   -1.6201 C   0  0  0  0  0  0  0  0  0  0  0  0
   -5.4304    1.2008   -1.7868 S   0  0  0  0  0  0  0  0  0  0  0  0
   -5.4151    2.0489   -0.3028 C   0  0  0  0  0  0  0  0  0  0  0  0
   -4.1845    2.0124    0.3295 C   0  0  0  0  0  0  0  0  0  0  0  0
   -3.2750    1.2635   -0.4463 C   0  0  0  0  0  0  0  0  0  0  0  0
   -1.8037    0.9034   -0.2287 C   0  0  0  0  0  0  0  0  0  0  0  0
   -0.9999    1.2102    0.7559 N   0  0  0  0  0  0  0  0  0  0  0  0
    0.2169    0.6507    0.4562 N   0  0  0  0  0  0  0  0  0  0  0  0
    0.1126    0.0218   -0.6984 C   0  0  0  0  0  0  0  0  0  0  0  0
    1.4240   -0.8275   -1.4391 S   0  0  0  0  0  0  0  0  0  0  0  0
    2.8330   -0.0674   -0.5790 C   0  0  0  0  0  0  0  0  0  0  0  0
    4.1186   -0.6476   -1.1371 C   0  0  0  0  0  0  0  0  0  0  0  0
    4.6052   -0.2759   -2.2022 O   0  0  0  0  0  0  0  0  0  0  0  0
    4.6866   -1.6300   -0.3570 N   0  0  0  0  0  0  0  0  0  0  0  0
    5.8268   -2.3780   -0.8329 C   0  0  0  0  0  0  0  0  0  0  0  0
    6.4212   -3.1087    0.3109 C   0  0  0  0  0  0  0  0  0  0  0  0
    7.6586   -3.0761    0.9192 C   0  0  0  0  0  0  0  0  0  0  0  0
    7.6110   -4.0180    1.9738 C   0  0  0  0  0  0  0  0  0  0  0  0
    6.3499   -4.5642    1.9448 C   0  0  0  0  0  0  0  0  0  0  0  0
    5.6186   -4.0181    0.9404 O   0  0  0  0  0  0  0  0  0  0  0  0
   -1.1702    0.1430   -1.1892 N   0  0  0  0  0  0  0  0  0  0  0  0
   -3.9420    2.6715    1.6510 C   0  0  0  0  0  0  0  0  0  0  0  0
   -5.0421    3.6926    1.9826 C   0  0  0  0  0  0  0  0  0  0  0  0
   -6.4440    3.1357    1.6909 C   0  0  0  0  0  0  0  0  0  0  0  0
   -6.6221    2.7741    0.2079 C   0  0  0  0  0  0  0  0  0  0  0  0
   -1.7970   -1.3861   -4.1548 H   0  0  0  0  0  0  0  0  0  0  0  0
   -0.7775   -2.0405   -2.8754 H   0  0  0  0  0  0  0  0  0  0  0  0
   -0.3014   -0.5415   -3.7559 H   0  0  0  0  0  0  0  0  0  0  0  0
    2.8461    1.0153   -0.7404 H   0  0  0  0  0  0  0  0  0  0  0  0
    2.7703   -0.2553    0.4977 H   0  0  0  0  0  0  0  0  0  0  0  0
    4.1236   -2.0783    0.3574 H   0  0  0  0  0  0  0  0  0  0  0  0
    5.4776   -3.0797   -1.5982 H   0  0  0  0  0  0  0  0  0  0  0  0
    6.5495   -1.6961   -1.2949 H   0  0  0  0  0  0  0  0  0  0  0  0
    8.4906   -2.4473    0.6352 H   0  0  0  0  0  0  0  0  0  0  0  0
    8.3964   -4.2705    2.6706 H   0  0  0  0  0  0  0  0  0  0  0  0
    5.8440   -5.3124    2.5392 H   0  0  0  0  0  0  0  0  0  0  0  0
   -2.9675    3.1724    1.6599 H   0  0  0  0  0  0  0  0  0  0  0  0
   -3.9217    1.8974    2.4272 H   0  0  0  0  0  0  0  0  0  0  0  0
   -4.9663    3.9803    3.0370 H   0  0  0  0  0  0  0  0  0  0  0  0
   -4.8876    4.6054    1.3928 H   0  0  0  0  0  0  0  0  0  0  0  0
   -6.6081    2.2421    2.3066 H   0  0  0  0  0  0  0  0  0  0  0  0
   -7.2061    3.8675    1.9819 H   0  0  0  0  0  0  0  0  0  0  0  0
   -6.7577    3.6925   -0.3763 H   0  0  0  0  0  0  0  0  0  0  0  0
   -7.5270    2.1680    0.0873 H   0  0  0  0  0  0  0  0  0  0  0  0
  1  2  1  0
  2  3  2  0
  3  4  1  0
  4  5  1  0
  5  6  1  0
  6  7  2  0
  7  8  1  0
  8  9  1  0
  9 10  2  0
 10 11  1  0
 11 12  2  0
 12 13  1  0
 13 14  1  0
 14 15  1  0
 15 16  2  0
 15 17  1  0
 17 18  1  0
 18 19  1  0
 19 20  2  0
 20 21  1  0
 21 22  2  0
 22 23  1  0
 12 24  1  0
  7 25  1  0
 25 26  1  0
 26 27  1  0
 27 28  1  0
 24  2  1  0
  8  4  2  0
 24  9  1  0
 28  6  1  0
 23 19  1  0
  1 29  1  0
  1 30  1  0
  1 31  1  0
 14 32  1  0
 14 33  1  0
 17 34  1  0
 18 35  1  0
 18 36  1  0
 20 37  1  0
 21 38  1  0
 22 39  1  0
 25 40  1  0
 25 41  1  0
 26 42  1  0
 26 43  1  0
 27 44  1  0
 27 45  1  0
 28 46  1  0
 28 47  1  0
M  END
$$$$
