
     RDKit          3D

 52 55  0  0  0  0  0  0  0  0999 V2000
    6.2486    1.4428    0.4563 C   0  0  0  0  0  0  0  0  0  0  0  0
    5.3292    0.4047    0.7728 O   0  0  0  0  0  0  0  0  0  0  0  0
    4.1575    0.3833    0.0698 C   0  0  0  0  0  0  0  0  0  0  0  0
    3.7705    1.2927   -0.9114 C   0  0  0  0  0  0  0  0  0  0  0  0
    2.5297    1.1604   -1.5519 C   0  0  0  0  0  0  0  0  0  0  0  0
    1.6635    0.1172   -1.2241 C   0  0  0  0  0  0  0  0  0  0  0  0
    0.3822   -0.0580   -1.7899 N   0  0  0  0  0  0  0  0  0  0  0  0
   -0.2432    0.7741   -2.7108 C   0  0  0  0  0  0  0  0  0  0  0  0
    0.2770    1.7050   -3.3194 O   0  0  0  0  0  0  0  0  0  0  0  0
   -1.7148    0.4430   -2.9085 C   0  0  0  0  0  0  0  0  0  0  0  0
   -2.7866    1.4985   -1.8824 S   0  0  0  0  0  0  0  0  0  0  0  0
   -2.0010    1.2829   -0.3234 C   0  0  0  0  0  0  0  0  0  0  0  0
   -1.2282    2.2553    0.0471 N   0  0  0  0  0  0  0  0  0  0  0  0
   -0.4892    2.0504    1.1740 C   0  0  0  0  0  0  0  0  0  0  0  0
   -0.5224    0.9505    1.9221 C   0  0  0  0  0  0  0  0  0  0  0  0
   -1.4410   -0.1466    1.5569 C   0  0  0  0  0  0  0  0  0  0  0  0
   -1.5390   -1.1499    2.2625 O   0  0  0  0  0  0  0  0  0  0  0  0
   -2.1722    0.0922    0.3845 N   0  0  0  0  0  0  0  0  0  0  0  0
   -3.1120   -0.9081   -0.0067 C   0  0  0  0  0  0  0  0  0  0  0  0
   -4.4829   -0.6113   -0.0147 C   0  0  0  0  0  0  0  0  0  0  0  0
   -5.4107   -1.5862   -0.3827 C   0  0  0  0  0  0  0  0  0  0  0  0
   -4.9772   -2.8587   -0.7502 C   0  0  0  0  0  0  0  0  0  0  0  0
   -3.6151   -3.1647   -0.7478 C   0  0  0  0  0  0  0  0  0  0  0  0
   -2.6807   -2.1993   -0.3606 C   0  0  0  0  0  0  0  0  0  0  0  0
   -1.3263   -2.4307   -0.4377 O   0  0  0  0  0  0  0  0  0  0  0  0
   -0.9493   -3.6557    0.1988 C   0  0  0  0  0  0  0  0  0  0  0  0
    0.5634    0.9089    3.2470 S   0  0  0  0  0  0  0  0  0  0  0  0
    1.1323    2.6170    2.9312 C   0  0  0  0  0  0  0  0  0  0  0  0
    0.5182    3.0728    1.6029 C   0  0  0  0  0  0  0  0  0  0  0  0
    2.0601   -0.7958   -0.2428 C   0  0  0  0  0  0  0  0  0  0  0  0
    3.2945   -0.6605    0.3998 C   0  0  0  0  0  0  0  0  0  0  0  0
    7.1275    1.3163    1.0954 H   0  0  0  0  0  0  0  0  0  0  0  0
    6.5808    1.3725   -0.5847 H   0  0  0  0  0  0  0  0  0  0  0  0
    5.8205    2.4277    0.6704 H   0  0  0  0  0  0  0  0  0  0  0  0
    4.4036    2.1227   -1.2067 H   0  0  0  0  0  0  0  0  0  0  0  0
    2.2712    1.9030   -2.3006 H   0  0  0  0  0  0  0  0  0  0  0  0
   -0.1496   -0.8484   -1.4330 H   0  0  0  0  0  0  0  0  0  0  0  0
   -1.9628    0.6074   -3.9624 H   0  0  0  0  0  0  0  0  0  0  0  0
   -1.9075   -0.6128   -2.7037 H   0  0  0  0  0  0  0  0  0  0  0  0
   -4.8404    0.3725    0.2810 H   0  0  0  0  0  0  0  0  0  0  0  0
   -6.4730   -1.3522   -0.3829 H   0  0  0  0  0  0  0  0  0  0  0  0
   -5.7024   -3.6132   -1.0467 H   0  0  0  0  0  0  0  0  0  0  0  0
   -3.3012   -4.1527   -1.0711 H   0  0  0  0  0  0  0  0  0  0  0  0
   -1.0951   -4.4993   -0.4828 H   0  0  0  0  0  0  0  0  0  0  0  0
   -1.4909   -3.8172    1.1379 H   0  0  0  0  0  0  0  0  0  0  0  0
    0.1174   -3.5980    0.4335 H   0  0  0  0  0  0  0  0  0  0  0  0
    2.2256    2.6489    2.8966 H   0  0  0  0  0  0  0  0  0  0  0  0
    0.7955    3.2573    3.7528 H   0  0  0  0  0  0  0  0  0  0  0  0
    1.2995    3.1714    0.8402 H   0  0  0  0  0  0  0  0  0  0  0  0
    0.0513    4.0568    1.7231 H   0  0  0  0  0  0  0  0  0  0  0  0
    1.4138   -1.6156    0.0538 H   0  0  0  0  0  0  0  0  0  0  0  0
    3.5812   -1.3733    1.1695 H   0  0  0  0  0  0  0  0  0  0  0  0
  1  2  1  0
  2  3  1  0
  3  4  2  0
  4  5  1  0
  5  6  2  0
  6  7  1  0
  7  8  1  0
  8  9  2  0
  8 10  1  0
 10 11  1  0
 11 12  1  0
 12 13  2  0
 13 14  1  0
 14 15  2  0
 15 16  1  0
 16 17  2  0
 16 18  1  0
 18 19  1  0
 19 20  2  0
 20 21  1  0
 21 22  2  0
 22 23  1  0
 23 24  2  0
 24 25  1  0
 25 26  1  0
 15 27  1  0
 27 28  1  0
 28 29  1  0
  6 30  1  0
 30 31  2  0
 31  3  1  0
 18 12  1  0
 24 19  1  0
 29 14  1  0
  1 32  1  0
  1 33  1  0
  1 34  1  0
  4 35  1  0
  5 36  1  0
  7 37  1  0
 10 38  1  0
 10 39  1  0
 20 40  1  0
 21 41  1  0
 22 42  1  0
 23 43  1  0
 26 44  1  0
 26 45  1  0
 26 46  1  0
 28 47  1  0
 28 48  1  0
 29 49  1  0
 29 50  1  0
 30 51  1  0
 31 52  1  0
M  END
$$$$
