
     RDKit          3D

 52 53  0  0  0  0  0  0  0  0999 V2000
    6.7993   -0.1856   -0.0162 C   0  0  0  0  0  0  0  0  0  0  0  0
    6.0592   -1.4739    0.3147 C   0  0  0  0  0  0  0  0  0  0  0  0
    4.9633   -1.8141   -0.6976 C   0  0  0  0  0  0  0  0  0  0  0  0
    3.8995   -0.8047   -0.6818 N   0  0  0  0  0  0  0  0  0  0  0  0
    2.8320   -1.1581   -1.6285 C   0  0  0  0  0  0  0  0  0  0  0  0
    1.7640   -0.0592   -1.7976 C   0  0  0  0  0  0  0  0  0  0  0  0
    0.8286   -0.4958   -2.7974 O   0  0  0  0  0  0  0  0  0  0  0  0
    1.0018    0.2405   -0.5019 C   0  0  0  0  0  0  0  0  0  0  0  0
    0.0013    1.2392   -0.7998 O   0  0  0  0  0  0  0  0  0  0  0  0
   -0.1031    2.1435    0.2214 C   0  0  0  0  0  0  0  0  0  0  0  0
    0.4233    3.4168   -0.0064 C   0  0  0  0  0  0  0  0  0  0  0  0
    0.3754    4.3807    1.0032 C   0  0  0  0  0  0  0  0  0  0  0  0
   -0.1955    4.0749    2.2397 C   0  0  0  0  0  0  0  0  0  0  0  0
   -0.7442    2.8101    2.4628 C   0  0  0  0  0  0  0  0  0  0  0  0
   -0.7174    1.8509    1.4424 C   0  0  0  0  0  0  0  0  0  0  0  0
   -1.3657    0.5500    1.7078 C   0  0  0  0  0  0  0  0  0  0  0  0
   -0.9936   -0.1071    2.6773 O   0  0  0  0  0  0  0  0  0  0  0  0
   -2.4779    0.1244    0.7700 C   0  0  0  0  0  0  0  0  0  0  0  0
   -3.4029   -0.8857    1.4485 C   0  0  0  0  0  0  0  0  0  0  0  0
   -4.5850   -1.2299    0.5785 C   0  0  0  0  0  0  0  0  0  0  0  0
   -4.5456   -2.3390   -0.2774 C   0  0  0  0  0  0  0  0  0  0  0  0
   -5.6425   -2.6473   -1.0859 C   0  0  0  0  0  0  0  0  0  0  0  0
   -6.7827   -1.8487   -1.0517 C   0  0  0  0  0  0  0  0  0  0  0  0
   -6.8290   -0.7385   -0.2094 C   0  0  0  0  0  0  0  0  0  0  0  0
   -5.7342   -0.4291    0.6006 C   0  0  0  0  0  0  0  0  0  0  0  0
    6.1327    0.6800    0.0176 H   0  0  0  0  0  0  0  0  0  0  0  0
    7.6007   -0.0183    0.7077 H   0  0  0  0  0  0  0  0  0  0  0  0
    7.2479   -0.2385   -1.0125 H   0  0  0  0  0  0  0  0  0  0  0  0
    5.6328   -1.3980    1.3235 H   0  0  0  0  0  0  0  0  0  0  0  0
    6.7826   -2.2980    0.3395 H   0  0  0  0  0  0  0  0  0  0  0  0
    5.4044   -1.8824   -1.7008 H   0  0  0  0  0  0  0  0  0  0  0  0
    4.5485   -2.7984   -0.4492 H   0  0  0  0  0  0  0  0  0  0  0  0
    3.5236   -0.7463    0.2649 H   0  0  0  0  0  0  0  0  0  0  0  0
    2.3434   -2.0922   -1.3213 H   0  0  0  0  0  0  0  0  0  0  0  0
    3.2636   -1.3550   -2.6195 H   0  0  0  0  0  0  0  0  0  0  0  0
    2.2257    0.8606   -2.1784 H   0  0  0  0  0  0  0  0  0  0  0  0
    0.1402    0.1915   -2.8343 H   0  0  0  0  0  0  0  0  0  0  0  0
    1.6941    0.5762    0.2818 H   0  0  0  0  0  0  0  0  0  0  0  0
    0.4800   -0.6614   -0.1610 H   0  0  0  0  0  0  0  0  0  0  0  0
    0.8888    3.6537   -0.9599 H   0  0  0  0  0  0  0  0  0  0  0  0
    0.7954    5.3688    0.8262 H   0  0  0  0  0  0  0  0  0  0  0  0
   -0.2230    4.8259    3.0271 H   0  0  0  0  0  0  0  0  0  0  0  0
   -1.1983    2.5767    3.4247 H   0  0  0  0  0  0  0  0  0  0  0  0
   -3.0462    1.0162    0.4754 H   0  0  0  0  0  0  0  0  0  0  0  0
   -2.0415   -0.3190   -0.1335 H   0  0  0  0  0  0  0  0  0  0  0  0
   -2.8470   -1.8006    1.6948 H   0  0  0  0  0  0  0  0  0  0  0  0
   -3.7640   -0.4937    2.4085 H   0  0  0  0  0  0  0  0  0  0  0  0
   -3.6649   -2.9752   -0.3160 H   0  0  0  0  0  0  0  0  0  0  0  0
   -5.6068   -3.5158   -1.7384 H   0  0  0  0  0  0  0  0  0  0  0  0
   -7.6375   -2.0921   -1.6767 H   0  0  0  0  0  0  0  0  0  0  0  0
   -7.7180   -0.1155   -0.1797 H   0  0  0  0  0  0  0  0  0  0  0  0
   -5.7857    0.4365    1.2544 H   0  0  0  0  0  0  0  0  0  0  0  0
  1  2  1  0
  2  3  1  0
  3  4  1  0
  4  5  1  0
  5  6  1  0
  6  7  1  0
  6  8  1  0
  8  9  1  0
  9 10  1  0
 10 11  2  0
 11 12  1  0
 12 13  2  0
 13 14  1  0
 14 15  2  0
 15 16  1  0
 16 17  2  0
 16 18  1  0
 18 19  1  0
 19 20  1  0
 20 21  2  0
 21 22  1  0
 22 23  2  0
 23 24  1  0
 24 25  2  0
 15 10  1  0
 25 20  1  0
  1 26  1  0
  1 27  1  0
  1 28  1  0
  2 29  1  0
  2 30  1  0
  3 31  1  0
  3 32  1  0
  4 33  1  0
  5 34  1  0
  5 35  1  0
  6 36  1  0
  7 37  1  0
  8 38  1  0
  8 39  1  0
 11 40  1  0
 12 41  1  0
 13 42  1  0
 14 43  1  0
 18 44  1  0
 18 45  1  0
 19 46  1  0
 19 47  1  0
 21 48  1  0
 22 49  1  0
 23 50  1  0
 24 51  1  0
 25 52  1  0
M  END
$$$$
