
     RDKit          3D

 52 54  0  0  0  0  0  0  0  0999 V2000
   -4.2463   -1.8620   -2.2982 C   0  0  0  0  0  0  0  0  0  0  0  0
   -4.0857   -1.8095   -0.8511 N   0  0  0  0  0  0  0  0  0  0  0  0
   -5.2438   -1.3660   -0.0750 C   0  0  0  0  0  0  0  0  0  0  0  0
   -5.5357    0.1050   -0.2618 C   0  0  0  0  0  0  0  0  0  0  0  0
   -6.5790    0.5288   -1.0979 C   0  0  0  0  0  0  0  0  0  0  0  0
   -6.8328    1.8897   -1.2787 C   0  0  0  0  0  0  0  0  0  0  0  0
   -6.0467    2.8394   -0.6285 C   0  0  0  0  0  0  0  0  0  0  0  0
   -5.0062    2.4304    0.2032 C   0  0  0  0  0  0  0  0  0  0  0  0
   -4.7509    1.0706    0.3854 C   0  0  0  0  0  0  0  0  0  0  0  0
   -2.8505   -1.8820   -0.2073 C   0  0  0  0  0  0  0  0  0  0  0  0
   -2.7351   -1.7170    1.0093 O   0  0  0  0  0  0  0  0  0  0  0  0
   -1.6293   -2.1833   -1.0820 C   0  0  0  0  0  0  0  0  0  0  0  0
   -0.4278   -2.1481   -0.3080 O   0  0  0  0  0  0  0  0  0  0  0  0
    0.6984   -2.4019   -1.0237 C   0  0  0  0  0  0  0  0  0  0  0  0
    0.7240   -2.6578   -2.2227 O   0  0  0  0  0  0  0  0  0  0  0  0
    1.9167   -2.3566   -0.1220 C   0  0  0  0  0  0  0  0  0  0  0  0
    3.1374   -2.3616   -0.9380 N   0  0  0  0  0  0  0  0  0  0  0  0
    4.6164   -2.2998   -0.1730 S   0  0  0  0  0  6  0  0  0  0  0  0
    5.6041   -2.6964   -1.1508 O   0  0  0  0  0  0  0  0  0  0  0  0
    4.4877   -2.9725    1.1001 O   0  0  0  0  0  0  0  0  0  0  0  0
    4.8070   -0.5604    0.1106 C   0  0  0  0  0  0  0  0  0  0  0  0
    5.1389    0.2717   -0.9592 C   0  0  0  0  0  0  0  0  0  0  0  0
    5.2948    1.6409   -0.7403 C   0  0  0  0  0  0  0  0  0  0  0  0
    5.1275    2.1859    0.5440 C   0  0  0  0  0  0  0  0  0  0  0  0
    5.2802    3.5616    0.7775 C   0  0  0  0  0  0  0  0  0  0  0  0
    5.1149    4.0906    2.0586 C   0  0  0  0  0  0  0  0  0  0  0  0
    4.7959    3.2519    3.1225 C   0  0  0  0  0  0  0  0  0  0  0  0
    4.6407    1.8815    2.9089 C   0  0  0  0  0  0  0  0  0  0  0  0
    4.8019    1.3330    1.6268 C   0  0  0  0  0  0  0  0  0  0  0  0
    4.6479   -0.0428    1.3992 C   0  0  0  0  0  0  0  0  0  0  0  0
   -5.2389   -2.2508   -2.5437 H   0  0  0  0  0  0  0  0  0  0  0  0
   -4.1308   -0.8529   -2.7040 H   0  0  0  0  0  0  0  0  0  0  0  0
   -3.5022   -2.5147   -2.7587 H   0  0  0  0  0  0  0  0  0  0  0  0
   -6.1059   -1.9726   -0.3789 H   0  0  0  0  0  0  0  0  0  0  0  0
   -5.0977   -1.5684    0.9926 H   0  0  0  0  0  0  0  0  0  0  0  0
   -7.2023   -0.1982   -1.6132 H   0  0  0  0  0  0  0  0  0  0  0  0
   -7.6451    2.2100   -1.9260 H   0  0  0  0  0  0  0  0  0  0  0  0
   -6.2456    3.8986   -0.7683 H   0  0  0  0  0  0  0  0  0  0  0  0
   -4.3930    3.1694    0.7124 H   0  0  0  0  0  0  0  0  0  0  0  0
   -3.9357    0.7635    1.0391 H   0  0  0  0  0  0  0  0  0  0  0  0
   -1.7518   -3.1865   -1.5050 H   0  0  0  0  0  0  0  0  0  0  0  0
   -1.5689   -1.4237   -1.8692 H   0  0  0  0  0  0  0  0  0  0  0  0
    1.8784   -1.4451    0.4810 H   0  0  0  0  0  0  0  0  0  0  0  0
    1.8863   -3.2465    0.5136 H   0  0  0  0  0  0  0  0  0  0  0  0
    3.1220   -2.8825   -1.8173 H   0  0  0  0  0  0  0  0  0  0  0  0
    5.2774   -0.1368   -1.9578 H   0  0  0  0  0  0  0  0  0  0  0  0
    5.5522    2.2826   -1.5806 H   0  0  0  0  0  0  0  0  0  0  0  0
    5.5318    4.2344   -0.0396 H   0  0  0  0  0  0  0  0  0  0  0  0
    5.2372    5.1578    2.2251 H   0  0  0  0  0  0  0  0  0  0  0  0
    4.6689    3.6634    4.1206 H   0  0  0  0  0  0  0  0  0  0  0  0
    4.3933    1.2435    3.7549 H   0  0  0  0  0  0  0  0  0  0  0  0
    4.4055   -0.7075    2.2262 H   0  0  0  0  0  0  0  0  0  0  0  0
  1  2  1  0
  2  3  1  0
  3  4  1  0
  4  5  2  0
  5  6  1  0
  6  7  2  0
  7  8  1  0
  8  9  2  0
  2 10  1  0
 10 11  2  0
 10 12  1  0
 12 13  1  0
 13 14  1  0
 14 15  2  0
 14 16  1  0
 16 17  1  0
 17 18  1  0
 18 19  2  0
 18 20  2  0
 18 21  1  0
 21 22  2  0
 22 23  1  0
 23 24  2  0
 24 25  1  0
 25 26  2  0
 26 27  1  0
 27 28  2  0
 28 29  1  0
 29 30  2  0
  9  4  1  0
 30 21  1  0
 29 24  1  0
  1 31  1  0
  1 32  1  0
  1 33  1  0
  3 34  1  0
  3 35  1  0
  5 36  1  0
  6 37  1  0
  7 38  1  0
  8 39  1  0
  9 40  1  0
 12 41  1  0
 12 42  1  0
 16 43  1  0
 16 44  1  0
 17 45  1  0
 22 46  1  0
 23 47  1  0
 25 48  1  0
 26 49  1  0
 27 50  1  0
 28 51  1  0
 30 52  1  0
M  END
$$$$
