
     RDKit          3D

 33 34  0  0  0  0  0  0  0  0999 V2000
   -3.3273   -0.8560   -1.6804 C   0  0  0  0  0  0  0  0  0  0  0  0
   -1.9885   -1.0348   -0.9749 C   0  0  0  0  0  0  0  0  0  0  0  0
   -1.5945    0.2375   -0.3339 N   0  0  0  0  0  0  0  0  0  0  0  0
   -2.1382    0.4094    1.0323 C   0  0  0  0  0  0  0  0  0  0  0  0
   -2.1729    1.8792    1.4310 C   0  0  0  0  0  0  0  0  0  0  0  0
   -0.1691    0.4063   -0.3610 C   0  0  0  0  0  0  0  0  0  0  0  0
    0.2737    1.5644   -1.0298 C   0  0  0  0  0  0  0  0  0  0  0  0
    1.6236    1.8525   -1.1288 C   0  0  0  0  0  0  0  0  0  0  0  0
    2.5336    0.9677   -0.5492 C   0  0  0  0  0  0  0  0  0  0  0  0
    3.9373    1.3174   -0.6661 N   0  0  0  0  0  4  0  0  0  0  0  0
    4.4043    1.3917   -1.8103 O   0  0  0  0  0  0  0  0  0  0  0  0
    4.5592    1.5332    0.3824 O   0  0  0  0  0  1  0  0  0  0  0  0
    2.1414   -0.2200    0.1219 C   0  0  0  0  0  0  0  0  0  0  0  0
    3.0402   -1.1551    0.6959 C   0  0  0  0  0  0  0  0  0  0  0  0
    2.5749   -2.2964    1.3328 C   0  0  0  0  0  0  0  0  0  0  0  0
    1.2154   -2.4862    1.3816 C   0  0  0  0  0  0  0  0  0  0  0  0
    0.3251   -1.6279    0.8442 N   0  0  0  0  0  0  0  0  0  0  0  0
    0.7586   -0.5057    0.2180 C   0  0  0  0  0  0  0  0  0  0  0  0
   -3.6125   -1.7809   -2.1914 H   0  0  0  0  0  0  0  0  0  0  0  0
   -4.1238   -0.6000   -0.9749 H   0  0  0  0  0  0  0  0  0  0  0  0
   -3.2713   -0.0560   -2.4262 H   0  0  0  0  0  0  0  0  0  0  0  0
   -1.2580   -1.3410   -1.7355 H   0  0  0  0  0  0  0  0  0  0  0  0
   -2.0666   -1.8460   -0.2411 H   0  0  0  0  0  0  0  0  0  0  0  0
   -1.5888   -0.1722    1.7810 H   0  0  0  0  0  0  0  0  0  0  0  0
   -3.1713    0.0423    1.0574 H   0  0  0  0  0  0  0  0  0  0  0  0
   -1.1652    2.2927    1.5367 H   0  0  0  0  0  0  0  0  0  0  0  0
   -2.6828    1.9967    2.3925 H   0  0  0  0  0  0  0  0  0  0  0  0
   -2.7080    2.4760    0.6849 H   0  0  0  0  0  0  0  0  0  0  0  0
   -0.4604    2.2361   -1.4709 H   0  0  0  0  0  0  0  0  0  0  0  0
    1.9525    2.7501   -1.6468 H   0  0  0  0  0  0  0  0  0  0  0  0
    4.1176   -1.0044    0.6560 H   0  0  0  0  0  0  0  0  0  0  0  0
    3.2568   -3.0125    1.7770 H   0  0  0  0  0  0  0  0  0  0  0  0
    0.7850   -3.3579    1.8661 H   0  0  0  0  0  0  0  0  0  0  0  0
  1  2  1  0
  2  3  1  0
  3  4  1  0
  4  5  1  0
  3  6  1  0
  6  7  2  0
  7  8  1  0
  8  9  2  0
  9 10  1  0
 10 11  2  0
 10 12  1  0
  9 13  1  0
 13 14  2  0
 14 15  1  0
 15 16  2  0
 16 17  1  0
 17 18  2  0
 18  6  1  0
 18 13  1  0
  1 19  1  0
  1 20  1  0
  1 21  1  0
  2 22  1  0
  2 23  1  0
  4 24  1  0
  4 25  1  0
  5 26  1  0
  5 27  1  0
  5 28  1  0
  7 29  1  0
  8 30  1  0
 14 31  1  0
 15 32  1  0
 16 33  1  0
M  CHG  2  10   1  12  -1
M  END
$$$$
