
     RDKit          3D

 33 35  0  0  0  0  0  0  0  0999 V2000
   -1.6062    2.5532    2.3757 C   0  0  0  0  0  0  0  0  0  0  0  0
   -2.8238    2.2326    1.7145 O   0  0  0  0  0  0  0  0  0  0  0  0
   -2.7239    1.3646    0.6304 C   0  0  0  0  0  0  0  0  0  0  0  0
   -3.9283    1.2127   -0.0692 C   0  0  0  0  0  0  0  0  0  0  0  0
   -4.0163    0.3816   -1.1830 C   0  0  0  0  0  0  0  0  0  0  0  0
   -2.9032   -0.3324   -1.6420 C   0  0  0  0  0  0  0  0  0  0  0  0
   -2.8999   -1.1651   -2.7294 O   0  0  0  0  0  0  0  0  0  0  0  0
   -4.0742   -1.2021   -3.5300 C   0  0  0  0  0  0  0  0  0  0  0  0
   -1.6973   -0.1860   -0.9208 C   0  0  0  0  0  0  0  0  0  0  0  0
   -0.1657   -0.9286   -1.2269 S   0  0  0  0  0  0  0  0  0  0  0  0
    0.5008   -0.1366    0.1113 C   0  0  0  0  0  0  0  0  0  0  0  0
    1.8040   -0.2833    0.5036 N   0  0  0  0  0  0  0  0  0  0  0  0
    2.7929   -1.0282   -0.0971 C   0  0  0  0  0  0  0  0  0  0  0  0
    2.6600   -1.6815   -1.1273 O   0  0  0  0  0  0  0  0  0  0  0  0
    4.0847   -0.9826    0.5922 C   0  0  0  0  0  0  0  0  0  0  0  0
    5.2454   -1.6358    0.2096 C   0  0  0  0  0  0  0  0  0  0  0  0
    6.3363   -1.3855    1.0928 C   0  0  0  0  0  0  0  0  0  0  0  0
    5.9631   -0.5485    2.1110 C   0  0  0  0  0  0  0  0  0  0  0  0
    7.1467    0.0240    3.4962 Br  0  0  0  0  0  0  0  0  0  0  0  0
    4.3418   -0.0733    2.0282 S   0  0  0  0  0  0  0  0  0  0  0  0
   -0.3098    0.6386    0.7853 N   0  0  0  0  0  0  0  0  0  0  0  0
   -1.5790    0.6390    0.2057 C   0  0  0  0  0  0  0  0  0  0  0  0
   -1.8265    3.3281    3.1174 H   0  0  0  0  0  0  0  0  0  0  0  0
   -1.2194    1.6850    2.9179 H   0  0  0  0  0  0  0  0  0  0  0  0
   -0.8676    2.9702    1.6833 H   0  0  0  0  0  0  0  0  0  0  0  0
   -4.8095    1.7569    0.2657 H   0  0  0  0  0  0  0  0  0  0  0  0
   -4.9812    0.3056   -1.6757 H   0  0  0  0  0  0  0  0  0  0  0  0
   -3.8619   -1.8257   -4.4037 H   0  0  0  0  0  0  0  0  0  0  0  0
   -4.9031   -1.6639   -2.9845 H   0  0  0  0  0  0  0  0  0  0  0  0
   -4.3434   -0.2043   -3.8926 H   0  0  0  0  0  0  0  0  0  0  0  0
    2.0347    0.2380    1.3377 H   0  0  0  0  0  0  0  0  0  0  0  0
    5.3003   -2.2666   -0.6716 H   0  0  0  0  0  0  0  0  0  0  0  0
    7.3298   -1.8002    0.9754 H   0  0  0  0  0  0  0  0  0  0  0  0
  1  2  1  0
  2  3  1  0
  3  4  2  0
  4  5  1  0
  5  6  2  0
  6  7  1  0
  7  8  1  0
  6  9  1  0
  9 10  1  0
 10 11  1  0
 11 12  1  0
 12 13  1  0
 13 14  2  0
 13 15  1  0
 15 16  2  0
 16 17  1  0
 17 18  2  0
 18 19  1  0
 18 20  1  0
 11 21  2  0
 21 22  1  0
 22  3  1  0
 22  9  2  0
 20 15  1  0
  1 23  1  0
  1 24  1  0
  1 25  1  0
  4 26  1  0
  5 27  1  0
  8 28  1  0
  8 29  1  0
  8 30  1  0
 12 31  1  0
 16 32  1  0
 17 33  1  0
M  END
$$$$
