
     RDKit          3D

 58 59  0  0  0  0  0  0  0  0999 V2000
    6.9526    0.8096   -2.8520 C   0  0  0  0  0  0  0  0  0  0  0  0
    7.3008   -0.6549   -3.0639 C   0  0  0  0  0  0  0  0  0  0  0  0
    7.4471   -1.4660   -1.7716 C   0  0  0  0  0  0  0  0  0  0  0  0
    6.1511   -1.6223   -0.9746 C   0  0  0  0  0  0  0  0  0  0  0  0
    5.8697   -0.4025   -0.2912 O   0  0  0  0  0  0  0  0  0  0  0  0
    4.7316   -0.3563    0.4643 C   0  0  0  0  0  0  0  0  0  0  0  0
    3.8302   -1.4031    0.6577 C   0  0  0  0  0  0  0  0  0  0  0  0
    2.6997   -1.2159    1.4614 C   0  0  0  0  0  0  0  0  0  0  0  0
    2.4590    0.0211    2.0704 C   0  0  0  0  0  0  0  0  0  0  0  0
    1.2412    0.1720    2.9124 C   0  0  0  0  0  0  0  0  0  0  0  0
    0.7437   -0.8036    3.4614 O   0  0  0  0  0  0  0  0  0  0  0  0
    0.7069    1.4425    2.9907 N   0  0  0  0  0  0  0  0  0  0  0  0
   -0.6128    1.6363    3.5775 C   0  0  0  0  0  0  0  0  0  0  0  0
   -1.7488    1.5940    2.5577 C   0  0  0  0  0  0  0  0  0  0  0  0
   -2.9376    1.5792    2.8564 O   0  0  0  0  0  0  0  0  0  0  0  0
   -1.2859    1.6779    1.2752 O   0  0  0  0  0  0  0  0  0  0  0  0
   -2.3140    1.6124    0.2813 C   0  0  0  0  0  0  0  0  0  0  0  0
   -2.8802    0.1998    0.1349 C   0  0  0  0  0  0  0  0  0  0  0  0
   -2.2031   -0.7966    0.4111 O   0  0  0  0  0  0  0  0  0  0  0  0
   -4.2958    0.0455   -0.3298 C   0  0  0  0  0  0  0  0  0  0  0  0
   -5.0605   -0.9645    0.1422 C   0  0  0  0  0  0  0  0  0  0  0  0
   -4.5736   -1.8913    1.0588 N   0  0  0  0  0  0  0  0  0  0  0  0
   -6.3782   -1.0778   -0.2948 N   0  0  0  0  0  0  0  0  0  0  0  0
   -7.2221   -2.1438    0.2439 C   0  0  0  0  0  0  0  0  0  0  0  0
   -6.9716   -0.2027   -1.2015 C   0  0  0  0  0  0  0  0  0  0  0  0
   -8.1221   -0.3564   -1.6170 O   0  0  0  0  0  0  0  0  0  0  0  0
   -6.1886    0.8570   -1.6259 N   0  0  0  0  0  0  0  0  0  0  0  0
   -6.7756    1.7805   -2.5798 C   0  0  0  0  0  0  0  0  0  0  0  0
   -4.8574    0.9945   -1.3116 C   0  0  0  0  0  0  0  0  0  0  0  0
   -4.1268    1.8435   -1.8221 O   0  0  0  0  0  0  0  0  0  0  0  0
    3.3698    1.0667    1.8899 C   0  0  0  0  0  0  0  0  0  0  0  0
    4.4974    0.8737    1.0866 C   0  0  0  0  0  0  0  0  0  0  0  0
    7.0177    1.3508   -3.8017 H   0  0  0  0  0  0  0  0  0  0  0  0
    5.9314    0.9288   -2.4793 H   0  0  0  0  0  0  0  0  0  0  0  0
    7.6420    1.2822   -2.1456 H   0  0  0  0  0  0  0  0  0  0  0  0
    8.2521   -0.7067   -3.6075 H   0  0  0  0  0  0  0  0  0  0  0  0
    6.5455   -1.1176   -3.7097 H   0  0  0  0  0  0  0  0  0  0  0  0
    7.8042   -2.4658   -2.0458 H   0  0  0  0  0  0  0  0  0  0  0  0
    8.2172   -1.0039   -1.1424 H   0  0  0  0  0  0  0  0  0  0  0  0
    6.2960   -2.4216   -0.2379 H   0  0  0  0  0  0  0  0  0  0  0  0
    5.3296   -1.8883   -1.6502 H   0  0  0  0  0  0  0  0  0  0  0  0
    3.9746   -2.3777    0.2036 H   0  0  0  0  0  0  0  0  0  0  0  0
    2.0019   -2.0388    1.6080 H   0  0  0  0  0  0  0  0  0  0  0  0
    0.9796    2.1039    2.2753 H   0  0  0  0  0  0  0  0  0  0  0  0
   -0.6112    2.6303    4.0340 H   0  0  0  0  0  0  0  0  0  0  0  0
   -0.8001    0.8763    4.3415 H   0  0  0  0  0  0  0  0  0  0  0  0
   -3.0996    2.3404    0.5115 H   0  0  0  0  0  0  0  0  0  0  0  0
   -1.8501    1.8910   -0.6699 H   0  0  0  0  0  0  0  0  0  0  0  0
   -3.5483   -1.8603    1.1447 H   0  0  0  0  0  0  0  0  0  0  0  0
   -4.8585   -2.8415    0.8445 H   0  0  0  0  0  0  0  0  0  0  0  0
   -8.2676   -2.0427   -0.0599 H   0  0  0  0  0  0  0  0  0  0  0  0
   -6.8549   -3.1080   -0.1222 H   0  0  0  0  0  0  0  0  0  0  0  0
   -7.1935   -2.1200    1.3382 H   0  0  0  0  0  0  0  0  0  0  0  0
   -6.7700    1.3068   -3.5667 H   0  0  0  0  0  0  0  0  0  0  0  0
   -7.8107    2.0047   -2.3036 H   0  0  0  0  0  0  0  0  0  0  0  0
   -6.2158    2.7185   -2.6309 H   0  0  0  0  0  0  0  0  0  0  0  0
    3.2350    2.0241    2.3841 H   0  0  0  0  0  0  0  0  0  0  0  0
    5.2073    1.6865    0.9493 H   0  0  0  0  0  0  0  0  0  0  0  0
  1  2  1  0
  2  3  1  0
  3  4  1  0
  4  5  1  0
  5  6  1  0
  6  7  2  0
  7  8  1  0
  8  9  2  0
  9 10  1  0
 10 11  2  0
 10 12  1  0
 12 13  1  0
 13 14  1  0
 14 15  2  0
 14 16  1  0
 16 17  1  0
 17 18  1  0
 18 19  2  0
 18 20  1  0
 20 21  2  0
 21 22  1  0
 21 23  1  0
 23 24  1  0
 23 25  1  0
 25 26  2  0
 25 27  1  0
 27 28  1  0
 27 29  1  0
 29 30  2  0
  9 31  1  0
 31 32  2  0
 32  6  1  0
 29 20  1  0
  1 33  1  0
  1 34  1  0
  1 35  1  0
  2 36  1  0
  2 37  1  0
  3 38  1  0
  3 39  1  0
  4 40  1  0
  4 41  1  0
  7 42  1  0
  8 43  1  0
 12 44  1  0
 13 45  1  0
 13 46  1  0
 17 47  1  0
 17 48  1  0
 22 49  1  0
 22 50  1  0
 24 51  1  0
 24 52  1  0
 24 53  1  0
 28 54  1  0
 28 55  1  0
 28 56  1  0
 31 57  1  0
 32 58  1  0
M  END
$$$$
