
     RDKit          3D

 36 37  0  0  0  0  0  0  0  0999 V2000
   -0.3095    0.8038    2.7916 O   0  0  0  0  0  0  0  0  0  0  0  0
   -0.1698    1.0836    1.6088 C   0  0  0  0  0  0  0  0  0  0  0  0
   -1.2332    0.8688    0.5987 C   0  0  0  0  0  0  0  0  0  0  0  0
   -2.3348    0.1784    0.9285 C   0  0  0  0  0  0  0  0  0  0  0  0
   -3.4110   -0.0737   -0.0363 C   0  0  0  0  0  0  0  0  0  0  0  0
   -4.6322    0.5863    0.1694 C   0  0  0  0  0  0  0  0  0  0  0  0
   -5.7008    0.3981   -0.7103 C   0  0  0  0  0  0  0  0  0  0  0  0
   -5.5632   -0.4549   -1.8032 C   0  0  0  0  0  0  0  0  0  0  0  0
   -4.3572   -1.1236   -2.0166 C   0  0  0  0  0  0  0  0  0  0  0  0
   -3.2845   -0.9372   -1.1385 C   0  0  0  0  0  0  0  0  0  0  0  0
   -1.8266   -1.8157   -1.4567 Cl  0  0  0  0  0  0  0  0  0  0  0  0
    0.9826    1.5884    1.0604 N   0  0  0  0  0  0  0  0  0  0  0  0
    2.2163    1.6397    1.8245 C   0  0  0  0  0  0  0  0  0  0  0  0
    2.9041    0.2728    1.9374 C   0  0  0  0  0  0  0  0  0  0  0  0
    3.2840   -0.2982    0.5901 C   0  0  0  0  0  0  0  0  0  0  0  0
    2.4458   -1.2252   -0.0457 C   0  0  0  0  0  0  0  0  0  0  0  0
    2.7738   -1.7281   -1.3050 C   0  0  0  0  0  0  0  0  0  0  0  0
    3.9419   -1.3111   -1.9396 C   0  0  0  0  0  0  0  0  0  0  0  0
    4.7831   -0.3912   -1.3159 C   0  0  0  0  0  0  0  0  0  0  0  0
    4.4558    0.1154   -0.0570 C   0  0  0  0  0  0  0  0  0  0  0  0
   -1.0890    1.2750   -0.3941 H   0  0  0  0  0  0  0  0  0  0  0  0
   -2.4812   -0.2155    1.9324 H   0  0  0  0  0  0  0  0  0  0  0  0
   -4.7579    1.2573    1.0178 H   0  0  0  0  0  0  0  0  0  0  0  0
   -6.6411    0.9185   -0.5403 H   0  0  0  0  0  0  0  0  0  0  0  0
   -6.3955   -0.6026   -2.4870 H   0  0  0  0  0  0  0  0  0  0  0  0
   -4.2598   -1.7931   -2.8679 H   0  0  0  0  0  0  0  0  0  0  0  0
    1.0739    1.6123    0.0530 H   0  0  0  0  0  0  0  0  0  0  0  0
    2.8696    2.3650    1.3261 H   0  0  0  0  0  0  0  0  0  0  0  0
    1.9909    2.0193    2.8269 H   0  0  0  0  0  0  0  0  0  0  0  0
    2.2555   -0.4370    2.4664 H   0  0  0  0  0  0  0  0  0  0  0  0
    3.8083    0.3698    2.5511 H   0  0  0  0  0  0  0  0  0  0  0  0
    1.5292   -1.5595    0.4371 H   0  0  0  0  0  0  0  0  0  0  0  0
    2.1165   -2.4463   -1.7887 H   0  0  0  0  0  0  0  0  0  0  0  0
    4.1982   -1.7047   -2.9194 H   0  0  0  0  0  0  0  0  0  0  0  0
    5.6955   -0.0684   -1.8105 H   0  0  0  0  0  0  0  0  0  0  0  0
    5.1221    0.8334    0.4156 H   0  0  0  0  0  0  0  0  0  0  0  0
  1  2  2  0
  2  3  1  0
  3  4  2  3
  4  5  1  0
  5  6  2  0
  6  7  1  0
  7  8  2  0
  8  9  1  0
  9 10  2  0
 10 11  1  0
  2 12  1  0
 12 13  1  0
 13 14  1  0
 14 15  1  0
 15 16  2  0
 16 17  1  0
 17 18  2  0
 18 19  1  0
 19 20  2  0
 10  5  1  0
 20 15  1  0
  3 21  1  0
  4 22  1  0
  6 23  1  0
  7 24  1  0
  8 25  1  0
  9 26  1  0
 12 27  1  0
 13 28  1  0
 13 29  1  0
 14 30  1  0
 14 31  1  0
 16 32  1  0
 17 33  1  0
 18 34  1  0
 19 35  1  0
 20 36  1  0
M  END
$$$$
