
     RDKit          3D

 44 44  0  0  0  0  0  0  0  0999 V2000
   -5.0521   -0.3413   -0.5385 C   0  0  0  0  0  0  0  0  0  0  0  0
   -4.3480    0.9442   -0.1268 C   0  0  0  0  0  0  0  0  0  0  0  0
   -2.8951    0.8401   -0.3108 N   0  0  0  0  0  0  0  0  0  0  0  0
   -2.3900    1.2062   -1.6430 C   0  0  0  0  0  0  0  0  0  0  0  0
   -1.9883    2.6734   -1.6893 C   0  0  0  0  0  0  0  0  0  0  0  0
   -2.0553    0.3347    0.6770 C   0  0  0  0  0  0  0  0  0  0  0  0
   -2.5467   -0.2549    1.8532 C   0  0  0  0  0  0  0  0  0  0  0  0
   -1.7017   -0.7733    2.8430 C   0  0  0  0  0  0  0  0  0  0  0  0
   -0.3211   -0.7188    2.6883 C   0  0  0  0  0  0  0  0  0  0  0  0
    0.2104   -0.1420    1.5423 C   0  0  0  0  0  0  0  0  0  0  0  0
    1.5461   -0.0077    1.2664 O   0  0  0  0  0  0  0  0  0  0  0  0
    2.4177   -0.8872    1.9632 C   0  0  0  0  0  0  0  0  0  0  0  0
    3.8593   -0.7933    1.4493 C   0  0  0  0  0  0  0  0  0  0  0  0
    4.7638   -0.4727    2.2261 O   0  0  0  0  0  0  0  0  0  0  0  0
    4.1237   -1.1420    0.1232 N   0  0  0  0  0  0  0  0  0  0  0  0
    5.5056   -1.0643   -0.3311 C   0  0  0  0  0  0  0  0  0  0  0  0
    3.0939   -1.2680   -0.9175 C   0  0  0  0  0  0  0  0  0  0  0  0
    2.8309    0.0505   -1.6477 C   0  0  0  0  0  0  0  0  0  0  0  0
    1.7513   -0.1055   -2.6270 C   0  0  0  0  0  0  0  0  0  0  0  0
    0.9015   -0.2258   -3.4078 N   0  0  0  0  0  0  0  0  0  0  0  0
   -0.6528    0.3840    0.5678 C   0  0  0  0  0  0  0  0  0  0  0  0
   -4.7188   -1.1967    0.0566 H   0  0  0  0  0  0  0  0  0  0  0  0
   -4.8614   -0.5766   -1.5907 H   0  0  0  0  0  0  0  0  0  0  0  0
   -6.1336   -0.2375   -0.4064 H   0  0  0  0  0  0  0  0  0  0  0  0
   -4.7366    1.7650   -0.7432 H   0  0  0  0  0  0  0  0  0  0  0  0
   -4.6073    1.2193    0.9018 H   0  0  0  0  0  0  0  0  0  0  0  0
   -1.5618    0.5614   -1.9548 H   0  0  0  0  0  0  0  0  0  0  0  0
   -3.1728    1.0402   -2.3940 H   0  0  0  0  0  0  0  0  0  0  0  0
   -1.6261    2.9340   -2.6887 H   0  0  0  0  0  0  0  0  0  0  0  0
   -2.8403    3.3211   -1.4579 H   0  0  0  0  0  0  0  0  0  0  0  0
   -1.1953    2.9016   -0.9710 H   0  0  0  0  0  0  0  0  0  0  0  0
   -3.6139   -0.3404    2.0322 H   0  0  0  0  0  0  0  0  0  0  0  0
   -2.1319   -1.2182    3.7367 H   0  0  0  0  0  0  0  0  0  0  0  0
    0.3017   -1.1154    3.4820 H   0  0  0  0  0  0  0  0  0  0  0  0
    2.4439   -0.6139    3.0252 H   0  0  0  0  0  0  0  0  0  0  0  0
    2.0974   -1.9322    1.8662 H   0  0  0  0  0  0  0  0  0  0  0  0
    5.6822   -1.8300   -1.0920 H   0  0  0  0  0  0  0  0  0  0  0  0
    6.2069   -1.2268    0.4922 H   0  0  0  0  0  0  0  0  0  0  0  0
    5.6838   -0.0721   -0.7552 H   0  0  0  0  0  0  0  0  0  0  0  0
    3.4306   -2.0350   -1.6267 H   0  0  0  0  0  0  0  0  0  0  0  0
    2.1709   -1.6580   -0.4783 H   0  0  0  0  0  0  0  0  0  0  0  0
    2.5777    0.8443   -0.9374 H   0  0  0  0  0  0  0  0  0  0  0  0
    3.7413    0.3788   -2.1623 H   0  0  0  0  0  0  0  0  0  0  0  0
   -0.1895    0.8508   -0.2947 H   0  0  0  0  0  0  0  0  0  0  0  0
  1  2  1  0
  2  3  1  0
  3  4  1  0
  4  5  1  0
  3  6  1  0
  6  7  2  0
  7  8  1  0
  8  9  2  0
  9 10  1  0
 10 11  1  0
 11 12  1  0
 12 13  1  0
 13 14  2  0
 13 15  1  0
 15 16  1  0
 15 17  1  0
 17 18  1  0
 18 19  1  0
 19 20  3  0
 10 21  2  0
 21  6  1  0
  1 22  1  0
  1 23  1  0
  1 24  1  0
  2 25  1  0
  2 26  1  0
  4 27  1  0
  4 28  1  0
  5 29  1  0
  5 30  1  0
  5 31  1  0
  7 32  1  0
  8 33  1  0
  9 34  1  0
 12 35  1  0
 12 36  1  0
 16 37  1  0
 16 38  1  0
 16 39  1  0
 17 40  1  0
 17 41  1  0
 18 42  1  0
 18 43  1  0
 21 44  1  0
M  END
$$$$
