
     RDKit          3D

 48 50  0  0  0  0  0  0  0  0999 V2000
   -5.8099    0.8269    1.7300 C   0  0  0  0  0  0  0  0  0  0  0  0
   -4.7233    1.7122    1.4560 O   0  0  0  0  0  0  0  0  0  0  0  0
   -3.9499    1.2266    0.4284 C   0  0  0  0  0  0  0  0  0  0  0  0
   -2.7159    0.6729    0.7845 C   0  0  0  0  0  0  0  0  0  0  0  0
   -1.8551    0.1836   -0.2000 C   0  0  0  0  0  0  0  0  0  0  0  0
   -0.5817   -0.4272    0.2033 C   0  0  0  0  0  0  0  0  0  0  0  0
    0.6466   -0.0206   -0.1775 C   0  0  0  0  0  0  0  0  0  0  0  0
    0.8522    1.0875   -1.0434 C   0  0  0  0  0  0  0  0  0  0  0  0
    1.0823    1.9583   -1.7755 N   0  0  0  0  0  0  0  0  0  0  0  0
    1.8271   -0.7846    0.3667 C   0  0  0  0  0  0  0  0  0  0  0  0
    1.6411   -1.7642    1.0813 O   0  0  0  0  0  0  0  0  0  0  0  0
    3.0680   -0.3291   -0.0513 N   0  0  0  0  0  0  0  0  0  0  0  0
    4.3287   -0.8878    0.2970 C   0  0  0  0  0  0  0  0  0  0  0  0
    5.2745   -0.8793   -0.7402 C   0  0  0  0  0  0  0  0  0  0  0  0
    6.5251   -1.4544   -0.5608 C   0  0  0  0  0  0  0  0  0  0  0  0
    6.8468   -2.0240    0.6672 C   0  0  0  0  0  0  0  0  0  0  0  0
    5.9690   -2.0001    1.7387 C   0  0  0  0  0  0  0  0  0  0  0  0
    6.4078   -2.5296    2.8942 N   0  0  0  0  0  0  0  0  0  0  0  0
    5.6060   -2.4600    3.9748 C   0  0  0  0  0  0  0  0  0  0  0  0
    4.3704   -1.8552    3.9641 C   0  0  0  0  0  0  0  0  0  0  0  0
    3.9227   -1.3139    2.7627 C   0  0  0  0  0  0  0  0  0  0  0  0
    4.6938   -1.4020    1.5801 C   0  0  0  0  0  0  0  0  0  0  0  0
   -2.2413    0.2669   -1.5414 C   0  0  0  0  0  0  0  0  0  0  0  0
   -3.4523    0.8778   -1.8980 C   0  0  0  0  0  0  0  0  0  0  0  0
   -3.7516    0.9865   -3.2323 O   0  0  0  0  0  0  0  0  0  0  0  0
   -2.9388    1.9858   -3.8526 C   0  0  0  0  0  0  0  0  0  0  0  0
   -4.3397    1.3369   -0.9153 C   0  0  0  0  0  0  0  0  0  0  0  0
   -5.5390    1.9563   -1.1506 O   0  0  0  0  0  0  0  0  0  0  0  0
   -6.2868    1.4780   -2.2611 C   0  0  0  0  0  0  0  0  0  0  0  0
   -6.5388    0.8154    0.9135 H   0  0  0  0  0  0  0  0  0  0  0  0
   -5.4542   -0.1884    1.9340 H   0  0  0  0  0  0  0  0  0  0  0  0
   -6.3202    1.1945    2.6260 H   0  0  0  0  0  0  0  0  0  0  0  0
   -2.4427    0.6296    1.8366 H   0  0  0  0  0  0  0  0  0  0  0  0
   -0.6932   -1.2657    0.8919 H   0  0  0  0  0  0  0  0  0  0  0  0
    3.0905    0.2547   -0.8819 H   0  0  0  0  0  0  0  0  0  0  0  0
    5.0348   -0.4646   -1.7175 H   0  0  0  0  0  0  0  0  0  0  0  0
    7.2463   -1.4728   -1.3742 H   0  0  0  0  0  0  0  0  0  0  0  0
    7.8249   -2.4810    0.8029 H   0  0  0  0  0  0  0  0  0  0  0  0
    6.0066   -2.9065    4.8809 H   0  0  0  0  0  0  0  0  0  0  0  0
    3.7666   -1.8016    4.8622 H   0  0  0  0  0  0  0  0  0  0  0  0
    2.9638   -0.8070    2.7683 H   0  0  0  0  0  0  0  0  0  0  0  0
   -1.6045   -0.1341   -2.3265 H   0  0  0  0  0  0  0  0  0  0  0  0
   -2.8550    2.8923   -3.2389 H   0  0  0  0  0  0  0  0  0  0  0  0
   -1.9435    1.5846   -4.0771 H   0  0  0  0  0  0  0  0  0  0  0  0
   -3.4143    2.2607   -4.7992 H   0  0  0  0  0  0  0  0  0  0  0  0
   -6.2002    0.3931   -2.3896 H   0  0  0  0  0  0  0  0  0  0  0  0
   -7.3407    1.7015   -2.0703 H   0  0  0  0  0  0  0  0  0  0  0  0
   -6.0029    2.0129   -3.1703 H   0  0  0  0  0  0  0  0  0  0  0  0
  1  2  1  0
  2  3  1  0
  3  4  2  0
  4  5  1  0
  5  6  1  0
  6  7  2  3
  7  8  1  0
  8  9  3  0
  7 10  1  0
 10 11  2  0
 10 12  1  0
 12 13  1  0
 13 14  2  0
 14 15  1  0
 15 16  2  0
 16 17  1  0
 17 18  2  0
 18 19  1  0
 19 20  2  0
 20 21  1  0
 21 22  2  0
  5 23  2  0
 23 24  1  0
 24 25  1  0
 25 26  1  0
 24 27  2  0
 27 28  1  0
 28 29  1  0
 27  3  1  0
 22 13  1  0
 22 17  1  0
  1 30  1  0
  1 31  1  0
  1 32  1  0
  4 33  1  0
  6 34  1  0
 12 35  1  0
 14 36  1  0
 15 37  1  0
 16 38  1  0
 19 39  1  0
 20 40  1  0
 21 41  1  0
 23 42  1  0
 26 43  1  0
 26 44  1  0
 26 45  1  0
 29 46  1  0
 29 47  1  0
 29 48  1  0
M  END
$$$$
