
     RDKit          3D

 61 66  0  0  0  0  0  0  0  0999 V2000
    7.6027    1.8378   -3.0758 Cl  0  0  0  0  0  0  0  0  0  0  0  0
    6.9194    0.8364   -1.8444 C   0  0  0  0  0  0  0  0  0  0  0  0
    6.2102   -0.3005   -2.2475 C   0  0  0  0  0  0  0  0  0  0  0  0
    5.6368   -1.1494   -1.2950 C   0  0  0  0  0  0  0  0  0  0  0  0
    5.7635   -0.8685    0.0737 C   0  0  0  0  0  0  0  0  0  0  0  0
    5.1591   -1.7827    1.1148 C   0  0  0  0  0  0  0  0  0  0  0  0
    3.6180   -1.8580    1.1429 C   0  0  0  0  0  0  0  0  0  0  0  0
    2.9833   -0.6989    1.7995 N   0  0  0  0  0  0  0  0  0  0  0  0
    2.7276    0.4307    0.8681 C   0  0  0  0  0  0  0  0  0  0  0  0
    1.5974    0.2058   -0.1673 C   0  0  0  0  0  0  0  0  0  0  0  0
    0.3430   -0.1893    0.5102 N   0  0  0  0  0  0  0  0  0  0  0  0
   -0.7879   -0.2448   -0.2618 C   0  0  0  0  0  0  0  0  0  0  0  0
   -0.9614   -0.8101   -1.5116 C   0  0  0  0  0  0  0  0  0  0  0  0
   -2.3256   -0.7067   -1.8544 C   0  0  0  0  0  0  0  0  0  0  0  0
   -2.9703   -0.0737   -0.8093 C   0  0  0  0  0  0  0  0  0  0  0  0
   -4.3570    0.2856   -0.6088 C   0  0  0  0  0  0  0  0  0  0  0  0
   -5.3912   -0.1318   -1.5856 C   0  0  0  0  0  0  0  0  0  0  0  0
   -6.2318    0.8430   -2.1347 C   0  0  0  0  0  0  0  0  0  0  0  0
   -7.2154    0.4721   -3.0516 C   0  0  0  0  0  0  0  0  0  0  0  0
   -7.3689   -0.8707   -3.4055 C   0  0  0  0  0  0  0  0  0  0  0  0
   -6.5443   -1.8464   -2.8405 C   0  0  0  0  0  0  0  0  0  0  0  0
   -5.5556   -1.4798   -1.9258 C   0  0  0  0  0  0  0  0  0  0  0  0
   -4.7249    0.9903    0.4191 N   0  0  0  0  0  0  0  0  0  0  0  0
   -3.7544    1.3950    1.3579 C   0  0  0  0  0  0  0  0  0  0  0  0
   -4.1871    2.1671    2.4430 C   0  0  0  0  0  0  0  0  0  0  0  0
   -3.2824    2.6262    3.4018 C   0  0  0  0  0  0  0  0  0  0  0  0
   -1.9288    2.3229    3.2760 C   0  0  0  0  0  0  0  0  0  0  0  0
   -1.4772    1.5503    2.2007 C   0  0  0  0  0  0  0  0  0  0  0  0
   -2.3889    1.0724    1.2534 C   0  0  0  0  0  0  0  0  0  0  0  0
   -2.0180    0.2825    0.1338 N   0  0  0  0  0  0  0  0  0  0  0  0
    0.5350   -1.3473    1.4172 C   0  0  0  0  0  0  0  0  0  0  0  0
    1.6834   -1.0716    2.4152 C   0  0  0  0  0  0  0  0  0  0  0  0
    6.4796    0.2732    0.4707 C   0  0  0  0  0  0  0  0  0  0  0  0
    7.0522    1.1254   -0.4820 C   0  0  0  0  0  0  0  0  0  0  0  0
    7.9052    2.5119    0.0936 Cl  0  0  0  0  0  0  0  0  0  0  0  0
    6.1034   -0.5344   -3.3063 H   0  0  0  0  0  0  0  0  0  0  0  0
    5.0955   -2.0333   -1.6302 H   0  0  0  0  0  0  0  0  0  0  0  0
    5.5277   -1.5135    2.1147 H   0  0  0  0  0  0  0  0  0  0  0  0
    5.5512   -2.7927    0.9275 H   0  0  0  0  0  0  0  0  0  0  0  0
    3.2110   -2.0527    0.1441 H   0  0  0  0  0  0  0  0  0  0  0  0
    3.3930   -2.7558    1.7363 H   0  0  0  0  0  0  0  0  0  0  0  0
    3.6397    0.7255    0.3442 H   0  0  0  0  0  0  0  0  0  0  0  0
    2.4592    1.3023    1.4813 H   0  0  0  0  0  0  0  0  0  0  0  0
    1.4394    1.1444   -0.7132 H   0  0  0  0  0  0  0  0  0  0  0  0
    1.8989   -0.5548   -0.8970 H   0  0  0  0  0  0  0  0  0  0  0  0
   -0.1884   -1.2845   -2.1005 H   0  0  0  0  0  0  0  0  0  0  0  0
   -2.7840   -1.0671   -2.7664 H   0  0  0  0  0  0  0  0  0  0  0  0
   -6.1160    1.8874   -1.8508 H   0  0  0  0  0  0  0  0  0  0  0  0
   -7.8662    1.2281   -3.4854 H   0  0  0  0  0  0  0  0  0  0  0  0
   -8.1402   -1.1576   -4.1162 H   0  0  0  0  0  0  0  0  0  0  0  0
   -6.6794   -2.8930   -3.1066 H   0  0  0  0  0  0  0  0  0  0  0  0
   -4.9308   -2.2454   -1.4726 H   0  0  0  0  0  0  0  0  0  0  0  0
   -5.2418    2.4143    2.5330 H   0  0  0  0  0  0  0  0  0  0  0  0
   -3.6337    3.2284    4.2373 H   0  0  0  0  0  0  0  0  0  0  0  0
   -1.2183    2.6950    4.0105 H   0  0  0  0  0  0  0  0  0  0  0  0
   -0.4131    1.3607    2.1217 H   0  0  0  0  0  0  0  0  0  0  0  0
   -0.3830   -1.5355    1.9882 H   0  0  0  0  0  0  0  0  0  0  0  0
    0.7517   -2.2506    0.8325 H   0  0  0  0  0  0  0  0  0  0  0  0
    1.8127   -1.9376    3.0765 H   0  0  0  0  0  0  0  0  0  0  0  0
    1.3818   -0.2470    3.0749 H   0  0  0  0  0  0  0  0  0  0  0  0
    6.5844    0.5056    1.5326 H   0  0  0  0  0  0  0  0  0  0  0  0
  1  2  1  0
  2  3  2  0
  3  4  1  0
  4  5  2  0
  5  6  1  0
  6  7  1  0
  7  8  1  0
  8  9  1  0
  9 10  1  0
 10 11  1  0
 11 12  1  0
 12 13  2  0
 13 14  1  0
 14 15  2  0
 15 16  1  0
 16 17  1  0
 17 18  2  0
 18 19  1  0
 19 20  2  0
 20 21  1  0
 21 22  2  0
 16 23  2  0
 23 24  1  0
 24 25  2  0
 25 26  1  0
 26 27  2  0
 27 28  1  0
 28 29  2  0
 29 30  1  0
 11 31  1  0
 31 32  1  0
  5 33  1  0
 33 34  2  0
 34 35  1  0
 34  2  1  0
 32  8  1  0
 30 12  1  0
 30 15  1  0
 22 17  1  0
 29 24  1  0
  3 36  1  0
  4 37  1  0
  6 38  1  0
  6 39  1  0
  7 40  1  0
  7 41  1  0
  9 42  1  0
  9 43  1  0
 10 44  1  0
 10 45  1  0
 13 46  1  0
 14 47  1  0
 18 48  1  0
 19 49  1  0
 20 50  1  0
 21 51  1  0
 22 52  1  0
 25 53  1  0
 26 54  1  0
 27 55  1  0
 28 56  1  0
 31 57  1  0
 31 58  1  0
 32 59  1  0
 32 60  1  0
 33 61  1  0
M  END
$$$$
