
     RDKit          3D

 33 34  0  0  0  0  0  0  0  0999 V2000
   -1.8475   -2.2101    0.0296 N   0  0  0  0  0  0  0  0  0  0  0  0
   -2.1719   -1.0016   -0.3194 C   0  0  0  0  0  0  0  0  0  0  0  0
   -1.6463   -0.3997   -1.4512 N   0  0  0  0  0  0  0  0  0  0  0  0
   -0.4302   -0.9995   -1.8411 O   0  0  0  0  0  0  0  0  0  0  0  0
    0.6542   -0.2738   -1.4082 C   0  0  0  0  0  0  0  0  0  0  0  0
    0.5633    0.8549   -0.9373 O   0  0  0  0  0  0  0  0  0  0  0  0
    1.9125   -1.0756   -1.6414 C   0  0  0  0  0  0  0  0  0  0  0  0
    3.1626   -0.4287   -1.0954 C   0  0  0  0  0  0  0  0  0  0  0  0
    3.5043   -0.5784    0.2563 C   0  0  0  0  0  0  0  0  0  0  0  0
    4.6540    0.0267    0.7660 C   0  0  0  0  0  0  0  0  0  0  0  0
    5.4696    0.7896   -0.0674 C   0  0  0  0  0  0  0  0  0  0  0  0
    5.1348    0.9514   -1.4105 C   0  0  0  0  0  0  0  0  0  0  0  0
    3.9853    0.3477   -1.9232 C   0  0  0  0  0  0  0  0  0  0  0  0
   -3.1557   -0.2134    0.4813 C   0  0  0  0  0  0  0  0  0  0  0  0
   -4.1953    0.4202   -0.2179 C   0  0  0  0  0  0  0  0  0  0  0  0
   -5.1491    1.1730    0.4688 C   0  0  0  0  0  0  0  0  0  0  0  0
   -5.0697    1.2993    1.8540 C   0  0  0  0  0  0  0  0  0  0  0  0
   -4.0368    0.6733    2.5545 C   0  0  0  0  0  0  0  0  0  0  0  0
   -3.0771   -0.0841    1.8736 C   0  0  0  0  0  0  0  0  0  0  0  0
   -1.8146   -0.7938    2.8135 Cl  0  0  0  0  0  0  0  0  0  0  0  0
   -2.3324   -2.4892    0.8892 H   0  0  0  0  0  0  0  0  0  0  0  0
   -1.5489    0.6163   -1.3784 H   0  0  0  0  0  0  0  0  0  0  0  0
    1.7909   -2.0601   -1.1731 H   0  0  0  0  0  0  0  0  0  0  0  0
    2.0226   -1.2356   -2.7205 H   0  0  0  0  0  0  0  0  0  0  0  0
    2.8740   -1.1636    0.9231 H   0  0  0  0  0  0  0  0  0  0  0  0
    4.9101   -0.0937    1.8153 H   0  0  0  0  0  0  0  0  0  0  0  0
    6.3629    1.2627    0.3314 H   0  0  0  0  0  0  0  0  0  0  0  0
    5.7676    1.5521   -2.0585 H   0  0  0  0  0  0  0  0  0  0  0  0
    3.7370    0.4913   -2.9722 H   0  0  0  0  0  0  0  0  0  0  0  0
   -4.2794    0.3141   -1.2978 H   0  0  0  0  0  0  0  0  0  0  0  0
   -5.9565    1.6569   -0.0765 H   0  0  0  0  0  0  0  0  0  0  0  0
   -5.8119    1.8863    2.3907 H   0  0  0  0  0  0  0  0  0  0  0  0
   -3.9824    0.7850    3.6353 H   0  0  0  0  0  0  0  0  0  0  0  0
  1  2  2  3
  2  3  1  0
  3  4  1  0
  4  5  1  0
  5  6  2  0
  5  7  1  0
  7  8  1  0
  8  9  2  0
  9 10  1  0
 10 11  2  0
 11 12  1  0
 12 13  2  0
  2 14  1  0
 14 15  2  0
 15 16  1  0
 16 17  2  0
 17 18  1  0
 18 19  2  0
 19 20  1  0
 13  8  1  0
 19 14  1  0
  1 21  1  0
  3 22  1  0
  7 23  1  0
  7 24  1  0
  9 25  1  0
 10 26  1  0
 11 27  1  0
 12 28  1  0
 13 29  1  0
 15 30  1  0
 16 31  1  0
 17 32  1  0
 18 33  1  0
M  END
$$$$
