
     RDKit          3D

 47 51  0  0  0  0  0  0  0  0999 V2000
   -0.7437   -1.8136   -2.3756 C   0  0  0  0  0  0  0  0  0  0  0  0
   -1.5652   -0.7968   -1.6455 C   0  0  0  0  0  0  0  0  0  0  0  0
   -2.8718   -0.8817   -1.6932 N   0  0  0  0  0  0  0  0  0  0  0  0
   -3.5895    0.0656   -1.0173 C   0  0  0  0  0  0  0  0  0  0  0  0
   -5.2993    0.0692   -0.9849 S   0  0  0  0  0  0  0  0  0  0  0  0
   -5.3398    1.4602    0.0072 C   0  0  0  0  0  0  0  0  0  0  0  0
   -4.0806    1.9477    0.3104 C   0  0  0  0  0  0  0  0  0  0  0  0
   -3.0998    1.1258   -0.2829 C   0  0  0  0  0  0  0  0  0  0  0  0
   -1.5708    1.1818   -0.2559 C   0  0  0  0  0  0  0  0  0  0  0  0
   -0.7713    2.0300    0.3370 N   0  0  0  0  0  0  0  0  0  0  0  0
    0.5088    1.6223    0.0553 N   0  0  0  0  0  0  0  0  0  0  0  0
    0.4465    0.5401   -0.6966 C   0  0  0  0  0  0  0  0  0  0  0  0
    1.8434   -0.3140   -1.2557 S   0  0  0  0  0  0  0  0  0  0  0  0
    3.1685    0.7313   -0.5709 C   0  0  0  0  0  0  0  0  0  0  0  0
    4.5255    0.1444   -0.9139 C   0  0  0  0  0  0  0  0  0  0  0  0
    5.3592    0.7541   -1.5786 O   0  0  0  0  0  0  0  0  0  0  0  0
    4.7681   -1.0991   -0.3730 N   0  0  0  0  0  0  0  0  0  0  0  0
    5.9694   -1.8196   -0.7211 C   0  0  0  0  0  0  0  0  0  0  0  0
    6.0285   -3.0629    0.0834 C   0  0  0  0  0  0  0  0  0  0  0  0
    6.9295   -3.5538    1.0058 C   0  0  0  0  0  0  0  0  0  0  0  0
    6.4303   -4.8119    1.4212 C   0  0  0  0  0  0  0  0  0  0  0  0
    5.2580   -5.0094    0.7292 C   0  0  0  0  0  0  0  0  0  0  0  0
    5.0002   -3.9501   -0.0810 O   0  0  0  0  0  0  0  0  0  0  0  0
   -0.8706    0.2085   -0.9384 N   0  0  0  0  0  0  0  0  0  0  0  0
   -3.8709    3.1519    1.1746 C   0  0  0  0  0  0  0  0  0  0  0  0
   -5.1664    3.9633    1.3423 C   0  0  0  0  0  0  0  0  0  0  0  0
   -6.3770    3.0568    1.6133 C   0  0  0  0  0  0  0  0  0  0  0  0
   -6.6286    2.0792    0.4539 C   0  0  0  0  0  0  0  0  0  0  0  0
   -0.1386   -2.3931   -1.6735 H   0  0  0  0  0  0  0  0  0  0  0  0
   -1.4043   -2.5166   -2.8959 H   0  0  0  0  0  0  0  0  0  0  0  0
   -0.1193   -1.3316   -3.1328 H   0  0  0  0  0  0  0  0  0  0  0  0
    3.0850    0.8039    0.5188 H   0  0  0  0  0  0  0  0  0  0  0  0
    3.1049    1.7362   -1.0011 H   0  0  0  0  0  0  0  0  0  0  0  0
    3.9700   -1.6577   -0.0920 H   0  0  0  0  0  0  0  0  0  0  0  0
    5.9390   -2.0536   -1.7901 H   0  0  0  0  0  0  0  0  0  0  0  0
    6.8387   -1.1795   -0.5308 H   0  0  0  0  0  0  0  0  0  0  0  0
    7.8361   -3.0630    1.3356 H   0  0  0  0  0  0  0  0  0  0  0  0
    6.8710   -5.4949    2.1340 H   0  0  0  0  0  0  0  0  0  0  0  0
    4.5291   -5.8078    0.7015 H   0  0  0  0  0  0  0  0  0  0  0  0
   -3.0932    3.7976    0.7512 H   0  0  0  0  0  0  0  0  0  0  0  0
   -3.5210    2.8193    2.1600 H   0  0  0  0  0  0  0  0  0  0  0  0
   -5.0439    4.6805    2.1620 H   0  0  0  0  0  0  0  0  0  0  0  0
   -5.3533    4.5455    0.4309 H   0  0  0  0  0  0  0  0  0  0  0  0
   -6.1994    2.4922    2.5374 H   0  0  0  0  0  0  0  0  0  0  0  0
   -7.2720    3.6666    1.7778 H   0  0  0  0  0  0  0  0  0  0  0  0
   -7.0727    2.6225   -0.3893 H   0  0  0  0  0  0  0  0  0  0  0  0
   -7.3470    1.3141    0.7717 H   0  0  0  0  0  0  0  0  0  0  0  0
  1  2  1  0
  2  3  2  0
  3  4  1  0
  4  5  1  0
  5  6  1  0
  6  7  2  0
  7  8  1  0
  8  9  1  0
  9 10  2  0
 10 11  1  0
 11 12  2  0
 12 13  1  0
 13 14  1  0
 14 15  1  0
 15 16  2  0
 15 17  1  0
 17 18  1  0
 18 19  1  0
 19 20  2  0
 20 21  1  0
 21 22  2  0
 22 23  1  0
 12 24  1  0
  7 25  1  0
 25 26  1  0
 26 27  1  0
 27 28  1  0
 24  2  1  0
  8  4  2  0
 24  9  1  0
 28  6  1  0
 23 19  1  0
  1 29  1  0
  1 30  1  0
  1 31  1  0
 14 32  1  0
 14 33  1  0
 17 34  1  0
 18 35  1  0
 18 36  1  0
 20 37  1  0
 21 38  1  0
 22 39  1  0
 25 40  1  0
 25 41  1  0
 26 42  1  0
 26 43  1  0
 27 44  1  0
 27 45  1  0
 28 46  1  0
 28 47  1  0
M  END
$$$$
