
     RDKit          3D

 45 47  0  0  0  0  0  0  0  0999 V2000
   -7.9169    0.8279    3.2856 C   0  0  0  0  0  0  0  0  0  0  0  0
   -7.1458    1.6190    2.3903 O   0  0  0  0  0  0  0  0  0  0  0  0
   -5.9912    1.0622    1.9131 C   0  0  0  0  0  0  0  0  0  0  0  0
   -5.4932   -0.1997    2.2355 C   0  0  0  0  0  0  0  0  0  0  0  0
   -4.2926   -0.6471    1.6728 C   0  0  0  0  0  0  0  0  0  0  0  0
   -3.5775    0.1596    0.7787 C   0  0  0  0  0  0  0  0  0  0  0  0
   -2.2736   -0.3218    0.1947 C   0  0  0  0  0  0  0  0  0  0  0  0
   -1.0946   -0.0256    1.1241 C   0  0  0  0  0  0  0  0  0  0  0  0
    0.1672   -0.4570    0.5601 N   0  0  0  0  0  0  0  0  0  0  0  0
    0.5747   -1.7746    0.5809 C   0  0  0  0  0  0  0  0  0  0  0  0
   -0.0849   -2.6598    1.1184 O   0  0  0  0  0  0  0  0  0  0  0  0
    1.8337   -2.0111   -0.0938 C   0  0  0  0  0  0  0  0  0  0  0  0
    2.5452   -3.1750   -0.3044 C   0  0  0  0  0  0  0  0  0  0  0  0
    3.7082   -2.8170   -1.0281 C   0  0  0  0  0  0  0  0  0  0  0  0
    3.6483   -1.4524   -1.2266 C   0  0  0  0  0  0  0  0  0  0  0  0
    4.5047   -0.4627   -1.8741 C   0  0  0  0  0  0  0  0  0  0  0  0
    4.7009    0.7751   -1.2299 C   0  0  0  0  0  0  0  0  0  0  0  0
    5.5190    1.7632   -1.7856 C   0  0  0  0  0  0  0  0  0  0  0  0
    6.1545    1.5204   -3.0065 C   0  0  0  0  0  0  0  0  0  0  0  0
    7.0150    2.5523   -3.5981 N   0  0  0  0  0  4  0  0  0  0  0  0
    7.5745    2.2884   -4.6710 O   0  0  0  0  0  0  0  0  0  0  0  0
    7.1295    3.6243   -2.9881 O   0  0  0  0  0  1  0  0  0  0  0  0
    5.9740    0.3026   -3.6706 C   0  0  0  0  0  0  0  0  0  0  0  0
    5.1517   -0.6817   -3.1055 C   0  0  0  0  0  0  0  0  0  0  0  0
    4.9519   -2.1373   -4.0210 Cl  0  0  0  0  0  0  0  0  0  0  0  0
    2.5104   -0.9567   -0.6519 O   0  0  0  0  0  0  0  0  0  0  0  0
   -4.0783    1.4264    0.4618 C   0  0  0  0  0  0  0  0  0  0  0  0
   -5.2770    1.8699    1.0255 C   0  0  0  0  0  0  0  0  0  0  0  0
   -8.8023    1.4070    3.5653 H   0  0  0  0  0  0  0  0  0  0  0  0
   -8.2606   -0.0933    2.8034 H   0  0  0  0  0  0  0  0  0  0  0  0
   -7.3582    0.6109    4.2019 H   0  0  0  0  0  0  0  0  0  0  0  0
   -6.0108   -0.8620    2.9210 H   0  0  0  0  0  0  0  0  0  0  0  0
   -3.9180   -1.6345    1.9382 H   0  0  0  0  0  0  0  0  0  0  0  0
   -2.3428   -1.3977   -0.0104 H   0  0  0  0  0  0  0  0  0  0  0  0
   -2.1081    0.1510   -0.7821 H   0  0  0  0  0  0  0  0  0  0  0  0
   -1.0095    1.0504    1.3124 H   0  0  0  0  0  0  0  0  0  0  0  0
   -1.2317   -0.5234    2.0913 H   0  0  0  0  0  0  0  0  0  0  0  0
    0.7362    0.1963    0.0345 H   0  0  0  0  0  0  0  0  0  0  0  0
    2.2491   -4.1603    0.0305 H   0  0  0  0  0  0  0  0  0  0  0  0
    4.4969   -3.4797   -1.3572 H   0  0  0  0  0  0  0  0  0  0  0  0
    4.2176    0.9733   -0.2731 H   0  0  0  0  0  0  0  0  0  0  0  0
    5.6481    2.7050   -1.2548 H   0  0  0  0  0  0  0  0  0  0  0  0
    6.4601    0.1119   -4.6259 H   0  0  0  0  0  0  0  0  0  0  0  0
   -3.5442    2.0778   -0.2258 H   0  0  0  0  0  0  0  0  0  0  0  0
   -5.6595    2.8552    0.7703 H   0  0  0  0  0  0  0  0  0  0  0  0
  1  2  1  0
  2  3  1  0
  3  4  2  0
  4  5  1  0
  5  6  2  0
  6  7  1  0
  7  8  1  0
  8  9  1  0
  9 10  1  0
 10 11  2  0
 10 12  1  0
 12 13  2  0
 13 14  1  0
 14 15  2  0
 15 16  1  0
 16 17  2  0
 17 18  1  0
 18 19  2  0
 19 20  1  0
 20 21  2  0
 20 22  1  0
 19 23  1  0
 23 24  2  0
 24 25  1  0
 15 26  1  0
  6 27  1  0
 27 28  2  0
 28  3  1  0
 26 12  1  0
 24 16  1  0
  1 29  1  0
  1 30  1  0
  1 31  1  0
  4 32  1  0
  5 33  1  0
  7 34  1  0
  7 35  1  0
  8 36  1  0
  8 37  1  0
  9 38  1  0
 13 39  1  0
 14 40  1  0
 17 41  1  0
 18 42  1  0
 23 43  1  0
 27 44  1  0
 28 45  1  0
M  CHG  2  20   1  22  -1
M  END
$$$$
