
     RDKit          3D

 37 37  0  0  0  0  0  0  0  0999 V2000
   -1.6390   -3.6840    1.6995 C   0  0  0  0  0  0  0  0  0  0  0  0
   -1.0921   -2.3878    1.4549 O   0  0  0  0  0  0  0  0  0  0  0  0
   -1.8624   -1.6019    0.6433 C   0  0  0  0  0  0  0  0  0  0  0  0
   -2.9720   -1.9221    0.2322 O   0  0  0  0  0  0  0  0  0  0  0  0
   -1.2131   -0.2236    0.4008 C   0  0  0  0  0  0  0  0  0  0  0  0
   -1.9860    0.8578    1.1730 C   0  0  0  0  0  0  0  0  0  0  0  0
   -3.3581    1.2154    0.5954 C   0  0  0  0  0  0  0  0  0  0  0  0
   -3.2211    2.0669   -1.0082 S   0  0  0  0  0  0  0  0  0  0  0  0
   -4.9817    2.1739   -1.4093 C   0  0  0  0  0  0  0  0  0  0  0  0
    0.1905   -0.2074    0.8452 N   0  0  0  0  0  0  0  0  0  0  0  0
    1.1614   -0.7038    0.0105 C   0  0  0  0  0  0  0  0  0  0  0  0
    0.9528   -1.1095   -1.1232 O   0  0  0  0  0  0  0  0  0  0  0  0
    2.3842   -0.6960    0.6266 N   0  0  0  0  0  0  0  0  0  0  0  0
    3.5773   -1.0684   -0.1020 C   0  0  0  0  0  0  0  0  0  0  0  0
    4.1831    0.1646   -0.6962 C   0  0  0  0  0  0  0  0  0  0  0  0
    3.8300    0.8081   -1.8671 C   0  0  0  0  0  0  0  0  0  0  0  0
    4.6289    1.9605   -2.1159 C   0  0  0  0  0  0  0  0  0  0  0  0
    5.5662    2.1599   -1.1275 C   0  0  0  0  0  0  0  0  0  0  0  0
    5.4774    0.9650    0.0925 S   0  0  0  0  0  0  0  0  0  0  0  0
   -0.9239   -4.2434    2.3089 H   0  0  0  0  0  0  0  0  0  0  0  0
   -1.7881   -4.2237    0.7590 H   0  0  0  0  0  0  0  0  0  0  0  0
   -2.5785   -3.6026    2.2547 H   0  0  0  0  0  0  0  0  0  0  0  0
   -1.2218   -0.0416   -0.6786 H   0  0  0  0  0  0  0  0  0  0  0  0
   -2.1322    0.5192    2.2080 H   0  0  0  0  0  0  0  0  0  0  0  0
   -1.3789    1.7709    1.2426 H   0  0  0  0  0  0  0  0  0  0  0  0
   -3.8644    1.8953    1.2891 H   0  0  0  0  0  0  0  0  0  0  0  0
   -3.9867    0.3285    0.4863 H   0  0  0  0  0  0  0  0  0  0  0  0
   -5.4149    1.1737   -1.4913 H   0  0  0  0  0  0  0  0  0  0  0  0
   -5.5126    2.7443   -0.6428 H   0  0  0  0  0  0  0  0  0  0  0  0
   -5.1021    2.6843   -2.3685 H   0  0  0  0  0  0  0  0  0  0  0  0
    0.3371   -0.4815    1.8069 H   0  0  0  0  0  0  0  0  0  0  0  0
    2.5024    0.0265    1.3210 H   0  0  0  0  0  0  0  0  0  0  0  0
    3.3381   -1.7975   -0.8838 H   0  0  0  0  0  0  0  0  0  0  0  0
    4.2562   -1.5480    0.6109 H   0  0  0  0  0  0  0  0  0  0  0  0
    3.0259    0.4659   -2.5102 H   0  0  0  0  0  0  0  0  0  0  0  0
    4.5187    2.6101   -2.9756 H   0  0  0  0  0  0  0  0  0  0  0  0
    6.2993    2.9519   -1.0611 H   0  0  0  0  0  0  0  0  0  0  0  0
  1  2  1  0
  2  3  1  0
  3  4  2  0
  3  5  1  0
  5  6  1  0
  6  7  1  0
  7  8  1  0
  8  9  1  0
  5 10  1  0
 10 11  1  0
 11 12  2  0
 11 13  1  0
 13 14  1  0
 14 15  1  0
 15 16  2  0
 16 17  1  0
 17 18  2  0
 18 19  1  0
 19 15  1  0
  1 20  1  0
  1 21  1  0
  1 22  1  0
  5 23  1  0
  6 24  1  0
  6 25  1  0
  7 26  1  0
  7 27  1  0
  9 28  1  0
  9 29  1  0
  9 30  1  0
 10 31  1  0
 13 32  1  0
 14 33  1  0
 14 34  1  0
 16 35  1  0
 17 36  1  0
 18 37  1  0
M  END
$$$$
