
     RDKit          3D

 58 60  0  0  0  0  0  0  0  0999 V2000
    8.8232    1.4891    0.9664 C   0  0  0  0  0  0  0  0  0  0  0  0
    7.4459    1.9123    0.6566 C   0  0  0  0  0  0  0  0  0  0  0  0
    6.2539    1.2479    0.5090 C   0  0  0  0  0  0  0  0  0  0  0  0
    5.3147    2.2587    0.2166 C   0  0  0  0  0  0  0  0  0  0  0  0
    3.9619    2.1568   -0.0218 N   0  0  0  0  0  0  0  0  0  0  0  0
    3.2377    0.9869    0.0167 C   0  0  0  0  0  0  0  0  0  0  0  0
    3.6855   -0.1249    0.2818 O   0  0  0  0  0  0  0  0  0  0  0  0
    1.7741    1.2129   -0.3091 C   0  0  0  0  0  0  0  0  0  0  0  0
    1.0001   -0.1016   -0.3028 C   0  0  0  0  0  0  0  0  0  0  0  0
   -0.4529    0.0885   -0.6964 C   0  0  0  0  0  0  0  0  0  0  0  0
   -0.9068    1.2058   -0.9523 O   0  0  0  0  0  0  0  0  0  0  0  0
   -1.2497   -1.0478   -0.7595 N   0  0  0  0  0  0  0  0  0  0  0  0
   -2.6677   -0.8510   -1.0479 C   0  0  0  0  0  0  0  0  0  0  0  0
   -3.4115   -0.5064    0.2462 C   0  0  0  0  0  0  0  0  0  0  0  0
   -3.4597   -1.2824    1.2004 O   0  0  0  0  0  0  0  0  0  0  0  0
   -3.9608    0.7639    0.2599 N   0  0  0  0  0  0  0  0  0  0  0  0
   -4.5441    1.3084    1.4680 C   0  0  0  0  0  0  0  0  0  0  0  0
   -4.9963    2.7560    1.2823 C   0  0  0  0  0  0  0  0  0  0  0  0
   -5.9819    2.9538    2.4204 C   0  0  0  0  0  0  0  0  0  0  0  0
   -6.7606    1.6463    2.4597 C   0  0  0  0  0  0  0  0  0  0  0  0
   -5.8130    0.5727    1.9207 C   0  0  0  0  0  0  0  0  0  0  0  0
   -0.8661   -2.3526   -0.2132 C   0  0  0  0  0  0  0  0  0  0  0  0
    0.0474   -3.1421   -1.1270 C   0  0  0  0  0  0  0  0  0  0  0  0
    1.1125   -3.8756   -0.5750 C   0  0  0  0  0  0  0  0  0  0  0  0
    1.9519   -4.6319   -1.3950 C   0  0  0  0  0  0  0  0  0  0  0  0
    1.7158   -4.6734   -2.7651 C   0  0  0  0  0  0  0  0  0  0  0  0
    2.5214   -5.4029   -3.5493 F   0  0  0  0  0  0  0  0  0  0  0  0
    0.6698   -3.9615   -3.3332 C   0  0  0  0  0  0  0  0  0  0  0  0
   -0.1688   -3.2003   -2.5143 C   0  0  0  0  0  0  0  0  0  0  0  0
    5.9028    3.4598    0.1799 N   0  0  0  0  0  0  0  0  0  0  0  0
    7.2388    3.2411    0.4608 O   0  0  0  0  0  0  0  0  0  0  0  0
    9.4390    2.3369    1.2811 H   0  0  0  0  0  0  0  0  0  0  0  0
    9.2863    1.0356    0.0858 H   0  0  0  0  0  0  0  0  0  0  0  0
    8.8283    0.7512    1.7742 H   0  0  0  0  0  0  0  0  0  0  0  0
    6.0905    0.1837    0.6052 H   0  0  0  0  0  0  0  0  0  0  0  0
    3.5095    3.0419   -0.2130 H   0  0  0  0  0  0  0  0  0  0  0  0
    1.7060    1.6876   -1.2958 H   0  0  0  0  0  0  0  0  0  0  0  0
    1.3551    1.9045    0.4315 H   0  0  0  0  0  0  0  0  0  0  0  0
    1.4665   -0.7931   -1.0119 H   0  0  0  0  0  0  0  0  0  0  0  0
    1.0455   -0.5358    0.7021 H   0  0  0  0  0  0  0  0  0  0  0  0
   -3.0929   -1.7631   -1.4748 H   0  0  0  0  0  0  0  0  0  0  0  0
   -2.7920   -0.0559   -1.7887 H   0  0  0  0  0  0  0  0  0  0  0  0
   -3.5605    1.4283   -0.4015 H   0  0  0  0  0  0  0  0  0  0  0  0
   -3.7872    1.2541    2.2636 H   0  0  0  0  0  0  0  0  0  0  0  0
   -4.1588    3.4623    1.3332 H   0  0  0  0  0  0  0  0  0  0  0  0
   -5.4970    2.8947    0.3125 H   0  0  0  0  0  0  0  0  0  0  0  0
   -5.4447    3.1019    3.3666 H   0  0  0  0  0  0  0  0  0  0  0  0
   -6.6330    3.8177    2.2621 H   0  0  0  0  0  0  0  0  0  0  0  0
   -7.1072    1.4136    3.4720 H   0  0  0  0  0  0  0  0  0  0  0  0
   -7.6447    1.7153    1.8148 H   0  0  0  0  0  0  0  0  0  0  0  0
   -6.2944    0.0321    1.0955 H   0  0  0  0  0  0  0  0  0  0  0  0
   -5.5762   -0.1628    2.6993 H   0  0  0  0  0  0  0  0  0  0  0  0
   -1.7631   -2.9584   -0.0334 H   0  0  0  0  0  0  0  0  0  0  0  0
   -0.3898   -2.1899    0.7619 H   0  0  0  0  0  0  0  0  0  0  0  0
    1.2993   -3.8586    0.4979 H   0  0  0  0  0  0  0  0  0  0  0  0
    2.7820   -5.1919   -0.9745 H   0  0  0  0  0  0  0  0  0  0  0  0
    0.5063   -4.0072   -4.4065 H   0  0  0  0  0  0  0  0  0  0  0  0
   -0.9906   -2.6513   -2.9683 H   0  0  0  0  0  0  0  0  0  0  0  0
  1  2  1  0
  2  3  2  0
  3  4  1  0
  4  5  1  0
  5  6  1  0
  6  7  2  0
  6  8  1  0
  8  9  1  0
  9 10  1  0
 10 11  2  0
 10 12  1  0
 12 13  1  0
 13 14  1  0
 14 15  2  0
 14 16  1  0
 16 17  1  0
 17 18  1  0
 18 19  1  0
 19 20  1  0
 20 21  1  0
 12 22  1  0
 22 23  1  0
 23 24  2  0
 24 25  1  0
 25 26  2  0
 26 27  1  0
 26 28  1  0
 28 29  2  0
  4 30  2  0
 30 31  1  0
 31  2  1  0
 21 17  1  0
 29 23  1  0
  1 32  1  0
  1 33  1  0
  1 34  1  0
  3 35  1  0
  5 36  1  0
  8 37  1  0
  8 38  1  0
  9 39  1  0
  9 40  1  0
 13 41  1  0
 13 42  1  0
 16 43  1  0
 17 44  1  0
 18 45  1  0
 18 46  1  0
 19 47  1  0
 19 48  1  0
 20 49  1  0
 20 50  1  0
 21 51  1  0
 21 52  1  0
 22 53  1  0
 22 54  1  0
 24 55  1  0
 25 56  1  0
 28 57  1  0
 29 58  1  0
M  END
$$$$
