
     RDKit          3D

 48 50  0  0  0  0  0  0  0  0999 V2000
    4.2921   -3.0335   -1.8319 C   0  0  0  0  0  0  0  0  0  0  0  0
    3.6802   -2.2806   -0.7892 O   0  0  0  0  0  0  0  0  0  0  0  0
    2.4559   -2.7153   -0.3495 C   0  0  0  0  0  0  0  0  0  0  0  0
    1.9700   -4.0145   -0.5459 C   0  0  0  0  0  0  0  0  0  0  0  0
    0.7173   -4.3861   -0.0499 C   0  0  0  0  0  0  0  0  0  0  0  0
   -0.0469   -3.4602    0.6550 C   0  0  0  0  0  0  0  0  0  0  0  0
   -1.3842   -3.8604    1.1377 C   0  0  0  0  0  0  0  0  0  0  0  0
   -2.4944   -3.1845    1.0947 N   0  0  0  0  0  0  0  0  0  0  0  0
   -2.5054   -2.0001    0.4256 N   0  0  0  0  0  0  0  0  0  0  0  0
   -3.5593   -1.1031    0.5231 C   0  0  0  0  0  0  0  0  0  0  0  0
   -4.5873   -1.2883    1.1588 O   0  0  0  0  0  0  0  0  0  0  0  0
   -3.2788    0.1717   -0.2336 C   0  0  0  0  0  0  0  0  0  0  0  0
   -2.0719    0.1477   -0.8877 N   0  0  0  0  0  0  0  0  0  0  0  0
   -1.6974    1.2768   -1.5259 C   0  0  0  0  0  0  0  0  0  0  0  0
   -0.1506    1.1211   -2.2716 Cl  0  0  0  0  0  0  0  0  0  0  0  0
   -2.4663    2.4282   -1.5980 C   0  0  0  0  0  0  0  0  0  0  0  0
   -1.9147    3.8463   -2.4283 Cl  0  0  0  0  0  0  0  0  0  0  0  0
   -3.7335    2.4210   -0.9868 C   0  0  0  0  0  0  0  0  0  0  0  0
   -4.4958    3.6195   -0.9139 N   0  0  0  0  0  0  0  0  0  0  0  0
   -4.1323    1.2754   -0.2536 C   0  0  0  0  0  0  0  0  0  0  0  0
   -5.6701    1.3205    0.5437 Cl  0  0  0  0  0  0  0  0  0  0  0  0
    0.4546   -2.1809    0.9067 C   0  0  0  0  0  0  0  0  0  0  0  0
    1.6951   -1.7833    0.3794 C   0  0  0  0  0  0  0  0  0  0  0  0
    2.2057   -0.3667    0.5650 C   0  0  0  0  0  0  0  0  0  0  0  0
    1.1755    0.4757    1.0837 O   0  0  0  0  0  0  0  0  0  0  0  0
    1.4114    1.8190    1.1306 C   0  0  0  0  0  0  0  0  0  0  0  0
    2.6463    2.4341    0.9148 C   0  0  0  0  0  0  0  0  0  0  0  0
    2.7490    3.8286    0.9907 C   0  0  0  0  0  0  0  0  0  0  0  0
    1.6273    4.5962    1.2886 C   0  0  0  0  0  0  0  0  0  0  0  0
    1.7416    5.9289    1.3628 F   0  0  0  0  0  0  0  0  0  0  0  0
    0.3987    4.0016    1.5226 C   0  0  0  0  0  0  0  0  0  0  0  0
    0.2993    2.6176    1.4324 C   0  0  0  0  0  0  0  0  0  0  0  0
   -0.8992    2.0469    1.6379 F   0  0  0  0  0  0  0  0  0  0  0  0
    5.1678   -2.4755   -2.1791 H   0  0  0  0  0  0  0  0  0  0  0  0
    3.6154   -3.1558   -2.6845 H   0  0  0  0  0  0  0  0  0  0  0  0
    4.6408   -3.9996   -1.4604 H   0  0  0  0  0  0  0  0  0  0  0  0
    2.5515   -4.7672   -1.0714 H   0  0  0  0  0  0  0  0  0  0  0  0
    0.3466   -5.3936   -0.2268 H   0  0  0  0  0  0  0  0  0  0  0  0
   -1.4403   -4.8663    1.5903 H   0  0  0  0  0  0  0  0  0  0  0  0
   -1.7058   -1.7094   -0.1353 H   0  0  0  0  0  0  0  0  0  0  0  0
   -5.4795    3.4669   -0.6892 H   0  0  0  0  0  0  0  0  0  0  0  0
   -4.3521    4.2510   -1.7008 H   0  0  0  0  0  0  0  0  0  0  0  0
   -0.1309   -1.4847    1.5043 H   0  0  0  0  0  0  0  0  0  0  0  0
    3.0540   -0.3891    1.2625 H   0  0  0  0  0  0  0  0  0  0  0  0
    2.5244    0.0147   -0.4129 H   0  0  0  0  0  0  0  0  0  0  0  0
    3.5409    1.8627    0.6840 H   0  0  0  0  0  0  0  0  0  0  0  0
    3.7042    4.3220    0.8218 H   0  0  0  0  0  0  0  0  0  0  0  0
   -0.4688    4.6046    1.7682 H   0  0  0  0  0  0  0  0  0  0  0  0
  1  2  1  0
  2  3  1  0
  3  4  2  0
  4  5  1  0
  5  6  2  0
  6  7  1  0
  7  8  2  3
  8  9  1  0
  9 10  1  0
 10 11  2  0
 10 12  1  0
 12 13  2  0
 13 14  1  0
 14 15  1  0
 14 16  2  0
 16 17  1  0
 16 18  1  0
 18 19  1  0
 18 20  2  0
 20 21  1  0
  6 22  1  0
 22 23  2  0
 23 24  1  0
 24 25  1  0
 25 26  1  0
 26 27  2  0
 27 28  1  0
 28 29  2  0
 29 30  1  0
 29 31  1  0
 31 32  2  0
 32 33  1  0
 23  3  1  0
 32 26  1  0
 20 12  1  0
  1 34  1  0
  1 35  1  0
  1 36  1  0
  4 37  1  0
  5 38  1  0
  7 39  1  0
  9 40  1  0
 19 41  1  0
 19 42  1  0
 22 43  1  0
 24 44  1  0
 24 45  1  0
 27 46  1  0
 28 47  1  0
 31 48  1  0
M  END
$$$$
