
     RDKit          3D

 26 27  0  0  0  0  0  0  0  0999 V2000
   -2.1169    2.7788   -0.3004 O   0  0  0  0  0  0  0  0  0  0  0  0
   -1.6833    1.6254   -0.2337 C   0  0  0  0  0  0  0  0  0  0  0  0
   -0.2205    1.4067    0.1748 C   0  0  0  0  0  0  0  0  0  0  0  0
    0.3594    0.2222   -0.3515 O   0  0  0  0  0  0  0  0  0  0  0  0
    1.6158   -0.1157    0.0811 C   0  0  0  0  0  0  0  0  0  0  0  0
    2.4787    0.7491    0.7620 C   0  0  0  0  0  0  0  0  0  0  0  0
    3.7500    0.3155    1.1535 C   0  0  0  0  0  0  0  0  0  0  0  0
    4.1722   -0.9808    0.8662 C   0  0  0  0  0  0  0  0  0  0  0  0
    3.3240   -1.8500    0.1836 C   0  0  0  0  0  0  0  0  0  0  0  0
    2.0542   -1.4189   -0.2082 C   0  0  0  0  0  0  0  0  0  0  0  0
    1.0327   -2.5417   -1.0387 Cl  0  0  0  0  0  0  0  0  0  0  0  0
   -2.5446    0.4697   -0.4466 C   0  0  0  0  0  0  0  0  0  0  0  0
   -3.9193    0.4643   -0.6308 C   0  0  0  0  0  0  0  0  0  0  0  0
   -4.3420   -0.8753   -0.7954 C   0  0  0  0  0  0  0  0  0  0  0  0
   -3.2194   -1.6648   -0.7213 C   0  0  0  0  0  0  0  0  0  0  0  0
   -2.1401   -0.8467   -0.5172 N   0  0  0  0  0  0  0  0  0  0  0  0
    0.3378    2.2759   -0.1936 H   0  0  0  0  0  0  0  0  0  0  0  0
   -0.2044    1.3854    1.2717 H   0  0  0  0  0  0  0  0  0  0  0  0
    2.2022    1.7724    0.9966 H   0  0  0  0  0  0  0  0  0  0  0  0
    4.4152    0.9961    1.6812 H   0  0  0  0  0  0  0  0  0  0  0  0
    5.1619   -1.3126    1.1712 H   0  0  0  0  0  0  0  0  0  0  0  0
    3.6561   -2.8606   -0.0403 H   0  0  0  0  0  0  0  0  0  0  0  0
   -4.5476    1.3474   -0.6402 H   0  0  0  0  0  0  0  0  0  0  0  0
   -5.3540   -1.2234   -0.9577 H   0  0  0  0  0  0  0  0  0  0  0  0
   -3.0917   -2.7359   -0.8058 H   0  0  0  0  0  0  0  0  0  0  0  0
   -1.1762   -1.1595   -0.4606 H   0  0  0  0  0  0  0  0  0  0  0  0
  1  2  2  0
  2  3  1  0
  3  4  1  0
  4  5  1  0
  5  6  2  0
  6  7  1  0
  7  8  2  0
  8  9  1  0
  9 10  2  0
 10 11  1  0
  2 12  1  0
 12 13  2  0
 13 14  1  0
 14 15  2  0
 15 16  1  0
 10  5  1  0
 16 12  1  0
  3 17  1  0
  3 18  1  0
  6 19  1  0
  7 20  1  0
  8 21  1  0
  9 22  1  0
 13 23  1  0
 14 24  1  0
 15 25  1  0
 16 26  1  0
M  END
$$$$
