
     RDKit          3D

 52 54  0  0  0  0  0  0  0  0999 V2000
   -3.8863    0.3990   -2.9630 C   0  0  0  0  0  0  0  0  0  0  0  0
   -3.9189    0.5674   -1.5167 N   0  0  0  0  0  0  0  0  0  0  0  0
   -5.2360    0.7450   -0.9048 C   0  0  0  0  0  0  0  0  0  0  0  0
   -6.0682   -0.5160   -0.9455 C   0  0  0  0  0  0  0  0  0  0  0  0
   -5.8112   -1.5639   -0.0495 C   0  0  0  0  0  0  0  0  0  0  0  0
   -6.5668   -2.7364   -0.0937 C   0  0  0  0  0  0  0  0  0  0  0  0
   -7.5854   -2.8748   -1.0344 C   0  0  0  0  0  0  0  0  0  0  0  0
   -7.8497   -1.8413   -1.9314 C   0  0  0  0  0  0  0  0  0  0  0  0
   -7.0950   -0.6675   -1.8889 C   0  0  0  0  0  0  0  0  0  0  0  0
   -2.8356    0.3082   -0.6807 C   0  0  0  0  0  0  0  0  0  0  0  0
   -2.9359    0.3147    0.5496 O   0  0  0  0  0  0  0  0  0  0  0  0
   -1.4904   -0.0124   -1.3485 C   0  0  0  0  0  0  0  0  0  0  0  0
   -0.4566   -0.2387   -0.3861 O   0  0  0  0  0  0  0  0  0  0  0  0
    0.0444    0.9033    0.1732 C   0  0  0  0  0  0  0  0  0  0  0  0
   -0.2438    2.0391   -0.1857 O   0  0  0  0  0  0  0  0  0  0  0  0
    0.9684    0.5927    1.3331 C   0  0  0  0  0  0  0  0  0  0  0  0
    1.5726   -0.7449    1.2275 N   0  0  0  0  0  0  0  0  0  0  0  0
    2.7775   -1.1527    2.3101 S   0  0  0  0  0  6  0  0  0  0  0  0
    2.5461   -0.4231    3.5362 O   0  0  0  0  0  0  0  0  0  0  0  0
    2.8779   -2.5947    2.2847 O   0  0  0  0  0  0  0  0  0  0  0  0
    4.2194   -0.4997    1.5116 C   0  0  0  0  0  0  0  0  0  0  0  0
    4.7617   -1.1802    0.4207 C   0  0  0  0  0  0  0  0  0  0  0  0
    5.9019   -0.6747   -0.2052 C   0  0  0  0  0  0  0  0  0  0  0  0
    6.5103    0.5051    0.2560 C   0  0  0  0  0  0  0  0  0  0  0  0
    7.6571    1.0247   -0.3650 C   0  0  0  0  0  0  0  0  0  0  0  0
    8.2547    2.1954    0.1051 C   0  0  0  0  0  0  0  0  0  0  0  0
    7.7149    2.8609    1.2019 C   0  0  0  0  0  0  0  0  0  0  0  0
    6.5753    2.3584    1.8319 C   0  0  0  0  0  0  0  0  0  0  0  0
    5.9608    1.1833    1.3712 C   0  0  0  0  0  0  0  0  0  0  0  0
    4.8148    0.6686    1.9959 C   0  0  0  0  0  0  0  0  0  0  0  0
   -4.1631   -0.6313   -3.2049 H   0  0  0  0  0  0  0  0  0  0  0  0
   -2.8946    0.5988   -3.3715 H   0  0  0  0  0  0  0  0  0  0  0  0
   -4.5928    1.0925   -3.4283 H   0  0  0  0  0  0  0  0  0  0  0  0
   -5.7454    1.5609   -1.4324 H   0  0  0  0  0  0  0  0  0  0  0  0
   -5.1403    1.0768    0.1359 H   0  0  0  0  0  0  0  0  0  0  0  0
   -5.0193   -1.4670    0.6918 H   0  0  0  0  0  0  0  0  0  0  0  0
   -6.3607   -3.5403    0.6084 H   0  0  0  0  0  0  0  0  0  0  0  0
   -8.1746   -3.7875   -1.0664 H   0  0  0  0  0  0  0  0  0  0  0  0
   -8.6460   -1.9495   -2.6633 H   0  0  0  0  0  0  0  0  0  0  0  0
   -7.3153    0.1288   -2.5960 H   0  0  0  0  0  0  0  0  0  0  0  0
   -1.6026   -0.9412   -1.9171 H   0  0  0  0  0  0  0  0  0  0  0  0
   -1.1976    0.7853   -2.0392 H   0  0  0  0  0  0  0  0  0  0  0  0
    1.7559    1.3522    1.3415 H   0  0  0  0  0  0  0  0  0  0  0  0
    0.3708    0.6554    2.2477 H   0  0  0  0  0  0  0  0  0  0  0  0
    0.9427   -1.5168    1.0038 H   0  0  0  0  0  0  0  0  0  0  0  0
    4.3060   -2.0986    0.0572 H   0  0  0  0  0  0  0  0  0  0  0  0
    6.3175   -1.2111   -1.0559 H   0  0  0  0  0  0  0  0  0  0  0  0
    8.0967    0.5190   -1.2219 H   0  0  0  0  0  0  0  0  0  0  0  0
    9.1430    2.5860   -0.3848 H   0  0  0  0  0  0  0  0  0  0  0  0
    8.1811    3.7715    1.5694 H   0  0  0  0  0  0  0  0  0  0  0  0
    6.1708    2.8932    2.6888 H   0  0  0  0  0  0  0  0  0  0  0  0
    4.3896    1.1781    2.8586 H   0  0  0  0  0  0  0  0  0  0  0  0
  1  2  1  0
  2  3  1  0
  3  4  1  0
  4  5  2  0
  5  6  1  0
  6  7  2  0
  7  8  1  0
  8  9  2  0
  2 10  1  0
 10 11  2  0
 10 12  1  0
 12 13  1  0
 13 14  1  0
 14 15  2  0
 14 16  1  0
 16 17  1  0
 17 18  1  0
 18 19  2  0
 18 20  2  0
 18 21  1  0
 21 22  2  0
 22 23  1  0
 23 24  2  0
 24 25  1  0
 25 26  2  0
 26 27  1  0
 27 28  2  0
 28 29  1  0
 29 30  2  0
  9  4  1  0
 30 21  1  0
 29 24  1  0
  1 31  1  0
  1 32  1  0
  1 33  1  0
  3 34  1  0
  3 35  1  0
  5 36  1  0
  6 37  1  0
  7 38  1  0
  8 39  1  0
  9 40  1  0
 12 41  1  0
 12 42  1  0
 16 43  1  0
 16 44  1  0
 17 45  1  0
 22 46  1  0
 23 47  1  0
 25 48  1  0
 26 49  1  0
 27 50  1  0
 28 51  1  0
 30 52  1  0
M  END
$$$$
