
     RDKit          3D

 36 37  0  0  0  0  0  0  0  0999 V2000
   -7.0501    0.1222   -0.4865 C   0  0  0  0  0  0  0  0  0  0  0  0
   -6.4412    0.1722    0.7976 O   0  0  0  0  0  0  0  0  0  0  0  0
   -5.0748    0.1536    0.8373 C   0  0  0  0  0  0  0  0  0  0  0  0
   -4.5281    0.2081    2.1218 C   0  0  0  0  0  0  0  0  0  0  0  0
   -3.1432    0.1964    2.3090 C   0  0  0  0  0  0  0  0  0  0  0  0
   -2.2851    0.1293    1.2058 C   0  0  0  0  0  0  0  0  0  0  0  0
   -0.8177    0.1193    1.4545 C   0  0  0  0  0  0  0  0  0  0  0  0
   -0.3210    0.1713    2.5682 O   0  0  0  0  0  0  0  0  0  0  0  0
   -0.1350    0.0442    0.2848 O   0  0  0  0  0  0  0  0  0  0  0  0
    1.2932    0.0328    0.4359 C   0  0  0  0  0  0  0  0  0  0  0  0
    1.9166   -0.0815   -0.9524 C   0  0  0  0  0  0  0  0  0  0  0  0
    3.4218   -0.0984   -0.9037 C   0  0  0  0  0  0  0  0  0  0  0  0
    4.1479    1.0977   -0.9861 C   0  0  0  0  0  0  0  0  0  0  0  0
    5.5419    1.0825   -0.9221 C   0  0  0  0  0  0  0  0  0  0  0  0
    6.2117   -0.1252   -0.7711 C   0  0  0  0  0  0  0  0  0  0  0  0
    7.5735   -0.0934   -0.7122 O   0  0  0  0  0  0  0  0  0  0  0  0
    5.5099   -1.3226   -0.6816 C   0  0  0  0  0  0  0  0  0  0  0  0
    4.1146   -1.3076   -0.7462 C   0  0  0  0  0  0  0  0  0  0  0  0
   -2.8325    0.0746   -0.0829 C   0  0  0  0  0  0  0  0  0  0  0  0
   -4.2219    0.0867   -0.2650 C   0  0  0  0  0  0  0  0  0  0  0  0
   -8.1347    0.1466   -0.3434 H   0  0  0  0  0  0  0  0  0  0  0  0
   -6.7738    0.9941   -1.0886 H   0  0  0  0  0  0  0  0  0  0  0  0
   -6.8033   -0.8107   -1.0041 H   0  0  0  0  0  0  0  0  0  0  0  0
   -5.1868    0.2606    2.9859 H   0  0  0  0  0  0  0  0  0  0  0  0
   -2.7405    0.2401    3.3192 H   0  0  0  0  0  0  0  0  0  0  0  0
    1.6145    0.9613    0.9237 H   0  0  0  0  0  0  0  0  0  0  0  0
    1.5884   -0.8213    1.0577 H   0  0  0  0  0  0  0  0  0  0  0  0
    1.5700    0.7459   -1.5853 H   0  0  0  0  0  0  0  0  0  0  0  0
    1.5481   -0.9865   -1.4530 H   0  0  0  0  0  0  0  0  0  0  0  0
    3.6342    2.0496   -1.1004 H   0  0  0  0  0  0  0  0  0  0  0  0
    6.1031    2.0102   -0.9879 H   0  0  0  0  0  0  0  0  0  0  0  0
    7.8985   -1.0012   -0.5972 H   0  0  0  0  0  0  0  0  0  0  0  0
    6.0254   -2.2699   -0.5611 H   0  0  0  0  0  0  0  0  0  0  0  0
    3.5700   -2.2466   -0.6724 H   0  0  0  0  0  0  0  0  0  0  0  0
   -2.1914    0.0224   -0.9595 H   0  0  0  0  0  0  0  0  0  0  0  0
   -4.6025    0.0429   -1.2803 H   0  0  0  0  0  0  0  0  0  0  0  0
  1  2  1  0
  2  3  1  0
  3  4  2  0
  4  5  1  0
  5  6  2  0
  6  7  1  0
  7  8  2  0
  7  9  1  0
  9 10  1  0
 10 11  1  0
 11 12  1  0
 12 13  2  0
 13 14  1  0
 14 15  2  0
 15 16  1  0
 15 17  1  0
 17 18  2  0
  6 19  1  0
 19 20  2  0
 20  3  1  0
 18 12  1  0
  1 21  1  0
  1 22  1  0
  1 23  1  0
  4 24  1  0
  5 25  1  0
 10 26  1  0
 10 27  1  0
 11 28  1  0
 11 29  1  0
 13 30  1  0
 14 31  1  0
 16 32  1  0
 17 33  1  0
 18 34  1  0
 19 35  1  0
 20 36  1  0
M  END
$$$$
