
     RDKit          3D

 56 59  0  0  0  0  0  0  0  0999 V2000
   -7.0905    1.1199    0.1718 C   0  0  0  0  0  0  0  0  0  0  0  0
   -6.4477    2.4211    0.6166 C   0  0  0  0  0  0  0  0  0  0  0  0
   -4.9031    2.1481    1.5509 S   0  0  0  0  0  0  0  0  0  0  0  0
   -3.8040    1.5280    0.2844 C   0  0  0  0  0  0  0  0  0  0  0  0
   -3.7091    2.1034   -0.9777 C   0  0  0  0  0  0  0  0  0  0  0  0
   -2.8426    1.5607   -1.9270 C   0  0  0  0  0  0  0  0  0  0  0  0
   -2.0336    0.4563   -1.6182 C   0  0  0  0  0  0  0  0  0  0  0  0
   -2.0543   -0.0969   -0.3270 C   0  0  0  0  0  0  0  0  0  0  0  0
   -2.9703    0.4463    0.5993 C   0  0  0  0  0  0  0  0  0  0  0  0
   -1.2137   -1.1852    0.0296 N   0  0  0  0  0  0  0  0  0  0  0  0
   -0.5797   -1.1067    1.3713 C   0  0  0  0  0  0  0  0  0  0  0  0
    0.2977    0.1396    1.5801 C   0  0  0  0  0  0  0  0  0  0  0  0
    1.4692    0.2241    0.5948 C   0  0  0  0  0  0  0  0  0  0  0  0
    2.3254    1.3862    0.8938 N   0  0  0  0  0  0  0  0  0  0  0  0
    3.3311    1.1023    1.9418 C   0  0  0  0  0  0  0  0  0  0  0  0
    4.5165    0.2088    1.4955 C   0  0  0  0  0  0  0  0  0  0  0  0
    5.1754    0.7051    0.2745 N   0  0  0  0  0  0  0  0  0  0  0  0
    6.2201   -0.2117   -0.1682 C   0  0  0  0  0  0  0  0  0  0  0  0
    4.1780    0.9242   -0.7875 C   0  0  0  0  0  0  0  0  0  0  0  0
    3.0371    1.8534   -0.3159 C   0  0  0  0  0  0  0  0  0  0  0  0
   -0.6017   -2.0610   -0.9055 C   0  0  0  0  0  0  0  0  0  0  0  0
   -0.1841   -3.3488   -0.5223 C   0  0  0  0  0  0  0  0  0  0  0  0
    0.4082   -4.2337   -1.4276 C   0  0  0  0  0  0  0  0  0  0  0  0
    0.5804   -3.8595   -2.7514 C   0  0  0  0  0  0  0  0  0  0  0  0
    0.1446   -2.6070   -3.1683 C   0  0  0  0  0  0  0  0  0  0  0  0
   -0.4530   -1.7148   -2.2618 C   0  0  0  0  0  0  0  0  0  0  0  0
   -0.9596   -0.1390   -2.9097 S   0  0  0  0  0  0  0  0  0  0  0  0
   -8.0197    1.3367   -0.3710 H   0  0  0  0  0  0  0  0  0  0  0  0
   -7.3488    0.4901    1.0305 H   0  0  0  0  0  0  0  0  0  0  0  0
   -6.4475    0.5434   -0.5023 H   0  0  0  0  0  0  0  0  0  0  0  0
   -7.1393    2.9436    1.2844 H   0  0  0  0  0  0  0  0  0  0  0  0
   -6.2736    3.0820   -0.2357 H   0  0  0  0  0  0  0  0  0  0  0  0
   -4.2903    2.9837   -1.2439 H   0  0  0  0  0  0  0  0  0  0  0  0
   -2.7950    2.0162   -2.9123 H   0  0  0  0  0  0  0  0  0  0  0  0
   -3.0598    0.0080    1.5874 H   0  0  0  0  0  0  0  0  0  0  0  0
    0.0474   -1.9779    1.5893 H   0  0  0  0  0  0  0  0  0  0  0  0
   -1.3529   -1.1376    2.1481 H   0  0  0  0  0  0  0  0  0  0  0  0
   -0.3050    1.0521    1.5076 H   0  0  0  0  0  0  0  0  0  0  0  0
    0.6746    0.1035    2.6087 H   0  0  0  0  0  0  0  0  0  0  0  0
    2.0341   -0.7152    0.5844 H   0  0  0  0  0  0  0  0  0  0  0  0
    1.0460    0.3459   -0.4080 H   0  0  0  0  0  0  0  0  0  0  0  0
    2.8583    0.6579    2.8251 H   0  0  0  0  0  0  0  0  0  0  0  0
    3.7352    2.0661    2.2838 H   0  0  0  0  0  0  0  0  0  0  0  0
    4.1620   -0.8209    1.3500 H   0  0  0  0  0  0  0  0  0  0  0  0
    5.2458    0.1837    2.3139 H   0  0  0  0  0  0  0  0  0  0  0  0
    5.8279   -1.2055   -0.4161 H   0  0  0  0  0  0  0  0  0  0  0  0
    6.9791   -0.3272    0.6107 H   0  0  0  0  0  0  0  0  0  0  0  0
    6.7313    0.1859   -1.0502 H   0  0  0  0  0  0  0  0  0  0  0  0
    3.7577   -0.0311   -1.1301 H   0  0  0  0  0  0  0  0  0  0  0  0
    4.6634    1.3939   -1.6508 H   0  0  0  0  0  0  0  0  0  0  0  0
    2.3270    2.0142   -1.1369 H   0  0  0  0  0  0  0  0  0  0  0  0
    3.4547    2.8476   -0.0996 H   0  0  0  0  0  0  0  0  0  0  0  0
   -0.3566   -3.7059    0.4879 H   0  0  0  0  0  0  0  0  0  0  0  0
    0.7112   -5.2206   -1.0975 H   0  0  0  0  0  0  0  0  0  0  0  0
    1.0308   -4.5445   -3.4638 H   0  0  0  0  0  0  0  0  0  0  0  0
    0.2652   -2.3311   -4.2133 H   0  0  0  0  0  0  0  0  0  0  0  0
  1  2  1  0
  2  3  1  0
  3  4  1  0
  4  5  2  0
  5  6  1  0
  6  7  2  0
  7  8  1  0
  8  9  2  0
  8 10  1  0
 10 11  1  0
 11 12  1  0
 12 13  1  0
 13 14  1  0
 14 15  1  0
 15 16  1  0
 16 17  1  0
 17 18  1  0
 17 19  1  0
 19 20  1  0
 10 21  1  0
 21 22  2  0
 22 23  1  0
 23 24  2  0
 24 25  1  0
 25 26  2  0
 26 27  1  0
  9  4  1  0
 20 14  1  0
 26 21  1  0
 27  7  1  0
  1 28  1  0
  1 29  1  0
  1 30  1  0
  2 31  1  0
  2 32  1  0
  5 33  1  0
  6 34  1  0
  9 35  1  0
 11 36  1  0
 11 37  1  0
 12 38  1  0
 12 39  1  0
 13 40  1  0
 13 41  1  0
 15 42  1  0
 15 43  1  0
 16 44  1  0
 16 45  1  0
 18 46  1  0
 18 47  1  0
 18 48  1  0
 19 49  1  0
 19 50  1  0
 20 51  1  0
 20 52  1  0
 22 53  1  0
 23 54  1  0
 24 55  1  0
 25 56  1  0
M  END
$$$$
