
     RDKit          3D

 37 39  0  0  0  0  0  0  0  0999 V2000
    3.8580    0.6007   -1.0610 N   0  0  0  0  0  0  0  0  0  0  0  0
    2.5586    0.7506   -0.4095 C   0  0  0  0  0  0  0  0  0  0  0  0
    2.3239   -0.3573    0.6142 C   0  0  0  0  0  0  0  0  0  0  0  0
    1.0000   -0.2216    1.3861 C   0  0  0  0  0  0  0  0  0  0  0  0
   -0.1926   -0.4987    0.5469 N   0  0  0  0  0  0  0  0  0  0  0  0
   -0.5234   -1.8804    0.3474 C   0  0  0  0  0  0  0  0  0  0  0  0
    0.2507   -2.9374    0.8872 C   0  0  0  0  0  0  0  0  0  0  0  0
   -0.0642   -4.2901    0.6978 C   0  0  0  0  0  0  0  0  0  0  0  0
   -1.1747   -4.6437   -0.0448 C   0  0  0  0  0  0  0  0  0  0  0  0
   -1.9617   -3.6399   -0.5927 C   0  0  0  0  0  0  0  0  0  0  0  0
   -1.6482   -2.2764   -0.4042 C   0  0  0  0  0  0  0  0  0  0  0  0
   -2.7729   -1.1473   -1.1784 S   0  0  0  0  0  0  0  0  0  0  0  0
   -2.1038    0.4325   -0.7318 C   0  0  0  0  0  0  0  0  0  0  0  0
   -2.8352    1.5338   -1.2248 C   0  0  0  0  0  0  0  0  0  0  0  0
   -2.4381    2.8392   -0.9671 C   0  0  0  0  0  0  0  0  0  0  0  0
   -1.2979    3.0658   -0.2052 C   0  0  0  0  0  0  0  0  0  0  0  0
   -0.8234    4.4720    0.0697 C   0  0  0  0  0  0  0  0  0  0  0  0
    0.0442    4.9202   -0.8777 F   0  0  0  0  0  0  0  0  0  0  0  0
   -1.8366    5.3813    0.1124 F   0  0  0  0  0  0  0  0  0  0  0  0
   -0.1705    4.5891    1.2602 F   0  0  0  0  0  0  0  0  0  0  0  0
   -0.5670    1.9573    0.2757 C   0  0  0  0  0  0  0  0  0  0  0  0
   -0.9392    0.6107    0.0430 C   0  0  0  0  0  0  0  0  0  0  0  0
    3.8838   -0.2832   -1.5692 H   0  0  0  0  0  0  0  0  0  0  0  0
    4.5985    0.5494   -0.3633 H   0  0  0  0  0  0  0  0  0  0  0  0
    1.7836    0.7384   -1.1816 H   0  0  0  0  0  0  0  0  0  0  0  0
    2.5311    1.7298    0.0788 H   0  0  0  0  0  0  0  0  0  0  0  0
    2.3826   -1.3278    0.1090 H   0  0  0  0  0  0  0  0  0  0  0  0
    3.1398   -0.3405    1.3488 H   0  0  0  0  0  0  0  0  0  0  0  0
    1.0129   -0.8950    2.2526 H   0  0  0  0  0  0  0  0  0  0  0  0
    0.9639    0.7472    1.8911 H   0  0  0  0  0  0  0  0  0  0  0  0
    1.1419   -2.7567    1.4780 H   0  0  0  0  0  0  0  0  0  0  0  0
    0.5667   -5.0600    1.1352 H   0  0  0  0  0  0  0  0  0  0  0  0
   -1.4293   -5.6882   -0.1988 H   0  0  0  0  0  0  0  0  0  0  0  0
   -2.8351   -3.9255   -1.1765 H   0  0  0  0  0  0  0  0  0  0  0  0
   -3.7308    1.3722   -1.8236 H   0  0  0  0  0  0  0  0  0  0  0  0
   -3.0199    3.6690   -1.3638 H   0  0  0  0  0  0  0  0  0  0  0  0
    0.3241    2.2107    0.8400 H   0  0  0  0  0  0  0  0  0  0  0  0
  1  2  1  0
  2  3  1  0
  3  4  1  0
  4  5  1  0
  5  6  1  0
  6  7  2  0
  7  8  1  0
  8  9  2  0
  9 10  1  0
 10 11  2  0
 11 12  1  0
 12 13  1  0
 13 14  2  0
 14 15  1  0
 15 16  2  0
 16 17  1  0
 17 18  1  0
 17 19  1  0
 17 20  1  0
 16 21  1  0
 21 22  2  0
 22  5  1  0
 11  6  1  0
 22 13  1  0
  1 23  1  0
  1 24  1  0
  2 25  1  0
  2 26  1  0
  3 27  1  0
  3 28  1  0
  4 29  1  0
  4 30  1  0
  7 31  1  0
  8 32  1  0
  9 33  1  0
 10 34  1  0
 14 35  1  0
 15 36  1  0
 21 37  1  0
M  END
$$$$
