
     RDKit          3D

 33 35  0  0  0  0  0  0  0  0999 V2000
    5.5014   -0.4421    0.6188 C   0  0  0  0  0  0  0  0  0  0  0  0
    4.6559   -1.2062   -0.2314 O   0  0  0  0  0  0  0  0  0  0  0  0
    3.3458   -0.8235   -0.3137 C   0  0  0  0  0  0  0  0  0  0  0  0
    2.5607   -1.6158   -1.1535 C   0  0  0  0  0  0  0  0  0  0  0  0
    1.2024   -1.3432   -1.3245 C   0  0  0  0  0  0  0  0  0  0  0  0
    0.6142   -0.2651   -0.6552 C   0  0  0  0  0  0  0  0  0  0  0  0
    1.3966    0.5517    0.1784 C   0  0  0  0  0  0  0  0  0  0  0  0
    2.7610    0.2556    0.3532 C   0  0  0  0  0  0  0  0  0  0  0  0
    0.7853    1.7122    0.9197 C   0  0  0  0  0  0  0  0  0  0  0  0
   -0.4675    2.2291    0.2181 C   0  0  0  0  0  0  0  0  0  0  0  0
   -1.4340    1.0988   -0.0269 C   0  0  0  0  0  0  0  0  0  0  0  0
   -2.6711    1.1236    0.5011 C   0  0  0  0  0  0  0  0  0  0  0  0
   -3.6574    0.1038    0.4363 C   0  0  0  0  0  0  0  0  0  0  0  0
   -4.1822   -0.6195   -0.6280 C   0  0  0  0  0  0  0  0  0  0  0  0
   -5.1805   -1.4876   -0.1255 C   0  0  0  0  0  0  0  0  0  0  0  0
   -5.2438   -1.2406    1.2201 C   0  0  0  0  0  0  0  0  0  0  0  0
   -4.3535   -0.2807    1.5654 O   0  0  0  0  0  0  0  0  0  0  0  0
   -0.8432   -0.0101   -0.8434 C   0  0  0  0  0  0  0  0  0  0  0  0
   -1.4792   -0.6513   -1.6684 O   0  0  0  0  0  0  0  0  0  0  0  0
    5.5741    0.5947    0.2744 H   0  0  0  0  0  0  0  0  0  0  0  0
    5.1633   -0.4911    1.6591 H   0  0  0  0  0  0  0  0  0  0  0  0
    6.5037   -0.8788    0.5736 H   0  0  0  0  0  0  0  0  0  0  0  0
    3.0092   -2.4578   -1.6760 H   0  0  0  0  0  0  0  0  0  0  0  0
    0.6062   -1.9787   -1.9764 H   0  0  0  0  0  0  0  0  0  0  0  0
    3.3463    0.8861    1.0155 H   0  0  0  0  0  0  0  0  0  0  0  0
    1.5092    2.5326    0.9934 H   0  0  0  0  0  0  0  0  0  0  0  0
    0.5435    1.3876    1.9395 H   0  0  0  0  0  0  0  0  0  0  0  0
   -0.9165    3.0242    0.8254 H   0  0  0  0  0  0  0  0  0  0  0  0
   -0.2028    2.6853   -0.7452 H   0  0  0  0  0  0  0  0  0  0  0  0
   -2.9494    1.9657    1.1306 H   0  0  0  0  0  0  0  0  0  0  0  0
   -3.8768   -0.5266   -1.6615 H   0  0  0  0  0  0  0  0  0  0  0  0
   -5.7794   -2.1951   -0.6803 H   0  0  0  0  0  0  0  0  0  0  0  0
   -5.8417   -1.6371    2.0283 H   0  0  0  0  0  0  0  0  0  0  0  0
  1  2  1  0
  2  3  1  0
  3  4  2  0
  4  5  1  0
  5  6  2  0
  6  7  1  0
  7  8  2  0
  7  9  1  0
  9 10  1  0
 10 11  1  0
 11 12  2  3
 12 13  1  0
 13 14  2  0
 14 15  1  0
 15 16  2  0
 16 17  1  0
 11 18  1  0
 18 19  2  0
  8  3  1  0
 17 13  1  0
 18  6  1  0
  1 20  1  0
  1 21  1  0
  1 22  1  0
  4 23  1  0
  5 24  1  0
  8 25  1  0
  9 26  1  0
  9 27  1  0
 10 28  1  0
 10 29  1  0
 12 30  1  0
 14 31  1  0
 15 32  1  0
 16 33  1  0
M  END
$$$$
