
     RDKit          3D

 68 71  0  0  0  0  0  0  0  0999 V2000
    2.6390    2.8869    5.4925 C   0  0  0  0  0  0  0  0  0  0  0  0
    3.0789    1.7788    4.6304 C   0  0  0  0  0  0  0  0  0  0  0  0
    2.4759    0.6518    4.1308 C   0  0  0  0  0  0  0  0  0  0  0  0
    3.4775    0.0197    3.3570 C   0  0  0  0  0  0  0  0  0  0  0  0
    3.2674   -1.1600    2.6717 N   0  0  0  0  0  0  0  0  0  0  0  0
    4.1662   -1.7550    1.8156 C   0  0  0  0  0  0  0  0  0  0  0  0
    5.2717   -1.3332    1.4918 O   0  0  0  0  0  0  0  0  0  0  0  0
    3.6262   -3.0325    1.1935 C   0  0  0  0  0  0  0  0  0  0  0  0
    2.6635   -2.7127    0.0495 C   0  0  0  0  0  0  0  0  0  0  0  0
    1.3010   -2.2591    0.5551 C   0  0  0  0  0  0  0  0  0  0  0  0
    1.0379   -2.3449    1.7594 O   0  0  0  0  0  0  0  0  0  0  0  0
    0.3983   -1.7320   -0.3579 N   0  0  0  0  0  0  0  0  0  0  0  0
    0.6378   -1.6906   -1.8107 C   0  0  0  0  0  0  0  0  0  0  0  0
    1.1306   -0.3539   -2.2392 C   0  0  0  0  0  0  0  0  0  0  0  0
    2.3840    0.1471   -2.5348 C   0  0  0  0  0  0  0  0  0  0  0  0
    2.2040    1.5084   -2.8778 C   0  0  0  0  0  0  0  0  0  0  0  0
    0.8549    1.7518   -2.7836 C   0  0  0  0  0  0  0  0  0  0  0  0
    0.1951    0.6275   -2.4057 O   0  0  0  0  0  0  0  0  0  0  0  0
   -0.9074   -1.2601    0.1884 C   0  0  0  0  0  0  0  0  0  0  0  0
   -2.0832   -1.3440   -0.8240 C   0  0  0  0  0  0  0  0  0  0  0  0
   -2.6650   -2.4103   -1.0401 O   0  0  0  0  0  0  0  0  0  0  0  0
   -2.3603   -0.1954   -1.5380 N   0  0  0  0  0  0  0  0  0  0  0  0
   -3.3395   -0.1855   -2.5982 C   0  0  0  0  0  0  0  0  0  0  0  0
   -3.7115    1.2253   -3.0380 C   0  0  0  0  0  0  0  0  0  0  0  0
   -4.4023    1.0034   -4.3773 C   0  0  0  0  0  0  0  0  0  0  0  0
   -3.7656   -0.2551   -4.9718 C   0  0  0  0  0  0  0  0  0  0  0  0
   -2.8355   -0.8120   -3.8964 C   0  0  0  0  0  0  0  0  0  0  0  0
   -0.8588    0.0690    0.9726 C   0  0  0  0  0  0  0  0  0  0  0  0
    0.2560    0.9267    0.8906 C   0  0  0  0  0  0  0  0  0  0  0  0
    0.3062    2.1384    1.5864 C   0  0  0  0  0  0  0  0  0  0  0  0
   -0.7514    2.5145    2.3997 C   0  0  0  0  0  0  0  0  0  0  0  0
   -1.8606    1.6810    2.5164 C   0  0  0  0  0  0  0  0  0  0  0  0
   -1.9290    0.4571    1.8210 C   0  0  0  0  0  0  0  0  0  0  0  0
   -3.1711   -0.3805    2.0014 C   0  0  0  0  0  0  0  0  0  0  0  0
    4.6124    0.7239    3.3938 N   0  0  0  0  0  0  0  0  0  0  0  0
    4.3643    1.8224    4.1945 O   0  0  0  0  0  0  0  0  0  0  0  0
    2.7675    3.8448    4.9790 H   0  0  0  0  0  0  0  0  0  0  0  0
    3.2220    2.9106    6.4177 H   0  0  0  0  0  0  0  0  0  0  0  0
    1.5821    2.7835    5.7597 H   0  0  0  0  0  0  0  0  0  0  0  0
    1.4557    0.3364    4.2874 H   0  0  0  0  0  0  0  0  0  0  0  0
    2.3356   -1.5638    2.7545 H   0  0  0  0  0  0  0  0  0  0  0  0
    4.4820   -3.5971    0.8049 H   0  0  0  0  0  0  0  0  0  0  0  0
    3.1658   -3.6537    1.9701 H   0  0  0  0  0  0  0  0  0  0  0  0
    2.5107   -3.6210   -0.5435 H   0  0  0  0  0  0  0  0  0  0  0  0
    3.1003   -1.9380   -0.5841 H   0  0  0  0  0  0  0  0  0  0  0  0
   -0.2656   -1.9743   -2.3569 H   0  0  0  0  0  0  0  0  0  0  0  0
    1.3823   -2.4435   -2.0857 H   0  0  0  0  0  0  0  0  0  0  0  0
    3.3185   -0.3967   -2.4986 H   0  0  0  0  0  0  0  0  0  0  0  0
    2.9642    2.2248   -3.1568 H   0  0  0  0  0  0  0  0  0  0  0  0
    0.2406    2.6274   -2.9396 H   0  0  0  0  0  0  0  0  0  0  0  0
   -1.1686   -2.0108    0.9474 H   0  0  0  0  0  0  0  0  0  0  0  0
   -1.6345    0.5184   -1.5515 H   0  0  0  0  0  0  0  0  0  0  0  0
   -4.2337   -0.7219   -2.2551 H   0  0  0  0  0  0  0  0  0  0  0  0
   -4.3576    1.7326   -2.3152 H   0  0  0  0  0  0  0  0  0  0  0  0
   -2.8157    1.8449   -3.1761 H   0  0  0  0  0  0  0  0  0  0  0  0
   -4.3041    1.8719   -5.0392 H   0  0  0  0  0  0  0  0  0  0  0  0
   -5.4746    0.8302   -4.2196 H   0  0  0  0  0  0  0  0  0  0  0  0
   -4.5423   -0.9845   -5.2276 H   0  0  0  0  0  0  0  0  0  0  0  0
   -3.2123   -0.0319   -5.8903 H   0  0  0  0  0  0  0  0  0  0  0  0
   -2.8478   -1.9070   -3.8683 H   0  0  0  0  0  0  0  0  0  0  0  0
   -1.8043   -0.5004   -4.1055 H   0  0  0  0  0  0  0  0  0  0  0  0
    1.1200    0.6678    0.2856 H   0  0  0  0  0  0  0  0  0  0  0  0
    1.1843    2.7739    1.4980 H   0  0  0  0  0  0  0  0  0  0  0  0
   -0.7133    3.4499    2.9501 H   0  0  0  0  0  0  0  0  0  0  0  0
   -2.6779    1.9873    3.1664 H   0  0  0  0  0  0  0  0  0  0  0  0
   -2.9175   -1.4250    2.2053 H   0  0  0  0  0  0  0  0  0  0  0  0
   -3.7626   -0.0318    2.8558 H   0  0  0  0  0  0  0  0  0  0  0  0
   -3.8070   -0.3198    1.1132 H   0  0  0  0  0  0  0  0  0  0  0  0
  1  2  1  0
  2  3  2  0
  3  4  1  0
  4  5  1  0
  5  6  1  0
  6  7  2  0
  6  8  1  0
  8  9  1  0
  9 10  1  0
 10 11  2  0
 10 12  1  0
 12 13  1  0
 13 14  1  0
 14 15  2  0
 15 16  1  0
 16 17  2  0
 17 18  1  0
 12 19  1  0
 19 20  1  0
 20 21  2  0
 20 22  1  0
 22 23  1  0
 23 24  1  0
 24 25  1  0
 25 26  1  0
 26 27  1  0
 19 28  1  0
 28 29  2  0
 29 30  1  0
 30 31  2  0
 31 32  1  0
 32 33  2  0
 33 34  1  0
  4 35  2  0
 35 36  1  0
 36  2  1  0
 18 14  1  0
 27 23  1  0
 33 28  1  0
  1 37  1  0
  1 38  1  0
  1 39  1  0
  3 40  1  0
  5 41  1  0
  8 42  1  0
  8 43  1  0
  9 44  1  0
  9 45  1  0
 13 46  1  0
 13 47  1  0
 15 48  1  0
 16 49  1  0
 17 50  1  0
 19 51  1  0
 22 52  1  0
 23 53  1  0
 24 54  1  0
 24 55  1  0
 25 56  1  0
 25 57  1  0
 26 58  1  0
 26 59  1  0
 27 60  1  0
 27 61  1  0
 29 62  1  0
 30 63  1  0
 31 64  1  0
 32 65  1  0
 34 66  1  0
 34 67  1  0
 34 68  1  0
M  END
$$$$
