
     RDKit          3D

 42 44  0  0  0  0  0  0  0  0999 V2000
   -5.0814    1.5772    0.4424 C   0  0  0  0  0  0  0  0  0  0  0  0
   -4.0886    1.1467   -0.5974 C   0  0  0  0  0  0  0  0  0  0  0  0
   -4.4109    1.2264   -1.9527 C   0  0  0  0  0  0  0  0  0  0  0  0
   -3.4913    0.8633   -2.9422 C   0  0  0  0  0  0  0  0  0  0  0  0
   -2.2196    0.4210   -2.5420 C   0  0  0  0  0  0  0  0  0  0  0  0
   -1.8619    0.3331   -1.1964 C   0  0  0  0  0  0  0  0  0  0  0  0
   -2.8085    0.7138   -0.2169 C   0  0  0  0  0  0  0  0  0  0  0  0
   -0.5179   -0.1483   -1.1475 C   0  0  0  0  0  0  0  0  0  0  0  0
    0.2246   -0.3804    0.0531 C   0  0  0  0  0  0  0  0  0  0  0  0
    1.5224   -0.0812    0.2312 C   0  0  0  0  0  0  0  0  0  0  0  0
    2.2529   -0.3065    1.4824 C   0  0  0  0  0  0  0  0  0  0  0  0
    3.5710   -0.7556    1.4279 C   0  0  0  0  0  0  0  0  0  0  0  0
    4.2838   -0.9490    2.6060 C   0  0  0  0  0  0  0  0  0  0  0  0
    3.7129   -0.6982    3.8050 N   0  0  0  0  0  4  0  0  0  0  0  0
    4.4907   -0.8998    5.0393 C   0  0  0  0  0  0  0  0  0  0  0  0
    2.4447   -0.2375    3.8822 C   0  0  0  0  0  0  0  0  0  0  0  0
    1.6943   -0.0320    2.7300 C   0  0  0  0  0  0  0  0  0  0  0  0
   -0.0978   -0.3905   -2.4461 C   0  0  0  0  0  0  0  0  0  0  0  0
    1.1664   -0.9810   -2.9735 C   0  0  0  0  0  0  0  0  0  0  0  0
   -1.1246    0.0143   -3.2801 N   0  0  0  0  0  0  0  0  0  0  0  0
   -1.0807   -0.0029   -4.7292 C   0  0  0  0  0  0  0  0  0  0  0  0
   -4.9705    2.6468    0.6450 H   0  0  0  0  0  0  0  0  0  0  0  0
   -6.1062    1.3837    0.1084 H   0  0  0  0  0  0  0  0  0  0  0  0
   -4.9348    1.0230    1.3755 H   0  0  0  0  0  0  0  0  0  0  0  0
   -5.3953    1.5768   -2.2587 H   0  0  0  0  0  0  0  0  0  0  0  0
   -3.7694    0.9287   -3.9893 H   0  0  0  0  0  0  0  0  0  0  0  0
   -2.5430    0.6673    0.8347 H   0  0  0  0  0  0  0  0  0  0  0  0
   -0.3494   -0.8027    0.8748 H   0  0  0  0  0  0  0  0  0  0  0  0
    2.0923    0.3566   -0.5863 H   0  0  0  0  0  0  0  0  0  0  0  0
    4.0475   -0.9651    0.4717 H   0  0  0  0  0  0  0  0  0  0  0  0
    5.3116   -1.3011    2.5988 H   0  0  0  0  0  0  0  0  0  0  0  0
    3.8109   -1.1751    5.8499 H   0  0  0  0  0  0  0  0  0  0  0  0
    5.2104   -1.7072    4.8816 H   0  0  0  0  0  0  0  0  0  0  0  0
    5.0018    0.0402    5.2611 H   0  0  0  0  0  0  0  0  0  0  0  0
    2.0410   -0.0300    4.8693 H   0  0  0  0  0  0  0  0  0  0  0  0
    0.6807    0.3552    2.8158 H   0  0  0  0  0  0  0  0  0  0  0  0
    1.8596   -0.1882   -3.2715 H   0  0  0  0  0  0  0  0  0  0  0  0
    1.6593   -1.6061   -2.2229 H   0  0  0  0  0  0  0  0  0  0  0  0
    0.9768   -1.6231   -3.8397 H   0  0  0  0  0  0  0  0  0  0  0  0
   -1.7389    0.7723   -5.1279 H   0  0  0  0  0  0  0  0  0  0  0  0
   -0.0618    0.2063   -5.0639 H   0  0  0  0  0  0  0  0  0  0  0  0
   -1.4030   -0.9912   -5.0656 H   0  0  0  0  0  0  0  0  0  0  0  0
  1  2  1  0
  2  3  2  0
  3  4  1  0
  4  5  2  0
  5  6  1  0
  6  7  2  0
  6  8  1  0
  8  9  1  0
  9 10  2  3
 10 11  1  0
 11 12  2  0
 12 13  1  0
 13 14  2  0
 14 15  1  0
 14 16  1  0
 16 17  2  0
  8 18  2  0
 18 19  1  0
 18 20  1  0
 20 21  1  0
  7  2  1  0
 17 11  1  0
 20  5  1  0
  1 22  1  0
  1 23  1  0
  1 24  1  0
  3 25  1  0
  4 26  1  0
  7 27  1  0
  9 28  1  0
 10 29  1  0
 12 30  1  0
 13 31  1  0
 15 32  1  0
 15 33  1  0
 15 34  1  0
 16 35  1  0
 17 36  1  0
 19 37  1  0
 19 38  1  0
 19 39  1  0
 21 40  1  0
 21 41  1  0
 21 42  1  0
M  CHG  1  14   1
M  END
$$$$
