
     RDKit          3D

 88 93  0  0  0  0  0  0  0  0999 V2000
    2.1908    0.3620   -2.4678 C   0  0  0  0  0  0  0  0  0  0  0  0
    2.2362   -0.5862   -1.3091 C   0  0  0  0  0  0  0  0  0  0  0  0
    2.5743   -1.7576   -1.3900 O   0  0  0  0  0  0  0  0  0  0  0  0
    1.8303    0.0497   -0.1762 O   0  0  0  0  0  0  0  0  0  0  0  0
    1.8601   -0.7261    1.0344 C   0  0  1  0  0  0  0  0  0  0  0  0
    2.1105    0.1991    2.2383 C   0  0  1  0  0  0  0  0  0  0  0  0
    3.1065    1.3268    1.9758 C   0  0  0  0  0  0  0  0  0  0  0  0
    4.3408    0.8031    1.4591 O   0  0  0  0  0  0  0  0  0  0  0  0
    5.2324    0.3693    2.3844 C   0  0  0  0  0  0  0  0  0  0  0  0
    5.0751    0.3955    3.5942 O   0  0  0  0  0  0  0  0  0  0  0  0
    6.4597   -0.1487    1.7232 C   0  0  0  0  0  0  0  0  0  0  0  0
    6.5558   -0.3070    0.3342 C   0  0  0  0  0  0  0  0  0  0  0  0
    7.7333   -0.7991   -0.2347 C   0  0  0  0  0  0  0  0  0  0  0  0
    8.8167   -1.1321    0.5775 C   0  0  0  0  0  0  0  0  0  0  0  0
    8.7258   -0.9819    1.9611 C   0  0  0  0  0  0  0  0  0  0  0  0
    7.5502   -0.4934    2.5334 C   0  0  0  0  0  0  0  0  0  0  0  0
    0.7202    0.7117    2.6864 C   0  0  0  0  0  0  0  0  0  0  0  0
   -0.3456   -0.0497    1.8354 C   0  0  2  0  0  0  0  0  0  0  0  0
   -0.6712    0.7742    0.7019 O   0  0  0  0  0  0  0  0  0  0  0  0
   -1.3665    1.9150    0.9388 C   0  0  0  0  0  0  0  0  0  0  0  0
   -1.7643    2.3138    2.0191 O   0  0  0  0  0  0  0  0  0  0  0  0
   -1.5587    2.6059   -0.3509 C   0  0  0  0  0  0  0  0  0  0  0  0
   -2.3496    3.6868   -0.4121 C   0  0  0  0  0  0  0  0  0  0  0  0
   -2.5883    4.4663   -1.6337 C   0  0  0  0  0  0  0  0  0  0  0  0
   -2.8090    5.8455   -1.5165 C   0  0  0  0  0  0  0  0  0  0  0  0
   -3.0537    6.6276   -2.6474 C   0  0  0  0  0  0  0  0  0  0  0  0
   -3.0904    6.0351   -3.9082 C   0  0  0  0  0  0  0  0  0  0  0  0
   -2.8946    4.6617   -4.0373 C   0  0  0  0  0  0  0  0  0  0  0  0
   -2.6509    3.8797   -2.9051 C   0  0  0  0  0  0  0  0  0  0  0  0
   -1.5326   -0.5858    2.6880 C   0  0  0  0  0  0  0  0  0  0  0  0
   -1.3054   -1.0730    3.8036 O   0  0  0  0  0  0  0  0  0  0  0  0
   -2.9841   -0.5180    2.2404 C   0  0  0  0  0  0  0  0  0  0  0  0
   -3.8662   -0.2166    3.4395 C   0  0  0  0  0  0  0  0  0  0  0  0
   -3.5850   -0.6889    1.0396 C   0  0  0  0  0  0  0  0  0  0  0  0
   -3.1264   -1.0131   -0.3273 C   0  0  0  0  0  0  0  0  0  0  0  0
   -3.1405   -2.4366   -0.8778 C   0  0  2  0  0  0  0  0  0  0  0  0
   -2.0776   -2.9633   -1.8242 C   0  0  0  0  0  0  0  0  0  0  0  0
   -1.1068   -3.9975   -1.2147 C   0  0  0  0  0  0  0  0  0  0  0  0
   -0.2766   -3.5241   -0.0362 C   0  0  2  0  0  0  0  0  0  0  0  0
    0.7501   -4.4726    0.4893 C   0  0  0  0  0  0  0  0  0  0  0  0
   -1.1177   -2.9621    0.9552 O   0  0  0  0  0  0  0  0  0  0  0  0
   -0.2051   -2.0437    0.3174 C   0  0  1  0  0  0  0  0  0  0  0  0
    0.4912   -1.2950    1.3903 C   0  0  1  0  0  0  0  0  0  0  0  0
   -4.1647   -1.4326   -1.3786 C   0  0  0  0  0  0  0  0  0  0  0  0
   -5.6052   -1.7329   -1.0260 C   0  0  0  0  0  0  0  0  0  0  0  0
   -4.0224   -0.8091   -2.7494 C   0  0  0  0  0  0  0  0  0  0  0  0
    1.1612    0.6783   -2.6488 H   0  0  0  0  0  0  0  0  0  0  0  0
    2.5648   -0.1417   -3.3637 H   0  0  0  0  0  0  0  0  0  0  0  0
    2.8297    1.2248   -2.2649 H   0  0  0  0  0  0  0  0  0  0  0  0
    2.6326   -1.5036    0.9853 H   0  0  0  0  0  0  0  0  0  0  0  0
    2.5032   -0.4295    3.0495 H   0  0  0  0  0  0  0  0  0  0  0  0
    2.7167    2.0228    1.2244 H   0  0  0  0  0  0  0  0  0  0  0  0
    3.2834    1.9211    2.8811 H   0  0  0  0  0  0  0  0  0  0  0  0
    5.7230   -0.0571   -0.3166 H   0  0  0  0  0  0  0  0  0  0  0  0
    7.8047   -0.9225   -1.3128 H   0  0  0  0  0  0  0  0  0  0  0  0
    9.7329   -1.5144    0.1331 H   0  0  0  0  0  0  0  0  0  0  0  0
    9.5684   -1.2454    2.5958 H   0  0  0  0  0  0  0  0  0  0  0  0
    7.4878   -0.3818    3.6148 H   0  0  0  0  0  0  0  0  0  0  0  0
    0.6033    0.5161    3.7587 H   0  0  0  0  0  0  0  0  0  0  0  0
    0.6618    1.7971    2.5594 H   0  0  0  0  0  0  0  0  0  0  0  0
   -1.0315    2.2118   -1.2080 H   0  0  0  0  0  0  0  0  0  0  0  0
   -2.8397    4.0550    0.4883 H   0  0  0  0  0  0  0  0  0  0  0  0
   -2.7866    6.3283   -0.5409 H   0  0  0  0  0  0  0  0  0  0  0  0
   -3.2138    7.6974   -2.5426 H   0  0  0  0  0  0  0  0  0  0  0  0
   -3.2800    6.6436   -4.7883 H   0  0  0  0  0  0  0  0  0  0  0  0
   -2.9343    4.1981   -5.0193 H   0  0  0  0  0  0  0  0  0  0  0  0
   -2.5211    2.8087   -3.0342 H   0  0  0  0  0  0  0  0  0  0  0  0
   -3.4896    0.6577    3.9808 H   0  0  0  0  0  0  0  0  0  0  0  0
   -4.9008    0.0068    3.1581 H   0  0  0  0  0  0  0  0  0  0  0  0
   -3.8892   -1.0716    4.1226 H   0  0  0  0  0  0  0  0  0  0  0  0
   -4.6644   -0.5382    1.0747 H   0  0  0  0  0  0  0  0  0  0  0  0
   -2.3760   -0.3268   -0.6996 H   0  0  0  0  0  0  0  0  0  0  0  0
   -3.5027   -3.2278   -0.2263 H   0  0  0  0  0  0  0  0  0  0  0  0
   -2.5924   -3.4574   -2.6580 H   0  0  0  0  0  0  0  0  0  0  0  0
   -1.5036   -2.1397   -2.2639 H   0  0  0  0  0  0  0  0  0  0  0  0
   -0.4232   -4.3290   -2.0062 H   0  0  0  0  0  0  0  0  0  0  0  0
   -1.6811   -4.8788   -0.8996 H   0  0  0  0  0  0  0  0  0  0  0  0
    1.2245   -4.1053    1.4040 H   0  0  0  0  0  0  0  0  0  0  0  0
    0.2938   -5.4404    0.7207 H   0  0  0  0  0  0  0  0  0  0  0  0
    1.5357   -4.6310   -0.2567 H   0  0  0  0  0  0  0  0  0  0  0  0
   -0.5070   -1.3827   -0.4792 H   0  0  0  0  0  0  0  0  0  0  0  0
    0.6325   -1.9587    2.2581 H   0  0  0  0  0  0  0  0  0  0  0  0
   -5.7025   -2.2748   -0.0791 H   0  0  0  0  0  0  0  0  0  0  0  0
   -6.1772   -0.8028   -0.9492 H   0  0  0  0  0  0  0  0  0  0  0  0
   -6.0615   -2.3536   -1.8054 H   0  0  0  0  0  0  0  0  0  0  0  0
   -4.3357   -1.5175   -3.5232 H   0  0  0  0  0  0  0  0  0  0  0  0
   -4.6526    0.0831   -2.8239 H   0  0  0  0  0  0  0  0  0  0  0  0
   -2.9946   -0.5010   -2.9670 H   0  0  0  0  0  0  0  0  0  0  0  0
  1  2  1  0
  2  3  2  0
  2  4  1  0
  4  5  1  0
  5  6  1  0
  6  7  1  0
  7  8  1  0
  8  9  1  0
  9 10  2  0
  9 11  1  0
 11 12  2  0
 12 13  1  0
 13 14  2  0
 14 15  1  0
 15 16  2  0
  6 17  1  0
 17 18  1  0
 18 19  1  6
 19 20  1  0
 20 21  2  0
 20 22  1  0
 22 23  2  0
 23 24  1  0
 24 25  2  0
 25 26  1  0
 26 27  2  0
 27 28  1  0
 28 29  2  0
 18 30  1  0
 30 31  2  0
 30 32  1  0
 32 33  1  0
 32 34  2  3
 34 35  1  0
 35 36  1  0
 36 37  1  0
 37 38  1  0
 38 39  1  0
 39 40  1  1
 39 41  1  0
 41 42  1  0
 42 43  1  0
 36 44  1  0
 44 45  1  0
 44 46  1  0
 43  5  1  0
 16 11  1  0
 43 18  1  0
 29 24  1  0
 44 35  1  0
 42 39  1  0
  1 47  1  0
  1 48  1  0
  1 49  1  0
  5 50  1  6
  6 51  1  1
  7 52  1  0
  7 53  1  0
 12 54  1  0
 13 55  1  0
 14 56  1  0
 15 57  1  0
 16 58  1  0
 17 59  1  0
 17 60  1  0
 22 61  1  0
 23 62  1  0
 25 63  1  0
 26 64  1  0
 27 65  1  0
 28 66  1  0
 29 67  1  0
 33 68  1  0
 33 69  1  0
 33 70  1  0
 34 71  1  0
 35 72  1  0
 36 73  1  1
 37 74  1  0
 37 75  1  0
 38 76  1  0
 38 77  1  0
 40 78  1  0
 40 79  1  0
 40 80  1  0
 42 81  1  6
 43 82  1  1
 45 83  1  0
 45 84  1  0
 45 85  1  0
 46 86  1  0
 46 87  1  0
 46 88  1  0
M  END
$$$$
