
     RDKit          3D

 42 44  0  0  0  0  0  0  0  0999 V2000
    5.1241   -2.6517   -0.9964 C   0  0  0  0  0  0  0  0  0  0  0  0
    4.3626   -1.4931   -1.3418 O   0  0  0  0  0  0  0  0  0  0  0  0
    4.9557   -0.3161   -0.9930 C   0  0  0  0  0  0  0  0  0  0  0  0
    6.0582   -0.2149   -0.4686 O   0  0  0  0  0  0  0  0  0  0  0  0
    4.0986    0.8593   -1.3751 C   0  0  0  0  0  0  0  0  0  0  0  0
    2.8251    0.8694   -0.6739 N   0  0  0  0  0  0  0  0  0  0  0  0
    1.6108    0.6263   -1.2641 C   0  0  0  0  0  0  0  0  0  0  0  0
    0.6371    0.7313   -0.2950 C   0  0  0  0  0  0  0  0  0  0  0  0
   -0.7468    0.5124   -0.5741 C   0  0  0  0  0  0  0  0  0  0  0  0
   -1.6297   -0.0370    0.2768 C   0  0  0  0  0  0  0  0  0  0  0  0
   -3.0461   -0.2603   -0.0330 C   0  0  0  0  0  0  0  0  0  0  0  0
   -3.9976   -0.0558    0.9649 C   0  0  0  0  0  0  0  0  0  0  0  0
   -5.3419   -0.2877    0.6960 C   0  0  0  0  0  0  0  0  0  0  0  0
   -5.7355   -0.7177   -0.5234 N   0  0  0  0  0  4  0  0  0  0  0  0
   -7.1638   -0.9673   -0.7817 C   0  0  0  0  0  0  0  0  0  0  0  0
   -4.8291   -0.9477   -1.4992 C   0  0  0  0  0  0  0  0  0  0  0  0
   -3.4746   -0.7267   -1.2748 C   0  0  0  0  0  0  0  0  0  0  0  0
    1.2803    1.1025    0.9272 C   0  0  0  0  0  0  0  0  0  0  0  0
    0.8376    1.4076    2.2343 C   0  0  0  0  0  0  0  0  0  0  0  0
    1.7643    1.7404    3.2284 C   0  0  0  0  0  0  0  0  0  0  0  0
    3.1230    1.7812    2.9407 C   0  0  0  0  0  0  0  0  0  0  0  0
    3.5921    1.5017    1.6553 C   0  0  0  0  0  0  0  0  0  0  0  0
    2.6542    1.1712    0.6624 C   0  0  0  0  0  0  0  0  0  0  0  0
    5.2870   -2.6957    0.0850 H   0  0  0  0  0  0  0  0  0  0  0  0
    4.5523   -3.5342   -1.2964 H   0  0  0  0  0  0  0  0  0  0  0  0
    6.0773   -2.6568   -1.5341 H   0  0  0  0  0  0  0  0  0  0  0  0
    3.9191    0.8462   -2.4551 H   0  0  0  0  0  0  0  0  0  0  0  0
    4.6183    1.7926   -1.1340 H   0  0  0  0  0  0  0  0  0  0  0  0
    1.5451    0.3781   -2.3159 H   0  0  0  0  0  0  0  0  0  0  0  0
   -1.0721    0.8047   -1.5702 H   0  0  0  0  0  0  0  0  0  0  0  0
   -1.3050   -0.3496    1.2673 H   0  0  0  0  0  0  0  0  0  0  0  0
   -3.7011    0.2921    1.9531 H   0  0  0  0  0  0  0  0  0  0  0  0
   -6.1086   -0.1352    1.4505 H   0  0  0  0  0  0  0  0  0  0  0  0
   -7.7624   -0.2833   -0.1747 H   0  0  0  0  0  0  0  0  0  0  0  0
   -7.3731   -0.7889   -1.8396 H   0  0  0  0  0  0  0  0  0  0  0  0
   -7.3679   -2.0069   -0.5138 H   0  0  0  0  0  0  0  0  0  0  0  0
   -5.1959   -1.3146   -2.4538 H   0  0  0  0  0  0  0  0  0  0  0  0
   -2.7620   -0.9348   -2.0706 H   0  0  0  0  0  0  0  0  0  0  0  0
   -0.2192    1.3996    2.4778 H   0  0  0  0  0  0  0  0  0  0  0  0
    1.4193    1.9733    4.2327 H   0  0  0  0  0  0  0  0  0  0  0  0
    3.8330    2.0408    3.7233 H   0  0  0  0  0  0  0  0  0  0  0  0
    4.6575    1.5453    1.4454 H   0  0  0  0  0  0  0  0  0  0  0  0
  1  2  1  0
  2  3  1  0
  3  4  2  0
  3  5  1  0
  5  6  1  0
  6  7  1  0
  7  8  2  0
  8  9  1  0
  9 10  2  3
 10 11  1  0
 11 12  2  0
 12 13  1  0
 13 14  2  0
 14 15  1  0
 14 16  1  0
 16 17  2  0
  8 18  1  0
 18 19  2  0
 19 20  1  0
 20 21  2  0
 21 22  1  0
 22 23  2  0
 23  6  1  0
 17 11  1  0
 23 18  1  0
  1 24  1  0
  1 25  1  0
  1 26  1  0
  5 27  1  0
  5 28  1  0
  7 29  1  0
  9 30  1  0
 10 31  1  0
 12 32  1  0
 13 33  1  0
 15 34  1  0
 15 35  1  0
 15 36  1  0
 16 37  1  0
 17 38  1  0
 19 39  1  0
 20 40  1  0
 21 41  1  0
 22 42  1  0
M  CHG  1  14   1
M  END
$$$$
