
     RDKit          3D

 38 39  0  0  0  0  0  0  0  0999 V2000
    0.2173   -0.3154   -1.9006 C   0  0  0  0  0  0  0  0  0  0  0  0
   -0.2674   -0.3509   -0.5263 N   0  0  0  0  0  0  0  0  0  0  0  0
   -1.6873   -0.6591   -0.3393 C   0  0  0  0  0  0  0  0  0  0  0  0
   -2.5712    0.5873   -0.3944 C   0  0  0  0  0  0  0  0  0  0  0  0
   -4.0111    0.2294   -0.1436 C   0  0  0  0  0  0  0  0  0  0  0  0
   -4.5355    0.2763    1.1460 C   0  0  0  0  0  0  0  0  0  0  0  0
   -5.8656   -0.0827    1.3429 C   0  0  0  0  0  0  0  0  0  0  0  0
   -6.6317   -0.4804    0.2543 C   0  0  0  0  0  0  0  0  0  0  0  0
   -6.0308   -0.5059   -0.9926 C   0  0  0  0  0  0  0  0  0  0  0  0
   -4.7418   -0.1661   -1.2148 N   0  0  0  0  0  0  0  0  0  0  0  0
    0.4526    0.0863    0.5844 C   0  0  0  0  0  0  0  0  0  0  0  0
   -0.0708    0.3391    1.6680 O   0  0  0  0  0  0  0  0  0  0  0  0
    1.9205    0.2441    0.4787 C   0  0  0  0  0  0  0  0  0  0  0  0
    2.7249   -0.8107    0.0359 C   0  0  0  0  0  0  0  0  0  0  0  0
    4.1143   -0.6537   -0.0281 C   0  0  0  0  0  0  0  0  0  0  0  0
    4.7043    0.5508    0.3641 C   0  0  0  0  0  0  0  0  0  0  0  0
    6.0384    0.8422    0.3542 O   0  0  0  0  0  0  0  0  0  0  0  0
    6.9308   -0.1541   -0.1139 C   0  0  0  0  0  0  0  0  0  0  0  0
    8.1908    0.3307   -0.0581 F   0  0  0  0  0  0  0  0  0  0  0  0
    6.6642   -0.4822   -1.3966 F   0  0  0  0  0  0  0  0  0  0  0  0
    6.8722   -1.2617    0.6559 F   0  0  0  0  0  0  0  0  0  0  0  0
    3.8912    1.5914    0.8303 C   0  0  0  0  0  0  0  0  0  0  0  0
    2.5044    1.4402    0.8972 C   0  0  0  0  0  0  0  0  0  0  0  0
    1.1899    0.1712   -1.9887 H   0  0  0  0  0  0  0  0  0  0  0  0
    0.2838   -1.3423   -2.2705 H   0  0  0  0  0  0  0  0  0  0  0  0
   -0.4929    0.2442   -2.5166 H   0  0  0  0  0  0  0  0  0  0  0  0
   -1.8042   -1.1540    0.6335 H   0  0  0  0  0  0  0  0  0  0  0  0
   -1.9849   -1.3915   -1.1000 H   0  0  0  0  0  0  0  0  0  0  0  0
   -2.2406    1.3387    0.3327 H   0  0  0  0  0  0  0  0  0  0  0  0
   -2.4886    1.0651   -1.3783 H   0  0  0  0  0  0  0  0  0  0  0  0
   -3.9195    0.5842    1.9859 H   0  0  0  0  0  0  0  0  0  0  0  0
   -6.2984   -0.0528    2.3386 H   0  0  0  0  0  0  0  0  0  0  0  0
   -7.6706   -0.7651    0.3745 H   0  0  0  0  0  0  0  0  0  0  0  0
   -6.5867   -0.8110   -1.8744 H   0  0  0  0  0  0  0  0  0  0  0  0
    2.2759   -1.7597   -0.2477 H   0  0  0  0  0  0  0  0  0  0  0  0
    4.6992   -1.4989   -0.3803 H   0  0  0  0  0  0  0  0  0  0  0  0
    4.3405    2.5284    1.1532 H   0  0  0  0  0  0  0  0  0  0  0  0
    1.8845    2.2488    1.2773 H   0  0  0  0  0  0  0  0  0  0  0  0
  1  2  1  0
  2  3  1  0
  3  4  1  0
  4  5  1  0
  5  6  2  0
  6  7  1  0
  7  8  2  0
  8  9  1  0
  9 10  2  0
  2 11  1  0
 11 12  2  0
 11 13  1  0
 13 14  2  0
 14 15  1  0
 15 16  2  0
 16 17  1  0
 17 18  1  0
 18 19  1  0
 18 20  1  0
 18 21  1  0
 16 22  1  0
 22 23  2  0
 10  5  1  0
 23 13  1  0
  1 24  1  0
  1 25  1  0
  1 26  1  0
  3 27  1  0
  3 28  1  0
  4 29  1  0
  4 30  1  0
  6 31  1  0
  7 32  1  0
  8 33  1  0
  9 34  1  0
 14 35  1  0
 15 36  1  0
 22 37  1  0
 23 38  1  0
M  END
$$$$
