
     RDKit          3D

 68 70  0  0  0  0  0  0  0  0999 V2000
   -5.0730    5.4990    1.2788 C   0  0  0  0  0  0  0  0  0  0  0  0
   -4.9491    4.2149    1.8773 O   0  0  0  0  0  0  0  0  0  0  0  0
   -4.1259    3.3190    1.2536 C   0  0  0  0  0  0  0  0  0  0  0  0
   -3.9708    2.1056    1.9254 C   0  0  0  0  0  0  0  0  0  0  0  0
   -3.1595    1.0968    1.4012 C   0  0  0  0  0  0  0  0  0  0  0  0
   -2.4947    1.2823    0.1797 C   0  0  0  0  0  0  0  0  0  0  0  0
   -1.5946    0.2023   -0.4230 C   0  0  0  0  0  0  0  0  0  0  0  0
   -2.1777   -1.2344   -0.2305 C   0  0  0  0  0  0  0  0  0  0  0  0
   -1.6068   -2.1183    0.4045 O   0  0  0  0  0  0  0  0  0  0  0  0
   -3.4142   -1.4213   -0.8381 N   0  0  0  0  0  0  0  0  0  0  0  0
   -4.2205   -2.6474   -0.7465 C   0  0  0  0  0  0  0  0  0  0  0  0
   -4.6378   -2.9143    0.7078 C   0  0  0  0  0  0  0  0  0  0  0  0
   -5.4926   -2.4414   -1.5908 C   0  0  0  0  0  0  0  0  0  0  0  0
   -3.4619   -3.8587   -1.3129 C   0  0  0  0  0  0  0  0  0  0  0  0
   -0.1716    0.2918   -0.0255 N   0  0  0  0  0  0  0  0  0  0  0  0
    0.7584   -0.2480   -0.9169 C   0  0  0  0  0  0  0  0  0  0  0  0
    0.4289   -0.6623   -2.0323 O   0  0  0  0  0  0  0  0  0  0  0  0
    2.2191   -0.2469   -0.4888 C   0  0  0  0  0  0  0  0  0  0  0  0
    3.1280   -0.7155   -1.6222 C   0  0  0  0  0  0  0  0  0  0  0  0
    4.5933   -0.6059   -1.2547 C   0  0  0  0  0  0  0  0  0  0  0  0
    4.9714   -0.1263   -0.1914 O   0  0  0  0  0  0  0  0  0  0  0  0
    5.4077   -1.0903   -2.2533 N   0  0  0  0  0  0  0  0  0  0  0  0
    6.7843   -1.0921   -2.2252 C   0  0  0  0  0  0  0  0  0  0  0  0
    7.6635   -0.6088   -1.2321 C   0  0  0  0  0  0  0  0  0  0  0  0
    8.9183   -0.8593   -1.7290 C   0  0  0  0  0  0  0  0  0  0  0  0
   10.2849   -0.6145   -1.2378 C   0  0  0  0  0  0  0  0  0  0  0  0
    8.8032   -1.4558   -2.9444 O   0  0  0  0  0  0  0  0  0  0  0  0
    7.4643   -1.6093   -3.2556 N   0  0  0  0  0  0  0  0  0  0  0  0
    0.1475    0.5547    1.3321 C   0  0  0  0  0  0  0  0  0  0  0  0
    0.3899   -0.4902    2.2321 C   0  0  0  0  0  0  0  0  0  0  0  0
    0.7057   -0.2131    3.5642 C   0  0  0  0  0  0  0  0  0  0  0  0
    0.7841    1.1089    3.9982 C   0  0  0  0  0  0  0  0  0  0  0  0
    0.5474    2.1411    3.0974 C   0  0  0  0  0  0  0  0  0  0  0  0
    0.6277    3.4104    3.5171 F   0  0  0  0  0  0  0  0  0  0  0  0
    0.2330    1.8788    1.7691 C   0  0  0  0  0  0  0  0  0  0  0  0
   -2.6481    2.5089   -0.4867 C   0  0  0  0  0  0  0  0  0  0  0  0
   -3.4591    3.5180    0.0452 C   0  0  0  0  0  0  0  0  0  0  0  0
   -4.1053    6.0101    1.2380 H   0  0  0  0  0  0  0  0  0  0  0  0
   -5.5263    5.4296    0.2843 H   0  0  0  0  0  0  0  0  0  0  0  0
   -5.7398    6.0972    1.9068 H   0  0  0  0  0  0  0  0  0  0  0  0
   -4.4799    1.9476    2.8735 H   0  0  0  0  0  0  0  0  0  0  0  0
   -3.0456    0.1724    1.9655 H   0  0  0  0  0  0  0  0  0  0  0  0
   -1.6282    0.3549   -1.5123 H   0  0  0  0  0  0  0  0  0  0  0  0
   -3.8853   -0.5900   -1.1788 H   0  0  0  0  0  0  0  0  0  0  0  0
   -5.3146   -3.7739    0.7726 H   0  0  0  0  0  0  0  0  0  0  0  0
   -5.1524   -2.0458    1.1357 H   0  0  0  0  0  0  0  0  0  0  0  0
   -3.7754   -3.1275    1.3478 H   0  0  0  0  0  0  0  0  0  0  0  0
   -6.1370   -3.3269   -1.5694 H   0  0  0  0  0  0  0  0  0  0  0  0
   -6.0786   -1.5907   -1.2216 H   0  0  0  0  0  0  0  0  0  0  0  0
   -5.2423   -2.2309   -2.6382 H   0  0  0  0  0  0  0  0  0  0  0  0
   -4.1030   -4.7474   -1.3400 H   0  0  0  0  0  0  0  0  0  0  0  0
   -3.1146   -3.6622   -2.3342 H   0  0  0  0  0  0  0  0  0  0  0  0
   -2.5830   -4.1137   -0.7120 H   0  0  0  0  0  0  0  0  0  0  0  0
    2.3503   -0.9166    0.3664 H   0  0  0  0  0  0  0  0  0  0  0  0
    2.4959    0.7700   -0.1882 H   0  0  0  0  0  0  0  0  0  0  0  0
    2.9590   -0.1067   -2.5193 H   0  0  0  0  0  0  0  0  0  0  0  0
    2.9053   -1.7594   -1.8747 H   0  0  0  0  0  0  0  0  0  0  0  0
    5.0125   -1.4926   -3.0924 H   0  0  0  0  0  0  0  0  0  0  0  0
    7.4257   -0.1474   -0.2866 H   0  0  0  0  0  0  0  0  0  0  0  0
   10.9653   -1.4115   -1.5536 H   0  0  0  0  0  0  0  0  0  0  0  0
   10.6635    0.3361   -1.6261 H   0  0  0  0  0  0  0  0  0  0  0  0
   10.3023   -0.5680   -0.1447 H   0  0  0  0  0  0  0  0  0  0  0  0
    0.3261   -1.5273    1.9087 H   0  0  0  0  0  0  0  0  0  0  0  0
    0.8893   -1.0281    4.2596 H   0  0  0  0  0  0  0  0  0  0  0  0
    1.0296    1.3420    5.0292 H   0  0  0  0  0  0  0  0  0  0  0  0
    0.0605    2.7098    1.0938 H   0  0  0  0  0  0  0  0  0  0  0  0
   -2.1302    2.6917   -1.4273 H   0  0  0  0  0  0  0  0  0  0  0  0
   -3.5463    4.4471   -0.5085 H   0  0  0  0  0  0  0  0  0  0  0  0
  1  2  1  0
  2  3  1  0
  3  4  2  0
  4  5  1  0
  5  6  2  0
  6  7  1  0
  7  8  1  0
  8  9  2  0
  8 10  1  0
 10 11  1  0
 11 12  1  0
 11 13  1  0
 11 14  1  0
  7 15  1  0
 15 16  1  0
 16 17  2  0
 16 18  1  0
 18 19  1  0
 19 20  1  0
 20 21  2  0
 20 22  1  0
 22 23  1  0
 23 24  1  0
 24 25  2  0
 25 26  1  0
 25 27  1  0
 27 28  1  0
 15 29  1  0
 29 30  2  0
 30 31  1  0
 31 32  2  0
 32 33  1  0
 33 34  1  0
 33 35  2  0
  6 36  1  0
 36 37  2  0
 37  3  1  0
 28 23  2  0
 35 29  1  0
  1 38  1  0
  1 39  1  0
  1 40  1  0
  4 41  1  0
  5 42  1  0
  7 43  1  0
 10 44  1  0
 12 45  1  0
 12 46  1  0
 12 47  1  0
 13 48  1  0
 13 49  1  0
 13 50  1  0
 14 51  1  0
 14 52  1  0
 14 53  1  0
 18 54  1  0
 18 55  1  0
 19 56  1  0
 19 57  1  0
 22 58  1  0
 24 59  1  0
 26 60  1  0
 26 61  1  0
 26 62  1  0
 30 63  1  0
 31 64  1  0
 32 65  1  0
 35 66  1  0
 36 67  1  0
 37 68  1  0
M  END
$$$$
