
     RDKit          3D

 37 39  0  0  0  0  0  0  0  0999 V2000
   -3.9623   -2.1094   -0.2230 O   0  0  0  0  0  0  0  0  0  0  0  0
   -4.3025   -0.9535    0.0103 C   0  0  0  0  0  0  0  0  0  0  0  0
   -3.4139    0.1062    0.1432 N   0  0  0  0  0  0  0  0  0  0  0  0
   -2.0042    0.0655    0.1106 C   0  0  0  0  0  0  0  0  0  0  0  0
   -1.3299    1.2893    0.1810 C   0  0  0  0  0  0  0  0  0  0  0  0
    0.0692    1.3383    0.1603 C   0  0  0  0  0  0  0  0  0  0  0  0
    0.8240    0.1644    0.0738 C   0  0  0  0  0  0  0  0  0  0  0  0
    2.2276    0.3012    0.0571 N   0  0  0  0  0  0  0  0  0  0  0  0
    3.1731   -0.7044    0.0246 C   0  0  0  0  0  0  0  0  0  0  0  0
    2.9501   -1.9097   -0.0105 O   0  0  0  0  0  0  0  0  0  0  0  0
    4.6019   -0.2681   -0.0280 C   0  0  0  0  0  0  0  0  0  0  0  0
    5.4703   -1.0885   -0.7735 C   0  0  0  0  0  0  0  0  0  0  0  0
    6.8265   -0.7768   -0.8940 C   0  0  0  0  0  0  0  0  0  0  0  0
    7.3292    0.3558   -0.2632 C   0  0  0  0  0  0  0  0  0  0  0  0
    8.9975    0.7460   -0.4084 Cl  0  0  0  0  0  0  0  0  0  0  0  0
    6.4902    1.1740    0.4900 C   0  0  0  0  0  0  0  0  0  0  0  0
    5.1289    0.8636    0.6135 C   0  0  0  0  0  0  0  0  0  0  0  0
    4.1897    1.9227    1.6072 Cl  0  0  0  0  0  0  0  0  0  0  0  0
    0.1523   -1.0545    0.0078 C   0  0  0  0  0  0  0  0  0  0  0  0
   -1.2505   -1.1037    0.0266 C   0  0  0  0  0  0  0  0  0  0  0  0
   -5.7068   -0.5600    0.1525 C   0  0  0  0  0  0  0  0  0  0  0  0
   -6.2724    0.5458    0.7676 C   0  0  0  0  0  0  0  0  0  0  0  0
   -7.6966    0.5572    0.6792 C   0  0  0  0  0  0  0  0  0  0  0  0
   -8.1793   -0.5422    0.0086 C   0  0  0  0  0  0  0  0  0  0  0  0
   -6.9250   -1.5828   -0.5012 S   0  0  0  0  0  0  0  0  0  0  0  0
   -3.8204    1.0271    0.2134 H   0  0  0  0  0  0  0  0  0  0  0  0
   -1.8780    2.2251    0.2508 H   0  0  0  0  0  0  0  0  0  0  0  0
    0.5551    2.3090    0.2164 H   0  0  0  0  0  0  0  0  0  0  0  0
    2.5726    1.2521    0.1113 H   0  0  0  0  0  0  0  0  0  0  0  0
    5.0868   -1.9813   -1.2682 H   0  0  0  0  0  0  0  0  0  0  0  0
    7.4787   -1.4233   -1.4766 H   0  0  0  0  0  0  0  0  0  0  0  0
    6.8997    2.0496    0.9890 H   0  0  0  0  0  0  0  0  0  0  0  0
    0.6847   -1.9982   -0.0605 H   0  0  0  0  0  0  0  0  0  0  0  0
   -1.7140   -2.0845   -0.0217 H   0  0  0  0  0  0  0  0  0  0  0  0
   -5.7070    1.3129    1.2817 H   0  0  0  0  0  0  0  0  0  0  0  0
   -8.3347    1.3279    1.0948 H   0  0  0  0  0  0  0  0  0  0  0  0
   -9.2105   -0.7929   -0.2004 H   0  0  0  0  0  0  0  0  0  0  0  0
  1  2  2  0
  2  3  1  0
  3  4  1  0
  4  5  2  0
  5  6  1  0
  6  7  2  0
  7  8  1  0
  8  9  1  0
  9 10  2  0
  9 11  1  0
 11 12  2  0
 12 13  1  0
 13 14  2  0
 14 15  1  0
 14 16  1  0
 16 17  2  0
 17 18  1  0
  7 19  1  0
 19 20  2  0
  2 21  1  0
 21 22  2  0
 22 23  1  0
 23 24  2  0
 24 25  1  0
 20  4  1  0
 25 21  1  0
 17 11  1  0
  3 26  1  0
  5 27  1  0
  6 28  1  0
  8 29  1  0
 12 30  1  0
 13 31  1  0
 16 32  1  0
 19 33  1  0
 20 34  1  0
 22 35  1  0
 23 36  1  0
 24 37  1  0
M  END
$$$$
