
     RDKit          3D

 28 28  0  0  0  0  0  0  0  0999 V2000
   -1.9680   -2.2246   -0.1542 C   0  0  0  0  0  0  0  0  0  0  0  0
   -1.7509   -0.7052   -0.0312 C   0  0  0  0  0  0  0  0  0  0  0  0
   -1.1760   -0.1818   -1.3527 C   0  0  0  0  0  0  0  0  0  0  0  0
   -3.1066   -0.0457    0.2561 C   0  0  0  0  0  0  0  0  0  0  0  0
   -0.7513   -0.4169    1.1143 C   0  0  0  0  0  0  0  0  0  0  0  0
   -0.0964   -1.3336    1.6186 O   0  0  0  0  0  0  0  0  0  0  0  0
   -0.6463    1.0252    1.6049 C   0  0  0  0  0  0  0  0  0  0  0  0
    0.8751    1.3606    2.5350 S   0  0  0  0  0  0  0  0  0  0  0  0
    2.0829    1.0671    1.2682 C   0  0  0  0  0  0  0  0  0  0  0  0
    1.7036    1.1563   -0.0207 N   0  0  0  0  0  0  0  0  0  0  0  0
    2.6662    0.9471   -0.9388 C   0  0  0  0  0  0  0  0  0  0  0  0
    3.9737    0.6690   -0.6217 C   0  0  0  0  0  0  0  0  0  0  0  0
    4.2571    0.6195    0.7212 C   0  0  0  0  0  0  0  0  0  0  0  0
    3.3379    0.8231    1.6811 N   0  0  0  0  0  0  0  0  0  0  0  0
   -2.3540   -2.6459    0.7813 H   0  0  0  0  0  0  0  0  0  0  0  0
   -1.0314   -2.7447   -0.3864 H   0  0  0  0  0  0  0  0  0  0  0  0
   -2.6840   -2.4619   -0.9492 H   0  0  0  0  0  0  0  0  0  0  0  0
   -1.0487    0.9056   -1.3394 H   0  0  0  0  0  0  0  0  0  0  0  0
   -1.8340   -0.4247   -2.1946 H   0  0  0  0  0  0  0  0  0  0  0  0
   -0.1939   -0.6231   -1.5567 H   0  0  0  0  0  0  0  0  0  0  0  0
   -3.4908   -0.3468    1.2374 H   0  0  0  0  0  0  0  0  0  0  0  0
   -3.8514   -0.3246   -0.4979 H   0  0  0  0  0  0  0  0  0  0  0  0
   -3.0364    1.0475    0.2529 H   0  0  0  0  0  0  0  0  0  0  0  0
   -1.4924    1.2107    2.2737 H   0  0  0  0  0  0  0  0  0  0  0  0
   -0.7168    1.7248    0.7688 H   0  0  0  0  0  0  0  0  0  0  0  0
    2.3430    1.0117   -1.9738 H   0  0  0  0  0  0  0  0  0  0  0  0
    4.7289    0.5019   -1.3765 H   0  0  0  0  0  0  0  0  0  0  0  0
    5.2609    0.4093    1.0788 H   0  0  0  0  0  0  0  0  0  0  0  0
  1  2  1  0
  2  3  1  0
  2  4  1  0
  2  5  1  0
  5  6  2  0
  5  7  1  0
  7  8  1  0
  8  9  1  0
  9 10  2  0
 10 11  1  0
 11 12  2  0
 12 13  1  0
 13 14  2  0
 14  9  1  0
  1 15  1  0
  1 16  1  0
  1 17  1  0
  3 18  1  0
  3 19  1  0
  3 20  1  0
  4 21  1  0
  4 22  1  0
  4 23  1  0
  7 24  1  0
  7 25  1  0
 11 26  1  0
 12 27  1  0
 13 28  1  0
M  END
$$$$
