
     RDKit          3D

 54 58  0  0  0  0  0  0  0  0999 V2000
    4.1202    2.5034   -3.3088 F   0  0  0  0  0  0  0  0  0  0  0  0
    3.8490    1.3934   -2.5637 C   0  0  0  0  0  0  0  0  0  0  0  0
    2.5847    1.5740   -2.0893 F   0  0  0  0  0  0  0  0  0  0  0  0
    3.7723    0.3650   -3.4541 F   0  0  0  0  0  0  0  0  0  0  0  0
    4.8590    1.1386   -1.4652 C   0  0  0  0  0  0  0  0  0  0  0  0
    6.0226    1.9307   -1.4110 C   0  0  0  0  0  0  0  0  0  0  0  0
    6.9888    1.7269   -0.4249 C   0  0  0  0  0  0  0  0  0  0  0  0
    6.8100    0.7279    0.5248 C   0  0  0  0  0  0  0  0  0  0  0  0
    5.6678   -0.0696    0.4874 C   0  0  0  0  0  0  0  0  0  0  0  0
    4.6848    0.1170   -0.5029 C   0  0  0  0  0  0  0  0  0  0  0  0
    3.4689   -0.7901   -0.4794 C   0  0  0  0  0  0  0  0  0  0  0  0
    2.3945   -0.3006    0.5096 C   0  0  0  0  0  0  0  0  0  0  0  0
    1.2977   -1.2710    0.6795 N   0  0  0  0  0  0  0  0  0  0  0  0
    0.4530   -0.8864    1.8404 C   0  0  0  0  0  0  0  0  0  0  0  0
   -0.7318   -1.8546    2.0490 C   0  0  0  0  0  0  0  0  0  0  0  0
   -1.5655   -1.9576    0.8337 N   0  0  0  0  0  0  0  0  0  0  0  0
   -2.6014   -1.0446    0.6542 C   0  0  0  0  0  0  0  0  0  0  0  0
   -2.5922    0.0760    1.3323 N   0  0  0  0  0  0  0  0  0  0  0  0
   -3.6172    1.0286    1.1628 C   0  0  0  0  0  0  0  0  0  0  0  0
   -3.5599    2.2085    1.9094 C   0  0  0  0  0  0  0  0  0  0  0  0
   -4.5553    3.1842    1.7834 C   0  0  0  0  0  0  0  0  0  0  0  0
   -5.6204    2.9886    0.9030 C   0  0  0  0  0  0  0  0  0  0  0  0
   -5.6952    1.8198    0.1431 C   0  0  0  0  0  0  0  0  0  0  0  0
   -4.6929    0.8529    0.2811 C   0  0  0  0  0  0  0  0  0  0  0  0
   -4.7025   -0.3587   -0.4291 N   0  0  0  0  0  0  0  0  0  0  0  0
   -5.6142   -0.8296   -1.3437 C   0  0  0  0  0  0  0  0  0  0  0  0
   -5.2341   -2.1031   -1.7136 C   0  0  0  0  0  0  0  0  0  0  0  0
   -4.0468   -2.4079   -1.0080 C   0  0  0  0  0  0  0  0  0  0  0  0
   -3.7112   -1.2986   -0.2507 C   0  0  0  0  0  0  0  0  0  0  0  0
   -0.7440   -2.3384   -0.3323 C   0  0  0  0  0  0  0  0  0  0  0  0
    0.4358   -1.3553   -0.5241 C   0  0  0  0  0  0  0  0  0  0  0  0
    6.1853    2.7183   -2.1469 H   0  0  0  0  0  0  0  0  0  0  0  0
    7.8817    2.3470   -0.4006 H   0  0  0  0  0  0  0  0  0  0  0  0
    7.5610    0.5655    1.2944 H   0  0  0  0  0  0  0  0  0  0  0  0
    5.5460   -0.8492    1.2387 H   0  0  0  0  0  0  0  0  0  0  0  0
    3.7947   -1.8024   -0.1999 H   0  0  0  0  0  0  0  0  0  0  0  0
    3.0592   -0.8894   -1.4895 H   0  0  0  0  0  0  0  0  0  0  0  0
    2.0094    0.6807    0.2044 H   0  0  0  0  0  0  0  0  0  0  0  0
    2.8797   -0.1512    1.4832 H   0  0  0  0  0  0  0  0  0  0  0  0
    0.0802    0.1380    1.7140 H   0  0  0  0  0  0  0  0  0  0  0  0
    1.0631   -0.9018    2.7517 H   0  0  0  0  0  0  0  0  0  0  0  0
   -1.3310   -1.5424    2.9109 H   0  0  0  0  0  0  0  0  0  0  0  0
   -0.3460   -2.8520    2.2914 H   0  0  0  0  0  0  0  0  0  0  0  0
   -2.7321    2.3648    2.5962 H   0  0  0  0  0  0  0  0  0  0  0  0
   -4.4995    4.0952    2.3752 H   0  0  0  0  0  0  0  0  0  0  0  0
   -6.3956    3.7472    0.8126 H   0  0  0  0  0  0  0  0  0  0  0  0
   -6.5347    1.6867   -0.5308 H   0  0  0  0  0  0  0  0  0  0  0  0
   -6.4671   -0.2416   -1.6525 H   0  0  0  0  0  0  0  0  0  0  0  0
   -5.7628   -2.7450   -2.4066 H   0  0  0  0  0  0  0  0  0  0  0  0
   -3.4938   -3.3381   -1.0471 H   0  0  0  0  0  0  0  0  0  0  0  0
   -1.3305   -2.3697   -1.2549 H   0  0  0  0  0  0  0  0  0  0  0  0
   -0.3549   -3.3528   -0.1742 H   0  0  0  0  0  0  0  0  0  0  0  0
    1.0194   -1.7139   -1.3784 H   0  0  0  0  0  0  0  0  0  0  0  0
    0.0434   -0.3632   -0.7839 H   0  0  0  0  0  0  0  0  0  0  0  0
  1  2  1  0
  2  3  1  0
  2  4  1  0
  2  5  1  0
  5  6  2  0
  6  7  1  0
  7  8  2  0
  8  9  1  0
  9 10  2  0
 10 11  1  0
 11 12  1  0
 12 13  1  0
 13 14  1  0
 14 15  1  0
 15 16  1  0
 16 17  1  0
 17 18  2  0
 18 19  1  0
 19 20  2  0
 20 21  1  0
 21 22  2  0
 22 23  1  0
 23 24  2  0
 24 25  1  0
 25 26  1  0
 26 27  2  0
 27 28  1  0
 28 29  2  0
 16 30  1  0
 30 31  1  0
 10  5  1  0
 31 13  1  0
 29 17  1  0
 24 19  1  0
 29 25  1  0
  6 32  1  0
  7 33  1  0
  8 34  1  0
  9 35  1  0
 11 36  1  0
 11 37  1  0
 12 38  1  0
 12 39  1  0
 14 40  1  0
 14 41  1  0
 15 42  1  0
 15 43  1  0
 20 44  1  0
 21 45  1  0
 22 46  1  0
 23 47  1  0
 26 48  1  0
 27 49  1  0
 28 50  1  0
 30 51  1  0
 30 52  1  0
 31 53  1  0
 31 54  1  0
M  END
$$$$
