
     RDKit          3D

 40 42  0  0  0  0  0  0  0  0999 V2000
   -2.4107   -1.6008    0.9982 C   0  0  0  0  0  0  0  0  0  0  0  0
   -2.9296   -0.4769    0.2144 N   0  0  0  0  0  0  0  0  0  0  0  0
   -2.1440    0.0849   -0.8100 C   0  0  0  0  0  0  0  0  0  0  0  0
   -2.5636    0.6022   -1.8436 O   0  0  0  0  0  0  0  0  0  0  0  0
   -0.6658    0.0660   -0.6530 C   0  0  0  0  0  0  0  0  0  0  0  0
    0.1293   -0.3026   -1.7400 C   0  0  0  0  0  0  0  0  0  0  0  0
    1.5221   -0.2996   -1.6169 C   0  0  0  0  0  0  0  0  0  0  0  0
    2.1359    0.0804   -0.4141 C   0  0  0  0  0  0  0  0  0  0  0  0
    3.5462    0.0519   -0.3803 N   0  0  0  0  0  0  0  0  0  0  0  0
    4.3798    0.3180    0.6997 C   0  0  0  0  0  0  0  0  0  0  0  0
    3.9771    0.5873    1.8277 O   0  0  0  0  0  0  0  0  0  0  0  0
    5.8020    0.2348    0.3847 C   0  0  0  0  0  0  0  0  0  0  0  0
    6.5177    0.0411   -0.7874 C   0  0  0  0  0  0  0  0  0  0  0  0
    7.8930    0.0602   -0.4431 C   0  0  0  0  0  0  0  0  0  0  0  0
    7.9429    0.2657    0.9130 C   0  0  0  0  0  0  0  0  0  0  0  0
    6.6914    0.3734    1.4213 O   0  0  0  0  0  0  0  0  0  0  0  0
    1.3314    0.4749    0.6585 C   0  0  0  0  0  0  0  0  0  0  0  0
   -0.0637    0.4779    0.5395 C   0  0  0  0  0  0  0  0  0  0  0  0
   -4.3068   -0.0863    0.4262 C   0  0  0  0  0  0  0  0  0  0  0  0
   -4.8658    1.0349   -0.2068 C   0  0  0  0  0  0  0  0  0  0  0  0
   -6.1928    1.4237    0.0196 C   0  0  0  0  0  0  0  0  0  0  0  0
   -6.9932    0.7051    0.8981 C   0  0  0  0  0  0  0  0  0  0  0  0
   -6.4625   -0.3973    1.5552 C   0  0  0  0  0  0  0  0  0  0  0  0
   -5.1349   -0.7830    1.3260 C   0  0  0  0  0  0  0  0  0  0  0  0
   -1.4097   -1.9056    0.6848 H   0  0  0  0  0  0  0  0  0  0  0  0
   -3.0483   -2.4779    0.8461 H   0  0  0  0  0  0  0  0  0  0  0  0
   -2.3814   -1.3233    2.0563 H   0  0  0  0  0  0  0  0  0  0  0  0
   -0.3343   -0.5867   -2.6824 H   0  0  0  0  0  0  0  0  0  0  0  0
    2.1150   -0.5957   -2.4786 H   0  0  0  0  0  0  0  0  0  0  0  0
    3.9952   -0.2219   -1.2414 H   0  0  0  0  0  0  0  0  0  0  0  0
    6.1142   -0.0913   -1.7806 H   0  0  0  0  0  0  0  0  0  0  0  0
    8.7425   -0.0568   -1.1016 H   0  0  0  0  0  0  0  0  0  0  0  0
    8.7470    0.3575    1.6302 H   0  0  0  0  0  0  0  0  0  0  0  0
    1.7546    0.8041    1.6027 H   0  0  0  0  0  0  0  0  0  0  0  0
   -0.6692    0.8160    1.3773 H   0  0  0  0  0  0  0  0  0  0  0  0
   -4.2875    1.6544   -0.8855 H   0  0  0  0  0  0  0  0  0  0  0  0
   -6.5916    2.2947   -0.4944 H   0  0  0  0  0  0  0  0  0  0  0  0
   -8.0220    1.0069    1.0731 H   0  0  0  0  0  0  0  0  0  0  0  0
   -7.0779   -0.9621    2.2508 H   0  0  0  0  0  0  0  0  0  0  0  0
   -4.7819   -1.6481    1.8775 H   0  0  0  0  0  0  0  0  0  0  0  0
  1  2  1  0
  2  3  1  0
  3  4  2  0
  3  5  1  0
  5  6  2  0
  6  7  1  0
  7  8  2  0
  8  9  1  0
  9 10  1  0
 10 11  2  0
 10 12  1  0
 12 13  2  0
 13 14  1  0
 14 15  2  0
 15 16  1  0
  8 17  1  0
 17 18  2  0
  2 19  1  0
 19 20  2  0
 20 21  1  0
 21 22  2  0
 22 23  1  0
 23 24  2  0
 18  5  1  0
 24 19  1  0
 16 12  1  0
  1 25  1  0
  1 26  1  0
  1 27  1  0
  6 28  1  0
  7 29  1  0
  9 30  1  0
 13 31  1  0
 14 32  1  0
 15 33  1  0
 17 34  1  0
 18 35  1  0
 20 36  1  0
 21 37  1  0
 22 38  1  0
 23 39  1  0
 24 40  1  0
M  END
$$$$
