
     RDKit          3D

 32 32  0  0  0  0  0  0  0  0999 V2000
   -4.3632   -0.8735    1.8581 C   0  0  0  0  0  0  0  0  0  0  0  0
   -3.9338   -1.2330    0.7952 C   0  0  0  0  0  0  0  0  0  0  0  0
   -3.4086   -1.6825   -0.5062 C   0  0  0  0  0  0  0  0  0  0  0  0
   -2.7017   -0.6427   -1.2750 N   0  0  0  0  0  0  0  0  0  0  0  0
   -3.5994    0.4475   -1.6541 C   0  0  0  0  0  0  0  0  0  0  0  0
   -1.4930   -0.1748   -0.5754 C   0  0  0  0  0  0  0  0  0  0  0  0
   -0.5198    0.5547   -1.5128 C   0  0  0  0  0  0  0  0  0  0  0  0
    0.7406    1.0124   -0.7780 C   0  0  0  0  0  0  0  0  0  0  0  0
    1.4317   -0.1303   -0.2788 O   0  0  0  0  0  0  0  0  0  0  0  0
    2.5520    0.0743    0.4814 C   0  0  0  0  0  0  0  0  0  0  0  0
    3.1541    1.3203    0.6861 C   0  0  0  0  0  0  0  0  0  0  0  0
    4.3036    1.4283    1.4765 C   0  0  0  0  0  0  0  0  0  0  0  0
    4.8568    0.2924    2.0631 C   0  0  0  0  0  0  0  0  0  0  0  0
    6.2699    0.4358    3.0332 Cl  0  0  0  0  0  0  0  0  0  0  0  0
    4.2747   -0.9552    1.8683 C   0  0  0  0  0  0  0  0  0  0  0  0
    3.1272   -1.0616    1.0789 C   0  0  0  0  0  0  0  0  0  0  0  0
    2.4357   -2.6339    0.8687 Cl  0  0  0  0  0  0  0  0  0  0  0  0
   -4.7427   -0.5558    2.8017 H   0  0  0  0  0  0  0  0  0  0  0  0
   -2.7350   -2.5349   -0.3521 H   0  0  0  0  0  0  0  0  0  0  0  0
   -4.2330   -2.0775   -1.1133 H   0  0  0  0  0  0  0  0  0  0  0  0
   -4.5028    0.0560   -2.1362 H   0  0  0  0  0  0  0  0  0  0  0  0
   -3.1298    1.1047   -2.3924 H   0  0  0  0  0  0  0  0  0  0  0  0
   -3.9049    1.0602   -0.7989 H   0  0  0  0  0  0  0  0  0  0  0  0
   -0.9654   -1.0421   -0.1583 H   0  0  0  0  0  0  0  0  0  0  0  0
   -1.7532    0.4760    0.2692 H   0  0  0  0  0  0  0  0  0  0  0  0
   -0.9930    1.4361   -1.9578 H   0  0  0  0  0  0  0  0  0  0  0  0
   -0.2367   -0.1223   -2.3284 H   0  0  0  0  0  0  0  0  0  0  0  0
    1.3805    1.5505   -1.4873 H   0  0  0  0  0  0  0  0  0  0  0  0
    0.4595    1.6800    0.0457 H   0  0  0  0  0  0  0  0  0  0  0  0
    2.7592    2.2281    0.2411 H   0  0  0  0  0  0  0  0  0  0  0  0
    4.7625    2.4026    1.6277 H   0  0  0  0  0  0  0  0  0  0  0  0
    4.7084   -1.8399    2.3260 H   0  0  0  0  0  0  0  0  0  0  0  0
  1  2  3  0
  2  3  1  0
  3  4  1  0
  4  5  1  0
  4  6  1  0
  6  7  1  0
  7  8  1  0
  8  9  1  0
  9 10  1  0
 10 11  2  0
 11 12  1  0
 12 13  2  0
 13 14  1  0
 13 15  1  0
 15 16  2  0
 16 17  1  0
 16 10  1  0
  1 18  1  0
  3 19  1  0
  3 20  1  0
  5 21  1  0
  5 22  1  0
  5 23  1  0
  6 24  1  0
  6 25  1  0
  7 26  1  0
  7 27  1  0
  8 28  1  0
  8 29  1  0
 11 30  1  0
 12 31  1  0
 15 32  1  0
M  END
$$$$
