
     RDKit          3D

 50 51  0  0  0  0  0  0  0  0999 V2000
   -6.1982   -2.1200    2.1131 C   0  0  0  0  0  0  0  0  0  0  0  0
   -4.8585   -2.4699    1.7988 O   0  0  0  0  0  0  0  0  0  0  0  0
   -4.0695   -1.5167    1.2055 C   0  0  0  0  0  0  0  0  0  0  0  0
   -4.5006   -0.2272    0.8769 C   0  0  0  0  0  0  0  0  0  0  0  0
   -3.6233    0.6758    0.2724 C   0  0  0  0  0  0  0  0  0  0  0  0
   -2.3164    0.2920   -0.0238 C   0  0  0  0  0  0  0  0  0  0  0  0
   -1.4545    1.2772   -0.6194 N   0  0  0  0  0  0  0  0  0  0  0  0
   -0.4587    1.8976    0.2988 C   0  0  0  0  0  0  0  0  0  0  0  0
    0.8959    1.2024    0.3601 C   0  0  0  0  0  0  0  0  0  0  0  0
    1.0836    0.2419    1.1023 O   0  0  0  0  0  0  0  0  0  0  0  0
    1.8296    1.7447   -0.5139 N   0  0  0  0  0  0  0  0  0  0  0  0
    3.1504    1.2677   -0.6849 C   0  0  0  0  0  0  0  0  0  0  0  0
    3.5955    1.2069   -2.0199 C   0  0  0  0  0  0  0  0  0  0  0  0
    4.8591    0.7148   -2.3456 C   0  0  0  0  0  0  0  0  0  0  0  0
    5.7043    0.2801   -1.3352 C   0  0  0  0  0  0  0  0  0  0  0  0
    5.2805    0.3756   -0.0018 C   0  0  0  0  0  0  0  0  0  0  0  0
    6.2226   -0.0810    1.0129 N   0  0  0  0  0  4  0  0  0  0  0  0
    7.3574    0.4164    0.9898 O   0  0  0  0  0  0  0  0  0  0  0  0
    5.8335   -0.9439    1.8105 O   0  0  0  0  0  1  0  0  0  0  0  0
    4.0215    0.9076    0.3632 C   0  0  0  0  0  0  0  0  0  0  0  0
    3.6873    1.1317    1.8153 C   0  0  0  0  0  0  0  0  0  0  0  0
   -0.9111    0.9739   -2.2001 S   0  0  0  0  0  6  0  0  0  0  0  0
   -2.4155    1.1128   -3.1446 C   0  0  0  0  0  0  0  0  0  0  0  0
   -0.0558    2.0924   -2.5600 O   0  0  0  0  0  0  0  0  0  0  0  0
   -0.4068   -0.3760   -2.3020 O   0  0  0  0  0  0  0  0  0  0  0  0
   -1.8707   -0.9859    0.3172 C   0  0  0  0  0  0  0  0  0  0  0  0
   -2.7393   -1.8962    0.9304 C   0  0  0  0  0  0  0  0  0  0  0  0
   -2.3881   -3.1740    1.2927 O   0  0  0  0  0  0  0  0  0  0  0  0
   -1.0183   -3.5365    1.1678 C   0  0  0  0  0  0  0  0  0  0  0  0
   -6.6706   -2.9897    2.5799 H   0  0  0  0  0  0  0  0  0  0  0  0
   -6.2330   -1.2964    2.8337 H   0  0  0  0  0  0  0  0  0  0  0  0
   -6.7661   -1.8793    1.2084 H   0  0  0  0  0  0  0  0  0  0  0  0
   -5.5117    0.1070    1.0837 H   0  0  0  0  0  0  0  0  0  0  0  0
   -3.9686    1.6784    0.0346 H   0  0  0  0  0  0  0  0  0  0  0  0
   -0.3222    2.9458    0.0044 H   0  0  0  0  0  0  0  0  0  0  0  0
   -0.8555    1.9386    1.3215 H   0  0  0  0  0  0  0  0  0  0  0  0
    1.4120    2.1712   -1.3448 H   0  0  0  0  0  0  0  0  0  0  0  0
    2.9374    1.5096   -2.8338 H   0  0  0  0  0  0  0  0  0  0  0  0
    5.1702    0.6567   -3.3857 H   0  0  0  0  0  0  0  0  0  0  0  0
    6.6853   -0.1190   -1.5845 H   0  0  0  0  0  0  0  0  0  0  0  0
    4.5641    1.4887    2.3670 H   0  0  0  0  0  0  0  0  0  0  0  0
    2.9366    1.9168    1.9451 H   0  0  0  0  0  0  0  0  0  0  0  0
    3.3332    0.2066    2.2787 H   0  0  0  0  0  0  0  0  0  0  0  0
   -2.8654    2.0885   -2.9524 H   0  0  0  0  0  0  0  0  0  0  0  0
   -2.1539    1.0288   -4.2018 H   0  0  0  0  0  0  0  0  0  0  0  0
   -3.0922    0.3026   -2.8692 H   0  0  0  0  0  0  0  0  0  0  0  0
   -0.8437   -1.2592    0.0988 H   0  0  0  0  0  0  0  0  0  0  0  0
   -0.9043   -4.5499    1.5646 H   0  0  0  0  0  0  0  0  0  0  0  0
   -0.7116   -3.5556    0.1170 H   0  0  0  0  0  0  0  0  0  0  0  0
   -0.3760   -2.8745    1.7583 H   0  0  0  0  0  0  0  0  0  0  0  0
  1  2  1  0
  2  3  1  0
  3  4  2  0
  4  5  1  0
  5  6  2  0
  6  7  1  0
  7  8  1  0
  8  9  1  0
  9 10  2  0
  9 11  1  0
 11 12  1  0
 12 13  2  0
 13 14  1  0
 14 15  2  0
 15 16  1  0
 16 17  1  0
 17 18  2  0
 17 19  1  0
 16 20  2  0
 20 21  1  0
  7 22  1  0
 22 23  1  0
 22 24  2  0
 22 25  2  0
  6 26  1  0
 26 27  2  0
 27 28  1  0
 28 29  1  0
 27  3  1  0
 20 12  1  0
  1 30  1  0
  1 31  1  0
  1 32  1  0
  4 33  1  0
  5 34  1  0
  8 35  1  0
  8 36  1  0
 11 37  1  0
 13 38  1  0
 14 39  1  0
 15 40  1  0
 21 41  1  0
 21 42  1  0
 21 43  1  0
 23 44  1  0
 23 45  1  0
 23 46  1  0
 26 47  1  0
 29 48  1  0
 29 49  1  0
 29 50  1  0
M  CHG  2  17   1  19  -1
M  END
$$$$
