
     RDKit          3D

 46 49  0  0  0  0  0  0  0  0999 V2000
   -3.5272    6.0008    1.3800 N   0  0  0  0  0  0  0  0  0  0  0  0
   -3.9562    4.7293    1.2777 C   0  0  0  0  0  0  0  0  0  0  0  0
   -5.1769    4.3172    1.6170 N   0  0  0  0  0  0  0  0  0  0  0  0
   -5.2006    2.9547    1.3422 O   0  0  0  0  0  0  0  0  0  0  0  0
   -3.9775    2.5194    0.8339 N   0  0  0  0  0  0  0  0  0  0  0  0
   -3.2275    3.6214    0.8040 C   0  0  0  0  0  0  0  0  0  0  0  0
   -1.8801    3.5835    0.3640 N   0  0  0  0  0  0  0  0  0  0  0  0
   -1.0906    4.6928    0.4153 N   0  0  0  0  0  0  0  0  0  0  0  0
    0.1256    4.3842    0.0015 N   0  0  0  0  0  0  0  0  0  0  0  0
    0.1496    3.0557   -0.3138 C   0  0  0  0  0  0  0  0  0  0  0  0
    1.3632    2.3935   -0.7921 C   0  0  0  0  0  0  0  0  0  0  0  0
    2.1396    2.9465   -1.5644 O   0  0  0  0  0  0  0  0  0  0  0  0
    1.5313    1.1128   -0.2769 N   0  0  0  0  0  0  0  0  0  0  0  0
    2.5655    0.3246   -0.6886 N   0  0  0  0  0  0  0  0  0  0  0  0
    2.6586   -0.8224   -0.0941 C   0  0  0  0  0  0  0  0  0  0  0  0
    3.7124   -1.7957   -0.4392 C   0  0  0  0  0  0  0  0  0  0  0  0
    3.7273   -3.0320    0.2134 C   0  0  0  0  0  0  0  0  0  0  0  0
    4.7138   -3.9680   -0.1023 C   0  0  0  0  0  0  0  0  0  0  0  0
    5.6792   -3.6687   -1.0648 C   0  0  0  0  0  0  0  0  0  0  0  0
    5.6621   -2.4340   -1.7148 C   0  0  0  0  0  0  0  0  0  0  0  0
    4.6783   -1.4947   -1.4037 C   0  0  0  0  0  0  0  0  0  0  0  0
   -1.1256    2.5258   -0.1430 C   0  0  0  0  0  0  0  0  0  0  0  0
   -1.6454    1.1726   -0.4699 C   0  0  0  0  0  0  0  0  0  0  0  0
   -1.3473    0.0463    0.9363 S   0  0  0  0  0  0  0  0  0  0  0  0
   -1.7933   -1.5028    0.1760 C   0  0  0  0  0  0  0  0  0  0  0  0
   -2.8687   -2.2317    0.6913 C   0  0  0  0  0  0  0  0  0  0  0  0
   -3.2253   -3.4568    0.1239 C   0  0  0  0  0  0  0  0  0  0  0  0
   -2.5029   -3.9629   -0.9553 C   0  0  0  0  0  0  0  0  0  0  0  0
   -1.4215   -3.2472   -1.4659 C   0  0  0  0  0  0  0  0  0  0  0  0
   -1.0643   -2.0215   -0.9000 C   0  0  0  0  0  0  0  0  0  0  0  0
   -4.0715    6.6694    1.9147 H   0  0  0  0  0  0  0  0  0  0  0  0
   -2.5402    6.2379    1.2834 H   0  0  0  0  0  0  0  0  0  0  0  0
    0.9051    0.7684    0.4456 H   0  0  0  0  0  0  0  0  0  0  0  0
    1.9475   -1.1266    0.6954 H   0  0  0  0  0  0  0  0  0  0  0  0
    2.9814   -3.2784    0.9643 H   0  0  0  0  0  0  0  0  0  0  0  0
    4.7323   -4.9313    0.4017 H   0  0  0  0  0  0  0  0  0  0  0  0
    6.4479   -4.3982   -1.3088 H   0  0  0  0  0  0  0  0  0  0  0  0
    6.4155   -2.2011   -2.4633 H   0  0  0  0  0  0  0  0  0  0  0  0
    4.6714   -0.5328   -1.9128 H   0  0  0  0  0  0  0  0  0  0  0  0
   -1.1106    0.7987   -1.3502 H   0  0  0  0  0  0  0  0  0  0  0  0
   -2.7021    1.1697   -0.7451 H   0  0  0  0  0  0  0  0  0  0  0  0
   -3.4406   -1.8525    1.5355 H   0  0  0  0  0  0  0  0  0  0  0  0
   -4.0664   -4.0165    0.5259 H   0  0  0  0  0  0  0  0  0  0  0  0
   -2.7810   -4.9172   -1.3962 H   0  0  0  0  0  0  0  0  0  0  0  0
   -0.8541   -3.6448   -2.3041 H   0  0  0  0  0  0  0  0  0  0  0  0
   -0.2103   -1.4874   -1.3097 H   0  0  0  0  0  0  0  0  0  0  0  0
  1  2  1  0
  2  3  2  0
  3  4  1  0
  4  5  1  0
  5  6  2  0
  6  7  1  0
  7  8  1  0
  8  9  2  0
  9 10  1  0
 10 11  1  0
 11 12  2  0
 11 13  1  0
 13 14  1  0
 14 15  2  3
 15 16  1  0
 16 17  2  0
 17 18  1  0
 18 19  2  0
 19 20  1  0
 20 21  2  0
 10 22  2  0
 22 23  1  0
 23 24  1  0
 24 25  1  0
 25 26  2  0
 26 27  1  0
 27 28  2  0
 28 29  1  0
 29 30  2  0
  6  2  1  0
 22  7  1  0
 30 25  1  0
 21 16  1  0
  1 31  1  0
  1 32  1  0
 13 33  1  0
 15 34  1  0
 17 35  1  0
 18 36  1  0
 19 37  1  0
 20 38  1  0
 21 39  1  0
 23 40  1  0
 23 41  1  0
 26 42  1  0
 27 43  1  0
 28 44  1  0
 29 45  1  0
 30 46  1  0
M  END
$$$$
