
     RDKit          3D

 51 54  0  0  0  0  0  0  0  0999 V2000
   -3.8096   -4.1971    2.2874 C   0  0  0  0  0  0  0  0  0  0  0  0
   -2.4143   -4.2312    2.0135 O   0  0  0  0  0  0  0  0  0  0  0  0
   -1.7955   -3.0367    1.7657 C   0  0  0  0  0  0  0  0  0  0  0  0
   -2.4396   -1.8120    1.6164 C   0  0  0  0  0  0  0  0  0  0  0  0
   -1.6951   -0.6450    1.3582 C   0  0  0  0  0  0  0  0  0  0  0  0
   -2.4067    0.6300    1.1765 C   0  0  0  0  0  0  0  0  0  0  0  0
   -3.6250    0.6654    1.3427 O   0  0  0  0  0  0  0  0  0  0  0  0
   -1.6415    1.7293    0.8211 N   0  0  0  0  0  0  0  0  0  0  0  0
   -2.3495    2.9642    0.5164 C   0  0  0  0  0  0  0  0  0  0  0  0
   -2.8151    2.9284   -0.8991 C   0  0  0  0  0  0  0  0  0  0  0  0
   -3.9641    2.4575   -1.5049 C   0  0  0  0  0  0  0  0  0  0  0  0
   -3.8102    2.6947   -2.8910 C   0  0  0  0  0  0  0  0  0  0  0  0
   -2.5815    3.2961   -3.0431 C   0  0  0  0  0  0  0  0  0  0  0  0
   -1.9714    3.4450   -1.8396 O   0  0  0  0  0  0  0  0  0  0  0  0
   -0.2576    1.7429    0.7581 C   0  0  0  0  0  0  0  0  0  0  0  0
    0.3808    2.7689    0.5081 O   0  0  0  0  0  0  0  0  0  0  0  0
    0.3981    0.5435    1.0253 N   0  0  0  0  0  0  0  0  0  0  0  0
    1.8628    0.5717    0.9582 C   0  0  0  0  0  0  0  0  0  0  0  0
    2.3609    0.2627   -0.4545 C   0  0  0  0  0  0  0  0  0  0  0  0
    1.7798   -0.5246   -1.2036 O   0  0  0  0  0  0  0  0  0  0  0  0
    3.6225    0.9034   -0.9321 C   0  0  0  0  0  0  0  0  0  0  0  0
    3.8732    0.9197   -2.3140 C   0  0  0  0  0  0  0  0  0  0  0  0
    5.0365    1.5058   -2.8161 C   0  0  0  0  0  0  0  0  0  0  0  0
    5.9612    2.0753   -1.9413 C   0  0  0  0  0  0  0  0  0  0  0  0
    5.7203    2.0486   -0.5677 C   0  0  0  0  0  0  0  0  0  0  0  0
    6.9828    2.8117    0.6182 Br  0  0  0  0  0  0  0  0  0  0  0  0
    4.5604    1.4630   -0.0551 C   0  0  0  0  0  0  0  0  0  0  0  0
   -0.3046   -0.6689    1.2614 C   0  0  0  0  0  0  0  0  0  0  0  0
    0.3377   -1.9046    1.4039 C   0  0  0  0  0  0  0  0  0  0  0  0
   -0.4035   -3.0700    1.6317 C   0  0  0  0  0  0  0  0  0  0  0  0
    0.2838   -4.2497    1.7836 O   0  0  0  0  0  0  0  0  0  0  0  0
    0.4259   -4.8907    0.5120 C   0  0  0  0  0  0  0  0  0  0  0  0
   -4.0294   -3.5614    3.1522 H   0  0  0  0  0  0  0  0  0  0  0  0
   -4.3752   -3.8764    1.4059 H   0  0  0  0  0  0  0  0  0  0  0  0
   -4.1267   -5.2150    2.5341 H   0  0  0  0  0  0  0  0  0  0  0  0
   -3.5205   -1.7321    1.6846 H   0  0  0  0  0  0  0  0  0  0  0  0
   -1.7091    3.8379    0.6803 H   0  0  0  0  0  0  0  0  0  0  0  0
   -3.2112    3.0717    1.1857 H   0  0  0  0  0  0  0  0  0  0  0  0
   -4.7999    1.9884   -1.0007 H   0  0  0  0  0  0  0  0  0  0  0  0
   -4.5053    2.4527   -3.6827 H   0  0  0  0  0  0  0  0  0  0  0  0
   -2.0229    3.6575   -3.8956 H   0  0  0  0  0  0  0  0  0  0  0  0
    2.2000    1.5689    1.2592 H   0  0  0  0  0  0  0  0  0  0  0  0
    2.3050   -0.1288    1.6726 H   0  0  0  0  0  0  0  0  0  0  0  0
    3.1562    0.4800   -3.0081 H   0  0  0  0  0  0  0  0  0  0  0  0
    5.2174    1.5186   -3.8893 H   0  0  0  0  0  0  0  0  0  0  0  0
    6.8610    2.5381   -2.3378 H   0  0  0  0  0  0  0  0  0  0  0  0
    4.4141    1.4483    1.0212 H   0  0  0  0  0  0  0  0  0  0  0  0
    1.4125   -2.0136    1.3155 H   0  0  0  0  0  0  0  0  0  0  0  0
   -0.5187   -4.9253   -0.0489 H   0  0  0  0  0  0  0  0  0  0  0  0
    1.2002   -4.3868   -0.0834 H   0  0  0  0  0  0  0  0  0  0  0  0
    0.7507   -5.9202    0.6920 H   0  0  0  0  0  0  0  0  0  0  0  0
  1  2  1  0
  2  3  1  0
  3  4  2  0
  4  5  1  0
  5  6  1  0
  6  7  2  0
  6  8  1  0
  8  9  1  0
  9 10  1  0
 10 11  2  0
 11 12  1  0
 12 13  2  0
 13 14  1  0
  8 15  1  0
 15 16  2  0
 15 17  1  0
 17 18  1  0
 18 19  1  0
 19 20  2  0
 19 21  1  0
 21 22  2  0
 22 23  1  0
 23 24  2  0
 24 25  1  0
 25 26  1  0
 25 27  2  0
 17 28  1  0
 28 29  1  0
 29 30  2  0
 30 31  1  0
 31 32  1  0
 30  3  1  0
 28  5  2  0
 14 10  1  0
 27 21  1  0
  1 33  1  0
  1 34  1  0
  1 35  1  0
  4 36  1  0
  9 37  1  0
  9 38  1  0
 11 39  1  0
 12 40  1  0
 13 41  1  0
 18 42  1  0
 18 43  1  0
 22 44  1  0
 23 45  1  0
 24 46  1  0
 27 47  1  0
 29 48  1  0
 32 49  1  0
 32 50  1  0
 32 51  1  0
M  END
$$$$
