
     RDKit          3D

 55 57  0  0  0  0  0  0  0  0999 V2000
   -3.8437    3.1871   -1.8315 C   0  0  0  0  0  0  0  0  0  0  0  0
   -3.3790    2.7074   -0.5733 O   0  0  0  0  0  0  0  0  0  0  0  0
   -3.7622    1.4424   -0.1977 C   0  0  0  0  0  0  0  0  0  0  0  0
   -4.6188    0.6206   -0.9380 C   0  0  0  0  0  0  0  0  0  0  0  0
   -4.9562   -0.6612   -0.4780 C   0  0  0  0  0  0  0  0  0  0  0  0
   -5.8815   -1.4892   -1.3069 C   0  0  0  0  0  0  0  0  0  0  0  0
   -6.2100   -2.8907   -0.8622 C   0  0  0  0  0  0  0  0  0  0  0  0
   -6.3599   -1.0184   -2.3349 O   0  0  0  0  0  0  0  0  0  0  0  0
   -4.4191   -1.1213    0.7277 C   0  0  0  0  0  0  0  0  0  0  0  0
   -3.5594   -0.3053    1.4737 C   0  0  0  0  0  0  0  0  0  0  0  0
   -3.2397    0.9803    1.0271 C   0  0  0  0  0  0  0  0  0  0  0  0
   -2.3924    1.8416    1.6803 O   0  0  0  0  0  0  0  0  0  0  0  0
   -2.1090    1.6082    3.0542 C   0  0  0  0  0  0  0  0  0  0  0  0
   -0.8481    0.7727    3.2988 C   0  0  0  0  0  0  0  0  0  0  0  0
   -0.5779    0.3597    4.4227 O   0  0  0  0  0  0  0  0  0  0  0  0
   -0.1081    0.5605    2.1486 N   0  0  0  0  0  0  0  0  0  0  0  0
    1.1020   -0.1442    2.0197 C   0  0  0  0  0  0  0  0  0  0  0  0
    1.8536   -0.6012    3.0983 C   0  0  0  0  0  0  0  0  0  0  0  0
    3.0453   -1.3018    2.8830 C   0  0  0  0  0  0  0  0  0  0  0  0
    3.5032   -1.5699    1.5872 C   0  0  0  0  0  0  0  0  0  0  0  0
    4.9909   -2.4348    1.4838 Cl  0  0  0  0  0  0  0  0  0  0  0  0
    2.7621   -1.1076    0.5007 C   0  0  0  0  0  0  0  0  0  0  0  0
    3.1616   -1.4934   -1.1894 S   0  0  0  0  0  6  0  0  0  0  0  0
    3.8646   -2.7550   -1.2419 O   0  0  0  0  0  0  0  0  0  0  0  0
    1.9373   -1.3285   -1.9508 O   0  0  0  0  0  0  0  0  0  0  0  0
    4.2122   -0.2605   -1.6774 N   0  0  0  0  0  0  0  0  0  0  0  0
    3.6627    1.1181   -1.7828 C   0  0  0  0  0  0  0  0  0  0  0  0
    4.6271    1.9835   -2.6042 C   0  0  0  0  0  0  0  0  0  0  0  0
    5.9316    2.0068   -2.0039 O   0  0  0  0  0  0  0  0  0  0  0  0
    6.4772    0.6760   -1.9554 C   0  0  0  0  0  0  0  0  0  0  0  0
    5.5925   -0.2576   -1.1215 C   0  0  0  0  0  0  0  0  0  0  0  0
    1.5650   -0.3940    0.7241 C   0  0  0  0  0  0  0  0  0  0  0  0
   -4.9373    3.2380   -1.8588 H   0  0  0  0  0  0  0  0  0  0  0  0
   -3.4526    2.5795   -2.6568 H   0  0  0  0  0  0  0  0  0  0  0  0
   -3.4608    4.2091   -1.9601 H   0  0  0  0  0  0  0  0  0  0  0  0
   -5.0423    0.9566   -1.8810 H   0  0  0  0  0  0  0  0  0  0  0  0
   -6.7273   -2.8739    0.1005 H   0  0  0  0  0  0  0  0  0  0  0  0
   -5.2982   -3.4926   -0.8094 H   0  0  0  0  0  0  0  0  0  0  0  0
   -6.8770   -3.3531   -1.5962 H   0  0  0  0  0  0  0  0  0  0  0  0
   -4.6482   -2.1115    1.1121 H   0  0  0  0  0  0  0  0  0  0  0  0
   -3.1515   -0.7153    2.3931 H   0  0  0  0  0  0  0  0  0  0  0  0
   -1.9285    2.5878    3.5110 H   0  0  0  0  0  0  0  0  0  0  0  0
   -2.9578    1.1642    3.5839 H   0  0  0  0  0  0  0  0  0  0  0  0
   -0.5385    0.9124    1.2936 H   0  0  0  0  0  0  0  0  0  0  0  0
    1.5457   -0.4282    4.1248 H   0  0  0  0  0  0  0  0  0  0  0  0
    3.6107   -1.6445    3.7458 H   0  0  0  0  0  0  0  0  0  0  0  0
    2.6869    1.1065   -2.2788 H   0  0  0  0  0  0  0  0  0  0  0  0
    3.5516    1.5406   -0.7778 H   0  0  0  0  0  0  0  0  0  0  0  0
    4.2605    3.0139   -2.6480 H   0  0  0  0  0  0  0  0  0  0  0  0
    4.7118    1.6131   -3.6330 H   0  0  0  0  0  0  0  0  0  0  0  0
    6.5964    0.2961   -2.9769 H   0  0  0  0  0  0  0  0  0  0  0  0
    7.4723    0.7416   -1.5050 H   0  0  0  0  0  0  0  0  0  0  0  0
    5.5611    0.1045   -0.0879 H   0  0  0  0  0  0  0  0  0  0  0  0
    6.0254   -1.2635   -1.1472 H   0  0  0  0  0  0  0  0  0  0  0  0
    0.9735   -0.0587   -0.1275 H   0  0  0  0  0  0  0  0  0  0  0  0
  1  2  1  0
  2  3  1  0
  3  4  2  0
  4  5  1  0
  5  6  1  0
  6  7  1  0
  6  8  2  0
  5  9  2  0
  9 10  1  0
 10 11  2  0
 11 12  1  0
 12 13  1  0
 13 14  1  0
 14 15  2  0
 14 16  1  0
 16 17  1  0
 17 18  2  0
 18 19  1  0
 19 20  2  0
 20 21  1  0
 20 22  1  0
 22 23  1  0
 23 24  2  0
 23 25  2  0
 23 26  1  0
 26 27  1  0
 27 28  1  0
 28 29  1  0
 29 30  1  0
 30 31  1  0
 22 32  2  0
 11  3  1  0
 32 17  1  0
 31 26  1  0
  1 33  1  0
  1 34  1  0
  1 35  1  0
  4 36  1  0
  7 37  1  0
  7 38  1  0
  7 39  1  0
  9 40  1  0
 10 41  1  0
 13 42  1  0
 13 43  1  0
 16 44  1  0
 18 45  1  0
 19 46  1  0
 27 47  1  0
 27 48  1  0
 28 49  1  0
 28 50  1  0
 30 51  1  0
 30 52  1  0
 31 53  1  0
 31 54  1  0
 32 55  1  0
M  END
$$$$
