
     RDKit          3D

 80 86  0  0  0  0  0  0  0  0999 V2000
    6.0646   -3.3936    2.6778 C   0  0  0  0  0  0  0  0  0  0  0  0
    5.8791   -1.8691    2.6160 C   0  0  0  0  0  0  0  0  0  0  0  0
    5.8832   -1.3190    4.0472 C   0  0  0  0  0  0  0  0  0  0  0  0
    7.0096   -1.2749    1.7670 C   0  0  0  0  0  0  0  0  0  0  0  0
    4.5873   -1.6833    1.9838 O   0  0  0  0  0  0  0  0  0  0  0  0
    4.0990   -0.4378    1.7486 C   0  0  0  0  0  0  0  0  0  0  0  0
    4.6783    0.6006    2.0401 O   0  0  0  0  0  0  0  0  0  0  0  0
    2.8644   -0.4740    1.1356 N   0  0  0  0  0  0  0  0  0  0  0  0
    2.1451   -1.7168    0.8378 C   0  0  0  0  0  0  0  0  0  0  0  0
    0.6226   -1.4939    0.7475 C   0  0  0  0  0  0  0  0  0  0  0  0
    0.2683   -0.5067   -0.2665 N   0  0  0  0  0  0  0  0  0  0  0  0
    1.2667    0.5999   -0.4537 C   0  0  2  0  0  0  0  0  0  0  0  0
    2.2200    0.7822    0.7398 C   0  0  0  0  0  0  0  0  0  0  0  0
    0.4003    1.7637   -0.7222 C   0  0  0  0  0  0  0  0  0  0  0  0
   -0.9579    1.4391   -0.6507 C   0  0  0  0  0  0  0  0  0  0  0  0
   -1.6800    2.5777   -0.9020 C   0  0  0  0  0  0  0  0  0  0  0  0
   -2.9857    2.8185   -0.9039 O   0  0  0  0  0  0  0  0  0  0  0  0
   -0.7583    3.5878   -1.1636 N   0  0  0  0  0  0  0  0  0  0  0  0
   -1.1333    4.9734   -1.4282 C   0  0  0  0  0  0  0  0  0  0  0  0
   -1.3332    5.2405   -2.8998 C   0  0  0  0  0  0  0  0  0  0  0  0
   -0.2702    5.6468   -3.7210 C   0  0  0  0  0  0  0  0  0  0  0  0
   -0.4753    5.8845   -5.0823 C   0  0  0  0  0  0  0  0  0  0  0  0
   -1.7425    5.7218   -5.6383 C   0  0  0  0  0  0  0  0  0  0  0  0
   -2.8059    5.3149   -4.8356 C   0  0  0  0  0  0  0  0  0  0  0  0
   -2.6024    5.0726   -3.4760 C   0  0  0  0  0  0  0  0  0  0  0  0
    0.5335    3.0905   -1.0231 C   0  0  0  0  0  0  0  0  0  0  0  0
    1.6484    3.7970   -1.1530 O   0  0  0  0  0  0  0  0  0  0  0  0
   -1.1323    0.0151   -0.2860 C   0  0  1  0  0  0  0  0  0  0  0  0
   -2.0057   -0.8000   -1.2777 C   0  0  0  0  0  0  0  0  0  0  0  0
   -1.7783   -1.0477   -2.4553 O   0  0  0  0  0  0  0  0  0  0  0  0
   -3.1358   -1.2274   -0.5572 N   0  0  0  0  0  0  0  0  0  0  0  0
   -4.1304   -2.1208   -1.1072 C   0  0  0  0  0  0  0  0  0  0  0  0
   -3.8663   -3.5675   -0.7539 C   0  0  0  0  0  0  0  0  0  0  0  0
   -4.7190   -4.2635    0.1157 C   0  0  0  0  0  0  0  0  0  0  0  0
   -4.4597   -5.5946    0.4486 C   0  0  0  0  0  0  0  0  0  0  0  0
   -3.3495   -6.2458   -0.0866 C   0  0  0  0  0  0  0  0  0  0  0  0
   -2.4984   -5.5689   -0.9577 C   0  0  0  0  0  0  0  0  0  0  0  0
   -2.7553   -4.2379   -1.2905 C   0  0  0  0  0  0  0  0  0  0  0  0
   -3.1018   -0.7697    0.7680 C   0  0  0  0  0  0  0  0  0  0  0  0
   -4.0330   -0.9680    1.7722 C   0  0  0  0  0  0  0  0  0  0  0  0
   -3.7946   -0.3800    3.0178 C   0  0  0  0  0  0  0  0  0  0  0  0
   -2.6454    0.3941    3.2381 C   0  0  0  0  0  0  0  0  0  0  0  0
   -1.7128    0.5865    2.2179 C   0  0  0  0  0  0  0  0  0  0  0  0
   -1.9466   -0.0090    0.9828 C   0  0  0  0  0  0  0  0  0  0  0  0
    5.2486   -3.8639    3.2390 H   0  0  0  0  0  0  0  0  0  0  0  0
    7.0136   -3.6688    3.1501 H   0  0  0  0  0  0  0  0  0  0  0  0
    6.0407   -3.8295    1.6722 H   0  0  0  0  0  0  0  0  0  0  0  0
    6.8082   -1.5810    4.5718 H   0  0  0  0  0  0  0  0  0  0  0  0
    5.0356   -1.7127    4.6173 H   0  0  0  0  0  0  0  0  0  0  0  0
    5.7927   -0.2296    4.0685 H   0  0  0  0  0  0  0  0  0  0  0  0
    6.9873   -0.1809    1.7618 H   0  0  0  0  0  0  0  0  0  0  0  0
    7.9919   -1.5785    2.1428 H   0  0  0  0  0  0  0  0  0  0  0  0
    6.9222   -1.5980    0.7239 H   0  0  0  0  0  0  0  0  0  0  0  0
    2.5351   -2.0981   -0.1135 H   0  0  0  0  0  0  0  0  0  0  0  0
    2.3598   -2.4645    1.6091 H   0  0  0  0  0  0  0  0  0  0  0  0
    0.1313   -2.4456    0.5191 H   0  0  0  0  0  0  0  0  0  0  0  0
    0.2930   -1.1840    1.7443 H   0  0  0  0  0  0  0  0  0  0  0  0
    1.8535    0.3592   -1.3487 H   0  0  0  0  0  0  0  0  0  0  0  0
    2.9830    1.5339    0.5060 H   0  0  0  0  0  0  0  0  0  0  0  0
    1.6764    1.1462    1.6210 H   0  0  0  0  0  0  0  0  0  0  0  0
   -3.4385    1.9875   -0.6709 H   0  0  0  0  0  0  0  0  0  0  0  0
   -2.0462    5.1970   -0.8624 H   0  0  0  0  0  0  0  0  0  0  0  0
   -0.3593    5.6274   -1.0126 H   0  0  0  0  0  0  0  0  0  0  0  0
    0.7288    5.7838   -3.3168 H   0  0  0  0  0  0  0  0  0  0  0  0
    0.3562    6.1950   -5.7110 H   0  0  0  0  0  0  0  0  0  0  0  0
   -1.8998    5.9054   -6.6978 H   0  0  0  0  0  0  0  0  0  0  0  0
   -3.7936    5.1766   -5.2689 H   0  0  0  0  0  0  0  0  0  0  0  0
   -3.4419    4.7400   -2.8659 H   0  0  0  0  0  0  0  0  0  0  0  0
    1.4473    4.6975   -1.4502 H   0  0  0  0  0  0  0  0  0  0  0  0
   -5.1242   -1.8040   -0.7687 H   0  0  0  0  0  0  0  0  0  0  0  0
   -4.1351   -2.0268   -2.2001 H   0  0  0  0  0  0  0  0  0  0  0  0
   -5.5933   -3.7769    0.5406 H   0  0  0  0  0  0  0  0  0  0  0  0
   -5.1241   -6.1248    1.1263 H   0  0  0  0  0  0  0  0  0  0  0  0
   -3.1485   -7.2819    0.1728 H   0  0  0  0  0  0  0  0  0  0  0  0
   -1.6348   -6.0763   -1.3807 H   0  0  0  0  0  0  0  0  0  0  0  0
   -2.0818   -3.7237   -1.9757 H   0  0  0  0  0  0  0  0  0  0  0  0
   -4.9312   -1.5538    1.6185 H   0  0  0  0  0  0  0  0  0  0  0  0
   -4.5093   -0.5195    3.8258 H   0  0  0  0  0  0  0  0  0  0  0  0
   -2.4791    0.8469    4.2135 H   0  0  0  0  0  0  0  0  0  0  0  0
   -0.8252    1.1890    2.3889 H   0  0  0  0  0  0  0  0  0  0  0  0
  1  2  1  0
  2  3  1  0
  2  4  1  0
  2  5  1  0
  5  6  1  0
  6  7  2  0
  6  8  1  0
  8  9  1  0
  9 10  1  0
 10 11  1  0
 11 12  1  0
 12 13  1  0
 12 14  1  0
 14 15  1  0
 15 16  2  0
 16 17  1  0
 16 18  1  0
 18 19  1  0
 19 20  1  0
 20 21  2  0
 21 22  1  0
 22 23  2  0
 23 24  1  0
 24 25  2  0
 18 26  1  0
 26 27  1  0
 15 28  1  0
 28 29  1  0
 29 30  2  0
 29 31  1  0
 31 32  1  0
 32 33  1  0
 33 34  2  0
 34 35  1  0
 35 36  2  0
 36 37  1  0
 37 38  2  0
 31 39  1  0
 39 40  2  0
 40 41  1  0
 41 42  2  0
 42 43  1  0
 43 44  2  0
 13  8  1  0
 26 14  2  0
 44 28  1  0
 28 11  1  1
 38 33  1  0
 44 39  1  0
 25 20  1  0
  1 45  1  0
  1 46  1  0
  1 47  1  0
  3 48  1  0
  3 49  1  0
  3 50  1  0
  4 51  1  0
  4 52  1  0
  4 53  1  0
  9 54  1  0
  9 55  1  0
 10 56  1  0
 10 57  1  0
 12 58  1  6
 13 59  1  0
 13 60  1  0
 17 61  1  0
 19 62  1  0
 19 63  1  0
 21 64  1  0
 22 65  1  0
 23 66  1  0
 24 67  1  0
 25 68  1  0
 27 69  1  0
 32 70  1  0
 32 71  1  0
 34 72  1  0
 35 73  1  0
 36 74  1  0
 37 75  1  0
 38 76  1  0
 40 77  1  0
 41 78  1  0
 42 79  1  0
 43 80  1  0
M  END
$$$$
