
     RDKit          3D

 63 67  0  0  0  0  0  0  0  0999 V2000
   -5.3652   -2.5662   -2.2486 C   0  0  0  0  0  0  0  0  0  0  0  0
   -4.1122   -2.4972   -1.5618 O   0  0  0  0  0  0  0  0  0  0  0  0
   -4.1540   -2.9595   -0.2856 C   0  0  0  0  0  0  0  0  0  0  0  0
   -5.1365   -3.4407    0.2576 O   0  0  0  0  0  0  0  0  0  0  0  0
   -2.8201   -2.8608    0.3763 C   0  0  0  0  0  0  0  0  0  0  0  0
   -2.6278   -3.7173    1.4772 C   0  0  0  0  0  0  0  0  0  0  0  0
   -1.4238   -3.7224    2.1786 C   0  0  0  0  0  0  0  0  0  0  0  0
   -0.3986   -2.8702    1.7882 C   0  0  0  0  0  0  0  0  0  0  0  0
   -0.5803   -2.0072    0.7050 C   0  0  0  0  0  0  0  0  0  0  0  0
   -1.7900   -1.9725   -0.0058 C   0  0  0  0  0  0  0  0  0  0  0  0
   -1.9681   -1.1012   -1.1159 N   0  0  0  0  0  0  0  0  0  0  0  0
   -1.0883   -0.2115   -1.6693 C   0  0  0  0  0  0  0  0  0  0  0  0
   -0.9420   -0.2915   -3.3427 S   0  0  0  0  0  0  0  0  0  0  0  0
   -0.4639    0.7141   -0.8445 N   0  0  0  0  0  0  0  0  0  0  0  0
   -1.1267    1.2225    0.3723 C   0  0  0  0  0  0  0  0  0  0  0  0
   -1.8336    2.5424    0.1376 C   0  0  0  0  0  0  0  0  0  0  0  0
   -1.3244    3.7367    0.7003 C   0  0  0  0  0  0  0  0  0  0  0  0
   -1.9596    4.9642    0.4838 C   0  0  0  0  0  0  0  0  0  0  0  0
   -3.0973    4.9691   -0.2920 C   0  0  0  0  0  0  0  0  0  0  0  0
   -3.6035    3.8146   -0.8401 C   0  0  0  0  0  0  0  0  0  0  0  0
   -2.9986    2.5905   -0.6466 C   0  0  0  0  0  0  0  0  0  0  0  0
   -4.7300    4.0366   -1.5682 O   0  0  0  0  0  0  0  0  0  0  0  0
   -4.8721    5.4642   -1.4184 C   0  0  0  0  0  0  0  0  0  0  0  0
   -3.8402    6.0632   -0.6088 O   0  0  0  0  0  0  0  0  0  0  0  0
    0.7471    1.4543   -1.2564 C   0  0  0  0  0  0  0  0  0  0  0  0
    1.9559    0.8284   -0.6194 C   0  0  0  0  0  0  0  0  0  0  0  0
    2.5507   -0.2785   -1.1041 C   0  0  0  0  0  0  0  0  0  0  0  0
    3.7262   -0.8500   -0.4515 C   0  0  0  0  0  0  0  0  0  0  0  0
    4.3233   -2.0216   -0.9168 C   0  0  0  0  0  0  0  0  0  0  0  0
    5.4440   -2.5361   -0.2578 C   0  0  0  0  0  0  0  0  0  0  0  0
    5.9824   -1.8877    0.8600 C   0  0  0  0  0  0  0  0  0  0  0  0
    7.0780   -2.5040    1.4002 O   0  0  0  0  0  0  0  0  0  0  0  0
    7.6727   -1.8872    2.5384 C   0  0  0  0  0  0  0  0  0  0  0  0
    5.3872   -0.7137    1.3257 C   0  0  0  0  0  0  0  0  0  0  0  0
    4.2608   -0.2061    0.6714 C   0  0  0  0  0  0  0  0  0  0  0  0
    3.6465    0.9613    1.1439 N   0  0  0  0  0  0  0  0  0  0  0  0
    2.5313    1.5185    0.5747 C   0  0  0  0  0  0  0  0  0  0  0  0
    2.0314    2.5367    1.0425 O   0  0  0  0  0  0  0  0  0  0  0  0
   -5.6567   -3.6108   -2.4015 H   0  0  0  0  0  0  0  0  0  0  0  0
   -5.2383   -2.0915   -3.2263 H   0  0  0  0  0  0  0  0  0  0  0  0
   -6.1400   -2.0197   -1.6982 H   0  0  0  0  0  0  0  0  0  0  0  0
   -3.4225   -4.3931    1.7903 H   0  0  0  0  0  0  0  0  0  0  0  0
   -1.2860   -4.3962    3.0208 H   0  0  0  0  0  0  0  0  0  0  0  0
    0.5495   -2.8776    2.3209 H   0  0  0  0  0  0  0  0  0  0  0  0
    0.2580   -1.3815    0.4201 H   0  0  0  0  0  0  0  0  0  0  0  0
   -2.6463   -1.4568   -1.7905 H   0  0  0  0  0  0  0  0  0  0  0  0
   -1.8840    0.5292    0.7453 H   0  0  0  0  0  0  0  0  0  0  0  0
   -0.3765    1.3098    1.1655 H   0  0  0  0  0  0  0  0  0  0  0  0
   -0.4171    3.7110    1.3035 H   0  0  0  0  0  0  0  0  0  0  0  0
   -1.5674    5.8820    0.9081 H   0  0  0  0  0  0  0  0  0  0  0  0
   -3.4175    1.6962   -1.0956 H   0  0  0  0  0  0  0  0  0  0  0  0
   -4.8507    5.9246   -2.4123 H   0  0  0  0  0  0  0  0  0  0  0  0
   -5.8446    5.6735   -0.9570 H   0  0  0  0  0  0  0  0  0  0  0  0
    0.6452    2.5143   -1.0064 H   0  0  0  0  0  0  0  0  0  0  0  0
    0.8787    1.4343   -2.3415 H   0  0  0  0  0  0  0  0  0  0  0  0
    2.1605   -0.7842   -1.9812 H   0  0  0  0  0  0  0  0  0  0  0  0
    3.9284   -2.5462   -1.7851 H   0  0  0  0  0  0  0  0  0  0  0  0
    5.9042   -3.4533   -0.6195 H   0  0  0  0  0  0  0  0  0  0  0  0
    8.5224   -2.5030    2.8487 H   0  0  0  0  0  0  0  0  0  0  0  0
    8.0553   -0.8901    2.2904 H   0  0  0  0  0  0  0  0  0  0  0  0
    6.9693   -1.8452    3.3787 H   0  0  0  0  0  0  0  0  0  0  0  0
    5.7786   -0.1863    2.1901 H   0  0  0  0  0  0  0  0  0  0  0  0
    4.0168    1.4463    1.9531 H   0  0  0  0  0  0  0  0  0  0  0  0
  1  2  1  0
  2  3  1  0
  3  4  2  0
  3  5  1  0
  5  6  2  0
  6  7  1  0
  7  8  2  0
  8  9  1  0
  9 10  2  0
 10 11  1  0
 11 12  1  0
 12 13  2  0
 12 14  1  0
 14 15  1  0
 15 16  1  0
 16 17  2  0
 17 18  1  0
 18 19  2  0
 19 20  1  0
 20 21  2  0
 20 22  1  0
 22 23  1  0
 23 24  1  0
 14 25  1  0
 25 26  1  0
 26 27  2  0
 27 28  1  0
 28 29  2  0
 29 30  1  0
 30 31  2  0
 31 32  1  0
 32 33  1  0
 31 34  1  0
 34 35  2  0
 35 36  1  0
 36 37  1  0
 37 38  2  0
 10  5  1  0
 21 16  1  0
 37 26  1  0
 24 19  1  0
 35 28  1  0
  1 39  1  0
  1 40  1  0
  1 41  1  0
  6 42  1  0
  7 43  1  0
  8 44  1  0
  9 45  1  0
 11 46  1  0
 15 47  1  0
 15 48  1  0
 17 49  1  0
 18 50  1  0
 21 51  1  0
 23 52  1  0
 23 53  1  0
 25 54  1  0
 25 55  1  0
 27 56  1  0
 29 57  1  0
 30 58  1  0
 33 59  1  0
 33 60  1  0
 33 61  1  0
 34 62  1  0
 36 63  1  0
M  END
$$$$
