
     RDKit          3D

 19 19  0  0  0  0  0  0  0  0999 V2000
   -2.9103    0.1699   -1.7970 C   0  0  0  0  0  0  0  0  0  0  0  0
   -2.0570    0.3627   -0.5517 C   0  0  0  0  0  0  0  0  0  0  0  0
   -1.6451   -0.9820    0.0444 C   0  0  0  0  0  0  0  0  0  0  0  0
   -0.6579   -0.7692    1.5568 S   0  0  0  0  0  0  0  0  0  0  0  0
    0.9158   -0.3763    0.9016 C   0  0  0  0  0  0  0  0  0  0  0  0
    1.1882   -0.4009   -0.3841 N   0  0  0  0  0  0  0  0  0  0  0  0
    2.5008   -0.0537   -0.6406 N   0  0  0  0  0  0  0  0  0  0  0  0
    3.1710    0.2158    0.4570 C   0  0  0  0  0  0  0  0  0  0  0  0
    4.4656    0.5870    0.4896 N   0  0  0  0  0  0  0  0  0  0  0  0
    2.2387    0.0748    1.8927 S   0  0  0  0  0  0  0  0  0  0  0  0
   -2.3593   -0.3770   -2.5687 H   0  0  0  0  0  0  0  0  0  0  0  0
   -3.2014    1.1405   -2.2107 H   0  0  0  0  0  0  0  0  0  0  0  0
   -3.8232   -0.3878   -1.5649 H   0  0  0  0  0  0  0  0  0  0  0  0
   -2.6309    0.9425    0.1814 H   0  0  0  0  0  0  0  0  0  0  0  0
   -1.1769    0.9574   -0.8211 H   0  0  0  0  0  0  0  0  0  0  0  0
   -2.5426   -1.5451    0.3236 H   0  0  0  0  0  0  0  0  0  0  0  0
   -1.1020   -1.5938   -0.6838 H   0  0  0  0  0  0  0  0  0  0  0  0
    4.8452    0.9172   -0.3918 H   0  0  0  0  0  0  0  0  0  0  0  0
    4.7812    1.1178    1.2927 H   0  0  0  0  0  0  0  0  0  0  0  0
  1  2  1  0
  2  3  1  0
  3  4  1  0
  4  5  1  0
  5  6  2  0
  6  7  1  0
  7  8  2  0
  8  9  1  0
  8 10  1  0
 10  5  1  0
  1 11  1  0
  1 12  1  0
  1 13  1  0
  2 14  1  0
  2 15  1  0
  3 16  1  0
  3 17  1  0
  9 18  1  0
  9 19  1  0
M  END
$$$$
