
     RDKit          3D

 56 58  0  0  0  0  0  0  0  0999 V2000
   -7.4652    0.5121   -1.4000 C   0  0  0  0  0  0  0  0  0  0  0  0
   -6.7236   -0.7969   -1.6245 C   0  0  0  0  0  0  0  0  0  0  0  0
   -5.7881   -1.0807   -0.5250 N   0  0  0  0  0  0  0  0  0  0  0  0
   -6.3482   -1.7925    0.6346 C   0  0  0  0  0  0  0  0  0  0  0  0
   -6.4809   -0.8815    1.8480 C   0  0  0  0  0  0  0  0  0  0  0  0
   -4.4513   -0.7051   -0.5910 C   0  0  0  0  0  0  0  0  0  0  0  0
   -3.9719    0.2050   -1.5469 C   0  0  0  0  0  0  0  0  0  0  0  0
   -2.6223    0.5869   -1.6187 C   0  0  0  0  0  0  0  0  0  0  0  0
   -1.6876    0.0768   -0.7197 C   0  0  0  0  0  0  0  0  0  0  0  0
   -0.2802    0.4793   -0.8493 C   0  0  0  0  0  0  0  0  0  0  0  0
    0.5578    0.6113    0.1917 C   0  0  0  0  0  0  0  0  0  0  0  0
    1.9543    1.0305    0.0209 C   0  0  0  0  0  0  0  0  0  0  0  0
    2.2030    2.3431   -0.3822 C   0  0  0  0  0  0  0  0  0  0  0  0
    3.5025    2.7910   -0.5257 C   0  0  0  0  0  0  0  0  0  0  0  0
    4.5554    1.9274   -0.2513 C   0  0  0  0  0  0  0  0  0  0  0  0
    5.8759    2.3801   -0.3834 C   0  0  0  0  0  0  0  0  0  0  0  0
    6.9526    1.5378   -0.1053 C   0  0  0  0  0  0  0  0  0  0  0  0
    6.7183    0.2352    0.3123 C   0  0  0  0  0  0  0  0  0  0  0  0
    7.6694   -0.6942    0.6255 O   0  0  0  0  0  0  0  0  0  0  0  0
    9.0331   -0.2956    0.5118 C   0  0  0  0  0  0  0  0  0  0  0  0
    5.4014   -0.2244    0.4453 C   0  0  0  0  0  0  0  0  0  0  0  0
    4.2924    0.5942    0.1644 C   0  0  0  0  0  0  0  0  0  0  0  0
    2.9861    0.1710    0.2787 N   0  0  0  0  0  4  0  0  0  0  0  0
    2.6794   -1.2472    0.6413 C   0  0  0  0  0  0  0  0  0  0  0  0
    2.6439   -1.3997    2.1508 C   0  0  0  0  0  0  0  0  0  0  0  0
   -2.1312   -0.8408    0.2313 C   0  0  0  0  0  0  0  0  0  0  0  0
   -3.4844   -1.2141    0.2913 C   0  0  0  0  0  0  0  0  0  0  0  0
   -8.1150    0.7287   -2.2538 H   0  0  0  0  0  0  0  0  0  0  0  0
   -6.7772    1.3534   -1.2738 H   0  0  0  0  0  0  0  0  0  0  0  0
   -8.0953    0.4592   -0.5069 H   0  0  0  0  0  0  0  0  0  0  0  0
   -6.2163   -0.7900   -2.5963 H   0  0  0  0  0  0  0  0  0  0  0  0
   -7.4585   -1.6081   -1.7056 H   0  0  0  0  0  0  0  0  0  0  0  0
   -7.3479   -2.1762    0.3954 H   0  0  0  0  0  0  0  0  0  0  0  0
   -5.7556   -2.6819    0.8761 H   0  0  0  0  0  0  0  0  0  0  0  0
   -5.5112   -0.5078    2.1889 H   0  0  0  0  0  0  0  0  0  0  0  0
   -6.9389   -1.4278    2.6788 H   0  0  0  0  0  0  0  0  0  0  0  0
   -7.1105   -0.0145    1.6262 H   0  0  0  0  0  0  0  0  0  0  0  0
   -4.6462    0.6649   -2.2637 H   0  0  0  0  0  0  0  0  0  0  0  0
   -2.3301    1.3000   -2.3866 H   0  0  0  0  0  0  0  0  0  0  0  0
    0.0467    0.6888   -1.8674 H   0  0  0  0  0  0  0  0  0  0  0  0
    0.2316    0.4347    1.2129 H   0  0  0  0  0  0  0  0  0  0  0  0
    1.3786    3.0278   -0.5800 H   0  0  0  0  0  0  0  0  0  0  0  0
    3.6809    3.8184   -0.8420 H   0  0  0  0  0  0  0  0  0  0  0  0
    6.0871    3.4007   -0.7038 H   0  0  0  0  0  0  0  0  0  0  0  0
    7.9583    1.9333   -0.2215 H   0  0  0  0  0  0  0  0  0  0  0  0
    9.6552   -1.1486    0.7998 H   0  0  0  0  0  0  0  0  0  0  0  0
    9.2808   -0.0341   -0.5223 H   0  0  0  0  0  0  0  0  0  0  0  0
    9.2596    0.5300    1.1948 H   0  0  0  0  0  0  0  0  0  0  0  0
    5.2942   -1.2485    0.7894 H   0  0  0  0  0  0  0  0  0  0  0  0
    3.4198   -1.9030    0.1751 H   0  0  0  0  0  0  0  0  0  0  0  0
    1.7259   -1.5431    0.1953 H   0  0  0  0  0  0  0  0  0  0  0  0
    1.8861   -0.7499    2.5993 H   0  0  0  0  0  0  0  0  0  0  0  0
    3.6050   -1.1425    2.6054 H   0  0  0  0  0  0  0  0  0  0  0  0
    2.4072   -2.4337    2.4204 H   0  0  0  0  0  0  0  0  0  0  0  0
   -1.4474   -1.3000    0.9387 H   0  0  0  0  0  0  0  0  0  0  0  0
   -3.7577   -1.9392    1.0522 H   0  0  0  0  0  0  0  0  0  0  0  0
  1  2  1  0
  2  3  1  0
  3  4  1  0
  4  5  1  0
  3  6  1  0
  6  7  2  0
  7  8  1  0
  8  9  2  0
  9 10  1  0
 10 11  2  3
 11 12  1  0
 12 13  2  0
 13 14  1  0
 14 15  2  0
 15 16  1  0
 16 17  2  0
 17 18  1  0
 18 19  1  0
 19 20  1  0
 18 21  2  0
 21 22  1  0
 22 23  2  0
 23 24  1  0
 24 25  1  0
  9 26  1  0
 26 27  2  0
 27  6  1  0
 23 12  1  0
 22 15  1  0
  1 28  1  0
  1 29  1  0
  1 30  1  0
  2 31  1  0
  2 32  1  0
  4 33  1  0
  4 34  1  0
  5 35  1  0
  5 36  1  0
  5 37  1  0
  7 38  1  0
  8 39  1  0
 10 40  1  0
 11 41  1  0
 13 42  1  0
 14 43  1  0
 16 44  1  0
 17 45  1  0
 20 46  1  0
 20 47  1  0
 20 48  1  0
 21 49  1  0
 24 50  1  0
 24 51  1  0
 25 52  1  0
 25 53  1  0
 25 54  1  0
 26 55  1  0
 27 56  1  0
M  CHG  1  23   1
M  END
$$$$
