
     RDKit          3D

 61 67  0  0  0  0  0  0  0  0999 V2000
    4.3545   -0.3734    1.9604 O   0  0  0  0  0  0  0  0  0  0  0  0
    3.6793   -0.0107    1.0009 C   0  0  0  0  0  0  0  0  0  0  0  0
    4.3754    0.6744   -0.1082 C   0  0  0  0  0  0  0  0  0  0  0  0
    4.0118    1.9892   -0.4708 C   0  0  0  0  0  0  0  0  0  0  0  0
    4.6838    2.6415   -1.5079 C   0  0  0  0  0  0  0  0  0  0  0  0
    5.7044    1.9587   -2.1375 C   0  0  0  0  0  0  0  0  0  0  0  0
    6.0679    0.6829   -1.7667 C   0  0  0  0  0  0  0  0  0  0  0  0
    5.4294    0.0115   -0.7477 C   0  0  0  0  0  0  0  0  0  0  0  0
    7.0987    0.2005   -2.5117 O   0  0  0  0  0  0  0  0  0  0  0  0
    7.3556    1.3229   -3.3816 C   0  0  0  0  0  0  0  0  0  0  0  0
    6.4630    2.4360   -3.1601 O   0  0  0  0  0  0  0  0  0  0  0  0
    2.3001   -0.2034    0.9156 N   0  0  0  0  0  0  0  0  0  0  0  0
    1.5130   -0.0438   -0.3055 C   0  0  0  0  0  0  0  0  0  0  0  0
    0.4404   -1.1219   -0.4475 C   0  0  0  0  0  0  0  0  0  0  0  0
   -0.4966   -1.2601    0.7933 C   0  0  0  0  0  0  0  0  0  0  0  0
    0.1268   -0.5549    2.0246 C   0  0  0  0  0  0  0  0  0  0  0  0
    1.6330   -0.7805    2.0757 C   0  0  0  0  0  0  0  0  0  0  0  0
   -0.4923   -2.6954    1.0534 O   0  0  0  0  0  0  0  0  0  0  0  0
   -1.5052   -3.2173    1.8027 C   0  0  0  0  0  0  0  0  0  0  0  0
   -1.3364   -4.5340    2.2303 C   0  0  0  0  0  0  0  0  0  0  0  0
   -2.3104   -5.1427    3.0266 C   0  0  0  0  0  0  0  0  0  0  0  0
   -3.4535   -4.4313    3.3921 C   0  0  0  0  0  0  0  0  0  0  0  0
   -4.6457   -5.1815    4.3797 Cl  0  0  0  0  0  0  0  0  0  0  0  0
   -3.6365   -3.1204    2.9614 C   0  0  0  0  0  0  0  0  0  0  0  0
   -2.6601   -2.5266    2.1559 C   0  0  0  0  0  0  0  0  0  0  0  0
   -2.8290   -1.1532    1.6646 C   0  0  0  0  0  0  0  0  0  0  0  0
   -3.6367   -0.4042    2.2053 O   0  0  0  0  0  0  0  0  0  0  0  0
   -1.9387   -0.7591    0.4930 C   0  0  0  0  0  0  0  0  0  0  0  0
   -2.0626    0.7215    0.1713 C   0  0  0  0  0  0  0  0  0  0  0  0
   -3.1161    0.6398   -0.8819 C   0  0  0  0  0  0  0  0  0  0  0  0
   -3.8443    1.8362   -1.3652 C   0  0  0  0  0  0  0  0  0  0  0  0
   -4.8514    1.6735   -2.3253 C   0  0  0  0  0  0  0  0  0  0  0  0
   -5.5508    2.7810   -2.8080 C   0  0  0  0  0  0  0  0  0  0  0  0
   -5.2479    4.0553   -2.3348 C   0  0  0  0  0  0  0  0  0  0  0  0
   -4.2462    4.2245   -1.3797 C   0  0  0  0  0  0  0  0  0  0  0  0
   -3.5432    3.1187   -0.8942 C   0  0  0  0  0  0  0  0  0  0  0  0
   -3.3073   -0.5473   -1.3631 N   0  0  0  0  0  0  0  0  0  0  0  0
   -2.4542   -1.4319   -0.6692 O   0  0  0  0  0  0  0  0  0  0  0  0
    3.2190    2.5035    0.0665 H   0  0  0  0  0  0  0  0  0  0  0  0
    4.4239    3.6514   -1.8031 H   0  0  0  0  0  0  0  0  0  0  0  0
    5.7331   -0.9873   -0.4530 H   0  0  0  0  0  0  0  0  0  0  0  0
    8.3867    1.6619   -3.2216 H   0  0  0  0  0  0  0  0  0  0  0  0
    7.2506    0.9916   -4.4215 H   0  0  0  0  0  0  0  0  0  0  0  0
    1.0608    0.9526   -0.2661 H   0  0  0  0  0  0  0  0  0  0  0  0
    2.1614   -0.0756   -1.1866 H   0  0  0  0  0  0  0  0  0  0  0  0
    0.9521   -2.0776   -0.6318 H   0  0  0  0  0  0  0  0  0  0  0  0
   -0.1311   -0.9209   -1.3610 H   0  0  0  0  0  0  0  0  0  0  0  0
   -0.3063   -0.9323    2.9577 H   0  0  0  0  0  0  0  0  0  0  0  0
   -0.0669    0.5240    1.9919 H   0  0  0  0  0  0  0  0  0  0  0  0
    2.0469   -0.3296    2.9854 H   0  0  0  0  0  0  0  0  0  0  0  0
    1.8733   -1.8502    2.1034 H   0  0  0  0  0  0  0  0  0  0  0  0
   -0.4426   -5.0870    1.9502 H   0  0  0  0  0  0  0  0  0  0  0  0
   -2.1700   -6.1683    3.3591 H   0  0  0  0  0  0  0  0  0  0  0  0
   -4.5314   -2.5679    3.2375 H   0  0  0  0  0  0  0  0  0  0  0  0
   -2.3543    1.3416    1.0219 H   0  0  0  0  0  0  0  0  0  0  0  0
   -1.1670    1.1401   -0.2933 H   0  0  0  0  0  0  0  0  0  0  0  0
   -5.1000    0.6840   -2.7029 H   0  0  0  0  0  0  0  0  0  0  0  0
   -6.3324    2.6464   -3.5518 H   0  0  0  0  0  0  0  0  0  0  0  0
   -5.7941    4.9171   -2.7098 H   0  0  0  0  0  0  0  0  0  0  0  0
   -4.0142    5.2206   -1.0114 H   0  0  0  0  0  0  0  0  0  0  0  0
   -2.7695    3.2871   -0.1520 H   0  0  0  0  0  0  0  0  0  0  0  0
  1  2  2  0
  2  3  1  0
  3  4  2  0
  4  5  1  0
  5  6  2  0
  6  7  1  0
  7  8  2  0
  7  9  1  0
  9 10  1  0
 10 11  1  0
  2 12  1  0
 12 13  1  0
 13 14  1  0
 14 15  1  0
 15 16  1  0
 16 17  1  0
 15 18  1  0
 18 19  1  0
 19 20  2  0
 20 21  1  0
 21 22  2  0
 22 23  1  0
 22 24  1  0
 24 25  2  0
 25 26  1  0
 26 27  2  0
 26 28  1  0
 28 29  1  0
 29 30  1  0
 30 31  1  0
 31 32  2  0
 32 33  1  0
 33 34  2  0
 34 35  1  0
 35 36  2  0
 30 37  2  0
 37 38  1  0
  8  3  1  0
 17 12  1  0
 25 19  1  0
 38 28  1  0
 11  6  1  0
 28 15  1  0
 36 31  1  0
  4 39  1  0
  5 40  1  0
  8 41  1  0
 10 42  1  0
 10 43  1  0
 13 44  1  0
 13 45  1  0
 14 46  1  0
 14 47  1  0
 16 48  1  0
 16 49  1  0
 17 50  1  0
 17 51  1  0
 20 52  1  0
 21 53  1  0
 24 54  1  0
 29 55  1  0
 29 56  1  0
 32 57  1  0
 33 58  1  0
 34 59  1  0
 35 60  1  0
 36 61  1  0
M  END
$$$$
