
     RDKit          3D

 49 51  0  0  0  0  0  0  0  0999 V2000
    2.3263   -0.5970   -2.8511 O   0  0  0  0  0  0  0  0  0  0  0  0
    2.4826   -0.9800   -1.7002 C   0  0  0  0  0  0  0  0  0  0  0  0
    3.5607   -1.6814   -1.2212 N   0  0  0  0  0  0  0  0  0  0  0  0
    4.6127   -2.1367   -2.0890 C   0  0  0  0  0  0  0  0  0  0  0  0
    5.7363   -2.7476   -1.2985 C   0  0  0  0  0  0  0  0  0  0  0  0
    5.7676   -4.1275   -1.0524 C   0  0  0  0  0  0  0  0  0  0  0  0
    6.7976   -4.6878   -0.2951 C   0  0  0  0  0  0  0  0  0  0  0  0
    7.8004   -3.8746    0.2296 C   0  0  0  0  0  0  0  0  0  0  0  0
    7.7732   -2.5001    0.0011 C   0  0  0  0  0  0  0  0  0  0  0  0
    6.7442   -1.9378   -0.7558 C   0  0  0  0  0  0  0  0  0  0  0  0
    1.4068   -0.6866   -0.6292 C   0  0  0  0  0  0  0  0  0  0  0  0
    1.5854   -1.0279    0.5311 O   0  0  0  0  0  0  0  0  0  0  0  0
    0.3059   -0.0248   -1.1199 N   0  0  0  0  0  0  0  0  0  0  0  0
   -0.6989    0.5426   -0.2373 C   0  0  0  0  0  0  0  0  0  0  0  0
   -1.9961    0.9019   -0.9785 C   0  0  0  0  0  0  0  0  0  0  0  0
   -1.6923    1.8645   -2.0104 O   0  0  0  0  0  0  0  0  0  0  0  0
   -2.8952    2.6180   -2.1758 C   0  0  0  0  0  0  0  0  0  0  0  0
   -3.3892    2.8044   -0.7592 C   0  0  0  0  0  0  0  0  0  0  0  0
   -2.9622    1.5664   -0.0739 N   0  0  0  0  0  0  0  0  0  0  0  0
   -4.1749    0.5301    0.4799 S   0  0  0  0  0  6  0  0  0  0  0  0
   -3.5403   -0.6107    1.1003 O   0  0  0  0  0  0  0  0  0  0  0  0
   -5.1259    0.3710   -0.5998 O   0  0  0  0  0  0  0  0  0  0  0  0
   -4.9324    1.4862    1.7692 C   0  0  0  0  0  0  0  0  0  0  0  0
   -6.2588    1.9097    1.6446 C   0  0  0  0  0  0  0  0  0  0  0  0
   -6.8373    2.6606    2.6699 C   0  0  0  0  0  0  0  0  0  0  0  0
   -6.0898    2.9752    3.8066 C   0  0  0  0  0  0  0  0  0  0  0  0
   -6.8776    3.9934    5.1911 Br  0  0  0  0  0  0  0  0  0  0  0  0
   -4.7682    2.5440    3.9330 C   0  0  0  0  0  0  0  0  0  0  0  0
   -4.1848    1.7930    2.9113 C   0  0  0  0  0  0  0  0  0  0  0  0
    3.5222   -1.9911   -0.2534 H   0  0  0  0  0  0  0  0  0  0  0  0
    4.9730   -1.2929   -2.6896 H   0  0  0  0  0  0  0  0  0  0  0  0
    4.1887   -2.8640   -2.7916 H   0  0  0  0  0  0  0  0  0  0  0  0
    4.9878   -4.7745   -1.4488 H   0  0  0  0  0  0  0  0  0  0  0  0
    6.8160   -5.7591   -0.1117 H   0  0  0  0  0  0  0  0  0  0  0  0
    8.6012   -4.3117    0.8204 H   0  0  0  0  0  0  0  0  0  0  0  0
    8.5517   -1.8650    0.4157 H   0  0  0  0  0  0  0  0  0  0  0  0
    6.7297   -0.8621   -0.9190 H   0  0  0  0  0  0  0  0  0  0  0  0
    0.3985    0.3547   -2.0612 H   0  0  0  0  0  0  0  0  0  0  0  0
   -0.2503    1.4431    0.1996 H   0  0  0  0  0  0  0  0  0  0  0  0
   -0.8918   -0.1594    0.5807 H   0  0  0  0  0  0  0  0  0  0  0  0
   -2.4215    0.0212   -1.4746 H   0  0  0  0  0  0  0  0  0  0  0  0
   -3.5975    2.0341   -2.7812 H   0  0  0  0  0  0  0  0  0  0  0  0
   -2.6840    3.5640   -2.6809 H   0  0  0  0  0  0  0  0  0  0  0  0
   -2.8743    3.6418   -0.2751 H   0  0  0  0  0  0  0  0  0  0  0  0
   -4.4631    3.0007   -0.7233 H   0  0  0  0  0  0  0  0  0  0  0  0
   -6.8463    1.6587    0.7641 H   0  0  0  0  0  0  0  0  0  0  0  0
   -7.8692    2.9908    2.5773 H   0  0  0  0  0  0  0  0  0  0  0  0
   -4.1891    2.7827    4.8218 H   0  0  0  0  0  0  0  0  0  0  0  0
   -3.1574    1.4479    3.0094 H   0  0  0  0  0  0  0  0  0  0  0  0
  1  2  2  0
  2  3  1  0
  3  4  1  0
  4  5  1  0
  5  6  2  0
  6  7  1  0
  7  8  2  0
  8  9  1  0
  9 10  2  0
  2 11  1  0
 11 12  2  0
 11 13  1  0
 13 14  1  0
 14 15  1  0
 15 16  1  0
 16 17  1  0
 17 18  1  0
 18 19  1  0
 19 20  1  0
 20 21  2  0
 20 22  2  0
 20 23  1  0
 23 24  2  0
 24 25  1  0
 25 26  2  0
 26 27  1  0
 26 28  1  0
 28 29  2  0
 10  5  1  0
 19 15  1  0
 29 23  1  0
  3 30  1  0
  4 31  1  0
  4 32  1  0
  6 33  1  0
  7 34  1  0
  8 35  1  0
  9 36  1  0
 10 37  1  0
 13 38  1  0
 14 39  1  0
 14 40  1  0
 15 41  1  0
 17 42  1  0
 17 43  1  0
 18 44  1  0
 18 45  1  0
 24 46  1  0
 25 47  1  0
 28 48  1  0
 29 49  1  0
M  END
$$$$
