
     RDKit          3D

 38 40  0  0  0  0  0  0  0  0999 V2000
    1.4297   -1.0076   -1.9303 O   0  0  0  0  0  0  0  0  0  0  0  0
    0.7260   -0.9211   -0.9276 C   0  0  0  0  0  0  0  0  0  0  0  0
    1.1779   -1.2748    0.3187 N   0  0  0  0  0  0  0  0  0  0  0  0
    2.5389   -1.7302    0.5084 C   0  0  0  0  0  0  0  0  0  0  0  0
    3.4416   -0.5960    0.9284 C   0  0  0  0  0  0  0  0  0  0  0  0
    3.9851    0.2690   -0.0334 C   0  0  0  0  0  0  0  0  0  0  0  0
    4.8022    1.3345    0.3504 C   0  0  0  0  0  0  0  0  0  0  0  0
    5.0762    1.5438    1.6996 C   0  0  0  0  0  0  0  0  0  0  0  0
    6.0817    2.8566    2.1753 Cl  0  0  0  0  0  0  0  0  0  0  0  0
    4.5380    0.6987    2.6681 C   0  0  0  0  0  0  0  0  0  0  0  0
    3.7197   -0.3668    2.2843 C   0  0  0  0  0  0  0  0  0  0  0  0
   -0.5871   -0.4654   -0.9585 N   0  0  0  0  0  0  0  0  0  0  0  0
   -1.1281   -0.1108   -2.2675 C   0  0  0  0  0  0  0  0  0  0  0  0
   -2.1931    0.9760   -2.1564 C   0  0  0  0  0  0  0  0  0  0  0  0
   -3.2465    0.6141   -1.1436 C   0  0  0  0  0  0  0  0  0  0  0  0
   -4.5201    1.1944   -1.2152 C   0  0  0  0  0  0  0  0  0  0  0  0
   -5.4913    0.8825   -0.2649 C   0  0  0  0  0  0  0  0  0  0  0  0
   -5.1955   -0.0034    0.7676 C   0  0  0  0  0  0  0  0  0  0  0  0
   -3.9255   -0.5742    0.8544 C   0  0  0  0  0  0  0  0  0  0  0  0
   -2.9363   -0.2660   -0.0929 C   0  0  0  0  0  0  0  0  0  0  0  0
   -1.5710   -0.9036    0.0337 C   0  0  0  0  0  0  0  0  0  0  0  0
    0.8210   -0.6998    1.0650 H   0  0  0  0  0  0  0  0  0  0  0  0
    2.9232   -2.2114   -0.3981 H   0  0  0  0  0  0  0  0  0  0  0  0
    2.5119   -2.4961    1.2915 H   0  0  0  0  0  0  0  0  0  0  0  0
    3.7667    0.1165   -1.0902 H   0  0  0  0  0  0  0  0  0  0  0  0
    5.2156    1.9949   -0.4070 H   0  0  0  0  0  0  0  0  0  0  0  0
    4.7505    0.8644    3.7209 H   0  0  0  0  0  0  0  0  0  0  0  0
    3.3036   -1.0175    3.0504 H   0  0  0  0  0  0  0  0  0  0  0  0
   -0.3303    0.2416   -2.9309 H   0  0  0  0  0  0  0  0  0  0  0  0
   -1.5417   -1.0253   -2.7119 H   0  0  0  0  0  0  0  0  0  0  0  0
   -2.6484    1.1312   -3.1413 H   0  0  0  0  0  0  0  0  0  0  0  0
   -1.7297    1.9200   -1.8445 H   0  0  0  0  0  0  0  0  0  0  0  0
   -4.7616    1.8925   -2.0136 H   0  0  0  0  0  0  0  0  0  0  0  0
   -6.4785    1.3325   -0.3296 H   0  0  0  0  0  0  0  0  0  0  0  0
   -5.9534   -0.2472    1.5075 H   0  0  0  0  0  0  0  0  0  0  0  0
   -3.7098   -1.2621    1.6692 H   0  0  0  0  0  0  0  0  0  0  0  0
   -1.1879   -0.6935    1.0373 H   0  0  0  0  0  0  0  0  0  0  0  0
   -1.6737   -1.9907   -0.0734 H   0  0  0  0  0  0  0  0  0  0  0  0
  1  2  2  0
  2  3  1  0
  3  4  1  0
  4  5  1  0
  5  6  2  0
  6  7  1  0
  7  8  2  0
  8  9  1  0
  8 10  1  0
 10 11  2  0
  2 12  1  0
 12 13  1  0
 13 14  1  0
 14 15  1  0
 15 16  2  0
 16 17  1  0
 17 18  2  0
 18 19  1  0
 19 20  2  0
 20 21  1  0
 11  5  1  0
 21 12  1  0
 20 15  1  0
  3 22  1  0
  4 23  1  0
  4 24  1  0
  6 25  1  0
  7 26  1  0
 10 27  1  0
 11 28  1  0
 13 29  1  0
 13 30  1  0
 14 31  1  0
 14 32  1  0
 16 33  1  0
 17 34  1  0
 18 35  1  0
 19 36  1  0
 21 37  1  0
 21 38  1  0
M  END
$$$$
