
     RDKit          3D

 46 47  0  0  0  0  0  0  0  0999 V2000
    1.2797    2.6475   -2.9952 C   0  0  0  0  0  0  0  0  0  0  0  0
    2.4533    2.0464   -2.2621 C   0  0  0  0  0  0  0  0  0  0  0  0
    3.4146    2.7395   -1.9443 O   0  0  0  0  0  0  0  0  0  0  0  0
    2.2758    0.7066   -1.9924 N   0  0  0  0  0  0  0  0  0  0  0  0
    3.1520   -0.1717   -1.3192 C   0  0  0  0  0  0  0  0  0  0  0  0
    4.4221    0.1939   -0.8705 C   0  0  0  0  0  0  0  0  0  0  0  0
    5.2432   -0.7380   -0.2243 C   0  0  0  0  0  0  0  0  0  0  0  0
    4.8081   -2.0478   -0.0284 C   0  0  0  0  0  0  0  0  0  0  0  0
    3.5448   -2.4294   -0.4710 C   0  0  0  0  0  0  0  0  0  0  0  0
    2.7185   -1.4899   -1.0919 C   0  0  0  0  0  0  0  0  0  0  0  0
    1.4877   -1.9010   -1.5423 O   0  0  0  0  0  0  0  0  0  0  0  0
    0.5050   -1.8599   -0.4973 C   0  0  0  0  0  0  0  0  0  0  0  0
   -0.2350   -3.1931   -0.5153 C   0  0  0  0  0  0  0  0  0  0  0  0
   -0.4793   -0.7037   -0.7544 C   0  0  0  0  0  0  0  0  0  0  0  0
   -0.4316    0.0002   -1.7632 O   0  0  0  0  0  0  0  0  0  0  0  0
   -1.3992   -0.4967    0.2506 N   0  0  0  0  0  0  0  0  0  0  0  0
   -2.3946    0.5604    0.1811 C   0  0  0  0  0  0  0  0  0  0  0  0
   -3.5525    0.1674   -0.7414 C   0  0  0  0  0  0  0  0  0  0  0  0
   -2.8341    0.9203    1.5905 C   0  0  0  0  0  0  0  0  0  0  0  0
   -3.7975    0.1720    2.2901 C   0  0  0  0  0  0  0  0  0  0  0  0
   -4.1521    0.5148    3.5971 C   0  0  0  0  0  0  0  0  0  0  0  0
   -3.5389    1.5977    4.2145 C   0  0  0  0  0  0  0  0  0  0  0  0
   -3.8787    1.9216    5.4687 F   0  0  0  0  0  0  0  0  0  0  0  0
   -2.5737    2.3435    3.5516 C   0  0  0  0  0  0  0  0  0  0  0  0
   -2.2185    2.0037    2.2447 C   0  0  0  0  0  0  0  0  0  0  0  0
    1.6250    3.4915   -3.5995 H   0  0  0  0  0  0  0  0  0  0  0  0
    0.8166    1.9184   -3.6669 H   0  0  0  0  0  0  0  0  0  0  0  0
    0.5407    2.9956   -2.2684 H   0  0  0  0  0  0  0  0  0  0  0  0
    1.3772    0.3001   -2.2605 H   0  0  0  0  0  0  0  0  0  0  0  0
    4.8101    1.1972   -1.0176 H   0  0  0  0  0  0  0  0  0  0  0  0
    6.2317   -0.4361    0.1143 H   0  0  0  0  0  0  0  0  0  0  0  0
    5.4588   -2.7696    0.4584 H   0  0  0  0  0  0  0  0  0  0  0  0
    3.2109   -3.4542   -0.3424 H   0  0  0  0  0  0  0  0  0  0  0  0
    0.9558   -1.7081    0.4939 H   0  0  0  0  0  0  0  0  0  0  0  0
   -0.9859   -3.2536    0.2779 H   0  0  0  0  0  0  0  0  0  0  0  0
    0.4678   -4.0240   -0.3922 H   0  0  0  0  0  0  0  0  0  0  0  0
   -0.7417   -3.3438   -1.4752 H   0  0  0  0  0  0  0  0  0  0  0  0
   -1.3879   -1.0822    1.0760 H   0  0  0  0  0  0  0  0  0  0  0  0
   -1.9167    1.4400   -0.2702 H   0  0  0  0  0  0  0  0  0  0  0  0
   -4.3316    0.9370   -0.7457 H   0  0  0  0  0  0  0  0  0  0  0  0
   -3.2020    0.0403   -1.7713 H   0  0  0  0  0  0  0  0  0  0  0  0
   -4.0104   -0.7824   -0.4448 H   0  0  0  0  0  0  0  0  0  0  0  0
   -4.2820   -0.6859    1.8297 H   0  0  0  0  0  0  0  0  0  0  0  0
   -4.9006   -0.0561    4.1379 H   0  0  0  0  0  0  0  0  0  0  0  0
   -2.1018    3.1816    4.0545 H   0  0  0  0  0  0  0  0  0  0  0  0
   -1.4530    2.5900    1.7378 H   0  0  0  0  0  0  0  0  0  0  0  0
  1  2  1  0
  2  3  2  0
  2  4  1  0
  4  5  1  0
  5  6  2  0
  6  7  1  0
  7  8  2  0
  8  9  1  0
  9 10  2  0
 10 11  1  0
 11 12  1  0
 12 13  1  0
 12 14  1  0
 14 15  2  0
 14 16  1  0
 16 17  1  0
 17 18  1  0
 17 19  1  0
 19 20  2  0
 20 21  1  0
 21 22  2  0
 22 23  1  0
 22 24  1  0
 24 25  2  0
 10  5  1  0
 25 19  1  0
  1 26  1  0
  1 27  1  0
  1 28  1  0
  4 29  1  0
  6 30  1  0
  7 31  1  0
  8 32  1  0
  9 33  1  0
 12 34  1  0
 13 35  1  0
 13 36  1  0
 13 37  1  0
 16 38  1  0
 17 39  1  0
 18 40  1  0
 18 41  1  0
 18 42  1  0
 20 43  1  0
 21 44  1  0
 24 45  1  0
 25 46  1  0
M  END
$$$$
