
     RDKit          3D

 44 46  0  0  0  0  0  0  0  0999 V2000
    5.4804    2.4587   -0.6261 C   0  0  0  0  0  0  0  0  0  0  0  0
    4.2365    1.6381   -0.8312 C   0  0  0  0  0  0  0  0  0  0  0  0
    3.1684    1.7767    0.0678 C   0  0  0  0  0  0  0  0  0  0  0  0
    1.9996    1.0250   -0.0810 C   0  0  0  0  0  0  0  0  0  0  0  0
    1.8817    0.1158   -1.1351 C   0  0  0  0  0  0  0  0  0  0  0  0
    0.6572   -0.7180   -1.3422 C   0  0  0  0  0  0  0  0  0  0  0  0
    0.5445   -1.3629   -2.3843 O   0  0  0  0  0  0  0  0  0  0  0  0
   -0.4011   -0.7245   -0.2427 C   0  0  0  0  0  0  0  0  0  0  0  0
   -1.3654   -1.7561   -0.4599 O   0  0  0  0  0  0  0  0  0  0  0  0
   -2.6239   -1.2424   -0.6436 C   0  0  0  0  0  0  0  0  0  0  0  0
   -3.1135   -1.2728   -1.9530 C   0  0  0  0  0  0  0  0  0  0  0  0
   -4.3857   -0.7829   -2.2328 C   0  0  0  0  0  0  0  0  0  0  0  0
   -5.1720   -0.2774   -1.2024 C   0  0  0  0  0  0  0  0  0  0  0  0
   -4.6880   -0.2682    0.1105 C   0  0  0  0  0  0  0  0  0  0  0  0
   -3.4054   -0.7572    0.4252 C   0  0  0  0  0  0  0  0  0  0  0  0
   -2.9446   -0.7615    1.8291 C   0  0  0  0  0  0  0  0  0  0  0  0
   -2.4263   -1.9262    2.4210 C   0  0  0  0  0  0  0  0  0  0  0  0
   -1.9970   -1.9329    3.7509 C   0  0  0  0  0  0  0  0  0  0  0  0
   -2.0871   -0.7745    4.5185 C   0  0  0  0  0  0  0  0  0  0  0  0
   -2.5997    0.3915    3.9555 C   0  0  0  0  0  0  0  0  0  0  0  0
   -3.0227    0.3969    2.6225 C   0  0  0  0  0  0  0  0  0  0  0  0
    2.9468   -0.0280   -2.0353 C   0  0  0  0  0  0  0  0  0  0  0  0
    4.1299    0.7160   -1.8897 C   0  0  0  0  0  0  0  0  0  0  0  0
    5.2447    0.5228   -2.8821 C   0  0  0  0  0  0  0  0  0  0  0  0
    6.3083    1.8156   -0.3121 H   0  0  0  0  0  0  0  0  0  0  0  0
    5.7532    2.9832   -1.5467 H   0  0  0  0  0  0  0  0  0  0  0  0
    5.3332    3.2195    0.1475 H   0  0  0  0  0  0  0  0  0  0  0  0
    3.2391    2.4788    0.8973 H   0  0  0  0  0  0  0  0  0  0  0  0
    1.2015    1.1787    0.6397 H   0  0  0  0  0  0  0  0  0  0  0  0
    0.0885   -0.9483    0.7108 H   0  0  0  0  0  0  0  0  0  0  0  0
   -0.8498    0.2758   -0.1964 H   0  0  0  0  0  0  0  0  0  0  0  0
   -2.4940   -1.6767   -2.7504 H   0  0  0  0  0  0  0  0  0  0  0  0
   -4.7640   -0.8029   -3.2516 H   0  0  0  0  0  0  0  0  0  0  0  0
   -6.1698    0.0985   -1.4145 H   0  0  0  0  0  0  0  0  0  0  0  0
   -5.3372    0.1069    0.9004 H   0  0  0  0  0  0  0  0  0  0  0  0
   -2.3574   -2.8467    1.8419 H   0  0  0  0  0  0  0  0  0  0  0  0
   -1.6009   -2.8470    4.1858 H   0  0  0  0  0  0  0  0  0  0  0  0
   -1.7622   -0.7819    5.5562 H   0  0  0  0  0  0  0  0  0  0  0  0
   -2.6779    1.2958    4.5541 H   0  0  0  0  0  0  0  0  0  0  0  0
   -3.4155    1.3218    2.2036 H   0  0  0  0  0  0  0  0  0  0  0  0
    2.8555   -0.7360   -2.8589 H   0  0  0  0  0  0  0  0  0  0  0  0
    6.1846    0.3051   -2.3654 H   0  0  0  0  0  0  0  0  0  0  0  0
    5.0433   -0.3181   -3.5545 H   0  0  0  0  0  0  0  0  0  0  0  0
    5.3644    1.4215   -3.4955 H   0  0  0  0  0  0  0  0  0  0  0  0
  1  2  1  0
  2  3  2  0
  3  4  1  0
  4  5  2  0
  5  6  1  0
  6  7  2  0
  6  8  1  0
  8  9  1  0
  9 10  1  0
 10 11  2  0
 11 12  1  0
 12 13  2  0
 13 14  1  0
 14 15  2  0
 15 16  1  0
 16 17  2  0
 17 18  1  0
 18 19  2  0
 19 20  1  0
 20 21  2  0
  5 22  1  0
 22 23  2  0
 23 24  1  0
 23  2  1  0
 15 10  1  0
 21 16  1  0
  1 25  1  0
  1 26  1  0
  1 27  1  0
  3 28  1  0
  4 29  1  0
  8 30  1  0
  8 31  1  0
 11 32  1  0
 12 33  1  0
 13 34  1  0
 14 35  1  0
 17 36  1  0
 18 37  1  0
 19 38  1  0
 20 39  1  0
 21 40  1  0
 22 41  1  0
 24 42  1  0
 24 43  1  0
 24 44  1  0
M  END
$$$$
