
     RDKit          3D

 58 60  0  0  0  0  0  0  0  0999 V2000
   -1.1597   -4.0240   -0.5740 C   0  0  0  0  0  0  0  0  0  0  0  0
   -2.0241   -2.7927   -0.6657 C   0  0  0  0  0  0  0  0  0  0  0  0
   -3.3287   -2.9398   -1.1748 C   0  0  0  0  0  0  0  0  0  0  0  0
   -4.1774   -1.8430   -1.2925 C   0  0  0  0  0  0  0  0  0  0  0  0
   -3.7173   -0.5886   -0.9028 C   0  0  0  0  0  0  0  0  0  0  0  0
   -4.7784    0.8256   -1.0422 S   0  0  0  0  0  6  0  0  0  0  0  0
   -6.1275    0.3631   -1.2969 O   0  0  0  0  0  0  0  0  0  0  0  0
   -4.1271    1.7669   -1.9264 O   0  0  0  0  0  0  0  0  0  0  0  0
   -4.7671    1.4674    0.5342 N   0  0  0  0  0  0  0  0  0  0  0  0
   -5.4011    0.6188    1.5941 C   0  0  0  0  0  0  0  0  0  0  0  0
   -6.7566    1.1927    2.0168 C   0  0  0  0  0  0  0  0  0  0  0  0
   -6.6581    2.5094    2.5790 O   0  0  0  0  0  0  0  0  0  0  0  0
   -5.5731    3.2773    2.0367 C   0  0  0  0  0  0  0  0  0  0  0  0
   -5.2251    2.8923    0.5961 C   0  0  0  0  0  0  0  0  0  0  0  0
   -2.4233   -0.4174   -0.3971 C   0  0  0  0  0  0  0  0  0  0  0  0
   -1.5640   -1.5133   -0.2723 C   0  0  0  0  0  0  0  0  0  0  0  0
   -0.2469   -1.3893    0.2264 N   0  0  0  0  0  0  0  0  0  0  0  0
    0.3868   -0.2555    0.7082 C   0  0  0  0  0  0  0  0  0  0  0  0
   -0.1023    0.8652    0.8157 O   0  0  0  0  0  0  0  0  0  0  0  0
    1.8320   -0.5196    1.1485 C   0  0  0  0  0  0  0  0  0  0  0  0
    2.7448   -0.6658    0.0605 O   0  0  0  0  0  0  0  0  0  0  0  0
    2.7937   -1.9035   -0.5045 C   0  0  0  0  0  0  0  0  0  0  0  0
    2.0443   -2.8252   -0.1934 O   0  0  0  0  0  0  0  0  0  0  0  0
    3.8224   -1.9881   -1.6304 C   0  0  0  0  0  0  0  0  0  0  0  0
    4.6860   -0.8222   -1.7457 N   0  0  0  0  0  0  0  0  0  0  0  0
    5.8106   -0.7253   -0.9506 C   0  0  0  0  0  0  0  0  0  0  0  0
    6.1705   -1.6232   -0.1980 O   0  0  0  0  0  0  0  0  0  0  0  0
    6.5526    0.5647   -1.0039 C   0  0  0  0  0  0  0  0  0  0  0  0
    6.5252    1.3905   -2.1352 C   0  0  0  0  0  0  0  0  0  0  0  0
    7.2373    2.5925   -2.1395 C   0  0  0  0  0  0  0  0  0  0  0  0
    7.9813    2.9694   -1.0214 C   0  0  0  0  0  0  0  0  0  0  0  0
    8.0237    2.1434    0.1012 C   0  0  0  0  0  0  0  0  0  0  0  0
    7.3150    0.9409    0.1093 C   0  0  0  0  0  0  0  0  0  0  0  0
   -0.3159   -3.9443   -1.2666 H   0  0  0  0  0  0  0  0  0  0  0  0
   -1.7179   -4.9294   -0.8362 H   0  0  0  0  0  0  0  0  0  0  0  0
   -0.7909   -4.1592    0.4480 H   0  0  0  0  0  0  0  0  0  0  0  0
   -3.6911   -3.9180   -1.4863 H   0  0  0  0  0  0  0  0  0  0  0  0
   -5.1807   -1.9737   -1.6911 H   0  0  0  0  0  0  0  0  0  0  0  0
   -4.7135    0.6030    2.4482 H   0  0  0  0  0  0  0  0  0  0  0  0
   -5.5227   -0.4162    1.2608 H   0  0  0  0  0  0  0  0  0  0  0  0
   -7.2186    0.5501    2.7730 H   0  0  0  0  0  0  0  0  0  0  0  0
   -7.4439    1.2407    1.1644 H   0  0  0  0  0  0  0  0  0  0  0  0
   -5.8616    4.3319    2.0876 H   0  0  0  0  0  0  0  0  0  0  0  0
   -4.7060    3.1422    2.6938 H   0  0  0  0  0  0  0  0  0  0  0  0
   -6.1095    3.0243   -0.0383 H   0  0  0  0  0  0  0  0  0  0  0  0
   -4.4204    3.5371    0.2285 H   0  0  0  0  0  0  0  0  0  0  0  0
   -2.1143    0.5863   -0.1210 H   0  0  0  0  0  0  0  0  0  0  0  0
    0.3259   -2.2330    0.2100 H   0  0  0  0  0  0  0  0  0  0  0  0
    2.1660    0.3423    1.7369 H   0  0  0  0  0  0  0  0  0  0  0  0
    1.8682   -1.3839    1.8233 H   0  0  0  0  0  0  0  0  0  0  0  0
    3.2792   -2.0721   -2.5762 H   0  0  0  0  0  0  0  0  0  0  0  0
    4.4349   -2.8810   -1.4727 H   0  0  0  0  0  0  0  0  0  0  0  0
    4.2612    0.0385   -2.0668 H   0  0  0  0  0  0  0  0  0  0  0  0
    5.9795    1.1030   -3.0287 H   0  0  0  0  0  0  0  0  0  0  0  0
    7.2198    3.2323   -3.0185 H   0  0  0  0  0  0  0  0  0  0  0  0
    8.5365    3.9044   -1.0280 H   0  0  0  0  0  0  0  0  0  0  0  0
    8.6109    2.4332    0.9692 H   0  0  0  0  0  0  0  0  0  0  0  0
    7.3565    0.2980    0.9868 H   0  0  0  0  0  0  0  0  0  0  0  0
  1  2  1  0
  2  3  2  0
  3  4  1  0
  4  5  2  0
  5  6  1  0
  6  7  2  0
  6  8  2  0
  6  9  1  0
  9 10  1  0
 10 11  1  0
 11 12  1  0
 12 13  1  0
 13 14  1  0
  5 15  1  0
 15 16  2  0
 16 17  1  0
 17 18  1  0
 18 19  2  0
 18 20  1  0
 20 21  1  0
 21 22  1  0
 22 23  2  0
 22 24  1  0
 24 25  1  0
 25 26  1  0
 26 27  2  0
 26 28  1  0
 28 29  2  0
 29 30  1  0
 30 31  2  0
 31 32  1  0
 32 33  2  0
 16  2  1  0
 33 28  1  0
 14  9  1  0
  1 34  1  0
  1 35  1  0
  1 36  1  0
  3 37  1  0
  4 38  1  0
 10 39  1  0
 10 40  1  0
 11 41  1  0
 11 42  1  0
 13 43  1  0
 13 44  1  0
 14 45  1  0
 14 46  1  0
 15 47  1  0
 17 48  1  0
 20 49  1  0
 20 50  1  0
 24 51  1  0
 24 52  1  0
 25 53  1  0
 29 54  1  0
 30 55  1  0
 31 56  1  0
 32 57  1  0
 33 58  1  0
M  END
$$$$
