
     RDKit          3D

 34 36  0  0  0  0  0  0  0  0999 V2000
    0.2433   -1.2546   -1.9470 O   0  0  0  0  0  0  0  0  0  0  0  0
    0.4876   -0.6986   -0.8848 C   0  0  0  0  0  0  0  0  0  0  0  0
    1.8643   -0.7521   -0.3537 C   0  0  0  0  0  0  0  0  0  0  0  0
    2.4573   -2.0019   -0.1478 C   0  0  0  0  0  0  0  0  0  0  0  0
    3.7642   -2.0751    0.3388 C   0  0  0  0  0  0  0  0  0  0  0  0
    4.4728   -0.9015    0.6004 C   0  0  0  0  0  0  0  0  0  0  0  0
    6.0821   -0.9929    1.2013 Cl  0  0  0  0  0  0  0  0  0  0  0  0
    3.8906    0.3465    0.3714 C   0  0  0  0  0  0  0  0  0  0  0  0
    2.5836    0.4242   -0.1147 C   0  0  0  0  0  0  0  0  0  0  0  0
   -0.4742   -0.0457   -0.1581 N   0  0  0  0  0  0  0  0  0  0  0  0
   -0.3805    0.4858    1.2094 C   0  0  0  0  0  0  0  0  0  0  0  0
   -0.5311    1.9807    1.0730 C   0  0  0  0  0  0  0  0  0  0  0  0
   -1.8097    2.2363    0.7458 C   0  0  0  0  0  0  0  0  0  0  0  0
   -2.4946    0.8871    0.5921 C   0  0  0  0  0  0  0  0  0  0  0  0
   -1.7746    0.1855    1.7615 C   0  0  0  0  0  0  0  0  0  0  0  0
   -1.9039    0.1234   -0.6553 C   0  0  0  0  0  0  0  0  0  0  0  0
   -2.6899   -1.1662   -0.9029 C   0  0  0  0  0  0  0  0  0  0  0  0
   -2.5431   -2.0478    0.1180 F   0  0  0  0  0  0  0  0  0  0  0  0
   -4.0204   -0.9081   -0.9788 F   0  0  0  0  0  0  0  0  0  0  0  0
   -2.3581   -1.8277   -2.0257 F   0  0  0  0  0  0  0  0  0  0  0  0
   -2.0770    0.9281   -1.9431 C   0  0  0  0  0  0  0  0  0  0  0  0
   -1.3341    2.0638   -1.9430 F   0  0  0  0  0  0  0  0  0  0  0  0
   -3.3672    1.3230   -2.0914 F   0  0  0  0  0  0  0  0  0  0  0  0
   -1.7420    0.2621   -3.0647 F   0  0  0  0  0  0  0  0  0  0  0  0
    1.9065   -2.9133   -0.3710 H   0  0  0  0  0  0  0  0  0  0  0  0
    4.2254   -3.0458    0.5024 H   0  0  0  0  0  0  0  0  0  0  0  0
    4.4535    1.2577    0.5575 H   0  0  0  0  0  0  0  0  0  0  0  0
    2.1419    1.3949   -0.3242 H   0  0  0  0  0  0  0  0  0  0  0  0
    0.4552    0.1331    1.8128 H   0  0  0  0  0  0  0  0  0  0  0  0
    0.2546    2.7081    1.2108 H   0  0  0  0  0  0  0  0  0  0  0  0
   -2.2472    3.2041    0.5460 H   0  0  0  0  0  0  0  0  0  0  0  0
   -3.5818    0.9220    0.6792 H   0  0  0  0  0  0  0  0  0  0  0  0
   -1.9696    0.6476    2.7389 H   0  0  0  0  0  0  0  0  0  0  0  0
   -1.9835   -0.8826    1.8470 H   0  0  0  0  0  0  0  0  0  0  0  0
  1  2  2  0
  2  3  1  0
  3  4  2  0
  4  5  1  0
  5  6  2  0
  6  7  1  0
  6  8  1  0
  8  9  2  0
  2 10  1  0
 10 11  1  0
 11 12  1  0
 12 13  2  0
 13 14  1  0
 14 15  1  0
 14 16  1  0
 16 17  1  0
 17 18  1  0
 17 19  1  0
 17 20  1  0
 16 21  1  0
 21 22  1  0
 21 23  1  0
 21 24  1  0
  9  3  1  0
 16 10  1  0
 15 11  1  0
  4 25  1  0
  5 26  1  0
  8 27  1  0
  9 28  1  0
 11 29  1  0
 12 30  1  0
 13 31  1  0
 14 32  1  0
 15 33  1  0
 15 34  1  0
M  END
$$$$
