
     RDKit          3D

 44 44  0  0  0  0  0  0  0  0999 V2000
   -4.0395   -0.1005   -2.4202 C   0  0  0  0  0  0  0  0  0  0  0  0
   -4.3599   -0.7890   -1.1000 C   0  0  0  0  0  0  0  0  0  0  0  0
   -3.9918    0.0424    0.0553 N   0  0  0  0  0  0  0  0  0  0  0  0
   -5.0986    0.6392    0.8138 C   0  0  0  0  0  0  0  0  0  0  0  0
   -5.5428    1.9613    0.2070 C   0  0  0  0  0  0  0  0  0  0  0  0
   -2.6629    0.2567    0.4138 C   0  0  0  0  0  0  0  0  0  0  0  0
   -2.2817    1.2717    1.3073 C   0  0  0  0  0  0  0  0  0  0  0  0
   -0.9451    1.4956    1.6620 C   0  0  0  0  0  0  0  0  0  0  0  0
    0.0646    0.6959    1.1386 C   0  0  0  0  0  0  0  0  0  0  0  0
   -0.2678   -0.3324    0.2669 C   0  0  0  0  0  0  0  0  0  0  0  0
    0.6194   -1.1904   -0.3254 O   0  0  0  0  0  0  0  0  0  0  0  0
    1.8530   -1.4100    0.3440 C   0  0  0  0  0  0  0  0  0  0  0  0
    3.0026   -0.4690   -0.0549 C   0  0  0  0  0  0  0  0  0  0  0  0
    2.8471    0.4410   -0.8714 O   0  0  0  0  0  0  0  0  0  0  0  0
    4.2447   -0.6786    0.5513 N   0  0  0  0  0  0  0  0  0  0  0  0
    4.5875   -1.8547    1.3405 C   0  0  0  0  0  0  0  0  0  0  0  0
    5.3545    0.1909    0.1422 C   0  0  0  0  0  0  0  0  0  0  0  0
    5.9580   -0.2055   -1.2054 C   0  0  0  0  0  0  0  0  0  0  0  0
    7.1238    0.6311   -1.5069 C   0  0  0  0  0  0  0  0  0  0  0  0
    8.0596    1.2809   -1.7271 N   0  0  0  0  0  0  0  0  0  0  0  0
   -1.6107   -0.5279   -0.0942 C   0  0  0  0  0  0  0  0  0  0  0  0
   -4.5480    0.8653   -2.4978 H   0  0  0  0  0  0  0  0  0  0  0  0
   -4.3691   -0.7237   -3.2577 H   0  0  0  0  0  0  0  0  0  0  0  0
   -2.9673    0.0795   -2.5403 H   0  0  0  0  0  0  0  0  0  0  0  0
   -3.8843   -1.7745   -1.0469 H   0  0  0  0  0  0  0  0  0  0  0  0
   -5.4374   -0.9957   -1.0856 H   0  0  0  0  0  0  0  0  0  0  0  0
   -5.9539   -0.0482    0.8224 H   0  0  0  0  0  0  0  0  0  0  0  0
   -4.8415    0.7690    1.8715 H   0  0  0  0  0  0  0  0  0  0  0  0
   -5.9443    1.8167   -0.8008 H   0  0  0  0  0  0  0  0  0  0  0  0
   -4.7168    2.6755    0.1381 H   0  0  0  0  0  0  0  0  0  0  0  0
   -6.3318    2.4102    0.8185 H   0  0  0  0  0  0  0  0  0  0  0  0
   -3.0181    1.9453    1.7341 H   0  0  0  0  0  0  0  0  0  0  0  0
   -0.6973    2.3105    2.3372 H   0  0  0  0  0  0  0  0  0  0  0  0
    1.0911    0.9182    1.4055 H   0  0  0  0  0  0  0  0  0  0  0  0
    2.1620   -2.4228    0.0608 H   0  0  0  0  0  0  0  0  0  0  0  0
    1.7203   -1.4033    1.4327 H   0  0  0  0  0  0  0  0  0  0  0  0
    5.2234   -1.5511    2.1772 H   0  0  0  0  0  0  0  0  0  0  0  0
    5.1320   -2.5558    0.7016 H   0  0  0  0  0  0  0  0  0  0  0  0
    3.7079   -2.3569    1.7439 H   0  0  0  0  0  0  0  0  0  0  0  0
    6.1132    0.1775    0.9345 H   0  0  0  0  0  0  0  0  0  0  0  0
    4.9833    1.2228    0.0886 H   0  0  0  0  0  0  0  0  0  0  0  0
    6.2598   -1.2590   -1.1838 H   0  0  0  0  0  0  0  0  0  0  0  0
    5.2142   -0.1094   -2.0038 H   0  0  0  0  0  0  0  0  0  0  0  0
   -1.8116   -1.3388   -0.7871 H   0  0  0  0  0  0  0  0  0  0  0  0
  1  2  1  0
  2  3  1  0
  3  4  1  0
  4  5  1  0
  3  6  1  0
  6  7  2  0
  7  8  1  0
  8  9  2  0
  9 10  1  0
 10 11  1  0
 11 12  1  0
 12 13  1  0
 13 14  2  0
 13 15  1  0
 15 16  1  0
 15 17  1  0
 17 18  1  0
 18 19  1  0
 19 20  3  0
 10 21  2  0
 21  6  1  0
  1 22  1  0
  1 23  1  0
  1 24  1  0
  2 25  1  0
  2 26  1  0
  4 27  1  0
  4 28  1  0
  5 29  1  0
  5 30  1  0
  5 31  1  0
  7 32  1  0
  8 33  1  0
  9 34  1  0
 12 35  1  0
 12 36  1  0
 16 37  1  0
 16 38  1  0
 16 39  1  0
 17 40  1  0
 17 41  1  0
 18 42  1  0
 18 43  1  0
 21 44  1  0
M  END
$$$$
