
     RDKit          3D

 23 23  0  0  0  0  0  0  0  0999 V2000
   -2.1766    1.0634   -0.1697 C   0  0  0  0  0  0  0  0  0  0  0  0
   -1.4877   -0.2376    0.1618 C   0  0  0  0  0  0  0  0  0  0  0  0
   -0.0200   -0.2549    0.1543 C   0  0  0  0  0  0  0  0  0  0  0  0
    0.7823    0.7433   -0.2515 C   0  0  0  0  0  0  0  0  0  0  0  0
    2.2040    0.6538   -0.2350 C   0  0  0  0  0  0  0  0  0  0  0  0
    3.0682   -0.3591    0.1724 C   0  0  0  0  0  0  0  0  0  0  0  0
    4.3970    0.0855   -0.0304 C   0  0  0  0  0  0  0  0  0  0  0  0
    4.2914    1.3479   -0.5513 C   0  0  0  0  0  0  0  0  0  0  0  0
    2.9901    1.6983   -0.6777 O   0  0  0  0  0  0  0  0  0  0  0  0
   -2.1362   -1.3719    0.4980 C   0  0  0  0  0  0  0  0  0  0  0  0
   -3.5857   -1.6124    0.5361 C   0  0  0  0  0  0  0  0  0  0  0  0
   -4.1328   -2.3835    1.3039 O   0  0  0  0  0  0  0  0  0  0  0  0
   -4.2664   -0.9800   -0.4289 O   0  0  0  0  0  0  0  0  0  0  0  0
   -1.7163    1.8977    0.3719 H   0  0  0  0  0  0  0  0  0  0  0  0
   -3.2289    1.0815    0.1243 H   0  0  0  0  0  0  0  0  0  0  0  0
   -2.1167    1.2666   -1.2440 H   0  0  0  0  0  0  0  0  0  0  0  0
    0.4329   -1.1817    0.5036 H   0  0  0  0  0  0  0  0  0  0  0  0
    0.3782    1.6785   -0.6253 H   0  0  0  0  0  0  0  0  0  0  0  0
    2.7736   -1.3182    0.5745 H   0  0  0  0  0  0  0  0  0  0  0  0
    5.3131   -0.4484    0.1780 H   0  0  0  0  0  0  0  0  0  0  0  0
    5.0088    2.0915   -0.8689 H   0  0  0  0  0  0  0  0  0  0  0  0
   -1.5821   -2.2554    0.8035 H   0  0  0  0  0  0  0  0  0  0  0  0
   -5.1902   -1.2781   -0.2995 H   0  0  0  0  0  0  0  0  0  0  0  0
  1  2  1  0
  2  3  1  0
  3  4  2  3
  4  5  1  0
  5  6  2  0
  6  7  1  0
  7  8  2  0
  8  9  1  0
  2 10  2  3
 10 11  1  0
 11 12  2  0
 11 13  1  0
  9  5  1  0
  1 14  1  0
  1 15  1  0
  1 16  1  0
  3 17  1  0
  4 18  1  0
  6 19  1  0
  7 20  1  0
  8 21  1  0
 10 22  1  0
 13 23  1  0
M  END
$$$$
