
     RDKit          3D

 43 46  0  0  0  0  0  0  0  0999 V2000
   -7.6800   -0.3339    1.9598 C   0  0  0  0  0  0  0  0  0  0  0  0
   -7.2431   -0.9655    0.7629 O   0  0  0  0  0  0  0  0  0  0  0  0
   -5.9777   -0.6712    0.3364 C   0  0  0  0  0  0  0  0  0  0  0  0
   -5.5870   -1.3310   -0.8313 C   0  0  0  0  0  0  0  0  0  0  0  0
   -4.3179   -1.1228   -1.3804 C   0  0  0  0  0  0  0  0  0  0  0  0
   -3.4234   -0.2377   -0.7703 C   0  0  0  0  0  0  0  0  0  0  0  0
   -2.0918   -0.0007   -1.3097 C   0  0  0  0  0  0  0  0  0  0  0  0
   -0.9919   -0.0060   -0.4639 N   0  0  0  0  0  0  0  0  0  0  0  0
    0.1025    0.2140   -1.1505 C   0  0  0  0  0  0  0  0  0  0  0  0
    1.3242    0.2366   -0.5399 N   0  0  0  0  0  0  0  0  0  0  0  0
    2.5559    0.4516   -1.1167 C   0  0  0  0  0  0  0  0  0  0  0  0
    2.7877    0.6670   -2.3010 O   0  0  0  0  0  0  0  0  0  0  0  0
    3.6286    0.3920   -0.0965 C   0  0  0  0  0  0  0  0  0  0  0  0
    3.3461    0.1539    1.2342 N   0  0  0  0  0  0  0  0  0  0  0  0
    4.5239    0.1735    1.8159 C   0  0  0  0  0  0  0  0  0  0  0  0
    4.8324   -0.0063    3.1337 N   0  0  0  0  0  0  0  0  0  0  0  0
    6.0925    0.0649    3.4322 C   0  0  0  0  0  0  0  0  0  0  0  0
    7.2129    0.3209    2.4852 C   0  0  0  0  0  0  0  0  0  0  0  0
    6.8663    0.4930    1.1971 C   0  0  0  0  0  0  0  0  0  0  0  0
    7.8607    0.7595    0.1107 C   0  0  0  0  0  0  0  0  0  0  0  0
    5.5105    0.4202    0.8506 N   0  0  0  0  0  0  0  0  0  0  0  0
    4.9328    0.5590   -0.3636 N   0  0  0  0  0  0  0  0  0  0  0  0
   -0.1087    0.4670   -2.8173 S   0  0  0  0  0  0  0  0  0  0  0  0
   -1.8079    0.2814   -2.6369 C   0  0  0  0  0  0  0  0  0  0  0  0
   -2.6998    0.4395   -3.8181 C   0  0  0  0  0  0  0  0  0  0  0  0
   -3.8116    0.4093    0.4094 C   0  0  0  0  0  0  0  0  0  0  0  0
   -5.0828    0.1989    0.9581 C   0  0  0  0  0  0  0  0  0  0  0  0
   -7.7105    0.7545    1.8433 H   0  0  0  0  0  0  0  0  0  0  0  0
   -8.6993   -0.6751    2.1647 H   0  0  0  0  0  0  0  0  0  0  0  0
   -7.0546   -0.6240    2.8105 H   0  0  0  0  0  0  0  0  0  0  0  0
   -6.2749   -2.0213   -1.3137 H   0  0  0  0  0  0  0  0  0  0  0  0
   -4.0366   -1.6728   -2.2743 H   0  0  0  0  0  0  0  0  0  0  0  0
    1.3028    0.0687    0.4607 H   0  0  0  0  0  0  0  0  0  0  0  0
    6.3960   -0.0735    4.4839 H   0  0  0  0  0  0  0  0  0  0  0  0
    8.2252    0.3561    2.8638 H   0  0  0  0  0  0  0  0  0  0  0  0
    7.6574    1.7215   -0.3715 H   0  0  0  0  0  0  0  0  0  0  0  0
    7.8223   -0.0277   -0.6497 H   0  0  0  0  0  0  0  0  0  0  0  0
    8.8845    0.7943    0.4987 H   0  0  0  0  0  0  0  0  0  0  0  0
   -2.9132   -0.5362   -4.2663 H   0  0  0  0  0  0  0  0  0  0  0  0
   -3.6487    0.9054   -3.5336 H   0  0  0  0  0  0  0  0  0  0  0  0
   -2.2483    1.0744   -4.5879 H   0  0  0  0  0  0  0  0  0  0  0  0
   -3.1201    1.0845    0.9104 H   0  0  0  0  0  0  0  0  0  0  0  0
   -5.3355    0.7272    1.8710 H   0  0  0  0  0  0  0  0  0  0  0  0
  1  2  1  0
  2  3  1  0
  3  4  2  0
  4  5  1  0
  5  6  2  0
  6  7  1  0
  7  8  1  0
  8  9  2  0
  9 10  1  0
 10 11  1  0
 11 12  2  0
 11 13  1  0
 13 14  1  0
 14 15  2  0
 15 16  1  0
 16 17  2  0
 17 18  1  0
 18 19  2  0
 19 20  1  0
 19 21  1  0
 21 22  1  0
  9 23  1  0
 23 24  1  0
 24 25  1  0
  6 26  1  0
 26 27  2  0
 27  3  1  0
 24  7  2  0
 22 13  2  0
 21 15  1  0
  1 28  1  0
  1 29  1  0
  1 30  1  0
  4 31  1  0
  5 32  1  0
 10 33  1  0
 17 34  1  0
 18 35  1  0
 20 36  1  0
 20 37  1  0
 20 38  1  0
 25 39  1  0
 25 40  1  0
 25 41  1  0
 26 42  1  0
 27 43  1  0
M  END
$$$$
