
     RDKit          3D

 54 57  0  0  0  0  0  0  0  0999 V2000
    6.8792    1.9459    2.1453 C   0  0  0  0  0  0  0  0  0  0  0  0
    6.9579    0.4452    1.8547 C   0  0  0  0  0  0  0  0  0  0  0  0
    8.2940    0.0857    1.2001 C   0  0  0  0  0  0  0  0  0  0  0  0
    5.7819   -0.0231    1.0169 C   0  0  0  0  0  0  0  0  0  0  0  0
    5.5584    0.4627   -0.2785 C   0  0  0  0  0  0  0  0  0  0  0  0
    4.4678    0.0198   -1.0374 C   0  0  0  0  0  0  0  0  0  0  0  0
    3.5778   -0.9169   -0.5159 C   0  0  0  0  0  0  0  0  0  0  0  0
    2.4582   -1.4155   -1.2089 N   0  0  0  0  0  0  0  0  0  0  0  0
    2.0019   -1.0532   -2.4639 C   0  0  0  0  0  0  0  0  0  0  0  0
    2.5007   -0.2155   -3.2103 O   0  0  0  0  0  0  0  0  0  0  0  0
    0.7523   -1.8340   -2.8908 C   0  0  0  0  0  0  0  0  0  0  0  0
   -0.4521   -1.4006   -2.2544 O   0  0  0  0  0  0  0  0  0  0  0  0
   -0.6461   -1.8622   -0.9979 C   0  0  0  0  0  0  0  0  0  0  0  0
    0.1271   -2.5799   -0.3813 O   0  0  0  0  0  0  0  0  0  0  0  0
   -1.9330   -1.3635   -0.4423 C   0  0  0  0  0  0  0  0  0  0  0  0
   -2.2776   -1.7288    0.8642 C   0  0  0  0  0  0  0  0  0  0  0  0
   -3.4778   -1.2830    1.4313 C   0  0  0  0  0  0  0  0  0  0  0  0
   -4.3579   -0.4647    0.7054 C   0  0  0  0  0  0  0  0  0  0  0  0
   -4.0054   -0.1126   -0.5894 C   0  0  0  0  0  0  0  0  0  0  0  0
   -2.8042   -0.5493   -1.1727 C   0  0  0  0  0  0  0  0  0  0  0  0
   -5.0626    0.8951   -1.5516 S   0  0  0  0  0  6  0  0  0  0  0  0
   -4.3267    2.1150   -1.8143 O   0  0  0  0  0  0  0  0  0  0  0  0
   -5.5561    0.0518   -2.6214 O   0  0  0  0  0  0  0  0  0  0  0  0
   -6.4491    1.3457   -0.5892 C   0  0  0  0  0  0  0  0  0  0  0  0
   -7.4036    2.1953   -1.1656 C   0  0  0  0  0  0  0  0  0  0  0  0
   -8.5231    2.5750   -0.4295 C   0  0  0  0  0  0  0  0  0  0  0  0
   -8.6847    2.1076    0.8724 C   0  0  0  0  0  0  0  0  0  0  0  0
   -7.7259    1.2613    1.4371 C   0  0  0  0  0  0  0  0  0  0  0  0
   -6.5913    0.8709    0.7071 C   0  0  0  0  0  0  0  0  0  0  0  0
   -5.6110   -0.0254    1.3637 C   0  0  0  0  0  0  0  0  0  0  0  0
   -5.8416   -0.4199    2.5037 O   0  0  0  0  0  0  0  0  0  0  0  0
    3.7965   -1.4070    0.7761 C   0  0  0  0  0  0  0  0  0  0  0  0
    4.8855   -0.9656    1.5349 C   0  0  0  0  0  0  0  0  0  0  0  0
    5.9284    2.2022    2.6257 H   0  0  0  0  0  0  0  0  0  0  0  0
    7.6877    2.2503    2.8187 H   0  0  0  0  0  0  0  0  0  0  0  0
    6.9639    2.5453    1.2324 H   0  0  0  0  0  0  0  0  0  0  0  0
    6.9244   -0.0723    2.8227 H   0  0  0  0  0  0  0  0  0  0  0  0
    8.4379    0.6082    0.2482 H   0  0  0  0  0  0  0  0  0  0  0  0
    8.3564   -0.9902    1.0031 H   0  0  0  0  0  0  0  0  0  0  0  0
    9.1287    0.3552    1.8563 H   0  0  0  0  0  0  0  0  0  0  0  0
    6.2319    1.1951   -0.7182 H   0  0  0  0  0  0  0  0  0  0  0  0
    4.3462    0.4292   -2.0351 H   0  0  0  0  0  0  0  0  0  0  0  0
    1.8815   -2.0864   -0.6993 H   0  0  0  0  0  0  0  0  0  0  0  0
    0.6185   -1.6883   -3.9686 H   0  0  0  0  0  0  0  0  0  0  0  0
    0.9133   -2.9095   -2.7447 H   0  0  0  0  0  0  0  0  0  0  0  0
   -1.6155   -2.3623    1.4535 H   0  0  0  0  0  0  0  0  0  0  0  0
   -3.7190   -1.5826    2.4516 H   0  0  0  0  0  0  0  0  0  0  0  0
   -2.5645   -0.2472   -2.1917 H   0  0  0  0  0  0  0  0  0  0  0  0
   -7.2767    2.5603   -2.1837 H   0  0  0  0  0  0  0  0  0  0  0  0
   -9.2688    3.2339   -0.8691 H   0  0  0  0  0  0  0  0  0  0  0  0
   -9.5575    2.4007    1.4522 H   0  0  0  0  0  0  0  0  0  0  0  0
   -7.8732    0.9085    2.4576 H   0  0  0  0  0  0  0  0  0  0  0  0
    3.1216   -2.1392    1.2129 H   0  0  0  0  0  0  0  0  0  0  0  0
    5.0253   -1.3670    2.5361 H   0  0  0  0  0  0  0  0  0  0  0  0
  1  2  1  0
  2  3  1  0
  2  4  1  0
  4  5  2  0
  5  6  1  0
  6  7  2  0
  7  8  1  0
  8  9  1  0
  9 10  2  0
  9 11  1  0
 11 12  1  0
 12 13  1  0
 13 14  2  0
 13 15  1  0
 15 16  2  0
 16 17  1  0
 17 18  2  0
 18 19  1  0
 19 20  2  0
 19 21  1  0
 21 22  2  0
 21 23  2  0
 21 24  1  0
 24 25  2  0
 25 26  1  0
 26 27  2  0
 27 28  1  0
 28 29  2  0
 29 30  1  0
 30 31  2  0
  7 32  1  0
 32 33  2  0
 33  4  1  0
 20 15  1  0
 29 24  1  0
 30 18  1  0
  1 34  1  0
  1 35  1  0
  1 36  1  0
  2 37  1  0
  3 38  1  0
  3 39  1  0
  3 40  1  0
  5 41  1  0
  6 42  1  0
  8 43  1  0
 11 44  1  0
 11 45  1  0
 16 46  1  0
 17 47  1  0
 20 48  1  0
 25 49  1  0
 26 50  1  0
 27 51  1  0
 28 52  1  0
 32 53  1  0
 33 54  1  0
M  END
$$$$
