
     RDKit          3D

 42 44  0  0  0  0  0  0  0  0999 V2000
    3.4699    1.8462   -0.3807 O   0  0  0  0  0  0  0  0  0  0  0  0
    2.3838    1.3565   -0.0846 C   0  0  0  0  0  0  0  0  0  0  0  0
    2.1695    0.0560    0.3258 N   0  0  0  0  0  0  0  0  0  0  0  0
    3.1178   -0.9909    0.4449 C   0  0  0  0  0  0  0  0  0  0  0  0
    4.4909   -0.8019    0.2575 C   0  0  0  0  0  0  0  0  0  0  0  0
    5.3876   -1.8681    0.3953 C   0  0  0  0  0  0  0  0  0  0  0  0
    4.9255   -3.1402    0.7203 C   0  0  0  0  0  0  0  0  0  0  0  0
    3.5617   -3.3507    0.9045 C   0  0  0  0  0  0  0  0  0  0  0  0
    2.6650   -2.2856    0.7666 C   0  0  0  0  0  0  0  0  0  0  0  0
    0.9789   -2.6324    0.9622 Cl  0  0  0  0  0  0  0  0  0  0  0  0
    1.1790    2.2440   -0.1677 C   0  0  0  0  0  0  0  0  0  0  0  0
    1.3993    3.6199    0.0213 C   0  0  0  0  0  0  0  0  0  0  0  0
    0.3506    4.5339   -0.0815 C   0  0  0  0  0  0  0  0  0  0  0  0
   -0.9283    4.0873   -0.3961 C   0  0  0  0  0  0  0  0  0  0  0  0
   -1.1639    2.7263   -0.5991 C   0  0  0  0  0  0  0  0  0  0  0  0
   -0.1211    1.7943   -0.4662 C   0  0  0  0  0  0  0  0  0  0  0  0
   -0.3092    0.4422   -0.6772 O   0  0  0  0  0  0  0  0  0  0  0  0
   -1.5547   -0.0973   -0.4658 C   0  0  0  0  0  0  0  0  0  0  0  0
   -2.1716   -0.6579   -1.5882 C   0  0  0  0  0  0  0  0  0  0  0  0
   -3.4327   -1.2527   -1.4807 C   0  0  0  0  0  0  0  0  0  0  0  0
   -4.0931   -1.3184   -0.2432 C   0  0  0  0  0  0  0  0  0  0  0  0
   -5.4670   -1.9408   -0.1345 C   0  0  0  0  0  0  0  0  0  0  0  0
   -5.6781   -2.5451    1.0663 F   0  0  0  0  0  0  0  0  0  0  0  0
   -6.4573   -1.0192   -0.2742 F   0  0  0  0  0  0  0  0  0  0  0  0
   -5.6985   -2.8921   -1.0795 F   0  0  0  0  0  0  0  0  0  0  0  0
   -3.4665   -0.7710    0.8889 C   0  0  0  0  0  0  0  0  0  0  0  0
   -2.1970   -0.1795    0.7751 C   0  0  0  0  0  0  0  0  0  0  0  0
   -1.5713    0.3328    1.9870 N   0  0  0  0  0  4  0  0  0  0  0  0
   -2.3091    0.9030    2.8022 O   0  0  0  0  0  0  0  0  0  0  0  0
   -0.3549    0.1536    2.1301 O   0  0  0  0  0  1  0  0  0  0  0  0
    1.2197   -0.1987    0.5869 H   0  0  0  0  0  0  0  0  0  0  0  0
    4.9042    0.1712    0.0116 H   0  0  0  0  0  0  0  0  0  0  0  0
    6.4515   -1.6957    0.2484 H   0  0  0  0  0  0  0  0  0  0  0  0
    5.6260   -3.9645    0.8264 H   0  0  0  0  0  0  0  0  0  0  0  0
    3.2013   -4.3459    1.1510 H   0  0  0  0  0  0  0  0  0  0  0  0
    2.4004    3.9853    0.2474 H   0  0  0  0  0  0  0  0  0  0  0  0
    0.5387    5.5941    0.0706 H   0  0  0  0  0  0  0  0  0  0  0  0
   -1.7426    4.8019   -0.4945 H   0  0  0  0  0  0  0  0  0  0  0  0
   -2.1686    2.4205   -0.8776 H   0  0  0  0  0  0  0  0  0  0  0  0
   -1.6710   -0.6270   -2.5548 H   0  0  0  0  0  0  0  0  0  0  0  0
   -3.8984   -1.6730   -2.3728 H   0  0  0  0  0  0  0  0  0  0  0  0
   -3.9665   -0.8206    1.8574 H   0  0  0  0  0  0  0  0  0  0  0  0
  1  2  2  0
  2  3  1  0
  3  4  1  0
  4  5  2  0
  5  6  1  0
  6  7  2  0
  7  8  1  0
  8  9  2  0
  9 10  1  0
  2 11  1  0
 11 12  2  0
 12 13  1  0
 13 14  2  0
 14 15  1  0
 15 16  2  0
 16 17  1  0
 17 18  1  0
 18 19  2  0
 19 20  1  0
 20 21  2  0
 21 22  1  0
 22 23  1  0
 22 24  1  0
 22 25  1  0
 21 26  1  0
 26 27  2  0
 27 28  1  0
 28 29  2  0
 28 30  1  0
  9  4  1  0
 16 11  1  0
 27 18  1  0
  3 31  1  0
  5 32  1  0
  6 33  1  0
  7 34  1  0
  8 35  1  0
 12 36  1  0
 13 37  1  0
 14 38  1  0
 15 39  1  0
 19 40  1  0
 20 41  1  0
 26 42  1  0
M  CHG  2  28   1  30  -1
M  END
$$$$
