
     RDKit          3D

 34 35  0  0  0  0  0  0  0  0999 V2000
   -4.2085   -0.0109   -1.0379 O   0  0  0  0  0  0  0  0  0  0  0  0
   -3.3811    0.1478   -0.1346 C   0  0  0  0  0  0  0  0  0  0  0  0
   -3.6527    1.0676    1.0636 C   0  0  0  0  0  0  0  0  0  0  0  0
   -4.5247    0.1439    2.3063 Cl  0  0  0  0  0  0  0  0  0  0  0  0
   -4.6026    2.4843    0.5587 Cl  0  0  0  0  0  0  0  0  0  0  0  0
   -2.1562   -0.5198   -0.1748 N   0  0  0  0  0  0  0  0  0  0  0  0
   -1.8252   -1.3305   -1.3529 C   0  0  0  0  0  0  0  0  0  0  0  0
   -0.3104   -1.3213   -1.6310 C   0  0  0  0  0  0  0  0  0  0  0  0
    0.4915   -1.8295   -0.5076 N   0  0  0  0  0  0  0  0  0  0  0  0
    1.9077   -1.4511   -0.5518 C   0  0  0  0  0  0  0  0  0  0  0  0
    2.2386   -0.0115   -0.2104 C   0  0  0  0  0  0  0  0  0  0  0  0
    2.5384    0.3612    1.1096 C   0  0  0  0  0  0  0  0  0  0  0  0
    2.8360    1.6879    1.4272 C   0  0  0  0  0  0  0  0  0  0  0  0
    2.8458    2.6586    0.4285 C   0  0  0  0  0  0  0  0  0  0  0  0
    2.5664    2.3023   -0.8886 C   0  0  0  0  0  0  0  0  0  0  0  0
    2.2698    0.9755   -1.2068 C   0  0  0  0  0  0  0  0  0  0  0  0
   -0.1628   -1.6856    0.7976 C   0  0  0  0  0  0  0  0  0  0  0  0
   -1.1492   -0.5055    0.8950 C   0  0  0  0  0  0  0  0  0  0  0  0
   -2.7283    1.4545    1.4954 H   0  0  0  0  0  0  0  0  0  0  0  0
   -2.3609   -0.9570   -2.2322 H   0  0  0  0  0  0  0  0  0  0  0  0
   -2.1781   -2.3506   -1.1594 H   0  0  0  0  0  0  0  0  0  0  0  0
   -0.0419   -0.2877   -1.8709 H   0  0  0  0  0  0  0  0  0  0  0  0
   -0.1026   -1.9271   -2.5201 H   0  0  0  0  0  0  0  0  0  0  0  0
    2.4671   -2.1084    0.1277 H   0  0  0  0  0  0  0  0  0  0  0  0
    2.3167   -1.6851   -1.5441 H   0  0  0  0  0  0  0  0  0  0  0  0
    2.5518   -0.3845    1.9012 H   0  0  0  0  0  0  0  0  0  0  0  0
    3.0681    1.9626    2.4530 H   0  0  0  0  0  0  0  0  0  0  0  0
    3.0812    3.6909    0.6744 H   0  0  0  0  0  0  0  0  0  0  0  0
    2.5846    3.0569   -1.6709 H   0  0  0  0  0  0  0  0  0  0  0  0
    2.0671    0.7157   -2.2435 H   0  0  0  0  0  0  0  0  0  0  0  0
    0.5571   -1.6475    1.6221 H   0  0  0  0  0  0  0  0  0  0  0  0
   -0.7335   -2.6088    0.9666 H   0  0  0  0  0  0  0  0  0  0  0  0
   -0.6172    0.4494    0.8225 H   0  0  0  0  0  0  0  0  0  0  0  0
   -1.6518   -0.5366    1.8659 H   0  0  0  0  0  0  0  0  0  0  0  0
  1  2  2  0
  2  3  1  0
  3  4  1  0
  3  5  1  0
  2  6  1  0
  6  7  1  0
  7  8  1  0
  8  9  1  0
  9 10  1  0
 10 11  1  0
 11 12  2  0
 12 13  1  0
 13 14  2  0
 14 15  1  0
 15 16  2  0
  9 17  1  0
 17 18  1  0
 18  6  1  0
 16 11  1  0
  3 19  1  0
  7 20  1  0
  7 21  1  0
  8 22  1  0
  8 23  1  0
 10 24  1  0
 10 25  1  0
 12 26  1  0
 13 27  1  0
 14 28  1  0
 15 29  1  0
 16 30  1  0
 17 31  1  0
 17 32  1  0
 18 33  1  0
 18 34  1  0
M  END
$$$$
