
     RDKit          3D

114117  0  0  0  0  0  0  0  0999 V2000
   -0.7619   -5.6837   -0.3845 C   0  0  0  0  0  0  0  0  0  0  0  0
   -0.1592   -4.6126   -1.3028 C   0  0  0  0  0  0  0  0  0  0  0  0
   -0.9398   -4.5837   -2.6217 C   0  0  0  0  0  0  0  0  0  0  0  0
   -0.1357   -3.2419   -0.5845 C   0  0  0  0  0  0  0  0  0  0  0  0
   -1.4708   -2.7193   -0.5090 O   0  0  0  0  0  0  0  0  0  0  0  0
   -1.5824   -1.6116    0.2863 C   0  0  0  0  0  0  0  0  0  0  0  0
   -0.7085   -1.2392    1.0579 O   0  0  0  0  0  0  0  0  0  0  0  0
   -2.9050   -0.8848   -0.0041 C   0  0  0  0  0  0  0  0  0  0  0  0
   -4.1090   -1.5800    0.6601 C   0  0  0  0  0  0  0  0  0  0  0  0
   -4.6501   -2.7441   -0.1459 C   0  0  0  0  0  0  0  0  0  0  0  0
   -5.3066   -2.5257   -1.3641 C   0  0  0  0  0  0  0  0  0  0  0  0
   -5.7809   -3.5986   -2.1201 C   0  0  0  0  0  0  0  0  0  0  0  0
   -5.6115   -4.9005   -1.6594 C   0  0  0  0  0  0  0  0  0  0  0  0
   -4.9711   -5.1316   -0.4448 C   0  0  0  0  0  0  0  0  0  0  0  0
   -4.4938   -4.0584    0.3087 C   0  0  0  0  0  0  0  0  0  0  0  0
   -2.7806    0.5730    0.2923 N   0  0  0  0  0  0  0  0  0  0  0  0
   -2.2186    1.3604   -0.7960 C   0  0  0  0  0  0  0  0  0  0  0  0
   -2.7697    0.9771    1.6261 C   0  0  0  0  0  0  0  0  0  0  0  0
   -3.0576    0.1719    2.5244 O   0  0  0  0  0  0  0  0  0  0  0  0
   -2.4985    2.4564    2.0411 C   0  0  0  0  0  0  0  0  0  0  0  0
   -3.7817    3.3303    2.0639 C   0  0  0  0  0  0  0  0  0  0  0  0
   -4.4112    3.5743    0.6926 C   0  0  0  0  0  0  0  0  0  0  0  0
   -4.8359    2.7760    3.0280 C   0  0  0  0  0  0  0  0  0  0  0  0
   -1.4629    3.1404    1.3167 O   0  0  0  0  0  0  0  0  0  0  0  0
   -0.3106    3.4106    1.9835 C   0  0  0  0  0  0  0  0  0  0  0  0
   -0.1156    3.1576    3.1702 O   0  0  0  0  0  0  0  0  0  0  0  0
    0.7665    4.0906    1.1126 C   0  0  0  0  0  0  0  0  0  0  0  0
    0.3982    4.4029   -0.3511 C   0  0  0  0  0  0  0  0  0  0  0  0
   -0.6628    5.4610   -0.5890 C   0  0  0  0  0  0  0  0  0  0  0  0
   -1.5387    5.3013   -1.6778 C   0  0  0  0  0  0  0  0  0  0  0  0
   -2.5227    6.2535   -1.9540 C   0  0  0  0  0  0  0  0  0  0  0  0
   -2.6410    7.3840   -1.1515 C   0  0  0  0  0  0  0  0  0  0  0  0
   -1.7622    7.5706   -0.0867 C   0  0  0  0  0  0  0  0  0  0  0  0
   -0.7724    6.6223    0.1873 C   0  0  0  0  0  0  0  0  0  0  0  0
    2.0276    3.3091    1.2484 N   0  0  0  0  0  0  0  0  0  0  0  0
    3.1525    3.9981    1.8588 C   0  0  0  0  0  0  0  0  0  0  0  0
    2.0429    2.0060    0.7650 C   0  0  0  0  0  0  0  0  0  0  0  0
    1.0971    1.5827    0.0941 O   0  0  0  0  0  0  0  0  0  0  0  0
    3.2325    1.0762    1.1024 C   0  0  0  0  0  0  0  0  0  0  0  0
    3.2654    0.7075    2.6047 C   0  0  0  0  0  0  0  0  0  0  0  0
    2.0268   -0.0784    3.0544 C   0  0  0  0  0  0  0  0  0  0  0  0
    4.5262   -0.1057    2.9201 C   0  0  0  0  0  0  0  0  0  0  0  0
    3.0999   -0.1377    0.3371 O   0  0  0  0  0  0  0  0  0  0  0  0
    3.4686   -0.0505   -0.9699 C   0  0  0  0  0  0  0  0  0  0  0  0
    4.1098    0.8867   -1.4378 O   0  0  0  0  0  0  0  0  0  0  0  0
    2.9907   -1.2551   -1.8048 C   0  0  0  0  0  0  0  0  0  0  0  0
    4.1212   -1.8544   -2.6725 C   0  0  0  0  0  0  0  0  0  0  0  0
    5.2457   -2.5677   -1.9621 C   0  0  0  0  0  0  0  0  0  0  0  0
    6.2646   -1.8474   -1.3223 C   0  0  0  0  0  0  0  0  0  0  0  0
    7.2855   -2.5168   -0.6432 C   0  0  0  0  0  0  0  0  0  0  0  0
    7.3070   -3.9103   -0.6072 C   0  0  0  0  0  0  0  0  0  0  0  0
    6.3089   -4.6350   -1.2514 C   0  0  0  0  0  0  0  0  0  0  0  0
    5.2856   -3.9698   -1.9297 C   0  0  0  0  0  0  0  0  0  0  0  0
    2.1523   -2.2799   -1.1188 N   0  0  0  0  0  0  0  0  0  0  0  0
    2.7020   -2.9705    0.0418 C   0  0  0  0  0  0  0  0  0  0  0  0
    0.7742   -2.2464   -1.3567 C   0  0  0  0  0  0  0  0  0  0  0  0
    0.2741   -1.4877   -2.1946 O   0  0  0  0  0  0  0  0  0  0  0  0
   -1.7885   -5.4376   -0.0947 H   0  0  0  0  0  0  0  0  0  0  0  0
   -0.1679   -5.7829    0.5293 H   0  0  0  0  0  0  0  0  0  0  0  0
   -0.7703   -6.6606   -0.8786 H   0  0  0  0  0  0  0  0  0  0  0  0
    0.8692   -4.9168   -1.5305 H   0  0  0  0  0  0  0  0  0  0  0  0
   -1.9969   -4.3473   -2.4592 H   0  0  0  0  0  0  0  0  0  0  0  0
   -0.8952   -5.5611   -3.1156 H   0  0  0  0  0  0  0  0  0  0  0  0
   -0.5284   -3.8423   -3.3134 H   0  0  0  0  0  0  0  0  0  0  0  0
    0.2310   -3.3906    0.4366 H   0  0  0  0  0  0  0  0  0  0  0  0
   -3.0378   -0.9304   -1.0937 H   0  0  0  0  0  0  0  0  0  0  0  0
   -4.9358   -0.8681    0.7928 H   0  0  0  0  0  0  0  0  0  0  0  0
   -3.8451   -1.9394    1.6620 H   0  0  0  0  0  0  0  0  0  0  0  0
   -5.4545   -1.5155   -1.7354 H   0  0  0  0  0  0  0  0  0  0  0  0
   -6.2847   -3.4175   -3.0655 H   0  0  0  0  0  0  0  0  0  0  0  0
   -5.9765   -5.7364   -2.2480 H   0  0  0  0  0  0  0  0  0  0  0  0
   -4.8364   -6.1483   -0.0846 H   0  0  0  0  0  0  0  0  0  0  0  0
   -3.9899   -4.2563    1.2517 H   0  0  0  0  0  0  0  0  0  0  0  0
   -2.7378    1.1169   -1.7285 H   0  0  0  0  0  0  0  0  0  0  0  0
   -1.1606    1.1134   -0.8951 H   0  0  0  0  0  0  0  0  0  0  0  0
   -2.3303    2.4279   -0.6444 H   0  0  0  0  0  0  0  0  0  0  0  0
   -2.1924    2.3641    3.0930 H   0  0  0  0  0  0  0  0  0  0  0  0
   -3.4805    4.3166    2.4435 H   0  0  0  0  0  0  0  0  0  0  0  0
   -3.7151    4.0910    0.0288 H   0  0  0  0  0  0  0  0  0  0  0  0
   -4.7245    2.6398    0.2209 H   0  0  0  0  0  0  0  0  0  0  0  0
   -5.2976    4.2082    0.7856 H   0  0  0  0  0  0  0  0  0  0  0  0
   -5.2441    1.8238    2.6733 H   0  0  0  0  0  0  0  0  0  0  0  0
   -5.6700    3.4797    3.1282 H   0  0  0  0  0  0  0  0  0  0  0  0
   -4.4112    2.6188    4.0256 H   0  0  0  0  0  0  0  0  0  0  0  0
    0.9475    5.0459    1.6225 H   0  0  0  0  0  0  0  0  0  0  0  0
    1.3016    4.7432   -0.8739 H   0  0  0  0  0  0  0  0  0  0  0  0
    0.0831    3.4866   -0.8597 H   0  0  0  0  0  0  0  0  0  0  0  0
   -1.4592    4.4249   -2.3204 H   0  0  0  0  0  0  0  0  0  0  0  0
   -3.1973    6.1057   -2.7941 H   0  0  0  0  0  0  0  0  0  0  0  0
   -3.4081    8.1239   -1.3646 H   0  0  0  0  0  0  0  0  0  0  0  0
   -1.8416    8.4642    0.5260 H   0  0  0  0  0  0  0  0  0  0  0  0
   -0.0947    6.8246    1.0127 H   0  0  0  0  0  0  0  0  0  0  0  0
    4.0475    3.3846    1.9110 H   0  0  0  0  0  0  0  0  0  0  0  0
    2.8698    4.3044    2.8679 H   0  0  0  0  0  0  0  0  0  0  0  0
    3.3803    4.8842    1.2590 H   0  0  0  0  0  0  0  0  0  0  0  0
    4.1681    1.5760    0.8258 H   0  0  0  0  0  0  0  0  0  0  0  0
    3.3048    1.6235    3.2052 H   0  0  0  0  0  0  0  0  0  0  0  0
    2.0739   -0.2726    4.1325 H   0  0  0  0  0  0  0  0  0  0  0  0
    1.1077    0.4855    2.8588 H   0  0  0  0  0  0  0  0  0  0  0  0
    1.9532   -1.0454    2.5474 H   0  0  0  0  0  0  0  0  0  0  0  0
    4.5938   -0.3183    3.9903 H   0  0  0  0  0  0  0  0  0  0  0  0
    5.4252    0.4490    2.6357 H   0  0  0  0  0  0  0  0  0  0  0  0
    4.5388   -1.0612    2.3837 H   0  0  0  0  0  0  0  0  0  0  0  0
    2.3366   -0.7637   -2.5379 H   0  0  0  0  0  0  0  0  0  0  0  0
    4.5742   -1.0597   -3.2803 H   0  0  0  0  0  0  0  0  0  0  0  0
    3.6724   -2.5445   -3.3997 H   0  0  0  0  0  0  0  0  0  0  0  0
    6.2796   -0.7596   -1.3558 H   0  0  0  0  0  0  0  0  0  0  0  0
    8.0685   -1.9466   -0.1490 H   0  0  0  0  0  0  0  0  0  0  0  0
    8.1066   -4.4257   -0.0802 H   0  0  0  0  0  0  0  0  0  0  0  0
    6.3323   -5.7222   -1.2306 H   0  0  0  0  0  0  0  0  0  0  0  0
    4.5137   -4.5562   -2.4232 H   0  0  0  0  0  0  0  0  0  0  0  0
    2.1616   -2.6624    0.9402 H   0  0  0  0  0  0  0  0  0  0  0  0
    2.5781   -4.0469   -0.0922 H   0  0  0  0  0  0  0  0  0  0  0  0
    3.7569   -2.7420    0.1910 H   0  0  0  0  0  0  0  0  0  0  0  0
  1  2  1  0
  2  3  1  0
  2  4  1  0
  4  5  1  0
  5  6  1  0
  6  7  2  0
  6  8  1  0
  8  9  1  0
  9 10  1  0
 10 11  2  0
 11 12  1  0
 12 13  2  0
 13 14  1  0
 14 15  2  0
  8 16  1  0
 16 17  1  0
 16 18  1  0
 18 19  2  0
 18 20  1  0
 20 21  1  0
 21 22  1  0
 21 23  1  0
 20 24  1  0
 24 25  1  0
 25 26  2  0
 25 27  1  0
 27 28  1  0
 28 29  1  0
 29 30  2  0
 30 31  1  0
 31 32  2  0
 32 33  1  0
 33 34  2  0
 27 35  1  0
 35 36  1  0
 35 37  1  0
 37 38  2  0
 37 39  1  0
 39 40  1  0
 40 41  1  0
 40 42  1  0
 39 43  1  0
 43 44  1  0
 44 45  2  0
 44 46  1  0
 46 47  1  0
 47 48  1  0
 48 49  2  0
 49 50  1  0
 50 51  2  0
 51 52  1  0
 52 53  2  0
 46 54  1  0
 54 55  1  0
 54 56  1  0
 56 57  2  0
 56  4  1  0
 15 10  1  0
 34 29  1  0
 53 48  1  0
  1 58  1  0
  1 59  1  0
  1 60  1  0
  2 61  1  0
  3 62  1  0
  3 63  1  0
  3 64  1  0
  4 65  1  0
  8 66  1  0
  9 67  1  0
  9 68  1  0
 11 69  1  0
 12 70  1  0
 13 71  1  0
 14 72  1  0
 15 73  1  0
 17 74  1  0
 17 75  1  0
 17 76  1  0
 20 77  1  0
 21 78  1  0
 22 79  1  0
 22 80  1  0
 22 81  1  0
 23 82  1  0
 23 83  1  0
 23 84  1  0
 27 85  1  0
 28 86  1  0
 28 87  1  0
 30 88  1  0
 31 89  1  0
 32 90  1  0
 33 91  1  0
 34 92  1  0
 36 93  1  0
 36 94  1  0
 36 95  1  0
 39 96  1  0
 40 97  1  0
 41 98  1  0
 41 99  1  0
 41100  1  0
 42101  1  0
 42102  1  0
 42103  1  0
 46104  1  0
 47105  1  0
 47106  1  0
 49107  1  0
 50108  1  0
 51109  1  0
 52110  1  0
 53111  1  0
 55112  1  0
 55113  1  0
 55114  1  0
M  END
$$$$
