
     RDKit          3D

 47 50  0  0  0  0  0  0  0  0999 V2000
   -5.2134    2.6032   -0.2264 C   0  0  0  0  0  0  0  0  0  0  0  0
   -4.2079    1.9019    0.6958 C   0  0  0  0  0  0  0  0  0  0  0  0
   -2.8609    1.7407    0.0151 C   0  0  0  0  0  0  0  0  0  0  0  0
   -1.9280    0.8515    0.8026 C   0  0  0  0  0  0  0  0  0  0  0  0
   -1.1292    1.3320    1.6088 O   0  0  0  0  0  0  0  0  0  0  0  0
   -1.9621   -0.5035    0.5003 N   0  0  0  0  0  0  0  0  0  0  0  0
   -0.9172   -1.3334    1.0944 C   0  0  0  0  0  0  0  0  0  0  0  0
    0.4326   -1.0867    0.4094 C   0  0  0  0  0  0  0  0  0  0  0  0
    0.6543   -1.4943   -0.7280 O   0  0  0  0  0  0  0  0  0  0  0  0
    1.2863   -0.3325    1.1866 N   0  0  0  0  0  0  0  0  0  0  0  0
    2.6313    0.0112    0.9326 C   0  0  0  0  0  0  0  0  0  0  0  0
    3.2672    0.8377    1.8698 C   0  0  0  0  0  0  0  0  0  0  0  0
    4.6080    1.1951    1.7136 C   0  0  0  0  0  0  0  0  0  0  0  0
    5.3256    0.7302    0.6206 C   0  0  0  0  0  0  0  0  0  0  0  0
    4.6942   -0.0729   -0.3314 C   0  0  0  0  0  0  0  0  0  0  0  0
    3.3565   -0.4464   -0.1694 C   0  0  0  0  0  0  0  0  0  0  0  0
    5.3341   -0.5454   -1.4498 O   0  0  0  0  0  0  0  0  0  0  0  0
    6.5351    0.1950   -1.6999 C   0  0  0  0  0  0  0  0  0  0  0  0
    7.3499    0.3370   -0.4315 C   0  0  0  0  0  0  0  0  0  0  0  0
    6.6419    1.1079    0.5377 O   0  0  0  0  0  0  0  0  0  0  0  0
   -3.0430   -1.1569   -0.1706 C   0  0  0  0  0  0  0  0  0  0  0  0
   -2.7468   -2.2027   -1.0599 C   0  0  0  0  0  0  0  0  0  0  0  0
   -3.7563   -2.9146   -1.7060 C   0  0  0  0  0  0  0  0  0  0  0  0
   -5.0843   -2.5991   -1.4659 C   0  0  0  0  0  0  0  0  0  0  0  0
   -5.4021   -1.5532   -0.6014 C   0  0  0  0  0  0  0  0  0  0  0  0
   -4.3944   -0.8253    0.0551 C   0  0  0  0  0  0  0  0  0  0  0  0
   -4.9543    0.3433    1.3003 S   0  0  0  0  0  0  0  0  0  0  0  0
   -5.4268    1.9982   -1.1171 H   0  0  0  0  0  0  0  0  0  0  0  0
   -4.8293    3.5777   -0.5539 H   0  0  0  0  0  0  0  0  0  0  0  0
   -6.1640    2.7890    0.2988 H   0  0  0  0  0  0  0  0  0  0  0  0
   -4.0703    2.5275    1.5907 H   0  0  0  0  0  0  0  0  0  0  0  0
   -2.9610    1.3648   -1.0123 H   0  0  0  0  0  0  0  0  0  0  0  0
   -2.3801    2.7250   -0.0885 H   0  0  0  0  0  0  0  0  0  0  0  0
   -0.8539   -1.1081    2.1661 H   0  0  0  0  0  0  0  0  0  0  0  0
   -1.1497   -2.4007    1.0277 H   0  0  0  0  0  0  0  0  0  0  0  0
    0.8567    0.1201    1.9826 H   0  0  0  0  0  0  0  0  0  0  0  0
    2.7304    1.2140    2.7349 H   0  0  0  0  0  0  0  0  0  0  0  0
    5.0938    1.8294    2.4485 H   0  0  0  0  0  0  0  0  0  0  0  0
    2.9077   -1.0889   -0.9301 H   0  0  0  0  0  0  0  0  0  0  0  0
    7.1081   -0.3458   -2.4514 H   0  0  0  0  0  0  0  0  0  0  0  0
    6.2743    1.1763   -2.1109 H   0  0  0  0  0  0  0  0  0  0  0  0
    7.5815   -0.6405    0.0037 H   0  0  0  0  0  0  0  0  0  0  0  0
    8.2962    0.8495   -0.6418 H   0  0  0  0  0  0  0  0  0  0  0  0
   -1.7159   -2.4619   -1.2883 H   0  0  0  0  0  0  0  0  0  0  0  0
   -3.4871   -3.7371   -2.3648 H   0  0  0  0  0  0  0  0  0  0  0  0
   -5.8775   -3.1666   -1.9479 H   0  0  0  0  0  0  0  0  0  0  0  0
   -6.4501   -1.3418   -0.4028 H   0  0  0  0  0  0  0  0  0  0  0  0
  1  2  1  0
  2  3  1  0
  3  4  1  0
  4  5  2  0
  4  6  1  0
  6  7  1  0
  7  8  1  0
  8  9  2  0
  8 10  1  0
 10 11  1  0
 11 12  2  0
 12 13  1  0
 13 14  2  0
 14 15  1  0
 15 16  2  0
 15 17  1  0
 17 18  1  0
 18 19  1  0
 19 20  1  0
  6 21  1  0
 21 22  2  0
 22 23  1  0
 23 24  2  0
 24 25  1  0
 25 26  2  0
 26 27  1  0
 27  2  1  0
 16 11  1  0
 26 21  1  0
 20 14  1  0
  1 28  1  0
  1 29  1  0
  1 30  1  0
  2 31  1  0
  3 32  1  0
  3 33  1  0
  7 34  1  0
  7 35  1  0
 10 36  1  0
 12 37  1  0
 13 38  1  0
 16 39  1  0
 18 40  1  0
 18 41  1  0
 19 42  1  0
 19 43  1  0
 22 44  1  0
 23 45  1  0
 24 46  1  0
 25 47  1  0
M  END
$$$$
