
     RDKit          3D

 70 75  0  0  0  0  0  0  0  0999 V2000
   -5.2426   -3.4859    2.4638 C   0  0  0  0  0  0  0  0  0  0  0  0
   -4.1849   -2.8882    1.5717 C   0  0  0  0  0  0  0  0  0  0  0  0
   -3.3275   -1.8993    2.1097 C   0  0  0  0  0  0  0  0  0  0  0  0
   -2.3153   -1.3152    1.3455 C   0  0  0  0  0  0  0  0  0  0  0  0
   -2.1555   -1.7352    0.0350 C   0  0  0  0  0  0  0  0  0  0  0  0
   -3.0255   -2.6924   -0.5073 C   0  0  0  0  0  0  0  0  0  0  0  0
   -4.0552   -3.2813    0.2201 C   0  0  0  0  0  0  0  0  0  0  0  0
   -4.9486   -4.3274   -0.3822 C   0  0  0  0  0  0  0  0  0  0  0  0
   -2.7076   -2.9125   -1.8439 N   0  0  0  0  0  0  0  0  0  0  0  0
   -1.6349   -2.1253   -2.2621 C   0  0  0  0  0  0  0  0  0  0  0  0
   -1.1905   -2.1182   -3.4007 O   0  0  0  0  0  0  0  0  0  0  0  0
   -1.1628   -1.3143   -1.0190 C   0  0  1  0  0  0  0  0  0  0  0  0
   -1.2705    0.1512   -1.1967 C   0  0  0  0  0  0  0  0  0  0  0  0
   -0.0134    0.7501   -1.1396 C   0  0  0  0  0  0  0  0  0  0  0  0
   -0.1527    2.0981   -1.3385 C   0  0  0  0  0  0  0  0  0  0  0  0
    0.7838    3.0367   -1.4520 O   0  0  0  0  0  0  0  0  0  0  0  0
   -1.5331    2.3661   -1.4844 N   0  0  0  0  0  0  0  0  0  0  0  0
   -2.1322    3.6579   -1.6923 C   0  0  0  0  0  0  0  0  0  0  0  0
   -3.3867    3.7797   -2.3089 C   0  0  0  0  0  0  0  0  0  0  0  0
   -3.9669    5.0370   -2.5103 C   0  0  0  0  0  0  0  0  0  0  0  0
   -3.3045    6.1889   -2.0977 C   0  0  0  0  0  0  0  0  0  0  0  0
   -2.0597    6.0843   -1.4840 C   0  0  0  0  0  0  0  0  0  0  0  0
   -1.4765    4.8285   -1.2822 C   0  0  0  0  0  0  0  0  0  0  0  0
   -2.2137    1.1303   -1.3891 C   0  0  0  0  0  0  0  0  0  0  0  0
   -3.5410    1.0317   -1.4269 O   0  0  0  0  0  0  0  0  0  0  0  0
    1.0595   -0.2465   -0.9281 C   0  0  1  0  0  0  0  0  0  0  0  0
    1.9780    0.0687    0.2703 C   0  0  0  0  0  0  0  0  0  0  0  0
    2.8254   -1.0747    0.6264 N   0  0  0  0  0  0  0  0  0  0  0  0
    4.1370   -0.9657    1.0389 C   0  0  0  0  0  0  0  0  0  0  0  0
    4.8407   -1.9332    1.2990 O   0  0  0  0  0  0  0  0  0  0  0  0
    4.5433    0.3274    1.1139 O   0  0  0  0  0  0  0  0  0  0  0  0
    5.9065    0.6621    1.4799 C   0  0  0  0  0  0  0  0  0  0  0  0
    6.9080    0.1028    0.4625 C   0  0  0  0  0  0  0  0  0  0  0  0
    5.9574    2.1978    1.4229 C   0  0  0  0  0  0  0  0  0  0  0  0
    6.2298    0.2136    2.9089 C   0  0  0  0  0  0  0  0  0  0  0  0
    2.2389   -2.4065    0.4814 C   0  0  0  0  0  0  0  0  0  0  0  0
    0.7069   -2.3652    0.3311 C   0  0  0  0  0  0  0  0  0  0  0  0
    0.2989   -1.5359   -0.8010 N   0  0  0  0  0  0  0  0  0  0  0  0
   -5.1835   -4.5780    2.4478 H   0  0  0  0  0  0  0  0  0  0  0  0
   -6.2366   -3.1667    2.1381 H   0  0  0  0  0  0  0  0  0  0  0  0
   -5.1144   -3.1707    3.5038 H   0  0  0  0  0  0  0  0  0  0  0  0
   -3.4486   -1.5806    3.1445 H   0  0  0  0  0  0  0  0  0  0  0  0
   -1.6711   -0.5529    1.7753 H   0  0  0  0  0  0  0  0  0  0  0  0
   -4.5979   -5.3250   -0.1013 H   0  0  0  0  0  0  0  0  0  0  0  0
   -5.9829   -4.2033   -0.0468 H   0  0  0  0  0  0  0  0  0  0  0  0
   -4.9747   -4.2651   -1.4742 H   0  0  0  0  0  0  0  0  0  0  0  0
   -3.1801   -3.5411   -2.4753 H   0  0  0  0  0  0  0  0  0  0  0  0
    1.6513    2.6017   -1.5001 H   0  0  0  0  0  0  0  0  0  0  0  0
   -3.9270    2.9143   -2.6803 H   0  0  0  0  0  0  0  0  0  0  0  0
   -4.9359    5.1118   -2.9974 H   0  0  0  0  0  0  0  0  0  0  0  0
   -3.7565    7.1643   -2.2553 H   0  0  0  0  0  0  0  0  0  0  0  0
   -1.5383    6.9793   -1.1549 H   0  0  0  0  0  0  0  0  0  0  0  0
   -0.5207    4.7978   -0.7682 H   0  0  0  0  0  0  0  0  0  0  0  0
   -3.7880    0.1109   -1.2296 H   0  0  0  0  0  0  0  0  0  0  0  0
    1.6730   -0.3238   -1.8344 H   0  0  0  0  0  0  0  0  0  0  0  0
    2.5877    0.9510    0.0440 H   0  0  0  0  0  0  0  0  0  0  0  0
    1.3875    0.3118    1.1648 H   0  0  0  0  0  0  0  0  0  0  0  0
    7.9122    0.5059    0.6289 H   0  0  0  0  0  0  0  0  0  0  0  0
    6.6005    0.3450   -0.5611 H   0  0  0  0  0  0  0  0  0  0  0  0
    6.9825   -0.9879    0.5183 H   0  0  0  0  0  0  0  0  0  0  0  0
    5.7044    2.5599    0.4190 H   0  0  0  0  0  0  0  0  0  0  0  0
    5.2196    2.6386    2.1044 H   0  0  0  0  0  0  0  0  0  0  0  0
    6.9475    2.5828    1.6904 H   0  0  0  0  0  0  0  0  0  0  0  0
    6.2699   -0.8768    2.9982 H   0  0  0  0  0  0  0  0  0  0  0  0
    5.4601    0.5554    3.6091 H   0  0  0  0  0  0  0  0  0  0  0  0
    7.1988    0.6036    3.2384 H   0  0  0  0  0  0  0  0  0  0  0  0
    2.6969   -2.8700   -0.4015 H   0  0  0  0  0  0  0  0  0  0  0  0
    2.5145   -3.0144    1.3514 H   0  0  0  0  0  0  0  0  0  0  0  0
    0.3005   -1.9798    1.2725 H   0  0  0  0  0  0  0  0  0  0  0  0
    0.3370   -3.3880    0.1975 H   0  0  0  0  0  0  0  0  0  0  0  0
  1  2  1  0
  2  3  2  0
  3  4  1  0
  4  5  2  0
  5  6  1  0
  6  7  2  0
  7  8  1  0
  6  9  1  0
  9 10  1  0
 10 11  2  0
 10 12  1  0
 12 13  1  0
 13 14  1  0
 14 15  2  0
 15 16  1  0
 15 17  1  0
 17 18  1  0
 18 19  2  0
 19 20  1  0
 20 21  2  0
 21 22  1  0
 22 23  2  0
 17 24  1  0
 24 25  1  0
 14 26  1  0
 26 27  1  0
 27 28  1  0
 28 29  1  0
 29 30  2  0
 29 31  1  0
 31 32  1  0
 32 33  1  0
 32 34  1  0
 32 35  1  0
 28 36  1  0
 36 37  1  0
 37 38  1  0
  7  2  1  0
 12 38  1  1
 12  5  1  0
 24 13  2  0
 38 26  1  0
 23 18  1  0
  1 39  1  0
  1 40  1  0
  1 41  1  0
  3 42  1  0
  4 43  1  0
  8 44  1  0
  8 45  1  0
  8 46  1  0
  9 47  1  0
 16 48  1  0
 19 49  1  0
 20 50  1  0
 21 51  1  0
 22 52  1  0
 23 53  1  0
 25 54  1  0
 26 55  1  6
 27 56  1  0
 27 57  1  0
 33 58  1  0
 33 59  1  0
 33 60  1  0
 34 61  1  0
 34 62  1  0
 34 63  1  0
 35 64  1  0
 35 65  1  0
 35 66  1  0
 36 67  1  0
 36 68  1  0
 37 69  1  0
 37 70  1  0
M  END
$$$$
