
     RDKit          3D

 33 33  0  0  0  0  0  0  0  0999 V2000
   -3.1283    2.6226   -1.9216 C   0  0  0  0  0  0  0  0  0  0  0  0
   -3.2173    1.4693   -0.9534 C   0  0  0  0  0  0  0  0  0  0  0  0
   -4.2697    0.8590   -0.8026 O   0  0  0  0  0  0  0  0  0  0  0  0
   -2.0267    1.2444   -0.2937 N   0  0  0  0  0  0  0  0  0  0  0  0
   -1.7431    0.2710    0.6917 C   0  0  0  0  0  0  0  0  0  0  0  0
   -2.6843   -0.6472    1.1610 C   0  0  0  0  0  0  0  0  0  0  0  0
   -2.3332   -1.5771    2.1413 C   0  0  0  0  0  0  0  0  0  0  0  0
   -1.0408   -1.5954    2.6573 C   0  0  0  0  0  0  0  0  0  0  0  0
   -0.0879   -0.6855    2.1958 C   0  0  0  0  0  0  0  0  0  0  0  0
   -0.4299    0.2498    1.2138 C   0  0  0  0  0  0  0  0  0  0  0  0
    0.4326    1.1742    0.6671 O   0  0  0  0  0  0  0  0  0  0  0  0
    1.7485    1.2642    1.2023 C   0  0  0  0  0  0  0  0  0  0  0  0
    2.7062    0.1720    0.7170 C   0  0  0  0  0  0  0  0  0  0  0  0
    3.6723   -0.1971    1.3776 O   0  0  0  0  0  0  0  0  0  0  0  0
    2.4139   -0.3269   -0.5342 N   0  0  0  0  0  0  0  0  0  0  0  0
    3.1517   -1.4716   -1.0717 C   0  0  0  0  0  0  0  0  0  0  0  0
    2.9666   -1.7022   -2.5688 C   0  0  0  0  0  0  0  0  0  0  0  0
    3.6006   -2.8244   -2.9721 F   0  0  0  0  0  0  0  0  0  0  0  0
    1.6548   -1.8375   -2.8738 F   0  0  0  0  0  0  0  0  0  0  0  0
    3.4503   -0.6697   -3.2937 F   0  0  0  0  0  0  0  0  0  0  0  0
   -3.3764    3.5509   -1.4004 H   0  0  0  0  0  0  0  0  0  0  0  0
   -2.1261    2.7015   -2.3527 H   0  0  0  0  0  0  0  0  0  0  0  0
   -3.8360    2.4628   -2.7402 H   0  0  0  0  0  0  0  0  0  0  0  0
   -1.2442    1.8547   -0.5040 H   0  0  0  0  0  0  0  0  0  0  0  0
   -3.7029   -0.6641    0.7861 H   0  0  0  0  0  0  0  0  0  0  0  0
   -3.0751   -2.2862    2.5012 H   0  0  0  0  0  0  0  0  0  0  0  0
   -0.7736   -2.3219    3.4215 H   0  0  0  0  0  0  0  0  0  0  0  0
    0.9062   -0.7451    2.6269 H   0  0  0  0  0  0  0  0  0  0  0  0
    1.7350    1.3031    2.2974 H   0  0  0  0  0  0  0  0  0  0  0  0
    2.1666    2.2178    0.8597 H   0  0  0  0  0  0  0  0  0  0  0  0
    1.4642   -0.1744   -0.8658 H   0  0  0  0  0  0  0  0  0  0  0  0
    4.2159   -1.3369   -0.8496 H   0  0  0  0  0  0  0  0  0  0  0  0
    2.8102   -2.3541   -0.5195 H   0  0  0  0  0  0  0  0  0  0  0  0
  1  2  1  0
  2  3  2  0
  2  4  1  0
  4  5  1  0
  5  6  2  0
  6  7  1  0
  7  8  2  0
  8  9  1  0
  9 10  2  0
 10 11  1  0
 11 12  1  0
 12 13  1  0
 13 14  2  0
 13 15  1  0
 15 16  1  0
 16 17  1  0
 17 18  1  0
 17 19  1  0
 17 20  1  0
 10  5  1  0
  1 21  1  0
  1 22  1  0
  1 23  1  0
  4 24  1  0
  6 25  1  0
  7 26  1  0
  8 27  1  0
  9 28  1  0
 12 29  1  0
 12 30  1  0
 15 31  1  0
 16 32  1  0
 16 33  1  0
M  END
$$$$
