
     RDKit          3D

 36 39  0  0  0  0  0  0  0  0999 V2000
   -6.2973    2.1438   -2.6004 C   0  0  0  0  0  0  0  0  0  0  0  0
   -5.5489    1.4977   -1.4725 C   0  0  0  0  0  0  0  0  0  0  0  0
   -5.6457    1.8328   -0.2999 O   0  0  0  0  0  0  0  0  0  0  0  0
   -4.7539    0.4802   -1.9911 O   0  0  0  0  0  0  0  0  0  0  0  0
   -3.9739   -0.2340   -1.0708 C   0  0  0  0  0  0  0  0  0  0  0  0
   -4.1190   -1.6194   -1.0550 C   0  0  0  0  0  0  0  0  0  0  0  0
   -3.3333   -2.3782   -0.1900 C   0  0  0  0  0  0  0  0  0  0  0  0
   -2.4011   -1.7507    0.6413 C   0  0  0  0  0  0  0  0  0  0  0  0
   -2.2381   -0.3596    0.6014 C   0  0  0  0  0  0  0  0  0  0  0  0
   -1.2818    0.3174    1.4804 C   0  0  0  0  0  0  0  0  0  0  0  0
    0.0550    0.2419    1.4012 C   0  0  0  0  0  0  0  0  0  0  0  0
    1.0908    1.1216    2.5285 S   0  0  0  0  0  0  0  0  0  0  0  0
    2.4750    0.5027    1.7327 C   0  0  0  0  0  0  0  0  0  0  0  0
    3.7614    0.6223    1.8895 N   0  0  0  0  0  0  0  0  0  0  0  0
    4.2376   -0.1789    0.8600 C   0  0  0  0  0  0  0  0  0  0  0  0
    5.7676   -0.3785    0.6066 C   0  0  0  0  0  0  0  0  0  0  0  0
    6.7822    0.1967    1.3477 C   0  0  0  0  0  0  0  0  0  0  0  0
    8.0024   -0.2458    0.7815 C   0  0  0  0  0  0  0  0  0  0  0  0
    7.6594   -1.0630   -0.2691 C   0  0  0  0  0  0  0  0  0  0  0  0
    6.3098   -1.1501   -0.3837 O   0  0  0  0  0  0  0  0  0  0  0  0
    3.2887   -0.7665    0.1035 N   0  0  0  0  0  0  0  0  0  0  0  0
    2.1754   -0.3030    0.6956 N   0  0  0  0  0  0  0  0  0  0  0  0
    0.8499   -0.5379    0.3936 C   0  0  0  0  0  0  0  0  0  0  0  0
    0.4895   -1.2495   -0.5241 O   0  0  0  0  0  0  0  0  0  0  0  0
   -3.0296    0.4024   -0.2640 C   0  0  0  0  0  0  0  0  0  0  0  0
   -6.9236    2.9487   -2.2049 H   0  0  0  0  0  0  0  0  0  0  0  0
   -6.9420    1.4078   -3.0871 H   0  0  0  0  0  0  0  0  0  0  0  0
   -5.5914    2.5722   -3.3163 H   0  0  0  0  0  0  0  0  0  0  0  0
   -4.8361   -2.1060   -1.7091 H   0  0  0  0  0  0  0  0  0  0  0  0
   -3.4397   -3.4597   -0.1656 H   0  0  0  0  0  0  0  0  0  0  0  0
   -1.7985   -2.3614    1.3096 H   0  0  0  0  0  0  0  0  0  0  0  0
   -1.7522    0.9397    2.2407 H   0  0  0  0  0  0  0  0  0  0  0  0
    6.6473    0.8559    2.1944 H   0  0  0  0  0  0  0  0  0  0  0  0
    9.0062   -0.0004    1.0987 H   0  0  0  0  0  0  0  0  0  0  0  0
    8.2258   -1.6292   -0.9955 H   0  0  0  0  0  0  0  0  0  0  0  0
   -2.9180    1.4821   -0.3077 H   0  0  0  0  0  0  0  0  0  0  0  0
  1  2  1  0
  2  3  2  0
  2  4  1  0
  4  5  1  0
  5  6  2  0
  6  7  1  0
  7  8  2  0
  8  9  1  0
  9 10  1  0
 10 11  2  3
 11 12  1  0
 12 13  1  0
 13 14  2  0
 14 15  1  0
 15 16  1  0
 16 17  2  0
 17 18  1  0
 18 19  2  0
 19 20  1  0
 15 21  2  0
 21 22  1  0
 22 23  1  0
 23 24  2  0
  9 25  2  0
 25  5  1  0
 23 11  1  0
 22 13  1  0
 20 16  1  0
  1 26  1  0
  1 27  1  0
  1 28  1  0
  6 29  1  0
  7 30  1  0
  8 31  1  0
 10 32  1  0
 17 33  1  0
 18 34  1  0
 19 35  1  0
 25 36  1  0
M  END
$$$$
