
     RDKit          3D

 31 32  0  0  0  0  0  0  0  0999 V2000
   -2.9308   -1.5295    1.6174 C   0  0  0  0  0  0  0  0  0  0  0  0
   -2.5827   -1.3209    0.1505 C   0  0  0  0  0  0  0  0  0  0  0  0
   -1.7177   -0.1455   -0.0242 N   0  0  0  0  0  0  0  0  0  0  0  0
   -2.4144    1.1211   -0.2929 C   0  0  0  0  0  0  0  0  0  0  0  0
   -2.5620    1.3569   -1.7893 C   0  0  0  0  0  0  0  0  0  0  0  0
   -0.3328   -0.2252    0.0554 C   0  0  0  0  0  0  0  0  0  0  0  0
    0.3343   -1.4029    0.4337 C   0  0  0  0  0  0  0  0  0  0  0  0
    1.7370   -1.4948    0.5180 C   0  0  0  0  0  0  0  0  0  0  0  0
    2.5487   -0.3995    0.2233 C   0  0  0  0  0  0  0  0  0  0  0  0
    4.0155   -0.3920    0.2799 C   0  0  0  0  0  0  0  0  0  0  0  0
    4.8131   -1.8641    0.7534 Cl  0  0  0  0  0  0  0  0  0  0  0  0
    4.7108    0.7183   -0.0254 C   0  0  0  0  0  0  0  0  0  0  0  0
    6.5921    0.8237    0.0184 Br  0  0  0  0  0  0  0  0  0  0  0  0
    4.0085    1.9672   -0.4282 C   0  0  0  0  0  0  0  0  0  0  0  0
    4.6025    3.0017   -0.7153 O   0  0  0  0  0  0  0  0  0  0  0  0
    2.6222    1.9262   -0.4708 O   0  0  0  0  0  0  0  0  0  0  0  0
    1.8988    0.7650   -0.1505 C   0  0  0  0  0  0  0  0  0  0  0  0
    0.5021    0.8625   -0.2351 C   0  0  0  0  0  0  0  0  0  0  0  0
   -3.5917   -2.3948    1.7293 H   0  0  0  0  0  0  0  0  0  0  0  0
   -2.0383   -1.7038    2.2258 H   0  0  0  0  0  0  0  0  0  0  0  0
   -3.4457   -0.6545    2.0276 H   0  0  0  0  0  0  0  0  0  0  0  0
   -3.5160   -1.1788   -0.4094 H   0  0  0  0  0  0  0  0  0  0  0  0
   -2.1350   -2.2239   -0.2791 H   0  0  0  0  0  0  0  0  0  0  0  0
   -3.4169    1.0923    0.1532 H   0  0  0  0  0  0  0  0  0  0  0  0
   -1.9183    1.9697    0.1913 H   0  0  0  0  0  0  0  0  0  0  0  0
   -3.1229    0.5438   -2.2620 H   0  0  0  0  0  0  0  0  0  0  0  0
   -3.1009    2.2917   -1.9728 H   0  0  0  0  0  0  0  0  0  0  0  0
   -1.5903    1.4223   -2.2880 H   0  0  0  0  0  0  0  0  0  0  0  0
   -0.2217   -2.3003    0.6907 H   0  0  0  0  0  0  0  0  0  0  0  0
    2.1584   -2.4500    0.8228 H   0  0  0  0  0  0  0  0  0  0  0  0
    0.0939    1.8182   -0.5475 H   0  0  0  0  0  0  0  0  0  0  0  0
  1  2  1  0
  2  3  1  0
  3  4  1  0
  4  5  1  0
  3  6  1  0
  6  7  2  0
  7  8  1  0
  8  9  2  0
  9 10  1  0
 10 11  1  0
 10 12  2  0
 12 13  1  0
 12 14  1  0
 14 15  2  0
 14 16  1  0
 16 17  1  0
 17 18  2  0
 18  6  1  0
 17  9  1  0
  1 19  1  0
  1 20  1  0
  1 21  1  0
  2 22  1  0
  2 23  1  0
  4 24  1  0
  4 25  1  0
  5 26  1  0
  5 27  1  0
  5 28  1  0
  7 29  1  0
  8 30  1  0
 18 31  1  0
M  END
$$$$
