
     RDKit          3D

 53 58  0  0  0  0  0  0  0  0999 V2000
   -0.8410    0.4733   -1.9597 O   0  0  0  0  0  0  0  0  0  0  0  0
   -1.4218    0.6438   -0.8831 C   0  0  0  0  0  0  0  0  0  0  0  0
   -0.7007    1.4787    0.1990 C   0  0  0  0  0  0  0  0  0  0  0  0
    0.7446    1.1789    0.1930 N   0  0  0  0  0  4  0  0  0  0  0  0
    1.4138    0.2857    1.0277 C   0  0  0  0  0  0  0  0  0  0  0  0
    2.7496    0.2255    0.6458 C   0  0  0  0  0  0  0  0  0  0  0  0
    3.8791   -0.6311    1.3286 C   0  0  0  0  0  0  0  0  0  0  0  0
    5.2033   -0.5431    0.8969 C   0  0  0  0  0  0  0  0  0  0  0  0
    6.1982   -1.3098    1.5154 C   0  0  0  0  0  0  0  0  0  0  0  0
    5.8795   -2.1680    2.5704 C   0  0  0  0  0  0  0  0  0  0  0  0
    7.1578   -3.0799    3.2836 Cl  0  0  0  0  0  0  0  0  0  0  0  0
    4.5560   -2.2554    3.0081 C   0  0  0  0  0  0  0  0  0  0  0  0
    4.0746   -3.2873    4.3068 Cl  0  0  0  0  0  0  0  0  0  0  0  0
    3.5591   -1.4878    2.3895 C   0  0  0  0  0  0  0  0  0  0  0  0
    2.8080    1.0783   -0.4419 N   0  0  0  0  0  0  0  0  0  0  0  0
    1.6234    1.6302   -0.6964 C   0  0  0  0  0  0  0  0  0  0  0  0
    1.6470    2.5579   -1.8513 C   0  0  0  0  0  0  0  0  0  0  0  0
    2.9941    2.2100   -2.5130 C   0  0  0  0  0  0  0  0  0  0  0  0
    3.8178    1.5030   -1.4024 C   0  0  0  0  0  0  0  0  0  0  0  0
   -2.6271    0.0380   -0.4872 N   0  0  0  0  0  0  0  0  0  0  0  0
   -3.5087    0.6528    0.4715 C   0  0  0  0  0  0  0  0  0  0  0  0
   -3.6585    2.0545    0.4739 C   0  0  0  0  0  0  0  0  0  0  0  0
   -4.4923    2.6936    1.3950 C   0  0  0  0  0  0  0  0  0  0  0  0
   -5.2042    1.9431    2.3218 C   0  0  0  0  0  0  0  0  0  0  0  0
   -5.1004    0.5542    2.3107 C   0  0  0  0  0  0  0  0  0  0  0  0
   -4.2733   -0.0931    1.3815 C   0  0  0  0  0  0  0  0  0  0  0  0
   -4.1958   -1.8611    1.4271 S   0  0  0  0  0  0  0  0  0  0  0  0
   -3.7988   -2.1504   -0.2826 C   0  0  0  0  0  0  0  0  0  0  0  0
   -4.1919   -3.3829   -0.8288 C   0  0  0  0  0  0  0  0  0  0  0  0
   -3.8605   -3.7143   -2.1383 C   0  0  0  0  0  0  0  0  0  0  0  0
   -3.1303   -2.8175   -2.9051 C   0  0  0  0  0  0  0  0  0  0  0  0
   -2.7305   -1.5907   -2.3627 C   0  0  0  0  0  0  0  0  0  0  0  0
   -3.0550   -1.2258   -1.0438 C   0  0  0  0  0  0  0  0  0  0  0  0
   -0.8260    2.5435   -0.0188 H   0  0  0  0  0  0  0  0  0  0  0  0
   -1.0696    1.2614    1.2050 H   0  0  0  0  0  0  0  0  0  0  0  0
    0.8451   -0.1980    1.8040 H   0  0  0  0  0  0  0  0  0  0  0  0
    5.5056    0.1172    0.0934 H   0  0  0  0  0  0  0  0  0  0  0  0
    7.2283   -1.2318    1.1706 H   0  0  0  0  0  0  0  0  0  0  0  0
    2.5400   -1.5848    2.7539 H   0  0  0  0  0  0  0  0  0  0  0  0
    0.7886    2.3751   -2.4958 H   0  0  0  0  0  0  0  0  0  0  0  0
    1.6347    3.5680   -1.4358 H   0  0  0  0  0  0  0  0  0  0  0  0
    3.5039    3.0831   -2.9289 H   0  0  0  0  0  0  0  0  0  0  0  0
    2.8189    1.5005   -3.3305 H   0  0  0  0  0  0  0  0  0  0  0  0
    4.3620    0.6455   -1.8044 H   0  0  0  0  0  0  0  0  0  0  0  0
    4.4990    2.2029   -0.9096 H   0  0  0  0  0  0  0  0  0  0  0  0
   -3.1842    2.6759   -0.2821 H   0  0  0  0  0  0  0  0  0  0  0  0
   -4.6086    3.7756    1.3735 H   0  0  0  0  0  0  0  0  0  0  0  0
   -5.8621    2.4335    3.0367 H   0  0  0  0  0  0  0  0  0  0  0  0
   -5.6832   -0.0230    3.0273 H   0  0  0  0  0  0  0  0  0  0  0  0
   -4.7576   -4.0974   -0.2333 H   0  0  0  0  0  0  0  0  0  0  0  0
   -4.1732   -4.6679   -2.5575 H   0  0  0  0  0  0  0  0  0  0  0  0
   -2.8766   -3.0641   -3.9341 H   0  0  0  0  0  0  0  0  0  0  0  0
   -2.2001   -0.9183   -3.0304 H   0  0  0  0  0  0  0  0  0  0  0  0
  1  2  2  0
  2  3  1  0
  3  4  1  0
  4  5  1  0
  5  6  2  0
  6  7  1  0
  7  8  2  0
  8  9  1  0
  9 10  2  0
 10 11  1  0
 10 12  1  0
 12 13  1  0
 12 14  2  0
  6 15  1  0
 15 16  1  0
 16 17  1  0
 17 18  1  0
 18 19  1  0
  2 20  1  0
 20 21  1  0
 21 22  2  0
 22 23  1  0
 23 24  2  0
 24 25  1  0
 25 26  2  0
 26 27  1  0
 27 28  1  0
 28 29  2  0
 29 30  1  0
 30 31  2  0
 31 32  1  0
 32 33  2  0
 16  4  2  0
 33 20  1  0
 14  7  1  0
 19 15  1  0
 26 21  1  0
 33 28  1  0
  3 34  1  0
  3 35  1  0
  5 36  1  0
  8 37  1  0
  9 38  1  0
 14 39  1  0
 17 40  1  0
 17 41  1  0
 18 42  1  0
 18 43  1  0
 19 44  1  0
 19 45  1  0
 22 46  1  0
 23 47  1  0
 24 48  1  0
 25 49  1  0
 29 50  1  0
 30 51  1  0
 31 52  1  0
 32 53  1  0
M  CHG  1   4   1
M  END
$$$$
