
     RDKit          3D

 44 44  0  0  0  0  0  0  0  0999 V2000
   -5.0898    0.3070   -1.2469 C   0  0  0  0  0  0  0  0  0  0  0  0
   -4.1748    0.7678   -0.1190 C   0  0  0  0  0  0  0  0  0  0  0  0
   -2.7961    0.2894   -0.3051 N   0  0  0  0  0  0  0  0  0  0  0  0
   -2.0515    0.7730   -1.4861 C   0  0  0  0  0  0  0  0  0  0  0  0
   -1.6608    2.2406   -1.3730 C   0  0  0  0  0  0  0  0  0  0  0  0
   -2.0053    0.1110    0.8452 C   0  0  0  0  0  0  0  0  0  0  0  0
   -2.2350    0.7986    2.0459 C   0  0  0  0  0  0  0  0  0  0  0  0
   -1.4292    0.5887    3.1672 C   0  0  0  0  0  0  0  0  0  0  0  0
   -0.3715   -0.3135    3.1043 C   0  0  0  0  0  0  0  0  0  0  0  0
   -0.1108   -1.0102    1.9253 C   0  0  0  0  0  0  0  0  0  0  0  0
    0.9581   -1.8610    1.9934 O   0  0  0  0  0  0  0  0  0  0  0  0
    1.3768   -2.5013    0.7986 C   0  0  0  0  0  0  0  0  0  0  0  0
    2.0066   -1.6053   -0.2807 C   0  0  0  0  0  0  0  0  0  0  0  0
    1.6075   -1.6654   -1.4478 O   0  0  0  0  0  0  0  0  0  0  0  0
    3.0499   -0.7591    0.0786 N   0  0  0  0  0  0  0  0  0  0  0  0
    3.6318   -0.6857    1.4101 C   0  0  0  0  0  0  0  0  0  0  0  0
    3.5323    0.2040   -0.9135 C   0  0  0  0  0  0  0  0  0  0  0  0
    4.5264   -0.4199   -1.8912 C   0  0  0  0  0  0  0  0  0  0  0  0
    5.0572    0.6002   -2.8001 C   0  0  0  0  0  0  0  0  0  0  0  0
    5.4883    1.4156   -3.5035 N   0  0  0  0  0  0  0  0  0  0  0  0
   -0.9333   -0.8022    0.8145 C   0  0  0  0  0  0  0  0  0  0  0  0
   -4.8475    0.8017   -2.1920 H   0  0  0  0  0  0  0  0  0  0  0  0
   -6.1307    0.5494   -1.0077 H   0  0  0  0  0  0  0  0  0  0  0  0
   -5.0164   -0.7751   -1.3973 H   0  0  0  0  0  0  0  0  0  0  0  0
   -4.2060    1.8601   -0.0364 H   0  0  0  0  0  0  0  0  0  0  0  0
   -4.5948    0.3544    0.8074 H   0  0  0  0  0  0  0  0  0  0  0  0
   -2.6567    0.6354   -2.3872 H   0  0  0  0  0  0  0  0  0  0  0  0
   -1.1498    0.1745   -1.6615 H   0  0  0  0  0  0  0  0  0  0  0  0
   -2.5420    2.8853   -1.2999 H   0  0  0  0  0  0  0  0  0  0  0  0
   -1.0347    2.4235   -0.4944 H   0  0  0  0  0  0  0  0  0  0  0  0
   -1.0950    2.5481   -2.2574 H   0  0  0  0  0  0  0  0  0  0  0  0
   -3.0359    1.5275    2.1255 H   0  0  0  0  0  0  0  0  0  0  0  0
   -1.6269    1.1326    4.0865 H   0  0  0  0  0  0  0  0  0  0  0  0
    0.2503   -0.4760    3.9800 H   0  0  0  0  0  0  0  0  0  0  0  0
    2.1337   -3.2452    1.0733 H   0  0  0  0  0  0  0  0  0  0  0  0
    0.5520   -3.0815    0.3636 H   0  0  0  0  0  0  0  0  0  0  0  0
    3.1859    0.1623    1.9365 H   0  0  0  0  0  0  0  0  0  0  0  0
    4.7122   -0.5340    1.3202 H   0  0  0  0  0  0  0  0  0  0  0  0
    3.4661   -1.6002    1.9814 H   0  0  0  0  0  0  0  0  0  0  0  0
    2.6692    0.5997   -1.4654 H   0  0  0  0  0  0  0  0  0  0  0  0
    3.9790    1.0556   -0.3851 H   0  0  0  0  0  0  0  0  0  0  0  0
    4.0470   -1.2173   -2.4681 H   0  0  0  0  0  0  0  0  0  0  0  0
    5.3506   -0.8853   -1.3383 H   0  0  0  0  0  0  0  0  0  0  0  0
   -0.7864   -1.3678   -0.0999 H   0  0  0  0  0  0  0  0  0  0  0  0
  1  2  1  0
  2  3  1  0
  3  4  1  0
  4  5  1  0
  3  6  1  0
  6  7  2  0
  7  8  1  0
  8  9  2  0
  9 10  1  0
 10 11  1  0
 11 12  1  0
 12 13  1  0
 13 14  2  0
 13 15  1  0
 15 16  1  0
 15 17  1  0
 17 18  1  0
 18 19  1  0
 19 20  3  0
 10 21  2  0
 21  6  1  0
  1 22  1  0
  1 23  1  0
  1 24  1  0
  2 25  1  0
  2 26  1  0
  4 27  1  0
  4 28  1  0
  5 29  1  0
  5 30  1  0
  5 31  1  0
  7 32  1  0
  8 33  1  0
  9 34  1  0
 12 35  1  0
 12 36  1  0
 16 37  1  0
 16 38  1  0
 16 39  1  0
 17 40  1  0
 17 41  1  0
 18 42  1  0
 18 43  1  0
 21 44  1  0
M  END
$$$$
