
     RDKit          3D

 71 75  0  0  0  0  0  0  0  0999 V2000
   -0.7852    2.3443   -1.7204 C   0  0  0  0  0  0  0  0  0  0  0  0
   -1.4999    1.8445   -0.5023 C   0  0  0  0  0  0  0  0  0  0  0  0
   -2.7771    1.4122   -0.5730 C   0  0  0  0  0  0  0  0  0  0  0  0
   -3.7025    1.0498    0.5067 C   0  0  0  0  0  0  0  0  0  0  0  0
   -4.2022   -0.3690    0.6937 C   0  0  2  0  0  0  0  0  0  0  0  0
   -3.7910   -1.5309   -0.1669 C   0  0  0  0  0  0  0  0  0  0  0  0
   -2.7987   -2.4589    0.5485 C   0  0  0  0  0  0  0  0  0  0  0  0
   -1.4285   -1.8325    0.7061 C   0  0  2  0  0  0  0  0  0  0  0  0
   -0.5665   -1.8307   -0.5168 C   0  0  0  0  0  0  0  0  0  0  0  0
   -0.7459   -2.2824    1.8826 O   0  0  0  0  0  0  0  0  0  0  0  0
   -1.2113   -0.9238    1.9237 C   0  0  1  0  0  0  0  0  0  0  0  0
   -0.1690    0.0974    2.2714 C   0  0  1  0  0  0  0  0  0  0  0  0
    1.0911   -0.3948    2.9913 C   0  0  1  0  0  0  0  0  0  0  0  0
    1.9081   -1.2271    2.1771 O   0  0  0  0  0  0  0  0  0  0  0  0
    1.8083    0.9309    3.2855 C   0  0  1  0  0  0  0  0  0  0  0  0
    3.3227    0.8410    3.4293 C   0  0  0  0  0  0  0  0  0  0  0  0
    3.6559   -0.2016    4.3396 O   0  0  0  0  0  0  0  0  0  0  0  0
    1.3691    1.9019    2.1597 C   0  0  0  0  0  0  0  0  0  0  0  0
    0.3565    1.1312    1.2405 C   0  0  1  0  0  0  0  0  0  0  0  0
    1.0661    0.4318    0.2104 O   0  0  0  0  0  0  0  0  0  0  0  0
    1.9423    1.0609   -0.5962 C   0  0  0  0  0  0  0  0  0  0  0  0
    2.1064    2.2623   -0.7023 O   0  0  0  0  0  0  0  0  0  0  0  0
    2.6786    0.0278   -1.3542 C   0  0  0  0  0  0  0  0  0  0  0  0
    3.6300    0.3812   -2.2345 C   0  0  0  0  0  0  0  0  0  0  0  0
    4.4343   -0.5703   -3.0180 C   0  0  0  0  0  0  0  0  0  0  0  0
    4.9503   -0.1576   -4.2550 C   0  0  0  0  0  0  0  0  0  0  0  0
    5.7480   -1.0148   -5.0229 C   0  0  0  0  0  0  0  0  0  0  0  0
    6.0498   -2.2924   -4.5549 C   0  0  0  0  0  0  0  0  0  0  0  0
    5.5498   -2.7127   -3.3225 C   0  0  0  0  0  0  0  0  0  0  0  0
    4.7551   -1.8542   -2.5545 C   0  0  0  0  0  0  0  0  0  0  0  0
   -0.8324    2.0486    0.8194 C   0  0  0  0  0  0  0  0  0  0  0  0
   -1.2885    2.9154    1.5743 O   0  0  0  0  0  0  0  0  0  0  0  0
   -5.1633    0.7069    0.2067 C   0  0  0  0  0  0  0  0  0  0  0  0
   -6.2020    1.1741    1.2040 C   0  0  0  0  0  0  0  0  0  0  0  0
   -5.6915    0.6634   -1.2124 C   0  0  0  0  0  0  0  0  0  0  0  0
   -1.4810    2.8079   -2.4286 H   0  0  0  0  0  0  0  0  0  0  0  0
   -0.0754    3.1340   -1.4555 H   0  0  0  0  0  0  0  0  0  0  0  0
   -0.2644    1.5345   -2.2362 H   0  0  0  0  0  0  0  0  0  0  0  0
   -3.1966    1.3755   -1.5780 H   0  0  0  0  0  0  0  0  0  0  0  0
   -3.5393    1.6205    1.4199 H   0  0  0  0  0  0  0  0  0  0  0  0
   -4.3680   -0.7048    1.7158 H   0  0  0  0  0  0  0  0  0  0  0  0
   -3.3636   -1.2155   -1.1251 H   0  0  0  0  0  0  0  0  0  0  0  0
   -4.6926   -2.1139   -0.3962 H   0  0  0  0  0  0  0  0  0  0  0  0
   -2.7051   -3.3911   -0.0259 H   0  0  0  0  0  0  0  0  0  0  0  0
   -3.2000   -2.7472    1.5308 H   0  0  0  0  0  0  0  0  0  0  0  0
   -0.5394   -0.8375   -0.9737 H   0  0  0  0  0  0  0  0  0  0  0  0
    0.4512   -2.1941   -0.3219 H   0  0  0  0  0  0  0  0  0  0  0  0
   -0.9937   -2.4877   -1.2915 H   0  0  0  0  0  0  0  0  0  0  0  0
   -2.0931   -0.7394    2.5325 H   0  0  0  0  0  0  0  0  0  0  0  0
   -0.6972    0.6993    3.0320 H   0  0  0  0  0  0  0  0  0  0  0  0
    0.8460   -0.9419    3.9113 H   0  0  0  0  0  0  0  0  0  0  0  0
    2.6046   -1.5678    2.7702 H   0  0  0  0  0  0  0  0  0  0  0  0
    1.4001    1.3138    4.2359 H   0  0  0  0  0  0  0  0  0  0  0  0
    3.8147    0.6306    2.4706 H   0  0  0  0  0  0  0  0  0  0  0  0
    3.7209    1.7879    3.8234 H   0  0  0  0  0  0  0  0  0  0  0  0
    4.6214   -0.1531    4.4712 H   0  0  0  0  0  0  0  0  0  0  0  0
    0.9008    2.7756    2.6282 H   0  0  0  0  0  0  0  0  0  0  0  0
    2.2452    2.2824    1.6296 H   0  0  0  0  0  0  0  0  0  0  0  0
    2.4157   -1.0057   -1.1554 H   0  0  0  0  0  0  0  0  0  0  0  0
    3.8477    1.4384   -2.4008 H   0  0  0  0  0  0  0  0  0  0  0  0
    4.7273    0.8349   -4.6394 H   0  0  0  0  0  0  0  0  0  0  0  0
    6.1353   -0.6792   -5.9823 H   0  0  0  0  0  0  0  0  0  0  0  0
    6.6777   -2.9578   -5.1450 H   0  0  0  0  0  0  0  0  0  0  0  0
    5.7926   -3.7031   -2.9471 H   0  0  0  0  0  0  0  0  0  0  0  0
    4.4063   -2.2066   -1.5842 H   0  0  0  0  0  0  0  0  0  0  0  0
   -7.0741    0.5134    1.1798 H   0  0  0  0  0  0  0  0  0  0  0  0
   -6.5413    2.1928    0.9685 H   0  0  0  0  0  0  0  0  0  0  0  0
   -5.8194    1.1659    2.2309 H   0  0  0  0  0  0  0  0  0  0  0  0
   -5.0332    0.1337   -1.9010 H   0  0  0  0  0  0  0  0  0  0  0  0
   -5.8400    1.6817   -1.5857 H   0  0  0  0  0  0  0  0  0  0  0  0
   -6.6577    0.1514   -1.2406 H   0  0  0  0  0  0  0  0  0  0  0  0
  1  2  1  0
  2  3  2  3
  3  4  1  0
  4  5  1  0
  5  6  1  0
  6  7  1  0
  7  8  1  0
  8  9  1  6
  8 10  1  0
 10 11  1  0
 11 12  1  0
 12 13  1  0
 13 14  1  0
 13 15  1  0
 15 16  1  0
 16 17  1  0
 15 18  1  0
 18 19  1  0
 19 20  1  6
 20 21  1  0
 21 22  2  0
 21 23  1  0
 23 24  2  0
 24 25  1  0
 25 26  2  0
 26 27  1  0
 27 28  2  0
 28 29  1  0
 29 30  2  0
 19 31  1  0
 31 32  2  0
  5 33  1  0
 33 34  1  0
 33 35  1  0
 31  2  1  0
 33  4  1  0
 11  8  1  0
 19 12  1  0
 30 25  1  0
  1 36  1  0
  1 37  1  0
  1 38  1  0
  3 39  1  0
  4 40  1  0
  5 41  1  1
  6 42  1  0
  6 43  1  0
  7 44  1  0
  7 45  1  0
  9 46  1  0
  9 47  1  0
  9 48  1  0
 11 49  1  1
 12 50  1  1
 13 51  1  1
 14 52  1  0
 15 53  1  1
 16 54  1  0
 16 55  1  0
 17 56  1  0
 18 57  1  0
 18 58  1  0
 23 59  1  0
 24 60  1  0
 26 61  1  0
 27 62  1  0
 28 63  1  0
 29 64  1  0
 30 65  1  0
 34 66  1  0
 34 67  1  0
 34 68  1  0
 35 69  1  0
 35 70  1  0
 35 71  1  0
M  END
$$$$
