
     RDKit          3D

 24 24  0  0  0  0  0  0  0  0999 V2000
   -4.6754   -1.0818   -0.3632 C   0  0  0  0  0  0  0  0  0  0  0  0
   -3.4292   -0.3441   -0.4603 N   0  0  0  0  0  0  0  0  0  0  0  0
   -2.2872   -0.5951    0.2981 C   0  0  0  0  0  0  0  0  0  0  0  0
   -2.2215   -1.7269    1.5264 S   0  0  0  0  0  0  0  0  0  0  0  0
   -1.2874    0.2847   -0.0984 N   0  0  0  0  0  0  0  0  0  0  0  0
    0.1037    0.2888    0.1445 C   0  0  0  0  0  0  0  0  0  0  0  0
    0.8495   -0.8431    0.4697 C   0  0  0  0  0  0  0  0  0  0  0  0
    2.2337   -0.7541    0.6635 C   0  0  0  0  0  0  0  0  0  0  0  0
    2.8965    0.4692    0.5299 C   0  0  0  0  0  0  0  0  0  0  0  0
    4.3829    0.5536    0.7085 C   0  0  0  0  0  0  0  0  0  0  0  0
    2.1582    1.5970    0.1640 C   0  0  0  0  0  0  0  0  0  0  0  0
    0.7759    1.5053   -0.0295 C   0  0  0  0  0  0  0  0  0  0  0  0
   -5.4131   -0.5903   -1.0022 H   0  0  0  0  0  0  0  0  0  0  0  0
   -4.5145   -2.1064   -0.7090 H   0  0  0  0  0  0  0  0  0  0  0  0
   -5.0333   -1.0851    0.6694 H   0  0  0  0  0  0  0  0  0  0  0  0
   -3.2454    0.0644   -1.3668 H   0  0  0  0  0  0  0  0  0  0  0  0
   -1.6542    1.1533   -0.4644 H   0  0  0  0  0  0  0  0  0  0  0  0
    0.3942   -1.8240    0.5465 H   0  0  0  0  0  0  0  0  0  0  0  0
    2.7889   -1.6557    0.9140 H   0  0  0  0  0  0  0  0  0  0  0  0
    4.8859    0.3630   -0.2445 H   0  0  0  0  0  0  0  0  0  0  0  0
    4.6769    1.5438    1.0722 H   0  0  0  0  0  0  0  0  0  0  0  0
    4.7298   -0.1787    1.4450 H   0  0  0  0  0  0  0  0  0  0  0  0
    2.6520    2.5566    0.0287 H   0  0  0  0  0  0  0  0  0  0  0  0
    0.2332    2.4056   -0.3054 H   0  0  0  0  0  0  0  0  0  0  0  0
  1  2  1  0
  2  3  1  0
  3  4  2  0
  3  5  1  0
  5  6  1  0
  6  7  2  0
  7  8  1  0
  8  9  2  0
  9 10  1  0
  9 11  1  0
 11 12  2  0
 12  6  1  0
  1 13  1  0
  1 14  1  0
  1 15  1  0
  2 16  1  0
  5 17  1  0
  7 18  1  0
  8 19  1  0
 10 20  1  0
 10 21  1  0
 10 22  1  0
 11 23  1  0
 12 24  1  0
M  END
$$$$
