
     RDKit          3D

 42 44  0  0  0  0  0  0  0  0999 V2000
   -8.2718   -1.6707    0.2619 C   0  0  0  0  0  0  0  0  0  0  0  0
   -7.6307   -0.3193    0.0834 C   0  0  0  0  0  0  0  0  0  0  0  0
   -8.3140    0.6954   -0.0374 O   0  0  0  0  0  0  0  0  0  0  0  0
   -6.1404   -0.2244    0.0542 C   0  0  0  0  0  0  0  0  0  0  0  0
   -5.5521    1.0350   -0.1067 C   0  0  0  0  0  0  0  0  0  0  0  0
   -4.1586    1.1745   -0.1400 C   0  0  0  0  0  0  0  0  0  0  0  0
   -3.3322    0.0585   -0.0107 C   0  0  0  0  0  0  0  0  0  0  0  0
   -1.9230    0.1109   -0.0389 N   0  0  0  0  0  0  0  0  0  0  0  0
   -1.1276    1.2410   -0.1079 C   0  0  0  0  0  0  0  0  0  0  0  0
   -1.5034    2.4066   -0.0870 O   0  0  0  0  0  0  0  0  0  0  0  0
    0.3387    0.9767   -0.1678 C   0  0  0  0  0  0  0  0  0  0  0  0
    0.8677   -0.1292   -0.8406 C   0  0  0  0  0  0  0  0  0  0  0  0
    2.2528   -0.3407   -0.8701 C   0  0  0  0  0  0  0  0  0  0  0  0
    3.1245    0.5509   -0.2403 C   0  0  0  0  0  0  0  0  0  0  0  0
    4.5285    0.4120   -0.2242 N   0  0  0  0  0  0  0  0  0  0  0  0
    5.2891   -0.6290   -0.7438 C   0  0  0  0  0  0  0  0  0  0  0  0
    4.8122   -1.6247   -1.2810 O   0  0  0  0  0  0  0  0  0  0  0  0
    6.7282   -0.4487   -0.5856 C   0  0  0  0  0  0  0  0  0  0  0  0
    7.5211    0.5800   -0.0992 C   0  0  0  0  0  0  0  0  0  0  0  0
    8.8690    0.1539   -0.2090 C   0  0  0  0  0  0  0  0  0  0  0  0
    8.8269   -1.1045   -0.7552 C   0  0  0  0  0  0  0  0  0  0  0  0
    7.5447   -1.4767   -0.9870 O   0  0  0  0  0  0  0  0  0  0  0  0
    2.5889    1.6702    0.4106 C   0  0  0  0  0  0  0  0  0  0  0  0
    1.2072    1.8848    0.4448 C   0  0  0  0  0  0  0  0  0  0  0  0
   -3.9229   -1.2021    0.1460 C   0  0  0  0  0  0  0  0  0  0  0  0
   -5.3161   -1.3462    0.1800 C   0  0  0  0  0  0  0  0  0  0  0  0
   -7.9753   -2.1076    1.2190 H   0  0  0  0  0  0  0  0  0  0  0  0
   -9.3602   -1.5543    0.2658 H   0  0  0  0  0  0  0  0  0  0  0  0
   -8.0049   -2.3294   -0.5685 H   0  0  0  0  0  0  0  0  0  0  0  0
   -6.1734    1.9236   -0.2092 H   0  0  0  0  0  0  0  0  0  0  0  0
   -3.7548    2.1737   -0.2731 H   0  0  0  0  0  0  0  0  0  0  0  0
   -1.4495   -0.7763    0.0695 H   0  0  0  0  0  0  0  0  0  0  0  0
    0.2272   -0.8237   -1.3777 H   0  0  0  0  0  0  0  0  0  0  0  0
    2.6158   -1.2089   -1.4124 H   0  0  0  0  0  0  0  0  0  0  0  0
    5.0321    1.1498    0.2452 H   0  0  0  0  0  0  0  0  0  0  0  0
    7.1867    1.5324    0.2855 H   0  0  0  0  0  0  0  0  0  0  0  0
    9.7606    0.6973    0.0717 H   0  0  0  0  0  0  0  0  0  0  0  0
    9.5802   -1.8304   -1.0293 H   0  0  0  0  0  0  0  0  0  0  0  0
    3.2338    2.3948    0.9018 H   0  0  0  0  0  0  0  0  0  0  0  0
    0.8096    2.7622    0.9520 H   0  0  0  0  0  0  0  0  0  0  0  0
   -3.3082   -2.0936    0.2464 H   0  0  0  0  0  0  0  0  0  0  0  0
   -5.7265   -2.3437    0.3050 H   0  0  0  0  0  0  0  0  0  0  0  0
  1  2  1  0
  2  3  2  0
  2  4  1  0
  4  5  2  0
  5  6  1  0
  6  7  2  0
  7  8  1  0
  8  9  1  0
  9 10  2  0
  9 11  1  0
 11 12  2  0
 12 13  1  0
 13 14  2  0
 14 15  1  0
 15 16  1  0
 16 17  2  0
 16 18  1  0
 18 19  2  0
 19 20  1  0
 20 21  2  0
 21 22  1  0
 14 23  1  0
 23 24  2  0
  7 25  1  0
 25 26  2  0
 26  4  1  0
 24 11  1  0
 22 18  1  0
  1 27  1  0
  1 28  1  0
  1 29  1  0
  5 30  1  0
  6 31  1  0
  8 32  1  0
 12 33  1  0
 13 34  1  0
 15 35  1  0
 19 36  1  0
 20 37  1  0
 21 38  1  0
 23 39  1  0
 24 40  1  0
 25 41  1  0
 26 42  1  0
M  END
$$$$
