
     RDKit          3D

 39 41  0  0  0  0  0  0  0  0999 V2000
   -4.3853    0.5478   -2.3935 C   0  0  0  0  0  0  0  0  0  0  0  0
   -3.9519    0.5750   -0.9566 C   0  0  0  0  0  0  0  0  0  0  0  0
   -4.8796    0.8505    0.0510 C   0  0  0  0  0  0  0  0  0  0  0  0
   -4.5137    0.8381    1.4002 C   0  0  0  0  0  0  0  0  0  0  0  0
   -3.1837    0.5359    1.7123 C   0  0  0  0  0  0  0  0  0  0  0  0
   -2.5700    0.4359    2.9385 N   0  0  0  0  0  0  0  0  0  0  0  0
   -1.2454    0.0996    2.7940 C   0  0  0  0  0  0  0  0  0  0  0  0
   -0.3654   -0.0771    3.9788 C   0  0  0  0  0  0  0  0  0  0  0  0
   -0.9948    0.0031    1.4362 C   0  0  0  0  0  0  0  0  0  0  0  0
    0.2888   -0.3224    0.8966 C   0  0  0  0  0  0  0  0  0  0  0  0
    0.8161    0.2246   -0.2117 C   0  0  0  0  0  0  0  0  0  0  0  0
    2.1370   -0.1115   -0.7530 C   0  0  0  0  0  0  0  0  0  0  0  0
    3.2483   -0.3203    0.0624 C   0  0  0  0  0  0  0  0  0  0  0  0
    4.4817   -0.6072   -0.5121 C   0  0  0  0  0  0  0  0  0  0  0  0
    4.6177   -0.6723   -1.8551 N   0  0  0  0  0  4  0  0  0  0  0  0
    5.9314   -0.9903   -2.4402 C   0  0  0  0  0  0  0  0  0  0  0  0
    3.5567   -0.4663   -2.6665 C   0  0  0  0  0  0  0  0  0  0  0  0
    2.3054   -0.1745   -2.1353 C   0  0  0  0  0  0  0  0  0  0  0  0
   -2.2212    0.2578    0.7423 C   0  0  0  0  0  0  0  0  0  0  0  0
   -2.6253    0.2616   -0.6126 C   0  0  0  0  0  0  0  0  0  0  0  0
   -4.7342   -0.4546   -2.6598 H   0  0  0  0  0  0  0  0  0  0  0  0
   -5.1943    1.2641   -2.5714 H   0  0  0  0  0  0  0  0  0  0  0  0
   -3.5578    0.8225   -3.0561 H   0  0  0  0  0  0  0  0  0  0  0  0
   -5.9135    1.0740   -0.2071 H   0  0  0  0  0  0  0  0  0  0  0  0
   -5.2458    1.0481    2.1737 H   0  0  0  0  0  0  0  0  0  0  0  0
   -3.0423    0.5814    3.8204 H   0  0  0  0  0  0  0  0  0  0  0  0
    0.5269    0.5509    3.8904 H   0  0  0  0  0  0  0  0  0  0  0  0
   -0.8772    0.1964    4.9073 H   0  0  0  0  0  0  0  0  0  0  0  0
   -0.0471   -1.1210    4.0626 H   0  0  0  0  0  0  0  0  0  0  0  0
    0.8604   -1.0557    1.4605 H   0  0  0  0  0  0  0  0  0  0  0  0
    0.2489    0.9704   -0.7663 H   0  0  0  0  0  0  0  0  0  0  0  0
    3.1683   -0.2518    1.1455 H   0  0  0  0  0  0  0  0  0  0  0  0
    5.3656   -0.7823    0.0949 H   0  0  0  0  0  0  0  0  0  0  0  0
    6.0162   -0.5050   -3.4159 H   0  0  0  0  0  0  0  0  0  0  0  0
    6.7181   -0.6150   -1.7806 H   0  0  0  0  0  0  0  0  0  0  0  0
    5.9909   -2.0769   -2.5388 H   0  0  0  0  0  0  0  0  0  0  0  0
    3.7183   -0.5367   -3.7386 H   0  0  0  0  0  0  0  0  0  0  0  0
    1.4639   -0.0083   -2.8059 H   0  0  0  0  0  0  0  0  0  0  0  0
   -1.9122    0.0116   -1.3911 H   0  0  0  0  0  0  0  0  0  0  0  0
  1  2  1  0
  2  3  2  0
  3  4  1  0
  4  5  2  0
  5  6  1  0
  6  7  1  0
  7  8  1  0
  7  9  2  0
  9 10  1  0
 10 11  2  3
 11 12  1  0
 12 13  2  0
 13 14  1  0
 14 15  2  0
 15 16  1  0
 15 17  1  0
 17 18  2  0
  9 19  1  0
 19 20  2  0
 20  2  1  0
 19  5  1  0
 18 12  1  0
  1 21  1  0
  1 22  1  0
  1 23  1  0
  3 24  1  0
  4 25  1  0
  6 26  1  0
  8 27  1  0
  8 28  1  0
  8 29  1  0
 10 30  1  0
 11 31  1  0
 13 32  1  0
 14 33  1  0
 16 34  1  0
 16 35  1  0
 16 36  1  0
 17 37  1  0
 18 38  1  0
 20 39  1  0
M  CHG  1  15   1
M  END
$$$$
