
     RDKit          3D

 56 61  0  0  0  0  0  0  0  0999 V2000
   -5.6860   -1.6066    2.8002 C   0  0  0  0  0  0  0  0  0  0  0  0
   -4.7552   -1.7523    1.6342 C   0  0  0  0  0  0  0  0  0  0  0  0
   -5.2193   -2.1509    0.3663 C   0  0  0  0  0  0  0  0  0  0  0  0
   -6.8935   -2.4951    0.0915 Cl  0  0  0  0  0  0  0  0  0  0  0  0
   -4.3469   -2.2857   -0.7321 C   0  0  0  0  0  0  0  0  0  0  0  0
   -2.9830   -2.0244   -0.5988 C   0  0  0  0  0  0  0  0  0  0  0  0
   -2.5145   -1.6256    0.6438 C   0  0  0  0  0  0  0  0  0  0  0  0
   -3.3922   -1.4970    1.7315 C   0  0  0  0  0  0  0  0  0  0  0  0
   -2.6826   -1.0871    2.8581 N   0  0  0  0  0  0  0  0  0  0  0  0
   -1.3240   -0.9112    2.5851 C   0  0  0  0  0  0  0  0  0  0  0  0
   -0.5001   -0.5362    3.4068 O   0  0  0  0  0  0  0  0  0  0  0  0
   -1.1188   -1.2827    1.0932 C   0  0  0  0  0  0  0  0  0  0  0  0
   -0.1242   -2.4045    0.9145 N   0  0  0  0  0  0  0  0  0  0  0  0
    1.1680   -1.8109    0.3833 C   0  0  2  0  0  0  0  0  0  0  0  0
    2.1931   -1.7037    1.5277 C   0  0  0  0  0  0  0  0  0  0  0  0
    3.5812   -1.3003    1.0803 C   0  0  0  0  0  0  0  0  0  0  0  0
    4.3834   -2.1865    0.3487 C   0  0  0  0  0  0  0  0  0  0  0  0
    5.6636   -1.8087   -0.0600 C   0  0  0  0  0  0  0  0  0  0  0  0
    6.1551   -0.5446    0.2607 C   0  0  0  0  0  0  0  0  0  0  0  0
    5.3677    0.3431    0.9913 C   0  0  0  0  0  0  0  0  0  0  0  0
    4.0871   -0.0325    1.3999 C   0  0  0  0  0  0  0  0  0  0  0  0
    0.7103   -0.5129   -0.1613 C   0  0  0  0  0  0  0  0  0  0  0  0
   -0.5758   -0.1966    0.2676 C   0  0  0  0  0  0  0  0  0  0  0  0
   -0.9282    1.0223   -0.2478 C   0  0  0  0  0  0  0  0  0  0  0  0
   -2.0985    1.6507   -0.1455 O   0  0  0  0  0  0  0  0  0  0  0  0
    0.1694    1.4807   -1.0017 N   0  0  0  0  0  0  0  0  0  0  0  0
    0.2487    2.7279   -1.6881 C   0  0  0  0  0  0  0  0  0  0  0  0
   -0.2791    3.8855   -1.1000 C   0  0  0  0  0  0  0  0  0  0  0  0
   -0.1980    5.1068   -1.7713 C   0  0  0  0  0  0  0  0  0  0  0  0
    0.4053    5.1767   -3.0263 C   0  0  0  0  0  0  0  0  0  0  0  0
    0.9322    4.0271   -3.6135 C   0  0  0  0  0  0  0  0  0  0  0  0
    0.8582    2.8024   -2.9473 C   0  0  0  0  0  0  0  0  0  0  0  0
    1.1693    0.4920   -0.9678 C   0  0  0  0  0  0  0  0  0  0  0  0
    2.3558    0.5910   -1.5619 O   0  0  0  0  0  0  0  0  0  0  0  0
   -6.1948   -2.5550    3.0022 H   0  0  0  0  0  0  0  0  0  0  0  0
   -6.4305   -0.8302    2.5962 H   0  0  0  0  0  0  0  0  0  0  0  0
   -5.1664   -1.3227    3.7193 H   0  0  0  0  0  0  0  0  0  0  0  0
   -4.7369   -2.5930   -1.7003 H   0  0  0  0  0  0  0  0  0  0  0  0
   -2.3155   -2.1181   -1.4498 H   0  0  0  0  0  0  0  0  0  0  0  0
   -3.0644   -0.9023    3.7722 H   0  0  0  0  0  0  0  0  0  0  0  0
   -0.4881   -2.9808    0.1583 H   0  0  0  0  0  0  0  0  0  0  0  0
    1.5407   -2.4600   -0.4175 H   0  0  0  0  0  0  0  0  0  0  0  0
    1.8453   -1.0014    2.2955 H   0  0  0  0  0  0  0  0  0  0  0  0
    2.2819   -2.6750    2.0338 H   0  0  0  0  0  0  0  0  0  0  0  0
    4.0169   -3.1783    0.0953 H   0  0  0  0  0  0  0  0  0  0  0  0
    6.2779   -2.5022   -0.6277 H   0  0  0  0  0  0  0  0  0  0  0  0
    7.1523   -0.2526   -0.0565 H   0  0  0  0  0  0  0  0  0  0  0  0
    5.7501    1.3277    1.2455 H   0  0  0  0  0  0  0  0  0  0  0  0
    3.4817    0.6704    1.9682 H   0  0  0  0  0  0  0  0  0  0  0  0
   -2.1832    2.2901   -0.8751 H   0  0  0  0  0  0  0  0  0  0  0  0
   -0.7125    3.8679   -0.1013 H   0  0  0  0  0  0  0  0  0  0  0  0
   -0.5950    6.0080   -1.3097 H   0  0  0  0  0  0  0  0  0  0  0  0
    0.4670    6.1295   -3.5469 H   0  0  0  0  0  0  0  0  0  0  0  0
    1.3942    4.0835   -4.5965 H   0  0  0  0  0  0  0  0  0  0  0  0
    1.2407    1.9142   -3.4471 H   0  0  0  0  0  0  0  0  0  0  0  0
    2.6100    1.5301   -1.6031 H   0  0  0  0  0  0  0  0  0  0  0  0
  1  2  1  0
  2  3  2  0
  3  4  1  0
  3  5  1  0
  5  6  2  0
  6  7  1  0
  7  8  2  0
  8  9  1  0
  9 10  1  0
 10 11  2  0
 10 12  1  0
 12 13  1  0
 13 14  1  0
 14 15  1  0
 15 16  1  0
 16 17  2  0
 17 18  1  0
 18 19  2  0
 19 20  1  0
 20 21  2  0
 14 22  1  0
 22 23  1  0
 23 24  2  0
 24 25  1  0
 24 26  1  0
 26 27  1  0
 27 28  2  0
 28 29  1  0
 29 30  2  0
 30 31  1  0
 31 32  2  0
 26 33  1  0
 33 34  1  0
  8  2  1  0
 23 12  1  0
 32 27  1  0
 12  7  1  0
 21 16  1  0
 33 22  2  0
  1 35  1  0
  1 36  1  0
  1 37  1  0
  5 38  1  0
  6 39  1  0
  9 40  1  0
 13 41  1  0
 14 42  1  6
 15 43  1  0
 15 44  1  0
 17 45  1  0
 18 46  1  0
 19 47  1  0
 20 48  1  0
 21 49  1  0
 25 50  1  0
 28 51  1  0
 29 52  1  0
 30 53  1  0
 31 54  1  0
 32 55  1  0
 34 56  1  0
M  END
$$$$
