
     RDKit          3D

 69 74  0  0  0  0  0  0  0  0999 V2000
    7.4305   -1.4063   -0.9260 C   0  0  0  0  0  0  0  0  0  0  0  0
    6.5919   -1.7919    0.1528 O   0  0  0  0  0  0  0  0  0  0  0  0
    5.2570   -1.4797    0.0657 C   0  0  0  0  0  0  0  0  0  0  0  0
    4.6781   -0.7699   -0.9925 C   0  0  0  0  0  0  0  0  0  0  0  0
    3.3024   -0.4927   -1.0030 C   0  0  0  0  0  0  0  0  0  0  0  0
    2.4965   -0.9120    0.0701 C   0  0  0  0  0  0  0  0  0  0  0  0
    3.0786   -1.6341    1.1256 C   0  0  0  0  0  0  0  0  0  0  0  0
    4.4505   -1.9128    1.1360 C   0  0  0  0  0  0  0  0  0  0  0  0
    5.0930   -2.6043    2.1339 O   0  0  0  0  0  0  0  0  0  0  0  0
    4.3410   -2.9474    3.2888 C   0  0  0  0  0  0  0  0  0  0  0  0
    1.0006   -0.6517    0.0810 C   0  0  0  0  0  0  0  0  0  0  0  0
    0.6537    0.4521   -0.8308 N   0  0  0  0  0  0  0  0  0  0  0  0
   -0.7420    0.6350   -0.8175 C   0  0  0  0  0  0  0  0  0  0  0  0
   -1.5157   -0.0271   -1.7090 N   0  0  0  0  0  0  0  0  0  0  0  0
   -2.8576    0.1092   -1.6689 C   0  0  0  0  0  0  0  0  0  0  0  0
   -3.6711   -0.6862   -2.6853 C   0  0  0  0  0  0  0  0  0  0  0  0
   -3.9167   -2.1032   -2.3264 N   0  0  0  0  0  0  0  0  0  0  0  0
   -4.5841   -2.8322   -3.4247 C   0  0  0  0  0  0  0  0  0  0  0  0
   -6.0988   -2.9969   -3.2225 C   0  0  0  0  0  0  0  0  0  0  0  0
   -6.4352   -3.6964   -2.0177 O   0  0  0  0  0  0  0  0  0  0  0  0
   -5.4494   -3.5490   -0.9863 C   0  0  0  0  0  0  0  0  0  0  0  0
   -4.6988   -2.2120   -1.0740 C   0  0  0  0  0  0  0  0  0  0  0  0
   -3.5453    0.8635   -0.7996 N   0  0  0  0  0  0  0  0  0  0  0  0
   -2.7551    1.5319    0.0537 C   0  0  0  0  0  0  0  0  0  0  0  0
   -3.4434    2.5574    1.2285 S   0  0  0  0  0  0  0  0  0  0  0  0
   -1.9138    2.9982    1.8234 C   0  0  0  0  0  0  0  0  0  0  0  0
   -0.8799    2.3815    1.1425 C   0  0  0  0  0  0  0  0  0  0  0  0
   -1.3711    1.4916    0.1128 C   0  0  0  0  0  0  0  0  0  0  0  0
    0.5571    2.6453    1.4932 C   0  0  0  0  0  0  0  0  0  0  0  0
    0.7178    3.9120    2.3495 C   0  0  0  0  0  0  0  0  0  0  0  0
   -0.3162    3.9589    3.4936 C   0  0  0  0  0  0  0  0  0  0  0  0
   -0.0675    5.1622    4.4009 C   0  0  0  0  0  0  0  0  0  0  0  0
   -1.7558    3.9904    2.9351 C   0  0  0  0  0  0  0  0  0  0  0  0
    1.1808    0.2225   -2.1833 C   0  0  0  0  0  0  0  0  0  0  0  0
    2.7093    0.3214   -2.1310 C   0  0  0  0  0  0  0  0  0  0  0  0
    8.4430   -1.7554   -0.7029 H   0  0  0  0  0  0  0  0  0  0  0  0
    7.4695   -0.3168   -1.0256 H   0  0  0  0  0  0  0  0  0  0  0  0
    7.1158   -1.8789   -1.8621 H   0  0  0  0  0  0  0  0  0  0  0  0
    5.2784   -0.4126   -1.8230 H   0  0  0  0  0  0  0  0  0  0  0  0
    2.4352   -1.9706    1.9324 H   0  0  0  0  0  0  0  0  0  0  0  0
    5.0218   -3.4219    4.0025 H   0  0  0  0  0  0  0  0  0  0  0  0
    3.5568   -3.6724    3.0458 H   0  0  0  0  0  0  0  0  0  0  0  0
    3.9233   -2.0572    3.7711 H   0  0  0  0  0  0  0  0  0  0  0  0
    0.4914   -1.5809   -0.2092 H   0  0  0  0  0  0  0  0  0  0  0  0
    0.6999   -0.4005    1.1049 H   0  0  0  0  0  0  0  0  0  0  0  0
   -3.1070   -0.6498   -3.6263 H   0  0  0  0  0  0  0  0  0  0  0  0
   -4.6194   -0.1644   -2.8697 H   0  0  0  0  0  0  0  0  0  0  0  0
   -4.3842   -2.3714   -4.3999 H   0  0  0  0  0  0  0  0  0  0  0  0
   -4.1324   -3.8320   -3.4619 H   0  0  0  0  0  0  0  0  0  0  0  0
   -6.5960   -2.0196   -3.2001 H   0  0  0  0  0  0  0  0  0  0  0  0
   -6.5287   -3.5605   -4.0574 H   0  0  0  0  0  0  0  0  0  0  0  0
   -5.9694   -3.6268   -0.0259 H   0  0  0  0  0  0  0  0  0  0  0  0
   -4.7552   -4.3950   -1.0497 H   0  0  0  0  0  0  0  0  0  0  0  0
   -5.4410   -1.4060   -1.0117 H   0  0  0  0  0  0  0  0  0  0  0  0
   -4.0229   -2.1214   -0.2172 H   0  0  0  0  0  0  0  0  0  0  0  0
    0.9449    1.7860    2.0532 H   0  0  0  0  0  0  0  0  0  0  0  0
    1.1624    2.7536    0.5863 H   0  0  0  0  0  0  0  0  0  0  0  0
    0.5983    4.7990    1.7129 H   0  0  0  0  0  0  0  0  0  0  0  0
    1.7373    3.9433    2.7523 H   0  0  0  0  0  0  0  0  0  0  0  0
   -0.1963    3.0489    4.0981 H   0  0  0  0  0  0  0  0  0  0  0  0
    0.9338    5.1143    4.8408 H   0  0  0  0  0  0  0  0  0  0  0  0
   -0.7930    5.1863    5.2207 H   0  0  0  0  0  0  0  0  0  0  0  0
   -0.1490    6.1036    3.8473 H   0  0  0  0  0  0  0  0  0  0  0  0
   -2.4647    3.7799    3.7454 H   0  0  0  0  0  0  0  0  0  0  0  0
   -1.9871    4.9909    2.5468 H   0  0  0  0  0  0  0  0  0  0  0  0
    0.8090    0.9806   -2.8847 H   0  0  0  0  0  0  0  0  0  0  0  0
    0.8824   -0.7644   -2.5646 H   0  0  0  0  0  0  0  0  0  0  0  0
    2.9981    1.3685   -1.9746 H   0  0  0  0  0  0  0  0  0  0  0  0
    3.1239   -0.0033   -3.0920 H   0  0  0  0  0  0  0  0  0  0  0  0
  1  2  1  0
  2  3  1  0
  3  4  2  0
  4  5  1  0
  5  6  2  0
  6  7  1  0
  7  8  2  0
  8  9  1  0
  9 10  1  0
  6 11  1  0
 11 12  1  0
 12 13  1  0
 13 14  2  0
 14 15  1  0
 15 16  1  0
 16 17  1  0
 17 18  1  0
 18 19  1  0
 19 20  1  0
 20 21  1  0
 21 22  1  0
 15 23  2  0
 23 24  1  0
 24 25  1  0
 25 26  1  0
 26 27  2  0
 27 28  1  0
 27 29  1  0
 29 30  1  0
 30 31  1  0
 31 32  1  0
 31 33  1  0
 12 34  1  0
 34 35  1  0
  8  3  1  0
 28 13  1  0
 35  5  1  0
 22 17  1  0
 28 24  2  0
 33 26  1  0
  1 36  1  0
  1 37  1  0
  1 38  1  0
  4 39  1  0
  7 40  1  0
 10 41  1  0
 10 42  1  0
 10 43  1  0
 11 44  1  0
 11 45  1  0
 16 46  1  0
 16 47  1  0
 18 48  1  0
 18 49  1  0
 19 50  1  0
 19 51  1  0
 21 52  1  0
 21 53  1  0
 22 54  1  0
 22 55  1  0
 29 56  1  0
 29 57  1  0
 30 58  1  0
 30 59  1  0
 31 60  1  0
 32 61  1  0
 32 62  1  0
 32 63  1  0
 33 64  1  0
 33 65  1  0
 34 66  1  0
 34 67  1  0
 35 68  1  0
 35 69  1  0
M  END
$$$$
