
     RDKit          3D

 22 22  0  0  0  0  0  0  0  0999 V2000
    1.5999    0.4474   -2.0283 N   0  0  0  0  0  0  0  0  0  0  0  0
    2.3996    0.0499   -1.1082 C   0  0  0  0  0  0  0  0  0  0  0  0
    3.6337    0.5629   -0.9155 N   0  0  0  0  0  0  0  0  0  0  0  0
    1.9714   -1.2287   -0.0141 S   0  0  0  0  0  0  0  0  0  0  0  0
    0.2430   -1.5444   -0.4453 C   0  0  0  0  0  0  0  0  0  0  0  0
   -0.6822   -0.6932    0.3737 C   0  0  0  0  0  0  0  0  0  0  0  0
   -1.3961   -1.1310    1.4252 C   0  0  0  0  0  0  0  0  0  0  0  0
   -2.3041   -0.1508    2.0974 C   0  0  0  0  0  0  0  0  0  0  0  0
   -2.1496    1.3296    1.1064 S   0  0  0  0  0  6  0  0  0  0  0  0
   -3.3866    1.5224    0.3714 O   0  0  0  0  0  0  0  0  0  0  0  0
   -1.5928    2.3854    1.9319 O   0  0  0  0  0  0  0  0  0  0  0  0
   -0.8908    0.7437   -0.0238 C   0  0  0  0  0  0  0  0  0  0  0  0
    2.0420    1.2167   -2.5373 H   0  0  0  0  0  0  0  0  0  0  0  0
    4.0955    0.9410   -1.7314 H   0  0  0  0  0  0  0  0  0  0  0  0
    4.2364   -0.0289   -0.3536 H   0  0  0  0  0  0  0  0  0  0  0  0
    0.0444   -1.4327   -1.5158 H   0  0  0  0  0  0  0  0  0  0  0  0
    0.0576   -2.6018   -0.2222 H   0  0  0  0  0  0  0  0  0  0  0  0
   -1.3367   -2.1501    1.7920 H   0  0  0  0  0  0  0  0  0  0  0  0
   -1.9783    0.0621    3.1176 H   0  0  0  0  0  0  0  0  0  0  0  0
   -3.3433   -0.4852    2.0789 H   0  0  0  0  0  0  0  0  0  0  0  0
    0.0053    1.3491    0.1261 H   0  0  0  0  0  0  0  0  0  0  0  0
   -1.2685    0.8365   -1.0445 H   0  0  0  0  0  0  0  0  0  0  0  0
  1  2  2  3
  2  3  1  0
  2  4  1  0
  4  5  1  0
  5  6  1  0
  6  7  2  0
  7  8  1  0
  8  9  1  0
  9 10  2  0
  9 11  2  0
  9 12  1  0
 12  6  1  0
  1 13  1  0
  3 14  1  0
  3 15  1  0
  5 16  1  0
  5 17  1  0
  7 18  1  0
  8 19  1  0
  8 20  1  0
 12 21  1  0
 12 22  1  0
M  END
$$$$
