
     RDKit          3D

 35 36  0  0  0  0  0  0  0  0999 V2000
   -5.1257    1.4654   -2.0043 C   0  0  0  0  0  0  0  0  0  0  0  0
   -4.7265    0.1603   -1.3674 C   0  0  0  0  0  0  0  0  0  0  0  0
   -5.3171   -0.8853   -1.6302 O   0  0  0  0  0  0  0  0  0  0  0  0
   -3.5864    0.1422   -0.4033 C   0  0  0  0  0  0  0  0  0  0  0  0
   -2.8246    1.2817   -0.1232 C   0  0  0  0  0  0  0  0  0  0  0  0
   -1.7635    1.2108    0.7870 C   0  0  0  0  0  0  0  0  0  0  0  0
   -1.4546    0.0060    1.4173 C   0  0  0  0  0  0  0  0  0  0  0  0
   -0.3731   -0.0943    2.3346 N   0  0  0  0  0  0  0  0  0  0  0  0
    1.2040    0.2430    1.8260 S   0  0  0  0  0  6  0  0  0  0  0  0
    1.2366    1.5769    1.2649 O   0  0  0  0  0  0  0  0  0  0  0  0
    2.0346   -0.1217    2.9562 O   0  0  0  0  0  0  0  0  0  0  0  0
    1.4462   -0.9719    0.5163 C   0  0  0  0  0  0  0  0  0  0  0  0
    2.8607   -0.8735    0.0035 C   0  0  0  0  0  0  0  0  0  0  0  0
    3.1787    0.0087   -1.0406 C   0  0  0  0  0  0  0  0  0  0  0  0
    4.4894    0.1034   -1.5139 C   0  0  0  0  0  0  0  0  0  0  0  0
    5.4900   -0.6805   -0.9449 C   0  0  0  0  0  0  0  0  0  0  0  0
    7.1040   -0.5646   -1.5294 Cl  0  0  0  0  0  0  0  0  0  0  0  0
    5.1917   -1.5560    0.0963 C   0  0  0  0  0  0  0  0  0  0  0  0
    3.8813   -1.6518    0.5706 C   0  0  0  0  0  0  0  0  0  0  0  0
   -2.2163   -1.1311    1.1508 C   0  0  0  0  0  0  0  0  0  0  0  0
   -3.2754   -1.0639    0.2406 C   0  0  0  0  0  0  0  0  0  0  0  0
   -6.0113    1.3049   -2.6272 H   0  0  0  0  0  0  0  0  0  0  0  0
   -4.3204    1.8350   -2.6442 H   0  0  0  0  0  0  0  0  0  0  0  0
   -5.3837    2.1999   -1.2370 H   0  0  0  0  0  0  0  0  0  0  0  0
   -3.0320    2.2389   -0.5933 H   0  0  0  0  0  0  0  0  0  0  0  0
   -1.1952    2.1124    1.0072 H   0  0  0  0  0  0  0  0  0  0  0  0
   -0.4046   -0.8392    3.0309 H   0  0  0  0  0  0  0  0  0  0  0  0
    1.2478   -1.9648    0.9319 H   0  0  0  0  0  0  0  0  0  0  0  0
    0.7319   -0.7686   -0.2867 H   0  0  0  0  0  0  0  0  0  0  0  0
    2.4111    0.6389   -1.4873 H   0  0  0  0  0  0  0  0  0  0  0  0
    4.7231    0.7938   -2.3201 H   0  0  0  0  0  0  0  0  0  0  0  0
    5.9740   -2.1609    0.5473 H   0  0  0  0  0  0  0  0  0  0  0  0
    3.6690   -2.3308    1.3948 H   0  0  0  0  0  0  0  0  0  0  0  0
   -2.0014   -2.0779    1.6388 H   0  0  0  0  0  0  0  0  0  0  0  0
   -3.8623   -1.9591    0.0379 H   0  0  0  0  0  0  0  0  0  0  0  0
  1  2  1  0
  2  3  2  0
  2  4  1  0
  4  5  2  0
  5  6  1  0
  6  7  2  0
  7  8  1  0
  8  9  1  0
  9 10  2  0
  9 11  2  0
  9 12  1  0
 12 13  1  0
 13 14  2  0
 14 15  1  0
 15 16  2  0
 16 17  1  0
 16 18  1  0
 18 19  2  0
  7 20  1  0
 20 21  2  0
 21  4  1  0
 19 13  1  0
  1 22  1  0
  1 23  1  0
  1 24  1  0
  5 25  1  0
  6 26  1  0
  8 27  1  0
 12 28  1  0
 12 29  1  0
 14 30  1  0
 15 31  1  0
 18 32  1  0
 19 33  1  0
 20 34  1  0
 21 35  1  0
M  END
$$$$
