
     RDKit          3D

 37 38  0  0  0  0  0  0  0  0999 V2000
   -3.8320    1.3051   -2.1721 C   0  0  0  0  0  0  0  0  0  0  0  0
   -3.4431    1.0335   -0.7843 N   0  0  0  0  0  0  0  0  0  0  0  0
   -4.5192    1.2100    0.1934 C   0  0  0  0  0  0  0  0  0  0  0  0
   -2.4855    0.0325   -0.5660 C   0  0  0  0  0  0  0  0  0  0  0  0
   -2.4279   -0.7125    0.6253 C   0  0  0  0  0  0  0  0  0  0  0  0
   -1.4478   -1.6905    0.8514 C   0  0  0  0  0  0  0  0  0  0  0  0
   -0.4701   -1.9412   -0.1073 C   0  0  0  0  0  0  0  0  0  0  0  0
    0.5810   -2.9267    0.1595 C   0  0  0  0  0  0  0  0  0  0  0  0
    1.8825   -2.6470    0.3473 C   0  0  0  0  0  0  0  0  0  0  0  0
    2.4759   -1.3057    0.3431 C   0  0  0  0  0  0  0  0  0  0  0  0
    3.5074   -1.0105   -0.5436 C   0  0  0  0  0  0  0  0  0  0  0  0
    4.0450    0.2715   -0.5664 C   0  0  0  0  0  0  0  0  0  0  0  0
    3.5849    1.2276    0.2714 N   0  0  0  0  0  4  0  0  0  0  0  0
    4.1480    2.5864    0.2111 C   0  0  0  0  0  0  0  0  0  0  0  0
    2.5915    0.9582    1.1473 C   0  0  0  0  0  0  0  0  0  0  0  0
    2.0301   -0.3097    1.2101 C   0  0  0  0  0  0  0  0  0  0  0  0
   -0.5015   -1.2237   -1.3008 C   0  0  0  0  0  0  0  0  0  0  0  0
   -1.4885   -0.2515   -1.5171 C   0  0  0  0  0  0  0  0  0  0  0  0
   -4.6555    2.0269   -2.2186 H   0  0  0  0  0  0  0  0  0  0  0  0
   -3.0078    1.7554   -2.7348 H   0  0  0  0  0  0  0  0  0  0  0  0
   -4.1661    0.3908   -2.6752 H   0  0  0  0  0  0  0  0  0  0  0  0
   -5.1434    2.0727   -0.0658 H   0  0  0  0  0  0  0  0  0  0  0  0
   -5.1668    0.3272    0.2321 H   0  0  0  0  0  0  0  0  0  0  0  0
   -4.1187    1.4200    1.1912 H   0  0  0  0  0  0  0  0  0  0  0  0
   -3.1584   -0.5631    1.4152 H   0  0  0  0  0  0  0  0  0  0  0  0
   -1.4592   -2.2420    1.7889 H   0  0  0  0  0  0  0  0  0  0  0  0
    0.2413   -3.9605    0.2000 H   0  0  0  0  0  0  0  0  0  0  0  0
    2.5751   -3.4713    0.5112 H   0  0  0  0  0  0  0  0  0  0  0  0
    3.8810   -1.7656   -1.2325 H   0  0  0  0  0  0  0  0  0  0  0  0
    4.8379    0.5438   -1.2571 H   0  0  0  0  0  0  0  0  0  0  0  0
    4.1347    3.0223    1.2135 H   0  0  0  0  0  0  0  0  0  0  0  0
    5.1796    2.5341   -0.1462 H   0  0  0  0  0  0  0  0  0  0  0  0
    3.5278    3.1676   -0.4757 H   0  0  0  0  0  0  0  0  0  0  0  0
    2.2496    1.7645    1.7901 H   0  0  0  0  0  0  0  0  0  0  0  0
    1.2316   -0.5077    1.9225 H   0  0  0  0  0  0  0  0  0  0  0  0
    0.2367   -1.4090   -2.0767 H   0  0  0  0  0  0  0  0  0  0  0  0
   -1.4502    0.2881   -2.4585 H   0  0  0  0  0  0  0  0  0  0  0  0
  1  2  1  0
  2  3  1  0
  2  4  1  0
  4  5  2  0
  5  6  1  0
  6  7  2  0
  7  8  1  0
  8  9  2  3
  9 10  1  0
 10 11  2  0
 11 12  1  0
 12 13  2  0
 13 14  1  0
 13 15  1  0
 15 16  2  0
  7 17  1  0
 17 18  2  0
 18  4  1  0
 16 10  1  0
  1 19  1  0
  1 20  1  0
  1 21  1  0
  3 22  1  0
  3 23  1  0
  3 24  1  0
  5 25  1  0
  6 26  1  0
  8 27  1  0
  9 28  1  0
 11 29  1  0
 12 30  1  0
 14 31  1  0
 14 32  1  0
 14 33  1  0
 15 34  1  0
 16 35  1  0
 17 36  1  0
 18 37  1  0
M  CHG  1  13   1
M  END
$$$$
