
     RDKit          3D

 44 46  0  0  0  0  0  0  0  0999 V2000
   -0.8426    2.7237   -1.4982 C   0  0  0  0  0  0  0  0  0  0  0  0
   -2.0233    1.9284   -1.0133 C   0  0  0  0  0  0  0  0  0  0  0  0
   -3.3146    2.4551   -1.1448 C   0  0  0  0  0  0  0  0  0  0  0  0
   -4.4247    1.7346   -0.7029 C   0  0  0  0  0  0  0  0  0  0  0  0
   -4.2696    0.4698   -0.1228 C   0  0  0  0  0  0  0  0  0  0  0  0
   -5.4938   -0.2957    0.3499 C   0  0  0  0  0  0  0  0  0  0  0  0
   -5.6694   -1.6082   -0.4182 C   0  0  0  0  0  0  0  0  0  0  0  0
   -5.4515   -0.5479    1.8594 C   0  0  0  0  0  0  0  0  0  0  0  0
   -2.9729   -0.0584    0.0053 C   0  0  0  0  0  0  0  0  0  0  0  0
   -1.8530    0.6608   -0.4312 C   0  0  0  0  0  0  0  0  0  0  0  0
   -0.5584    0.2187   -0.3473 O   0  0  0  0  0  0  0  0  0  0  0  0
   -0.3209   -0.9794    0.3864 C   0  0  0  0  0  0  0  0  0  0  0  0
    1.1803   -1.2669    0.4868 C   0  0  0  0  0  0  0  0  0  0  0  0
    1.5851   -2.2194    1.1466 O   0  0  0  0  0  0  0  0  0  0  0  0
    1.9415   -0.3712   -0.2267 N   0  0  0  0  0  0  0  0  0  0  0  0
    3.3048   -0.3410   -0.3513 C   0  0  0  0  0  0  0  0  0  0  0  0
    3.9234    0.5736   -1.0668 N   0  0  0  0  0  0  0  0  0  0  0  0
    5.2955    0.4051   -1.0529 N   0  0  0  0  0  0  0  0  0  0  0  0
    5.6433   -0.6256   -0.3160 C   0  0  0  0  0  0  0  0  0  0  0  0
    7.1315   -1.0536   -0.1326 C   0  0  0  0  0  0  0  0  0  0  0  0
    8.1821    0.0081    0.0738 C   0  0  0  0  0  0  0  0  0  0  0  0
    7.7892   -0.8851    1.2134 C   0  0  0  0  0  0  0  0  0  0  0  0
    4.3409   -1.4696    0.3945 S   0  0  0  0  0  0  0  0  0  0  0  0
   -0.3380    2.1934   -2.3127 H   0  0  0  0  0  0  0  0  0  0  0  0
   -1.1466    3.7059   -1.8766 H   0  0  0  0  0  0  0  0  0  0  0  0
   -0.1349    2.8909   -0.6793 H   0  0  0  0  0  0  0  0  0  0  0  0
   -3.4665    3.4351   -1.5928 H   0  0  0  0  0  0  0  0  0  0  0  0
   -5.4142    2.1723   -0.8178 H   0  0  0  0  0  0  0  0  0  0  0  0
   -6.3849    0.3149    0.1512 H   0  0  0  0  0  0  0  0  0  0  0  0
   -6.6007   -2.1039   -0.1240 H   0  0  0  0  0  0  0  0  0  0  0  0
   -5.7128   -1.4267   -1.4980 H   0  0  0  0  0  0  0  0  0  0  0  0
   -4.8474   -2.3076   -0.2299 H   0  0  0  0  0  0  0  0  0  0  0  0
   -5.3347    0.3922    2.4097 H   0  0  0  0  0  0  0  0  0  0  0  0
   -6.3802   -1.0202    2.1961 H   0  0  0  0  0  0  0  0  0  0  0  0
   -4.6229   -1.2061    2.1431 H   0  0  0  0  0  0  0  0  0  0  0  0
   -2.8645   -1.0434    0.4485 H   0  0  0  0  0  0  0  0  0  0  0  0
   -0.7779   -1.8331   -0.1263 H   0  0  0  0  0  0  0  0  0  0  0  0
   -0.6981   -0.8800    1.4108 H   0  0  0  0  0  0  0  0  0  0  0  0
    1.4534    0.3684   -0.7202 H   0  0  0  0  0  0  0  0  0  0  0  0
    7.4161   -1.9162   -0.7256 H   0  0  0  0  0  0  0  0  0  0  0  0
    9.1511   -0.1459   -0.3873 H   0  0  0  0  0  0  0  0  0  0  0  0
    7.8693    1.0458    0.1085 H   0  0  0  0  0  0  0  0  0  0  0  0
    7.2179   -0.4467    2.0241 H   0  0  0  0  0  0  0  0  0  0  0  0
    8.4936   -1.6452    1.5303 H   0  0  0  0  0  0  0  0  0  0  0  0
  1  2  1  0
  2  3  2  0
  3  4  1  0
  4  5  2  0
  5  6  1  0
  6  7  1  0
  6  8  1  0
  5  9  1  0
  9 10  2  0
 10 11  1  0
 11 12  1  0
 12 13  1  0
 13 14  2  0
 13 15  1  0
 15 16  1  0
 16 17  2  0
 17 18  1  0
 18 19  2  0
 19 20  1  0
 20 21  1  0
 21 22  1  0
 19 23  1  0
 10  2  1  0
 23 16  1  0
 22 20  1  0
  1 24  1  0
  1 25  1  0
  1 26  1  0
  3 27  1  0
  4 28  1  0
  6 29  1  0
  7 30  1  0
  7 31  1  0
  7 32  1  0
  8 33  1  0
  8 34  1  0
  8 35  1  0
  9 36  1  0
 12 37  1  0
 12 38  1  0
 15 39  1  0
 20 40  1  0
 21 41  1  0
 21 42  1  0
 22 43  1  0
 22 44  1  0
M  END
$$$$
