
     RDKit          3D

 55 58  0  0  0  0  0  0  0  0999 V2000
   -6.0309    3.3639    2.6164 C   0  0  0  0  0  0  0  0  0  0  0  0
   -4.9847    2.4423    2.3309 O   0  0  0  0  0  0  0  0  0  0  0  0
   -4.2091    2.0328    3.3929 C   0  0  0  0  0  0  0  0  0  0  0  0
   -4.4001    2.4247    4.7209 C   0  0  0  0  0  0  0  0  0  0  0  0
   -3.5506    1.9465    5.7207 C   0  0  0  0  0  0  0  0  0  0  0  0
   -2.5120    1.0767    5.3995 C   0  0  0  0  0  0  0  0  0  0  0  0
   -2.3136    0.6783    4.0765 C   0  0  0  0  0  0  0  0  0  0  0  0
   -3.1527    1.1537    3.0664 C   0  0  0  0  0  0  0  0  0  0  0  0
   -3.0209    0.7935    1.7051 N   0  0  0  0  0  0  0  0  0  0  0  0
   -2.0203    0.0518    1.1142 C   0  0  0  0  0  0  0  0  0  0  0  0
   -1.0001   -0.3565    1.6625 O   0  0  0  0  0  0  0  0  0  0  0  0
   -2.1848   -0.1947   -0.3547 C   0  0  0  0  0  0  0  0  0  0  0  0
   -3.4751   -0.3627   -0.8878 C   0  0  0  0  0  0  0  0  0  0  0  0
   -3.6512   -0.5491   -2.2570 C   0  0  0  0  0  0  0  0  0  0  0  0
   -2.5441   -0.5714   -3.0985 C   0  0  0  0  0  0  0  0  0  0  0  0
   -1.2548   -0.4306   -2.5755 C   0  0  0  0  0  0  0  0  0  0  0  0
   -1.0510   -0.2617   -1.2016 C   0  0  0  0  0  0  0  0  0  0  0  0
    0.2435   -0.1556   -0.6299 N   0  0  0  0  0  0  0  0  0  0  0  0
    1.4723   -0.1894   -1.2568 C   0  0  0  0  0  0  0  0  0  0  0  0
    1.6633   -0.3606   -2.4582 O   0  0  0  0  0  0  0  0  0  0  0  0
    2.6693   -0.0444   -0.3581 C   0  0  0  0  0  0  0  0  0  0  0  0
    2.5595    0.6963    0.8328 C   0  0  0  0  0  0  0  0  0  0  0  0
    3.6553    0.8164    1.6826 C   0  0  0  0  0  0  0  0  0  0  0  0
    3.5128    1.7226    3.1380 Cl  0  0  0  0  0  0  0  0  0  0  0  0
    4.8652    0.2152    1.3596 C   0  0  0  0  0  0  0  0  0  0  0  0
    4.9933   -0.5008    0.1657 C   0  0  0  0  0  0  0  0  0  0  0  0
    3.9117   -0.6321   -0.7146 C   0  0  0  0  0  0  0  0  0  0  0  0
    4.0221   -1.3149   -1.9520 N   0  0  0  0  0  0  0  0  0  0  0  0
    5.1061   -1.9880   -2.4914 C   0  0  0  0  0  0  0  0  0  0  0  0
    6.1755   -2.1454   -1.9082 O   0  0  0  0  0  0  0  0  0  0  0  0
    4.8694   -2.5091   -3.8335 C   0  0  0  0  0  0  0  0  0  0  0  0
    3.8066   -2.4262   -4.7207 C   0  0  0  0  0  0  0  0  0  0  0  0
    4.1797   -3.1436   -5.8846 C   0  0  0  0  0  0  0  0  0  0  0  0
    5.4439   -3.6224   -5.6474 C   0  0  0  0  0  0  0  0  0  0  0  0
    5.8697   -3.2479   -4.4162 O   0  0  0  0  0  0  0  0  0  0  0  0
   -6.5269    3.6091    1.6714 H   0  0  0  0  0  0  0  0  0  0  0  0
   -6.7790    2.9142    3.2775 H   0  0  0  0  0  0  0  0  0  0  0  0
   -5.6358    4.2958    3.0348 H   0  0  0  0  0  0  0  0  0  0  0  0
   -5.1978    3.0982    5.0142 H   0  0  0  0  0  0  0  0  0  0  0  0
   -3.6996    2.2529    6.7535 H   0  0  0  0  0  0  0  0  0  0  0  0
   -1.8527    0.7017    6.1798 H   0  0  0  0  0  0  0  0  0  0  0  0
   -1.5005   -0.0086    3.8675 H   0  0  0  0  0  0  0  0  0  0  0  0
   -3.7238    1.2273    1.1141 H   0  0  0  0  0  0  0  0  0  0  0  0
   -4.3524   -0.3743   -0.2459 H   0  0  0  0  0  0  0  0  0  0  0  0
   -4.6492   -0.6810   -2.6679 H   0  0  0  0  0  0  0  0  0  0  0  0
   -2.6769   -0.7131   -4.1692 H   0  0  0  0  0  0  0  0  0  0  0  0
   -0.4261   -0.4691   -3.2750 H   0  0  0  0  0  0  0  0  0  0  0  0
    0.2339   -0.1684    0.3926 H   0  0  0  0  0  0  0  0  0  0  0  0
    1.6353    1.2014    1.1028 H   0  0  0  0  0  0  0  0  0  0  0  0
    5.7230    0.3072    2.0218 H   0  0  0  0  0  0  0  0  0  0  0  0
    5.9650   -0.9335   -0.0507 H   0  0  0  0  0  0  0  0  0  0  0  0
    3.1871   -1.2530   -2.5334 H   0  0  0  0  0  0  0  0  0  0  0  0
    2.8703   -1.9086   -4.5615 H   0  0  0  0  0  0  0  0  0  0  0  0
    3.5998   -3.2906   -6.7845 H   0  0  0  0  0  0  0  0  0  0  0  0
    6.1431   -4.2150   -6.2214 H   0  0  0  0  0  0  0  0  0  0  0  0
  1  2  1  0
  2  3  1  0
  3  4  2  0
  4  5  1  0
  5  6  2  0
  6  7  1  0
  7  8  2  0
  8  9  1  0
  9 10  1  0
 10 11  2  0
 10 12  1  0
 12 13  2  0
 13 14  1  0
 14 15  2  0
 15 16  1  0
 16 17  2  0
 17 18  1  0
 18 19  1  0
 19 20  2  0
 19 21  1  0
 21 22  2  0
 22 23  1  0
 23 24  1  0
 23 25  2  0
 25 26  1  0
 26 27  2  0
 27 28  1  0
 28 29  1  0
 29 30  2  0
 29 31  1  0
 31 32  2  0
 32 33  1  0
 33 34  2  0
 34 35  1  0
  8  3  1  0
 17 12  1  0
 27 21  1  0
 35 31  1  0
  1 36  1  0
  1 37  1  0
  1 38  1  0
  4 39  1  0
  5 40  1  0
  6 41  1  0
  7 42  1  0
  9 43  1  0
 13 44  1  0
 14 45  1  0
 15 46  1  0
 16 47  1  0
 18 48  1  0
 22 49  1  0
 25 50  1  0
 26 51  1  0
 28 52  1  0
 32 53  1  0
 33 54  1  0
 34 55  1  0
M  END
$$$$
