
     RDKit          3D

 61 65  0  0  0  0  0  0  0  0999 V2000
    7.2090    4.2997   -2.1045 C   0  0  0  0  0  0  0  0  0  0  0  0
    6.1746    4.0089   -1.1754 O   0  0  0  0  0  0  0  0  0  0  0  0
    6.0220    2.6995   -0.8096 C   0  0  0  0  0  0  0  0  0  0  0  0
    6.7608    1.6168   -1.2927 C   0  0  0  0  0  0  0  0  0  0  0  0
    6.4852    0.3187   -0.8454 C   0  0  0  0  0  0  0  0  0  0  0  0
    5.4754    0.0866    0.0995 C   0  0  0  0  0  0  0  0  0  0  0  0
    5.1552   -1.3168    0.5518 C   0  0  0  0  0  0  0  0  0  0  0  0
    4.1676   -1.9462   -0.3001 N   0  0  0  0  0  0  0  0  0  0  0  0
    4.5219   -2.9270   -1.1675 N   0  0  0  0  0  0  0  0  0  0  0  0
    3.4193   -3.3253   -1.8031 N   0  0  0  0  0  0  0  0  0  0  0  0
    2.3827   -2.5928   -1.3132 C   0  0  0  0  0  0  0  0  0  0  0  0
    0.9865   -2.5847   -1.6569 C   0  0  0  0  0  0  0  0  0  0  0  0
    0.4563   -3.3036   -2.4941 O   0  0  0  0  0  0  0  0  0  0  0  0
    0.2782   -1.6410   -0.9233 N   0  0  0  0  0  0  0  0  0  0  0  0
    0.8418   -0.8036    0.0291 C   0  0  0  0  0  0  0  0  0  0  0  0
   -0.0831    0.2002    0.7102 C   0  0  0  0  0  0  0  0  0  0  0  0
   -0.8469    1.0556   -0.3143 C   0  0  0  0  0  0  0  0  0  0  0  0
   -2.3285    0.6965   -0.4030 C   0  0  0  0  0  0  0  0  0  0  0  0
   -2.4640   -0.7727   -0.2919 N   0  0  0  0  0  0  0  0  0  0  0  0
   -3.8402   -1.4755   -1.0400 S   0  0  0  0  0  6  0  0  0  0  0  0
   -3.7285   -2.9050   -0.8504 O   0  0  0  0  0  0  0  0  0  0  0  0
   -3.9653   -0.8947   -2.3585 O   0  0  0  0  0  0  0  0  0  0  0  0
   -5.1997   -0.8904   -0.0550 C   0  0  0  0  0  0  0  0  0  0  0  0
   -5.7063    0.3947   -0.2690 C   0  0  0  0  0  0  0  0  0  0  0  0
   -6.7532    0.8633    0.5250 C   0  0  0  0  0  0  0  0  0  0  0  0
   -7.3239    0.0399    1.5044 C   0  0  0  0  0  0  0  0  0  0  0  0
   -8.4239    0.5605    2.3842 C   0  0  0  0  0  0  0  0  0  0  0  0
   -6.8249   -1.2574    1.6892 C   0  0  0  0  0  0  0  0  0  0  0  0
   -5.7706   -1.7285    0.9057 C   0  0  0  0  0  0  0  0  0  0  0  0
   -2.1423   -1.2899    1.0650 C   0  0  0  0  0  0  0  0  0  0  0  0
   -1.0144   -0.4837    1.7126 C   0  0  0  0  0  0  0  0  0  0  0  0
    2.0996   -0.8303    0.3721 N   0  0  0  0  0  0  0  0  0  0  0  0
    2.8210   -1.7265   -0.3423 C   0  0  0  0  0  0  0  0  0  0  0  0
    4.7470    1.1792    0.5880 C   0  0  0  0  0  0  0  0  0  0  0  0
    5.0179    2.4716    0.1332 C   0  0  0  0  0  0  0  0  0  0  0  0
    8.1912    4.0410   -1.6939 H   0  0  0  0  0  0  0  0  0  0  0  0
    7.0349    3.7967   -3.0613 H   0  0  0  0  0  0  0  0  0  0  0  0
    7.1949    5.3775   -2.2848 H   0  0  0  0  0  0  0  0  0  0  0  0
    7.5535    1.7446   -2.0251 H   0  0  0  0  0  0  0  0  0  0  0  0
    7.0611   -0.5144   -1.2495 H   0  0  0  0  0  0  0  0  0  0  0  0
    6.0583   -1.9375    0.5435 H   0  0  0  0  0  0  0  0  0  0  0  0
    4.7740   -1.3275    1.5776 H   0  0  0  0  0  0  0  0  0  0  0  0
   -0.7111   -1.5814   -1.1392 H   0  0  0  0  0  0  0  0  0  0  0  0
    0.5757    0.8746    1.2735 H   0  0  0  0  0  0  0  0  0  0  0  0
   -0.7662    2.1162   -0.0421 H   0  0  0  0  0  0  0  0  0  0  0  0
   -0.3891    0.9668   -1.3088 H   0  0  0  0  0  0  0  0  0  0  0  0
   -2.8886    1.1856    0.4024 H   0  0  0  0  0  0  0  0  0  0  0  0
   -2.7175    1.0706   -1.3544 H   0  0  0  0  0  0  0  0  0  0  0  0
   -5.2936    1.0352   -1.0443 H   0  0  0  0  0  0  0  0  0  0  0  0
   -7.1279    1.8740    0.3721 H   0  0  0  0  0  0  0  0  0  0  0  0
   -9.0991   -0.2482    2.6837 H   0  0  0  0  0  0  0  0  0  0  0  0
   -7.9945    1.0140    3.2836 H   0  0  0  0  0  0  0  0  0  0  0  0
   -9.0253    1.3096    1.8587 H   0  0  0  0  0  0  0  0  0  0  0  0
   -7.2583   -1.9106    2.4437 H   0  0  0  0  0  0  0  0  0  0  0  0
   -5.4028   -2.7422    1.0542 H   0  0  0  0  0  0  0  0  0  0  0  0
   -3.0183   -1.2611    1.7171 H   0  0  0  0  0  0  0  0  0  0  0  0
   -1.8261   -2.3337    0.9734 H   0  0  0  0  0  0  0  0  0  0  0  0
   -1.4649    0.2948    2.3416 H   0  0  0  0  0  0  0  0  0  0  0  0
   -0.4490   -1.1309    2.3933 H   0  0  0  0  0  0  0  0  0  0  0  0
    3.9487    1.0324    1.3133 H   0  0  0  0  0  0  0  0  0  0  0  0
    4.4341    3.3074    0.5116 H   0  0  0  0  0  0  0  0  0  0  0  0
  1  2  1  0
  2  3  1  0
  3  4  2  0
  4  5  1  0
  5  6  2  0
  6  7  1  0
  7  8  1  0
  8  9  1  0
  9 10  2  0
 10 11  1  0
 11 12  1  0
 12 13  2  0
 12 14  1  0
 14 15  1  0
 15 16  1  0
 16 17  1  0
 17 18  1  0
 18 19  1  0
 19 20  1  0
 20 21  2  0
 20 22  2  0
 20 23  1  0
 23 24  2  0
 24 25  1  0
 25 26  2  0
 26 27  1  0
 26 28  1  0
 28 29  2  0
 19 30  1  0
 30 31  1  0
 15 32  2  0
 32 33  1  0
  6 34  1  0
 34 35  2  0
 35  3  1  0
 33  8  1  0
 33 11  2  0
 31 16  1  0
 29 23  1  0
  1 36  1  0
  1 37  1  0
  1 38  1  0
  4 39  1  0
  5 40  1  0
  7 41  1  0
  7 42  1  0
 14 43  1  0
 16 44  1  0
 17 45  1  0
 17 46  1  0
 18 47  1  0
 18 48  1  0
 24 49  1  0
 25 50  1  0
 27 51  1  0
 27 52  1  0
 27 53  1  0
 28 54  1  0
 29 55  1  0
 30 56  1  0
 30 57  1  0
 31 58  1  0
 31 59  1  0
 34 60  1  0
 35 61  1  0
M  END
$$$$
