
     RDKit          3D

 44 46  0  0  0  0  0  0  0  0999 V2000
   -4.9274   -1.8625   -0.1245 C   0  0  0  0  0  0  0  0  0  0  0  0
   -3.7290   -1.3499    0.6184 C   0  0  0  0  0  0  0  0  0  0  0  0
   -2.5613   -2.1099    0.6883 C   0  0  0  0  0  0  0  0  0  0  0  0
   -1.4318   -1.6717    1.4077 C   0  0  0  0  0  0  0  0  0  0  0  0
   -0.2464   -2.5998    1.4218 C   0  0  0  0  0  0  0  0  0  0  0  0
   -1.4871   -0.4217    2.0736 C   0  0  0  0  0  0  0  0  0  0  0  0
   -0.0645    0.2107    2.9948 S   0  0  0  0  0  6  0  0  0  0  0  0
    0.9702   -0.7956    3.0850 O   0  0  0  0  0  0  0  0  0  0  0  0
   -0.5560    0.8396    4.2037 O   0  0  0  0  0  0  0  0  0  0  0  0
    0.5088    1.4648    2.0126 N   0  0  0  0  0  0  0  0  0  0  0  0
    0.8108    1.2036    0.6489 C   0  0  0  0  0  0  0  0  0  0  0  0
   -0.0113    1.7397   -0.3405 C   0  0  0  0  0  0  0  0  0  0  0  0
    0.2496    1.4612   -1.6807 C   0  0  0  0  0  0  0  0  0  0  0  0
    1.3343    0.6566   -2.0272 C   0  0  0  0  0  0  0  0  0  0  0  0
    1.5131    0.4471   -3.3670 O   0  0  0  0  0  0  0  0  0  0  0  0
    2.1683    0.1060   -1.0435 C   0  0  0  0  0  0  0  0  0  0  0  0
    3.5078   -1.0249   -1.3878 S   0  0  0  0  0  0  0  0  0  0  0  0
    4.6074   -0.0356   -2.3015 C   0  0  0  0  0  0  0  0  0  0  0  0
    4.2449    0.5667   -3.4803 N   0  0  0  0  0  0  0  0  0  0  0  0
    5.3495    1.1745   -3.8482 C   0  0  0  0  0  0  0  0  0  0  0  0
    6.3274    0.9329   -2.9351 N   0  0  0  0  0  0  0  0  0  0  0  0
    5.8788    0.1520   -1.9408 N   0  0  0  0  0  0  0  0  0  0  0  0
    1.8905    0.3895    0.3019 C   0  0  0  0  0  0  0  0  0  0  0  0
   -2.6810    0.3485    2.0314 C   0  0  0  0  0  0  0  0  0  0  0  0
   -2.8766    1.6548    2.7565 C   0  0  0  0  0  0  0  0  0  0  0  0
   -3.7857   -0.1395    1.3077 C   0  0  0  0  0  0  0  0  0  0  0  0
   -5.5279   -1.0348   -0.5163 H   0  0  0  0  0  0  0  0  0  0  0  0
   -4.6242   -2.4755   -0.9798 H   0  0  0  0  0  0  0  0  0  0  0  0
   -5.5503   -2.4672    0.5418 H   0  0  0  0  0  0  0  0  0  0  0  0
   -2.5314   -3.0704    0.1736 H   0  0  0  0  0  0  0  0  0  0  0  0
   -0.4264   -3.4917    0.8104 H   0  0  0  0  0  0  0  0  0  0  0  0
   -0.0508   -2.9560    2.4375 H   0  0  0  0  0  0  0  0  0  0  0  0
    0.6367   -2.1164    0.9991 H   0  0  0  0  0  0  0  0  0  0  0  0
    0.0990    2.3645    2.2518 H   0  0  0  0  0  0  0  0  0  0  0  0
   -0.8644    2.3611   -0.0850 H   0  0  0  0  0  0  0  0  0  0  0  0
   -0.3904    1.8683   -2.4591 H   0  0  0  0  0  0  0  0  0  0  0  0
    2.4629    0.2535   -3.5167 H   0  0  0  0  0  0  0  0  0  0  0  0
    5.4971    1.7783   -4.7325 H   0  0  0  0  0  0  0  0  0  0  0  0
    7.2907    1.2503   -2.9243 H   0  0  0  0  0  0  0  0  0  0  0  0
    2.5169   -0.0308    1.0869 H   0  0  0  0  0  0  0  0  0  0  0  0
   -2.9840    1.4814    3.8311 H   0  0  0  0  0  0  0  0  0  0  0  0
   -2.0579    2.3502    2.5623 H   0  0  0  0  0  0  0  0  0  0  0  0
   -3.7871    2.1641    2.4198 H   0  0  0  0  0  0  0  0  0  0  0  0
   -4.7119    0.4341    1.2837 H   0  0  0  0  0  0  0  0  0  0  0  0
  1  2  1  0
  2  3  2  0
  3  4  1  0
  4  5  1  0
  4  6  2  0
  6  7  1  0
  7  8  2  0
  7  9  2  0
  7 10  1  0
 10 11  1  0
 11 12  2  0
 12 13  1  0
 13 14  2  0
 14 15  1  0
 14 16  1  0
 16 17  1  0
 17 18  1  0
 18 19  1  0
 19 20  2  0
 20 21  1  0
 21 22  1  0
 16 23  2  0
  6 24  1  0
 24 25  1  0
 24 26  2  0
 26  2  1  0
 23 11  1  0
 22 18  2  0
  1 27  1  0
  1 28  1  0
  1 29  1  0
  3 30  1  0
  5 31  1  0
  5 32  1  0
  5 33  1  0
 10 34  1  0
 12 35  1  0
 13 36  1  0
 15 37  1  0
 20 38  1  0
 21 39  1  0
 23 40  1  0
 25 41  1  0
 25 42  1  0
 25 43  1  0
 26 44  1  0
M  END
$$$$
