
     RDKit          3D

 61 66  0  0  0  0  0  0  0  0999 V2000
   -9.5496   -0.6395   -0.6051 F   0  0  0  0  0  0  0  0  0  0  0  0
   -8.2890   -0.3770   -0.9757 C   0  0  0  0  0  0  0  0  0  0  0  0
   -8.0226    0.7537   -1.7375 C   0  0  0  0  0  0  0  0  0  0  0  0
   -6.7120    1.0249   -2.1226 C   0  0  0  0  0  0  0  0  0  0  0  0
   -5.6811    0.1605   -1.7441 C   0  0  0  0  0  0  0  0  0  0  0  0
   -5.9477   -0.9824   -0.9753 C   0  0  0  0  0  0  0  0  0  0  0  0
   -4.8308   -1.9145   -0.5635 C   0  0  0  0  0  0  0  0  0  0  0  0
   -3.9730   -1.3798    0.6011 C   0  0  0  0  0  0  0  0  0  0  0  0
   -3.0481   -0.3011    0.2155 N   0  0  0  0  0  0  0  0  0  0  0  0
   -2.6242    0.4741    1.4047 C   0  0  0  0  0  0  0  0  0  0  0  0
   -1.3324    1.2827    1.1613 C   0  0  0  0  0  0  0  0  0  0  0  0
   -0.1878    0.3743    0.9218 N   0  0  0  0  0  0  0  0  0  0  0  0
    1.0157    0.9251    0.5573 C   0  0  0  0  0  0  0  0  0  0  0  0
    1.2693    2.0908   -0.1439 C   0  0  0  0  0  0  0  0  0  0  0  0
    2.6445    2.1222   -0.4631 C   0  0  0  0  0  0  0  0  0  0  0  0
    3.2204    0.9886    0.0746 C   0  0  0  0  0  0  0  0  0  0  0  0
    4.5706    0.4711    0.0310 C   0  0  0  0  0  0  0  0  0  0  0  0
    5.5815    1.0673   -0.8794 C   0  0  0  0  0  0  0  0  0  0  0  0
    5.2920    1.2963   -2.2298 C   0  0  0  0  0  0  0  0  0  0  0  0
    6.2669    1.8439   -3.0655 C   0  0  0  0  0  0  0  0  0  0  0  0
    7.5297    2.1538   -2.5565 C   0  0  0  0  0  0  0  0  0  0  0  0
    7.8248    1.9092   -1.2146 C   0  0  0  0  0  0  0  0  0  0  0  0
    6.8545    1.3591   -0.3761 C   0  0  0  0  0  0  0  0  0  0  0  0
    4.9270   -0.5242    0.7881 N   0  0  0  0  0  0  0  0  0  0  0  0
    3.9798   -1.0981    1.6595 C   0  0  0  0  0  0  0  0  0  0  0  0
    4.4155   -2.1167    2.5119 C   0  0  0  0  0  0  0  0  0  0  0  0
    3.5420   -2.7043    3.4281 C   0  0  0  0  0  0  0  0  0  0  0  0
    2.2227   -2.2644    3.5098 C   0  0  0  0  0  0  0  0  0  0  0  0
    1.7678   -1.2510    2.6638 C   0  0  0  0  0  0  0  0  0  0  0  0
    2.6358   -0.6904    1.7226 C   0  0  0  0  0  0  0  0  0  0  0  0
    2.2569    0.3473    0.8355 N   0  0  0  0  0  0  0  0  0  0  0  0
   -0.5604   -0.9061    0.2606 C   0  0  0  0  0  0  0  0  0  0  0  0
   -1.8726   -0.7808   -0.5492 C   0  0  0  0  0  0  0  0  0  0  0  0
   -7.2696   -1.2429   -0.5913 C   0  0  0  0  0  0  0  0  0  0  0  0
   -8.8344    1.4140   -2.0235 H   0  0  0  0  0  0  0  0  0  0  0  0
   -6.4893    1.9084   -2.7144 H   0  0  0  0  0  0  0  0  0  0  0  0
   -4.6597    0.3886   -2.0450 H   0  0  0  0  0  0  0  0  0  0  0  0
   -5.2687   -2.8716   -0.2505 H   0  0  0  0  0  0  0  0  0  0  0  0
   -4.2211   -2.1526   -1.4429 H   0  0  0  0  0  0  0  0  0  0  0  0
   -3.4067   -2.2099    1.0436 H   0  0  0  0  0  0  0  0  0  0  0  0
   -4.6580   -1.0186    1.3805 H   0  0  0  0  0  0  0  0  0  0  0  0
   -3.4318    1.1621    1.6793 H   0  0  0  0  0  0  0  0  0  0  0  0
   -2.4561   -0.1947    2.2600 H   0  0  0  0  0  0  0  0  0  0  0  0
   -1.1216    1.8985    2.0435 H   0  0  0  0  0  0  0  0  0  0  0  0
   -1.4905    1.9558    0.3092 H   0  0  0  0  0  0  0  0  0  0  0  0
    0.5286    2.8074   -0.4713 H   0  0  0  0  0  0  0  0  0  0  0  0
    3.1470    2.8823   -1.0472 H   0  0  0  0  0  0  0  0  0  0  0  0
    4.3205    1.0343   -2.6417 H   0  0  0  0  0  0  0  0  0  0  0  0
    6.0461    2.0208   -4.1155 H   0  0  0  0  0  0  0  0  0  0  0  0
    8.2889    2.5776   -3.2096 H   0  0  0  0  0  0  0  0  0  0  0  0
    8.8114    2.1421   -0.8225 H   0  0  0  0  0  0  0  0  0  0  0  0
    7.0882    1.1596    0.6674 H   0  0  0  0  0  0  0  0  0  0  0  0
    5.4503   -2.4447    2.4627 H   0  0  0  0  0  0  0  0  0  0  0  0
    3.8981   -3.4912    4.0877 H   0  0  0  0  0  0  0  0  0  0  0  0
    1.5488   -2.7013    4.2423 H   0  0  0  0  0  0  0  0  0  0  0  0
    0.7505   -0.8968    2.7839 H   0  0  0  0  0  0  0  0  0  0  0  0
    0.2349   -1.2581   -0.4089 H   0  0  0  0  0  0  0  0  0  0  0  0
   -0.6921   -1.6731    1.0335 H   0  0  0  0  0  0  0  0  0  0  0  0
   -1.7041   -0.0587   -1.3588 H   0  0  0  0  0  0  0  0  0  0  0  0
   -2.0740   -1.7370   -1.0443 H   0  0  0  0  0  0  0  0  0  0  0  0
   -7.5217   -2.1146    0.0047 H   0  0  0  0  0  0  0  0  0  0  0  0
  1  2  1  0
  2  3  2  0
  3  4  1  0
  4  5  2  0
  5  6  1  0
  6  7  1  0
  7  8  1  0
  8  9  1  0
  9 10  1  0
 10 11  1  0
 11 12  1  0
 12 13  1  0
 13 14  2  0
 14 15  1  0
 15 16  2  0
 16 17  1  0
 17 18  1  0
 18 19  2  0
 19 20  1  0
 20 21  2  0
 21 22  1  0
 22 23  2  0
 17 24  2  0
 24 25  1  0
 25 26  2  0
 26 27  1  0
 27 28  2  0
 28 29  1  0
 29 30  2  0
 30 31  1  0
 12 32  1  0
 32 33  1  0
  6 34  2  0
 34  2  1  0
 33  9  1  0
 31 13  1  0
 31 16  1  0
 23 18  1  0
 30 25  1  0
  3 35  1  0
  4 36  1  0
  5 37  1  0
  7 38  1  0
  7 39  1  0
  8 40  1  0
  8 41  1  0
 10 42  1  0
 10 43  1  0
 11 44  1  0
 11 45  1  0
 14 46  1  0
 15 47  1  0
 19 48  1  0
 20 49  1  0
 21 50  1  0
 22 51  1  0
 23 52  1  0
 26 53  1  0
 27 54  1  0
 28 55  1  0
 29 56  1  0
 32 57  1  0
 32 58  1  0
 33 59  1  0
 33 60  1  0
 34 61  1  0
M  END
$$$$
