
     RDKit          3D

 16 16  0  0  0  0  0  0  0  0999 V2000
    2.0679   -0.2010   -0.7434 C   0  0  0  0  0  0  0  0  0  0  0  0
    1.3417    0.0595    0.5667 C   0  0  0  0  0  0  0  0  0  0  0  0
   -0.0948    0.0730    0.3865 N   0  0  0  0  0  0  0  0  0  0  0  0
   -0.8187    1.1647    0.0353 C   0  0  0  0  0  0  0  0  0  0  0  0
   -0.4429    2.3060   -0.1579 O   0  0  0  0  0  0  0  0  0  0  0  0
   -2.2136    0.7308   -0.1005 C   0  0  0  0  0  0  0  0  0  0  0  0
   -2.2557   -0.5807    0.1369 C   0  0  0  0  0  0  0  0  0  0  0  0
   -0.8890   -1.0253    0.4317 C   0  0  0  0  0  0  0  0  0  0  0  0
   -0.5871   -2.1830    0.6546 O   0  0  0  0  0  0  0  0  0  0  0  0
    1.7780   -1.1677   -1.1682 H   0  0  0  0  0  0  0  0  0  0  0  0
    3.1505   -0.2069   -0.5843 H   0  0  0  0  0  0  0  0  0  0  0  0
    1.8339    0.5719   -1.4831 H   0  0  0  0  0  0  0  0  0  0  0  0
    1.6545    1.0273    0.9731 H   0  0  0  0  0  0  0  0  0  0  0  0
    1.5983   -0.7222    1.2897 H   0  0  0  0  0  0  0  0  0  0  0  0
   -3.0192    1.3952   -0.3572 H   0  0  0  0  0  0  0  0  0  0  0  0
   -3.1039   -1.2415    0.1200 H   0  0  0  0  0  0  0  0  0  0  0  0
  1  2  1  0
  2  3  1  0
  3  4  1  0
  4  5  2  0
  4  6  1  0
  6  7  2  0
  7  8  1  0
  8  9  2  0
  8  3  1  0
  1 10  1  0
  1 11  1  0
  1 12  1  0
  2 13  1  0
  2 14  1  0
  6 15  1  0
  7 16  1  0
M  END
$$$$
