
     RDKit          3D

 34 35  0  0  0  0  0  0  0  0999 V2000
    4.9042    1.8884    0.3527 C   0  0  0  0  0  0  0  0  0  0  0  0
    4.5986    0.7043   -0.5469 C   0  0  0  0  0  0  0  0  0  0  0  0
    3.1731    0.5369   -0.7712 N   0  0  0  0  0  0  0  0  0  0  0  0
    2.6485    1.0134   -1.9176 N   0  0  0  0  0  0  0  0  0  0  0  0
    1.3520    0.7257   -1.8195 C   0  0  0  0  0  0  0  0  0  0  0  0
    1.0333    0.0814   -0.6069 C   0  0  0  0  0  0  0  0  0  0  0  0
   -0.2697   -0.3377   -0.2052 C   0  0  0  0  0  0  0  0  0  0  0  0
   -0.7178   -0.4140    1.0575 C   0  0  0  0  0  0  0  0  0  0  0  0
   -2.0787   -0.8730    1.4379 C   0  0  0  0  0  0  0  0  0  0  0  0
   -2.2385   -1.4545    2.5074 O   0  0  0  0  0  0  0  0  0  0  0  0
   -3.2368   -0.6309    0.5447 C   0  0  0  0  0  0  0  0  0  0  0  0
   -4.2187   -1.6235    0.4469 C   0  0  0  0  0  0  0  0  0  0  0  0
   -5.3307   -1.4271   -0.3730 C   0  0  0  0  0  0  0  0  0  0  0  0
   -5.4706   -0.2352   -1.0841 C   0  0  0  0  0  0  0  0  0  0  0  0
   -4.5059    0.7663   -0.9704 C   0  0  0  0  0  0  0  0  0  0  0  0
   -3.3914    0.5746   -0.1514 C   0  0  0  0  0  0  0  0  0  0  0  0
    2.2434   -0.0644    0.0507 C   0  0  0  0  0  0  0  0  0  0  0  0
    2.5977   -0.7046    1.3456 C   0  0  0  0  0  0  0  0  0  0  0  0
    4.5154    2.8185   -0.0755 H   0  0  0  0  0  0  0  0  0  0  0  0
    4.4536    1.7635    1.3427 H   0  0  0  0  0  0  0  0  0  0  0  0
    5.9853    1.9975    0.4825 H   0  0  0  0  0  0  0  0  0  0  0  0
    4.9904   -0.2255   -0.1246 H   0  0  0  0  0  0  0  0  0  0  0  0
    5.0767    0.8400   -1.5240 H   0  0  0  0  0  0  0  0  0  0  0  0
    0.6931    1.0093   -2.6300 H   0  0  0  0  0  0  0  0  0  0  0  0
   -0.9440   -0.5925   -1.0210 H   0  0  0  0  0  0  0  0  0  0  0  0
   -0.0809   -0.1977    1.9077 H   0  0  0  0  0  0  0  0  0  0  0  0
   -4.1189   -2.5494    1.0100 H   0  0  0  0  0  0  0  0  0  0  0  0
   -6.0907   -2.2007   -0.4512 H   0  0  0  0  0  0  0  0  0  0  0  0
   -6.3403   -0.0819   -1.7190 H   0  0  0  0  0  0  0  0  0  0  0  0
   -4.6286    1.7010   -1.5125 H   0  0  0  0  0  0  0  0  0  0  0  0
   -2.6647    1.3768   -0.0521 H   0  0  0  0  0  0  0  0  0  0  0  0
    3.6146   -1.1056    1.3468 H   0  0  0  0  0  0  0  0  0  0  0  0
    2.5143    0.0207    2.1610 H   0  0  0  0  0  0  0  0  0  0  0  0
    1.9328   -1.5466    1.5620 H   0  0  0  0  0  0  0  0  0  0  0  0
  1  2  1  0
  2  3  1  0
  3  4  1  0
  4  5  2  0
  5  6  1  0
  6  7  1  0
  7  8  2  3
  8  9  1  0
  9 10  2  0
  9 11  1  0
 11 12  2  0
 12 13  1  0
 13 14  2  0
 14 15  1  0
 15 16  2  0
  6 17  2  0
 17 18  1  0
 17  3  1  0
 16 11  1  0
  1 19  1  0
  1 20  1  0
  1 21  1  0
  2 22  1  0
  2 23  1  0
  5 24  1  0
  7 25  1  0
  8 26  1  0
 12 27  1  0
 13 28  1  0
 14 29  1  0
 15 30  1  0
 16 31  1  0
 18 32  1  0
 18 33  1  0
 18 34  1  0
M  END
$$$$
