
     RDKit          3D

 36 37  0  0  0  0  0  0  0  0999 V2000
   -1.7423   -2.9162    1.0361 C   0  0  0  0  0  0  0  0  0  0  0  0
   -2.4108   -1.4040    1.7857 S   0  0  0  0  0  0  0  0  0  0  0  0
   -3.2892   -0.7465    0.3673 C   0  0  0  0  0  0  0  0  0  0  0  0
   -4.6920   -0.7908    0.4441 C   0  0  0  0  0  0  0  0  0  0  0  0
   -5.4860   -0.3443   -0.6143 C   0  0  0  0  0  0  0  0  0  0  0  0
   -4.8902    0.1533   -1.7675 C   0  0  0  0  0  0  0  0  0  0  0  0
   -3.5000    0.2165   -1.8556 C   0  0  0  0  0  0  0  0  0  0  0  0
   -2.6882   -0.2147   -0.7899 C   0  0  0  0  0  0  0  0  0  0  0  0
   -1.2160   -0.0636   -0.9958 C   0  0  0  0  0  0  0  0  0  0  0  0
   -0.7708   -0.2762   -2.1183 O   0  0  0  0  0  0  0  0  0  0  0  0
   -0.5006    0.3441    0.1119 N   0  0  0  0  0  0  0  0  0  0  0  0
    0.8854    0.5814    0.2107 C   0  0  0  0  0  0  0  0  0  0  0  0
    1.3816    0.9328    1.4688 C   0  0  0  0  0  0  0  0  0  0  0  0
    2.7434    1.1836    1.6535 C   0  0  0  0  0  0  0  0  0  0  0  0
    3.6408    1.0894    0.5822 C   0  0  0  0  0  0  0  0  0  0  0  0
    5.1006    1.3659    0.8138 C   0  0  0  0  0  0  0  0  0  0  0  0
    3.1511    0.7372   -0.6899 C   0  0  0  0  0  0  0  0  0  0  0  0
    4.0675    0.6222   -1.8781 C   0  0  0  0  0  0  0  0  0  0  0  0
    1.7753    0.4874   -0.8598 C   0  0  0  0  0  0  0  0  0  0  0  0
   -2.5518   -3.5334    0.6367 H   0  0  0  0  0  0  0  0  0  0  0  0
   -1.2140   -3.4894    1.8026 H   0  0  0  0  0  0  0  0  0  0  0  0
   -1.0373   -2.6808    0.2352 H   0  0  0  0  0  0  0  0  0  0  0  0
   -5.1837   -1.1869    1.3314 H   0  0  0  0  0  0  0  0  0  0  0  0
   -6.5698   -0.3929   -0.5385 H   0  0  0  0  0  0  0  0  0  0  0  0
   -5.5038    0.4948   -2.5977 H   0  0  0  0  0  0  0  0  0  0  0  0
   -3.0429    0.6134   -2.7614 H   0  0  0  0  0  0  0  0  0  0  0  0
   -1.0254    0.4395    0.9749 H   0  0  0  0  0  0  0  0  0  0  0  0
    0.7181    1.0149    2.3256 H   0  0  0  0  0  0  0  0  0  0  0  0
    3.0980    1.4542    2.6457 H   0  0  0  0  0  0  0  0  0  0  0  0
    5.6983    0.4808    0.5742 H   0  0  0  0  0  0  0  0  0  0  0  0
    5.2999    1.6245    1.8593 H   0  0  0  0  0  0  0  0  0  0  0  0
    5.4308    2.2083    0.1978 H   0  0  0  0  0  0  0  0  0  0  0  0
    3.5213    0.3376   -2.7837 H   0  0  0  0  0  0  0  0  0  0  0  0
    4.8279   -0.1444   -1.6987 H   0  0  0  0  0  0  0  0  0  0  0  0
    4.5550    1.5820   -2.0760 H   0  0  0  0  0  0  0  0  0  0  0  0
    1.4199    0.2203   -1.8506 H   0  0  0  0  0  0  0  0  0  0  0  0
  1  2  1  0
  2  3  1  0
  3  4  2  0
  4  5  1  0
  5  6  2  0
  6  7  1  0
  7  8  2  0
  8  9  1  0
  9 10  2  0
  9 11  1  0
 11 12  1  0
 12 13  2  0
 13 14  1  0
 14 15  2  0
 15 16  1  0
 15 17  1  0
 17 18  1  0
 17 19  2  0
  8  3  1  0
 19 12  1  0
  1 20  1  0
  1 21  1  0
  1 22  1  0
  4 23  1  0
  5 24  1  0
  6 25  1  0
  7 26  1  0
 11 27  1  0
 13 28  1  0
 14 29  1  0
 16 30  1  0
 16 31  1  0
 16 32  1  0
 18 33  1  0
 18 34  1  0
 18 35  1  0
 19 36  1  0
M  END
$$$$
