
     RDKit          3D

 27 27  0  0  0  0  0  0  0  0999 V2000
   -5.3591    0.3942    1.4746 C   0  0  0  0  0  0  0  0  0  0  0  0
   -4.0880   -0.0213    1.3932 C   0  0  0  0  0  0  0  0  0  0  0  0
   -3.5843   -1.0283    0.4100 C   0  0  0  0  0  0  0  0  0  0  0  0
   -2.7120   -0.3434   -0.5018 N   0  0  0  0  0  0  0  0  0  0  0  0
   -1.3421   -0.4083   -0.4261 C   0  0  0  0  0  0  0  0  0  0  0  0
   -0.6858   -1.0842    0.3554 O   0  0  0  0  0  0  0  0  0  0  0  0
   -0.6196    0.4869   -1.4503 C   0  0  0  0  0  0  0  0  0  0  0  0
   -1.2747    1.1844   -2.2125 O   0  0  0  0  0  0  0  0  0  0  0  0
    0.7533    0.3679   -1.3516 N   0  0  0  0  0  0  0  0  0  0  0  0
    1.5701    0.9804   -2.2496 N   0  0  0  0  0  0  0  0  0  0  0  0
    2.8609    0.9245   -2.0883 C   0  0  0  0  0  0  0  0  0  0  0  0
    3.6235    0.4031   -0.9835 C   0  0  0  0  0  0  0  0  0  0  0  0
    3.3606    0.1773    0.3558 C   0  0  0  0  0  0  0  0  0  0  0  0
    4.5498   -0.3392    0.9279 C   0  0  0  0  0  0  0  0  0  0  0  0
    5.4737   -0.3813   -0.0868 C   0  0  0  0  0  0  0  0  0  0  0  0
    4.9291    0.0766   -1.2416 O   0  0  0  0  0  0  0  0  0  0  0  0
   -6.1279    0.0225    0.8042 H   0  0  0  0  0  0  0  0  0  0  0  0
   -5.6563    1.1253    2.2207 H   0  0  0  0  0  0  0  0  0  0  0  0
   -3.3576    0.3780    2.0941 H   0  0  0  0  0  0  0  0  0  0  0  0
   -4.3966   -1.4680   -0.1774 H   0  0  0  0  0  0  0  0  0  0  0  0
   -3.0533   -1.8322    0.9290 H   0  0  0  0  0  0  0  0  0  0  0  0
   -3.1003    0.3211   -1.1666 H   0  0  0  0  0  0  0  0  0  0  0  0
    1.1125   -0.3461   -0.7220 H   0  0  0  0  0  0  0  0  0  0  0  0
    3.4638    1.3472   -2.9109 H   0  0  0  0  0  0  0  0  0  0  0  0
    2.4353    0.3803    0.8773 H   0  0  0  0  0  0  0  0  0  0  0  0
    4.7159   -0.6305    1.9559 H   0  0  0  0  0  0  0  0  0  0  0  0
    6.5094   -0.6869   -0.1461 H   0  0  0  0  0  0  0  0  0  0  0  0
  1  2  2  0
  2  3  1  0
  3  4  1  0
  4  5  1  0
  5  6  2  0
  5  7  1  0
  7  8  2  0
  7  9  1  0
  9 10  1  0
 10 11  2  3
 11 12  1  0
 12 13  2  0
 13 14  1  0
 14 15  2  0
 15 16  1  0
 16 12  1  0
  1 17  1  0
  1 18  1  0
  2 19  1  0
  3 20  1  0
  3 21  1  0
  4 22  1  0
  9 23  1  0
 11 24  1  0
 13 25  1  0
 14 26  1  0
 15 27  1  0
M  END
$$$$
