
     RDKit          3D

 80 86  0  0  0  0  0  0  0  0999 V2000
    5.8070   -0.1578    3.1382 C   0  0  0  0  0  0  0  0  0  0  0  0
    5.9085   -0.1365    1.6089 C   0  0  0  0  0  0  0  0  0  0  0  0
    6.9096   -1.1719    1.0846 C   0  0  0  0  0  0  0  0  0  0  0  0
    6.3745    1.2603    1.1692 C   0  0  0  0  0  0  0  0  0  0  0  0
    4.6068   -0.2997    0.9899 O   0  0  0  0  0  0  0  0  0  0  0  0
    3.8827   -1.4348    1.1701 C   0  0  0  0  0  0  0  0  0  0  0  0
    4.2500   -2.3954    1.8329 O   0  0  0  0  0  0  0  0  0  0  0  0
    2.6753   -1.3786    0.5052 N   0  0  0  0  0  0  0  0  0  0  0  0
    1.7736   -2.5383    0.5245 C   0  0  0  0  0  0  0  0  0  0  0  0
    0.2636   -2.1703    0.5562 C   0  0  0  0  0  0  0  0  0  0  0  0
   -0.0091   -0.8735   -0.0355 N   0  0  0  0  0  0  0  0  0  0  0  0
    0.9740   -0.4581   -1.0686 C   0  0  2  0  0  0  0  0  0  0  0  0
    2.3165   -0.2448   -0.3689 C   0  0  0  0  0  0  0  0  0  0  0  0
    0.2894    0.7270   -1.6299 C   0  0  0  0  0  0  0  0  0  0  0  0
   -1.0793    0.7080   -1.2802 C   0  0  0  0  0  0  0  0  0  0  0  0
   -1.6807    1.8075   -1.8350 C   0  0  0  0  0  0  0  0  0  0  0  0
   -2.9309    2.2519   -1.8016 O   0  0  0  0  0  0  0  0  0  0  0  0
   -0.6854    2.4979   -2.5127 N   0  0  0  0  0  0  0  0  0  0  0  0
   -0.8930    3.7305   -3.2629 C   0  0  0  0  0  0  0  0  0  0  0  0
   -0.7157    4.9519   -2.3937 C   0  0  0  0  0  0  0  0  0  0  0  0
   -1.8155    5.5304   -1.7435 C   0  0  0  0  0  0  0  0  0  0  0  0
   -1.6502    6.6552   -0.9337 C   0  0  0  0  0  0  0  0  0  0  0  0
   -0.3841    7.2108   -0.7609 C   0  0  0  0  0  0  0  0  0  0  0  0
    0.7183    6.6401   -1.3941 C   0  0  0  0  0  0  0  0  0  0  0  0
    0.5546    5.5156   -2.2048 C   0  0  0  0  0  0  0  0  0  0  0  0
    0.5240    1.8222   -2.4157 C   0  0  0  0  0  0  0  0  0  0  0  0
    1.6149    2.2684   -3.0247 O   0  0  0  0  0  0  0  0  0  0  0  0
   -1.3727   -0.4871   -0.4457 C   0  0  1  0  0  0  0  0  0  0  0  0
   -2.1471   -1.5843   -1.2179 C   0  0  0  0  0  0  0  0  0  0  0  0
   -1.7613   -2.2218   -2.1903 O   0  0  0  0  0  0  0  0  0  0  0  0
   -3.3833   -1.7295   -0.5624 N   0  0  0  0  0  0  0  0  0  0  0  0
   -4.3538   -2.7362   -0.9252 C   0  0  0  0  0  0  0  0  0  0  0  0
   -4.1377   -4.0394   -0.1896 C   0  0  0  0  0  0  0  0  0  0  0  0
   -3.1134   -4.9140   -0.5843 C   0  0  0  0  0  0  0  0  0  0  0  0
   -2.8961   -6.1108    0.0998 C   0  0  0  0  0  0  0  0  0  0  0  0
   -3.6987   -6.4478    1.1871 C   0  0  0  0  0  0  0  0  0  0  0  0
   -4.7201   -5.5897    1.5893 C   0  0  0  0  0  0  0  0  0  0  0  0
   -4.9390   -4.3919    0.9055 C   0  0  0  0  0  0  0  0  0  0  0  0
   -3.4778   -0.8680    0.5431 C   0  0  0  0  0  0  0  0  0  0  0  0
   -4.5229   -0.7152    1.4360 C   0  0  0  0  0  0  0  0  0  0  0  0
   -4.3776    0.2195    2.4660 C   0  0  0  0  0  0  0  0  0  0  0  0
   -3.2025    0.9783    2.5892 C   0  0  0  0  0  0  0  0  0  0  0  0
   -2.1548    0.8173    1.6819 C   0  0  0  0  0  0  0  0  0  0  0  0
   -2.3084   -0.1058    0.6569 C   0  0  0  0  0  0  0  0  0  0  0  0
    5.5457   -1.1501    3.5183 H   0  0  0  0  0  0  0  0  0  0  0  0
    5.0256    0.5277    3.4850 H   0  0  0  0  0  0  0  0  0  0  0  0
    6.7560    0.1306    3.6037 H   0  0  0  0  0  0  0  0  0  0  0  0
    6.9067   -1.1964   -0.0108 H   0  0  0  0  0  0  0  0  0  0  0  0
    6.6671   -2.1841    1.4218 H   0  0  0  0  0  0  0  0  0  0  0  0
    7.9264   -0.9496    1.4255 H   0  0  0  0  0  0  0  0  0  0  0  0
    7.3574    1.5104    1.5819 H   0  0  0  0  0  0  0  0  0  0  0  0
    6.4312    1.3254    0.0765 H   0  0  0  0  0  0  0  0  0  0  0  0
    5.6596    2.0277    1.4876 H   0  0  0  0  0  0  0  0  0  0  0  0
    1.9875   -3.0973   -0.3951 H   0  0  0  0  0  0  0  0  0  0  0  0
    2.0103   -3.1995    1.3647 H   0  0  0  0  0  0  0  0  0  0  0  0
   -0.0672   -2.1459    1.6008 H   0  0  0  0  0  0  0  0  0  0  0  0
   -0.2871   -2.9813    0.0670 H   0  0  0  0  0  0  0  0  0  0  0  0
    1.0574   -1.2292   -1.8466 H   0  0  0  0  0  0  0  0  0  0  0  0
    3.1141   -0.1118   -1.1099 H   0  0  0  0  0  0  0  0  0  0  0  0
    2.3027    0.6582    0.2561 H   0  0  0  0  0  0  0  0  0  0  0  0
   -3.4215    1.6961   -1.1696 H   0  0  0  0  0  0  0  0  0  0  0  0
   -0.1919    3.7460   -4.1053 H   0  0  0  0  0  0  0  0  0  0  0  0
   -1.8977    3.7001   -3.7006 H   0  0  0  0  0  0  0  0  0  0  0  0
   -2.8077    5.0988   -1.8600 H   0  0  0  0  0  0  0  0  0  0  0  0
   -2.5099    7.0941   -0.4345 H   0  0  0  0  0  0  0  0  0  0  0  0
   -0.2557    8.0850   -0.1285 H   0  0  0  0  0  0  0  0  0  0  0  0
    1.7075    7.0674   -1.2541 H   0  0  0  0  0  0  0  0  0  0  0  0
    1.4250    5.0734   -2.6857 H   0  0  0  0  0  0  0  0  0  0  0  0
    2.3353    1.6419   -2.8400 H   0  0  0  0  0  0  0  0  0  0  0  0
   -4.2781   -2.9272   -2.0033 H   0  0  0  0  0  0  0  0  0  0  0  0
   -5.3663   -2.3508   -0.7578 H   0  0  0  0  0  0  0  0  0  0  0  0
   -2.4768   -4.6666   -1.4327 H   0  0  0  0  0  0  0  0  0  0  0  0
   -2.1007   -6.7798   -0.2177 H   0  0  0  0  0  0  0  0  0  0  0  0
   -3.5290   -7.3796    1.7200 H   0  0  0  0  0  0  0  0  0  0  0  0
   -5.3469   -5.8539    2.4372 H   0  0  0  0  0  0  0  0  0  0  0  0
   -5.7427   -3.7397    1.2363 H   0  0  0  0  0  0  0  0  0  0  0  0
   -5.4375   -1.2896    1.3588 H   0  0  0  0  0  0  0  0  0  0  0  0
   -5.1820    0.3601    3.1849 H   0  0  0  0  0  0  0  0  0  0  0  0
   -3.1065    1.6971    3.4004 H   0  0  0  0  0  0  0  0  0  0  0  0
   -1.2424    1.4006    1.7734 H   0  0  0  0  0  0  0  0  0  0  0  0
  1  2  1  0
  2  3  1  0
  2  4  1  0
  2  5  1  0
  5  6  1  0
  6  7  2  0
  6  8  1  0
  8  9  1  0
  9 10  1  0
 10 11  1  0
 11 12  1  0
 12 13  1  0
 12 14  1  0
 14 15  1  0
 15 16  2  0
 16 17  1  0
 16 18  1  0
 18 19  1  0
 19 20  1  0
 20 21  2  0
 21 22  1  0
 22 23  2  0
 23 24  1  0
 24 25  2  0
 18 26  1  0
 26 27  1  0
 15 28  1  0
 28 29  1  0
 29 30  2  0
 29 31  1  0
 31 32  1  0
 32 33  1  0
 33 34  2  0
 34 35  1  0
 35 36  2  0
 36 37  1  0
 37 38  2  0
 31 39  1  0
 39 40  2  0
 40 41  1  0
 41 42  2  0
 42 43  1  0
 43 44  2  0
 13  8  1  0
 26 14  2  0
 44 28  1  0
 28 11  1  1
 38 33  1  0
 44 39  1  0
 25 20  1  0
  1 45  1  0
  1 46  1  0
  1 47  1  0
  3 48  1  0
  3 49  1  0
  3 50  1  0
  4 51  1  0
  4 52  1  0
  4 53  1  0
  9 54  1  0
  9 55  1  0
 10 56  1  0
 10 57  1  0
 12 58  1  6
 13 59  1  0
 13 60  1  0
 17 61  1  0
 19 62  1  0
 19 63  1  0
 21 64  1  0
 22 65  1  0
 23 66  1  0
 24 67  1  0
 25 68  1  0
 27 69  1  0
 32 70  1  0
 32 71  1  0
 34 72  1  0
 35 73  1  0
 36 74  1  0
 37 75  1  0
 38 76  1  0
 40 77  1  0
 41 78  1  0
 42 79  1  0
 43 80  1  0
M  END
$$$$
