
     RDKit          3D

 40 42  0  0  0  0  0  0  0  0999 V2000
    5.3742   -0.9177    0.1697 N   0  0  0  0  0  0  0  0  0  0  0  0
    4.1046   -0.6417   -0.4902 C   0  0  0  0  0  0  0  0  0  0  0  0
    3.0387   -0.3003    0.5489 C   0  0  0  0  0  0  0  0  0  0  0  0
    1.6969    0.0101   -0.1165 C   0  0  0  0  0  0  0  0  0  0  0  0
    0.6321    0.3678    0.9311 C   0  0  0  0  0  0  0  0  0  0  0  0
   -0.6782    0.6504    0.3011 N   0  0  0  0  0  0  0  0  0  0  0  0
   -0.9617    2.0109   -0.0225 C   0  0  0  0  0  0  0  0  0  0  0  0
    0.0482    2.9994   -0.0822 C   0  0  0  0  0  0  0  0  0  0  0  0
   -0.2184    4.3346   -0.4109 C   0  0  0  0  0  0  0  0  0  0  0  0
   -1.5128    4.7315   -0.6972 C   0  0  0  0  0  0  0  0  0  0  0  0
   -2.5326    3.7887   -0.6556 C   0  0  0  0  0  0  0  0  0  0  0  0
   -2.2685    2.4433   -0.3275 C   0  0  0  0  0  0  0  0  0  0  0  0
   -3.6895    1.3778   -0.2941 S   0  0  0  0  0  0  0  0  0  0  0  0
   -2.9538   -0.2290   -0.1202 C   0  0  0  0  0  0  0  0  0  0  0  0
   -3.8414   -1.3143   -0.2580 C   0  0  0  0  0  0  0  0  0  0  0  0
   -3.4011   -2.6269   -0.1260 C   0  0  0  0  0  0  0  0  0  0  0  0
   -2.0579   -2.8772    0.1405 C   0  0  0  0  0  0  0  0  0  0  0  0
   -1.5496   -4.2883    0.3024 C   0  0  0  0  0  0  0  0  0  0  0  0
   -1.5040   -4.6743    1.6070 F   0  0  0  0  0  0  0  0  0  0  0  0
   -0.2855   -4.4542   -0.1794 F   0  0  0  0  0  0  0  0  0  0  0  0
   -2.3149   -5.2154   -0.3375 F   0  0  0  0  0  0  0  0  0  0  0  0
   -1.1790   -1.7849    0.2894 C   0  0  0  0  0  0  0  0  0  0  0  0
   -1.5904   -0.4366    0.1676 C   0  0  0  0  0  0  0  0  0  0  0  0
    6.0730   -1.1625   -0.5316 H   0  0  0  0  0  0  0  0  0  0  0  0
    5.2811   -1.7354    0.7714 H   0  0  0  0  0  0  0  0  0  0  0  0
    4.2369    0.1961   -1.1830 H   0  0  0  0  0  0  0  0  0  0  0  0
    3.8001   -1.5156   -1.0764 H   0  0  0  0  0  0  0  0  0  0  0  0
    3.3616    0.5660    1.1402 H   0  0  0  0  0  0  0  0  0  0  0  0
    2.9149   -1.1394    1.2452 H   0  0  0  0  0  0  0  0  0  0  0  0
    1.3779   -0.8530   -0.7114 H   0  0  0  0  0  0  0  0  0  0  0  0
    1.8251    0.8324   -0.8293 H   0  0  0  0  0  0  0  0  0  0  0  0
    0.5458   -0.4338    1.6763 H   0  0  0  0  0  0  0  0  0  0  0  0
    0.9686    1.2141    1.5438 H   0  0  0  0  0  0  0  0  0  0  0  0
    1.0894    2.7629    0.1102 H   0  0  0  0  0  0  0  0  0  0  0  0
    0.5937    5.0566   -0.4448 H   0  0  0  0  0  0  0  0  0  0  0  0
   -1.7303    5.7645   -0.9530 H   0  0  0  0  0  0  0  0  0  0  0  0
   -3.5482    4.1086   -0.8810 H   0  0  0  0  0  0  0  0  0  0  0  0
   -4.8948   -1.1358   -0.4695 H   0  0  0  0  0  0  0  0  0  0  0  0
   -4.1102   -3.4455   -0.2361 H   0  0  0  0  0  0  0  0  0  0  0  0
   -0.1401   -2.0338    0.4889 H   0  0  0  0  0  0  0  0  0  0  0  0
  1  2  1  0
  2  3  1  0
  3  4  1  0
  4  5  1  0
  5  6  1  0
  6  7  1  0
  7  8  2  0
  8  9  1  0
  9 10  2  0
 10 11  1  0
 11 12  2  0
 12 13  1  0
 13 14  1  0
 14 15  2  0
 15 16  1  0
 16 17  2  0
 17 18  1  0
 18 19  1  0
 18 20  1  0
 18 21  1  0
 17 22  1  0
 22 23  2  0
 23  6  1  0
 12  7  1  0
 23 14  1  0
  1 24  1  0
  1 25  1  0
  2 26  1  0
  2 27  1  0
  3 28  1  0
  3 29  1  0
  4 30  1  0
  4 31  1  0
  5 32  1  0
  5 33  1  0
  8 34  1  0
  9 35  1  0
 10 36  1  0
 11 37  1  0
 15 38  1  0
 16 39  1  0
 22 40  1  0
M  END
$$$$
