
     RDKit          3D

 39 40  0  0  0  0  0  0  0  0999 V2000
   -1.4258    1.8360    1.7423 O   0  0  0  0  0  0  0  0  0  0  0  0
   -1.2062    0.8203    1.0941 C   0  0  0  0  0  0  0  0  0  0  0  0
    0.1993    0.4211    0.6691 C   0  0  0  0  0  0  0  0  0  0  0  0
    1.2411    1.4737    1.0494 C   0  0  0  0  0  0  0  0  0  0  0  0
    2.6593    1.0298    0.7011 C   0  0  0  0  0  0  0  0  0  0  0  0
    2.7376    0.8037   -0.7054 O   0  0  0  0  0  0  0  0  0  0  0  0
    3.9384    0.3776   -1.2021 C   0  0  0  0  0  0  0  0  0  0  0  0
    5.1052    0.1680   -0.4657 C   0  0  0  0  0  0  0  0  0  0  0  0
    6.2690   -0.2725   -1.1044 C   0  0  0  0  0  0  0  0  0  0  0  0
    6.2718   -0.5041   -2.4789 C   0  0  0  0  0  0  0  0  0  0  0  0
    5.1107   -0.2948   -3.2185 C   0  0  0  0  0  0  0  0  0  0  0  0
    3.9498    0.1449   -2.5801 C   0  0  0  0  0  0  0  0  0  0  0  0
   -2.1428   -0.1099    0.6652 N   0  0  0  0  0  0  0  0  0  0  0  0
   -3.5456   -0.1018    0.8665 C   0  0  0  0  0  0  0  0  0  0  0  0
   -4.1847    0.9211    1.5810 C   0  0  0  0  0  0  0  0  0  0  0  0
   -5.5696    0.9191    1.7745 C   0  0  0  0  0  0  0  0  0  0  0  0
   -6.3455   -0.1076    1.2565 C   0  0  0  0  0  0  0  0  0  0  0  0
   -5.7329   -1.1331    0.5436 C   0  0  0  0  0  0  0  0  0  0  0  0
   -4.3348   -1.1473    0.3395 C   0  0  0  0  0  0  0  0  0  0  0  0
   -3.7773   -2.3022   -0.4533 C   0  0  0  0  0  0  0  0  0  0  0  0
   -2.4156   -2.2999   -0.5650 F   0  0  0  0  0  0  0  0  0  0  0  0
   -4.0946   -3.5116    0.0884 F   0  0  0  0  0  0  0  0  0  0  0  0
   -4.2469   -2.3330   -1.7318 F   0  0  0  0  0  0  0  0  0  0  0  0
    0.1983    0.2669   -0.4163 H   0  0  0  0  0  0  0  0  0  0  0  0
    0.4408   -0.5329    1.1528 H   0  0  0  0  0  0  0  0  0  0  0  0
    1.1870    1.6897    2.1229 H   0  0  0  0  0  0  0  0  0  0  0  0
    1.0107    2.4057    0.5181 H   0  0  0  0  0  0  0  0  0  0  0  0
    2.8957    0.1090    1.2483 H   0  0  0  0  0  0  0  0  0  0  0  0
    3.3575    1.8234    0.9927 H   0  0  0  0  0  0  0  0  0  0  0  0
    5.1463    0.3394    0.6044 H   0  0  0  0  0  0  0  0  0  0  0  0
    7.1757   -0.4334   -0.5267 H   0  0  0  0  0  0  0  0  0  0  0  0
    7.1779   -0.8454   -2.9725 H   0  0  0  0  0  0  0  0  0  0  0  0
    5.1066   -0.4716   -4.2907 H   0  0  0  0  0  0  0  0  0  0  0  0
    3.0459    0.3090   -3.1614 H   0  0  0  0  0  0  0  0  0  0  0  0
   -1.7634   -0.8927    0.1381 H   0  0  0  0  0  0  0  0  0  0  0  0
   -3.6315    1.7514    2.0097 H   0  0  0  0  0  0  0  0  0  0  0  0
   -6.0352    1.7277    2.3333 H   0  0  0  0  0  0  0  0  0  0  0  0
   -7.4222   -0.1087    1.4064 H   0  0  0  0  0  0  0  0  0  0  0  0
   -6.3501   -1.9351    0.1386 H   0  0  0  0  0  0  0  0  0  0  0  0
  1  2  2  0
  2  3  1  0
  3  4  1  0
  4  5  1  0
  5  6  1  0
  6  7  1  0
  7  8  2  0
  8  9  1  0
  9 10  2  0
 10 11  1  0
 11 12  2  0
  2 13  1  0
 13 14  1  0
 14 15  2  0
 15 16  1  0
 16 17  2  0
 17 18  1  0
 18 19  2  0
 19 20  1  0
 20 21  1  0
 20 22  1  0
 20 23  1  0
 12  7  1  0
 19 14  1  0
  3 24  1  0
  3 25  1  0
  4 26  1  0
  4 27  1  0
  5 28  1  0
  5 29  1  0
  8 30  1  0
  9 31  1  0
 10 32  1  0
 11 33  1  0
 12 34  1  0
 13 35  1  0
 15 36  1  0
 16 37  1  0
 17 38  1  0
 18 39  1  0
M  END
$$$$
