
     RDKit          3D

 41 43  0  0  0  0  0  0  0  0999 V2000
   -3.2954   -0.9623   -1.2282 C   0  0  0  0  0  0  0  0  0  0  0  0
   -3.0831    0.0805   -0.2569 N   0  0  0  0  0  0  0  0  0  0  0  0
   -1.8869    0.6209    0.1266 C   0  0  0  0  0  0  0  0  0  0  0  0
   -0.3472    0.0315   -0.3879 S   0  0  0  0  0  0  0  0  0  0  0  0
    0.7240    1.3571    0.2430 C   0  0  0  0  0  0  0  0  0  0  0  0
    2.1693    1.0151   -0.0634 C   0  0  0  0  0  0  0  0  0  0  0  0
    2.7446    1.4501   -1.0592 O   0  0  0  0  0  0  0  0  0  0  0  0
    2.7375    0.1751    0.8960 N   0  0  0  0  0  0  0  0  0  0  0  0
    3.9723   -0.4171    0.7796 N   0  0  0  0  0  0  0  0  0  0  0  0
    4.9347    0.2627    0.2381 C   0  0  0  0  0  0  0  0  0  0  0  0
    6.2520   -0.3015    0.0328 C   0  0  0  0  0  0  0  0  0  0  0  0
    7.3483    0.3232   -0.5342 C   0  0  0  0  0  0  0  0  0  0  0  0
    8.4935   -0.5289   -0.5849 C   0  0  0  0  0  0  0  0  0  0  0  0
    8.2196   -1.7704   -0.0529 C   0  0  0  0  0  0  0  0  0  0  0  0
    9.1354   -2.8762    0.0586 N   0  0  0  0  0  4  0  0  0  0  0  0
    8.7302   -3.9299    0.5653 O   0  0  0  0  0  0  0  0  0  0  0  0
   10.2818   -2.6818   -0.3694 O   0  0  0  0  0  1  0  0  0  0  0  0
    6.6198   -1.9102    0.4969 S   0  0  0  0  0  0  0  0  0  0  0  0
   -2.0918    1.6245    0.9432 N   0  0  0  0  0  0  0  0  0  0  0  0
   -3.4475    1.7416    1.1206 N   0  0  0  0  0  0  0  0  0  0  0  0
   -4.0487    0.7862    0.4322 C   0  0  0  0  0  0  0  0  0  0  0  0
   -5.4920    0.5606    0.3944 C   0  0  0  0  0  0  0  0  0  0  0  0
   -6.3529    1.6504    0.1999 C   0  0  0  0  0  0  0  0  0  0  0  0
   -7.7384    1.4676    0.1671 C   0  0  0  0  0  0  0  0  0  0  0  0
   -8.2708    0.1928    0.3415 C   0  0  0  0  0  0  0  0  0  0  0  0
   -9.9749   -0.0364    0.3013 Cl  0  0  0  0  0  0  0  0  0  0  0  0
   -7.4306   -0.8980    0.5560 C   0  0  0  0  0  0  0  0  0  0  0  0
   -6.0445   -0.7137    0.5880 C   0  0  0  0  0  0  0  0  0  0  0  0
   -2.5563   -0.8793   -2.0285 H   0  0  0  0  0  0  0  0  0  0  0  0
   -4.2863   -0.8590   -1.6762 H   0  0  0  0  0  0  0  0  0  0  0  0
   -3.2045   -1.9266   -0.7225 H   0  0  0  0  0  0  0  0  0  0  0  0
    0.4795    2.3097   -0.2381 H   0  0  0  0  0  0  0  0  0  0  0  0
    0.5991    1.4763    1.3247 H   0  0  0  0  0  0  0  0  0  0  0  0
    2.0932   -0.3675    1.4677 H   0  0  0  0  0  0  0  0  0  0  0  0
    4.8174    1.3167   -0.0671 H   0  0  0  0  0  0  0  0  0  0  0  0
    7.3321    1.3438   -0.9010 H   0  0  0  0  0  0  0  0  0  0  0  0
    9.4572   -0.2414   -0.9910 H   0  0  0  0  0  0  0  0  0  0  0  0
   -5.9440    2.6525    0.0762 H   0  0  0  0  0  0  0  0  0  0  0  0
   -8.3910    2.3229    0.0123 H   0  0  0  0  0  0  0  0  0  0  0  0
   -7.8476   -1.8900    0.7097 H   0  0  0  0  0  0  0  0  0  0  0  0
   -5.4072   -1.5718    0.7882 H   0  0  0  0  0  0  0  0  0  0  0  0
  1  2  1  0
  2  3  1  0
  3  4  1  0
  4  5  1  0
  5  6  1  0
  6  7  2  0
  6  8  1  0
  8  9  1  0
  9 10  2  3
 10 11  1  0
 11 12  2  0
 12 13  1  0
 13 14  2  0
 14 15  1  0
 15 16  2  0
 15 17  1  0
 14 18  1  0
  3 19  2  0
 19 20  1  0
 20 21  2  0
 21 22  1  0
 22 23  2  0
 23 24  1  0
 24 25  2  0
 25 26  1  0
 25 27  1  0
 27 28  2  0
 21  2  1  0
 28 22  1  0
 18 11  1  0
  1 29  1  0
  1 30  1  0
  1 31  1  0
  5 32  1  0
  5 33  1  0
  8 34  1  0
 10 35  1  0
 12 36  1  0
 13 37  1  0
 23 38  1  0
 24 39  1  0
 27 40  1  0
 28 41  1  0
M  CHG  2  15   1  17  -1
M  END
$$$$
