
     RDKit          3D

 48 49  0  0  0  0  0  0  0  0999 V2000
   -6.4164   -0.2600   -2.6952 C   0  0  0  0  0  0  0  0  0  0  0  0
   -6.4057   -0.3956   -1.1811 C   0  0  0  0  0  0  0  0  0  0  0  0
   -5.0845   -0.1015   -0.6278 N   0  0  0  0  0  0  0  0  0  0  0  0
   -4.8412    1.2718   -0.1763 C   0  0  0  0  0  0  0  0  0  0  0  0
   -5.2791    1.4769    1.2659 C   0  0  0  0  0  0  0  0  0  0  0  0
   -4.1916   -1.1636   -0.4797 C   0  0  0  0  0  0  0  0  0  0  0  0
   -4.4591   -2.3305   -0.7561 O   0  0  0  0  0  0  0  0  0  0  0  0
   -2.8426   -0.8954    0.0522 C   0  0  0  0  0  0  0  0  0  0  0  0
   -2.5117   -1.3553    1.3262 C   0  0  0  0  0  0  0  0  0  0  0  0
   -1.2247   -1.1360    1.8249 C   0  0  0  0  0  0  0  0  0  0  0  0
   -0.2600   -0.4703    1.0529 C   0  0  0  0  0  0  0  0  0  0  0  0
    1.0142   -0.2961    1.6333 N   0  0  0  0  0  0  0  0  0  0  0  0
    2.1106    0.3589    1.0847 C   0  0  0  0  0  0  0  0  0  0  0  0
    2.1459    0.9176   -0.0064 O   0  0  0  0  0  0  0  0  0  0  0  0
    3.3395    0.2883    2.0086 C   0  0  0  0  0  0  0  0  0  0  0  0
    4.4399    1.1072    1.6535 O   0  0  0  0  0  0  0  0  0  0  0  0
    5.3619    0.6311    0.7605 C   0  0  0  0  0  0  0  0  0  0  0  0
    5.1411   -0.4409   -0.1114 C   0  0  0  0  0  0  0  0  0  0  0  0
    6.1387   -0.8472   -1.0054 C   0  0  0  0  0  0  0  0  0  0  0  0
    7.3654   -0.1731   -1.0325 C   0  0  0  0  0  0  0  0  0  0  0  0
    8.4112   -0.6020   -1.9686 N   0  0  0  0  0  4  0  0  0  0  0  0
    9.4590    0.0580   -2.0030 O   0  0  0  0  0  0  0  0  0  0  0  0
    8.1858   -1.6026   -2.6637 O   0  0  0  0  0  1  0  0  0  0  0  0
    7.6015    0.9057   -0.1763 C   0  0  0  0  0  0  0  0  0  0  0  0
    6.5978    1.3028    0.7111 C   0  0  0  0  0  0  0  0  0  0  0  0
    6.9340    2.6374    1.7602 Cl  0  0  0  0  0  0  0  0  0  0  0  0
   -0.6010   -0.0364   -0.2319 C   0  0  0  0  0  0  0  0  0  0  0  0
   -1.8869   -0.2559   -0.7382 C   0  0  0  0  0  0  0  0  0  0  0  0
   -6.1439    0.7551   -3.0016 H   0  0  0  0  0  0  0  0  0  0  0  0
   -7.4123   -0.4813   -3.0905 H   0  0  0  0  0  0  0  0  0  0  0  0
   -5.7031   -0.9503   -3.1571 H   0  0  0  0  0  0  0  0  0  0  0  0
   -7.1421    0.2806   -0.7333 H   0  0  0  0  0  0  0  0  0  0  0  0
   -6.7002   -1.4153   -0.9088 H   0  0  0  0  0  0  0  0  0  0  0  0
   -3.7821    1.5221   -0.2654 H   0  0  0  0  0  0  0  0  0  0  0  0
   -5.3828    1.9565   -0.8387 H   0  0  0  0  0  0  0  0  0  0  0  0
   -6.3485    1.2765    1.3870 H   0  0  0  0  0  0  0  0  0  0  0  0
   -4.7376    0.8100    1.9440 H   0  0  0  0  0  0  0  0  0  0  0  0
   -5.0883    2.5086    1.5776 H   0  0  0  0  0  0  0  0  0  0  0  0
   -3.2493   -1.8867    1.9225 H   0  0  0  0  0  0  0  0  0  0  0  0
   -0.9901   -1.5005    2.8217 H   0  0  0  0  0  0  0  0  0  0  0  0
    1.1253   -0.6760    2.5656 H   0  0  0  0  0  0  0  0  0  0  0  0
    3.0134    0.6382    2.9957 H   0  0  0  0  0  0  0  0  0  0  0  0
    3.6433   -0.7582    2.1370 H   0  0  0  0  0  0  0  0  0  0  0  0
    4.1921   -0.9676   -0.1452 H   0  0  0  0  0  0  0  0  0  0  0  0
    5.9365   -1.6795   -1.6782 H   0  0  0  0  0  0  0  0  0  0  0  0
    8.5493    1.4392   -0.1910 H   0  0  0  0  0  0  0  0  0  0  0  0
    0.1131    0.4679   -0.8757 H   0  0  0  0  0  0  0  0  0  0  0  0
   -2.1347    0.0673   -1.7462 H   0  0  0  0  0  0  0  0  0  0  0  0
  1  2  1  0
  2  3  1  0
  3  4  1  0
  4  5  1  0
  3  6  1  0
  6  7  2  0
  6  8  1  0
  8  9  2  0
  9 10  1  0
 10 11  2  0
 11 12  1  0
 12 13  1  0
 13 14  2  0
 13 15  1  0
 15 16  1  0
 16 17  1  0
 17 18  2  0
 18 19  1  0
 19 20  2  0
 20 21  1  0
 21 22  2  0
 21 23  1  0
 20 24  1  0
 24 25  2  0
 25 26  1  0
 11 27  1  0
 27 28  2  0
 28  8  1  0
 25 17  1  0
  1 29  1  0
  1 30  1  0
  1 31  1  0
  2 32  1  0
  2 33  1  0
  4 34  1  0
  4 35  1  0
  5 36  1  0
  5 37  1  0
  5 38  1  0
  9 39  1  0
 10 40  1  0
 12 41  1  0
 15 42  1  0
 15 43  1  0
 18 44  1  0
 19 45  1  0
 24 46  1  0
 27 47  1  0
 28 48  1  0
M  CHG  2  21   1  23  -1
M  END
$$$$
