
     RDKit          3D

 53 56  0  0  0  0  0  0  0  0999 V2000
    7.3104   -0.4563   -3.1074 C   0  0  0  0  0  0  0  0  0  0  0  0
    7.2911    0.7665   -2.3800 O   0  0  0  0  0  0  0  0  0  0  0  0
    6.2698    0.9316   -1.4809 C   0  0  0  0  0  0  0  0  0  0  0  0
    6.2836    2.1522   -0.8037 C   0  0  0  0  0  0  0  0  0  0  0  0
    5.2980    2.4502    0.1348 C   0  0  0  0  0  0  0  0  0  0  0  0
    4.2909    1.5207    0.4013 C   0  0  0  0  0  0  0  0  0  0  0  0
    4.2625    0.2898   -0.2665 C   0  0  0  0  0  0  0  0  0  0  0  0
    3.2151   -0.5939    0.0665 N   0  0  0  0  0  0  0  0  0  0  0  0
    2.9453   -1.8406   -0.4654 C   0  0  0  0  0  0  0  0  0  0  0  0
    3.6213   -2.4157   -1.3188 O   0  0  0  0  0  0  0  0  0  0  0  0
    1.7634   -2.5768    0.1545 C   0  0  0  0  0  0  0  0  0  0  0  0
    0.5744   -1.5428    1.0576 S   0  0  0  0  0  0  0  0  0  0  0  0
   -0.2843   -0.8150   -0.2622 C   0  0  0  0  0  0  0  0  0  0  0  0
    0.2714   -0.5065   -1.4087 N   0  0  0  0  0  0  0  0  0  0  0  0
   -0.7094   -0.0499   -2.2408 N   0  0  0  0  0  0  0  0  0  0  0  0
   -1.8554   -0.0761   -1.5872 C   0  0  0  0  0  0  0  0  0  0  0  0
   -3.1336    0.5000   -2.1072 C   0  0  0  0  0  0  0  0  0  0  0  0
   -3.5831    1.7270   -1.3597 C   0  0  0  0  0  0  0  0  0  0  0  0
   -4.6272    1.8523   -0.4632 C   0  0  0  0  0  0  0  0  0  0  0  0
   -4.7545    3.1794    0.0424 C   0  0  0  0  0  0  0  0  0  0  0  0
   -3.8139    4.0280   -0.4939 C   0  0  0  0  0  0  0  0  0  0  0  0
   -2.7811    3.2263   -1.5945 S   0  0  0  0  0  0  0  0  0  0  0  0
   -1.6504   -0.6057   -0.3187 N   0  0  0  0  0  0  0  0  0  0  0  0
   -2.6289   -0.8960    0.6627 C   0  0  0  0  0  0  0  0  0  0  0  0
   -2.4528   -0.4677    1.9820 C   0  0  0  0  0  0  0  0  0  0  0  0
   -3.4295   -0.7535    2.9393 C   0  0  0  0  0  0  0  0  0  0  0  0
   -4.5828   -1.4691    2.5923 C   0  0  0  0  0  0  0  0  0  0  0  0
   -5.6034   -1.8040    3.6393 C   0  0  0  0  0  0  0  0  0  0  0  0
   -4.7399   -1.9125    1.2739 C   0  0  0  0  0  0  0  0  0  0  0  0
   -3.7719   -1.6224    0.3087 C   0  0  0  0  0  0  0  0  0  0  0  0
    5.2583    0.0037   -1.2073 C   0  0  0  0  0  0  0  0  0  0  0  0
    7.4378   -1.3119   -2.4368 H   0  0  0  0  0  0  0  0  0  0  0  0
    8.1735   -0.4315   -3.7801 H   0  0  0  0  0  0  0  0  0  0  0  0
    6.4103   -0.5621   -3.7245 H   0  0  0  0  0  0  0  0  0  0  0  0
    7.0681    2.8730   -1.0128 H   0  0  0  0  0  0  0  0  0  0  0  0
    5.3139    3.4041    0.6548 H   0  0  0  0  0  0  0  0  0  0  0  0
    3.5300    1.7748    1.1353 H   0  0  0  0  0  0  0  0  0  0  0  0
    2.5306   -0.2451    0.7268 H   0  0  0  0  0  0  0  0  0  0  0  0
    2.1751   -3.3043    0.8599 H   0  0  0  0  0  0  0  0  0  0  0  0
    1.2398   -3.1283   -0.6334 H   0  0  0  0  0  0  0  0  0  0  0  0
   -3.9269   -0.2544   -2.1051 H   0  0  0  0  0  0  0  0  0  0  0  0
   -2.9958    0.7610   -3.1650 H   0  0  0  0  0  0  0  0  0  0  0  0
   -5.2734    1.0318   -0.1738 H   0  0  0  0  0  0  0  0  0  0  0  0
   -5.5029    3.4954    0.7597 H   0  0  0  0  0  0  0  0  0  0  0  0
   -3.6822    5.0844   -0.2954 H   0  0  0  0  0  0  0  0  0  0  0  0
   -1.5865    0.1190    2.2819 H   0  0  0  0  0  0  0  0  0  0  0  0
   -3.2864   -0.4109    3.9625 H   0  0  0  0  0  0  0  0  0  0  0  0
   -6.5690   -2.0556    3.1874 H   0  0  0  0  0  0  0  0  0  0  0  0
   -5.7665   -0.9484    4.3044 H   0  0  0  0  0  0  0  0  0  0  0  0
   -5.2631   -2.6591    4.2318 H   0  0  0  0  0  0  0  0  0  0  0  0
   -5.6150   -2.4973    0.9930 H   0  0  0  0  0  0  0  0  0  0  0  0
   -3.9085   -2.0164   -0.6952 H   0  0  0  0  0  0  0  0  0  0  0  0
    5.2439   -0.9413   -1.7333 H   0  0  0  0  0  0  0  0  0  0  0  0
  1  2  1  0
  2  3  1  0
  3  4  2  0
  4  5  1  0
  5  6  2  0
  6  7  1  0
  7  8  1  0
  8  9  1  0
  9 10  2  0
  9 11  1  0
 11 12  1  0
 12 13  1  0
 13 14  2  0
 14 15  1  0
 15 16  2  0
 16 17  1  0
 17 18  1  0
 18 19  2  0
 19 20  1  0
 20 21  2  0
 21 22  1  0
 16 23  1  0
 23 24  1  0
 24 25  2  0
 25 26  1  0
 26 27  2  0
 27 28  1  0
 27 29  1  0
 29 30  2  0
  7 31  2  0
 31  3  1  0
 23 13  1  0
 30 24  1  0
 22 18  1  0
  1 32  1  0
  1 33  1  0
  1 34  1  0
  4 35  1  0
  5 36  1  0
  6 37  1  0
  8 38  1  0
 11 39  1  0
 11 40  1  0
 17 41  1  0
 17 42  1  0
 19 43  1  0
 20 44  1  0
 21 45  1  0
 25 46  1  0
 26 47  1  0
 28 48  1  0
 28 49  1  0
 28 50  1  0
 29 51  1  0
 30 52  1  0
 31 53  1  0
M  END
$$$$
