
     RDKit          3D

 70 75  0  0  0  0  0  0  0  0999 V2000
   -5.6970   -3.7397    1.9134 C   0  0  0  0  0  0  0  0  0  0  0  0
   -4.5100   -3.0671    1.2750 C   0  0  0  0  0  0  0  0  0  0  0  0
   -3.8157   -2.0807    2.0174 C   0  0  0  0  0  0  0  0  0  0  0  0
   -2.7105   -1.4110    1.4883 C   0  0  0  0  0  0  0  0  0  0  0  0
   -2.3094   -1.7285    0.2031 C   0  0  0  0  0  0  0  0  0  0  0  0
   -2.9805   -2.7188   -0.5267 C   0  0  0  0  0  0  0  0  0  0  0  0
   -4.0671   -3.4243   -0.0197 C   0  0  0  0  0  0  0  0  0  0  0  0
   -4.7684   -4.4699   -0.8361 C   0  0  0  0  0  0  0  0  0  0  0  0
   -2.3854   -2.8674   -1.7797 N   0  0  0  0  0  0  0  0  0  0  0  0
   -1.3061   -1.9984   -1.9452 C   0  0  0  0  0  0  0  0  0  0  0  0
   -0.5993   -1.9428   -2.9421 O   0  0  0  0  0  0  0  0  0  0  0  0
   -1.1862   -1.1890   -0.6292 C   0  0  1  0  0  0  0  0  0  0  0  0
   -1.3374    0.2769   -0.8289 C   0  0  0  0  0  0  0  0  0  0  0  0
   -0.0863    0.9110   -0.7323 C   0  0  0  0  0  0  0  0  0  0  0  0
   -0.2570    2.2589   -0.8973 C   0  0  0  0  0  0  0  0  0  0  0  0
    0.6420    3.2388   -0.9382 O   0  0  0  0  0  0  0  0  0  0  0  0
   -1.6302    2.4740   -1.1402 N   0  0  0  0  0  0  0  0  0  0  0  0
   -2.2383    3.7218   -1.4918 C   0  0  0  0  0  0  0  0  0  0  0  0
   -1.7390    4.9280   -0.9852 C   0  0  0  0  0  0  0  0  0  0  0  0
   -2.3407    6.1404   -1.3337 C   0  0  0  0  0  0  0  0  0  0  0  0
   -3.4348    6.1584   -2.1966 C   0  0  0  0  0  0  0  0  0  0  0  0
   -3.9279    4.9647   -2.7185 C   0  0  0  0  0  0  0  0  0  0  0  0
   -3.3322    3.7497   -2.3716 C   0  0  0  0  0  0  0  0  0  0  0  0
   -2.2952    1.2336   -1.0303 C   0  0  0  0  0  0  0  0  0  0  0  0
   -3.6178    1.0767   -1.0639 O   0  0  0  0  0  0  0  0  0  0  0  0
    0.9691   -0.1050   -0.5335 C   0  0  1  0  0  0  0  0  0  0  0  0
    2.1119    0.1835    0.4337 C   0  0  0  0  0  0  0  0  0  0  0  0
    2.9187   -1.0340    0.6537 N   0  0  0  0  0  0  0  0  0  0  0  0
    4.2377   -0.9709    1.0688 C   0  0  0  0  0  0  0  0  0  0  0  0
    4.8622   -1.9366    1.4877 O   0  0  0  0  0  0  0  0  0  0  0  0
    4.7502    0.2804    0.9455 O   0  0  0  0  0  0  0  0  0  0  0  0
    6.1269    0.5656    1.3041 C   0  0  0  0  0  0  0  0  0  0  0  0
    6.3755    0.3265    2.7976 C   0  0  0  0  0  0  0  0  0  0  0  0
    6.2993    2.0640    1.0106 C   0  0  0  0  0  0  0  0  0  0  0  0
    7.1067   -0.2190    0.4242 C   0  0  0  0  0  0  0  0  0  0  0  0
    2.1745   -2.2794    0.9094 C   0  0  0  0  0  0  0  0  0  0  0  0
    0.9244   -2.4655    0.0116 C   0  0  0  0  0  0  0  0  0  0  0  0
    0.1525   -1.2329    0.0113 N   0  0  0  0  0  0  0  0  0  0  0  0
   -6.5387   -3.7861    1.2139 H   0  0  0  0  0  0  0  0  0  0  0  0
   -6.0448   -3.1880    2.7941 H   0  0  0  0  0  0  0  0  0  0  0  0
   -5.4284   -4.7524    2.2301 H   0  0  0  0  0  0  0  0  0  0  0  0
   -4.1465   -1.8245    3.0231 H   0  0  0  0  0  0  0  0  0  0  0  0
   -2.1879   -0.6524    2.0633 H   0  0  0  0  0  0  0  0  0  0  0  0
   -5.6122   -4.0228   -1.3712 H   0  0  0  0  0  0  0  0  0  0  0  0
   -4.0950   -4.9308   -1.5657 H   0  0  0  0  0  0  0  0  0  0  0  0
   -5.1356   -5.2864   -0.2059 H   0  0  0  0  0  0  0  0  0  0  0  0
   -2.6821   -3.5021   -2.5036 H   0  0  0  0  0  0  0  0  0  0  0  0
    1.5271    2.8390   -0.9455 H   0  0  0  0  0  0  0  0  0  0  0  0
   -0.9005    4.9500   -0.2941 H   0  0  0  0  0  0  0  0  0  0  0  0
   -1.9519    7.0726   -0.9308 H   0  0  0  0  0  0  0  0  0  0  0  0
   -3.8945    7.1040   -2.4711 H   0  0  0  0  0  0  0  0  0  0  0  0
   -4.7654    4.9806   -3.4118 H   0  0  0  0  0  0  0  0  0  0  0  0
   -3.7033    2.8433   -2.8457 H   0  0  0  0  0  0  0  0  0  0  0  0
   -4.0368    1.9202   -0.8143 H   0  0  0  0  0  0  0  0  0  0  0  0
    1.3787   -0.3773   -1.5172 H   0  0  0  0  0  0  0  0  0  0  0  0
    1.7431    0.5118    1.4141 H   0  0  0  0  0  0  0  0  0  0  0  0
    2.7374    0.9903    0.0376 H   0  0  0  0  0  0  0  0  0  0  0  0
    7.3512    0.7150    3.1066 H   0  0  0  0  0  0  0  0  0  0  0  0
    6.3523   -0.7374    3.0527 H   0  0  0  0  0  0  0  0  0  0  0  0
    5.6001    0.8097    3.4015 H   0  0  0  0  0  0  0  0  0  0  0  0
    7.3200    2.4062    1.2203 H   0  0  0  0  0  0  0  0  0  0  0  0
    5.6030    2.6609    1.6133 H   0  0  0  0  0  0  0  0  0  0  0  0
    6.0670    2.2848   -0.0395 H   0  0  0  0  0  0  0  0  0  0  0  0
    6.8520   -0.1090   -0.6360 H   0  0  0  0  0  0  0  0  0  0  0  0
    8.1372    0.1228    0.5729 H   0  0  0  0  0  0  0  0  0  0  0  0
    7.0845   -1.2913    0.6418 H   0  0  0  0  0  0  0  0  0  0  0  0
    1.8702   -2.2501    1.9634 H   0  0  0  0  0  0  0  0  0  0  0  0
    2.8422   -3.1395    0.7862 H   0  0  0  0  0  0  0  0  0  0  0  0
    1.2455   -2.7331   -1.0023 H   0  0  0  0  0  0  0  0  0  0  0  0
    0.3330   -3.3000    0.4051 H   0  0  0  0  0  0  0  0  0  0  0  0
  1  2  1  0
  2  3  2  0
  3  4  1  0
  4  5  2  0
  5  6  1  0
  6  7  2  0
  7  8  1  0
  6  9  1  0
  9 10  1  0
 10 11  2  0
 10 12  1  0
 12 13  1  0
 13 14  1  0
 14 15  2  0
 15 16  1  0
 15 17  1  0
 17 18  1  0
 18 19  2  0
 19 20  1  0
 20 21  2  0
 21 22  1  0
 22 23  2  0
 17 24  1  0
 24 25  1  0
 14 26  1  0
 26 27  1  0
 27 28  1  0
 28 29  1  0
 29 30  2  0
 29 31  1  0
 31 32  1  0
 32 33  1  0
 32 34  1  0
 32 35  1  0
 28 36  1  0
 36 37  1  0
 37 38  1  0
  7  2  1  0
 12 38  1  1
 12  5  1  0
 24 13  2  0
 38 26  1  0
 23 18  1  0
  1 39  1  0
  1 40  1  0
  1 41  1  0
  3 42  1  0
  4 43  1  0
  8 44  1  0
  8 45  1  0
  8 46  1  0
  9 47  1  0
 16 48  1  0
 19 49  1  0
 20 50  1  0
 21 51  1  0
 22 52  1  0
 23 53  1  0
 25 54  1  0
 26 55  1  6
 27 56  1  0
 27 57  1  0
 33 58  1  0
 33 59  1  0
 33 60  1  0
 34 61  1  0
 34 62  1  0
 34 63  1  0
 35 64  1  0
 35 65  1  0
 35 66  1  0
 36 67  1  0
 36 68  1  0
 37 69  1  0
 37 70  1  0
M  END
$$$$
