
     RDKit          3D

 63 67  0  0  0  0  0  0  0  0999 V2000
   -4.2421   -0.1985    6.5485 C   0  0  0  0  0  0  0  0  0  0  0  0
   -3.4331   -0.1015    5.3832 O   0  0  0  0  0  0  0  0  0  0  0  0
   -4.0622   -0.2496    4.1772 C   0  0  0  0  0  0  0  0  0  0  0  0
   -5.4152   -0.4934    3.9863 C   0  0  0  0  0  0  0  0  0  0  0  0
   -5.9401   -0.6289    2.6960 C   0  0  0  0  0  0  0  0  0  0  0  0
   -5.0808   -0.5129    1.5863 C   0  0  0  0  0  0  0  0  0  0  0  0
   -5.5137   -0.6493   -0.0695 S   0  0  0  0  0  0  0  0  0  0  0  0
   -3.9111   -0.3779   -0.6031 C   0  0  0  0  0  0  0  0  0  0  0  0
   -3.6518   -0.3685   -2.0512 C   0  0  0  0  0  0  0  0  0  0  0  0
   -3.6912   -1.5824   -2.7590 C   0  0  0  0  0  0  0  0  0  0  0  0
   -3.4252   -1.6177   -4.1274 C   0  0  0  0  0  0  0  0  0  0  0  0
   -3.1206   -0.4402   -4.8038 C   0  0  0  0  0  0  0  0  0  0  0  0
   -3.0773    0.7742   -4.1146 C   0  0  0  0  0  0  0  0  0  0  0  0
   -3.3294    0.8188   -2.7378 C   0  0  0  0  0  0  0  0  0  0  0  0
   -3.3324    1.9844   -2.0120 O   0  0  0  0  0  0  0  0  0  0  0  0
   -2.4622    3.0081   -2.4794 C   0  0  0  0  0  0  0  0  0  0  0  0
   -3.0445   -0.1837    0.4620 C   0  0  0  0  0  0  0  0  0  0  0  0
   -1.6229    0.0813    0.2599 C   0  0  0  0  0  0  0  0  0  0  0  0
   -0.7789   -0.9058   -0.2593 C   0  0  0  0  0  0  0  0  0  0  0  0
    0.5827   -0.6442   -0.4520 C   0  0  0  0  0  0  0  0  0  0  0  0
    1.1110    0.6041   -0.1208 C   0  0  0  0  0  0  0  0  0  0  0  0
    2.4164    0.9881   -0.2590 O   0  0  0  0  0  0  0  0  0  0  0  0
    3.3382   -0.0009   -0.7295 C   0  0  0  0  0  0  0  0  0  0  0  0
    4.7349    0.6417   -0.7778 C   0  0  0  0  0  0  0  0  0  0  0  0
    5.7781   -0.2467   -1.3216 N   0  0  0  0  0  0  0  0  0  0  0  0
    6.1546   -1.3390   -0.3950 C   0  0  0  0  0  0  0  0  0  0  0  0
    6.9968   -0.8849    0.8108 C   0  0  0  0  0  0  0  0  0  0  0  0
    8.1730   -0.1827    0.3920 O   0  0  0  0  0  0  0  0  0  0  0  0
    7.8281    0.9429   -0.4244 C   0  0  0  0  0  0  0  0  0  0  0  0
    7.0080    0.5114   -1.6521 C   0  0  0  0  0  0  0  0  0  0  0  0
    0.2671    1.5874    0.4016 C   0  0  0  0  0  0  0  0  0  0  0  0
   -1.0920    1.3302    0.5945 C   0  0  0  0  0  0  0  0  0  0  0  0
   -3.7171   -0.2628    1.7411 C   0  0  0  0  0  0  0  0  0  0  0  0
   -3.2191   -0.1368    3.0651 C   0  0  0  0  0  0  0  0  0  0  0  0
   -3.5937   -0.0551    7.4183 H   0  0  0  0  0  0  0  0  0  0  0  0
   -5.0032    0.5885    6.5675 H   0  0  0  0  0  0  0  0  0  0  0  0
   -4.6965   -1.1912    6.6322 H   0  0  0  0  0  0  0  0  0  0  0  0
   -6.1024   -0.5874    4.8208 H   0  0  0  0  0  0  0  0  0  0  0  0
   -7.0000   -0.8212    2.5537 H   0  0  0  0  0  0  0  0  0  0  0  0
   -3.9274   -2.5092   -2.2406 H   0  0  0  0  0  0  0  0  0  0  0  0
   -3.4609   -2.5621   -4.6642 H   0  0  0  0  0  0  0  0  0  0  0  0
   -2.9237   -0.4635   -5.8727 H   0  0  0  0  0  0  0  0  0  0  0  0
   -2.8619    1.6755   -4.6789 H   0  0  0  0  0  0  0  0  0  0  0  0
   -2.8970    3.5207   -3.3430 H   0  0  0  0  0  0  0  0  0  0  0  0
   -1.4651    2.6189   -2.7131 H   0  0  0  0  0  0  0  0  0  0  0  0
   -2.3524    3.7443   -1.6771 H   0  0  0  0  0  0  0  0  0  0  0  0
   -1.1747   -1.8845   -0.5198 H   0  0  0  0  0  0  0  0  0  0  0  0
    1.1975   -1.4368   -0.8648 H   0  0  0  0  0  0  0  0  0  0  0  0
    3.3373   -0.8535   -0.0421 H   0  0  0  0  0  0  0  0  0  0  0  0
    3.0545   -0.3269   -1.7376 H   0  0  0  0  0  0  0  0  0  0  0  0
    4.6476    1.5296   -1.4189 H   0  0  0  0  0  0  0  0  0  0  0  0
    4.9920    1.0290    0.2154 H   0  0  0  0  0  0  0  0  0  0  0  0
    6.7487   -2.0590   -0.9734 H   0  0  0  0  0  0  0  0  0  0  0  0
    5.2746   -1.8918   -0.0516 H   0  0  0  0  0  0  0  0  0  0  0  0
    7.3244   -1.7615    1.3790 H   0  0  0  0  0  0  0  0  0  0  0  0
    6.4211   -0.2497    1.4931 H   0  0  0  0  0  0  0  0  0  0  0  0
    7.2910    1.6793    0.1841 H   0  0  0  0  0  0  0  0  0  0  0  0
    8.7632    1.4082   -0.7527 H   0  0  0  0  0  0  0  0  0  0  0  0
    7.6346   -0.1409   -2.2744 H   0  0  0  0  0  0  0  0  0  0  0  0
    6.7693    1.3828   -2.2730 H   0  0  0  0  0  0  0  0  0  0  0  0
    0.6703    2.5631    0.6608 H   0  0  0  0  0  0  0  0  0  0  0  0
   -1.7343    2.1114    0.9945 H   0  0  0  0  0  0  0  0  0  0  0  0
   -2.1591    0.0498    3.2231 H   0  0  0  0  0  0  0  0  0  0  0  0
  1  2  1  0
  2  3  1  0
  3  4  2  0
  4  5  1  0
  5  6  2  0
  6  7  1  0
  7  8  1  0
  8  9  1  0
  9 10  2  0
 10 11  1  0
 11 12  2  0
 12 13  1  0
 13 14  2  0
 14 15  1  0
 15 16  1  0
  8 17  2  0
 17 18  1  0
 18 19  2  0
 19 20  1  0
 20 21  2  0
 21 22  1  0
 22 23  1  0
 23 24  1  0
 24 25  1  0
 25 26  1  0
 26 27  1  0
 27 28  1  0
 28 29  1  0
 29 30  1  0
 21 31  1  0
 31 32  2  0
 17 33  1  0
 33 34  2  0
 34  3  1  0
 33  6  1  0
 14  9  1  0
 32 18  1  0
 30 25  1  0
  1 35  1  0
  1 36  1  0
  1 37  1  0
  4 38  1  0
  5 39  1  0
 10 40  1  0
 11 41  1  0
 12 42  1  0
 13 43  1  0
 16 44  1  0
 16 45  1  0
 16 46  1  0
 19 47  1  0
 20 48  1  0
 23 49  1  0
 23 50  1  0
 24 51  1  0
 24 52  1  0
 26 53  1  0
 26 54  1  0
 27 55  1  0
 27 56  1  0
 29 57  1  0
 29 58  1  0
 30 59  1  0
 30 60  1  0
 31 61  1  0
 32 62  1  0
 34 63  1  0
M  END
$$$$
