
     RDKit          3D

 38 40  0  0  0  0  0  0  0  0999 V2000
   -3.6885    2.5236    2.1462 C   0  0  0  0  0  0  0  0  0  0  0  0
   -3.1984    1.1768    1.7003 C   0  0  0  0  0  0  0  0  0  0  0  0
   -3.7370    0.5710    0.5567 C   0  0  0  0  0  0  0  0  0  0  0  0
   -3.3021   -0.6924    0.1538 C   0  0  0  0  0  0  0  0  0  0  0  0
   -2.3232   -1.3527    0.9010 C   0  0  0  0  0  0  0  0  0  0  0  0
   -1.7635   -2.9590    0.3825 S   0  0  0  0  0  6  0  0  0  0  0  0
   -2.8406   -3.5772   -0.3625 O   0  0  0  0  0  0  0  0  0  0  0  0
   -1.1655   -3.6209    1.5225 O   0  0  0  0  0  0  0  0  0  0  0  0
   -0.5601   -2.5929   -0.7494 N   0  0  0  0  0  0  0  0  0  0  0  0
    0.5174   -1.7495   -0.3577 C   0  0  0  0  0  0  0  0  0  0  0  0
    1.4548   -2.1886    0.5761 C   0  0  0  0  0  0  0  0  0  0  0  0
    2.4834   -1.3397    0.9861 C   0  0  0  0  0  0  0  0  0  0  0  0
    2.5658   -0.0498    0.4601 C   0  0  0  0  0  0  0  0  0  0  0  0
    3.5707    0.7821    0.8733 O   0  0  0  0  0  0  0  0  0  0  0  0
    1.6284    0.4017   -0.4803 C   0  0  0  0  0  0  0  0  0  0  0  0
    1.6815    2.0528   -1.1599 S   0  0  0  0  0  0  0  0  0  0  0  0
    2.8384    1.8759   -2.4561 C   0  0  0  0  0  0  0  0  0  0  0  0
    3.5828    2.9324   -2.9168 N   0  0  0  0  0  0  0  0  0  0  0  0
    4.2875    2.4026   -3.8873 C   0  0  0  0  0  0  0  0  0  0  0  0
    3.9643    1.0907   -4.0151 N   0  0  0  0  0  0  0  0  0  0  0  0
    3.0238    0.7318   -3.1289 N   0  0  0  0  0  0  0  0  0  0  0  0
    0.5984   -0.4590   -0.8822 C   0  0  0  0  0  0  0  0  0  0  0  0
   -1.8042   -0.7776    2.0634 C   0  0  0  0  0  0  0  0  0  0  0  0
   -2.2421    0.4870    2.4583 C   0  0  0  0  0  0  0  0  0  0  0  0
   -3.9926    3.1321    1.2881 H   0  0  0  0  0  0  0  0  0  0  0  0
   -2.8987    3.0727    2.6696 H   0  0  0  0  0  0  0  0  0  0  0  0
   -4.5440    2.4064    2.8184 H   0  0  0  0  0  0  0  0  0  0  0  0
   -4.5016    1.0823   -0.0251 H   0  0  0  0  0  0  0  0  0  0  0  0
   -3.7320   -1.1514   -0.7333 H   0  0  0  0  0  0  0  0  0  0  0  0
   -0.9510   -2.4549   -1.6801 H   0  0  0  0  0  0  0  0  0  0  0  0
    1.3937   -3.1943    0.9865 H   0  0  0  0  0  0  0  0  0  0  0  0
    3.2039   -1.6996    1.7142 H   0  0  0  0  0  0  0  0  0  0  0  0
    4.1390    0.3128    1.5045 H   0  0  0  0  0  0  0  0  0  0  0  0
    5.0165    2.9028   -4.5083 H   0  0  0  0  0  0  0  0  0  0  0  0
    4.3244    0.4021   -4.6659 H   0  0  0  0  0  0  0  0  0  0  0  0
   -0.1383   -0.1138   -1.6022 H   0  0  0  0  0  0  0  0  0  0  0  0
   -1.0592   -1.2997    2.6595 H   0  0  0  0  0  0  0  0  0  0  0  0
   -1.8322    0.9336    3.3621 H   0  0  0  0  0  0  0  0  0  0  0  0
  1  2  1  0
  2  3  2  0
  3  4  1  0
  4  5  2  0
  5  6  1  0
  6  7  2  0
  6  8  2  0
  6  9  1  0
  9 10  1  0
 10 11  2  0
 11 12  1  0
 12 13  2  0
 13 14  1  0
 13 15  1  0
 15 16  1  0
 16 17  1  0
 17 18  1  0
 18 19  2  0
 19 20  1  0
 20 21  1  0
 15 22  2  0
  5 23  1  0
 23 24  2  0
 24  2  1  0
 22 10  1  0
 21 17  2  0
  1 25  1  0
  1 26  1  0
  1 27  1  0
  3 28  1  0
  4 29  1  0
  9 30  1  0
 11 31  1  0
 12 32  1  0
 14 33  1  0
 19 34  1  0
 20 35  1  0
 22 36  1  0
 23 37  1  0
 24 38  1  0
M  END
$$$$
