
     RDKit          3D

 59 62  0  0  0  0  0  0  0  0999 V2000
    8.9317   -0.4140    1.6074 C   0  0  0  0  0  0  0  0  0  0  0  0
    7.4667   -0.2110    1.3579 C   0  0  0  0  0  0  0  0  0  0  0  0
    6.6333    0.3065    2.3578 C   0  0  0  0  0  0  0  0  0  0  0  0
    5.2671    0.5212    2.1171 C   0  0  0  0  0  0  0  0  0  0  0  0
    4.7134    0.2264    0.8682 C   0  0  0  0  0  0  0  0  0  0  0  0
    3.3287    0.4288    0.5655 N   0  0  0  0  0  0  0  0  0  0  0  0
    2.9542    0.4776   -0.7423 N   0  0  0  0  0  0  0  0  0  0  0  0
    1.6728    0.8491   -0.7315 C   0  0  0  0  0  0  0  0  0  0  0  0
    0.8340    1.0928   -1.8956 C   0  0  0  0  0  0  0  0  0  0  0  0
    1.2357    1.0220   -3.0525 O   0  0  0  0  0  0  0  0  0  0  0  0
   -0.4953    1.4117   -1.5478 N   0  0  0  0  0  0  0  0  0  0  0  0
   -1.4730    1.5737   -2.6242 C   0  0  0  0  0  0  0  0  0  0  0  0
   -2.1602    0.2475   -2.9710 C   0  0  0  0  0  0  0  0  0  0  0  0
   -2.7843    0.0918   -4.0228 O   0  0  0  0  0  0  0  0  0  0  0  0
   -2.1085   -0.7083   -1.9809 N   0  0  0  0  0  0  0  0  0  0  0  0
   -2.7926   -1.9813   -2.0789 C   0  0  0  0  0  0  0  0  0  0  0  0
   -4.3067   -1.8820   -1.8840 C   0  0  0  0  0  0  0  0  0  0  0  0
   -4.7933   -1.2692   -0.5809 C   0  0  0  0  0  0  0  0  0  0  0  0
   -4.1597   -1.5884    0.6361 C   0  0  0  0  0  0  0  0  0  0  0  0
   -4.6168   -1.0613    1.8468 C   0  0  0  0  0  0  0  0  0  0  0  0
   -5.7253   -0.2222    1.8685 C   0  0  0  0  0  0  0  0  0  0  0  0
   -6.3805    0.0852    0.6814 C   0  0  0  0  0  0  0  0  0  0  0  0
   -5.9353   -0.4348   -0.5481 C   0  0  0  0  0  0  0  0  0  0  0  0
   -6.6933   -0.0570   -1.7975 C   0  0  0  0  0  0  0  0  0  0  0  0
   -0.9926    1.4902   -0.2421 N   0  0  0  0  0  0  0  0  0  0  0  0
   -0.2137    1.3010    0.7865 C   0  0  0  0  0  0  0  0  0  0  0  0
   -0.8099    1.4349    2.1562 C   0  0  0  0  0  0  0  0  0  0  0  0
    1.1691    0.9459    0.5709 C   0  0  0  0  0  0  0  0  0  0  0  0
    2.2188    0.5922    1.4079 C   0  0  0  0  0  0  0  0  0  0  0  0
    2.2284    0.3499    2.8770 C   0  0  0  0  0  0  0  0  0  0  0  0
    5.5627   -0.2525   -0.1465 C   0  0  0  0  0  0  0  0  0  0  0  0
    6.9233   -0.4722    0.0979 C   0  0  0  0  0  0  0  0  0  0  0  0
    9.3470   -1.1797    0.9377 H   0  0  0  0  0  0  0  0  0  0  0  0
    9.1061   -0.7581    2.6337 H   0  0  0  0  0  0  0  0  0  0  0  0
    9.4736    0.5236    1.4425 H   0  0  0  0  0  0  0  0  0  0  0  0
    7.0419    0.5559    3.3360 H   0  0  0  0  0  0  0  0  0  0  0  0
    4.6892    0.9640    2.9194 H   0  0  0  0  0  0  0  0  0  0  0  0
   -2.2359    2.2988   -2.3164 H   0  0  0  0  0  0  0  0  0  0  0  0
   -0.9743    1.9427   -3.5250 H   0  0  0  0  0  0  0  0  0  0  0  0
   -1.8375   -0.3715   -1.0580 H   0  0  0  0  0  0  0  0  0  0  0  0
   -2.3313   -2.6540   -1.3505 H   0  0  0  0  0  0  0  0  0  0  0  0
   -2.5936   -2.3976   -3.0707 H   0  0  0  0  0  0  0  0  0  0  0  0
   -4.7382   -2.8874   -1.9556 H   0  0  0  0  0  0  0  0  0  0  0  0
   -4.6965   -1.3183   -2.7335 H   0  0  0  0  0  0  0  0  0  0  0  0
   -3.3016   -2.2578    0.6650 H   0  0  0  0  0  0  0  0  0  0  0  0
   -4.1133   -1.3155    2.7797 H   0  0  0  0  0  0  0  0  0  0  0  0
   -6.0890    0.1839    2.8084 H   0  0  0  0  0  0  0  0  0  0  0  0
   -7.2523    0.7329    0.7177 H   0  0  0  0  0  0  0  0  0  0  0  0
   -6.9854   -0.9491   -2.3530 H   0  0  0  0  0  0  0  0  0  0  0  0
   -6.0801    0.5937   -2.4346 H   0  0  0  0  0  0  0  0  0  0  0  0
   -7.6145    0.4877   -1.5575 H   0  0  0  0  0  0  0  0  0  0  0  0
   -0.9418    0.4401    2.5860 H   0  0  0  0  0  0  0  0  0  0  0  0
   -1.7914    1.9211    2.0947 H   0  0  0  0  0  0  0  0  0  0  0  0
   -0.1573    2.0331    2.8016 H   0  0  0  0  0  0  0  0  0  0  0  0
    2.9077   -0.4661    3.1558 H   0  0  0  0  0  0  0  0  0  0  0  0
    2.5022    1.2650    3.4141 H   0  0  0  0  0  0  0  0  0  0  0  0
    1.2413    0.0385    3.2386 H   0  0  0  0  0  0  0  0  0  0  0  0
    5.1748   -0.4717   -1.1407 H   0  0  0  0  0  0  0  0  0  0  0  0
    7.5512   -0.8488   -0.7102 H   0  0  0  0  0  0  0  0  0  0  0  0
  1  2  1  0
  2  3  2  0
  3  4  1  0
  4  5  2  0
  5  6  1  0
  6  7  1  0
  7  8  2  0
  8  9  1  0
  9 10  2  0
  9 11  1  0
 11 12  1  0
 12 13  1  0
 13 14  2  0
 13 15  1  0
 15 16  1  0
 16 17  1  0
 17 18  1  0
 18 19  2  0
 19 20  1  0
 20 21  2  0
 21 22  1  0
 22 23  2  0
 23 24  1  0
 11 25  1  0
 25 26  2  0
 26 27  1  0
 26 28  1  0
 28 29  2  0
 29 30  1  0
  5 31  1  0
 31 32  2  0
 32  2  1  0
 29  6  1  0
 28  8  1  0
 23 18  1  0
  1 33  1  0
  1 34  1  0
  1 35  1  0
  3 36  1  0
  4 37  1  0
 12 38  1  0
 12 39  1  0
 15 40  1  0
 16 41  1  0
 16 42  1  0
 17 43  1  0
 17 44  1  0
 19 45  1  0
 20 46  1  0
 21 47  1  0
 22 48  1  0
 24 49  1  0
 24 50  1  0
 24 51  1  0
 27 52  1  0
 27 53  1  0
 27 54  1  0
 30 55  1  0
 30 56  1  0
 30 57  1  0
 31 58  1  0
 32 59  1  0
M  END
$$$$
