
     RDKit          3D

 53 56  0  0  0  0  0  0  0  0999 V2000
    7.4544    1.9941    1.7676 C   0  0  0  0  0  0  0  0  0  0  0  0
    6.7675    0.7676    1.9819 O   0  0  0  0  0  0  0  0  0  0  0  0
    5.7524    0.4704    1.1157 C   0  0  0  0  0  0  0  0  0  0  0  0
    5.3578    1.2330    0.0189 C   0  0  0  0  0  0  0  0  0  0  0  0
    4.2961    0.8059   -0.7891 C   0  0  0  0  0  0  0  0  0  0  0  0
    3.6107   -0.3813   -0.5078 C   0  0  0  0  0  0  0  0  0  0  0  0
    2.5585   -0.7383   -1.3741 N   0  0  0  0  0  0  0  0  0  0  0  0
    1.5896   -1.6997   -1.1620 C   0  0  0  0  0  0  0  0  0  0  0  0
    1.4825   -2.4051   -0.1600 O   0  0  0  0  0  0  0  0  0  0  0  0
    0.6233   -1.8986   -2.3216 C   0  0  0  0  0  0  0  0  0  0  0  0
    0.0679   -0.3785   -3.1428 S   0  0  0  0  0  0  0  0  0  0  0  0
   -0.2227    0.6884   -1.8054 C   0  0  0  0  0  0  0  0  0  0  0  0
    0.5391    1.7310   -1.5729 N   0  0  0  0  0  0  0  0  0  0  0  0
    0.1726    2.2520   -0.3643 N   0  0  0  0  0  0  0  0  0  0  0  0
   -0.8229    1.5294    0.1189 C   0  0  0  0  0  0  0  0  0  0  0  0
   -1.5946    1.8765    1.3519 C   0  0  0  0  0  0  0  0  0  0  0  0
   -3.0050    2.3190    1.0665 C   0  0  0  0  0  0  0  0  0  0  0  0
   -4.1862    1.6513    1.3312 C   0  0  0  0  0  0  0  0  0  0  0  0
   -5.3329    2.3855    0.9115 C   0  0  0  0  0  0  0  0  0  0  0  0
   -4.9929    3.5962    0.3528 C   0  0  0  0  0  0  0  0  0  0  0  0
   -3.3024    3.8435    0.3366 S   0  0  0  0  0  0  0  0  0  0  0  0
   -1.1065    0.4912   -0.7609 N   0  0  0  0  0  0  0  0  0  0  0  0
   -2.0726   -0.5314   -0.6133 C   0  0  0  0  0  0  0  0  0  0  0  0
   -2.1358   -1.2630    0.5769 C   0  0  0  0  0  0  0  0  0  0  0  0
   -3.0838   -2.2787    0.7160 C   0  0  0  0  0  0  0  0  0  0  0  0
   -3.9808   -2.5621   -0.3208 C   0  0  0  0  0  0  0  0  0  0  0  0
   -4.9782   -3.6741   -0.1779 C   0  0  0  0  0  0  0  0  0  0  0  0
   -3.8945   -1.8379   -1.5160 C   0  0  0  0  0  0  0  0  0  0  0  0
   -2.9444   -0.8259   -1.6667 C   0  0  0  0  0  0  0  0  0  0  0  0
    4.0106   -1.1438    0.5879 C   0  0  0  0  0  0  0  0  0  0  0  0
    5.0754   -0.7185    1.3914 C   0  0  0  0  0  0  0  0  0  0  0  0
    6.7752    2.8484    1.8587 H   0  0  0  0  0  0  0  0  0  0  0  0
    7.9658    1.9959    0.7994 H   0  0  0  0  0  0  0  0  0  0  0  0
    8.2173    2.0908    2.5466 H   0  0  0  0  0  0  0  0  0  0  0  0
    5.8473    2.1665   -0.2367 H   0  0  0  0  0  0  0  0  0  0  0  0
    4.0008    1.4300   -1.6295 H   0  0  0  0  0  0  0  0  0  0  0  0
    2.3871   -0.0959   -2.1430 H   0  0  0  0  0  0  0  0  0  0  0  0
    1.1148   -2.5357   -3.0639 H   0  0  0  0  0  0  0  0  0  0  0  0
   -0.2547   -2.4388   -1.9544 H   0  0  0  0  0  0  0  0  0  0  0  0
   -1.5962    1.0376    2.0547 H   0  0  0  0  0  0  0  0  0  0  0  0
   -1.0715    2.6867    1.8781 H   0  0  0  0  0  0  0  0  0  0  0  0
   -4.2321    0.6746    1.7982 H   0  0  0  0  0  0  0  0  0  0  0  0
   -6.3553    2.0435    1.0167 H   0  0  0  0  0  0  0  0  0  0  0  0
   -5.6554    4.3526   -0.0452 H   0  0  0  0  0  0  0  0  0  0  0  0
   -1.4253   -1.1036    1.3850 H   0  0  0  0  0  0  0  0  0  0  0  0
   -3.1100   -2.8586    1.6367 H   0  0  0  0  0  0  0  0  0  0  0  0
   -5.2871   -3.7900    0.8663 H   0  0  0  0  0  0  0  0  0  0  0  0
   -5.8810   -3.4658   -0.7620 H   0  0  0  0  0  0  0  0  0  0  0  0
   -4.5411   -4.6156   -0.5247 H   0  0  0  0  0  0  0  0  0  0  0  0
   -4.5739   -2.0551   -2.3381 H   0  0  0  0  0  0  0  0  0  0  0  0
   -2.9284   -0.2608   -2.5961 H   0  0  0  0  0  0  0  0  0  0  0  0
    3.5252   -2.0807    0.8413 H   0  0  0  0  0  0  0  0  0  0  0  0
    5.3765   -1.3244    2.2425 H   0  0  0  0  0  0  0  0  0  0  0  0
  1  2  1  0
  2  3  1  0
  3  4  2  0
  4  5  1  0
  5  6  2  0
  6  7  1  0
  7  8  1  0
  8  9  2  0
  8 10  1  0
 10 11  1  0
 11 12  1  0
 12 13  2  0
 13 14  1  0
 14 15  2  0
 15 16  1  0
 16 17  1  0
 17 18  2  0
 18 19  1  0
 19 20  2  0
 20 21  1  0
 15 22  1  0
 22 23  1  0
 23 24  2  0
 24 25  1  0
 25 26  2  0
 26 27  1  0
 26 28  1  0
 28 29  2  0
  6 30  1  0
 30 31  2  0
 31  3  1  0
 22 12  1  0
 29 23  1  0
 21 17  1  0
  1 32  1  0
  1 33  1  0
  1 34  1  0
  4 35  1  0
  5 36  1  0
  7 37  1  0
 10 38  1  0
 10 39  1  0
 16 40  1  0
 16 41  1  0
 18 42  1  0
 19 43  1  0
 20 44  1  0
 24 45  1  0
 25 46  1  0
 27 47  1  0
 27 48  1  0
 27 49  1  0
 28 50  1  0
 29 51  1  0
 30 52  1  0
 31 53  1  0
M  END
$$$$
