
     RDKit          3D

 60 65  0  0  0  0  0  0  0  0999 V2000
    5.4597   -1.9622    0.0957 C   0  0  0  0  0  0  0  0  0  0  0  0
    5.3370   -0.4899   -0.0204 C   0  0  0  0  0  0  0  0  0  0  0  0
    6.2214    0.2933    0.6104 N   0  0  0  0  0  0  0  0  0  0  0  0
    5.9029    1.5869    0.2454 O   0  0  0  0  0  0  0  0  0  0  0  0
    4.8247    1.5749   -0.5826 C   0  0  0  0  0  0  0  0  0  0  0  0
    4.3717    2.8830   -1.0919 C   0  0  0  0  0  0  0  0  0  0  0  0
    4.3829    0.2794   -0.7456 C   0  0  0  0  0  0  0  0  0  0  0  0
    3.2588   -0.1266   -1.5641 C   0  0  0  0  0  0  0  0  0  0  0  0
    3.0757    0.3875   -2.6656 O   0  0  0  0  0  0  0  0  0  0  0  0
    2.4114   -1.1246   -1.0635 N   0  0  0  0  0  0  0  0  0  0  0  0
    1.3824   -1.6595   -1.9481 C   0  0  0  0  0  0  0  0  0  0  0  0
    0.0368   -0.9902   -1.6721 C   0  0  0  0  0  0  0  0  0  0  0  0
   -0.3714   -1.1264   -0.1768 C   0  0  0  0  0  0  0  0  0  0  0  0
    0.7957   -0.6178    0.7120 C   0  0  0  0  0  0  0  0  0  0  0  0
    2.1211   -1.2969    0.3589 C   0  0  0  0  0  0  0  0  0  0  0  0
   -0.5078   -2.5596    0.0129 O   0  0  0  0  0  0  0  0  0  0  0  0
   -1.2035   -2.9938    1.0987 C   0  0  0  0  0  0  0  0  0  0  0  0
   -1.0516   -4.3438    1.4205 C   0  0  0  0  0  0  0  0  0  0  0  0
   -1.7035   -4.8717    2.5346 C   0  0  0  0  0  0  0  0  0  0  0  0
   -2.5080   -4.0475    3.3148 C   0  0  0  0  0  0  0  0  0  0  0  0
   -3.1271   -4.5570    4.3859 F   0  0  0  0  0  0  0  0  0  0  0  0
   -2.6793   -2.7066    2.9983 C   0  0  0  0  0  0  0  0  0  0  0  0
   -2.0285   -2.1879    1.8767 C   0  0  0  0  0  0  0  0  0  0  0  0
   -2.1925   -0.7762    1.5042 C   0  0  0  0  0  0  0  0  0  0  0  0
   -2.6970    0.0063    2.3068 O   0  0  0  0  0  0  0  0  0  0  0  0
   -1.7060   -0.3832    0.1129 C   0  0  0  0  0  0  0  0  0  0  0  0
   -1.6562    1.1317   -0.0379 C   0  0  0  0  0  0  0  0  0  0  0  0
   -2.9752    1.3450   -0.6984 C   0  0  0  0  0  0  0  0  0  0  0  0
   -3.5736    2.6935   -0.8501 C   0  0  0  0  0  0  0  0  0  0  0  0
   -2.9037    3.8479   -0.4273 C   0  0  0  0  0  0  0  0  0  0  0  0
   -3.5053    5.1036   -0.5797 C   0  0  0  0  0  0  0  0  0  0  0  0
   -4.7719    5.2059   -1.1533 C   0  0  0  0  0  0  0  0  0  0  0  0
   -5.5117    6.7513   -1.3269 Cl  0  0  0  0  0  0  0  0  0  0  0  0
   -5.4427    4.0635   -1.5826 C   0  0  0  0  0  0  0  0  0  0  0  0
   -4.8443    2.8084   -1.4315 C   0  0  0  0  0  0  0  0  0  0  0  0
   -3.5350    0.2694   -1.1540 N   0  0  0  0  0  0  0  0  0  0  0  0
   -2.7078   -0.8233   -0.8197 O   0  0  0  0  0  0  0  0  0  0  0  0
    6.5098   -2.2706    0.0910 H   0  0  0  0  0  0  0  0  0  0  0  0
    5.0074   -2.3071    1.0297 H   0  0  0  0  0  0  0  0  0  0  0  0
    4.9656   -2.4715   -0.7388 H   0  0  0  0  0  0  0  0  0  0  0  0
    5.0782    3.6794   -0.8274 H   0  0  0  0  0  0  0  0  0  0  0  0
    4.2804    2.8608   -2.1840 H   0  0  0  0  0  0  0  0  0  0  0  0
    3.3933    3.1403   -0.6669 H   0  0  0  0  0  0  0  0  0  0  0  0
    1.6608   -1.5191   -2.9981 H   0  0  0  0  0  0  0  0  0  0  0  0
    1.3278   -2.7405   -1.7780 H   0  0  0  0  0  0  0  0  0  0  0  0
    0.1064    0.0619   -1.9634 H   0  0  0  0  0  0  0  0  0  0  0  0
   -0.7120   -1.4633   -2.3179 H   0  0  0  0  0  0  0  0  0  0  0  0
    0.5938   -0.8065    1.7719 H   0  0  0  0  0  0  0  0  0  0  0  0
    0.9128    0.4653    0.5926 H   0  0  0  0  0  0  0  0  0  0  0  0
    2.0811   -2.3720    0.5661 H   0  0  0  0  0  0  0  0  0  0  0  0
    2.9010   -0.8690    0.9901 H   0  0  0  0  0  0  0  0  0  0  0  0
   -0.4195   -4.9836    0.8091 H   0  0  0  0  0  0  0  0  0  0  0  0
   -1.5903   -5.9186    2.7992 H   0  0  0  0  0  0  0  0  0  0  0  0
   -3.3189   -2.0848    3.6176 H   0  0  0  0  0  0  0  0  0  0  0  0
   -0.8772    1.4820   -0.7190 H   0  0  0  0  0  0  0  0  0  0  0  0
   -1.5669    1.6705    0.9080 H   0  0  0  0  0  0  0  0  0  0  0  0
   -1.9177    3.8015    0.0248 H   0  0  0  0  0  0  0  0  0  0  0  0
   -2.9833    5.9971   -0.2444 H   0  0  0  0  0  0  0  0  0  0  0  0
   -6.4304    4.1390   -2.0298 H   0  0  0  0  0  0  0  0  0  0  0  0
   -5.3806    1.9220   -1.7662 H   0  0  0  0  0  0  0  0  0  0  0  0
  1  2  1  0
  2  3  2  0
  3  4  1  0
  4  5  1  0
  5  6  1  0
  5  7  2  0
  7  8  1  0
  8  9  2  0
  8 10  1  0
 10 11  1  0
 11 12  1  0
 12 13  1  0
 13 14  1  0
 14 15  1  0
 13 16  1  0
 16 17  1  0
 17 18  2  0
 18 19  1  0
 19 20  2  0
 20 21  1  0
 20 22  1  0
 22 23  2  0
 23 24  1  0
 24 25  2  0
 24 26  1  0
 26 27  1  0
 27 28  1  0
 28 29  1  0
 29 30  2  0
 30 31  1  0
 31 32  2  0
 32 33  1  0
 32 34  1  0
 34 35  2  0
 28 36  2  0
 36 37  1  0
  7  2  1  0
 15 10  1  0
 23 17  1  0
 37 26  1  0
 26 13  1  0
 35 29  1  0
  1 38  1  0
  1 39  1  0
  1 40  1  0
  6 41  1  0
  6 42  1  0
  6 43  1  0
 11 44  1  0
 11 45  1  0
 12 46  1  0
 12 47  1  0
 14 48  1  0
 14 49  1  0
 15 50  1  0
 15 51  1  0
 18 52  1  0
 19 53  1  0
 22 54  1  0
 27 55  1  0
 27 56  1  0
 30 57  1  0
 31 58  1  0
 34 59  1  0
 35 60  1  0
M  END
$$$$
