
     RDKit          3D

 39 41  0  0  0  0  0  0  0  0999 V2000
   -3.9377   -1.8857   -0.7473 C   0  0  0  0  0  0  0  0  0  0  0  0
   -3.6013   -1.7452    0.7312 C   0  0  0  0  0  0  0  0  0  0  0  0
   -2.4795   -0.8352    0.9478 N   0  0  0  0  0  0  0  0  0  0  0  0
   -2.7732    0.5134    1.0822 C   0  0  0  0  0  0  0  0  0  0  0  0
   -3.9105    0.9766    1.0256 O   0  0  0  0  0  0  0  0  0  0  0  0
   -1.6373    1.4205    1.2976 C   0  0  0  0  0  0  0  0  0  0  0  0
   -1.8829    2.7894    1.4955 C   0  0  0  0  0  0  0  0  0  0  0  0
   -0.8237    3.6660    1.7045 C   0  0  0  0  0  0  0  0  0  0  0  0
    0.4758    3.1743    1.7159 C   0  0  0  0  0  0  0  0  0  0  0  0
    0.7152    1.8091    1.5171 C   0  0  0  0  0  0  0  0  0  0  0  0
   -0.3406    0.9084    1.3019 C   0  0  0  0  0  0  0  0  0  0  0  0
   -0.1364   -0.4844    1.0857 N   0  0  0  0  0  0  0  0  0  0  0  0
    1.2178   -1.0470    1.0358 C   0  0  0  0  0  0  0  0  0  0  0  0
    1.9445   -0.7862   -0.2718 C   0  0  0  0  0  0  0  0  0  0  0  0
    3.2559   -0.2824   -0.2610 C   0  0  0  0  0  0  0  0  0  0  0  0
    3.9438   -0.0542   -1.4561 C   0  0  0  0  0  0  0  0  0  0  0  0
    3.3226   -0.3446   -2.6768 C   0  0  0  0  0  0  0  0  0  0  0  0
    4.0414   -0.1056   -3.9342 N   0  0  0  0  0  4  0  0  0  0  0  0
    5.1867    0.3634   -3.8627 O   0  0  0  0  0  0  0  0  0  0  0  0
    3.4617   -0.3845   -4.9934 O   0  0  0  0  0  1  0  0  0  0  0  0
    2.0252   -0.8671   -2.7064 C   0  0  0  0  0  0  0  0  0  0  0  0
    1.3459   -1.0912   -1.5058 C   0  0  0  0  0  0  0  0  0  0  0  0
   -1.1975   -1.3648    0.8883 C   0  0  0  0  0  0  0  0  0  0  0  0
   -1.0079   -2.5619    0.6566 O   0  0  0  0  0  0  0  0  0  0  0  0
   -4.2103   -0.9193   -1.1836 H   0  0  0  0  0  0  0  0  0  0  0  0
   -3.0850   -2.2772   -1.3115 H   0  0  0  0  0  0  0  0  0  0  0  0
   -4.7801   -2.5712   -0.8813 H   0  0  0  0  0  0  0  0  0  0  0  0
   -4.4817   -1.3780    1.2710 H   0  0  0  0  0  0  0  0  0  0  0  0
   -3.3622   -2.7307    1.1468 H   0  0  0  0  0  0  0  0  0  0  0  0
   -2.9021    3.1721    1.4866 H   0  0  0  0  0  0  0  0  0  0  0  0
   -1.0127    4.7258    1.8569 H   0  0  0  0  0  0  0  0  0  0  0  0
    1.3103    3.8533    1.8780 H   0  0  0  0  0  0  0  0  0  0  0  0
    1.7509    1.4891    1.5367 H   0  0  0  0  0  0  0  0  0  0  0  0
    1.7858   -0.6659    1.8932 H   0  0  0  0  0  0  0  0  0  0  0  0
    1.1913   -2.1337    1.1827 H   0  0  0  0  0  0  0  0  0  0  0  0
    3.7552   -0.0632    0.6814 H   0  0  0  0  0  0  0  0  0  0  0  0
    4.9564    0.3425   -1.4181 H   0  0  0  0  0  0  0  0  0  0  0  0
    1.5324   -1.1093   -3.6460 H   0  0  0  0  0  0  0  0  0  0  0  0
    0.3435   -1.5154   -1.5424 H   0  0  0  0  0  0  0  0  0  0  0  0
  1  2  1  0
  2  3  1  0
  3  4  1  0
  4  5  2  0
  4  6  1  0
  6  7  2  0
  7  8  1  0
  8  9  2  0
  9 10  1  0
 10 11  2  0
 11 12  1  0
 12 13  1  0
 13 14  1  0
 14 15  2  0
 15 16  1  0
 16 17  2  0
 17 18  1  0
 18 19  2  0
 18 20  1  0
 17 21  1  0
 21 22  2  0
 12 23  1  0
 23 24  2  0
 23  3  1  0
 11  6  1  0
 22 14  1  0
  1 25  1  0
  1 26  1  0
  1 27  1  0
  2 28  1  0
  2 29  1  0
  7 30  1  0
  8 31  1  0
  9 32  1  0
 10 33  1  0
 13 34  1  0
 13 35  1  0
 15 36  1  0
 16 37  1  0
 21 38  1  0
 22 39  1  0
M  CHG  2  18   1  20  -1
M  END
$$$$
