
     RDKit          3D

 52 53  0  0  0  0  0  0  0  0999 V2000
    5.8734   -2.1619   -2.8547 C   0  0  0  0  0  0  0  0  0  0  0  0
    4.8276   -2.9770   -2.1074 C   0  0  0  0  0  0  0  0  0  0  0  0
    3.6570   -2.1312   -1.5902 C   0  0  0  0  0  0  0  0  0  0  0  0
    4.1251   -1.1528   -0.6105 N   0  0  0  0  0  0  0  0  0  0  0  0
    3.0868   -0.1973   -0.2008 C   0  0  0  0  0  0  0  0  0  0  0  0
    2.1094   -0.7125    0.8805 C   0  0  0  0  0  0  0  0  0  0  0  0
    1.2360   -1.7113    0.3430 O   0  0  0  0  0  0  0  0  0  0  0  0
    1.2594    0.4357    1.4459 C   0  0  0  0  0  0  0  0  0  0  0  0
    0.4670    0.9950    0.3780 O   0  0  0  0  0  0  0  0  0  0  0  0
    0.2208    2.3225    0.6061 C   0  0  0  0  0  0  0  0  0  0  0  0
    1.0635    3.2433   -0.0238 C   0  0  0  0  0  0  0  0  0  0  0  0
    0.8918    4.6104    0.1929 C   0  0  0  0  0  0  0  0  0  0  0  0
   -0.1214    5.0610    1.0374 C   0  0  0  0  0  0  0  0  0  0  0  0
   -0.9833    4.1451    1.6423 C   0  0  0  0  0  0  0  0  0  0  0  0
   -0.8307    2.7702    1.4116 C   0  0  0  0  0  0  0  0  0  0  0  0
   -1.8149    1.8628    2.0500 C   0  0  0  0  0  0  0  0  0  0  0  0
   -2.1816    2.1071    3.1987 O   0  0  0  0  0  0  0  0  0  0  0  0
   -2.3604    0.6926    1.2580 C   0  0  0  0  0  0  0  0  0  0  0  0
   -3.8810    0.6376    1.3984 C   0  0  0  0  0  0  0  0  0  0  0  0
   -4.4759   -0.5320    0.6539 C   0  0  0  0  0  0  0  0  0  0  0  0
   -4.6589   -0.4737   -0.7336 C   0  0  0  0  0  0  0  0  0  0  0  0
   -5.2064   -1.5586   -1.4203 C   0  0  0  0  0  0  0  0  0  0  0  0
   -5.5788   -2.7087   -0.7269 C   0  0  0  0  0  0  0  0  0  0  0  0
   -5.3987   -2.7776    0.6522 C   0  0  0  0  0  0  0  0  0  0  0  0
   -4.8466   -1.6956    1.3400 C   0  0  0  0  0  0  0  0  0  0  0  0
    5.4220   -1.6244   -3.6958 H   0  0  0  0  0  0  0  0  0  0  0  0
    6.6554   -2.8172   -3.2509 H   0  0  0  0  0  0  0  0  0  0  0  0
    6.3546   -1.4292   -2.1973 H   0  0  0  0  0  0  0  0  0  0  0  0
    4.4331   -3.7432   -2.7860 H   0  0  0  0  0  0  0  0  0  0  0  0
    5.3047   -3.5067   -1.2740 H   0  0  0  0  0  0  0  0  0  0  0  0
    2.9221   -2.8058   -1.1404 H   0  0  0  0  0  0  0  0  0  0  0  0
    3.1799   -1.6304   -2.4412 H   0  0  0  0  0  0  0  0  0  0  0  0
    4.4823   -1.6493    0.2056 H   0  0  0  0  0  0  0  0  0  0  0  0
    2.5403    0.1522   -1.0847 H   0  0  0  0  0  0  0  0  0  0  0  0
    3.6151    0.6732    0.2026 H   0  0  0  0  0  0  0  0  0  0  0  0
    2.6707   -1.1730    1.7012 H   0  0  0  0  0  0  0  0  0  0  0  0
    0.6812   -1.2626   -0.3221 H   0  0  0  0  0  0  0  0  0  0  0  0
    0.5727    0.0422    2.2039 H   0  0  0  0  0  0  0  0  0  0  0  0
    1.9135    1.1840    1.9118 H   0  0  0  0  0  0  0  0  0  0  0  0
    1.8687    2.8969   -0.6699 H   0  0  0  0  0  0  0  0  0  0  0  0
    1.5559    5.3263   -0.2867 H   0  0  0  0  0  0  0  0  0  0  0  0
   -0.2458    6.1261    1.2188 H   0  0  0  0  0  0  0  0  0  0  0  0
   -1.7785    4.5052    2.2920 H   0  0  0  0  0  0  0  0  0  0  0  0
   -2.0994    0.7914    0.1986 H   0  0  0  0  0  0  0  0  0  0  0  0
   -1.8971   -0.2259    1.6368 H   0  0  0  0  0  0  0  0  0  0  0  0
   -4.3229    1.5683    1.0150 H   0  0  0  0  0  0  0  0  0  0  0  0
   -4.1712    0.5883    2.4549 H   0  0  0  0  0  0  0  0  0  0  0  0
   -4.3782    0.4191   -1.2888 H   0  0  0  0  0  0  0  0  0  0  0  0
   -5.3459   -1.5081   -2.4949 H   0  0  0  0  0  0  0  0  0  0  0  0
   -6.0131   -3.5505   -1.2606 H   0  0  0  0  0  0  0  0  0  0  0  0
   -5.6915   -3.6724    1.1950 H   0  0  0  0  0  0  0  0  0  0  0  0
   -4.7079   -1.7674    2.4166 H   0  0  0  0  0  0  0  0  0  0  0  0
  1  2  1  0
  2  3  1  0
  3  4  1  0
  4  5  1  0
  5  6  1  0
  6  7  1  0
  6  8  1  0
  8  9  1  0
  9 10  1  0
 10 11  2  0
 11 12  1  0
 12 13  2  0
 13 14  1  0
 14 15  2  0
 15 16  1  0
 16 17  2  0
 16 18  1  0
 18 19  1  0
 19 20  1  0
 20 21  2  0
 21 22  1  0
 22 23  2  0
 23 24  1  0
 24 25  2  0
 15 10  1  0
 25 20  1  0
  1 26  1  0
  1 27  1  0
  1 28  1  0
  2 29  1  0
  2 30  1  0
  3 31  1  0
  3 32  1  0
  4 33  1  0
  5 34  1  0
  5 35  1  0
  6 36  1  0
  7 37  1  0
  8 38  1  0
  8 39  1  0
 11 40  1  0
 12 41  1  0
 13 42  1  0
 14 43  1  0
 18 44  1  0
 18 45  1  0
 19 46  1  0
 19 47  1  0
 21 48  1  0
 22 49  1  0
 23 50  1  0
 24 51  1  0
 25 52  1  0
M  END
$$$$
