
     RDKit          3D

 62 66  0  0  0  0  0  0  0  0999 V2000
   -3.8835    6.2912   -0.9887 C   0  0  0  0  0  0  0  0  0  0  0  0
   -3.0538    5.1398   -0.8998 O   0  0  0  0  0  0  0  0  0  0  0  0
   -3.6804    3.9236   -0.8806 C   0  0  0  0  0  0  0  0  0  0  0  0
   -5.0484    3.7080   -0.9758 C   0  0  0  0  0  0  0  0  0  0  0  0
   -5.5695    2.4093   -0.9434 C   0  0  0  0  0  0  0  0  0  0  0  0
   -4.6906    1.3166   -0.8152 C   0  0  0  0  0  0  0  0  0  0  0  0
   -5.1157   -0.3462   -0.7553 S   0  0  0  0  0  0  0  0  0  0  0  0
   -3.4883   -0.8459   -0.5960 C   0  0  0  0  0  0  0  0  0  0  0  0
   -3.2084   -2.2859   -0.5130 C   0  0  0  0  0  0  0  0  0  0  0  0
   -2.8045   -2.9602   -1.6771 C   0  0  0  0  0  0  0  0  0  0  0  0
   -2.5224   -4.3246   -1.6438 C   0  0  0  0  0  0  0  0  0  0  0  0
   -2.6391   -5.0254   -0.4472 C   0  0  0  0  0  0  0  0  0  0  0  0
   -3.0348   -4.3657    0.7204 C   0  0  0  0  0  0  0  0  0  0  0  0
   -3.3202   -2.9952    0.7013 C   0  0  0  0  0  0  0  0  0  0  0  0
   -3.6950   -2.2663    1.8026 O   0  0  0  0  0  0  0  0  0  0  0  0
   -3.8691   -2.9658    3.0261 C   0  0  0  0  0  0  0  0  0  0  0  0
   -2.6184    0.2323   -0.5983 C   0  0  0  0  0  0  0  0  0  0  0  0
   -1.1737    0.0547   -0.4977 C   0  0  0  0  0  0  0  0  0  0  0  0
   -0.3553    0.3552   -1.5917 C   0  0  0  0  0  0  0  0  0  0  0  0
    1.0331    0.2047   -1.5004 C   0  0  0  0  0  0  0  0  0  0  0  0
    1.6131   -0.2441   -0.3134 C   0  0  0  0  0  0  0  0  0  0  0  0
    2.9494   -0.4291   -0.0904 O   0  0  0  0  0  0  0  0  0  0  0  0
    3.8430   -0.0549   -1.1429 C   0  0  0  0  0  0  0  0  0  0  0  0
    5.2973   -0.2602   -0.6759 C   0  0  0  0  0  0  0  0  0  0  0  0
    5.9068    0.9350   -0.0497 N   0  0  0  0  0  0  0  0  0  0  0  0
    7.3141    0.6808    0.3021 C   0  0  0  0  0  0  0  0  0  0  0  0
    7.2985    0.0393    1.6832 C   0  0  0  0  0  0  0  0  0  0  0  0
    5.9398    0.3923    2.2730 C   0  0  0  0  0  0  0  0  0  0  0  0
    5.2910    1.2959    1.2369 C   0  0  0  0  0  0  0  0  0  0  0  0
    0.7932   -0.5466    0.7770 C   0  0  0  0  0  0  0  0  0  0  0  0
   -0.5929   -0.3958    0.6906 C   0  0  0  0  0  0  0  0  0  0  0  0
   -3.3102    1.4969   -0.7214 C   0  0  0  0  0  0  0  0  0  0  0  0
   -2.8178    2.8282   -0.7537 C   0  0  0  0  0  0  0  0  0  0  0  0
   -4.4417    6.3027   -1.9307 H   0  0  0  0  0  0  0  0  0  0  0  0
   -4.5570    6.3607   -0.1280 H   0  0  0  0  0  0  0  0  0  0  0  0
   -3.2349    7.1728   -0.9759 H   0  0  0  0  0  0  0  0  0  0  0  0
   -5.7506    4.5293   -1.0760 H   0  0  0  0  0  0  0  0  0  0  0  0
   -6.6415    2.2475   -1.0154 H   0  0  0  0  0  0  0  0  0  0  0  0
   -2.7084   -2.4180   -2.6153 H   0  0  0  0  0  0  0  0  0  0  0  0
   -2.2102   -4.8377   -2.5495 H   0  0  0  0  0  0  0  0  0  0  0  0
   -2.4179   -6.0896   -0.4188 H   0  0  0  0  0  0  0  0  0  0  0  0
   -3.1048   -4.9518    1.6305 H   0  0  0  0  0  0  0  0  0  0  0  0
   -4.6557   -3.7227    2.9421 H   0  0  0  0  0  0  0  0  0  0  0  0
   -2.9271   -3.4087    3.3650 H   0  0  0  0  0  0  0  0  0  0  0  0
   -4.1846   -2.2412    3.7819 H   0  0  0  0  0  0  0  0  0  0  0  0
   -0.7929    0.7088   -2.5226 H   0  0  0  0  0  0  0  0  0  0  0  0
    1.6287    0.4480   -2.3736 H   0  0  0  0  0  0  0  0  0  0  0  0
    3.6649   -0.7103   -2.0048 H   0  0  0  0  0  0  0  0  0  0  0  0
    3.6864    0.9888   -1.4434 H   0  0  0  0  0  0  0  0  0  0  0  0
    5.8848   -0.4779   -1.5777 H   0  0  0  0  0  0  0  0  0  0  0  0
    5.3605   -1.1396   -0.0226 H   0  0  0  0  0  0  0  0  0  0  0  0
    7.8490    0.0723   -0.4355 H   0  0  0  0  0  0  0  0  0  0  0  0
    7.8377    1.6437    0.3526 H   0  0  0  0  0  0  0  0  0  0  0  0
    7.4036   -1.0494    1.6125 H   0  0  0  0  0  0  0  0  0  0  0  0
    8.1166    0.4167    2.3043 H   0  0  0  0  0  0  0  0  0  0  0  0
    6.0342    0.8910    3.2429 H   0  0  0  0  0  0  0  0  0  0  0  0
    5.3485   -0.5198    2.4188 H   0  0  0  0  0  0  0  0  0  0  0  0
    4.1996    1.2437    1.2549 H   0  0  0  0  0  0  0  0  0  0  0  0
    5.5473    2.3402    1.4570 H   0  0  0  0  0  0  0  0  0  0  0  0
    1.2375   -0.8988    1.7043 H   0  0  0  0  0  0  0  0  0  0  0  0
   -1.2121   -0.6294    1.5535 H   0  0  0  0  0  0  0  0  0  0  0  0
   -1.7474    3.0051   -0.6728 H   0  0  0  0  0  0  0  0  0  0  0  0
  1  2  1  0
  2  3  1  0
  3  4  2  0
  4  5  1  0
  5  6  2  0
  6  7  1  0
  7  8  1  0
  8  9  1  0
  9 10  2  0
 10 11  1  0
 11 12  2  0
 12 13  1  0
 13 14  2  0
 14 15  1  0
 15 16  1  0
  8 17  2  0
 17 18  1  0
 18 19  2  0
 19 20  1  0
 20 21  2  0
 21 22  1  0
 22 23  1  0
 23 24  1  0
 24 25  1  0
 25 26  1  0
 26 27  1  0
 27 28  1  0
 28 29  1  0
 21 30  1  0
 30 31  2  0
 17 32  1  0
 32 33  2  0
 33  3  1  0
 32  6  1  0
 14  9  1  0
 31 18  1  0
 29 25  1  0
  1 34  1  0
  1 35  1  0
  1 36  1  0
  4 37  1  0
  5 38  1  0
 10 39  1  0
 11 40  1  0
 12 41  1  0
 13 42  1  0
 16 43  1  0
 16 44  1  0
 16 45  1  0
 19 46  1  0
 20 47  1  0
 23 48  1  0
 23 49  1  0
 24 50  1  0
 24 51  1  0
 26 52  1  0
 26 53  1  0
 27 54  1  0
 27 55  1  0
 28 56  1  0
 28 57  1  0
 29 58  1  0
 29 59  1  0
 30 60  1  0
 31 61  1  0
 33 62  1  0
M  END
$$$$
