
     RDKit          3D

 33 33  0  0  0  0  0  0  0  0999 V2000
   -2.9972    1.7754    0.6344 C   0  0  0  0  0  0  0  0  0  0  0  0
   -3.1734    0.2584    0.5288 C   0  0  0  0  0  0  0  0  0  0  0  0
   -4.5665   -0.1345    1.0266 C   0  0  0  0  0  0  0  0  0  0  0  0
   -2.0992   -0.5050    1.3281 C   0  0  0  0  0  0  0  0  0  0  0  0
   -0.7027   -0.3509    0.7745 C   0  0  0  0  0  0  0  0  0  0  0  0
    0.2475    0.4283    1.4435 C   0  0  0  0  0  0  0  0  0  0  0  0
    1.5383    0.5733    0.9282 C   0  0  0  0  0  0  0  0  0  0  0  0
    1.9069   -0.0555   -0.2694 C   0  0  0  0  0  0  0  0  0  0  0  0
    3.3161    0.1088   -0.8095 C   0  0  0  0  0  0  0  0  0  0  0  0
    3.3390    0.6842   -2.2283 C   0  0  0  0  0  0  0  0  0  0  0  0
    4.1142   -1.1772   -0.6924 C   0  0  0  0  0  0  0  0  0  0  0  0
    4.7539   -1.5341    0.2860 O   0  0  0  0  0  0  0  0  0  0  0  0
    4.0432   -1.9809   -1.7727 O   0  0  0  0  0  0  0  0  0  0  0  0
    0.9544   -0.8426   -0.9325 C   0  0  0  0  0  0  0  0  0  0  0  0
   -0.3361   -0.9868   -0.4171 C   0  0  0  0  0  0  0  0  0  0  0  0
   -3.7967    2.2964    0.0965 H   0  0  0  0  0  0  0  0  0  0  0  0
   -2.0471    2.0974    0.1970 H   0  0  0  0  0  0  0  0  0  0  0  0
   -3.0218    2.1066    1.6782 H   0  0  0  0  0  0  0  0  0  0  0  0
   -3.1076   -0.0186   -0.5310 H   0  0  0  0  0  0  0  0  0  0  0  0
   -4.6993    0.1242    2.0827 H   0  0  0  0  0  0  0  0  0  0  0  0
   -5.3446    0.3785    0.4514 H   0  0  0  0  0  0  0  0  0  0  0  0
   -4.7287   -1.2121    0.9180 H   0  0  0  0  0  0  0  0  0  0  0  0
   -2.1210   -0.1887    2.3794 H   0  0  0  0  0  0  0  0  0  0  0  0
   -2.3363   -1.5774    1.3388 H   0  0  0  0  0  0  0  0  0  0  0  0
   -0.0099    0.9308    2.3733 H   0  0  0  0  0  0  0  0  0  0  0  0
    2.2549    1.1822    1.4759 H   0  0  0  0  0  0  0  0  0  0  0  0
    3.8529    0.8382   -0.1866 H   0  0  0  0  0  0  0  0  0  0  0  0
    2.8410    0.0315   -2.9534 H   0  0  0  0  0  0  0  0  0  0  0  0
    4.3707    0.8222   -2.5706 H   0  0  0  0  0  0  0  0  0  0  0  0
    2.8379    1.6580   -2.2610 H   0  0  0  0  0  0  0  0  0  0  0  0
    4.5634   -2.7685   -1.5077 H   0  0  0  0  0  0  0  0  0  0  0  0
    1.2085   -1.3576   -1.8568 H   0  0  0  0  0  0  0  0  0  0  0  0
   -1.0546   -1.6038   -0.9522 H   0  0  0  0  0  0  0  0  0  0  0  0
  1  2  1  0
  2  3  1  0
  2  4  1  0
  4  5  1  0
  5  6  2  0
  6  7  1  0
  7  8  2  0
  8  9  1  0
  9 10  1  0
  9 11  1  0
 11 12  2  0
 11 13  1  0
  8 14  1  0
 14 15  2  0
 15  5  1  0
  1 16  1  0
  1 17  1  0
  1 18  1  0
  2 19  1  0
  3 20  1  0
  3 21  1  0
  3 22  1  0
  4 23  1  0
  4 24  1  0
  6 25  1  0
  7 26  1  0
  9 27  1  0
 10 28  1  0
 10 29  1  0
 10 30  1  0
 13 31  1  0
 14 32  1  0
 15 33  1  0
M  END
$$$$
