
     RDKit          3D

 58 62  0  0  0  0  0  0  0  0999 V2000
    7.5628    2.6379   -0.4870 C   0  0  0  0  0  0  0  0  0  0  0  0
    6.5182    2.8394    0.4564 O   0  0  0  0  0  0  0  0  0  0  0  0
    5.4963    1.9301    0.4583 C   0  0  0  0  0  0  0  0  0  0  0  0
    4.5097    2.1694    1.4199 C   0  0  0  0  0  0  0  0  0  0  0  0
    3.4049    1.3211    1.5380 C   0  0  0  0  0  0  0  0  0  0  0  0
    3.2665    0.2188    0.6967 C   0  0  0  0  0  0  0  0  0  0  0  0
    2.1302   -0.5987    0.8475 N   0  0  0  0  0  0  0  0  0  0  0  0
    1.9449   -1.6362    0.0712 C   0  0  0  0  0  0  0  0  0  0  0  0
    0.7935   -2.4074    0.2209 N   0  0  0  0  0  0  0  0  0  0  0  0
   -0.1416   -2.4980   -0.9171 C   0  0  0  0  0  0  0  0  0  0  0  0
   -1.1377   -1.3138   -0.9075 C   0  0  0  0  0  0  0  0  0  0  0  0
   -1.9110   -1.2310    0.3537 N   0  0  0  0  0  0  0  0  0  0  0  0
   -2.8010   -0.0551    0.3851 C   0  0  0  0  0  0  0  0  0  0  0  0
   -3.9841   -0.1659   -0.5933 C   0  0  0  0  0  0  0  0  0  0  0  0
   -4.9477    0.9973   -0.4491 C   0  0  0  0  0  0  0  0  0  0  0  0
   -4.6267    2.2070   -1.0928 C   0  0  0  0  0  0  0  0  0  0  0  0
   -5.4612    3.3187   -0.9898 C   0  0  0  0  0  0  0  0  0  0  0  0
   -6.6295    3.2420   -0.2413 C   0  0  0  0  0  0  0  0  0  0  0  0
   -6.9627    2.0528    0.4064 C   0  0  0  0  0  0  0  0  0  0  0  0
   -6.1324    0.9176    0.3190 C   0  0  0  0  0  0  0  0  0  0  0  0
   -6.5462   -0.3490    1.0389 C   0  0  0  0  0  0  0  0  0  0  0  0
   -6.8370   -1.3681    0.1833 F   0  0  0  0  0  0  0  0  0  0  0  0
   -5.5832   -0.8203    1.8785 F   0  0  0  0  0  0  0  0  0  0  0  0
   -7.6588   -0.1953    1.8139 F   0  0  0  0  0  0  0  0  0  0  0  0
   -0.9620   -1.1688    1.4965 C   0  0  0  0  0  0  0  0  0  0  0  0
    0.0515   -2.3342    1.4967 C   0  0  0  0  0  0  0  0  0  0  0  0
    2.9641   -1.9508   -0.9173 C   0  0  0  0  0  0  0  0  0  0  0  0
    3.0989   -3.0170   -1.7886 C   0  0  0  0  0  0  0  0  0  0  0  0
    4.2851   -2.8176   -2.5315 C   0  0  0  0  0  0  0  0  0  0  0  0
    4.8600   -1.6501   -2.0769 C   0  0  0  0  0  0  0  0  0  0  0  0
    4.0683   -1.1436   -1.0732 N   0  0  0  0  0  0  0  0  0  0  0  0
    4.2607   -0.0109   -0.2643 C   0  0  0  0  0  0  0  0  0  0  0  0
    5.3739    0.8307   -0.3926 C   0  0  0  0  0  0  0  0  0  0  0  0
    8.2952    3.4395   -0.3512 H   0  0  0  0  0  0  0  0  0  0  0  0
    8.0747    1.6859   -0.3121 H   0  0  0  0  0  0  0  0  0  0  0  0
    7.1854    2.7021   -1.5129 H   0  0  0  0  0  0  0  0  0  0  0  0
    4.6015    3.0246    2.0853 H   0  0  0  0  0  0  0  0  0  0  0  0
    2.6465    1.5204    2.2900 H   0  0  0  0  0  0  0  0  0  0  0  0
   -0.6916   -3.4452   -0.8501 H   0  0  0  0  0  0  0  0  0  0  0  0
    0.3849   -2.5100   -1.8763 H   0  0  0  0  0  0  0  0  0  0  0  0
   -1.8185   -1.4570   -1.7532 H   0  0  0  0  0  0  0  0  0  0  0  0
   -0.5879   -0.3790   -1.0792 H   0  0  0  0  0  0  0  0  0  0  0  0
   -2.2334    0.8652    0.1921 H   0  0  0  0  0  0  0  0  0  0  0  0
   -3.2146    0.0454    1.3974 H   0  0  0  0  0  0  0  0  0  0  0  0
   -3.6287   -0.1830   -1.6310 H   0  0  0  0  0  0  0  0  0  0  0  0
   -4.5053   -1.1185   -0.4496 H   0  0  0  0  0  0  0  0  0  0  0  0
   -3.7158    2.2885   -1.6839 H   0  0  0  0  0  0  0  0  0  0  0  0
   -5.1982    4.2446   -1.4952 H   0  0  0  0  0  0  0  0  0  0  0  0
   -7.2826    4.1076   -0.1608 H   0  0  0  0  0  0  0  0  0  0  0  0
   -7.8838    2.0147    0.9875 H   0  0  0  0  0  0  0  0  0  0  0  0
   -0.4258   -0.2116    1.4872 H   0  0  0  0  0  0  0  0  0  0  0  0
   -1.5269   -1.2149    2.4355 H   0  0  0  0  0  0  0  0  0  0  0  0
    0.7408   -2.2396    2.3443 H   0  0  0  0  0  0  0  0  0  0  0  0
   -0.4838   -3.2813    1.6420 H   0  0  0  0  0  0  0  0  0  0  0  0
    2.4144   -3.8507   -1.8753 H   0  0  0  0  0  0  0  0  0  0  0  0
    4.6846   -3.4604   -3.3054 H   0  0  0  0  0  0  0  0  0  0  0  0
    5.7748   -1.1650   -2.3838 H   0  0  0  0  0  0  0  0  0  0  0  0
    6.1273    0.6268   -1.1420 H   0  0  0  0  0  0  0  0  0  0  0  0
  1  2  1  0
  2  3  1  0
  3  4  2  0
  4  5  1  0
  5  6  2  0
  6  7  1  0
  7  8  2  0
  8  9  1  0
  9 10  1  0
 10 11  1  0
 11 12  1  0
 12 13  1  0
 13 14  1  0
 14 15  1  0
 15 16  2  0
 16 17  1  0
 17 18  2  0
 18 19  1  0
 19 20  2  0
 20 21  1  0
 21 22  1  0
 21 23  1  0
 21 24  1  0
 12 25  1  0
 25 26  1  0
  8 27  1  0
 27 28  2  0
 28 29  1  0
 29 30  2  0
 30 31  1  0
 31 32  1  0
 32 33  2  0
 33  3  1  0
 32  6  1  0
 26  9  1  0
 31 27  1  0
 20 15  1  0
  1 34  1  0
  1 35  1  0
  1 36  1  0
  4 37  1  0
  5 38  1  0
 10 39  1  0
 10 40  1  0
 11 41  1  0
 11 42  1  0
 13 43  1  0
 13 44  1  0
 14 45  1  0
 14 46  1  0
 16 47  1  0
 17 48  1  0
 18 49  1  0
 19 50  1  0
 25 51  1  0
 25 52  1  0
 26 53  1  0
 26 54  1  0
 28 55  1  0
 29 56  1  0
 30 57  1  0
 33 58  1  0
M  END
$$$$
