
     RDKit          3D

 49 52  0  0  0  0  0  0  0  0999 V2000
   -3.7599    4.5509   -1.1016 C   0  0  0  0  0  0  0  0  0  0  0  0
   -2.9860    3.2739   -0.9553 C   0  0  0  0  0  0  0  0  0  0  0  0
   -3.0901    2.5122    0.2138 C   0  0  0  0  0  0  0  0  0  0  0  0
   -2.3511    1.3359    0.3642 C   0  0  0  0  0  0  0  0  0  0  0  0
   -1.4893    0.9170   -0.6554 C   0  0  0  0  0  0  0  0  0  0  0  0
   -0.7442   -0.2799   -0.5050 N   0  0  0  0  0  0  0  0  0  0  0  0
   -1.2054   -1.5181   -0.0679 C   0  0  0  0  0  0  0  0  0  0  0  0
   -2.6342   -1.9037    0.1496 C   0  0  0  0  0  0  0  0  0  0  0  0
   -3.4218   -1.9435   -1.1311 C   0  0  0  0  0  0  0  0  0  0  0  0
   -3.1760   -2.6983   -2.2634 C   0  0  0  0  0  0  0  0  0  0  0  0
   -4.1396   -2.4711   -3.2871 C   0  0  0  0  0  0  0  0  0  0  0  0
   -5.0964   -1.5602   -2.9005 C   0  0  0  0  0  0  0  0  0  0  0  0
   -4.8339   -0.9885   -1.3117 S   0  0  0  0  0  0  0  0  0  0  0  0
   -0.1954   -2.3668   -0.0094 N   0  0  0  0  0  0  0  0  0  0  0  0
    0.9298   -1.7287   -0.4431 N   0  0  0  0  0  0  0  0  0  0  0  0
    0.6012   -0.4982   -0.7556 C   0  0  0  0  0  0  0  0  0  0  0  0
    1.7534    0.7200   -1.2086 S   0  0  0  0  0  0  0  0  0  0  0  0
    3.2111   -0.2991   -1.5916 C   0  0  0  0  0  0  0  0  0  0  0  0
    3.9979   -0.8037   -0.3841 C   0  0  0  0  0  0  0  0  0  0  0  0
    4.9038   -1.6185   -0.5590 O   0  0  0  0  0  0  0  0  0  0  0  0
    3.6623   -0.2351    0.8297 N   0  0  0  0  0  0  0  0  0  0  0  0
    4.2194   -0.4905    2.0974 C   0  0  0  0  0  0  0  0  0  0  0  0
    5.2789   -1.3768    2.3241 C   0  0  0  0  0  0  0  0  0  0  0  0
    5.7772   -1.5761    3.6174 C   0  0  0  0  0  0  0  0  0  0  0  0
    5.2154   -0.8886    4.6847 C   0  0  0  0  0  0  0  0  0  0  0  0
    5.6951   -1.0802    5.9209 F   0  0  0  0  0  0  0  0  0  0  0  0
    4.1649   -0.0084    4.4689 C   0  0  0  0  0  0  0  0  0  0  0  0
    3.6200    0.6579    5.4964 F   0  0  0  0  0  0  0  0  0  0  0  0
    3.6640    0.1953    3.1853 C   0  0  0  0  0  0  0  0  0  0  0  0
   -1.3634    1.6851   -1.8180 C   0  0  0  0  0  0  0  0  0  0  0  0
   -2.1081    2.8584   -1.9627 C   0  0  0  0  0  0  0  0  0  0  0  0
   -4.7092    4.4968   -0.5583 H   0  0  0  0  0  0  0  0  0  0  0  0
   -3.9985    4.7446   -2.1527 H   0  0  0  0  0  0  0  0  0  0  0  0
   -3.1754    5.3893   -0.7106 H   0  0  0  0  0  0  0  0  0  0  0  0
   -3.7473    2.8343    1.0195 H   0  0  0  0  0  0  0  0  0  0  0  0
   -2.4345    0.7949    1.3030 H   0  0  0  0  0  0  0  0  0  0  0  0
   -2.6553   -2.9132    0.5828 H   0  0  0  0  0  0  0  0  0  0  0  0
   -3.1040   -1.2631    0.9010 H   0  0  0  0  0  0  0  0  0  0  0  0
   -2.3366   -3.3793   -2.3548 H   0  0  0  0  0  0  0  0  0  0  0  0
   -4.1327   -2.9543   -4.2565 H   0  0  0  0  0  0  0  0  0  0  0  0
   -5.9417   -1.2046   -3.4737 H   0  0  0  0  0  0  0  0  0  0  0  0
    3.8950    0.3202   -2.1815 H   0  0  0  0  0  0  0  0  0  0  0  0
    2.9156   -1.1558   -2.2059 H   0  0  0  0  0  0  0  0  0  0  0  0
    2.8787    0.4080    0.8016 H   0  0  0  0  0  0  0  0  0  0  0  0
    5.7408   -1.9337    1.5140 H   0  0  0  0  0  0  0  0  0  0  0  0
    6.5980   -2.2653    3.7905 H   0  0  0  0  0  0  0  0  0  0  0  0
    2.8408    0.8908    3.0587 H   0  0  0  0  0  0  0  0  0  0  0  0
   -0.7273    1.3747   -2.6435 H   0  0  0  0  0  0  0  0  0  0  0  0
   -2.0060    3.4430   -2.8750 H   0  0  0  0  0  0  0  0  0  0  0  0
  1  2  1  0
  2  3  2  0
  3  4  1  0
  4  5  2  0
  5  6  1  0
  6  7  1  0
  7  8  1  0
  8  9  1  0
  9 10  2  0
 10 11  1  0
 11 12  2  0
 12 13  1  0
  7 14  2  0
 14 15  1  0
 15 16  2  0
 16 17  1  0
 17 18  1  0
 18 19  1  0
 19 20  2  0
 19 21  1  0
 21 22  1  0
 22 23  2  0
 23 24  1  0
 24 25  2  0
 25 26  1  0
 25 27  1  0
 27 28  1  0
 27 29  2  0
  5 30  1  0
 30 31  2  0
 31  2  1  0
 16  6  1  0
 29 22  1  0
 13  9  1  0
  1 32  1  0
  1 33  1  0
  1 34  1  0
  3 35  1  0
  4 36  1  0
  8 37  1  0
  8 38  1  0
 10 39  1  0
 11 40  1  0
 12 41  1  0
 18 42  1  0
 18 43  1  0
 21 44  1  0
 23 45  1  0
 24 46  1  0
 29 47  1  0
 30 48  1  0
 31 49  1  0
M  END
$$$$
