
     RDKit          3D

 56 58  0  0  0  0  0  0  0  0999 V2000
    1.0383   -4.8300    1.5255 C   0  0  0  0  0  0  0  0  0  0  0  0
    1.8074   -3.7093    1.1079 O   0  0  0  0  0  0  0  0  0  0  0  0
    1.1519   -2.5162    0.9256 C   0  0  0  0  0  0  0  0  0  0  0  0
   -0.2277   -2.3374    1.0950 C   0  0  0  0  0  0  0  0  0  0  0  0
   -0.8252   -1.0863    0.8846 C   0  0  0  0  0  0  0  0  0  0  0  0
   -2.2719   -0.9505    1.1060 C   0  0  0  0  0  0  0  0  0  0  0  0
   -3.0701   -0.1246    0.4127 C   0  0  0  0  0  0  0  0  0  0  0  0
   -4.5286   -0.0976    0.7086 C   0  0  0  0  0  0  0  0  0  0  0  0
   -5.0498   -0.7801    1.5818 O   0  0  0  0  0  0  0  0  0  0  0  0
   -5.3500    0.8329   -0.0918 C   0  0  0  0  0  0  0  0  0  0  0  0
   -5.4727    0.6731   -1.4884 C   0  0  0  0  0  0  0  0  0  0  0  0
   -4.7681   -0.3578   -2.0524 O   0  0  0  0  0  0  0  0  0  0  0  0
   -4.9585   -0.6167   -3.4385 C   0  0  0  0  0  0  0  0  0  0  0  0
   -6.2924    1.5560   -2.2118 C   0  0  0  0  0  0  0  0  0  0  0  0
   -6.9902    2.5787   -1.5618 C   0  0  0  0  0  0  0  0  0  0  0  0
   -6.8550    2.7108   -0.1885 C   0  0  0  0  0  0  0  0  0  0  0  0
   -7.5315    3.7261    0.4840 O   0  0  0  0  0  0  0  0  0  0  0  0
   -7.1924    3.6318    1.8304 C   0  0  0  0  0  0  0  0  0  0  0  0
   -7.6285    4.4045    2.6730 O   0  0  0  0  0  0  0  0  0  0  0  0
   -6.0742    2.3322    2.2438 S   0  0  0  0  0  0  0  0  0  0  0  0
   -6.0472    1.8537    0.5511 C   0  0  0  0  0  0  0  0  0  0  0  0
   -0.0150   -0.0045    0.5282 C   0  0  0  0  0  0  0  0  0  0  0  0
    1.3627   -0.1727    0.3529 C   0  0  0  0  0  0  0  0  0  0  0  0
    1.9535   -1.4249    0.5382 C   0  0  0  0  0  0  0  0  0  0  0  0
    3.2950   -1.6786    0.4071 O   0  0  0  0  0  0  0  0  0  0  0  0
    4.1176   -0.7390   -0.2871 C   0  0  0  0  0  0  0  0  0  0  0  0
    4.7997    0.1943    0.7115 C   0  0  0  0  0  0  0  0  0  0  0  0
    5.6526    1.2727    0.0358 C   0  0  0  0  0  0  0  0  0  0  0  0
    6.6952    0.7546   -0.8655 N   0  0  0  0  0  0  0  0  0  0  0  0
    7.3148    1.8582   -1.6055 C   0  0  0  0  0  0  0  0  0  0  0  0
    7.7280    0.0097   -0.1388 C   0  0  0  0  0  0  0  0  0  0  0  0
    1.7189   -5.6793    1.6425 H   0  0  0  0  0  0  0  0  0  0  0  0
    0.5671   -4.6473    2.4981 H   0  0  0  0  0  0  0  0  0  0  0  0
    0.2948   -5.1025    0.7675 H   0  0  0  0  0  0  0  0  0  0  0  0
   -0.8628   -3.1679    1.3863 H   0  0  0  0  0  0  0  0  0  0  0  0
   -2.6978   -1.5975    1.8731 H   0  0  0  0  0  0  0  0  0  0  0  0
   -2.7014    0.5179   -0.3775 H   0  0  0  0  0  0  0  0  0  0  0  0
   -6.0058   -0.8497   -3.6580 H   0  0  0  0  0  0  0  0  0  0  0  0
   -4.3596   -1.4948   -3.6994 H   0  0  0  0  0  0  0  0  0  0  0  0
   -4.6028    0.2221   -4.0465 H   0  0  0  0  0  0  0  0  0  0  0  0
   -6.4129    1.4707   -3.2881 H   0  0  0  0  0  0  0  0  0  0  0  0
   -7.6267    3.2568   -2.1240 H   0  0  0  0  0  0  0  0  0  0  0  0
   -0.4371    0.9894    0.3997 H   0  0  0  0  0  0  0  0  0  0  0  0
    1.9489    0.7011    0.0921 H   0  0  0  0  0  0  0  0  0  0  0  0
    3.5708   -0.1994   -1.0695 H   0  0  0  0  0  0  0  0  0  0  0  0
    4.8775   -1.3329   -0.8079 H   0  0  0  0  0  0  0  0  0  0  0  0
    4.0423    0.6883    1.3326 H   0  0  0  0  0  0  0  0  0  0  0  0
    5.3964   -0.3966    1.4176 H   0  0  0  0  0  0  0  0  0  0  0  0
    4.9677    1.9091   -0.5417 H   0  0  0  0  0  0  0  0  0  0  0  0
    6.0955    1.9144    0.8096 H   0  0  0  0  0  0  0  0  0  0  0  0
    6.5652    2.3943   -2.1987 H   0  0  0  0  0  0  0  0  0  0  0  0
    8.0591    1.4772   -2.3142 H   0  0  0  0  0  0  0  0  0  0  0  0
    7.8071    2.5770   -0.9396 H   0  0  0  0  0  0  0  0  0  0  0  0
    8.5078   -0.3395   -0.8269 H   0  0  0  0  0  0  0  0  0  0  0  0
    8.2056    0.6166    0.6398 H   0  0  0  0  0  0  0  0  0  0  0  0
    7.3147   -0.8909    0.3260 H   0  0  0  0  0  0  0  0  0  0  0  0
  1  2  1  0
  2  3  1  0
  3  4  2  0
  4  5  1  0
  5  6  1  0
  6  7  2  0
  7  8  1  0
  8  9  2  0
  8 10  1  0
 10 11  2  0
 11 12  1  0
 12 13  1  0
 11 14  1  0
 14 15  2  0
 15 16  1  0
 16 17  1  0
 17 18  1  0
 18 19  2  0
 18 20  1  0
 20 21  1  0
  5 22  2  0
 22 23  1  0
 23 24  2  0
 24 25  1  0
 25 26  1  0
 26 27  1  0
 27 28  1  0
 28 29  1  0
 29 30  1  0
 29 31  1  0
 24  3  1  0
 21 10  1  0
 21 16  2  0
  1 32  1  0
  1 33  1  0
  1 34  1  0
  4 35  1  0
  6 36  1  0
  7 37  1  0
 13 38  1  0
 13 39  1  0
 13 40  1  0
 14 41  1  0
 15 42  1  0
 22 43  1  0
 23 44  1  0
 26 45  1  0
 26 46  1  0
 27 47  1  0
 27 48  1  0
 28 49  1  0
 28 50  1  0
 30 51  1  0
 30 52  1  0
 30 53  1  0
 31 54  1  0
 31 55  1  0
 31 56  1  0
M  END
$$$$
