
     RDKit          3D

 56 58  0  0  0  0  0  0  0  0999 V2000
    4.9812    2.5104   -4.7135 C   0  0  0  0  0  0  0  0  0  0  0  0
    5.8419    1.4779   -4.2466 O   0  0  0  0  0  0  0  0  0  0  0  0
    5.3033    0.5786   -3.3667 C   0  0  0  0  0  0  0  0  0  0  0  0
    6.1703   -0.4444   -2.9805 C   0  0  0  0  0  0  0  0  0  0  0  0
    5.7563   -1.4362   -2.0878 C   0  0  0  0  0  0  0  0  0  0  0  0
    4.4618   -1.4067   -1.5679 C   0  0  0  0  0  0  0  0  0  0  0  0
    3.9464   -2.3254   -0.6820 O   0  0  0  0  0  0  0  0  0  0  0  0
    4.8050   -3.3851   -0.2776 C   0  0  0  0  0  0  0  0  0  0  0  0
    3.5810   -0.3710   -1.9480 C   0  0  0  0  0  0  0  0  0  0  0  0
    2.2871   -0.4003   -1.3802 N   0  0  0  0  0  0  0  0  0  0  0  0
    1.2643    0.5223   -1.5081 C   0  0  0  0  0  0  0  0  0  0  0  0
    1.3030    1.5610   -2.1631 O   0  0  0  0  0  0  0  0  0  0  0  0
    0.0091    0.1143   -0.7546 C   0  0  0  0  0  0  0  0  0  0  0  0
    0.3254    0.1667    1.0368 S   0  0  0  0  0  0  0  0  0  0  0  0
   -1.2538   -0.3537    1.5857 C   0  0  0  0  0  0  0  0  0  0  0  0
   -1.6789   -1.4870    1.1298 N   0  0  0  0  0  0  0  0  0  0  0  0
   -2.9299   -1.9462    1.5505 C   0  0  0  0  0  0  0  0  0  0  0  0
   -3.3996   -3.1720    1.0679 C   0  0  0  0  0  0  0  0  0  0  0  0
   -4.6478   -3.6632    1.4632 C   0  0  0  0  0  0  0  0  0  0  0  0
   -5.4385   -2.9281    2.3472 C   0  0  0  0  0  0  0  0  0  0  0  0
   -4.9804   -1.7032    2.8340 C   0  0  0  0  0  0  0  0  0  0  0  0
   -3.7277   -1.2230    2.4314 C   0  0  0  0  0  0  0  0  0  0  0  0
   -3.2121    0.0673    2.9196 C   0  0  0  0  0  0  0  0  0  0  0  0
   -3.9234    0.7563    3.6502 O   0  0  0  0  0  0  0  0  0  0  0  0
   -1.9371    0.4393    2.4934 N   0  0  0  0  0  0  0  0  0  0  0  0
   -1.4569    1.7496    2.9585 C   0  0  0  0  0  0  0  0  0  0  0  0
   -1.7985    2.9069    1.9996 C   0  0  0  0  0  0  0  0  0  0  0  0
   -3.2200    3.0247    1.7171 N   0  0  0  0  0  0  0  0  0  0  0  0
   -3.7869    2.3921    0.6299 C   0  0  0  0  0  0  0  0  0  0  0  0
   -5.2874    2.4877    0.5810 C   0  0  0  0  0  0  0  0  0  0  0  0
   -3.1428    1.7722   -0.2099 O   0  0  0  0  0  0  0  0  0  0  0  0
    4.0075    0.6127   -2.8475 C   0  0  0  0  0  0  0  0  0  0  0  0
    4.1226    2.0961   -5.2528 H   0  0  0  0  0  0  0  0  0  0  0  0
    4.6580    3.1593   -3.8925 H   0  0  0  0  0  0  0  0  0  0  0  0
    5.5505    3.1245   -5.4176 H   0  0  0  0  0  0  0  0  0  0  0  0
    7.1808   -0.4699   -3.3827 H   0  0  0  0  0  0  0  0  0  0  0  0
    6.4694   -2.2087   -1.8228 H   0  0  0  0  0  0  0  0  0  0  0  0
    5.6805   -2.9979    0.2572 H   0  0  0  0  0  0  0  0  0  0  0  0
    5.1018   -4.0047   -1.1318 H   0  0  0  0  0  0  0  0  0  0  0  0
    4.2454   -4.0205    0.4156 H   0  0  0  0  0  0  0  0  0  0  0  0
    2.1419   -1.1720   -0.7327 H   0  0  0  0  0  0  0  0  0  0  0  0
   -0.2813   -0.8909   -1.0775 H   0  0  0  0  0  0  0  0  0  0  0  0
   -0.7962    0.8082   -1.0109 H   0  0  0  0  0  0  0  0  0  0  0  0
   -2.7872   -3.7469    0.3768 H   0  0  0  0  0  0  0  0  0  0  0  0
   -5.0011   -4.6184    1.0789 H   0  0  0  0  0  0  0  0  0  0  0  0
   -6.4100   -3.3086    2.6542 H   0  0  0  0  0  0  0  0  0  0  0  0
   -5.5947   -1.1275    3.5228 H   0  0  0  0  0  0  0  0  0  0  0  0
   -0.3757    1.7162    3.1274 H   0  0  0  0  0  0  0  0  0  0  0  0
   -1.9021    1.9648    3.9385 H   0  0  0  0  0  0  0  0  0  0  0  0
   -1.2558    2.7998    1.0548 H   0  0  0  0  0  0  0  0  0  0  0  0
   -1.4886    3.8537    2.4556 H   0  0  0  0  0  0  0  0  0  0  0  0
   -3.8328    3.2224    2.5008 H   0  0  0  0  0  0  0  0  0  0  0  0
   -5.6080    2.5893   -0.4605 H   0  0  0  0  0  0  0  0  0  0  0  0
   -5.7195    1.5781    1.0117 H   0  0  0  0  0  0  0  0  0  0  0  0
   -5.6479    3.3582    1.1386 H   0  0  0  0  0  0  0  0  0  0  0  0
    3.3281    1.4012   -3.1427 H   0  0  0  0  0  0  0  0  0  0  0  0
  1  2  1  0
  2  3  1  0
  3  4  2  0
  4  5  1  0
  5  6  2  0
  6  7  1  0
  7  8  1  0
  6  9  1  0
  9 10  1  0
 10 11  1  0
 11 12  2  0
 11 13  1  0
 13 14  1  0
 14 15  1  0
 15 16  2  0
 16 17  1  0
 17 18  2  0
 18 19  1  0
 19 20  2  0
 20 21  1  0
 21 22  2  0
 22 23  1  0
 23 24  2  0
 23 25  1  0
 25 26  1  0
 26 27  1  0
 27 28  1  0
 28 29  1  0
 29 30  1  0
 29 31  2  0
  9 32  2  0
 32  3  1  0
 25 15  1  0
 22 17  1  0
  1 33  1  0
  1 34  1  0
  1 35  1  0
  4 36  1  0
  5 37  1  0
  8 38  1  0
  8 39  1  0
  8 40  1  0
 10 41  1  0
 13 42  1  0
 13 43  1  0
 18 44  1  0
 19 45  1  0
 20 46  1  0
 21 47  1  0
 26 48  1  0
 26 49  1  0
 27 50  1  0
 27 51  1  0
 28 52  1  0
 30 53  1  0
 30 54  1  0
 30 55  1  0
 32 56  1  0
M  END
$$$$
