
     RDKit          3D

 59 62  0  0  0  0  0  0  0  0999 V2000
    5.5920   -4.1476   -2.0839 C   0  0  0  0  0  0  0  0  0  0  0  0
    5.6956   -2.8665   -1.2820 C   0  0  0  0  0  0  0  0  0  0  0  0
    4.4278   -2.6042   -0.6815 O   0  0  0  0  0  0  0  0  0  0  0  0
    4.4551   -1.4203    0.1092 C   0  0  0  0  0  0  0  0  0  0  0  0
    3.0979   -1.2075    0.7651 C   0  0  0  0  0  0  0  0  0  0  0  0
    1.9757   -1.1070   -0.2685 C   0  0  0  0  0  0  0  0  0  0  0  0
    0.7436   -0.5758    0.3556 N   0  0  0  0  0  0  0  0  0  0  0  0
   -0.1533   -1.4753    0.9576 C   0  0  0  0  0  0  0  0  0  0  0  0
    0.1238   -2.7460    0.9671 N   0  0  0  0  0  0  0  0  0  0  0  0
   -1.4079   -0.9380    1.5719 C   0  0  0  0  0  0  0  0  0  0  0  0
   -2.6623   -1.9445    2.1931 S   0  0  0  0  0  6  0  0  0  0  0  0
   -3.3119   -1.2895    3.3144 O   0  0  0  0  0  0  0  0  0  0  0  0
   -2.1973   -3.3139    2.3278 O   0  0  0  0  0  0  0  0  0  0  0  0
   -3.8263   -1.9560    0.8401 C   0  0  0  0  0  0  0  0  0  0  0  0
   -5.0336   -1.2632    0.9491 C   0  0  0  0  0  0  0  0  0  0  0  0
   -5.9292   -1.2772   -0.1209 C   0  0  0  0  0  0  0  0  0  0  0  0
   -5.6329   -1.9931   -1.2893 C   0  0  0  0  0  0  0  0  0  0  0  0
   -6.5863   -1.9741   -2.4473 C   0  0  0  0  0  0  0  0  0  0  0  0
   -4.4178   -2.6852   -1.3830 C   0  0  0  0  0  0  0  0  0  0  0  0
   -3.5169   -2.6772   -0.3173 C   0  0  0  0  0  0  0  0  0  0  0  0
   -1.5757    0.3951    1.5593 C   0  0  0  0  0  0  0  0  0  0  0  0
   -0.5900    1.2963    0.9817 C   0  0  0  0  0  0  0  0  0  0  0  0
   -0.8381    2.7659    1.0037 C   0  0  0  0  0  0  0  0  0  0  0  0
   -1.8807    3.2009    1.4980 O   0  0  0  0  0  0  0  0  0  0  0  0
    0.1458    3.5575    0.4388 N   0  0  0  0  0  0  0  0  0  0  0  0
   -0.0105    4.9404    0.4242 C   0  0  0  0  0  0  0  0  0  0  0  0
    0.9093    5.7583   -0.1122 C   0  0  0  0  0  0  0  0  0  0  0  0
    0.7675    7.2490   -0.1416 C   0  0  0  0  0  0  0  0  0  0  0  0
    2.1037    5.1858   -0.6928 C   0  0  0  0  0  0  0  0  0  0  0  0
    2.2913    3.8597   -0.7034 C   0  0  0  0  0  0  0  0  0  0  0  0
    1.2647    2.9594   -0.1093 C   0  0  0  0  0  0  0  0  0  0  0  0
    1.4734    1.6827   -0.1389 N   0  0  0  0  0  0  0  0  0  0  0  0
    0.5381    0.8272    0.4001 C   0  0  0  0  0  0  0  0  0  0  0  0
    6.5522   -4.3947   -2.5483 H   0  0  0  0  0  0  0  0  0  0  0  0
    5.2829   -4.9810   -1.4449 H   0  0  0  0  0  0  0  0  0  0  0  0
    4.8375   -4.0509   -2.8700 H   0  0  0  0  0  0  0  0  0  0  0  0
    6.4572   -2.9777   -0.5027 H   0  0  0  0  0  0  0  0  0  0  0  0
    5.9725   -2.0354   -1.9410 H   0  0  0  0  0  0  0  0  0  0  0  0
    5.2188   -1.5161    0.8864 H   0  0  0  0  0  0  0  0  0  0  0  0
    4.7095   -0.5620   -0.5239 H   0  0  0  0  0  0  0  0  0  0  0  0
    2.8841   -2.0445    1.4420 H   0  0  0  0  0  0  0  0  0  0  0  0
    3.1415   -0.3007    1.3796 H   0  0  0  0  0  0  0  0  0  0  0  0
    2.2835   -0.4638   -1.1019 H   0  0  0  0  0  0  0  0  0  0  0  0
    1.7873   -2.0859   -0.7290 H   0  0  0  0  0  0  0  0  0  0  0  0
   -0.5790   -3.3131    1.4696 H   0  0  0  0  0  0  0  0  0  0  0  0
   -5.2886   -0.7130    1.8521 H   0  0  0  0  0  0  0  0  0  0  0  0
   -6.8660   -0.7295   -0.0362 H   0  0  0  0  0  0  0  0  0  0  0  0
   -7.6238   -1.9596   -2.0978 H   0  0  0  0  0  0  0  0  0  0  0  0
   -6.4649   -2.8680   -3.0704 H   0  0  0  0  0  0  0  0  0  0  0  0
   -6.4084   -1.0868   -3.0658 H   0  0  0  0  0  0  0  0  0  0  0  0
   -4.1684   -3.2420   -2.2852 H   0  0  0  0  0  0  0  0  0  0  0  0
   -2.5854   -3.2351   -0.4002 H   0  0  0  0  0  0  0  0  0  0  0  0
   -2.4741    0.8507    1.9754 H   0  0  0  0  0  0  0  0  0  0  0  0
   -0.9221    5.3297    0.8700 H   0  0  0  0  0  0  0  0  0  0  0  0
    1.6163    7.7252    0.3618 H   0  0  0  0  0  0  0  0  0  0  0  0
    0.7286    7.6120   -1.1749 H   0  0  0  0  0  0  0  0  0  0  0  0
   -0.1458    7.5802    0.3643 H   0  0  0  0  0  0  0  0  0  0  0  0
    2.8478    5.8490   -1.1243 H   0  0  0  0  0  0  0  0  0  0  0  0
    3.1721    3.3966   -1.1309 H   0  0  0  0  0  0  0  0  0  0  0  0
  1  2  1  0
  2  3  1  0
  3  4  1  0
  4  5  1  0
  5  6  1  0
  6  7  1  0
  7  8  1  0
  8  9  2  3
  8 10  1  0
 10 11  1  0
 11 12  2  0
 11 13  2  0
 11 14  1  0
 14 15  2  0
 15 16  1  0
 16 17  2  0
 17 18  1  0
 17 19  1  0
 19 20  2  0
 10 21  2  0
 21 22  1  0
 22 23  1  0
 23 24  2  0
 23 25  1  0
 25 26  1  0
 26 27  2  0
 27 28  1  0
 27 29  1  0
 29 30  2  0
 30 31  1  0
 31 32  2  0
 32 33  1  0
 33  7  1  0
 20 14  1  0
 33 22  2  0
 31 25  1  0
  1 34  1  0
  1 35  1  0
  1 36  1  0
  2 37  1  0
  2 38  1  0
  4 39  1  0
  4 40  1  0
  5 41  1  0
  5 42  1  0
  6 43  1  0
  6 44  1  0
  9 45  1  0
 15 46  1  0
 16 47  1  0
 18 48  1  0
 18 49  1  0
 18 50  1  0
 19 51  1  0
 20 52  1  0
 21 53  1  0
 26 54  1  0
 28 55  1  0
 28 56  1  0
 28 57  1  0
 29 58  1  0
 30 59  1  0
M  END
$$$$
