
     RDKit          3D

 52 53  0  0  0  0  0  0  0  0999 V2000
    6.6953   -2.2026   -1.5090 C   0  0  0  0  0  0  0  0  0  0  0  0
    6.5178   -0.7087   -1.2774 C   0  0  0  0  0  0  0  0  0  0  0  0
    5.0985   -0.2034   -1.5568 C   0  0  0  0  0  0  0  0  0  0  0  0
    4.1294   -0.7724   -0.6150 N   0  0  0  0  0  0  0  0  0  0  0  0
    2.7558   -0.2867   -0.8694 C   0  0  0  0  0  0  0  0  0  0  0  0
    2.5384    1.1189   -0.2740 C   0  0  0  0  0  0  0  0  0  0  0  0
    2.9435    1.1000    1.1022 O   0  0  0  0  0  0  0  0  0  0  0  0
    1.0914    1.6205   -0.4099 C   0  0  0  0  0  0  0  0  0  0  0  0
    0.1130    0.5923   -0.2298 O   0  0  0  0  0  0  0  0  0  0  0  0
   -0.4294    0.3587    1.0018 C   0  0  0  0  0  0  0  0  0  0  0  0
   -0.0169    0.9716    2.1879 C   0  0  0  0  0  0  0  0  0  0  0  0
   -0.6062    0.6333    3.4122 C   0  0  0  0  0  0  0  0  0  0  0  0
   -1.6095   -0.3291    3.4699 C   0  0  0  0  0  0  0  0  0  0  0  0
   -2.0307   -0.9517    2.2991 C   0  0  0  0  0  0  0  0  0  0  0  0
   -1.4558   -0.5990    1.0688 C   0  0  0  0  0  0  0  0  0  0  0  0
   -1.9780   -1.2998   -0.1315 C   0  0  0  0  0  0  0  0  0  0  0  0
   -2.0854   -2.5266   -0.0930 O   0  0  0  0  0  0  0  0  0  0  0  0
   -2.3571   -0.5185   -1.3788 C   0  0  0  0  0  0  0  0  0  0  0  0
   -3.1000    0.7969   -1.1391 C   0  0  0  0  0  0  0  0  0  0  0  0
   -4.3744    0.6605   -0.3395 C   0  0  0  0  0  0  0  0  0  0  0  0
   -4.5225    1.3466    0.8744 C   0  0  0  0  0  0  0  0  0  0  0  0
   -5.6946    1.2226    1.6219 C   0  0  0  0  0  0  0  0  0  0  0  0
   -6.7338    0.4173    1.1618 C   0  0  0  0  0  0  0  0  0  0  0  0
   -6.6026   -0.2616   -0.0475 C   0  0  0  0  0  0  0  0  0  0  0  0
   -5.4311   -0.1383   -0.7967 C   0  0  0  0  0  0  0  0  0  0  0  0
    7.7493   -2.4768   -1.3942 H   0  0  0  0  0  0  0  0  0  0  0  0
    6.1207   -2.7932   -0.7893 H   0  0  0  0  0  0  0  0  0  0  0  0
    6.3805   -2.4835   -2.5191 H   0  0  0  0  0  0  0  0  0  0  0  0
    6.8083   -0.4630   -0.2483 H   0  0  0  0  0  0  0  0  0  0  0  0
    7.2110   -0.1710   -1.9360 H   0  0  0  0  0  0  0  0  0  0  0  0
    4.8198   -0.4528   -2.5878 H   0  0  0  0  0  0  0  0  0  0  0  0
    5.1111    0.8882   -1.4704 H   0  0  0  0  0  0  0  0  0  0  0  0
    4.1248   -1.7884   -0.7278 H   0  0  0  0  0  0  0  0  0  0  0  0
    2.5067   -0.3156   -1.9363 H   0  0  0  0  0  0  0  0  0  0  0  0
    2.0913   -0.9945   -0.3600 H   0  0  0  0  0  0  0  0  0  0  0  0
    3.1901    1.8489   -0.7665 H   0  0  0  0  0  0  0  0  0  0  0  0
    3.6973    0.4717    1.1207 H   0  0  0  0  0  0  0  0  0  0  0  0
    0.8913    2.4951    0.2188 H   0  0  0  0  0  0  0  0  0  0  0  0
    0.9553    1.9578   -1.4447 H   0  0  0  0  0  0  0  0  0  0  0  0
    0.7845    1.7034    2.2087 H   0  0  0  0  0  0  0  0  0  0  0  0
   -0.2630    1.1143    4.3255 H   0  0  0  0  0  0  0  0  0  0  0  0
   -2.0574   -0.5990    4.4227 H   0  0  0  0  0  0  0  0  0  0  0  0
   -2.8138   -1.7066    2.3383 H   0  0  0  0  0  0  0  0  0  0  0  0
   -1.4517   -0.3433   -1.9696 H   0  0  0  0  0  0  0  0  0  0  0  0
   -2.9902   -1.1795   -1.9846 H   0  0  0  0  0  0  0  0  0  0  0  0
   -2.4368    1.5246   -0.6585 H   0  0  0  0  0  0  0  0  0  0  0  0
   -3.3593    1.2387   -2.1102 H   0  0  0  0  0  0  0  0  0  0  0  0
   -3.7209    1.9773    1.2541 H   0  0  0  0  0  0  0  0  0  0  0  0
   -5.7949    1.7538    2.5646 H   0  0  0  0  0  0  0  0  0  0  0  0
   -7.6455    0.3187    1.7445 H   0  0  0  0  0  0  0  0  0  0  0  0
   -7.4126   -0.8906   -0.4080 H   0  0  0  0  0  0  0  0  0  0  0  0
   -5.3508   -0.6755   -1.7387 H   0  0  0  0  0  0  0  0  0  0  0  0
  1  2  1  0
  2  3  1  0
  3  4  1  0
  4  5  1  0
  5  6  1  0
  6  7  1  0
  6  8  1  0
  8  9  1  0
  9 10  1  0
 10 11  2  0
 11 12  1  0
 12 13  2  0
 13 14  1  0
 14 15  2  0
 15 16  1  0
 16 17  2  0
 16 18  1  0
 18 19  1  0
 19 20  1  0
 20 21  2  0
 21 22  1  0
 22 23  2  0
 23 24  1  0
 24 25  2  0
 15 10  1  0
 25 20  1  0
  1 26  1  0
  1 27  1  0
  1 28  1  0
  2 29  1  0
  2 30  1  0
  3 31  1  0
  3 32  1  0
  4 33  1  0
  5 34  1  0
  5 35  1  0
  6 36  1  0
  7 37  1  0
  8 38  1  0
  8 39  1  0
 11 40  1  0
 12 41  1  0
 13 42  1  0
 14 43  1  0
 18 44  1  0
 18 45  1  0
 19 46  1  0
 19 47  1  0
 21 48  1  0
 22 49  1  0
 23 50  1  0
 24 51  1  0
 25 52  1  0
M  END
$$$$
