
     RDKit          3D

 36 37  0  0  0  0  0  0  0  0999 V2000
   -1.5420    1.3909    1.4575 O   0  0  0  0  0  0  0  0  0  0  0  0
   -0.7669    0.5009    1.8071 C   0  0  0  0  0  0  0  0  0  0  0  0
    0.5680    0.7763    2.4997 C   0  0  0  0  0  0  0  0  0  0  0  0
    1.6567    0.8886    1.5829 O   0  0  0  0  0  0  0  0  0  0  0  0
    2.1136   -0.2844    1.0867 C   0  0  0  0  0  0  0  0  0  0  0  0
    1.6387   -1.3911    1.2858 O   0  0  0  0  0  0  0  0  0  0  0  0
    3.2187   -0.0197    0.1513 C   0  0  0  0  0  0  0  0  0  0  0  0
    3.0468   -0.4525   -1.1716 C   0  0  0  0  0  0  0  0  0  0  0  0
    4.0496   -0.2290   -2.1152 C   0  0  0  0  0  0  0  0  0  0  0  0
    5.2267    0.4165   -1.7392 C   0  0  0  0  0  0  0  0  0  0  0  0
    5.4089    0.8308   -0.4177 C   0  0  0  0  0  0  0  0  0  0  0  0
    4.4084    0.6093    0.5350 C   0  0  0  0  0  0  0  0  0  0  0  0
    4.7717    1.1340    2.3232 Br  0  0  0  0  0  0  0  0  0  0  0  0
   -1.0292   -0.8311    1.5671 N   0  0  0  0  0  0  0  0  0  0  0  0
   -2.2266   -1.2307    0.8543 C   0  0  0  0  0  0  0  0  0  0  0  0
   -2.2092   -0.8046   -0.6210 C   0  0  0  0  0  0  0  0  0  0  0  0
   -3.5175   -0.3861   -1.0783 N   0  0  0  0  0  0  0  0  0  0  0  0
   -3.9875    0.9057   -1.0538 C   0  0  0  0  0  0  0  0  0  0  0  0
   -3.2424    1.9388   -0.5693 O   0  0  0  0  0  0  0  0  0  0  0  0
   -5.2215    1.0548   -1.5441 C   0  0  0  0  0  0  0  0  0  0  0  0
   -5.8961   -0.4638   -2.0461 S   0  0  0  0  0  0  0  0  0  0  0  0
   -4.4244   -1.3208   -1.5590 C   0  0  0  0  0  0  0  0  0  0  0  0
   -4.2788   -2.5299   -1.6399 O   0  0  0  0  0  0  0  0  0  0  0  0
    0.7714    0.0096    3.2575 H   0  0  0  0  0  0  0  0  0  0  0  0
    0.4803    1.7287    3.0335 H   0  0  0  0  0  0  0  0  0  0  0  0
    2.1320   -0.9603   -1.4705 H   0  0  0  0  0  0  0  0  0  0  0  0
    3.9148   -0.5592   -3.1430 H   0  0  0  0  0  0  0  0  0  0  0  0
    6.0096    0.5898   -2.4748 H   0  0  0  0  0  0  0  0  0  0  0  0
    6.3412    1.3180   -0.1399 H   0  0  0  0  0  0  0  0  0  0  0  0
   -0.2359   -1.4759    1.5988 H   0  0  0  0  0  0  0  0  0  0  0  0
   -3.0788   -0.7847    1.3811 H   0  0  0  0  0  0  0  0  0  0  0  0
   -2.3165   -2.3186    0.9391 H   0  0  0  0  0  0  0  0  0  0  0  0
   -1.4899   -0.0031   -0.8244 H   0  0  0  0  0  0  0  0  0  0  0  0
   -1.8807   -1.6590   -1.2266 H   0  0  0  0  0  0  0  0  0  0  0  0
   -2.6590    1.6192    0.1527 H   0  0  0  0  0  0  0  0  0  0  0  0
   -5.7540    1.9927   -1.6110 H   0  0  0  0  0  0  0  0  0  0  0  0
  1  2  2  0
  2  3  1  0
  3  4  1  0
  4  5  1  0
  5  6  2  0
  5  7  1  0
  7  8  2  0
  8  9  1  0
  9 10  2  0
 10 11  1  0
 11 12  2  0
 12 13  1  0
  2 14  1  0
 14 15  1  0
 15 16  1  0
 16 17  1  0
 17 18  1  0
 18 19  1  0
 18 20  2  0
 20 21  1  0
 21 22  1  0
 22 23  2  0
 12  7  1  0
 22 17  1  0
  3 24  1  0
  3 25  1  0
  8 26  1  0
  9 27  1  0
 10 28  1  0
 11 29  1  0
 14 30  1  0
 15 31  1  0
 15 32  1  0
 16 33  1  0
 16 34  1  0
 19 35  1  0
 20 36  1  0
M  END
$$$$
