
     RDKit          3D

 37 39  0  0  0  0  0  0  0  0999 V2000
   -4.7810   -2.4053    0.9114 C   0  0  0  0  0  0  0  0  0  0  0  0
   -4.4103   -1.5133   -0.2601 C   0  0  0  0  0  0  0  0  0  0  0  0
   -4.1177   -0.1509    0.1558 N   0  0  0  0  0  0  0  0  0  0  0  0
   -5.1455    0.7283    0.2147 N   0  0  0  0  0  0  0  0  0  0  0  0
   -4.5710    1.8642    0.6079 C   0  0  0  0  0  0  0  0  0  0  0  0
   -3.1903    1.7150    0.7767 C   0  0  0  0  0  0  0  0  0  0  0  0
   -2.0826    3.0979    1.3829 Br  0  0  0  0  0  0  0  0  0  0  0  0
   -2.8898    0.4044    0.4602 C   0  0  0  0  0  0  0  0  0  0  0  0
   -1.6389   -0.3306    0.4587 C   0  0  0  0  0  0  0  0  0  0  0  0
   -1.6213   -1.5363    0.6764 O   0  0  0  0  0  0  0  0  0  0  0  0
   -0.5392    0.4475    0.1541 N   0  0  0  0  0  0  0  0  0  0  0  0
    0.7923    0.0580    0.0763 C   0  0  0  0  0  0  0  0  0  0  0  0
    1.2793   -1.5295    0.4949 S   0  0  0  0  0  0  0  0  0  0  0  0
    2.8637   -1.1746    0.1307 C   0  0  0  0  0  0  0  0  0  0  0  0
    3.0736    0.1142   -0.2763 C   0  0  0  0  0  0  0  0  0  0  0  0
    1.8623    0.8728   -0.3194 C   0  0  0  0  0  0  0  0  0  0  0  0
    1.6586    2.2601   -0.7324 C   0  0  0  0  0  0  0  0  0  0  0  0
    2.7666    3.0487   -0.8345 N   0  0  0  0  0  0  0  0  0  0  0  0
    0.5475    2.7373   -0.9502 O   0  0  0  0  0  0  0  0  0  0  0  0
    4.5106    0.3192   -0.6067 C   0  0  0  0  0  0  0  0  0  0  0  0
    5.1890   -0.9560   -0.0154 C   0  0  0  0  0  0  0  0  0  0  0  0
    4.0739   -2.0269    0.1472 C   0  0  0  0  0  0  0  0  0  0  0  0
   -4.9928   -3.4207    0.5628 H   0  0  0  0  0  0  0  0  0  0  0  0
   -5.6722   -2.0290    1.4251 H   0  0  0  0  0  0  0  0  0  0  0  0
   -3.9728   -2.4580    1.6476 H   0  0  0  0  0  0  0  0  0  0  0  0
   -3.5492   -1.9061   -0.8081 H   0  0  0  0  0  0  0  0  0  0  0  0
   -5.2419   -1.4646   -0.9732 H   0  0  0  0  0  0  0  0  0  0  0  0
   -5.1881    2.7406    0.7579 H   0  0  0  0  0  0  0  0  0  0  0  0
   -0.7093    1.4166   -0.1121 H   0  0  0  0  0  0  0  0  0  0  0  0
    2.5890    4.0333   -0.9825 H   0  0  0  0  0  0  0  0  0  0  0  0
    3.6271    2.7994   -0.3750 H   0  0  0  0  0  0  0  0  0  0  0  0
    4.6510    0.3602   -1.6919 H   0  0  0  0  0  0  0  0  0  0  0  0
    4.9392    1.2137   -0.1494 H   0  0  0  0  0  0  0  0  0  0  0  0
    5.5990   -0.7145    0.9743 H   0  0  0  0  0  0  0  0  0  0  0  0
    6.0190   -1.3093   -0.6352 H   0  0  0  0  0  0  0  0  0  0  0  0
    4.1958   -2.5893    1.0769 H   0  0  0  0  0  0  0  0  0  0  0  0
    4.0764   -2.7166   -0.7030 H   0  0  0  0  0  0  0  0  0  0  0  0
  1  2  1  0
  2  3  1  0
  3  4  1  0
  4  5  2  0
  5  6  1  0
  6  7  1  0
  6  8  2  0
  8  9  1  0
  9 10  2  0
  9 11  1  0
 11 12  1  0
 12 13  1  0
 13 14  1  0
 14 15  2  0
 15 16  1  0
 16 17  1  0
 17 18  1  0
 17 19  2  0
 15 20  1  0
 20 21  1  0
 21 22  1  0
  8  3  1  0
 16 12  2  0
 22 14  1  0
  1 23  1  0
  1 24  1  0
  1 25  1  0
  2 26  1  0
  2 27  1  0
  5 28  1  0
 11 29  1  0
 18 30  1  0
 18 31  1  0
 20 32  1  0
 20 33  1  0
 21 34  1  0
 21 35  1  0
 22 36  1  0
 22 37  1  0
M  END
$$$$
