
     RDKit          3D

 38 40  0  0  0  0  0  0  0  0999 V2000
    0.4337   -2.8750    1.0678 O   0  0  0  0  0  0  0  0  0  0  0  0
    0.2424   -1.7210    0.6951 C   0  0  0  0  0  0  0  0  0  0  0  0
    1.2679   -0.8180    0.5752 N   0  0  0  0  0  0  0  0  0  0  0  0
    2.6071   -1.2283    0.9313 C   0  0  0  0  0  0  0  0  0  0  0  0
    3.5940   -0.1323    0.6251 C   0  0  0  0  0  0  0  0  0  0  0  0
    4.0066    0.0970   -0.6964 C   0  0  0  0  0  0  0  0  0  0  0  0
    4.9037    1.1262   -0.9905 C   0  0  0  0  0  0  0  0  0  0  0  0
    5.3879    1.9351    0.0350 C   0  0  0  0  0  0  0  0  0  0  0  0
    6.4910    3.2051   -0.3264 Cl  0  0  0  0  0  0  0  0  0  0  0  0
    4.9816    1.7249    1.3512 C   0  0  0  0  0  0  0  0  0  0  0  0
    4.0842    0.6955    1.6456 C   0  0  0  0  0  0  0  0  0  0  0  0
   -1.0100   -1.2207    0.3624 N   0  0  0  0  0  0  0  0  0  0  0  0
   -2.1288   -2.1569    0.4184 C   0  0  0  0  0  0  0  0  0  0  0  0
   -3.4375   -1.4443    0.7458 C   0  0  0  0  0  0  0  0  0  0  0  0
   -3.6706   -0.2695   -0.1665 C   0  0  0  0  0  0  0  0  0  0  0  0
   -4.9688    0.2200   -0.3648 C   0  0  0  0  0  0  0  0  0  0  0  0
   -5.1880    1.3241   -1.1873 C   0  0  0  0  0  0  0  0  0  0  0  0
   -4.1129    1.9523   -1.8102 C   0  0  0  0  0  0  0  0  0  0  0  0
   -2.8160    1.4802   -1.6068 C   0  0  0  0  0  0  0  0  0  0  0  0
   -2.5798    0.3721   -0.7778 C   0  0  0  0  0  0  0  0  0  0  0  0
   -1.1606   -0.1116   -0.5822 C   0  0  0  0  0  0  0  0  0  0  0  0
    1.0215    0.1141    0.8699 H   0  0  0  0  0  0  0  0  0  0  0  0
    2.6202   -1.4815    1.9983 H   0  0  0  0  0  0  0  0  0  0  0  0
    2.8667   -2.1406    0.3808 H   0  0  0  0  0  0  0  0  0  0  0  0
    3.6264   -0.5279   -1.5026 H   0  0  0  0  0  0  0  0  0  0  0  0
    5.2177    1.2909   -2.0176 H   0  0  0  0  0  0  0  0  0  0  0  0
    5.3584    2.3574    2.1507 H   0  0  0  0  0  0  0  0  0  0  0  0
    3.7723    0.5426    2.6770 H   0  0  0  0  0  0  0  0  0  0  0  0
   -1.9467   -2.9298    1.1734 H   0  0  0  0  0  0  0  0  0  0  0  0
   -2.1863   -2.6598   -0.5556 H   0  0  0  0  0  0  0  0  0  0  0  0
   -3.4104   -1.0741    1.7781 H   0  0  0  0  0  0  0  0  0  0  0  0
   -4.2636   -2.1601    0.6643 H   0  0  0  0  0  0  0  0  0  0  0  0
   -5.8164   -0.2584    0.1209 H   0  0  0  0  0  0  0  0  0  0  0  0
   -6.1980    1.6951   -1.3406 H   0  0  0  0  0  0  0  0  0  0  0  0
   -4.2843    2.8124   -2.4524 H   0  0  0  0  0  0  0  0  0  0  0  0
   -1.9866    1.9843   -2.0985 H   0  0  0  0  0  0  0  0  0  0  0  0
   -0.7640   -0.4536   -1.5464 H   0  0  0  0  0  0  0  0  0  0  0  0
   -0.5540    0.7344   -0.2435 H   0  0  0  0  0  0  0  0  0  0  0  0
  1  2  2  0
  2  3  1  0
  3  4  1  0
  4  5  1  0
  5  6  2  0
  6  7  1  0
  7  8  2  0
  8  9  1  0
  8 10  1  0
 10 11  2  0
  2 12  1  0
 12 13  1  0
 13 14  1  0
 14 15  1  0
 15 16  2  0
 16 17  1  0
 17 18  2  0
 18 19  1  0
 19 20  2  0
 20 21  1  0
 11  5  1  0
 21 12  1  0
 20 15  1  0
  3 22  1  0
  4 23  1  0
  4 24  1  0
  6 25  1  0
  7 26  1  0
 10 27  1  0
 11 28  1  0
 13 29  1  0
 13 30  1  0
 14 31  1  0
 14 32  1  0
 16 33  1  0
 17 34  1  0
 18 35  1  0
 19 36  1  0
 21 37  1  0
 21 38  1  0
M  END
$$$$
