
     RDKit          3D

 44 45  0  0  0  0  0  0  0  0999 V2000
   -5.8324    0.5085    2.4951 C   0  0  0  0  0  0  0  0  0  0  0  0
   -6.2806    1.3129    1.2839 C   0  0  0  0  0  0  0  0  0  0  0  0
   -5.1180    1.9749    0.5509 C   0  0  0  0  0  0  0  0  0  0  0  0
   -4.2748    0.9741   -0.0414 O   0  0  0  0  0  0  0  0  0  0  0  0
   -3.0538    0.7969    0.5182 C   0  0  0  0  0  0  0  0  0  0  0  0
   -2.6039    1.3996    1.4797 O   0  0  0  0  0  0  0  0  0  0  0  0
   -2.2990   -0.2654   -0.2001 C   0  0  0  0  0  0  0  0  0  0  0  0
   -2.8309   -0.9597   -1.2917 C   0  0  0  0  0  0  0  0  0  0  0  0
   -2.0733   -1.9464   -1.9218 C   0  0  0  0  0  0  0  0  0  0  0  0
   -0.7846   -2.2446   -1.4684 C   0  0  0  0  0  0  0  0  0  0  0  0
   -0.2397   -1.5599   -0.3814 C   0  0  0  0  0  0  0  0  0  0  0  0
    1.0474   -1.8001    0.1345 N   0  0  0  0  0  0  0  0  0  0  0  0
    2.0062   -2.6786   -0.3389 C   0  0  0  0  0  0  0  0  0  0  0  0
    1.9027   -3.4307   -1.3032 O   0  0  0  0  0  0  0  0  0  0  0  0
    3.2846   -2.6641    0.5081 C   0  0  0  0  0  0  0  0  0  0  0  0
    3.5171   -1.4462    1.2078 O   0  0  0  0  0  0  0  0  0  0  0  0
    4.0736   -0.4040    0.5180 C   0  0  0  0  0  0  0  0  0  0  0  0
    4.3101   -0.3574   -0.8581 C   0  0  0  0  0  0  0  0  0  0  0  0
    4.8741    0.7859   -1.4380 C   0  0  0  0  0  0  0  0  0  0  0  0
    5.1990    1.8860   -0.6346 C   0  0  0  0  0  0  0  0  0  0  0  0
    5.7917    3.0843   -1.2420 N   0  0  0  0  0  4  0  0  0  0  0  0
    5.9904    3.0720   -2.4651 O   0  0  0  0  0  0  0  0  0  0  0  0
    6.0589    4.0366   -0.4955 O   0  0  0  0  0  1  0  0  0  0  0  0
    4.9611    1.8497    0.7432 C   0  0  0  0  0  0  0  0  0  0  0  0
    4.3974    0.7036    1.3101 C   0  0  0  0  0  0  0  0  0  0  0  0
   -1.0048   -0.5713    0.2495 C   0  0  0  0  0  0  0  0  0  0  0  0
   -5.2743    1.1353    3.1977 H   0  0  0  0  0  0  0  0  0  0  0  0
   -5.1973   -0.3331    2.2023 H   0  0  0  0  0  0  0  0  0  0  0  0
   -6.7028    0.1024    3.0202 H   0  0  0  0  0  0  0  0  0  0  0  0
   -6.8120    0.6418    0.5991 H   0  0  0  0  0  0  0  0  0  0  0  0
   -6.9874    2.0849    1.6082 H   0  0  0  0  0  0  0  0  0  0  0  0
   -5.5106    2.5812   -0.2725 H   0  0  0  0  0  0  0  0  0  0  0  0
   -4.5690    2.6539    1.2131 H   0  0  0  0  0  0  0  0  0  0  0  0
   -3.8304   -0.7459   -1.6622 H   0  0  0  0  0  0  0  0  0  0  0  0
   -2.4840   -2.4891   -2.7704 H   0  0  0  0  0  0  0  0  0  0  0  0
   -0.2331   -3.0223   -1.9883 H   0  0  0  0  0  0  0  0  0  0  0  0
    1.3385   -1.2283    0.9228 H   0  0  0  0  0  0  0  0  0  0  0  0
    4.1496   -2.9476   -0.1027 H   0  0  0  0  0  0  0  0  0  0  0  0
    3.1638   -3.4477    1.2651 H   0  0  0  0  0  0  0  0  0  0  0  0
    4.0645   -1.1850   -1.5178 H   0  0  0  0  0  0  0  0  0  0  0  0
    5.0490    0.8006   -2.5125 H   0  0  0  0  0  0  0  0  0  0  0  0
    5.2051    2.6942    1.3845 H   0  0  0  0  0  0  0  0  0  0  0  0
    4.2124    0.6735    2.3824 H   0  0  0  0  0  0  0  0  0  0  0  0
   -0.6002   -0.0254    1.0999 H   0  0  0  0  0  0  0  0  0  0  0  0
  1  2  1  0
  2  3  1  0
  3  4  1  0
  4  5  1  0
  5  6  2  0
  5  7  1  0
  7  8  2  0
  8  9  1  0
  9 10  2  0
 10 11  1  0
 11 12  1  0
 12 13  1  0
 13 14  2  0
 13 15  1  0
 15 16  1  0
 16 17  1  0
 17 18  2  0
 18 19  1  0
 19 20  2  0
 20 21  1  0
 21 22  2  0
 21 23  1  0
 20 24  1  0
 24 25  2  0
 11 26  2  0
 26  7  1  0
 25 17  1  0
  1 27  1  0
  1 28  1  0
  1 29  1  0
  2 30  1  0
  2 31  1  0
  3 32  1  0
  3 33  1  0
  8 34  1  0
  9 35  1  0
 10 36  1  0
 12 37  1  0
 15 38  1  0
 15 39  1  0
 18 40  1  0
 19 41  1  0
 24 42  1  0
 25 43  1  0
 26 44  1  0
M  CHG  2  21   1  23  -1
M  END
$$$$
