
     RDKit          3D

 33 35  0  0  0  0  0  0  0  0999 V2000
    5.0546    1.9705   -0.6257 C   0  0  0  0  0  0  0  0  0  0  0  0
    4.3382    0.8143   -0.1389 N   0  0  0  0  0  0  0  0  0  0  0  0
    4.8794   -0.3318    0.3575 C   0  0  0  0  0  0  0  0  0  0  0  0
    3.8063   -1.1287    0.6990 C   0  0  0  0  0  0  0  0  0  0  0  0
    3.8877   -2.4141    1.3053 N   0  0  0  0  0  4  0  0  0  0  0  0
    3.2856   -2.5622    2.3736 O   0  0  0  0  0  0  0  0  0  0  0  0
    4.6212   -3.2399    0.7480 O   0  0  0  0  0  1  0  0  0  0  0  0
    2.6515   -0.4000    0.3413 C   0  0  0  0  0  0  0  0  0  0  0  0
    1.2463   -0.8268    0.4201 C   0  0  0  0  0  0  0  0  0  0  0  0
    0.9375   -1.9803    0.6741 O   0  0  0  0  0  0  0  0  0  0  0  0
    0.3851    0.2078    0.1433 N   0  0  0  0  0  0  0  0  0  0  0  0
   -0.9882    0.1594    0.1199 C   0  0  0  0  0  0  0  0  0  0  0  0
   -1.6296    1.7118   -0.3047 S   0  0  0  0  0  0  0  0  0  0  0  0
   -3.1865    1.1298   -0.1926 C   0  0  0  0  0  0  0  0  0  0  0  0
   -3.2597   -0.1892    0.1528 C   0  0  0  0  0  0  0  0  0  0  0  0
   -1.9825   -0.7833    0.3435 C   0  0  0  0  0  0  0  0  0  0  0  0
   -1.8375   -2.1601    0.7121 C   0  0  0  0  0  0  0  0  0  0  0  0
   -1.8526   -3.2836    1.0061 N   0  0  0  0  0  0  0  0  0  0  0  0
   -4.6744   -0.6391    0.2385 C   0  0  0  0  0  0  0  0  0  0  0  0
   -5.4379    0.5331   -0.4547 C   0  0  0  0  0  0  0  0  0  0  0  0
   -4.5020    1.7793   -0.3954 C   0  0  0  0  0  0  0  0  0  0  0  0
    2.9892    0.8178   -0.1480 N   0  0  0  0  0  0  0  0  0  0  0  0
    4.7732    2.1348   -1.6688 H   0  0  0  0  0  0  0  0  0  0  0  0
    4.7767    2.8302   -0.0110 H   0  0  0  0  0  0  0  0  0  0  0  0
    6.1296    1.7892   -0.5522 H   0  0  0  0  0  0  0  0  0  0  0  0
    5.9471   -0.4854    0.4409 H   0  0  0  0  0  0  0  0  0  0  0  0
    0.8249    1.0954   -0.0895 H   0  0  0  0  0  0  0  0  0  0  0  0
   -4.8518   -1.5860   -0.2788 H   0  0  0  0  0  0  0  0  0  0  0  0
   -4.9834   -0.7313    1.2850 H   0  0  0  0  0  0  0  0  0  0  0  0
   -5.6142    0.2699   -1.5062 H   0  0  0  0  0  0  0  0  0  0  0  0
   -6.4132    0.7228    0.0039 H   0  0  0  0  0  0  0  0  0  0  0  0
   -4.7597    2.4126    0.4596 H   0  0  0  0  0  0  0  0  0  0  0  0
   -4.5606    2.3630   -1.3179 H   0  0  0  0  0  0  0  0  0  0  0  0
  1  2  1  0
  2  3  1  0
  3  4  2  0
  4  5  1  0
  5  6  2  0
  5  7  1  0
  4  8  1  0
  8  9  1  0
  9 10  2  0
  9 11  1  0
 11 12  1  0
 12 13  1  0
 13 14  1  0
 14 15  2  0
 15 16  1  0
 16 17  1  0
 17 18  3  0
 15 19  1  0
 19 20  1  0
 20 21  1  0
  8 22  2  0
 22  2  1  0
 16 12  2  0
 21 14  1  0
  1 23  1  0
  1 24  1  0
  1 25  1  0
  3 26  1  0
 11 27  1  0
 19 28  1  0
 19 29  1  0
 20 30  1  0
 20 31  1  0
 21 32  1  0
 21 33  1  0
M  CHG  2   5   1   7  -1
M  END
$$$$
