
     RDKit          3D

 49 50  0  0  0  0  0  0  0  0999 V2000
    6.2975    0.6348    1.5228 C   0  0  0  0  0  0  0  0  0  0  0  0
    5.8266   -0.3301    0.4520 C   0  0  0  0  0  0  0  0  0  0  0  0
    4.4468   -0.0602    0.1865 O   0  0  0  0  0  0  0  0  0  0  0  0
    3.8946   -0.8458   -0.7847 C   0  0  0  0  0  0  0  0  0  0  0  0
    4.5152   -1.7232   -1.3763 O   0  0  0  0  0  0  0  0  0  0  0  0
    2.4715   -0.5638   -1.0201 C   0  0  0  0  0  0  0  0  0  0  0  0
    1.5374   -1.4494   -1.6630 C   0  0  0  0  0  0  0  0  0  0  0  0
    1.8570   -2.8035   -2.2045 C   0  0  0  0  0  0  0  0  0  0  0  0
    0.3023   -0.8201   -1.6801 C   0  0  0  0  0  0  0  0  0  0  0  0
   -0.9961   -1.2971   -2.2422 C   0  0  0  0  0  0  0  0  0  0  0  0
    0.4353    0.3868   -1.0191 N   0  0  0  0  0  0  0  0  0  0  0  0
   -0.6739    1.3094   -0.7334 C   0  0  0  0  0  0  0  0  0  0  0  0
   -1.6237    0.7877    0.3243 C   0  0  0  0  0  0  0  0  0  0  0  0
   -1.1328    0.2240    1.5131 C   0  0  0  0  0  0  0  0  0  0  0  0
   -2.0057   -0.2194    2.5040 C   0  0  0  0  0  0  0  0  0  0  0  0
   -3.3843   -0.0811    2.3406 C   0  0  0  0  0  0  0  0  0  0  0  0
   -3.9057    0.5008    1.1814 C   0  0  0  0  0  0  0  0  0  0  0  0
   -5.2417    0.7187    0.9653 O   0  0  0  0  0  0  0  0  0  0  0  0
   -6.1375    0.4379    2.0325 C   0  0  0  0  0  0  0  0  0  0  0  0
   -3.0182    0.9122    0.1650 C   0  0  0  0  0  0  0  0  0  0  0  0
   -3.4494    1.5219   -0.9913 O   0  0  0  0  0  0  0  0  0  0  0  0
   -4.3817    0.7319   -1.7291 C   0  0  0  0  0  0  0  0  0  0  0  0
    1.7665    0.5967   -0.6965 C   0  0  0  0  0  0  0  0  0  0  0  0
    2.2497    1.8795   -0.1006 C   0  0  0  0  0  0  0  0  0  0  0  0
    7.3499    0.4648    1.7662 H   0  0  0  0  0  0  0  0  0  0  0  0
    5.7008    0.5218    2.4338 H   0  0  0  0  0  0  0  0  0  0  0  0
    6.1747    1.6704    1.1888 H   0  0  0  0  0  0  0  0  0  0  0  0
    5.9402   -1.3603    0.8072 H   0  0  0  0  0  0  0  0  0  0  0  0
    6.4167   -0.1849   -0.4599 H   0  0  0  0  0  0  0  0  0  0  0  0
    2.4444   -2.7144   -3.1239 H   0  0  0  0  0  0  0  0  0  0  0  0
    2.4297   -3.3861   -1.4758 H   0  0  0  0  0  0  0  0  0  0  0  0
    0.9536   -3.3764   -2.4324 H   0  0  0  0  0  0  0  0  0  0  0  0
   -1.6295   -1.7045   -1.4483 H   0  0  0  0  0  0  0  0  0  0  0  0
   -1.5362   -0.4912   -2.7475 H   0  0  0  0  0  0  0  0  0  0  0  0
   -0.8412   -2.0839   -2.9865 H   0  0  0  0  0  0  0  0  0  0  0  0
   -1.1603    1.4935   -1.6966 H   0  0  0  0  0  0  0  0  0  0  0  0
   -0.2742    2.2676   -0.3935 H   0  0  0  0  0  0  0  0  0  0  0  0
   -0.0613    0.1183    1.6745 H   0  0  0  0  0  0  0  0  0  0  0  0
   -1.6087   -0.6657    3.4129 H   0  0  0  0  0  0  0  0  0  0  0  0
   -4.0233   -0.4300    3.1446 H   0  0  0  0  0  0  0  0  0  0  0  0
   -6.1550   -0.6331    2.2593 H   0  0  0  0  0  0  0  0  0  0  0  0
   -7.1426    0.7246    1.7086 H   0  0  0  0  0  0  0  0  0  0  0  0
   -5.8942    1.0286    2.9219 H   0  0  0  0  0  0  0  0  0  0  0  0
   -4.2000    0.9146   -2.7929 H   0  0  0  0  0  0  0  0  0  0  0  0
   -4.2661   -0.3438   -1.5522 H   0  0  0  0  0  0  0  0  0  0  0  0
   -5.4039    1.0526   -1.5087 H   0  0  0  0  0  0  0  0  0  0  0  0
    3.3283    2.0079   -0.2194 H   0  0  0  0  0  0  0  0  0  0  0  0
    2.0112    1.9176    0.9666 H   0  0  0  0  0  0  0  0  0  0  0  0
    1.7974    2.7437   -0.5973 H   0  0  0  0  0  0  0  0  0  0  0  0
  1  2  1  0
  2  3  1  0
  3  4  1  0
  4  5  2  0
  4  6  1  0
  6  7  1  0
  7  8  1  0
  7  9  2  0
  9 10  1  0
  9 11  1  0
 11 12  1  0
 12 13  1  0
 13 14  2  0
 14 15  1  0
 15 16  2  0
 16 17  1  0
 17 18  1  0
 18 19  1  0
 17 20  2  0
 20 21  1  0
 21 22  1  0
 11 23  1  0
 23 24  1  0
 23  6  2  0
 20 13  1  0
  1 25  1  0
  1 26  1  0
  1 27  1  0
  2 28  1  0
  2 29  1  0
  8 30  1  0
  8 31  1  0
  8 32  1  0
 10 33  1  0
 10 34  1  0
 10 35  1  0
 12 36  1  0
 12 37  1  0
 14 38  1  0
 15 39  1  0
 16 40  1  0
 19 41  1  0
 19 42  1  0
 19 43  1  0
 22 44  1  0
 22 45  1  0
 22 46  1  0
 24 47  1  0
 24 48  1  0
 24 49  1  0
M  END
$$$$
