
     RDKit          3D

 55 58  0  0  0  0  0  0  0  0999 V2000
    2.9446   -2.1988   -1.2777 O   0  0  0  0  0  0  0  0  0  0  0  0
    2.6386   -1.3900   -0.4004 C   0  0  0  0  0  0  0  0  0  0  0  0
    1.3507   -1.4638    0.3922 C   0  0  0  0  0  0  0  0  0  0  0  0
    0.0000   -0.7663   -0.6022 S   0  0  0  0  0  0  0  0  0  0  0  0
   -1.3067   -0.9169    0.5198 C   0  0  0  0  0  0  0  0  0  0  0  0
   -1.1856   -1.2615    1.7788 N   0  0  0  0  0  0  0  0  0  0  0  0
   -2.4413   -1.2660    2.3290 N   0  0  0  0  0  0  0  0  0  0  0  0
   -3.3142   -0.9506    1.3873 C   0  0  0  0  0  0  0  0  0  0  0  0
   -4.7580   -0.8590    1.5797 C   0  0  0  0  0  0  0  0  0  0  0  0
   -5.2606    0.0781    2.4935 C   0  0  0  0  0  0  0  0  0  0  0  0
   -6.6349    0.1903    2.7150 C   0  0  0  0  0  0  0  0  0  0  0  0
   -7.5209   -0.6425    2.0338 C   0  0  0  0  0  0  0  0  0  0  0  0
   -7.0361   -1.5932    1.1354 C   0  0  0  0  0  0  0  0  0  0  0  0
   -5.6612   -1.7007    0.9161 C   0  0  0  0  0  0  0  0  0  0  0  0
   -5.1939   -2.6429    0.0392 O   0  0  0  0  0  0  0  0  0  0  0  0
   -2.6210   -0.6708    0.2248 N   0  0  0  0  0  0  0  0  0  0  0  0
   -3.1795   -0.1982   -1.0281 C   0  0  0  0  0  0  0  0  0  0  0  0
   -3.5656    1.2616   -0.9664 C   0  0  0  0  0  0  0  0  0  0  0  0
   -4.9171    1.6383   -0.9456 C   0  0  0  0  0  0  0  0  0  0  0  0
   -5.2793    2.9847   -0.8801 C   0  0  0  0  0  0  0  0  0  0  0  0
   -4.2965    3.9708   -0.8407 C   0  0  0  0  0  0  0  0  0  0  0  0
   -2.9511    3.6118   -0.8674 C   0  0  0  0  0  0  0  0  0  0  0  0
   -2.5863    2.2658   -0.9311 C   0  0  0  0  0  0  0  0  0  0  0  0
    3.4477   -0.3136   -0.0799 N   0  0  0  0  0  0  0  0  0  0  0  0
    4.7431   -0.3041   -0.6324 N   0  0  0  0  0  0  0  0  0  0  0  0
    5.7745    0.0911    0.1982 C   0  0  0  0  0  0  0  0  0  0  0  0
    5.5747    0.5659    1.3176 O   0  0  0  0  0  0  0  0  0  0  0  0
    7.1676   -0.1148   -0.2847 C   0  0  0  0  0  0  0  0  0  0  0  0
    7.4528   -0.3339   -1.6416 C   0  0  0  0  0  0  0  0  0  0  0  0
    8.7717   -0.5347   -2.0612 C   0  0  0  0  0  0  0  0  0  0  0  0
    9.8135   -0.5120   -1.1351 C   0  0  0  0  0  0  0  0  0  0  0  0
    9.5429   -0.2774    0.2118 C   0  0  0  0  0  0  0  0  0  0  0  0
    8.2300   -0.0720    0.6325 C   0  0  0  0  0  0  0  0  0  0  0  0
    8.0603    0.1673    1.9713 O   0  0  0  0  0  0  0  0  0  0  0  0
    1.1528   -2.5136    0.6323 H   0  0  0  0  0  0  0  0  0  0  0  0
    1.4578   -0.9108    1.3309 H   0  0  0  0  0  0  0  0  0  0  0  0
   -4.5760    0.7270    3.0374 H   0  0  0  0  0  0  0  0  0  0  0  0
   -7.0098    0.9245    3.4239 H   0  0  0  0  0  0  0  0  0  0  0  0
   -8.5903   -0.5549    2.2103 H   0  0  0  0  0  0  0  0  0  0  0  0
   -7.7402   -2.2365    0.6163 H   0  0  0  0  0  0  0  0  0  0  0  0
   -5.8889   -3.3097   -0.0951 H   0  0  0  0  0  0  0  0  0  0  0  0
   -4.0390   -0.8245   -1.2811 H   0  0  0  0  0  0  0  0  0  0  0  0
   -2.4598   -0.3527   -1.8380 H   0  0  0  0  0  0  0  0  0  0  0  0
   -5.7024    0.8854   -0.9722 H   0  0  0  0  0  0  0  0  0  0  0  0
   -6.3295    3.2635   -0.8577 H   0  0  0  0  0  0  0  0  0  0  0  0
   -4.5788    5.0190   -0.7884 H   0  0  0  0  0  0  0  0  0  0  0  0
   -2.1835    4.3812   -0.8370 H   0  0  0  0  0  0  0  0  0  0  0  0
   -1.5290    2.0118   -0.9517 H   0  0  0  0  0  0  0  0  0  0  0  0
    3.3521    0.1754    0.8110 H   0  0  0  0  0  0  0  0  0  0  0  0
    4.8898   -0.9864   -1.3766 H   0  0  0  0  0  0  0  0  0  0  0  0
    6.6718   -0.3331   -2.3965 H   0  0  0  0  0  0  0  0  0  0  0  0
    8.9880   -0.7042   -3.1138 H   0  0  0  0  0  0  0  0  0  0  0  0
   10.8385   -0.6684   -1.4621 H   0  0  0  0  0  0  0  0  0  0  0  0
   10.3534   -0.2486    0.9355 H   0  0  0  0  0  0  0  0  0  0  0  0
    7.1201    0.4134    2.1201 H   0  0  0  0  0  0  0  0  0  0  0  0
  1  2  2  0
  2  3  1  0
  3  4  1  0
  4  5  1  0
  5  6  2  0
  6  7  1  0
  7  8  2  0
  8  9  1  0
  9 10  2  0
 10 11  1  0
 11 12  2  0
 12 13  1  0
 13 14  2  0
 14 15  1  0
  8 16  1  0
 16 17  1  0
 17 18  1  0
 18 19  2  0
 19 20  1  0
 20 21  2  0
 21 22  1  0
 22 23  2  0
  2 24  1  0
 24 25  1  0
 25 26  1  0
 26 27  2  0
 26 28  1  0
 28 29  2  0
 29 30  1  0
 30 31  2  0
 31 32  1  0
 32 33  2  0
 33 34  1  0
 16  5  1  0
 23 18  1  0
 33 28  1  0
 14  9  1  0
  3 35  1  0
  3 36  1  0
 10 37  1  0
 11 38  1  0
 12 39  1  0
 13 40  1  0
 15 41  1  0
 17 42  1  0
 17 43  1  0
 19 44  1  0
 20 45  1  0
 21 46  1  0
 22 47  1  0
 23 48  1  0
 24 49  1  0
 25 50  1  0
 29 51  1  0
 30 52  1  0
 31 53  1  0
 32 54  1  0
 34 55  1  0
M  END
$$$$
