
     RDKit          3D

 53 56  0  0  0  0  0  0  0  0999 V2000
  -10.3410    0.3821    0.7242 C   0  0  0  0  0  0  0  0  0  0  0  0
   -9.0604    0.2581    1.3295 O   0  0  0  0  0  0  0  0  0  0  0  0
   -7.9707    0.4624    0.5296 C   0  0  0  0  0  0  0  0  0  0  0  0
   -7.9990    0.7817   -0.8272 C   0  0  0  0  0  0  0  0  0  0  0  0
   -6.8050    0.9646   -1.5292 C   0  0  0  0  0  0  0  0  0  0  0  0
   -5.5750    0.8299   -0.8809 C   0  0  0  0  0  0  0  0  0  0  0  0
   -5.5335    0.5096    0.4809 C   0  0  0  0  0  0  0  0  0  0  0  0
   -4.2485    0.3517    1.2321 C   0  0  0  0  0  0  0  0  0  0  0  0
   -4.2895    0.0680    2.4281 O   0  0  0  0  0  0  0  0  0  0  0  0
   -2.9396    0.5529    0.4710 C   0  0  0  0  0  0  0  0  0  0  0  0
   -1.8230    0.3647    1.3315 O   0  0  0  0  0  0  0  0  0  0  0  0
   -0.5784    0.5103    0.7898 C   0  0  0  0  0  0  0  0  0  0  0  0
   -0.2874    0.8383   -0.5325 C   0  0  0  0  0  0  0  0  0  0  0  0
    1.0463    0.9567   -0.9574 C   0  0  0  0  0  0  0  0  0  0  0  0
    2.1157    0.7522   -0.0732 C   0  0  0  0  0  0  0  0  0  0  0  0
    3.5388    0.8511   -0.4595 C   0  0  0  0  0  0  0  0  0  0  0  0
    3.8279    1.2025   -1.8969 C   0  0  0  0  0  0  0  0  0  0  0  0
    4.4917    0.6104    0.4712 C   0  0  0  0  0  0  0  0  0  0  0  0
    5.9885    0.6520    0.2280 C   0  0  0  0  0  0  0  0  0  0  0  0
    6.5787   -0.7009   -0.1160 C   0  0  0  0  0  0  0  0  0  0  0  0
    6.9844   -1.5789    0.9001 C   0  0  0  0  0  0  0  0  0  0  0  0
    7.5127   -2.8332    0.5897 C   0  0  0  0  0  0  0  0  0  0  0  0
    7.6431   -3.2261   -0.7399 C   0  0  0  0  0  0  0  0  0  0  0  0
    7.2463   -2.3644   -1.7597 C   0  0  0  0  0  0  0  0  0  0  0  0
    6.7167   -1.1096   -1.4504 C   0  0  0  0  0  0  0  0  0  0  0  0
    4.1308    0.3232    1.8914 C   0  0  0  0  0  0  0  0  0  0  0  0
    4.9801    0.2063    2.7696 O   0  0  0  0  0  0  0  0  0  0  0  0
    2.7880    0.2061    2.1997 O   0  0  0  0  0  0  0  0  0  0  0  0
    1.7934    0.4253    1.2384 C   0  0  0  0  0  0  0  0  0  0  0  0
    0.4732    0.3031    1.6781 C   0  0  0  0  0  0  0  0  0  0  0  0
   -6.7383    0.3282    1.1758 C   0  0  0  0  0  0  0  0  0  0  0  0
  -11.0948    0.1899    1.4938 H   0  0  0  0  0  0  0  0  0  0  0  0
  -10.4766   -0.3615   -0.0681 H   0  0  0  0  0  0  0  0  0  0  0  0
  -10.5021    1.3971    0.3462 H   0  0  0  0  0  0  0  0  0  0  0  0
   -8.9330    0.8954   -1.3681 H   0  0  0  0  0  0  0  0  0  0  0  0
   -6.8366    1.2134   -2.5879 H   0  0  0  0  0  0  0  0  0  0  0  0
   -4.6735    0.9809   -1.4660 H   0  0  0  0  0  0  0  0  0  0  0  0
   -2.9042   -0.1872   -0.3367 H   0  0  0  0  0  0  0  0  0  0  0  0
   -2.9315    1.5785    0.0845 H   0  0  0  0  0  0  0  0  0  0  0  0
   -1.0684    1.0090   -1.2658 H   0  0  0  0  0  0  0  0  0  0  0  0
    1.2183    1.2101   -2.0003 H   0  0  0  0  0  0  0  0  0  0  0  0
    3.4392    0.4283   -2.5676 H   0  0  0  0  0  0  0  0  0  0  0  0
    4.8894    1.3084   -2.1231 H   0  0  0  0  0  0  0  0  0  0  0  0
    3.3682    2.1624   -2.1582 H   0  0  0  0  0  0  0  0  0  0  0  0
    6.5154    1.0617    1.1002 H   0  0  0  0  0  0  0  0  0  0  0  0
    6.2439    1.3672   -0.5622 H   0  0  0  0  0  0  0  0  0  0  0  0
    6.8926   -1.2915    1.9464 H   0  0  0  0  0  0  0  0  0  0  0  0
    7.8211   -3.5023    1.3888 H   0  0  0  0  0  0  0  0  0  0  0  0
    8.0545   -4.2027   -0.9801 H   0  0  0  0  0  0  0  0  0  0  0  0
    7.3499   -2.6695   -2.7976 H   0  0  0  0  0  0  0  0  0  0  0  0
    6.4197   -0.4542   -2.2642 H   0  0  0  0  0  0  0  0  0  0  0  0
    0.2665    0.0468    2.7143 H   0  0  0  0  0  0  0  0  0  0  0  0
   -6.7246    0.0785    2.2361 H   0  0  0  0  0  0  0  0  0  0  0  0
  1  2  1  0
  2  3  1  0
  3  4  2  0
  4  5  1  0
  5  6  2  0
  6  7  1  0
  7  8  1  0
  8  9  2  0
  8 10  1  0
 10 11  1  0
 11 12  1  0
 12 13  2  0
 13 14  1  0
 14 15  2  0
 15 16  1  0
 16 17  1  0
 16 18  2  0
 18 19  1  0
 19 20  1  0
 20 21  2  0
 21 22  1  0
 22 23  2  0
 23 24  1  0
 24 25  2  0
 18 26  1  0
 26 27  2  0
 26 28  1  0
 28 29  1  0
 29 30  2  0
  7 31  2  0
 31  3  1  0
 30 12  1  0
 29 15  1  0
 25 20  1  0
  1 32  1  0
  1 33  1  0
  1 34  1  0
  4 35  1  0
  5 36  1  0
  6 37  1  0
 10 38  1  0
 10 39  1  0
 13 40  1  0
 14 41  1  0
 17 42  1  0
 17 43  1  0
 17 44  1  0
 19 45  1  0
 19 46  1  0
 21 47  1  0
 22 48  1  0
 23 49  1  0
 24 50  1  0
 25 51  1  0
 30 52  1  0
 31 53  1  0
M  END
$$$$
