
     RDKit          3D

 26 28  0  0  0  0  0  0  0  0999 V2000
   -4.0346    0.9634   -0.0297 C   0  0  0  0  0  0  0  0  0  0  0  0
   -2.6040    0.5930    0.0148 C   0  0  0  0  0  0  0  0  0  0  0  0
   -1.7189    1.6021   -0.2125 O   0  0  0  0  0  0  0  0  0  0  0  0
   -0.4710    1.0701   -0.1329 C   0  0  0  0  0  0  0  0  0  0  0  0
    0.7153    1.7752   -0.3077 C   0  0  0  0  0  0  0  0  0  0  0  0
    1.8836    1.0214   -0.1819 C   0  0  0  0  0  0  0  0  0  0  0  0
    3.1024    1.7153   -0.3554 O   0  0  0  0  0  0  0  0  0  0  0  0
    4.3253    1.0677   -0.2530 C   0  0  0  0  0  0  0  0  0  0  0  0
    5.3933    1.6506   -0.3999 O   0  0  0  0  0  0  0  0  0  0  0  0
    4.2911   -0.3744    0.0445 C   0  0  0  0  0  0  0  0  0  0  0  0
    3.1483   -1.0466    0.2116 C   0  0  0  0  0  0  0  0  0  0  0  0
    1.8777   -0.3464    0.0997 C   0  0  0  0  0  0  0  0  0  0  0  0
    0.6575   -1.0186    0.2688 C   0  0  0  0  0  0  0  0  0  0  0  0
   -0.5444   -0.2893    0.1494 C   0  0  0  0  0  0  0  0  0  0  0  0
   -1.9371   -0.5981    0.2491 C   0  0  0  0  0  0  0  0  0  0  0  0
   -2.5370   -1.9240    0.5367 C   0  0  0  0  0  0  0  0  0  0  0  0
   -4.1733    1.9706   -0.4347 H   0  0  0  0  0  0  0  0  0  0  0  0
   -4.5924    0.2658   -0.6620 H   0  0  0  0  0  0  0  0  0  0  0  0
   -4.4644    0.9376    0.9763 H   0  0  0  0  0  0  0  0  0  0  0  0
    0.7233    2.8348   -0.5264 H   0  0  0  0  0  0  0  0  0  0  0  0
    5.2560   -0.8609    0.1203 H   0  0  0  0  0  0  0  0  0  0  0  0
    3.1506   -2.1088    0.4301 H   0  0  0  0  0  0  0  0  0  0  0  0
    0.6275   -2.0814    0.4883 H   0  0  0  0  0  0  0  0  0  0  0  0
   -2.4545   -2.5749   -0.3394 H   0  0  0  0  0  0  0  0  0  0  0  0
   -3.5961   -1.8377    0.7992 H   0  0  0  0  0  0  0  0  0  0  0  0
   -2.0243   -2.4065    1.3751 H   0  0  0  0  0  0  0  0  0  0  0  0
  1  2  1  0
  2  3  1  0
  3  4  1  0
  4  5  2  0
  5  6  1  0
  6  7  1  0
  7  8  1  0
  8  9  2  0
  8 10  1  0
 10 11  2  0
 11 12  1  0
 12 13  1  0
 13 14  2  0
 14 15  1  0
 15 16  1  0
 15  2  2  0
 14  4  1  0
 12  6  2  0
  1 17  1  0
  1 18  1  0
  1 19  1  0
  5 20  1  0
 10 21  1  0
 11 22  1  0
 13 23  1  0
 16 24  1  0
 16 25  1  0
 16 26  1  0
M  END
$$$$
