
     RDKit          3D

 52 51  0  0  0  0  0  0  0  0999 V2000
   -7.4509    1.9879    0.8727 C   0  0  0  0  0  0  0  0  0  0  0  0
   -6.4215    1.6991    0.3245 C   0  0  0  0  0  0  0  0  0  0  0  0
   -5.1652    1.3646   -0.3543 C   0  0  0  0  0  0  0  0  0  0  0  0
   -4.5252    0.0797    0.2036 N   0  0  0  0  0  4  0  0  0  0  0  0
   -4.1599    0.2555    1.6739 C   0  0  0  0  0  0  0  0  0  0  0  0
   -5.5196   -1.0840    0.0859 C   0  0  0  0  0  0  0  0  0  0  0  0
   -3.2835   -0.3091   -0.6303 C   0  0  0  0  0  0  0  0  0  0  0  0
   -2.1497    0.7176   -0.5759 C   0  0  0  0  0  0  0  0  0  0  0  0
   -0.9546    0.3231   -1.4543 C   0  0  0  0  0  0  0  0  0  0  0  0
   -0.2659   -0.9959   -1.0888 C   0  0  0  0  0  0  0  0  0  0  0  0
    0.2372   -1.1040    0.3542 C   0  0  0  0  0  0  0  0  0  0  0  0
    1.2137   -0.0113    0.7999 C   0  0  0  0  0  0  0  0  0  0  0  0
    2.5030    0.0254   -0.0248 C   0  0  0  0  0  0  0  0  0  0  0  0
    3.4874    1.0540    0.5373 C   0  0  0  0  0  0  0  0  0  0  0  0
    4.7471    1.2236   -0.3175 C   0  0  0  0  0  0  0  0  0  0  0  0
    5.5949   -0.0366   -0.5154 C   0  0  0  0  0  0  0  0  0  0  0  0
    6.1102   -0.6358    0.7933 C   0  0  0  0  0  0  0  0  0  0  0  0
    7.0388   -1.8129    0.5362 C   0  0  0  0  0  0  0  0  0  0  0  0
   -8.3669    2.2566    1.3518 H   0  0  0  0  0  0  0  0  0  0  0  0
   -4.4471    2.1785   -0.2199 H   0  0  0  0  0  0  0  0  0  0  0  0
   -5.3281    1.2051   -1.4259 H   0  0  0  0  0  0  0  0  0  0  0  0
   -3.5790    1.1743    1.7883 H   0  0  0  0  0  0  0  0  0  0  0  0
   -3.5752   -0.6139    1.9891 H   0  0  0  0  0  0  0  0  0  0  0  0
   -5.0775    0.3189    2.2659 H   0  0  0  0  0  0  0  0  0  0  0  0
   -5.8282   -1.1702   -0.9603 H   0  0  0  0  0  0  0  0  0  0  0  0
   -5.0166   -1.9994    0.4129 H   0  0  0  0  0  0  0  0  0  0  0  0
   -6.3818   -0.8940    0.7305 H   0  0  0  0  0  0  0  0  0  0  0  0
   -3.6265   -0.4511   -1.6622 H   0  0  0  0  0  0  0  0  0  0  0  0
   -2.9448   -1.2759   -0.2419 H   0  0  0  0  0  0  0  0  0  0  0  0
   -1.8073    0.8674    0.4523 H   0  0  0  0  0  0  0  0  0  0  0  0
   -2.5013    1.6903   -0.9347 H   0  0  0  0  0  0  0  0  0  0  0  0
   -1.2892    0.2587   -2.4975 H   0  0  0  0  0  0  0  0  0  0  0  0
   -0.2188    1.1356   -1.4257 H   0  0  0  0  0  0  0  0  0  0  0  0
   -0.9534   -1.8289   -1.2787 H   0  0  0  0  0  0  0  0  0  0  0  0
    0.5730   -1.1506   -1.7779 H   0  0  0  0  0  0  0  0  0  0  0  0
   -0.6193   -1.1074    1.0388 H   0  0  0  0  0  0  0  0  0  0  0  0
    0.7216   -2.0812    0.4762 H   0  0  0  0  0  0  0  0  0  0  0  0
    1.4680   -0.1936    1.8517 H   0  0  0  0  0  0  0  0  0  0  0  0
    0.7239    0.9685    0.7677 H   0  0  0  0  0  0  0  0  0  0  0  0
    2.9585   -0.9710   -0.0207 H   0  0  0  0  0  0  0  0  0  0  0  0
    2.2758    0.2790   -1.0661 H   0  0  0  0  0  0  0  0  0  0  0  0
    3.7630    0.7841    1.5633 H   0  0  0  0  0  0  0  0  0  0  0  0
    2.9883    2.0293    0.6006 H   0  0  0  0  0  0  0  0  0  0  0  0
    5.3714    2.0023    0.1381 H   0  0  0  0  0  0  0  0  0  0  0  0
    4.4561    1.6026   -1.3051 H   0  0  0  0  0  0  0  0  0  0  0  0
    5.0248   -0.7901   -1.0710 H   0  0  0  0  0  0  0  0  0  0  0  0
    6.4507    0.2280   -1.1495 H   0  0  0  0  0  0  0  0  0  0  0  0
    5.2732   -0.9797    1.4103 H   0  0  0  0  0  0  0  0  0  0  0  0
    6.6481    0.1277    1.3669 H   0  0  0  0  0  0  0  0  0  0  0  0
    6.5224   -2.6068   -0.0129 H   0  0  0  0  0  0  0  0  0  0  0  0
    7.9127   -1.5039   -0.0462 H   0  0  0  0  0  0  0  0  0  0  0  0
    7.3931   -2.2301    1.4840 H   0  0  0  0  0  0  0  0  0  0  0  0
  1  2  3  0
  2  3  1  0
  3  4  1  0
  4  5  1  0
  4  6  1  0
  4  7  1  0
  7  8  1  0
  8  9  1  0
  9 10  1  0
 10 11  1  0
 11 12  1  0
 12 13  1  0
 13 14  1  0
 14 15  1  0
 15 16  1  0
 16 17  1  0
 17 18  1  0
  1 19  1  0
  3 20  1  0
  3 21  1  0
  5 22  1  0
  5 23  1  0
  5 24  1  0
  6 25  1  0
  6 26  1  0
  6 27  1  0
  7 28  1  0
  7 29  1  0
  8 30  1  0
  8 31  1  0
  9 32  1  0
  9 33  1  0
 10 34  1  0
 10 35  1  0
 11 36  1  0
 11 37  1  0
 12 38  1  0
 12 39  1  0
 13 40  1  0
 13 41  1  0
 14 42  1  0
 14 43  1  0
 15 44  1  0
 15 45  1  0
 16 46  1  0
 16 47  1  0
 17 48  1  0
 17 49  1  0
 18 50  1  0
 18 51  1  0
 18 52  1  0
M  CHG  1   4   1
M  END
$$$$
