
     RDKit          3D

 55 59  0  0  0  0  0  0  0  0999 V2000
    4.5351   -1.8221    5.3631 C   0  0  0  0  0  0  0  0  0  0  0  0
    3.5971   -1.1569    4.5258 O   0  0  0  0  0  0  0  0  0  0  0  0
    4.0776   -0.6295    3.3583 C   0  0  0  0  0  0  0  0  0  0  0  0
    5.4085   -0.6372    2.9409 C   0  0  0  0  0  0  0  0  0  0  0  0
    5.7607   -0.0701    1.7137 C   0  0  0  0  0  0  0  0  0  0  0  0
    4.7861    0.5163    0.9057 C   0  0  0  0  0  0  0  0  0  0  0  0
    3.4508    0.5529    1.3208 C   0  0  0  0  0  0  0  0  0  0  0  0
    2.4442    1.1653    0.4585 C   0  0  0  0  0  0  0  0  0  0  0  0
    2.3117    0.9417   -0.8374 N   0  0  0  0  0  0  0  0  0  0  0  0
    1.2082    1.6255   -1.2885 N   0  0  0  0  0  0  0  0  0  0  0  0
    0.7075    2.2809   -0.2711 C   0  0  0  0  0  0  0  0  0  0  0  0
   -0.7668    3.1824   -0.2599 S   0  0  0  0  0  0  0  0  0  0  0  0
   -2.0026    1.8425   -0.5471 C   0  0  0  0  0  0  0  0  0  0  0  0
   -2.0912    1.4260   -2.0282 C   0  0  0  0  0  0  0  0  0  0  0  0
   -1.4433    1.9929   -2.9093 O   0  0  0  0  0  0  0  0  0  0  0  0
   -3.0649    0.3855   -2.4130 C   0  0  0  0  0  0  0  0  0  0  0  0
   -4.1315   -0.0773   -1.6597 C   0  0  0  0  0  0  0  0  0  0  0  0
   -4.7863   -1.0438   -2.3766 N   0  0  0  0  0  0  0  0  0  0  0  0
   -4.1863   -1.2186   -3.5992 C   0  0  0  0  0  0  0  0  0  0  0  0
   -4.5162   -2.0862   -4.6478 C   0  0  0  0  0  0  0  0  0  0  0  0
   -3.7169   -2.0528   -5.7937 C   0  0  0  0  0  0  0  0  0  0  0  0
   -2.6314   -1.1864   -5.8839 C   0  0  0  0  0  0  0  0  0  0  0  0
   -2.3165   -0.3267   -4.8255 C   0  0  0  0  0  0  0  0  0  0  0  0
   -3.1071   -0.3355   -3.6560 C   0  0  0  0  0  0  0  0  0  0  0  0
   -1.8367    0.7183    0.4739 C   0  0  0  0  0  0  0  0  0  0  0  0
   -2.4391    0.8371    1.7395 C   0  0  0  0  0  0  0  0  0  0  0  0
   -2.2676   -0.1538    2.7078 C   0  0  0  0  0  0  0  0  0  0  0  0
   -1.4868   -1.2731    2.4301 C   0  0  0  0  0  0  0  0  0  0  0  0
   -0.8778   -1.4034    1.1848 C   0  0  0  0  0  0  0  0  0  0  0  0
   -1.0504   -0.4167    0.2129 C   0  0  0  0  0  0  0  0  0  0  0  0
    1.4819    2.0779    0.8374 N   0  0  0  0  0  0  0  0  0  0  0  0
    1.3289    2.6911    2.1312 C   0  0  0  0  0  0  0  0  0  0  0  0
    3.1057   -0.0396    2.5434 C   0  0  0  0  0  0  0  0  0  0  0  0
    5.2999   -1.1279    5.7266 H   0  0  0  0  0  0  0  0  0  0  0  0
    3.9932   -2.2052    6.2331 H   0  0  0  0  0  0  0  0  0  0  0  0
    4.9874   -2.6770    4.8496 H   0  0  0  0  0  0  0  0  0  0  0  0
    6.1953   -1.0834    3.5399 H   0  0  0  0  0  0  0  0  0  0  0  0
    6.7961   -0.0897    1.3822 H   0  0  0  0  0  0  0  0  0  0  0  0
    5.0703    0.9445   -0.0544 H   0  0  0  0  0  0  0  0  0  0  0  0
   -2.9691    2.3267   -0.3499 H   0  0  0  0  0  0  0  0  0  0  0  0
   -4.4875    0.1863   -0.6730 H   0  0  0  0  0  0  0  0  0  0  0  0
   -5.5971   -1.5579   -2.0602 H   0  0  0  0  0  0  0  0  0  0  0  0
   -5.3605   -2.7643   -4.5808 H   0  0  0  0  0  0  0  0  0  0  0  0
   -3.9455   -2.7140   -6.6263 H   0  0  0  0  0  0  0  0  0  0  0  0
   -2.0185   -1.1739   -6.7818 H   0  0  0  0  0  0  0  0  0  0  0  0
   -1.4643    0.3446   -4.9069 H   0  0  0  0  0  0  0  0  0  0  0  0
   -3.0431    1.7093    1.9831 H   0  0  0  0  0  0  0  0  0  0  0  0
   -2.7400   -0.0512    3.6816 H   0  0  0  0  0  0  0  0  0  0  0  0
   -1.3489   -2.0438    3.1842 H   0  0  0  0  0  0  0  0  0  0  0  0
   -0.2590   -2.2710    0.9669 H   0  0  0  0  0  0  0  0  0  0  0  0
   -0.5408   -0.5384   -0.7438 H   0  0  0  0  0  0  0  0  0  0  0  0
    0.9712    3.7169    2.0135 H   0  0  0  0  0  0  0  0  0  0  0  0
    0.6142    2.1022    2.7111 H   0  0  0  0  0  0  0  0  0  0  0  0
    2.2945    2.7294    2.6407 H   0  0  0  0  0  0  0  0  0  0  0  0
    2.0675   -0.0691    2.8666 H   0  0  0  0  0  0  0  0  0  0  0  0
  1  2  1  0
  2  3  1  0
  3  4  2  0
  4  5  1  0
  5  6  2  0
  6  7  1  0
  7  8  1  0
  8  9  2  0
  9 10  1  0
 10 11  2  0
 11 12  1  0
 12 13  1  0
 13 14  1  0
 14 15  2  0
 14 16  1  0
 16 17  2  0
 17 18  1  0
 18 19  1  0
 19 20  2  0
 20 21  1  0
 21 22  2  0
 22 23  1  0
 23 24  2  0
 13 25  1  0
 25 26  2  0
 26 27  1  0
 27 28  2  0
 28 29  1  0
 29 30  2  0
 11 31  1  0
 31 32  1  0
  7 33  2  0
 33  3  1  0
 31  8  1  0
 24 16  1  0
 30 25  1  0
 24 19  1  0
  1 34  1  0
  1 35  1  0
  1 36  1  0
  4 37  1  0
  5 38  1  0
  6 39  1  0
 13 40  1  0
 17 41  1  0
 18 42  1  0
 20 43  1  0
 21 44  1  0
 22 45  1  0
 23 46  1  0
 26 47  1  0
 27 48  1  0
 28 49  1  0
 29 50  1  0
 30 51  1  0
 32 52  1  0
 32 53  1  0
 32 54  1  0
 33 55  1  0
M  END
$$$$
