
     RDKit          3D

 60 66  0  0  0  0  0  0  0  0999 V2000
    0.8820    3.5117   -2.0828 O   0  0  0  0  0  0  0  0  0  0  0  0
    0.1898    3.5878   -1.0788 C   0  0  0  0  0  0  0  0  0  0  0  0
   -0.5948    4.6968   -0.7470 N   0  0  0  0  0  0  0  0  0  0  0  0
   -1.2789    4.4975    0.4434 C   0  0  0  0  0  0  0  0  0  0  0  0
   -2.1435    5.3784    1.0582 C   0  0  0  0  0  0  0  0  0  0  0  0
   -2.7410    4.9643    2.2507 C   0  0  0  0  0  0  0  0  0  0  0  0
   -2.4643    3.6958    2.7923 C   0  0  0  0  0  0  0  0  0  0  0  0
   -1.5817    2.8201    2.1529 C   0  0  0  0  0  0  0  0  0  0  0  0
   -0.9890    3.2349    0.9692 C   0  0  0  0  0  0  0  0  0  0  0  0
   -0.0164    2.5412    0.0559 C   0  0  0  0  0  0  0  0  0  0  0  0
    1.2856    2.1488    0.7033 N   0  0  0  0  0  0  0  0  0  0  0  0
    1.6630    0.7703    0.1968 C   0  0  2  0  0  0  0  0  0  0  0  0
    2.7796    0.8614   -0.8584 C   0  0  0  0  0  0  0  0  0  0  0  0
    3.3189   -0.4812   -1.2651 C   0  0  0  0  0  0  0  0  0  0  0  0
    3.1166   -1.1032   -2.4821 C   0  0  0  0  0  0  0  0  0  0  0  0
    3.7509   -2.3143   -2.4608 N   0  0  0  0  0  0  0  0  0  0  0  0
    4.3669   -2.5048   -1.2463 C   0  0  0  0  0  0  0  0  0  0  0  0
    5.1167   -3.5901   -0.7773 C   0  0  0  0  0  0  0  0  0  0  0  0
    5.6424   -3.5045    0.5148 C   0  0  0  0  0  0  0  0  0  0  0  0
    5.4286   -2.3764    1.3026 C   0  0  0  0  0  0  0  0  0  0  0  0
    4.6762   -1.3002    0.8182 C   0  0  0  0  0  0  0  0  0  0  0  0
    4.1291   -1.3631   -0.4799 C   0  0  0  0  0  0  0  0  0  0  0  0
    0.3709    0.2529   -0.3119 C   0  0  0  0  0  0  0  0  0  0  0  0
   -0.5926    1.2654   -0.3910 C   0  0  0  0  0  0  0  0  0  0  0  0
   -1.7610    0.7200   -0.8574 C   0  0  0  0  0  0  0  0  0  0  0  0
   -2.9531    1.2457   -1.1116 O   0  0  0  0  0  0  0  0  0  0  0  0
   -1.5162   -0.6340   -1.0316 N   0  0  0  0  0  0  0  0  0  0  0  0
   -2.4920   -1.6029   -1.5129 C   0  0  0  0  0  0  0  0  0  0  0  0
   -3.2847   -2.2091   -0.3797 C   0  0  0  0  0  0  0  0  0  0  0  0
   -4.5023   -1.6415    0.0232 C   0  0  0  0  0  0  0  0  0  0  0  0
   -5.2309   -2.1983    1.0756 C   0  0  0  0  0  0  0  0  0  0  0  0
   -4.7483   -3.3246    1.7395 C   0  0  0  0  0  0  0  0  0  0  0  0
   -3.5350   -3.8923    1.3550 C   0  0  0  0  0  0  0  0  0  0  0  0
   -2.8055   -3.3367    0.3028 C   0  0  0  0  0  0  0  0  0  0  0  0
   -0.1979   -0.9248   -0.7176 C   0  0  0  0  0  0  0  0  0  0  0  0
    0.2880   -2.1547   -0.8309 O   0  0  0  0  0  0  0  0  0  0  0  0
   -0.6265    5.5261   -1.3204 H   0  0  0  0  0  0  0  0  0  0  0  0
   -2.3578    6.3553    0.6400 H   0  0  0  0  0  0  0  0  0  0  0  0
   -3.4302    5.6281    2.7684 H   0  0  0  0  0  0  0  0  0  0  0  0
   -2.9460    3.3919    3.7198 H   0  0  0  0  0  0  0  0  0  0  0  0
   -1.3819    1.8366    2.5690 H   0  0  0  0  0  0  0  0  0  0  0  0
    1.0730    2.0254    1.6920 H   0  0  0  0  0  0  0  0  0  0  0  0
    1.9937    0.1761    1.0568 H   0  0  0  0  0  0  0  0  0  0  0  0
    2.4265    1.3897   -1.7527 H   0  0  0  0  0  0  0  0  0  0  0  0
    3.6130    1.4538   -0.4577 H   0  0  0  0  0  0  0  0  0  0  0  0
    2.5661   -0.7831   -3.3580 H   0  0  0  0  0  0  0  0  0  0  0  0
    3.7665   -2.9771   -3.2238 H   0  0  0  0  0  0  0  0  0  0  0  0
    5.2913   -4.4677   -1.3912 H   0  0  0  0  0  0  0  0  0  0  0  0
    6.2318   -4.3299    0.9077 H   0  0  0  0  0  0  0  0  0  0  0  0
    5.8524   -2.3276    2.3026 H   0  0  0  0  0  0  0  0  0  0  0  0
    4.5235   -0.4235    1.4407 H   0  0  0  0  0  0  0  0  0  0  0  0
   -2.9237    2.1832   -0.8493 H   0  0  0  0  0  0  0  0  0  0  0  0
   -3.1511   -1.0987   -2.2294 H   0  0  0  0  0  0  0  0  0  0  0  0
   -1.9616   -2.3788   -2.0772 H   0  0  0  0  0  0  0  0  0  0  0  0
   -4.8840   -0.7550   -0.4795 H   0  0  0  0  0  0  0  0  0  0  0  0
   -6.1731   -1.7499    1.3789 H   0  0  0  0  0  0  0  0  0  0  0  0
   -5.3149   -3.7567    2.5598 H   0  0  0  0  0  0  0  0  0  0  0  0
   -3.1529   -4.7657    1.8767 H   0  0  0  0  0  0  0  0  0  0  0  0
   -1.8535   -3.7821    0.0196 H   0  0  0  0  0  0  0  0  0  0  0  0
    1.2432   -2.1067   -0.6334 H   0  0  0  0  0  0  0  0  0  0  0  0
  1  2  2  0
  2  3  1  0
  3  4  1  0
  4  5  2  0
  5  6  1  0
  6  7  2  0
  7  8  1  0
  8  9  2  0
  9 10  1  0
 10 11  1  0
 11 12  1  0
 12 13  1  0
 13 14  1  0
 14 15  2  0
 15 16  1  0
 16 17  1  0
 17 18  2  0
 18 19  1  0
 19 20  2  0
 20 21  1  0
 21 22  2  0
 12 23  1  0
 23 24  1  0
 24 25  2  0
 25 26  1  0
 25 27  1  0
 27 28  1  0
 28 29  1  0
 29 30  2  0
 30 31  1  0
 31 32  2  0
 32 33  1  0
 33 34  2  0
 27 35  1  0
 35 36  1  0
 10  2  1  0
 22 14  1  0
 35 23  2  0
  9  4  1  0
 24 10  1  0
 34 29  1  0
 22 17  1  0
  3 37  1  0
  5 38  1  0
  6 39  1  0
  7 40  1  0
  8 41  1  0
 11 42  1  0
 12 43  1  1
 13 44  1  0
 13 45  1  0
 15 46  1  0
 16 47  1  0
 18 48  1  0
 19 49  1  0
 20 50  1  0
 21 51  1  0
 26 52  1  0
 28 53  1  0
 28 54  1  0
 30 55  1  0
 31 56  1  0
 32 57  1  0
 33 58  1  0
 34 59  1  0
 36 60  1  0
M  END
$$$$
