
     RDKit          3D

 36 37  0  0  0  0  0  0  0  0999 V2000
   -3.5597   -0.0198    2.1995 C   0  0  0  0  0  0  0  0  0  0  0  0
   -3.8666   -0.8944    0.9980 C   0  0  0  0  0  0  0  0  0  0  0  0
   -3.3152   -0.3121   -0.1921 O   0  0  0  0  0  0  0  0  0  0  0  0
   -2.0165   -0.6054   -0.4441 C   0  0  0  0  0  0  0  0  0  0  0  0
   -1.2962   -1.3344    0.2253 O   0  0  0  0  0  0  0  0  0  0  0  0
   -1.5376    0.1007   -1.6613 C   0  0  0  0  0  0  0  0  0  0  0  0
   -2.4442    0.6213   -2.5988 C   0  0  0  0  0  0  0  0  0  0  0  0
   -1.9781    1.2650   -3.7474 C   0  0  0  0  0  0  0  0  0  0  0  0
   -0.6084    1.3935   -3.9689 C   0  0  0  0  0  0  0  0  0  0  0  0
    0.3007    0.8785   -3.0444 C   0  0  0  0  0  0  0  0  0  0  0  0
   -0.1546    0.2244   -1.8955 C   0  0  0  0  0  0  0  0  0  0  0  0
    0.8273   -0.2308   -0.9398 N   0  0  0  0  0  0  0  0  0  0  0  0
    1.4387    1.0159    0.0537 S   0  0  0  0  0  6  0  0  0  0  0  0
    2.2224    1.9380   -0.7387 O   0  0  0  0  0  0  0  0  0  0  0  0
    0.3307    1.4881    0.8611 O   0  0  0  0  0  0  0  0  0  0  0  0
    2.5331    0.1305    1.1103 C   0  0  0  0  0  0  0  0  0  0  0  0
    2.2676    0.0244    2.4796 C   0  0  0  0  0  0  0  0  0  0  0  0
    3.1559   -0.6744    3.2995 C   0  0  0  0  0  0  0  0  0  0  0  0
    4.3004   -1.2593    2.7536 C   0  0  0  0  0  0  0  0  0  0  0  0
    4.5581   -1.1468    1.3864 C   0  0  0  0  0  0  0  0  0  0  0  0
    3.6723   -0.4498    0.5686 C   0  0  0  0  0  0  0  0  0  0  0  0
    3.9392   -0.3729   -0.7416 F   0  0  0  0  0  0  0  0  0  0  0  0
   -4.0265   -0.4236    3.1023 H   0  0  0  0  0  0  0  0  0  0  0  0
   -2.4805    0.0537    2.3673 H   0  0  0  0  0  0  0  0  0  0  0  0
   -3.9266    0.9989    2.0370 H   0  0  0  0  0  0  0  0  0  0  0  0
   -4.9502   -0.9537    0.8527 H   0  0  0  0  0  0  0  0  0  0  0  0
   -3.5043   -1.9185    1.1436 H   0  0  0  0  0  0  0  0  0  0  0  0
   -3.5174    0.5313   -2.4478 H   0  0  0  0  0  0  0  0  0  0  0  0
   -2.6846    1.6703   -4.4684 H   0  0  0  0  0  0  0  0  0  0  0  0
   -0.2443    1.9026   -4.8584 H   0  0  0  0  0  0  0  0  0  0  0  0
    1.3685    0.9957   -3.2196 H   0  0  0  0  0  0  0  0  0  0  0  0
    0.4225   -0.9544   -0.3251 H   0  0  0  0  0  0  0  0  0  0  0  0
    1.3800    0.4802    2.9141 H   0  0  0  0  0  0  0  0  0  0  0  0
    2.9571   -0.7614    4.3657 H   0  0  0  0  0  0  0  0  0  0  0  0
    4.9919   -1.8023    3.3939 H   0  0  0  0  0  0  0  0  0  0  0  0
    5.4449   -1.5989    0.9518 H   0  0  0  0  0  0  0  0  0  0  0  0
  1  2  1  0
  2  3  1  0
  3  4  1  0
  4  5  2  0
  4  6  1  0
  6  7  2  0
  7  8  1  0
  8  9  2  0
  9 10  1  0
 10 11  2  0
 11 12  1  0
 12 13  1  0
 13 14  2  0
 13 15  2  0
 13 16  1  0
 16 17  2  0
 17 18  1  0
 18 19  2  0
 19 20  1  0
 20 21  2  0
 21 22  1  0
 11  6  1  0
 21 16  1  0
  1 23  1  0
  1 24  1  0
  1 25  1  0
  2 26  1  0
  2 27  1  0
  7 28  1  0
  8 29  1  0
  9 30  1  0
 10 31  1  0
 12 32  1  0
 17 33  1  0
 18 34  1  0
 19 35  1  0
 20 36  1  0
M  END
$$$$
