
     RDKit          3D

 53 56  0  0  0  0  0  0  0  0999 V2000
    8.2039    0.3732    2.1068 C   0  0  0  0  0  0  0  0  0  0  0  0
    7.0144   -0.3837    2.2953 O   0  0  0  0  0  0  0  0  0  0  0  0
    6.0640   -0.2896    1.3173 C   0  0  0  0  0  0  0  0  0  0  0  0
    4.9087   -1.0361    1.5496 C   0  0  0  0  0  0  0  0  0  0  0  0
    3.8584   -1.0307    0.6262 C   0  0  0  0  0  0  0  0  0  0  0  0
    3.9476   -0.2747   -0.5473 C   0  0  0  0  0  0  0  0  0  0  0  0
    2.8501   -0.3230   -1.4272 N   0  0  0  0  0  0  0  0  0  0  0  0
    2.6846    0.3396   -2.6294 C   0  0  0  0  0  0  0  0  0  0  0  0
    3.5211    1.0677   -3.1628 O   0  0  0  0  0  0  0  0  0  0  0  0
    1.3832    0.0342   -3.3673 C   0  0  0  0  0  0  0  0  0  0  0  0
    0.0806   -0.7305   -2.3526 S   0  0  0  0  0  0  0  0  0  0  0  0
   -0.5128    0.6421   -1.4701 C   0  0  0  0  0  0  0  0  0  0  0  0
    0.0295    1.8357   -1.5157 N   0  0  0  0  0  0  0  0  0  0  0  0
   -0.6262    2.6301   -0.6194 N   0  0  0  0  0  0  0  0  0  0  0  0
   -1.5736    1.9138   -0.0420 C   0  0  0  0  0  0  0  0  0  0  0  0
   -2.6248    2.4789    0.8604 C   0  0  0  0  0  0  0  0  0  0  0  0
   -4.0050    2.4487    0.2587 C   0  0  0  0  0  0  0  0  0  0  0  0
   -5.0835    1.6616    0.6180 C   0  0  0  0  0  0  0  0  0  0  0  0
   -6.2322    1.9118   -0.1872 C   0  0  0  0  0  0  0  0  0  0  0  0
   -5.9997    2.8893   -1.1277 C   0  0  0  0  0  0  0  0  0  0  0  0
   -4.4067    3.5006   -1.0373 S   0  0  0  0  0  0  0  0  0  0  0  0
   -1.5105    0.6057   -0.5099 N   0  0  0  0  0  0  0  0  0  0  0  0
   -2.2810   -0.5027   -0.0777 C   0  0  0  0  0  0  0  0  0  0  0  0
   -2.8978   -1.3400   -1.0131 C   0  0  0  0  0  0  0  0  0  0  0  0
   -3.6607   -2.4264   -0.5777 C   0  0  0  0  0  0  0  0  0  0  0  0
   -3.7992   -2.6983    0.7886 C   0  0  0  0  0  0  0  0  0  0  0  0
   -4.6410   -3.8509    1.2518 C   0  0  0  0  0  0  0  0  0  0  0  0
   -3.1852   -1.8507    1.7184 C   0  0  0  0  0  0  0  0  0  0  0  0
   -2.4259   -0.7585    1.2909 C   0  0  0  0  0  0  0  0  0  0  0  0
    5.1029    0.4721   -0.7761 C   0  0  0  0  0  0  0  0  0  0  0  0
    6.1568    0.4647    0.1494 C   0  0  0  0  0  0  0  0  0  0  0  0
    8.7417    0.0469    1.2105 H   0  0  0  0  0  0  0  0  0  0  0  0
    8.8539    0.1933    2.9686 H   0  0  0  0  0  0  0  0  0  0  0  0
    7.9878    1.4463    2.0709 H   0  0  0  0  0  0  0  0  0  0  0  0
    4.8251   -1.6259    2.4595 H   0  0  0  0  0  0  0  0  0  0  0  0
    2.9757   -1.6257    0.8423 H   0  0  0  0  0  0  0  0  0  0  0  0
    2.0608   -0.8839   -1.1290 H   0  0  0  0  0  0  0  0  0  0  0  0
    1.0076    0.9535   -3.8279 H   0  0  0  0  0  0  0  0  0  0  0  0
    1.6290   -0.6692   -4.1700 H   0  0  0  0  0  0  0  0  0  0  0  0
   -2.3655    3.5208    1.0918 H   0  0  0  0  0  0  0  0  0  0  0  0
   -2.6219    1.9650    1.8269 H   0  0  0  0  0  0  0  0  0  0  0  0
   -5.0541    0.9304    1.4176 H   0  0  0  0  0  0  0  0  0  0  0  0
   -7.1820    1.4015   -0.0807 H   0  0  0  0  0  0  0  0  0  0  0  0
   -6.6896    3.2787   -1.8644 H   0  0  0  0  0  0  0  0  0  0  0  0
   -2.8377   -1.1446   -2.0816 H   0  0  0  0  0  0  0  0  0  0  0  0
   -4.1511   -3.0595   -1.3152 H   0  0  0  0  0  0  0  0  0  0  0  0
   -4.6355   -4.6603    0.5136 H   0  0  0  0  0  0  0  0  0  0  0  0
   -4.2535   -4.2647    2.1899 H   0  0  0  0  0  0  0  0  0  0  0  0
   -5.6736   -3.5214    1.4085 H   0  0  0  0  0  0  0  0  0  0  0  0
   -3.2865   -2.0449    2.7846 H   0  0  0  0  0  0  0  0  0  0  0  0
   -1.9241   -0.1530    2.0417 H   0  0  0  0  0  0  0  0  0  0  0  0
    5.2209    1.0791   -1.6685 H   0  0  0  0  0  0  0  0  0  0  0  0
    7.0323    1.0636   -0.0795 H   0  0  0  0  0  0  0  0  0  0  0  0
  1  2  1  0
  2  3  1  0
  3  4  2  0
  4  5  1  0
  5  6  2  0
  6  7  1  0
  7  8  1  0
  8  9  2  0
  8 10  1  0
 10 11  1  0
 11 12  1  0
 12 13  2  0
 13 14  1  0
 14 15  2  0
 15 16  1  0
 16 17  1  0
 17 18  2  0
 18 19  1  0
 19 20  2  0
 20 21  1  0
 15 22  1  0
 22 23  1  0
 23 24  2  0
 24 25  1  0
 25 26  2  0
 26 27  1  0
 26 28  1  0
 28 29  2  0
  6 30  1  0
 30 31  2  0
 31  3  1  0
 22 12  1  0
 29 23  1  0
 21 17  1  0
  1 32  1  0
  1 33  1  0
  1 34  1  0
  4 35  1  0
  5 36  1  0
  7 37  1  0
 10 38  1  0
 10 39  1  0
 16 40  1  0
 16 41  1  0
 18 42  1  0
 19 43  1  0
 20 44  1  0
 24 45  1  0
 25 46  1  0
 27 47  1  0
 27 48  1  0
 27 49  1  0
 28 50  1  0
 29 51  1  0
 30 52  1  0
 31 53  1  0
M  END
$$$$
