
     RDKit          3D

 47 48  0  0  0  0  0  0  0  0999 V2000
   -3.7246    0.9148    3.4014 C   0  0  0  0  0  0  0  0  0  0  0  0
   -2.7720   -0.2376    3.1229 C   0  0  0  0  0  0  0  0  0  0  0  0
   -2.5059   -0.3918    1.6820 N   0  0  0  0  0  0  0  0  0  0  0  0
   -3.4936   -1.1842    0.9266 C   0  0  0  0  0  0  0  0  0  0  0  0
   -4.3700   -0.3128    0.0359 C   0  0  0  0  0  0  0  0  0  0  0  0
   -1.4297    0.2349    1.0634 C   0  0  0  0  0  0  0  0  0  0  0  0
   -0.6846    1.2432    1.6948 C   0  0  0  0  0  0  0  0  0  0  0  0
    0.4146    1.8637    1.0834 C   0  0  0  0  0  0  0  0  0  0  0  0
    0.8243    1.4904   -0.1976 C   0  0  0  0  0  0  0  0  0  0  0  0
    2.0057    2.1664   -0.7567 C   0  0  0  0  0  0  0  0  0  0  0  0
    3.1094    1.5990   -1.2765 C   0  0  0  0  0  0  0  0  0  0  0  0
    3.3820    0.1657   -1.4522 C   0  0  0  0  0  0  0  0  0  0  0  0
    3.5629   -0.3117   -2.7597 C   0  0  0  0  0  0  0  0  0  0  0  0
    3.7792   -1.6636   -2.9916 C   0  0  0  0  0  0  0  0  0  0  0  0
    3.8121   -2.5313   -1.9141 C   0  0  0  0  0  0  0  0  0  0  0  0
    3.6483   -2.0280   -0.6312 C   0  0  0  0  0  0  0  0  0  0  0  0
    3.4652   -0.7036   -0.4074 N   0  0  0  0  0  4  0  0  0  0  0  0
    3.3741   -0.2629    0.9951 C   0  0  0  0  0  0  0  0  0  0  0  0
    0.0684    0.5279   -0.8748 C   0  0  0  0  0  0  0  0  0  0  0  0
    0.4462    0.1791   -2.1480 O   0  0  0  0  0  0  0  0  0  0  0  0
   -0.6426    0.1513   -3.0746 C   0  0  0  0  0  0  0  0  0  0  0  0
   -1.0137   -0.1031   -0.2363 C   0  0  0  0  0  0  0  0  0  0  0  0
   -4.7102    0.7253    2.9640 H   0  0  0  0  0  0  0  0  0  0  0  0
   -3.8587    1.0393    4.4806 H   0  0  0  0  0  0  0  0  0  0  0  0
   -3.3532    1.8597    2.9937 H   0  0  0  0  0  0  0  0  0  0  0  0
   -1.8432   -0.1147    3.6913 H   0  0  0  0  0  0  0  0  0  0  0  0
   -3.2134   -1.1623    3.5173 H   0  0  0  0  0  0  0  0  0  0  0  0
   -4.1525   -1.7225    1.6198 H   0  0  0  0  0  0  0  0  0  0  0  0
   -3.0002   -1.9688    0.3421 H   0  0  0  0  0  0  0  0  0  0  0  0
   -5.1143   -0.9320   -0.4758 H   0  0  0  0  0  0  0  0  0  0  0  0
   -4.9039    0.4427    0.6198 H   0  0  0  0  0  0  0  0  0  0  0  0
   -3.7889    0.2111   -0.7285 H   0  0  0  0  0  0  0  0  0  0  0  0
   -0.9540    1.5944    2.6873 H   0  0  0  0  0  0  0  0  0  0  0  0
    0.9404    2.6425    1.6333 H   0  0  0  0  0  0  0  0  0  0  0  0
    1.9498    3.2558   -0.7244 H   0  0  0  0  0  0  0  0  0  0  0  0
    3.8775    2.2553   -1.6850 H   0  0  0  0  0  0  0  0  0  0  0  0
    3.5012    0.3705   -3.6065 H   0  0  0  0  0  0  0  0  0  0  0  0
    3.9025   -2.0363   -4.0073 H   0  0  0  0  0  0  0  0  0  0  0  0
    3.9642   -3.5973   -2.0711 H   0  0  0  0  0  0  0  0  0  0  0  0
    3.6689   -2.6839    0.2347 H   0  0  0  0  0  0  0  0  0  0  0  0
    4.0592   -0.8723    1.5940 H   0  0  0  0  0  0  0  0  0  0  0  0
    3.6809    0.7781    1.0979 H   0  0  0  0  0  0  0  0  0  0  0  0
    2.3478   -0.4239    1.3320 H   0  0  0  0  0  0  0  0  0  0  0  0
   -1.1549   -0.8155   -3.0332 H   0  0  0  0  0  0  0  0  0  0  0  0
   -0.2247    0.2665   -4.0797 H   0  0  0  0  0  0  0  0  0  0  0  0
   -1.3477    0.9739   -2.9070 H   0  0  0  0  0  0  0  0  0  0  0  0
   -1.5284   -0.8917   -0.7739 H   0  0  0  0  0  0  0  0  0  0  0  0
  1  2  1  0
  2  3  1  0
  3  4  1  0
  4  5  1  0
  3  6  1  0
  6  7  2  0
  7  8  1  0
  8  9  2  0
  9 10  1  0
 10 11  2  3
 11 12  1  0
 12 13  2  0
 13 14  1  0
 14 15  2  0
 15 16  1  0
 16 17  2  0
 17 18  1  0
  9 19  1  0
 19 20  1  0
 20 21  1  0
 19 22  2  0
 22  6  1  0
 17 12  1  0
  1 23  1  0
  1 24  1  0
  1 25  1  0
  2 26  1  0
  2 27  1  0
  4 28  1  0
  4 29  1  0
  5 30  1  0
  5 31  1  0
  5 32  1  0
  7 33  1  0
  8 34  1  0
 10 35  1  0
 11 36  1  0
 13 37  1  0
 14 38  1  0
 15 39  1  0
 16 40  1  0
 18 41  1  0
 18 42  1  0
 18 43  1  0
 21 44  1  0
 21 45  1  0
 21 46  1  0
 22 47  1  0
M  CHG  1  17   1
M  END
$$$$
