
     RDKit          3D

 39 40  0  0  0  0  0  0  0  0999 V2000
   -0.2520   -1.8268    0.9966 O   0  0  0  0  0  0  0  0  0  0  0  0
   -0.8252   -0.7383    1.0030 C   0  0  0  0  0  0  0  0  0  0  0  0
   -2.0903   -0.6206    0.2228 C   0  0  0  0  0  0  0  0  0  0  0  0
   -2.7825    0.5158    0.0552 C   0  0  0  0  0  0  0  0  0  0  0  0
   -4.0221    0.5940   -0.7321 C   0  0  0  0  0  0  0  0  0  0  0  0
   -4.2574    1.7347   -1.5116 C   0  0  0  0  0  0  0  0  0  0  0  0
   -5.4357    1.8579   -2.2516 C   0  0  0  0  0  0  0  0  0  0  0  0
   -6.3872    0.8474   -2.2051 C   0  0  0  0  0  0  0  0  0  0  0  0
   -7.5221    1.0095   -2.9418 O   0  0  0  0  0  0  0  0  0  0  0  0
   -6.1828   -0.2857   -1.4262 C   0  0  0  0  0  0  0  0  0  0  0  0
   -5.0024   -0.4082   -0.6863 C   0  0  0  0  0  0  0  0  0  0  0  0
   -0.2830    0.4672    1.7267 C   0  0  0  0  0  0  0  0  0  0  0  0
    0.8506    0.1654    2.6743 C   0  0  0  0  0  0  0  0  0  0  0  0
    0.6729    0.1718    3.8946 O   0  0  0  0  0  0  0  0  0  0  0  0
    2.2290   -0.0906    2.1700 C   0  0  0  0  0  0  0  0  0  0  0  0
    2.5837   -0.1222    0.8773 C   0  0  0  0  0  0  0  0  0  0  0  0
    3.9576   -0.3888    0.4289 C   0  0  0  0  0  0  0  0  0  0  0  0
    5.0726    0.1882    1.0539 C   0  0  0  0  0  0  0  0  0  0  0  0
    6.3639   -0.0623    0.5792 C   0  0  0  0  0  0  0  0  0  0  0  0
    6.5379   -0.8839   -0.5289 C   0  0  0  0  0  0  0  0  0  0  0  0
    7.7779   -1.1548   -1.0257 O   0  0  0  0  0  0  0  0  0  0  0  0
    5.4451   -1.4538   -1.1693 C   0  0  0  0  0  0  0  0  0  0  0  0
    4.1559   -1.2029   -0.6942 C   0  0  0  0  0  0  0  0  0  0  0  0
   -2.4079   -1.5559   -0.2300 H   0  0  0  0  0  0  0  0  0  0  0  0
   -2.4505    1.4594    0.4789 H   0  0  0  0  0  0  0  0  0  0  0  0
   -3.5240    2.5364   -1.5598 H   0  0  0  0  0  0  0  0  0  0  0  0
   -5.6103    2.7404   -2.8607 H   0  0  0  0  0  0  0  0  0  0  0  0
   -8.0896    0.2315   -2.8153 H   0  0  0  0  0  0  0  0  0  0  0  0
   -6.9249   -1.0762   -1.3759 H   0  0  0  0  0  0  0  0  0  0  0  0
   -4.8663   -1.2914   -0.0663 H   0  0  0  0  0  0  0  0  0  0  0  0
   -1.0865    0.9073    2.3297 H   0  0  0  0  0  0  0  0  0  0  0  0
    0.0403    1.2237    1.0044 H   0  0  0  0  0  0  0  0  0  0  0  0
    2.9506   -0.2710    2.9620 H   0  0  0  0  0  0  0  0  0  0  0  0
    1.8606    0.0103    0.0787 H   0  0  0  0  0  0  0  0  0  0  0  0
    4.9494    0.8458    1.9112 H   0  0  0  0  0  0  0  0  0  0  0  0
    7.2113    0.3932    1.0816 H   0  0  0  0  0  0  0  0  0  0  0  0
    8.4391   -0.7122   -0.4690 H   0  0  0  0  0  0  0  0  0  0  0  0
    5.5942   -2.0933   -2.0346 H   0  0  0  0  0  0  0  0  0  0  0  0
    3.3099   -1.6610   -1.2023 H   0  0  0  0  0  0  0  0  0  0  0  0
  1  2  2  0
  2  3  1  0
  3  4  2  3
  4  5  1  0
  5  6  2  0
  6  7  1  0
  7  8  2  0
  8  9  1  0
  8 10  1  0
 10 11  2  0
  2 12  1  0
 12 13  1  0
 13 14  2  0
 13 15  1  0
 15 16  2  3
 16 17  1  0
 17 18  2  0
 18 19  1  0
 19 20  2  0
 20 21  1  0
 20 22  1  0
 22 23  2  0
 11  5  1  0
 23 17  1  0
  3 24  1  0
  4 25  1  0
  6 26  1  0
  7 27  1  0
  9 28  1  0
 10 29  1  0
 11 30  1  0
 12 31  1  0
 12 32  1  0
 15 33  1  0
 16 34  1  0
 18 35  1  0
 19 36  1  0
 21 37  1  0
 22 38  1  0
 23 39  1  0
M  END
$$$$
