
     RDKit          3D

 52 55  0  0  0  0  0  0  0  0999 V2000
    6.3820    0.9737    0.9738 C   0  0  0  0  0  0  0  0  0  0  0  0
    5.4851    0.5566   -0.1006 N   0  0  0  0  0  0  0  0  0  0  0  0
    4.5341   -0.4791    0.3458 C   0  0  0  0  0  0  0  0  0  0  0  0
    3.1170    0.0378    0.6915 C   0  0  0  0  0  0  0  0  0  0  0  0
    2.4594    0.8264   -0.3737 N   0  0  0  0  0  0  0  0  0  0  0  0
    1.3866    0.1026   -1.0647 C   0  0  0  0  0  0  0  0  0  0  0  0
    0.1296   -0.0294   -0.1957 C   0  0  0  0  0  0  0  0  0  0  0  0
   -0.9985   -0.7059   -0.9885 C   0  0  0  0  0  0  0  0  0  0  0  0
   -2.2158   -0.8949   -0.1652 N   0  0  0  0  0  0  0  0  0  0  0  0
   -2.3517   -2.1427    0.5129 C   0  0  0  0  0  0  0  0  0  0  0  0
   -1.2550   -3.0108    0.7226 C   0  0  0  0  0  0  0  0  0  0  0  0
   -1.3753   -4.2318    1.3980 C   0  0  0  0  0  0  0  0  0  0  0  0
   -2.6044   -4.6293    1.8947 C   0  0  0  0  0  0  0  0  0  0  0  0
   -3.7053   -3.8006    1.7152 C   0  0  0  0  0  0  0  0  0  0  0  0
   -3.5883   -2.5698    1.0382 C   0  0  0  0  0  0  0  0  0  0  0  0
   -5.0974   -1.6477    0.8717 S   0  0  0  0  0  0  0  0  0  0  0  0
   -4.5213   -0.0905    0.2411 C   0  0  0  0  0  0  0  0  0  0  0  0
   -5.4866    0.9343    0.1958 C   0  0  0  0  0  0  0  0  0  0  0  0
   -5.1742    2.1969   -0.2968 C   0  0  0  0  0  0  0  0  0  0  0  0
   -3.8866    2.4552   -0.7592 C   0  0  0  0  0  0  0  0  0  0  0  0
   -3.5090    3.8231   -1.2713 C   0  0  0  0  0  0  0  0  0  0  0  0
   -2.9729    4.6110   -0.2998 F   0  0  0  0  0  0  0  0  0  0  0  0
   -2.5835    3.7785   -2.2707 F   0  0  0  0  0  0  0  0  0  0  0  0
   -4.5659    4.5180   -1.7773 F   0  0  0  0  0  0  0  0  0  0  0  0
   -2.9249    1.4258   -0.7037 C   0  0  0  0  0  0  0  0  0  0  0  0
   -3.2071    0.1277   -0.2173 C   0  0  0  0  0  0  0  0  0  0  0  0
    3.4508    1.3401   -1.3444 C   0  0  0  0  0  0  0  0  0  0  0  0
    4.7829    1.7254   -0.6691 C   0  0  0  0  0  0  0  0  0  0  0  0
    7.0910    1.7271    0.6127 H   0  0  0  0  0  0  0  0  0  0  0  0
    5.8383    1.3910    1.8289 H   0  0  0  0  0  0  0  0  0  0  0  0
    6.9790    0.1252    1.3260 H   0  0  0  0  0  0  0  0  0  0  0  0
    4.9336   -1.0474    1.1952 H   0  0  0  0  0  0  0  0  0  0  0  0
    4.4391   -1.2068   -0.4709 H   0  0  0  0  0  0  0  0  0  0  0  0
    2.5060   -0.8153    1.0065 H   0  0  0  0  0  0  0  0  0  0  0  0
    3.1949    0.6876    1.5727 H   0  0  0  0  0  0  0  0  0  0  0  0
    1.1014    0.6597   -1.9671 H   0  0  0  0  0  0  0  0  0  0  0  0
    1.7329   -0.8847   -1.3962 H   0  0  0  0  0  0  0  0  0  0  0  0
   -0.1843    0.9638    0.1451 H   0  0  0  0  0  0  0  0  0  0  0  0
    0.3444   -0.5994    0.7134 H   0  0  0  0  0  0  0  0  0  0  0  0
   -0.6525   -1.6624   -1.4017 H   0  0  0  0  0  0  0  0  0  0  0  0
   -1.2235   -0.1307   -1.8963 H   0  0  0  0  0  0  0  0  0  0  0  0
   -0.2566   -2.7587    0.3815 H   0  0  0  0  0  0  0  0  0  0  0  0
   -0.5016   -4.8638    1.5359 H   0  0  0  0  0  0  0  0  0  0  0  0
   -2.7089   -5.5742    2.4201 H   0  0  0  0  0  0  0  0  0  0  0  0
   -4.6686   -4.1203    2.1082 H   0  0  0  0  0  0  0  0  0  0  0  0
   -6.4995    0.7479    0.5498 H   0  0  0  0  0  0  0  0  0  0  0  0
   -5.9390    2.9713   -0.3154 H   0  0  0  0  0  0  0  0  0  0  0  0
   -1.9267    1.6875   -1.0452 H   0  0  0  0  0  0  0  0  0  0  0  0
    3.6544    0.5984   -2.1291 H   0  0  0  0  0  0  0  0  0  0  0  0
    3.0331    2.2260   -1.8372 H   0  0  0  0  0  0  0  0  0  0  0  0
    5.4377    2.2008   -1.4085 H   0  0  0  0  0  0  0  0  0  0  0  0
    4.5716    2.4772    0.1041 H   0  0  0  0  0  0  0  0  0  0  0  0
  1  2  1  0
  2  3  1  0
  3  4  1  0
  4  5  1  0
  5  6  1  0
  6  7  1  0
  7  8  1  0
  8  9  1  0
  9 10  1  0
 10 11  2  0
 11 12  1  0
 12 13  2  0
 13 14  1  0
 14 15  2  0
 15 16  1  0
 16 17  1  0
 17 18  2  0
 18 19  1  0
 19 20  2  0
 20 21  1  0
 21 22  1  0
 21 23  1  0
 21 24  1  0
 20 25  1  0
 25 26  2  0
  5 27  1  0
 27 28  1  0
 28  2  1  0
 26  9  1  0
 15 10  1  0
 26 17  1  0
  1 29  1  0
  1 30  1  0
  1 31  1  0
  3 32  1  0
  3 33  1  0
  4 34  1  0
  4 35  1  0
  6 36  1  0
  6 37  1  0
  7 38  1  0
  7 39  1  0
  8 40  1  0
  8 41  1  0
 11 42  1  0
 12 43  1  0
 13 44  1  0
 14 45  1  0
 18 46  1  0
 19 47  1  0
 25 48  1  0
 27 49  1  0
 27 50  1  0
 28 51  1  0
 28 52  1  0
M  END
$$$$
