
     RDKit          3D

 53 56  0  0  0  0  0  0  0  0999 V2000
    4.5795    4.2452   -0.6988 C   0  0  0  0  0  0  0  0  0  0  0  0
    3.8034    3.3080    0.0369 O   0  0  0  0  0  0  0  0  0  0  0  0
    3.7937    2.0158   -0.4168 C   0  0  0  0  0  0  0  0  0  0  0  0
    4.3939    1.5637   -1.5911 C   0  0  0  0  0  0  0  0  0  0  0  0
    4.3097    0.2162   -1.9412 C   0  0  0  0  0  0  0  0  0  0  0  0
    3.6190   -0.6806   -1.1233 C   0  0  0  0  0  0  0  0  0  0  0  0
    2.9906   -0.2377    0.0421 C   0  0  0  0  0  0  0  0  0  0  0  0
    2.2689   -1.1974    0.7843 N   0  0  0  0  0  0  0  0  0  0  0  0
    1.3038   -0.9478    1.7415 C   0  0  0  0  0  0  0  0  0  0  0  0
    0.9787    0.1626    2.1564 O   0  0  0  0  0  0  0  0  0  0  0  0
    0.6353   -2.1792    2.3429 C   0  0  0  0  0  0  0  0  0  0  0  0
    0.4080   -3.6010    1.2397 S   0  0  0  0  0  0  0  0  0  0  0  0
   -0.0949   -2.8670   -0.2502 C   0  0  0  0  0  0  0  0  0  0  0  0
    0.6663   -2.9108   -1.3190 N   0  0  0  0  0  0  0  0  0  0  0  0
    0.1390   -2.0515   -2.2371 N   0  0  0  0  0  0  0  0  0  0  0  0
   -0.9414   -1.4910   -1.7178 C   0  0  0  0  0  0  0  0  0  0  0  0
   -1.8241   -0.5425   -2.4646 C   0  0  0  0  0  0  0  0  0  0  0  0
   -1.3726    0.8909   -2.3786 C   0  0  0  0  0  0  0  0  0  0  0  0
   -0.1134    1.4089   -2.1225 C   0  0  0  0  0  0  0  0  0  0  0  0
   -0.0982    2.8325   -2.1148 C   0  0  0  0  0  0  0  0  0  0  0  0
   -1.3417    3.3604   -2.3816 C   0  0  0  0  0  0  0  0  0  0  0  0
   -2.5097    2.1446   -2.6543 S   0  0  0  0  0  0  0  0  0  0  0  0
   -1.1667   -2.0095   -0.4449 N   0  0  0  0  0  0  0  0  0  0  0  0
   -2.2494   -1.7472    0.4322 C   0  0  0  0  0  0  0  0  0  0  0  0
   -2.6944   -0.4382    0.6379 C   0  0  0  0  0  0  0  0  0  0  0  0
   -3.7624   -0.1927    1.5043 C   0  0  0  0  0  0  0  0  0  0  0  0
   -4.4003   -1.2475    2.1685 C   0  0  0  0  0  0  0  0  0  0  0  0
   -5.5314   -0.9643    3.1127 C   0  0  0  0  0  0  0  0  0  0  0  0
   -3.9356   -2.5528    1.9763 C   0  0  0  0  0  0  0  0  0  0  0  0
   -2.8656   -2.8056    1.1138 C   0  0  0  0  0  0  0  0  0  0  0  0
    3.0929    1.1121    0.3924 C   0  0  0  0  0  0  0  0  0  0  0  0
    4.1401    4.4229   -1.6874 H   0  0  0  0  0  0  0  0  0  0  0  0
    4.5630    5.1923   -0.1525 H   0  0  0  0  0  0  0  0  0  0  0  0
    5.6229    3.9273   -0.7792 H   0  0  0  0  0  0  0  0  0  0  0  0
    4.9241    2.2332   -2.2591 H   0  0  0  0  0  0  0  0  0  0  0  0
    4.7678   -0.1332   -2.8638 H   0  0  0  0  0  0  0  0  0  0  0  0
    3.5459   -1.7202   -1.4352 H   0  0  0  0  0  0  0  0  0  0  0  0
    2.3055   -2.1463    0.4186 H   0  0  0  0  0  0  0  0  0  0  0  0
    1.2353   -2.5018    3.2011 H   0  0  0  0  0  0  0  0  0  0  0  0
   -0.3481   -1.8804    2.7231 H   0  0  0  0  0  0  0  0  0  0  0  0
   -1.8129   -0.8303   -3.5238 H   0  0  0  0  0  0  0  0  0  0  0  0
   -2.8638   -0.6489   -2.1406 H   0  0  0  0  0  0  0  0  0  0  0  0
    0.7578    0.7959   -1.9233 H   0  0  0  0  0  0  0  0  0  0  0  0
    0.7807    3.4331   -1.9143 H   0  0  0  0  0  0  0  0  0  0  0  0
   -1.6172    4.4071   -2.4377 H   0  0  0  0  0  0  0  0  0  0  0  0
   -2.1953    0.4181    0.1892 H   0  0  0  0  0  0  0  0  0  0  0  0
   -4.0858    0.8340    1.6708 H   0  0  0  0  0  0  0  0  0  0  0  0
   -5.1421   -0.5784    4.0614 H   0  0  0  0  0  0  0  0  0  0  0  0
   -6.1147   -1.8675    3.3161 H   0  0  0  0  0  0  0  0  0  0  0  0
   -6.2143   -0.2250    2.6791 H   0  0  0  0  0  0  0  0  0  0  0  0
   -4.4091   -3.3849    2.4954 H   0  0  0  0  0  0  0  0  0  0  0  0
   -2.5592   -3.8383    0.9669 H   0  0  0  0  0  0  0  0  0  0  0  0
    2.6383    1.4948    1.3010 H   0  0  0  0  0  0  0  0  0  0  0  0
  1  2  1  0
  2  3  1  0
  3  4  2  0
  4  5  1  0
  5  6  2  0
  6  7  1  0
  7  8  1  0
  8  9  1  0
  9 10  2  0
  9 11  1  0
 11 12  1  0
 12 13  1  0
 13 14  2  0
 14 15  1  0
 15 16  2  0
 16 17  1  0
 17 18  1  0
 18 19  2  0
 19 20  1  0
 20 21  2  0
 21 22  1  0
 16 23  1  0
 23 24  1  0
 24 25  2  0
 25 26  1  0
 26 27  2  0
 27 28  1  0
 27 29  1  0
 29 30  2  0
  7 31  2  0
 31  3  1  0
 23 13  1  0
 30 24  1  0
 22 18  1  0
  1 32  1  0
  1 33  1  0
  1 34  1  0
  4 35  1  0
  5 36  1  0
  6 37  1  0
  8 38  1  0
 11 39  1  0
 11 40  1  0
 17 41  1  0
 17 42  1  0
 19 43  1  0
 20 44  1  0
 21 45  1  0
 25 46  1  0
 26 47  1  0
 28 48  1  0
 28 49  1  0
 28 50  1  0
 29 51  1  0
 30 52  1  0
 31 53  1  0
M  END
$$$$
