
     RDKit          3D

 31 32  0  0  0  0  0  0  0  0999 V2000
   -3.3607    2.2008   -0.1153 C   0  0  0  0  0  0  0  0  0  0  0  0
   -3.2430    0.7100    0.0571 C   0  0  0  0  0  0  0  0  0  0  0  0
   -4.2763    0.0457    0.1720 O   0  0  0  0  0  0  0  0  0  0  0  0
   -1.9115    0.0745    0.0879 C   0  0  0  0  0  0  0  0  0  0  0  0
   -1.7140   -1.2704    0.3923 C   0  0  0  0  0  0  0  0  0  0  0  0
   -2.6850   -2.3468    0.7340 C   0  0  0  0  0  0  0  0  0  0  0  0
   -0.3721   -1.5310    0.3425 N   0  0  0  0  0  0  0  0  0  0  0  0
    0.3268   -0.3955    0.0257 C   0  0  0  0  0  0  0  0  0  0  0  0
    1.7846   -0.4079   -0.0571 C   0  0  0  0  0  0  0  0  0  0  0  0
    2.4344   -1.2103   -1.0029 C   0  0  0  0  0  0  0  0  0  0  0  0
    3.8290   -1.2285   -1.0733 C   0  0  0  0  0  0  0  0  0  0  0  0
    4.5820   -0.4471   -0.1975 C   0  0  0  0  0  0  0  0  0  0  0  0
    3.9427    0.3557    0.7456 C   0  0  0  0  0  0  0  0  0  0  0  0
    2.5483    0.3738    0.8174 C   0  0  0  0  0  0  0  0  0  0  0  0
   -0.5968    0.6284   -0.1577 C   0  0  0  0  0  0  0  0  0  0  0  0
   -0.2537    2.0257   -0.5541 C   0  0  0  0  0  0  0  0  0  0  0  0
   -4.4068    2.4977    0.0135 H   0  0  0  0  0  0  0  0  0  0  0  0
   -2.7756    2.7190    0.6476 H   0  0  0  0  0  0  0  0  0  0  0  0
   -3.0507    2.4910   -1.1207 H   0  0  0  0  0  0  0  0  0  0  0  0
   -3.2828   -2.0616    1.6056 H   0  0  0  0  0  0  0  0  0  0  0  0
   -3.3573   -2.5360   -0.1094 H   0  0  0  0  0  0  0  0  0  0  0  0
   -2.1762   -3.2871    0.9739 H   0  0  0  0  0  0  0  0  0  0  0  0
    0.0564   -2.4265    0.5390 H   0  0  0  0  0  0  0  0  0  0  0  0
    1.8580   -1.8125   -1.7013 H   0  0  0  0  0  0  0  0  0  0  0  0
    4.3276   -1.8464   -1.8161 H   0  0  0  0  0  0  0  0  0  0  0  0
    5.6675   -0.4612   -0.2525 H   0  0  0  0  0  0  0  0  0  0  0  0
    4.5286    0.9654    1.4284 H   0  0  0  0  0  0  0  0  0  0  0  0
    2.0593    1.0015    1.5583 H   0  0  0  0  0  0  0  0  0  0  0  0
    0.8046    2.1337   -0.8102 H   0  0  0  0  0  0  0  0  0  0  0  0
   -0.4649    2.7189    0.2654 H   0  0  0  0  0  0  0  0  0  0  0  0
   -0.8224    2.3272   -1.4383 H   0  0  0  0  0  0  0  0  0  0  0  0
  1  2  1  0
  2  3  2  0
  2  4  1  0
  4  5  2  0
  5  6  1  0
  5  7  1  0
  7  8  1  0
  8  9  1  0
  9 10  2  0
 10 11  1  0
 11 12  2  0
 12 13  1  0
 13 14  2  0
  8 15  2  0
 15 16  1  0
 15  4  1  0
 14  9  1  0
  1 17  1  0
  1 18  1  0
  1 19  1  0
  6 20  1  0
  6 21  1  0
  6 22  1  0
  7 23  1  0
 10 24  1  0
 11 25  1  0
 12 26  1  0
 13 27  1  0
 14 28  1  0
 16 29  1  0
 16 30  1  0
 16 31  1  0
M  END
$$$$
