
     RDKit          3D

 51 54  0  0  0  0  0  0  0  0999 V2000
    5.6946    1.7276   -4.3848 C   0  0  0  0  0  0  0  0  0  0  0  0
    5.7976    1.5827   -2.8741 C   0  0  0  0  0  0  0  0  0  0  0  0
    4.4452    1.6352   -2.2127 C   0  0  0  0  0  0  0  0  0  0  0  0
    3.8926    2.8552   -1.8163 C   0  0  0  0  0  0  0  0  0  0  0  0
    2.6269    2.9048   -1.2184 C   0  0  0  0  0  0  0  0  0  0  0  0
    1.8733    1.7406   -0.9996 C   0  0  0  0  0  0  0  0  0  0  0  0
    0.5598    1.7893   -0.3845 N   0  0  0  0  0  0  0  0  0  0  0  0
   -0.2749    2.8740   -0.6800 C   0  0  0  0  0  0  0  0  0  0  0  0
   -0.0007    3.8198   -1.4202 O   0  0  0  0  0  0  0  0  0  0  0  0
   -1.6278    2.8676   -0.0999 C   0  0  0  0  0  0  0  0  0  0  0  0
   -2.5197    3.9073   -0.4215 C   0  0  0  0  0  0  0  0  0  0  0  0
   -3.8155    3.9066    0.0848 C   0  0  0  0  0  0  0  0  0  0  0  0
   -4.2242    2.8636    0.9049 C   0  0  0  0  0  0  0  0  0  0  0  0
   -3.3341    1.8322    1.2256 C   0  0  0  0  0  0  0  0  0  0  0  0
   -2.0167    1.8276    0.7352 C   0  0  0  0  0  0  0  0  0  0  0  0
   -1.0793    0.8175    1.0616 N   0  0  0  0  0  0  0  0  0  0  0  0
   -1.4387   -0.2721    1.9733 C   0  0  0  0  0  0  0  0  0  0  0  0
   -2.1080   -1.4408    1.2415 C   0  0  0  0  0  0  0  0  0  0  0  0
   -2.6021   -1.3539    0.1203 O   0  0  0  0  0  0  0  0  0  0  0  0
   -2.1594   -2.5999    1.9833 N   0  0  0  0  0  0  0  0  0  0  0  0
   -2.8576   -3.7648    1.4926 C   0  0  0  0  0  0  0  0  0  0  0  0
   -2.5587   -4.9096    2.3854 C   0  0  0  0  0  0  0  0  0  0  0  0
   -2.0198   -6.1619    2.1742 C   0  0  0  0  0  0  0  0  0  0  0  0
   -1.9825   -6.8003    3.4373 C   0  0  0  0  0  0  0  0  0  0  0  0
   -2.4995   -5.8994    4.3382 C   0  0  0  0  0  0  0  0  0  0  0  0
   -2.8500   -4.7469    3.7114 O   0  0  0  0  0  0  0  0  0  0  0  0
    0.1963    0.7592    0.4973 C   0  0  0  0  0  0  0  0  0  0  0  0
    0.9579   -0.1542    0.8357 O   0  0  0  0  0  0  0  0  0  0  0  0
    2.4395    0.5227   -1.4114 C   0  0  0  0  0  0  0  0  0  0  0  0
    3.7045    0.4688   -2.0104 C   0  0  0  0  0  0  0  0  0  0  0  0
    5.2352    2.6825   -4.6620 H   0  0  0  0  0  0  0  0  0  0  0  0
    6.6902    1.6859   -4.8376 H   0  0  0  0  0  0  0  0  0  0  0  0
    5.0896    0.9251   -4.8206 H   0  0  0  0  0  0  0  0  0  0  0  0
    6.2938    0.6365   -2.6259 H   0  0  0  0  0  0  0  0  0  0  0  0
    6.4375    2.3760   -2.4683 H   0  0  0  0  0  0  0  0  0  0  0  0
    4.4410    3.7825   -1.9671 H   0  0  0  0  0  0  0  0  0  0  0  0
    2.2604    3.8792   -0.9046 H   0  0  0  0  0  0  0  0  0  0  0  0
   -2.2068    4.7172   -1.0786 H   0  0  0  0  0  0  0  0  0  0  0  0
   -4.5036    4.7081   -0.1716 H   0  0  0  0  0  0  0  0  0  0  0  0
   -5.2406    2.8429    1.2915 H   0  0  0  0  0  0  0  0  0  0  0  0
   -3.7212    1.0327    1.8489 H   0  0  0  0  0  0  0  0  0  0  0  0
   -2.0916    0.0864    2.7749 H   0  0  0  0  0  0  0  0  0  0  0  0
   -0.5415   -0.6532    2.4753 H   0  0  0  0  0  0  0  0  0  0  0  0
   -1.8914   -2.5979    2.9600 H   0  0  0  0  0  0  0  0  0  0  0  0
   -3.9307   -3.5465    1.4896 H   0  0  0  0  0  0  0  0  0  0  0  0
   -2.5428   -3.9667    0.4632 H   0  0  0  0  0  0  0  0  0  0  0  0
   -1.6927   -6.5620    1.2242 H   0  0  0  0  0  0  0  0  0  0  0  0
   -1.6235   -7.7943    3.6644 H   0  0  0  0  0  0  0  0  0  0  0  0
   -2.6754   -5.9245    5.4048 H   0  0  0  0  0  0  0  0  0  0  0  0
    1.8951   -0.4128   -1.3049 H   0  0  0  0  0  0  0  0  0  0  0  0
    4.0999   -0.4954   -2.3222 H   0  0  0  0  0  0  0  0  0  0  0  0
  1  2  1  0
  2  3  1  0
  3  4  2  0
  4  5  1  0
  5  6  2  0
  6  7  1  0
  7  8  1  0
  8  9  2  0
  8 10  1  0
 10 11  2  0
 11 12  1  0
 12 13  2  0
 13 14  1  0
 14 15  2  0
 15 16  1  0
 16 17  1  0
 17 18  1  0
 18 19  2  0
 18 20  1  0
 20 21  1  0
 21 22  1  0
 22 23  2  0
 23 24  1  0
 24 25  2  0
 25 26  1  0
 16 27  1  0
 27 28  2  0
  6 29  1  0
 29 30  2  0
 30  3  1  0
 27  7  1  0
 15 10  1  0
 26 22  1  0
  1 31  1  0
  1 32  1  0
  1 33  1  0
  2 34  1  0
  2 35  1  0
  4 36  1  0
  5 37  1  0
 11 38  1  0
 12 39  1  0
 13 40  1  0
 14 41  1  0
 17 42  1  0
 17 43  1  0
 20 44  1  0
 21 45  1  0
 21 46  1  0
 23 47  1  0
 24 48  1  0
 25 49  1  0
 29 50  1  0
 30 51  1  0
M  END
$$$$
