
     RDKit          3D

 46 48  0  0  0  0  0  0  0  0999 V2000
   -2.1205   -2.0579   -1.9189 C   0  0  0  0  0  0  0  0  0  0  0  0
   -2.1216   -0.5761   -1.5920 C   0  0  0  0  0  0  0  0  0  0  0  0
   -2.6306   -0.3597   -0.2038 N   0  0  0  0  0  4  0  0  0  0  0  0
   -1.7357   -0.2588    0.8255 C   0  0  0  0  0  0  0  0  0  0  0  0
   -0.2977   -0.4623    0.6054 C   0  0  0  0  0  0  0  0  0  0  0  0
    0.5922    0.5361    0.7291 C   0  0  0  0  0  0  0  0  0  0  0  0
    2.0431    0.3689    0.5464 C   0  0  0  0  0  0  0  0  0  0  0  0
    2.5850   -0.4929   -0.4126 C   0  0  0  0  0  0  0  0  0  0  0  0
    3.9705   -0.6010   -0.5726 C   0  0  0  0  0  0  0  0  0  0  0  0
    4.8361    0.1591    0.2175 C   0  0  0  0  0  0  0  0  0  0  0  0
    6.2042    0.1190    0.1307 O   0  0  0  0  0  0  0  0  0  0  0  0
    6.7869   -0.7739   -0.8077 C   0  0  0  0  0  0  0  0  0  0  0  0
    4.3023    1.0427    1.1755 C   0  0  0  0  0  0  0  0  0  0  0  0
    5.2175    1.7584    1.9059 O   0  0  0  0  0  0  0  0  0  0  0  0
    4.7342    2.6595    2.8907 C   0  0  0  0  0  0  0  0  0  0  0  0
    2.9129    1.1441    1.3277 C   0  0  0  0  0  0  0  0  0  0  0  0
   -2.1690    0.0086    2.1246 C   0  0  0  0  0  0  0  0  0  0  0  0
   -3.5152    0.1751    2.3873 C   0  0  0  0  0  0  0  0  0  0  0  0
   -4.4315    0.0592    1.3500 C   0  0  0  0  0  0  0  0  0  0  0  0
   -5.7998    0.2150    1.6172 C   0  0  0  0  0  0  0  0  0  0  0  0
   -6.7405    0.0936    0.5988 C   0  0  0  0  0  0  0  0  0  0  0  0
   -6.3238   -0.1883   -0.6946 C   0  0  0  0  0  0  0  0  0  0  0  0
   -4.9621   -0.3447   -0.9763 C   0  0  0  0  0  0  0  0  0  0  0  0
   -3.9815   -0.2198    0.0290 C   0  0  0  0  0  0  0  0  0  0  0  0
   -1.7446   -2.2200   -2.9337 H   0  0  0  0  0  0  0  0  0  0  0  0
   -3.1253   -2.4858   -1.8573 H   0  0  0  0  0  0  0  0  0  0  0  0
   -1.4838   -2.6179   -1.2275 H   0  0  0  0  0  0  0  0  0  0  0  0
   -2.7336    0.0016   -2.2900 H   0  0  0  0  0  0  0  0  0  0  0  0
   -1.1175   -0.1533   -1.6860 H   0  0  0  0  0  0  0  0  0  0  0  0
    0.0104   -1.4763    0.3648 H   0  0  0  0  0  0  0  0  0  0  0  0
    0.2751    1.5421    1.0032 H   0  0  0  0  0  0  0  0  0  0  0  0
    1.9488   -1.0887   -1.0609 H   0  0  0  0  0  0  0  0  0  0  0  0
    4.3452   -1.2844   -1.3280 H   0  0  0  0  0  0  0  0  0  0  0  0
    6.5241   -1.8123   -0.5808 H   0  0  0  0  0  0  0  0  0  0  0  0
    7.8743   -0.6809   -0.7279 H   0  0  0  0  0  0  0  0  0  0  0  0
    6.5045   -0.5086   -1.8318 H   0  0  0  0  0  0  0  0  0  0  0  0
    4.1308    3.4526    2.4373 H   0  0  0  0  0  0  0  0  0  0  0  0
    5.5991    3.1309    3.3672 H   0  0  0  0  0  0  0  0  0  0  0  0
    4.1732    2.1305    3.6682 H   0  0  0  0  0  0  0  0  0  0  0  0
    2.4916    1.8225    2.0628 H   0  0  0  0  0  0  0  0  0  0  0  0
   -1.4546    0.0808    2.9442 H   0  0  0  0  0  0  0  0  0  0  0  0
   -3.8388    0.3841    3.4068 H   0  0  0  0  0  0  0  0  0  0  0  0
   -6.1532    0.4313    2.6257 H   0  0  0  0  0  0  0  0  0  0  0  0
   -7.8005    0.2151    0.8177 H   0  0  0  0  0  0  0  0  0  0  0  0
   -7.0632   -0.2897   -1.4884 H   0  0  0  0  0  0  0  0  0  0  0  0
   -4.7173   -0.5771   -2.0079 H   0  0  0  0  0  0  0  0  0  0  0  0
  1  2  1  0
  2  3  1  0
  3  4  2  0
  4  5  1  0
  5  6  2  3
  6  7  1  0
  7  8  2  0
  8  9  1  0
  9 10  2  0
 10 11  1  0
 11 12  1  0
 10 13  1  0
 13 14  1  0
 14 15  1  0
 13 16  2  0
  4 17  1  0
 17 18  2  0
 18 19  1  0
 19 20  2  0
 20 21  1  0
 21 22  2  0
 22 23  1  0
 23 24  2  0
 24  3  1  0
 16  7  1  0
 24 19  1  0
  1 25  1  0
  1 26  1  0
  1 27  1  0
  2 28  1  0
  2 29  1  0
  5 30  1  0
  6 31  1  0
  8 32  1  0
  9 33  1  0
 12 34  1  0
 12 35  1  0
 12 36  1  0
 15 37  1  0
 15 38  1  0
 15 39  1  0
 16 40  1  0
 17 41  1  0
 18 42  1  0
 20 43  1  0
 21 44  1  0
 22 45  1  0
 23 46  1  0
M  CHG  1   3   1
M  END
$$$$
