
     RDKit          3D

 60 65  0  0  0  0  0  0  0  0999 V2000
   -5.2333   -2.7861   -2.7487 O   0  0  0  0  0  0  0  0  0  0  0  0
   -4.5022   -2.0645   -2.0801 C   0  0  0  0  0  0  0  0  0  0  0  0
   -3.2306   -2.4654   -1.6887 N   0  0  0  0  0  0  0  0  0  0  0  0
   -2.3624   -1.6879   -0.9241 C   0  0  0  0  0  0  0  0  0  0  0  0
   -1.0169   -2.3398   -0.6456 C   0  0  0  0  0  0  0  0  0  0  0  0
   -0.1758   -2.3684   -1.9357 C   0  0  0  0  0  0  0  0  0  0  0  0
    1.2862   -1.9911   -1.7037 C   0  0  0  0  0  0  0  0  0  0  0  0
    1.7664   -2.6938   -0.5018 N   0  0  0  0  0  0  0  0  0  0  0  0
    3.4267   -3.0471   -0.3986 S   0  0  0  0  0  6  0  0  0  0  0  0
    3.6425   -3.7917    0.8241 O   0  0  0  0  0  0  0  0  0  0  0  0
    3.8599   -3.5649   -1.6787 O   0  0  0  0  0  0  0  0  0  0  0  0
    4.1711   -1.4433   -0.1928 C   0  0  0  0  0  0  0  0  0  0  0  0
    4.5003   -0.9866    1.0887 C   0  0  0  0  0  0  0  0  0  0  0  0
    5.1064    0.2616    1.2404 C   0  0  0  0  0  0  0  0  0  0  0  0
    5.3952    1.0348    0.1164 C   0  0  0  0  0  0  0  0  0  0  0  0
    5.0599    0.5737   -1.1622 C   0  0  0  0  0  0  0  0  0  0  0  0
    4.4704   -0.6771   -1.3235 C   0  0  0  0  0  0  0  0  0  0  0  0
    5.2903    1.2949   -2.3052 O   0  0  0  0  0  0  0  0  0  0  0  0
    5.5949    2.6639   -2.0121 C   0  0  0  0  0  0  0  0  0  0  0  0
    6.5840    2.7627   -0.8626 C   0  0  0  0  0  0  0  0  0  0  0  0
    6.0100    2.2398    0.3413 O   0  0  0  0  0  0  0  0  0  0  0  0
    1.0807   -2.3311    0.7605 C   0  0  0  0  0  0  0  0  0  0  0  0
   -0.2641   -1.6566    0.4995 C   0  0  0  0  0  0  0  0  0  0  0  0
   -2.6380   -0.4840   -0.5027 N   0  0  0  0  0  0  0  0  0  0  0  0
   -3.8782   -0.0714   -0.8657 C   0  0  0  0  0  0  0  0  0  0  0  0
   -4.8189   -0.7442   -1.6084 C   0  0  0  0  0  0  0  0  0  0  0  0
   -5.9352    0.0148   -1.7693 N   0  0  0  0  0  0  0  0  0  0  0  0
   -5.7249    1.1682   -1.1344 N   0  0  0  0  0  0  0  0  0  0  0  0
   -4.4943    1.1121   -0.5692 N   0  0  0  0  0  0  0  0  0  0  0  0
   -3.9641    2.2331    0.1794 C   0  0  0  0  0  0  0  0  0  0  0  0
   -4.2446    2.0964    1.6505 C   0  0  0  0  0  0  0  0  0  0  0  0
   -3.4413    1.2921    2.4730 C   0  0  0  0  0  0  0  0  0  0  0  0
   -3.7330    1.1567    3.8326 C   0  0  0  0  0  0  0  0  0  0  0  0
   -4.8283    1.8212    4.3848 C   0  0  0  0  0  0  0  0  0  0  0  0
   -5.6316    2.6231    3.5772 C   0  0  0  0  0  0  0  0  0  0  0  0
   -5.3362    2.7532    2.2236 C   0  0  0  0  0  0  0  0  0  0  0  0
   -6.1143    3.5387    1.4671 F   0  0  0  0  0  0  0  0  0  0  0  0
   -2.9693   -3.3929   -1.9916 H   0  0  0  0  0  0  0  0  0  0  0  0
   -1.2209   -3.3776   -0.3469 H   0  0  0  0  0  0  0  0  0  0  0  0
   -0.2216   -3.3835   -2.3517 H   0  0  0  0  0  0  0  0  0  0  0  0
   -0.5911   -1.7079   -2.7068 H   0  0  0  0  0  0  0  0  0  0  0  0
    1.8599   -2.2764   -2.5910 H   0  0  0  0  0  0  0  0  0  0  0  0
    1.3913   -0.9079   -1.5756 H   0  0  0  0  0  0  0  0  0  0  0  0
    4.2989   -1.5958    1.9673 H   0  0  0  0  0  0  0  0  0  0  0  0
    5.3714    0.6238    2.2306 H   0  0  0  0  0  0  0  0  0  0  0  0
    4.2461   -1.0422   -2.3224 H   0  0  0  0  0  0  0  0  0  0  0  0
    4.6580    3.1858   -1.7806 H   0  0  0  0  0  0  0  0  0  0  0  0
    6.0198    3.1098   -2.9167 H   0  0  0  0  0  0  0  0  0  0  0  0
    7.5075    2.2111   -1.0780 H   0  0  0  0  0  0  0  0  0  0  0  0
    6.8464    3.8089   -0.6775 H   0  0  0  0  0  0  0  0  0  0  0  0
    1.6953   -1.6641    1.3714 H   0  0  0  0  0  0  0  0  0  0  0  0
    0.9139   -3.2537    1.3285 H   0  0  0  0  0  0  0  0  0  0  0  0
   -0.0958   -0.5980    0.2618 H   0  0  0  0  0  0  0  0  0  0  0  0
   -0.8640   -1.6677    1.4174 H   0  0  0  0  0  0  0  0  0  0  0  0
   -2.8844    2.2848   -0.0034 H   0  0  0  0  0  0  0  0  0  0  0  0
   -4.3979    3.1514   -0.2331 H   0  0  0  0  0  0  0  0  0  0  0  0
   -2.5871    0.7595    2.0586 H   0  0  0  0  0  0  0  0  0  0  0  0
   -3.1078    0.5280    4.4616 H   0  0  0  0  0  0  0  0  0  0  0  0
   -5.0569    1.7121    5.4417 H   0  0  0  0  0  0  0  0  0  0  0  0
   -6.4882    3.1461    3.9913 H   0  0  0  0  0  0  0  0  0  0  0  0
  1  2  2  0
  2  3  1  0
  3  4  1  0
  4  5  1  0
  5  6  1  0
  6  7  1  0
  7  8  1  0
  8  9  1  0
  9 10  2  0
  9 11  2  0
  9 12  1  0
 12 13  2  0
 13 14  1  0
 14 15  2  0
 15 16  1  0
 16 17  2  0
 16 18  1  0
 18 19  1  0
 19 20  1  0
 20 21  1  0
  8 22  1  0
 22 23  1  0
  4 24  2  0
 24 25  1  0
 25 26  2  0
 26 27  1  0
 27 28  2  0
 28 29  1  0
 29 30  1  0
 30 31  1  0
 31 32  2  0
 32 33  1  0
 33 34  2  0
 34 35  1  0
 35 36  2  0
 36 37  1  0
 26  2  1  0
 36 31  1  0
 23  5  1  0
 29 25  1  0
 17 12  1  0
 21 15  1  0
  3 38  1  0
  5 39  1  0
  6 40  1  0
  6 41  1  0
  7 42  1  0
  7 43  1  0
 13 44  1  0
 14 45  1  0
 17 46  1  0
 19 47  1  0
 19 48  1  0
 20 49  1  0
 20 50  1  0
 22 51  1  0
 22 52  1  0
 23 53  1  0
 23 54  1  0
 30 55  1  0
 30 56  1  0
 32 57  1  0
 33 58  1  0
 34 59  1  0
 35 60  1  0
M  END
$$$$
