
     RDKit          3D

 21 21  0  0  0  0  0  0  0  0999 V2000
    3.0747   -0.3247   -0.4178 C   0  0  0  0  0  0  0  0  0  0  0  0
    1.6090   -0.0212   -0.2660 C   0  0  0  0  0  0  0  0  0  0  0  0
    1.1230    1.2068   -0.7253 C   0  0  0  0  0  0  0  0  0  0  0  0
   -0.2197    1.5074   -0.5707 C   0  0  0  0  0  0  0  0  0  0  0  0
   -0.6837    2.7166   -1.0164 O   0  0  0  0  0  0  0  0  0  0  0  0
   -1.1226    0.6310    0.0509 C   0  0  0  0  0  0  0  0  0  0  0  0
   -2.4907    1.0115    0.0346 N   0  0  0  0  0  0  0  0  0  0  0  0
   -0.6769   -0.6430    0.4419 C   0  0  0  0  0  0  0  0  0  0  0  0
   -1.6238   -1.6565    1.0323 C   0  0  0  0  0  0  0  0  0  0  0  0
    0.7056   -0.9384    0.3167 C   0  0  0  0  0  0  0  0  0  0  0  0
    1.3168   -2.4643    0.8900 Cl  0  0  0  0  0  0  0  0  0  0  0  0
    3.6103    0.5076   -0.8873 H   0  0  0  0  0  0  0  0  0  0  0  0
    3.5337   -0.4954    0.5612 H   0  0  0  0  0  0  0  0  0  0  0  0
    3.2192   -1.2048   -1.0526 H   0  0  0  0  0  0  0  0  0  0  0  0
    1.7793    1.9345   -1.1944 H   0  0  0  0  0  0  0  0  0  0  0  0
   -1.6148    2.7263   -0.7106 H   0  0  0  0  0  0  0  0  0  0  0  0
   -3.0031    0.5946    0.8093 H   0  0  0  0  0  0  0  0  0  0  0  0
   -2.9142    0.6897   -0.8379 H   0  0  0  0  0  0  0  0  0  0  0  0
   -2.6678   -1.4519    0.7795 H   0  0  0  0  0  0  0  0  0  0  0  0
   -1.4252   -2.6592    0.6400 H   0  0  0  0  0  0  0  0  0  0  0  0
   -1.5290   -1.6665    2.1226 H   0  0  0  0  0  0  0  0  0  0  0  0
  1  2  1  0
  2  3  2  0
  3  4  1  0
  4  5  1  0
  4  6  2  0
  6  7  1  0
  6  8  1  0
  8  9  1  0
  8 10  2  0
 10 11  1  0
 10  2  1  0
  1 12  1  0
  1 13  1  0
  1 14  1  0
  3 15  1  0
  5 16  1  0
  7 17  1  0
  7 18  1  0
  9 19  1  0
  9 20  1  0
  9 21  1  0
M  END
$$$$
