
     RDKit          3D

 54 57  0  0  0  0  0  0  0  0999 V2000
   -3.8146   -4.6255   -1.6947 C   0  0  0  0  0  0  0  0  0  0  0  0
   -2.8269   -4.2598   -0.7394 O   0  0  0  0  0  0  0  0  0  0  0  0
   -2.7195   -2.9304   -0.4360 C   0  0  0  0  0  0  0  0  0  0  0  0
   -1.7337   -2.6290    0.5112 C   0  0  0  0  0  0  0  0  0  0  0  0
   -1.5145   -1.3119    0.9173 C   0  0  0  0  0  0  0  0  0  0  0  0
   -2.2812   -0.2911    0.3559 C   0  0  0  0  0  0  0  0  0  0  0  0
   -2.0655    1.1085    0.7750 C   0  0  0  0  0  0  0  0  0  0  0  0
   -2.8475    1.5813    1.6924 N   0  0  0  0  0  0  0  0  0  0  0  0
   -2.6690    2.9025    2.1126 C   0  0  0  0  0  0  0  0  0  0  0  0
   -3.5206    3.4191    3.0923 C   0  0  0  0  0  0  0  0  0  0  0  0
   -3.3725    4.7332    3.5449 C   0  0  0  0  0  0  0  0  0  0  0  0
   -2.3667    5.5438    3.0194 C   0  0  0  0  0  0  0  0  0  0  0  0
   -1.5107    5.0394    2.0411 C   0  0  0  0  0  0  0  0  0  0  0  0
   -1.6700    3.7215    1.5951 C   0  0  0  0  0  0  0  0  0  0  0  0
   -0.7864    3.1542    0.5638 C   0  0  0  0  0  0  0  0  0  0  0  0
    0.1327    3.8336    0.1125 O   0  0  0  0  0  0  0  0  0  0  0  0
   -1.0507    1.8435    0.1676 N   0  0  0  0  0  0  0  0  0  0  0  0
   -0.1784    1.2972   -0.8793 C   0  0  0  0  0  0  0  0  0  0  0  0
    1.1817    0.8494   -0.3355 C   0  0  0  0  0  0  0  0  0  0  0  0
    1.8254    0.0702   -1.3455 O   0  0  0  0  0  0  0  0  0  0  0  0
    2.9522   -0.6177   -0.9764 C   0  0  0  0  0  0  0  0  0  0  0  0
    3.7046   -0.3495    0.1732 C   0  0  0  0  0  0  0  0  0  0  0  0
    4.8450   -1.1074    0.4777 C   0  0  0  0  0  0  0  0  0  0  0  0
    5.6622   -0.7941    1.6967 C   0  0  0  0  0  0  0  0  0  0  0  0
    5.2457   -2.1187   -0.3994 C   0  0  0  0  0  0  0  0  0  0  0  0
    4.5090   -2.3828   -1.5544 C   0  0  0  0  0  0  0  0  0  0  0  0
    3.3604   -1.6371   -1.8538 C   0  0  0  0  0  0  0  0  0  0  0  0
    2.5763   -1.9403   -3.1000 C   0  0  0  0  0  0  0  0  0  0  0  0
   -3.2789   -0.5769   -0.5777 C   0  0  0  0  0  0  0  0  0  0  0  0
   -3.4936   -1.9001   -0.9768 C   0  0  0  0  0  0  0  0  0  0  0  0
   -3.6140   -4.1635   -2.6675 H   0  0  0  0  0  0  0  0  0  0  0  0
   -4.8197   -4.3769   -1.3381 H   0  0  0  0  0  0  0  0  0  0  0  0
   -3.7671   -5.7108   -1.8261 H   0  0  0  0  0  0  0  0  0  0  0  0
   -1.1375   -3.4313    0.9404 H   0  0  0  0  0  0  0  0  0  0  0  0
   -0.7586   -1.0943    1.6667 H   0  0  0  0  0  0  0  0  0  0  0  0
   -4.3043    2.7881    3.5044 H   0  0  0  0  0  0  0  0  0  0  0  0
   -4.0431    5.1213    4.3080 H   0  0  0  0  0  0  0  0  0  0  0  0
   -2.2501    6.5661    3.3709 H   0  0  0  0  0  0  0  0  0  0  0  0
   -0.7251    5.6683    1.6283 H   0  0  0  0  0  0  0  0  0  0  0  0
   -0.0194    2.0649   -1.6479 H   0  0  0  0  0  0  0  0  0  0  0  0
   -0.6658    0.4679   -1.4008 H   0  0  0  0  0  0  0  0  0  0  0  0
    1.0370    0.2491    0.5704 H   0  0  0  0  0  0  0  0  0  0  0  0
    1.7921    1.7271   -0.0935 H   0  0  0  0  0  0  0  0  0  0  0  0
    3.4296    0.4573    0.8461 H   0  0  0  0  0  0  0  0  0  0  0  0
    6.1372   -1.6994    2.0903 H   0  0  0  0  0  0  0  0  0  0  0  0
    6.4397   -0.0639    1.4489 H   0  0  0  0  0  0  0  0  0  0  0  0
    5.0333   -0.3850    2.4955 H   0  0  0  0  0  0  0  0  0  0  0  0
    6.1381   -2.7053   -0.1928 H   0  0  0  0  0  0  0  0  0  0  0  0
    4.8408   -3.1743   -2.2233 H   0  0  0  0  0  0  0  0  0  0  0  0
    2.5257   -1.0547   -3.7422 H   0  0  0  0  0  0  0  0  0  0  0  0
    1.5618   -2.2606   -2.8402 H   0  0  0  0  0  0  0  0  0  0  0  0
    3.0405   -2.7441   -3.6817 H   0  0  0  0  0  0  0  0  0  0  0  0
   -3.8901    0.2222   -0.9895 H   0  0  0  0  0  0  0  0  0  0  0  0
   -4.2754   -2.0931   -1.7042 H   0  0  0  0  0  0  0  0  0  0  0  0
  1  2  1  0
  2  3  1  0
  3  4  2  0
  4  5  1  0
  5  6  2  0
  6  7  1  0
  7  8  2  0
  8  9  1  0
  9 10  2  0
 10 11  1  0
 11 12  2  0
 12 13  1  0
 13 14  2  0
 14 15  1  0
 15 16  2  0
 15 17  1  0
 17 18  1  0
 18 19  1  0
 19 20  1  0
 20 21  1  0
 21 22  2  0
 22 23  1  0
 23 24  1  0
 23 25  2  0
 25 26  1  0
 26 27  2  0
 27 28  1  0
  6 29  1  0
 29 30  2  0
 30  3  1  0
 17  7  1  0
 27 21  1  0
 14  9  1  0
  1 31  1  0
  1 32  1  0
  1 33  1  0
  4 34  1  0
  5 35  1  0
 10 36  1  0
 11 37  1  0
 12 38  1  0
 13 39  1  0
 18 40  1  0
 18 41  1  0
 19 42  1  0
 19 43  1  0
 22 44  1  0
 24 45  1  0
 24 46  1  0
 24 47  1  0
 25 48  1  0
 26 49  1  0
 28 50  1  0
 28 51  1  0
 28 52  1  0
 29 53  1  0
 30 54  1  0
M  END
$$$$
