
     RDKit          3D

 46 49  0  0  0  0  0  0  0  0999 V2000
    2.8587    0.5690   -2.5937 O   0  0  0  0  0  0  0  0  0  0  0  0
    2.8214    1.1780   -1.5280 C   0  0  0  0  0  0  0  0  0  0  0  0
    1.5116    1.5532   -0.8431 C   0  0  0  0  0  0  0  0  0  0  0  0
    0.2420    0.2736   -1.0872 S   0  0  0  0  0  0  0  0  0  0  0  0
   -1.0416    0.9463   -0.1465 C   0  0  0  0  0  0  0  0  0  0  0  0
   -0.9318    1.9568    0.6811 N   0  0  0  0  0  0  0  0  0  0  0  0
   -2.1638    2.1745    1.2393 N   0  0  0  0  0  0  0  0  0  0  0  0
   -3.0061    1.2859    0.7461 C   0  0  0  0  0  0  0  0  0  0  0  0
   -4.4558    1.1792    1.0954 C   0  0  0  0  0  0  0  0  0  0  0  0
   -4.7592    0.0162    1.9973 C   0  0  0  0  0  0  0  0  0  0  0  0
   -4.0803   -0.4047    3.1260 C   0  0  0  0  0  0  0  0  0  0  0  0
   -4.6751   -1.5546    3.7215 C   0  0  0  0  0  0  0  0  0  0  0  0
   -5.7978   -1.9649    3.0395 C   0  0  0  0  0  0  0  0  0  0  0  0
   -6.1259   -0.9732    1.6860 S   0  0  0  0  0  0  0  0  0  0  0  0
   -2.3295    0.4828   -0.1493 N   0  0  0  0  0  0  0  0  0  0  0  0
   -2.8873   -0.5727   -0.9735 C   0  0  0  0  0  0  0  0  0  0  0  0
   -2.8370   -1.8979   -0.3075 C   0  0  0  0  0  0  0  0  0  0  0  0
   -1.9864   -2.5090    0.5941 C   0  0  0  0  0  0  0  0  0  0  0  0
   -2.5015   -3.8089    0.8169 C   0  0  0  0  0  0  0  0  0  0  0  0
   -3.6267   -3.9146    0.0345 C   0  0  0  0  0  0  0  0  0  0  0  0
   -3.8355   -2.7640   -0.6536 O   0  0  0  0  0  0  0  0  0  0  0  0
    3.9272    1.6412   -0.8217 N   0  0  0  0  0  0  0  0  0  0  0  0
    5.2894    1.4732   -1.1468 C   0  0  0  0  0  0  0  0  0  0  0  0
    5.7486    0.7736   -2.2652 C   0  0  0  0  0  0  0  0  0  0  0  0
    7.1208    0.6508   -2.5124 C   0  0  0  0  0  0  0  0  0  0  0  0
    8.0390    1.2281   -1.6397 C   0  0  0  0  0  0  0  0  0  0  0  0
    9.8920    1.0603   -1.9747 Br  0  0  0  0  0  0  0  0  0  0  0  0
    7.5979    1.9266   -0.5195 C   0  0  0  0  0  0  0  0  0  0  0  0
    6.2270    2.0490   -0.2767 C   0  0  0  0  0  0  0  0  0  0  0  0
    1.6808    1.6731    0.2327 H   0  0  0  0  0  0  0  0  0  0  0  0
    1.1718    2.5081   -1.2601 H   0  0  0  0  0  0  0  0  0  0  0  0
   -4.7615    2.0984    1.6129 H   0  0  0  0  0  0  0  0  0  0  0  0
   -5.0502    1.1403    0.1742 H   0  0  0  0  0  0  0  0  0  0  0  0
   -3.1918    0.0888    3.5061 H   0  0  0  0  0  0  0  0  0  0  0  0
   -4.2981   -2.0524    4.6058 H   0  0  0  0  0  0  0  0  0  0  0  0
   -6.4444   -2.8010    3.2694 H   0  0  0  0  0  0  0  0  0  0  0  0
   -3.9199   -0.2986   -1.2130 H   0  0  0  0  0  0  0  0  0  0  0  0
   -2.3482   -0.6027   -1.9255 H   0  0  0  0  0  0  0  0  0  0  0  0
   -1.1022   -2.0745    1.0407 H   0  0  0  0  0  0  0  0  0  0  0  0
   -2.1013   -4.5775    1.4639 H   0  0  0  0  0  0  0  0  0  0  0  0
   -4.3492   -4.7009   -0.1368 H   0  0  0  0  0  0  0  0  0  0  0  0
    3.7435    2.1613    0.0280 H   0  0  0  0  0  0  0  0  0  0  0  0
    5.0666    0.3040   -2.9678 H   0  0  0  0  0  0  0  0  0  0  0  0
    7.4553    0.1007   -3.3888 H   0  0  0  0  0  0  0  0  0  0  0  0
    8.3082    2.3786    0.1679 H   0  0  0  0  0  0  0  0  0  0  0  0
    5.9066    2.6009    0.6034 H   0  0  0  0  0  0  0  0  0  0  0  0
  1  2  2  0
  2  3  1  0
  3  4  1  0
  4  5  1  0
  5  6  2  0
  6  7  1  0
  7  8  2  0
  8  9  1  0
  9 10  1  0
 10 11  2  0
 11 12  1  0
 12 13  2  0
 13 14  1  0
  8 15  1  0
 15 16  1  0
 16 17  1  0
 17 18  2  0
 18 19  1  0
 19 20  2  0
 20 21  1  0
  2 22  1  0
 22 23  1  0
 23 24  2  0
 24 25  1  0
 25 26  2  0
 26 27  1  0
 26 28  1  0
 28 29  2  0
 15  5  1  0
 21 17  1  0
 29 23  1  0
 14 10  1  0
  3 30  1  0
  3 31  1  0
  9 32  1  0
  9 33  1  0
 11 34  1  0
 12 35  1  0
 13 36  1  0
 16 37  1  0
 16 38  1  0
 18 39  1  0
 19 40  1  0
 20 41  1  0
 22 42  1  0
 24 43  1  0
 25 44  1  0
 28 45  1  0
 29 46  1  0
M  END
$$$$
