
     RDKit          3D

 72 77  0  0  0  0  0  0  0  0999 V2000
   -6.2616   -1.6941   -1.7903 C   0  0  0  0  0  0  0  0  0  0  0  0
   -6.6862   -1.0332   -0.5128 C   0  0  0  0  0  0  0  0  0  0  0  0
   -7.6830   -1.5963    0.2833 C   0  0  0  0  0  0  0  0  0  0  0  0
   -8.0882   -0.9630    1.4595 C   0  0  0  0  0  0  0  0  0  0  0  0
   -7.5193    0.2566    1.8606 C   0  0  0  0  0  0  0  0  0  0  0  0
   -7.9859    0.8782    3.1497 C   0  0  0  0  0  0  0  0  0  0  0  0
   -6.5198    0.8443    1.0571 C   0  0  0  0  0  0  0  0  0  0  0  0
   -5.8362    2.1455    1.4199 C   0  0  0  0  0  0  0  0  0  0  0  0
   -4.6970    1.9360    2.2907 N   0  0  0  0  0  0  0  0  0  0  0  0
   -4.7774    2.1997    3.6198 N   0  0  0  0  0  0  0  0  0  0  0  0
   -3.5925    1.9217    4.1636 N   0  0  0  0  0  0  0  0  0  0  0  0
   -2.7710    1.5229    3.1564 C   0  0  0  0  0  0  0  0  0  0  0  0
   -1.3969    1.1034    3.1723 C   0  0  0  0  0  0  0  0  0  0  0  0
   -0.6738    1.0299    4.1596 O   0  0  0  0  0  0  0  0  0  0  0  0
   -0.9363    0.7714    1.9037 N   0  0  0  0  0  0  0  0  0  0  0  0
   -1.7013    0.8585    0.7458 C   0  0  0  0  0  0  0  0  0  0  0  0
   -1.0172    0.4562   -0.5523 C   0  0  0  0  0  0  0  0  0  0  0  0
   -0.6893   -1.0462   -0.5703 C   0  0  0  0  0  0  0  0  0  0  0  0
    0.6943   -1.3488   -1.1438 C   0  0  0  0  0  0  0  0  0  0  0  0
    0.8985   -0.5301   -2.3487 N   0  0  0  0  0  0  0  0  0  0  0  0
    1.9228   -1.1322   -3.5624 S   0  0  0  0  0  6  0  0  0  0  0  0
    1.6076   -2.5298   -3.7661 O   0  0  0  0  0  0  0  0  0  0  0  0
    1.9151   -0.1904   -4.6609 O   0  0  0  0  0  0  0  0  0  0  0  0
    3.5359   -1.0598   -2.8027 C   0  0  0  0  0  0  0  0  0  0  0  0
    4.0142   -2.1705   -2.0960 C   0  0  0  0  0  0  0  0  0  0  0  0
    5.2957   -2.1382   -1.5428 C   0  0  0  0  0  0  0  0  0  0  0  0
    6.0881   -0.9955   -1.7030 C   0  0  0  0  0  0  0  0  0  0  0  0
    7.7392   -0.9754   -1.0413 S   0  0  0  0  0  6  0  0  0  0  0  0
    8.2053   -2.3429   -0.9630 O   0  0  0  0  0  0  0  0  0  0  0  0
    8.4856    0.0531   -1.7318 O   0  0  0  0  0  0  0  0  0  0  0  0
    7.4313   -0.4872    0.5614 N   0  0  0  0  0  0  0  0  0  0  0  0
    8.2683    0.6243    1.0380 C   0  0  0  0  0  0  0  0  0  0  0  0
    8.4622    0.8495    2.5110 C   0  0  0  0  0  0  0  0  0  0  0  0
    9.6116    0.3852    1.6631 C   0  0  0  0  0  0  0  0  0  0  0  0
    5.6221    0.1037   -2.4333 C   0  0  0  0  0  0  0  0  0  0  0  0
    4.3428    0.0684   -2.9916 C   0  0  0  0  0  0  0  0  0  0  0  0
    0.8750    0.9366   -2.1499 C   0  0  0  0  0  0  0  0  0  0  0  0
    0.2202    1.3160   -0.8226 C   0  0  0  0  0  0  0  0  0  0  0  0
   -2.9458    1.2492    0.7210 N   0  0  0  0  0  0  0  0  0  0  0  0
   -3.4298    1.5521    1.9511 C   0  0  0  0  0  0  0  0  0  0  0  0
   -6.1212    0.1873   -0.1254 C   0  0  0  0  0  0  0  0  0  0  0  0
   -6.4441   -2.7731   -1.7551 H   0  0  0  0  0  0  0  0  0  0  0  0
   -5.1893   -1.5520   -1.9624 H   0  0  0  0  0  0  0  0  0  0  0  0
   -6.8169   -1.2708   -2.6332 H   0  0  0  0  0  0  0  0  0  0  0  0
   -8.1497   -2.5367   -0.0013 H   0  0  0  0  0  0  0  0  0  0  0  0
   -8.8587   -1.4348    2.0666 H   0  0  0  0  0  0  0  0  0  0  0  0
   -7.1920    0.8375    3.9009 H   0  0  0  0  0  0  0  0  0  0  0  0
   -8.8532    0.3474    3.5579 H   0  0  0  0  0  0  0  0  0  0  0  0
   -8.2955    1.9160    2.9913 H   0  0  0  0  0  0  0  0  0  0  0  0
   -5.4730    2.6588    0.5211 H   0  0  0  0  0  0  0  0  0  0  0  0
   -6.5251    2.8420    1.9090 H   0  0  0  0  0  0  0  0  0  0  0  0
    0.0224    0.4604    1.8814 H   0  0  0  0  0  0  0  0  0  0  0  0
   -1.7356    0.6501   -1.3623 H   0  0  0  0  0  0  0  0  0  0  0  0
   -0.7719   -1.5013    0.4235 H   0  0  0  0  0  0  0  0  0  0  0  0
   -1.4461   -1.5494   -1.1873 H   0  0  0  0  0  0  0  0  0  0  0  0
    0.7469   -2.4184   -1.3712 H   0  0  0  0  0  0  0  0  0  0  0  0
    1.4746   -1.1298   -0.4055 H   0  0  0  0  0  0  0  0  0  0  0  0
    3.4064   -3.0676   -1.9923 H   0  0  0  0  0  0  0  0  0  0  0  0
    5.6748   -3.0073   -1.0087 H   0  0  0  0  0  0  0  0  0  0  0  0
    7.5141   -1.3171    1.1550 H   0  0  0  0  0  0  0  0  0  0  0  0
    8.1526    1.5194    0.4296 H   0  0  0  0  0  0  0  0  0  0  0  0
    8.4737    1.8743    2.8667 H   0  0  0  0  0  0  0  0  0  0  0  0
    8.0271    0.1437    3.2083 H   0  0  0  0  0  0  0  0  0  0  0  0
    9.9578   -0.6348    1.7839 H   0  0  0  0  0  0  0  0  0  0  0  0
   10.4018    1.0940    1.4394 H   0  0  0  0  0  0  0  0  0  0  0  0
    6.2539    0.9770   -2.5864 H   0  0  0  0  0  0  0  0  0  0  0  0
    3.9915    0.9114   -3.5835 H   0  0  0  0  0  0  0  0  0  0  0  0
    0.3003    1.3801   -2.9715 H   0  0  0  0  0  0  0  0  0  0  0  0
    1.8841    1.3572   -2.1765 H   0  0  0  0  0  0  0  0  0  0  0  0
   -0.0443    2.3805   -0.8321 H   0  0  0  0  0  0  0  0  0  0  0  0
    0.9543    1.1969   -0.0156 H   0  0  0  0  0  0  0  0  0  0  0  0
   -5.3469    0.6306   -0.7515 H   0  0  0  0  0  0  0  0  0  0  0  0
  1  2  1  0
  2  3  2  0
  3  4  1  0
  4  5  2  0
  5  6  1  0
  5  7  1  0
  7  8  1  0
  8  9  1  0
  9 10  1  0
 10 11  2  0
 11 12  1  0
 12 13  1  0
 13 14  2  0
 13 15  1  0
 15 16  1  0
 16 17  1  0
 17 18  1  0
 18 19  1  0
 19 20  1  0
 20 21  1  0
 21 22  2  0
 21 23  2  0
 21 24  1  0
 24 25  2  0
 25 26  1  0
 26 27  2  0
 27 28  1  0
 28 29  2  0
 28 30  2  0
 28 31  1  0
 31 32  1  0
 32 33  1  0
 33 34  1  0
 27 35  1  0
 35 36  2  0
 20 37  1  0
 37 38  1  0
 16 39  2  0
 39 40  1  0
  7 41  2  0
 41  2  1  0
 40  9  1  0
 40 12  2  0
 38 17  1  0
 36 24  1  0
 34 32  1  0
  1 42  1  0
  1 43  1  0
  1 44  1  0
  3 45  1  0
  4 46  1  0
  6 47  1  0
  6 48  1  0
  6 49  1  0
  8 50  1  0
  8 51  1  0
 15 52  1  0
 17 53  1  0
 18 54  1  0
 18 55  1  0
 19 56  1  0
 19 57  1  0
 25 58  1  0
 26 59  1  0
 31 60  1  0
 32 61  1  0
 33 62  1  0
 33 63  1  0
 34 64  1  0
 34 65  1  0
 35 66  1  0
 36 67  1  0
 37 68  1  0
 37 69  1  0
 38 70  1  0
 38 71  1  0
 41 72  1  0
M  END
$$$$
