
     RDKit          3D

 27 27  0  0  0  0  0  0  0  0999 V2000
   -5.0613    0.9956   -1.1801 C   0  0  0  0  0  0  0  0  0  0  0  0
   -5.2269   -0.0026   -0.2996 C   0  0  0  0  0  0  0  0  0  0  0  0
   -4.1985   -0.6297    0.5926 C   0  0  0  0  0  0  0  0  0  0  0  0
   -2.8667   -0.3229    0.1508 N   0  0  0  0  0  0  0  0  0  0  0  0
   -1.7864   -0.4217    0.9959 C   0  0  0  0  0  0  0  0  0  0  0  0
   -1.8261   -0.6237    2.2015 O   0  0  0  0  0  0  0  0  0  0  0  0
   -0.4255   -0.2641    0.2874 C   0  0  0  0  0  0  0  0  0  0  0  0
   -0.3981   -0.1079   -0.9258 O   0  0  0  0  0  0  0  0  0  0  0  0
    0.6297   -0.3155    1.1817 N   0  0  0  0  0  0  0  0  0  0  0  0
    1.9549   -0.0764    0.9212 N   0  0  0  0  0  0  0  0  0  0  0  0
    2.4101   -0.2356   -0.2819 C   0  0  0  0  0  0  0  0  0  0  0  0
    3.7895    0.0436   -0.5731 C   0  0  0  0  0  0  0  0  0  0  0  0
    4.8303    0.5084    0.2077 C   0  0  0  0  0  0  0  0  0  0  0  0
    5.9661    0.5852   -0.6337 C   0  0  0  0  0  0  0  0  0  0  0  0
    5.5508    0.1632   -1.8743 C   0  0  0  0  0  0  0  0  0  0  0  0
    4.2341   -0.1680   -1.8487 O   0  0  0  0  0  0  0  0  0  0  0  0
   -5.9011    1.3613   -1.7640 H   0  0  0  0  0  0  0  0  0  0  0  0
   -4.1059    1.4879   -1.3315 H   0  0  0  0  0  0  0  0  0  0  0  0
   -6.2275   -0.4202   -0.1946 H   0  0  0  0  0  0  0  0  0  0  0  0
   -4.3411   -0.3040    1.6282 H   0  0  0  0  0  0  0  0  0  0  0  0
   -4.3023   -1.7197    0.5623 H   0  0  0  0  0  0  0  0  0  0  0  0
   -2.6568   -0.3129   -0.8434 H   0  0  0  0  0  0  0  0  0  0  0  0
    0.3783   -0.3250    2.1714 H   0  0  0  0  0  0  0  0  0  0  0  0
    1.8089   -0.6093   -1.1252 H   0  0  0  0  0  0  0  0  0  0  0  0
    4.7654    0.7592    1.2577 H   0  0  0  0  0  0  0  0  0  0  0  0
    6.9631    0.9082   -0.3694 H   0  0  0  0  0  0  0  0  0  0  0  0
    6.0432    0.0466   -2.8298 H   0  0  0  0  0  0  0  0  0  0  0  0
  1  2  2  0
  2  3  1  0
  3  4  1  0
  4  5  1  0
  5  6  2  0
  5  7  1  0
  7  8  2  0
  7  9  1  0
  9 10  1  0
 10 11  2  3
 11 12  1  0
 12 13  2  0
 13 14  1  0
 14 15  2  0
 15 16  1  0
 16 12  1  0
  1 17  1  0
  1 18  1  0
  2 19  1  0
  3 20  1  0
  3 21  1  0
  4 22  1  0
  9 23  1  0
 11 24  1  0
 13 25  1  0
 14 26  1  0
 15 27  1  0
M  END
$$$$
