
     RDKit          3D

 45 46  0  0  0  0  0  0  0  0999 V2000
    6.8524   -2.6380    1.3632 C   0  0  0  0  0  0  0  0  0  0  0  0
    5.6592   -2.7235    0.5925 O   0  0  0  0  0  0  0  0  0  0  0  0
    4.9079   -1.5853    0.4919 C   0  0  0  0  0  0  0  0  0  0  0  0
    3.7518   -1.7179   -0.2830 C   0  0  0  0  0  0  0  0  0  0  0  0
    2.8844   -0.6368   -0.4685 C   0  0  0  0  0  0  0  0  0  0  0  0
    3.1619    0.5936    0.1376 C   0  0  0  0  0  0  0  0  0  0  0  0
    2.2653    1.7648   -0.0259 C   0  0  0  0  0  0  0  0  0  0  0  0
    2.7408    2.8980    0.0364 O   0  0  0  0  0  0  0  0  0  0  0  0
    0.8066    1.6020   -0.2456 C   0  0  0  0  0  0  0  0  0  0  0  0
    0.0652    0.6739    0.3787 C   0  0  0  0  0  0  0  0  0  0  0  0
   -1.3878    0.5415    0.1940 C   0  0  0  0  0  0  0  0  0  0  0  0
   -1.9382   -0.7466    0.1090 C   0  0  0  0  0  0  0  0  0  0  0  0
   -3.3150   -0.9246   -0.0476 C   0  0  0  0  0  0  0  0  0  0  0  0
   -3.9402   -2.1402   -0.1527 O   0  0  0  0  0  0  0  0  0  0  0  0
   -3.1720   -3.2989    0.1403 C   0  0  0  0  0  0  0  0  0  0  0  0
   -4.1404    0.2094   -0.1265 C   0  0  0  0  0  0  0  0  0  0  0  0
   -5.5037    0.0428   -0.2402 O   0  0  0  0  0  0  0  0  0  0  0  0
   -5.8752    0.0326   -1.6173 C   0  0  0  0  0  0  0  0  0  0  0  0
   -3.6135    1.5058   -0.0028 C   0  0  0  0  0  0  0  0  0  0  0  0
   -4.5162    2.5363   -0.0604 O   0  0  0  0  0  0  0  0  0  0  0  0
   -4.0429    3.8406    0.2459 C   0  0  0  0  0  0  0  0  0  0  0  0
   -2.2337    1.6609    0.1537 C   0  0  0  0  0  0  0  0  0  0  0  0
    4.3424    0.7305    0.8822 C   0  0  0  0  0  0  0  0  0  0  0  0
    4.7240    1.9143    1.4597 O   0  0  0  0  0  0  0  0  0  0  0  0
    5.2033   -0.3526    1.0721 C   0  0  0  0  0  0  0  0  0  0  0  0
    7.5533   -1.9188    0.9267 H   0  0  0  0  0  0  0  0  0  0  0  0
    6.6311   -2.3926    2.4072 H   0  0  0  0  0  0  0  0  0  0  0  0
    7.3315   -3.6216    1.3469 H   0  0  0  0  0  0  0  0  0  0  0  0
    3.5301   -2.6742   -0.7528 H   0  0  0  0  0  0  0  0  0  0  0  0
    2.0108   -0.7740   -1.0998 H   0  0  0  0  0  0  0  0  0  0  0  0
    0.3692    2.3554   -0.8930 H   0  0  0  0  0  0  0  0  0  0  0  0
    0.5136   -0.0398    1.0665 H   0  0  0  0  0  0  0  0  0  0  0  0
   -1.2707   -1.6012    0.1550 H   0  0  0  0  0  0  0  0  0  0  0  0
   -3.8451   -4.1613    0.1164 H   0  0  0  0  0  0  0  0  0  0  0  0
   -2.4003   -3.4589   -0.6196 H   0  0  0  0  0  0  0  0  0  0  0  0
   -2.7351   -3.2451    1.1431 H   0  0  0  0  0  0  0  0  0  0  0  0
   -5.4034   -0.7986   -2.1527 H   0  0  0  0  0  0  0  0  0  0  0  0
   -5.6320    0.9832   -2.1044 H   0  0  0  0  0  0  0  0  0  0  0  0
   -6.9594   -0.1050   -1.6700 H   0  0  0  0  0  0  0  0  0  0  0  0
   -4.9022    4.5180    0.2401 H   0  0  0  0  0  0  0  0  0  0  0  0
   -3.3389    4.1907   -0.5159 H   0  0  0  0  0  0  0  0  0  0  0  0
   -3.5966    3.8778    1.2453 H   0  0  0  0  0  0  0  0  0  0  0  0
   -1.7979    2.6493    0.2559 H   0  0  0  0  0  0  0  0  0  0  0  0
    4.1593    2.6288    1.0870 H   0  0  0  0  0  0  0  0  0  0  0  0
    6.0963   -0.1949    1.6674 H   0  0  0  0  0  0  0  0  0  0  0  0
  1  2  1  0
  2  3  1  0
  3  4  2  0
  4  5  1  0
  5  6  2  0
  6  7  1  0
  7  8  2  0
  7  9  1  0
  9 10  2  0
 10 11  1  0
 11 12  2  0
 12 13  1  0
 13 14  1  0
 14 15  1  0
 13 16  2  0
 16 17  1  0
 17 18  1  0
 16 19  1  0
 19 20  1  0
 20 21  1  0
 19 22  2  0
  6 23  1  0
 23 24  1  0
 23 25  2  0
 25  3  1  0
 22 11  1  0
  1 26  1  0
  1 27  1  0
  1 28  1  0
  4 29  1  0
  5 30  1  0
  9 31  1  0
 10 32  1  0
 12 33  1  0
 15 34  1  0
 15 35  1  0
 15 36  1  0
 18 37  1  0
 18 38  1  0
 18 39  1  0
 21 40  1  0
 21 41  1  0
 21 42  1  0
 22 43  1  0
 24 44  1  0
 25 45  1  0
M  END
$$$$
