
     RDKit          3D

 49 51  0  0  0  0  0  0  0  0999 V2000
    3.9385   -0.5727    1.2424 O   0  0  0  0  0  0  0  0  0  0  0  0
    3.5870   -0.0952    0.1727 C   0  0  0  0  0  0  0  0  0  0  0  0
    4.2503   -0.1959   -1.0265 N   0  0  0  0  0  0  0  0  0  0  0  0
    5.3935   -1.0523   -1.2040 C   0  0  0  0  0  0  0  0  0  0  0  0
    4.9810   -2.3906   -1.7585 C   0  0  0  0  0  0  0  0  0  0  0  0
    4.5703   -3.4178   -0.8964 C   0  0  0  0  0  0  0  0  0  0  0  0
    4.1650   -4.6516   -1.4071 C   0  0  0  0  0  0  0  0  0  0  0  0
    4.1593   -4.8689   -2.7835 C   0  0  0  0  0  0  0  0  0  0  0  0
    4.5549   -3.8520   -3.6507 C   0  0  0  0  0  0  0  0  0  0  0  0
    4.9606   -2.6168   -3.1421 C   0  0  0  0  0  0  0  0  0  0  0  0
    2.2658    0.7015    0.0765 C   0  0  0  0  0  0  0  0  0  0  0  0
    1.8663    1.1055   -1.0061 O   0  0  0  0  0  0  0  0  0  0  0  0
    1.6237    0.8617    1.2815 N   0  0  0  0  0  0  0  0  0  0  0  0
    0.2809    1.4109    1.3622 C   0  0  0  0  0  0  0  0  0  0  0  0
   -0.8033    0.4733    0.7961 C   0  0  0  0  0  0  0  0  0  0  0  0
   -0.7433   -0.7889    1.4948 O   0  0  0  0  0  0  0  0  0  0  0  0
   -2.0595   -1.3298    1.3754 C   0  0  0  0  0  0  0  0  0  0  0  0
   -2.9513   -0.1291    1.5965 C   0  0  0  0  0  0  0  0  0  0  0  0
   -2.1633    1.0034    1.0625 N   0  0  0  0  0  0  0  0  0  0  0  0
   -2.8177    1.8546   -0.2409 S   0  0  0  0  0  6  0  0  0  0  0  0
   -3.2332    0.8788   -1.2258 O   0  0  0  0  0  0  0  0  0  0  0  0
   -1.9174    2.9350   -0.5732 O   0  0  0  0  0  0  0  0  0  0  0  0
   -4.2702    2.5845    0.4763 C   0  0  0  0  0  0  0  0  0  0  0  0
   -4.1181    3.5371    1.4897 C   0  0  0  0  0  0  0  0  0  0  0  0
   -5.2508    4.1178    2.0622 C   0  0  0  0  0  0  0  0  0  0  0  0
   -6.5199    3.7464    1.6148 C   0  0  0  0  0  0  0  0  0  0  0  0
   -8.0529    4.5334    2.3926 Br  0  0  0  0  0  0  0  0  0  0  0  0
   -6.6696    2.8020    0.5972 C   0  0  0  0  0  0  0  0  0  0  0  0
   -5.5400    2.2177    0.0209 C   0  0  0  0  0  0  0  0  0  0  0  0
    3.7513    0.1464   -1.8427 H   0  0  0  0  0  0  0  0  0  0  0  0
    6.0787   -0.5484   -1.8945 H   0  0  0  0  0  0  0  0  0  0  0  0
    5.9252   -1.1810   -0.2543 H   0  0  0  0  0  0  0  0  0  0  0  0
    4.5607   -3.2562    0.1804 H   0  0  0  0  0  0  0  0  0  0  0  0
    3.8503   -5.4414   -0.7299 H   0  0  0  0  0  0  0  0  0  0  0  0
    3.8421   -5.8295   -3.1807 H   0  0  0  0  0  0  0  0  0  0  0  0
    4.5444   -4.0202   -4.7246 H   0  0  0  0  0  0  0  0  0  0  0  0
    5.2598   -1.8319   -3.8330 H   0  0  0  0  0  0  0  0  0  0  0  0
    1.9819    0.3035    2.0527 H   0  0  0  0  0  0  0  0  0  0  0  0
    0.2721    2.3702    0.8348 H   0  0  0  0  0  0  0  0  0  0  0  0
    0.0962    1.6052    2.4247 H   0  0  0  0  0  0  0  0  0  0  0  0
   -0.6406    0.2641   -0.2677 H   0  0  0  0  0  0  0  0  0  0  0  0
   -2.2155   -2.1179    2.1165 H   0  0  0  0  0  0  0  0  0  0  0  0
   -2.1806   -1.7504    0.3707 H   0  0  0  0  0  0  0  0  0  0  0  0
   -3.9321   -0.2630    1.1347 H   0  0  0  0  0  0  0  0  0  0  0  0
   -3.1008    0.0513    2.6668 H   0  0  0  0  0  0  0  0  0  0  0  0
   -3.1265    3.8293    1.8293 H   0  0  0  0  0  0  0  0  0  0  0  0
   -5.1350    4.8590    2.8493 H   0  0  0  0  0  0  0  0  0  0  0  0
   -7.6589    2.5201    0.2446 H   0  0  0  0  0  0  0  0  0  0  0  0
   -5.6589    1.4887   -0.7779 H   0  0  0  0  0  0  0  0  0  0  0  0
  1  2  2  0
  2  3  1  0
  3  4  1  0
  4  5  1  0
  5  6  2  0
  6  7  1  0
  7  8  2  0
  8  9  1  0
  9 10  2  0
  2 11  1  0
 11 12  2  0
 11 13  1  0
 13 14  1  0
 14 15  1  0
 15 16  1  0
 16 17  1  0
 17 18  1  0
 18 19  1  0
 19 20  1  0
 20 21  2  0
 20 22  2  0
 20 23  1  0
 23 24  2  0
 24 25  1  0
 25 26  2  0
 26 27  1  0
 26 28  1  0
 28 29  2  0
 10  5  1  0
 19 15  1  0
 29 23  1  0
  3 30  1  0
  4 31  1  0
  4 32  1  0
  6 33  1  0
  7 34  1  0
  8 35  1  0
  9 36  1  0
 10 37  1  0
 13 38  1  0
 14 39  1  0
 14 40  1  0
 15 41  1  0
 17 42  1  0
 17 43  1  0
 18 44  1  0
 18 45  1  0
 24 46  1  0
 25 47  1  0
 28 48  1  0
 29 49  1  0
M  END
$$$$
