
     RDKit          3D

 41 43  0  0  0  0  0  0  0  0999 V2000
   -3.2622   -2.5255    2.4480 C   0  0  0  0  0  0  0  0  0  0  0  0
   -3.0496   -1.5566    1.3232 C   0  0  0  0  0  0  0  0  0  0  0  0
   -3.2086   -1.9617   -0.0021 C   0  0  0  0  0  0  0  0  0  0  0  0
   -3.0554   -1.0466   -1.0471 C   0  0  0  0  0  0  0  0  0  0  0  0
   -2.7378    0.3013   -0.8022 C   0  0  0  0  0  0  0  0  0  0  0  0
   -2.6159    1.2188   -1.9850 C   0  0  0  0  0  0  0  0  0  0  0  0
   -2.5733    0.7061    0.5344 C   0  0  0  0  0  0  0  0  0  0  0  0
   -2.1529    2.3772    1.0262 S   0  0  0  0  0  6  0  0  0  0  0  0
   -2.8718    2.6512    2.2546 O   0  0  0  0  0  0  0  0  0  0  0  0
   -2.2558    3.2758   -0.1013 O   0  0  0  0  0  0  0  0  0  0  0  0
   -0.5237    2.2355    1.4720 N   0  0  0  0  0  0  0  0  0  0  0  0
    0.4058    1.7278    0.5231 C   0  0  0  0  0  0  0  0  0  0  0  0
    0.7743    2.4963   -0.5783 C   0  0  0  0  0  0  0  0  0  0  0  0
    1.6508    1.9722   -1.5268 C   0  0  0  0  0  0  0  0  0  0  0  0
    2.1557    0.6827   -1.3695 C   0  0  0  0  0  0  0  0  0  0  0  0
    3.0114    0.2517   -2.3462 O   0  0  0  0  0  0  0  0  0  0  0  0
    1.7871   -0.1061   -0.2701 C   0  0  0  0  0  0  0  0  0  0  0  0
    2.3101   -1.8001   -0.0483 S   0  0  0  0  0  0  0  0  0  0  0  0
    4.0240   -1.6158    0.1854 C   0  0  0  0  0  0  0  0  0  0  0  0
    4.6509   -1.8134    1.3822 N   0  0  0  0  0  0  0  0  0  0  0  0
    5.9101   -1.5782    1.0975 C   0  0  0  0  0  0  0  0  0  0  0  0
    6.0269   -1.2575   -0.2181 N   0  0  0  0  0  0  0  0  0  0  0  0
    4.8290   -1.2770   -0.8302 N   0  0  0  0  0  0  0  0  0  0  0  0
    0.9033    0.4315    0.6764 C   0  0  0  0  0  0  0  0  0  0  0  0
   -2.7500   -0.2163    1.5853 C   0  0  0  0  0  0  0  0  0  0  0  0
   -4.3108   -2.5117    2.7608 H   0  0  0  0  0  0  0  0  0  0  0  0
   -2.6324   -2.2701    3.3067 H   0  0  0  0  0  0  0  0  0  0  0  0
   -2.9972   -3.5433    2.1429 H   0  0  0  0  0  0  0  0  0  0  0  0
   -3.4618   -2.9941   -0.2355 H   0  0  0  0  0  0  0  0  0  0  0  0
   -3.1934   -1.4000   -2.0682 H   0  0  0  0  0  0  0  0  0  0  0  0
   -1.6310    1.6894   -2.0167 H   0  0  0  0  0  0  0  0  0  0  0  0
   -2.7288    0.6723   -2.9283 H   0  0  0  0  0  0  0  0  0  0  0  0
   -3.4035    1.9779   -1.9625 H   0  0  0  0  0  0  0  0  0  0  0  0
   -0.4270    1.9334    2.4398 H   0  0  0  0  0  0  0  0  0  0  0  0
    0.3813    3.5022   -0.7075 H   0  0  0  0  0  0  0  0  0  0  0  0
    1.9398    2.5670   -2.3892 H   0  0  0  0  0  0  0  0  0  0  0  0
    3.5396   -0.4911   -1.9822 H   0  0  0  0  0  0  0  0  0  0  0  0
    6.7494   -1.6240    1.7771 H   0  0  0  0  0  0  0  0  0  0  0  0
    6.8587   -1.0229   -0.7496 H   0  0  0  0  0  0  0  0  0  0  0  0
    0.5899   -0.1717    1.5247 H   0  0  0  0  0  0  0  0  0  0  0  0
   -2.6552    0.1134    2.6192 H   0  0  0  0  0  0  0  0  0  0  0  0
  1  2  1  0
  2  3  2  0
  3  4  1  0
  4  5  2  0
  5  6  1  0
  5  7  1  0
  7  8  1  0
  8  9  2  0
  8 10  2  0
  8 11  1  0
 11 12  1  0
 12 13  2  0
 13 14  1  0
 14 15  2  0
 15 16  1  0
 15 17  1  0
 17 18  1  0
 18 19  1  0
 19 20  1  0
 20 21  2  0
 21 22  1  0
 22 23  1  0
 17 24  2  0
  7 25  2  0
 25  2  1  0
 24 12  1  0
 23 19  2  0
  1 26  1  0
  1 27  1  0
  1 28  1  0
  3 29  1  0
  4 30  1  0
  6 31  1  0
  6 32  1  0
  6 33  1  0
 11 34  1  0
 13 35  1  0
 14 36  1  0
 16 37  1  0
 21 38  1  0
 22 39  1  0
 24 40  1  0
 25 41  1  0
M  END
$$$$
