
     RDKit          3D

 40 42  0  0  0  0  0  0  0  0999 V2000
   -1.2837    4.0386    2.9211 C   0  0  0  0  0  0  0  0  0  0  0  0
   -2.1624    3.1258    3.5640 O   0  0  0  0  0  0  0  0  0  0  0  0
   -2.1714    1.8366    3.1033 C   0  0  0  0  0  0  0  0  0  0  0  0
   -3.0373    0.9872    3.7890 C   0  0  0  0  0  0  0  0  0  0  0  0
   -3.1644   -0.3616    3.4457 C   0  0  0  0  0  0  0  0  0  0  0  0
   -2.3903   -0.8431    2.3805 C   0  0  0  0  0  0  0  0  0  0  0  0
   -1.5127   -0.0211    1.6665 C   0  0  0  0  0  0  0  0  0  0  0  0
   -1.4063    1.3412    2.0411 C   0  0  0  0  0  0  0  0  0  0  0  0
   -0.8967   -0.8342    0.6607 C   0  0  0  0  0  0  0  0  0  0  0  0
    0.0656   -0.4052   -0.3083 C   0  0  0  0  0  0  0  0  0  0  0  0
    0.7262   -1.1994   -1.1687 C   0  0  0  0  0  0  0  0  0  0  0  0
    1.7067   -0.7071   -2.1420 C   0  0  0  0  0  0  0  0  0  0  0  0
    1.4705    0.4214   -2.9255 C   0  0  0  0  0  0  0  0  0  0  0  0
    2.4220    0.8263   -3.8550 C   0  0  0  0  0  0  0  0  0  0  0  0
    3.5735    0.1351   -4.0075 N   0  0  0  0  0  4  0  0  0  0  0  0
    4.5619    0.5794   -5.0051 C   0  0  0  0  0  0  0  0  0  0  0  0
    3.8145   -0.9747   -3.2745 C   0  0  0  0  0  0  0  0  0  0  0  0
    2.8896   -1.4176   -2.3356 C   0  0  0  0  0  0  0  0  0  0  0  0
   -1.4088   -2.1079    0.7896 C   0  0  0  0  0  0  0  0  0  0  0  0
   -2.3051   -2.1025    1.8271 N   0  0  0  0  0  0  0  0  0  0  0  0
   -3.0564   -3.2552    2.2747 C   0  0  0  0  0  0  0  0  0  0  0  0
   -0.2400    3.7255    3.0298 H   0  0  0  0  0  0  0  0  0  0  0  0
   -1.3925    5.0105    3.4120 H   0  0  0  0  0  0  0  0  0  0  0  0
   -1.5502    4.1664    1.8668 H   0  0  0  0  0  0  0  0  0  0  0  0
   -3.6290    1.3814    4.6132 H   0  0  0  0  0  0  0  0  0  0  0  0
   -3.8444   -1.0047    3.9951 H   0  0  0  0  0  0  0  0  0  0  0  0
   -0.7255    1.9783    1.4922 H   0  0  0  0  0  0  0  0  0  0  0  0
    0.2725    0.6624   -0.3180 H   0  0  0  0  0  0  0  0  0  0  0  0
    0.5680   -2.2755   -1.1566 H   0  0  0  0  0  0  0  0  0  0  0  0
    0.5433    0.9837   -2.8297 H   0  0  0  0  0  0  0  0  0  0  0  0
    2.2681    1.6976   -4.4854 H   0  0  0  0  0  0  0  0  0  0  0  0
    5.5611    0.2773   -4.6806 H   0  0  0  0  0  0  0  0  0  0  0  0
    4.5223    1.6689   -5.0859 H   0  0  0  0  0  0  0  0  0  0  0  0
    4.3018    0.1075   -5.9558 H   0  0  0  0  0  0  0  0  0  0  0  0
    4.7477   -1.5035   -3.4483 H   0  0  0  0  0  0  0  0  0  0  0  0
    3.1021   -2.3127   -1.7531 H   0  0  0  0  0  0  0  0  0  0  0  0
   -1.2217   -3.0173    0.2347 H   0  0  0  0  0  0  0  0  0  0  0  0
   -4.1219   -3.0350    2.1702 H   0  0  0  0  0  0  0  0  0  0  0  0
   -2.7964   -4.1223    1.6623 H   0  0  0  0  0  0  0  0  0  0  0  0
   -2.8003   -3.4503    3.3191 H   0  0  0  0  0  0  0  0  0  0  0  0
  1  2  1  0
  2  3  1  0
  3  4  2  0
  4  5  1  0
  5  6  2  0
  6  7  1  0
  7  8  2  0
  7  9  1  0
  9 10  1  0
 10 11  2  3
 11 12  1  0
 12 13  2  0
 13 14  1  0
 14 15  2  0
 15 16  1  0
 15 17  1  0
 17 18  2  0
  9 19  2  0
 19 20  1  0
 20 21  1  0
  8  3  1  0
 18 12  1  0
 20  6  1  0
  1 22  1  0
  1 23  1  0
  1 24  1  0
  4 25  1  0
  5 26  1  0
  8 27  1  0
 10 28  1  0
 11 29  1  0
 13 30  1  0
 14 31  1  0
 16 32  1  0
 16 33  1  0
 16 34  1  0
 17 35  1  0
 18 36  1  0
 19 37  1  0
 21 38  1  0
 21 39  1  0
 21 40  1  0
M  CHG  1  15   1
M  END
$$$$
