
     RDKit          3D

 33 34  0  0  0  0  0  0  0  0999 V2000
   -6.6241    0.4369    0.4921 N   0  0  0  0  0  0  0  0  0  0  0  0
   -5.2417    0.6186    0.3866 C   0  0  0  0  0  0  0  0  0  0  0  0
   -4.5411    1.2870    1.3930 C   0  0  0  0  0  0  0  0  0  0  0  0
   -3.1451    1.3701    1.3583 C   0  0  0  0  0  0  0  0  0  0  0  0
   -2.4256    0.7449    0.3334 C   0  0  0  0  0  0  0  0  0  0  0  0
   -0.9420    0.8599    0.3427 C   0  0  0  0  0  0  0  0  0  0  0  0
   -0.3194    1.4841    1.1873 O   0  0  0  0  0  0  0  0  0  0  0  0
   -0.4030    0.1790   -0.6995 O   0  0  0  0  0  0  0  0  0  0  0  0
    1.0308    0.2323   -0.7976 C   0  0  0  0  0  0  0  0  0  0  0  0
    1.6684   -0.8197    0.1083 C   0  0  0  0  0  0  0  0  0  0  0  0
    3.1694   -0.8351   -0.0168 C   0  0  0  0  0  0  0  0  0  0  0  0
    3.8032   -1.7163   -0.9024 C   0  0  0  0  0  0  0  0  0  0  0  0
    5.1933   -1.7118   -1.0286 C   0  0  0  0  0  0  0  0  0  0  0  0
    5.9604   -0.8251   -0.2750 C   0  0  0  0  0  0  0  0  0  0  0  0
    5.3387    0.0587    0.6051 C   0  0  0  0  0  0  0  0  0  0  0  0
    3.9491    0.0558    0.7331 C   0  0  0  0  0  0  0  0  0  0  0  0
   -3.1202    0.0238   -0.6446 C   0  0  0  0  0  0  0  0  0  0  0  0
   -4.5172   -0.0528   -0.6014 C   0  0  0  0  0  0  0  0  0  0  0  0
   -7.0839    0.2320   -0.3895 H   0  0  0  0  0  0  0  0  0  0  0  0
   -7.0989    1.1681    1.0126 H   0  0  0  0  0  0  0  0  0  0  0  0
   -5.0761    1.7524    2.2170 H   0  0  0  0  0  0  0  0  0  0  0  0
   -2.6236    1.9138    2.1438 H   0  0  0  0  0  0  0  0  0  0  0  0
    1.2814    0.0309   -1.8455 H   0  0  0  0  0  0  0  0  0  0  0  0
    1.3970    1.2435   -0.5792 H   0  0  0  0  0  0  0  0  0  0  0  0
    1.3882   -0.6485    1.1551 H   0  0  0  0  0  0  0  0  0  0  0  0
    1.2584   -1.8096   -0.1303 H   0  0  0  0  0  0  0  0  0  0  0  0
    3.2187   -2.4132   -1.4987 H   0  0  0  0  0  0  0  0  0  0  0  0
    5.6782   -2.4005   -1.7153 H   0  0  0  0  0  0  0  0  0  0  0  0
    7.0426   -0.8225   -0.3734 H   0  0  0  0  0  0  0  0  0  0  0  0
    5.9356    0.7514    1.1926 H   0  0  0  0  0  0  0  0  0  0  0  0
    3.4760    0.7529    1.4224 H   0  0  0  0  0  0  0  0  0  0  0  0
   -2.5917   -0.4958   -1.4396 H   0  0  0  0  0  0  0  0  0  0  0  0
   -5.0358   -0.6450   -1.3513 H   0  0  0  0  0  0  0  0  0  0  0  0
  1  2  1  0
  2  3  2  0
  3  4  1  0
  4  5  2  0
  5  6  1  0
  6  7  2  0
  6  8  1  0
  8  9  1  0
  9 10  1  0
 10 11  1  0
 11 12  2  0
 12 13  1  0
 13 14  2  0
 14 15  1  0
 15 16  2  0
  5 17  1  0
 17 18  2  0
 18  2  1  0
 16 11  1  0
  1 19  1  0
  1 20  1  0
  3 21  1  0
  4 22  1  0
  9 23  1  0
  9 24  1  0
 10 25  1  0
 10 26  1  0
 12 27  1  0
 13 28  1  0
 14 29  1  0
 15 30  1  0
 16 31  1  0
 17 32  1  0
 18 33  1  0
M  END
$$$$
