
     RDKit          3D

 35 37  0  0  0  0  0  0  0  0999 V2000
   -1.5263   -1.8251    2.6995 C   0  0  0  0  0  0  0  0  0  0  0  0
   -1.7546   -0.9739    1.4522 C   0  0  0  0  0  0  0  0  0  0  0  0
   -3.0381   -1.3331    0.9346 O   0  0  0  0  0  0  0  0  0  0  0  0
   -3.6316   -0.2751    0.3034 C   0  0  0  0  0  0  0  0  0  0  0  0
   -3.4656   -0.1082   -1.0698 C   0  0  0  0  0  0  0  0  0  0  0  0
   -4.0928    0.9580   -1.7159 C   0  0  0  0  0  0  0  0  0  0  0  0
   -4.8943    1.8342   -0.9834 C   0  0  0  0  0  0  0  0  0  0  0  0
   -5.7451    3.2787   -1.8574 Br  0  0  0  0  0  0  0  0  0  0  0  0
   -5.0813    1.6496    0.3874 C   0  0  0  0  0  0  0  0  0  0  0  0
   -4.4526    0.5839    1.0330 C   0  0  0  0  0  0  0  0  0  0  0  0
   -0.5922   -1.2136    0.4602 C   0  0  0  0  0  0  0  0  0  0  0  0
   -0.7248   -1.9002   -0.5476 O   0  0  0  0  0  0  0  0  0  0  0  0
    0.5695   -0.5737    0.8513 N   0  0  0  0  0  0  0  0  0  0  0  0
    1.7208   -0.6481    0.1159 C   0  0  0  0  0  0  0  0  0  0  0  0
    1.9826   -1.2806   -1.0010 N   0  0  0  0  0  0  0  0  0  0  0  0
    3.2930   -1.0852   -1.4050 N   0  0  0  0  0  0  0  0  0  0  0  0
    3.9450   -0.3078   -0.5703 C   0  0  0  0  0  0  0  0  0  0  0  0
    5.4433    0.0685   -0.7825 C   0  0  0  0  0  0  0  0  0  0  0  0
    5.9252    0.4023   -2.1716 C   0  0  0  0  0  0  0  0  0  0  0  0
    5.8072    1.4870   -1.1414 C   0  0  0  0  0  0  0  0  0  0  0  0
    3.0313    0.2321    0.7725 S   0  0  0  0  0  0  0  0  0  0  0  0
   -2.3402   -1.6783    3.4177 H   0  0  0  0  0  0  0  0  0  0  0  0
   -0.5794   -1.5829    3.1919 H   0  0  0  0  0  0  0  0  0  0  0  0
   -1.5140   -2.8911    2.4447 H   0  0  0  0  0  0  0  0  0  0  0  0
   -1.7376    0.0831    1.7557 H   0  0  0  0  0  0  0  0  0  0  0  0
   -2.8560   -0.8071   -1.6384 H   0  0  0  0  0  0  0  0  0  0  0  0
   -3.9567    1.0885   -2.7862 H   0  0  0  0  0  0  0  0  0  0  0  0
   -5.7194    2.3212    0.9553 H   0  0  0  0  0  0  0  0  0  0  0  0
   -4.6097    0.4206    2.0950 H   0  0  0  0  0  0  0  0  0  0  0  0
    0.6029   -0.0101    1.6867 H   0  0  0  0  0  0  0  0  0  0  0  0
    6.1290   -0.4827   -0.1481 H   0  0  0  0  0  0  0  0  0  0  0  0
    5.2071    0.3879   -2.9848 H   0  0  0  0  0  0  0  0  0  0  0  0
    6.9168    0.0691   -2.4552 H   0  0  0  0  0  0  0  0  0  0  0  0
    5.0162    2.2168   -1.2723 H   0  0  0  0  0  0  0  0  0  0  0  0
    6.7224    1.8952   -0.7282 H   0  0  0  0  0  0  0  0  0  0  0  0
  1  2  1  0
  2  3  1  0
  3  4  1  0
  4  5  2  0
  5  6  1  0
  6  7  2  0
  7  8  1  0
  7  9  1  0
  9 10  2  0
  2 11  1  0
 11 12  2  0
 11 13  1  0
 13 14  1  0
 14 15  2  0
 15 16  1  0
 16 17  2  0
 17 18  1  0
 18 19  1  0
 19 20  1  0
 17 21  1  0
 10  4  1  0
 21 14  1  0
 20 18  1  0
  1 22  1  0
  1 23  1  0
  1 24  1  0
  2 25  1  0
  5 26  1  0
  6 27  1  0
  9 28  1  0
 10 29  1  0
 13 30  1  0
 18 31  1  0
 19 32  1  0
 19 33  1  0
 20 34  1  0
 20 35  1  0
M  END
$$$$
