
     RDKit          3D

 60 64  0  0  0  0  0  0  0  0999 V2000
   -0.3571    3.2750    1.3335 C   0  0  0  0  0  0  0  0  0  0  0  0
   -1.3792    2.4225    0.7328 N   0  0  0  0  0  0  0  0  0  0  0  0
   -2.5471    2.2257    1.4720 C   0  0  0  0  0  0  0  0  0  0  0  0
   -2.7142    2.7480    2.5786 O   0  0  0  0  0  0  0  0  0  0  0  0
   -3.6064    1.3083    0.9368 C   0  0  0  0  0  0  0  0  0  0  0  0
   -4.4085    0.7127    1.8408 C   0  0  0  0  0  0  0  0  0  0  0  0
   -5.5330   -0.1817    1.5467 C   0  0  0  0  0  0  0  0  0  0  0  0
   -6.8428    0.2925    1.6650 C   0  0  0  0  0  0  0  0  0  0  0  0
   -7.9239   -0.5483    1.3865 C   0  0  0  0  0  0  0  0  0  0  0  0
   -7.7104   -1.8750    0.9820 C   0  0  0  0  0  0  0  0  0  0  0  0
   -8.8784   -2.7876    0.6981 C   0  0  0  0  0  0  0  0  0  0  0  0
   -9.9623   -2.1307    0.1984 F   0  0  0  0  0  0  0  0  0  0  0  0
   -8.5870   -3.7634   -0.2076 F   0  0  0  0  0  0  0  0  0  0  0  0
   -9.3142   -3.4333    1.8148 F   0  0  0  0  0  0  0  0  0  0  0  0
   -6.3929   -2.3481    0.8804 C   0  0  0  0  0  0  0  0  0  0  0  0
   -5.3120   -1.5068    1.1587 C   0  0  0  0  0  0  0  0  0  0  0  0
   -3.8139    1.1657   -0.7622 S   0  0  0  0  0  0  0  0  0  0  0  0
   -2.1149    1.1601   -1.2633 C   0  0  0  0  0  0  0  0  0  0  0  0
   -1.8242    0.5541   -2.4990 C   0  0  0  0  0  0  0  0  0  0  0  0
   -0.5260    0.5460   -3.0017 C   0  0  0  0  0  0  0  0  0  0  0  0
    0.4900    1.1422   -2.2626 C   0  0  0  0  0  0  0  0  0  0  0  0
    1.8633    1.1509   -2.8123 C   0  0  0  0  0  0  0  0  0  0  0  0
    2.0207    1.5994   -3.9445 O   0  0  0  0  0  0  0  0  0  0  0  0
    2.9024    0.6671   -2.0290 N   0  0  0  0  0  0  0  0  0  0  0  0
    4.2714    0.8109   -2.5351 C   0  0  0  0  0  0  0  0  0  0  0  0
    5.3262    0.6353   -1.4320 C   0  0  0  0  0  0  0  0  0  0  0  0
    5.1939   -0.6860   -0.7935 N   0  0  0  0  0  0  0  0  0  0  0  0
    6.1304   -0.9726    0.1956 C   0  0  0  0  0  0  0  0  0  0  0  0
    6.2352   -2.2570    0.7341 C   0  0  0  0  0  0  0  0  0  0  0  0
    7.1912   -2.5340    1.7117 C   0  0  0  0  0  0  0  0  0  0  0  0
    8.0388   -1.5232    2.1328 C   0  0  0  0  0  0  0  0  0  0  0  0
    7.8929   -0.2808    1.5484 C   0  0  0  0  0  0  0  0  0  0  0  0
    6.9715    0.0048    0.6004 N   0  0  0  0  0  0  0  0  0  0  0  0
    3.8327   -1.2293   -0.6589 C   0  0  0  0  0  0  0  0  0  0  0  0
    2.7469   -0.1435   -0.8121 C   0  0  0  0  0  0  0  0  0  0  0  0
    0.2041    1.7791   -1.0473 C   0  0  0  0  0  0  0  0  0  0  0  0
   -1.1005    1.7847   -0.5196 C   0  0  0  0  0  0  0  0  0  0  0  0
    0.4605    2.6480    1.7034 H   0  0  0  0  0  0  0  0  0  0  0  0
    0.0115    3.9925    0.5931 H   0  0  0  0  0  0  0  0  0  0  0  0
   -0.7446    3.8546    2.1765 H   0  0  0  0  0  0  0  0  0  0  0  0
   -4.2583    0.8882    2.9055 H   0  0  0  0  0  0  0  0  0  0  0  0
   -7.0307    1.3204    1.9692 H   0  0  0  0  0  0  0  0  0  0  0  0
   -8.9373   -0.1604    1.4824 H   0  0  0  0  0  0  0  0  0  0  0  0
   -6.2022   -3.3773    0.5791 H   0  0  0  0  0  0  0  0  0  0  0  0
   -4.2992   -1.8934    1.0690 H   0  0  0  0  0  0  0  0  0  0  0  0
   -2.6166    0.0945   -3.0880 H   0  0  0  0  0  0  0  0  0  0  0  0
   -0.3120    0.0891   -3.9654 H   0  0  0  0  0  0  0  0  0  0  0  0
    4.4066    0.0499   -3.3136 H   0  0  0  0  0  0  0  0  0  0  0  0
    4.3791    1.7935   -3.0082 H   0  0  0  0  0  0  0  0  0  0  0  0
    6.3212    0.7407   -1.8816 H   0  0  0  0  0  0  0  0  0  0  0  0
    5.1958    1.4318   -0.6872 H   0  0  0  0  0  0  0  0  0  0  0  0
    5.5974   -3.0588    0.3789 H   0  0  0  0  0  0  0  0  0  0  0  0
    7.2757   -3.5338    2.1268 H   0  0  0  0  0  0  0  0  0  0  0  0
    8.7979   -1.6990    2.8860 H   0  0  0  0  0  0  0  0  0  0  0  0
    8.5332    0.5491    1.8315 H   0  0  0  0  0  0  0  0  0  0  0  0
    3.6716   -1.7230    0.3066 H   0  0  0  0  0  0  0  0  0  0  0  0
    3.6953   -1.9863   -1.4403 H   0  0  0  0  0  0  0  0  0  0  0  0
    2.8043    0.5501    0.0353 H   0  0  0  0  0  0  0  0  0  0  0  0
    1.7611   -0.6181   -0.7959 H   0  0  0  0  0  0  0  0  0  0  0  0
    1.0270    2.2641   -0.5310 H   0  0  0  0  0  0  0  0  0  0  0  0
  1  2  1  0
  2  3  1  0
  3  4  2  0
  3  5  1  0
  5  6  2  3
  6  7  1  0
  7  8  2  0
  8  9  1  0
  9 10  2  0
 10 11  1  0
 11 12  1  0
 11 13  1  0
 11 14  1  0
 10 15  1  0
 15 16  2  0
  5 17  1  0
 17 18  1  0
 18 19  2  0
 19 20  1  0
 20 21  2  0
 21 22  1  0
 22 23  2  0
 22 24  1  0
 24 25  1  0
 25 26  1  0
 26 27  1  0
 27 28  1  0
 28 29  2  0
 29 30  1  0
 30 31  2  0
 31 32  1  0
 32 33  2  0
 27 34  1  0
 34 35  1  0
 21 36  1  0
 36 37  2  0
 37  2  1  0
 16  7  1  0
 37 18  1  0
 35 24  1  0
 33 28  1  0
  1 38  1  0
  1 39  1  0
  1 40  1  0
  6 41  1  0
  8 42  1  0
  9 43  1  0
 15 44  1  0
 16 45  1  0
 19 46  1  0
 20 47  1  0
 25 48  1  0
 25 49  1  0
 26 50  1  0
 26 51  1  0
 29 52  1  0
 30 53  1  0
 31 54  1  0
 32 55  1  0
 34 56  1  0
 34 57  1  0
 35 58  1  0
 35 59  1  0
 36 60  1  0
M  END
$$$$
