
     RDKit          3D

 37 38  0  0  0  0  0  0  0  0999 V2000
    5.8373    0.4422    1.5548 C   0  0  0  0  0  0  0  0  0  0  0  0
    4.6693    1.2260    0.9839 C   0  0  0  0  0  0  0  0  0  0  0  0
    3.6062    0.3589    0.5150 N   0  0  0  0  0  0  0  0  0  0  0  0
    2.4847   -0.0022    1.1997 C   0  0  0  0  0  0  0  0  0  0  0  0
    1.7732   -0.8441    0.3677 C   0  0  0  0  0  0  0  0  0  0  0  0
    0.4784   -1.5141    0.6422 C   0  0  0  0  0  0  0  0  0  0  0  0
   -0.5824   -0.5790    0.3499 N   0  0  0  0  0  0  0  0  0  0  0  0
   -1.8891   -0.9129    0.6214 C   0  0  0  0  0  0  0  0  0  0  0  0
   -2.2188   -1.9603    1.1644 O   0  0  0  0  0  0  0  0  0  0  0  0
   -2.9285    0.0590    0.1842 C   0  0  0  0  0  0  0  0  0  0  0  0
   -2.6587    1.4312    0.0726 C   0  0  0  0  0  0  0  0  0  0  0  0
   -3.6620    2.3159   -0.3319 C   0  0  0  0  0  0  0  0  0  0  0  0
   -4.9413    1.8388   -0.6202 C   0  0  0  0  0  0  0  0  0  0  0  0
   -5.2138    0.4693   -0.4947 C   0  0  0  0  0  0  0  0  0  0  0  0
   -6.5610   -0.0315   -0.7938 N   0  0  0  0  0  4  0  0  0  0  0  0
   -6.7344   -1.2578   -0.7933 O   0  0  0  0  0  0  0  0  0  0  0  0
   -7.4439    0.8039   -1.0355 O   0  0  0  0  0  1  0  0  0  0  0  0
   -4.2148   -0.4242   -0.0895 C   0  0  0  0  0  0  0  0  0  0  0  0
    2.5633   -0.9158   -0.8136 C   0  0  0  0  0  0  0  0  0  0  0  0
    2.2878   -1.6853   -2.0529 C   0  0  0  0  0  0  0  0  0  0  0  0
    3.6686   -0.1672   -0.7194 N   0  0  0  0  0  0  0  0  0  0  0  0
    6.2751   -0.2207    0.8010 H   0  0  0  0  0  0  0  0  0  0  0  0
    5.5201   -0.1777    2.4002 H   0  0  0  0  0  0  0  0  0  0  0  0
    6.6182    1.1242    1.9046 H   0  0  0  0  0  0  0  0  0  0  0  0
    4.2460    1.8911    1.7444 H   0  0  0  0  0  0  0  0  0  0  0  0
    4.9907    1.8446    0.1387 H   0  0  0  0  0  0  0  0  0  0  0  0
    2.2887    0.3498    2.2030 H   0  0  0  0  0  0  0  0  0  0  0  0
    0.3402   -2.4024    0.0165 H   0  0  0  0  0  0  0  0  0  0  0  0
    0.4039   -1.8244    1.6903 H   0  0  0  0  0  0  0  0  0  0  0  0
   -0.3797    0.1629   -0.3055 H   0  0  0  0  0  0  0  0  0  0  0  0
   -1.6798    1.8324    0.3242 H   0  0  0  0  0  0  0  0  0  0  0  0
   -3.4486    3.3800   -0.4130 H   0  0  0  0  0  0  0  0  0  0  0  0
   -5.7116    2.5418   -0.9326 H   0  0  0  0  0  0  0  0  0  0  0  0
   -4.4217   -1.4885    0.0162 H   0  0  0  0  0  0  0  0  0  0  0  0
    1.2949   -1.4391   -2.4427 H   0  0  0  0  0  0  0  0  0  0  0  0
    2.3225   -2.7599   -1.8476 H   0  0  0  0  0  0  0  0  0  0  0  0
    3.0209   -1.4653   -2.8358 H   0  0  0  0  0  0  0  0  0  0  0  0
  1  2  1  0
  2  3  1  0
  3  4  1  0
  4  5  2  0
  5  6  1  0
  6  7  1  0
  7  8  1  0
  8  9  2  0
  8 10  1  0
 10 11  2  0
 11 12  1  0
 12 13  2  0
 13 14  1  0
 14 15  1  0
 15 16  2  0
 15 17  1  0
 14 18  2  0
  5 19  1  0
 19 20  1  0
 19 21  2  0
 21  3  1  0
 18 10  1  0
  1 22  1  0
  1 23  1  0
  1 24  1  0
  2 25  1  0
  2 26  1  0
  4 27  1  0
  6 28  1  0
  6 29  1  0
  7 30  1  0
 11 31  1  0
 12 32  1  0
 13 33  1  0
 18 34  1  0
 20 35  1  0
 20 36  1  0
 20 37  1  0
M  CHG  2  15   1  17  -1
M  END
$$$$
