
     RDKit          3D

 46 48  0  0  0  0  0  0  0  0999 V2000
   -2.8643   -2.4898    1.5985 C   0  0  0  0  0  0  0  0  0  0  0  0
   -2.3286   -1.4545    0.6287 C   0  0  0  0  0  0  0  0  0  0  0  0
   -2.7626   -0.0978    0.9843 N   0  0  0  0  0  4  0  0  0  0  0  0
   -2.0000    0.7443    1.6666 C   0  0  0  0  0  0  0  0  0  0  0  0
   -0.6857    0.5054    2.1373 C   0  0  0  0  0  0  0  0  0  0  0  0
    0.3441    0.6641    1.2907 C   0  0  0  0  0  0  0  0  0  0  0  0
    1.6972    0.2866    1.6100 C   0  0  0  0  0  0  0  0  0  0  0  0
    2.7067    0.0122    0.7685 C   0  0  0  0  0  0  0  0  0  0  0  0
    2.7409   -0.0964   -0.6277 N   0  0  0  0  0  0  0  0  0  0  0  0
    1.5894   -0.3807   -1.3926 C   0  0  0  0  0  0  0  0  0  0  0  0
    1.5702    0.1787   -2.8055 C   0  0  0  0  0  0  0  0  0  0  0  0
    0.5885   -0.9784   -0.9802 O   0  0  0  0  0  0  0  0  0  0  0  0
    4.0390   -0.1050   -1.2708 C   0  0  0  0  0  0  0  0  0  0  0  0
    4.3367   -0.9998   -2.3111 C   0  0  0  0  0  0  0  0  0  0  0  0
    5.5982   -0.9995   -2.9152 C   0  0  0  0  0  0  0  0  0  0  0  0
    6.5790   -0.1115   -2.4859 C   0  0  0  0  0  0  0  0  0  0  0  0
    6.3066    0.7704   -1.4434 C   0  0  0  0  0  0  0  0  0  0  0  0
    5.0485    0.7685   -0.8354 C   0  0  0  0  0  0  0  0  0  0  0  0
   -2.7994    2.2362    1.9240 S   0  0  0  0  0  0  0  0  0  0  0  0
   -4.1727    1.7327    1.0103 C   0  0  0  0  0  0  0  0  0  0  0  0
   -5.3353    2.4578    0.7022 C   0  0  0  0  0  0  0  0  0  0  0  0
   -6.3243    1.8257   -0.0481 C   0  0  0  0  0  0  0  0  0  0  0  0
   -6.1714    0.5065   -0.4670 C   0  0  0  0  0  0  0  0  0  0  0  0
   -5.0092   -0.2117   -0.1531 C   0  0  0  0  0  0  0  0  0  0  0  0
   -3.9921    0.4194    0.5898 C   0  0  0  0  0  0  0  0  0  0  0  0
   -2.5138   -3.4832    1.3103 H   0  0  0  0  0  0  0  0  0  0  0  0
   -2.5171   -2.2864    2.6139 H   0  0  0  0  0  0  0  0  0  0  0  0
   -3.9584   -2.4981    1.6083 H   0  0  0  0  0  0  0  0  0  0  0  0
   -1.2375   -1.5246    0.6149 H   0  0  0  0  0  0  0  0  0  0  0  0
   -2.6563   -1.6778   -0.3887 H   0  0  0  0  0  0  0  0  0  0  0  0
   -0.5492    0.1110    3.1383 H   0  0  0  0  0  0  0  0  0  0  0  0
    0.1729    1.0564    0.2882 H   0  0  0  0  0  0  0  0  0  0  0  0
    1.9361    0.2628    2.6732 H   0  0  0  0  0  0  0  0  0  0  0  0
    3.6754   -0.1593    1.2393 H   0  0  0  0  0  0  0  0  0  0  0  0
    0.5712    0.5799   -3.0037 H   0  0  0  0  0  0  0  0  0  0  0  0
    1.7789   -0.6187   -3.5302 H   0  0  0  0  0  0  0  0  0  0  0  0
    2.2704    1.0080   -2.9281 H   0  0  0  0  0  0  0  0  0  0  0  0
    3.6162   -1.7399   -2.6424 H   0  0  0  0  0  0  0  0  0  0  0  0
    5.8196   -1.6995   -3.7182 H   0  0  0  0  0  0  0  0  0  0  0  0
    7.5589   -0.1108   -2.9570 H   0  0  0  0  0  0  0  0  0  0  0  0
    7.0749    1.4650   -1.1062 H   0  0  0  0  0  0  0  0  0  0  0  0
    4.8615    1.4842   -0.0406 H   0  0  0  0  0  0  0  0  0  0  0  0
   -5.4701    3.4864    1.0337 H   0  0  0  0  0  0  0  0  0  0  0  0
   -7.2346    2.3713   -0.3026 H   0  0  0  0  0  0  0  0  0  0  0  0
   -6.9658    0.0317   -1.0404 H   0  0  0  0  0  0  0  0  0  0  0  0
   -4.9325   -1.2424   -0.4895 H   0  0  0  0  0  0  0  0  0  0  0  0
  1  2  1  0
  2  3  1  0
  3  4  2  0
  4  5  1  0
  5  6  2  3
  6  7  1  0
  7  8  2  3
  8  9  1  0
  9 10  1  0
 10 11  1  0
 10 12  2  0
  9 13  1  0
 13 14  2  0
 14 15  1  0
 15 16  2  0
 16 17  1  0
 17 18  2  0
  4 19  1  0
 19 20  1  0
 20 21  2  0
 21 22  1  0
 22 23  2  0
 23 24  1  0
 24 25  2  0
 25  3  1  0
 18 13  1  0
 25 20  1  0
  1 26  1  0
  1 27  1  0
  1 28  1  0
  2 29  1  0
  2 30  1  0
  5 31  1  0
  6 32  1  0
  7 33  1  0
  8 34  1  0
 11 35  1  0
 11 36  1  0
 11 37  1  0
 14 38  1  0
 15 39  1  0
 16 40  1  0
 17 41  1  0
 18 42  1  0
 21 43  1  0
 22 44  1  0
 23 45  1  0
 24 46  1  0
M  CHG  1   3   1
M  END
$$$$
