
     RDKit          3D

 58 62  0  0  0  0  0  0  0  0999 V2000
    6.1785    0.4296    2.8006 C   0  0  0  0  0  0  0  0  0  0  0  0
    6.1892   -0.0143    1.3629 C   0  0  0  0  0  0  0  0  0  0  0  0
    7.2232   -1.0618    1.0534 C   0  0  0  0  0  0  0  0  0  0  0  0
    5.3453    0.4796    0.4393 C   0  0  0  0  0  0  0  0  0  0  0  0
    4.2159    1.5207    0.5491 C   0  0  0  0  0  0  0  0  0  0  0  0
    4.8029    2.5165   -0.4818 C   0  0  0  0  0  0  0  0  0  0  0  0
    5.4513    1.5914   -1.5704 C   0  0  0  0  0  0  0  0  0  0  0  0
    5.1726    0.1576   -1.0536 C   0  0  0  0  0  0  0  0  0  0  0  0
    3.6930   -0.0702   -1.0948 C   0  0  0  0  0  0  0  0  0  0  0  0
    3.1154    0.7622   -0.1198 C   0  0  0  0  0  0  0  0  0  0  0  0
    1.7654    0.5904   -0.1332 C   0  0  0  0  0  0  0  0  0  0  0  0
    0.8352    1.1871    0.6153 O   0  0  0  0  0  0  0  0  0  0  0  0
    1.4762   -0.3839   -1.1273 N   0  0  0  0  0  0  0  0  0  0  0  0
    0.1637   -0.8205   -1.4020 C   0  0  0  0  0  0  0  0  0  0  0  0
   -0.8721   -0.3430   -0.7383 N   0  0  0  0  0  0  0  0  0  0  0  0
   -2.0352   -0.9332   -1.2133 C   0  0  0  0  0  0  0  0  0  0  0  0
   -3.3210   -0.5672   -0.6382 C   0  0  0  0  0  0  0  0  0  0  0  0
   -4.4151   -0.2323   -1.4428 C   0  0  0  0  0  0  0  0  0  0  0  0
   -5.6378    0.1235   -0.8640 C   0  0  0  0  0  0  0  0  0  0  0  0
   -5.7886    0.1613    0.5296 C   0  0  0  0  0  0  0  0  0  0  0  0
   -7.1250    0.5545    1.1341 C   0  0  0  0  0  0  0  0  0  0  0  0
   -7.7150   -0.5757    1.9805 C   0  0  0  0  0  0  0  0  0  0  0  0
   -7.0155    1.8458    1.9478 C   0  0  0  0  0  0  0  0  0  0  0  0
   -4.6832   -0.1590    1.3310 C   0  0  0  0  0  0  0  0  0  0  0  0
   -3.4611   -0.5149    0.7528 C   0  0  0  0  0  0  0  0  0  0  0  0
   -1.8502   -1.8832   -2.2067 C   0  0  0  0  0  0  0  0  0  0  0  0
   -2.8260   -2.7587   -2.9129 C   0  0  0  0  0  0  0  0  0  0  0  0
   -0.1759   -1.9820   -2.5901 S   0  0  0  0  0  0  0  0  0  0  0  0
    2.7040   -0.7755   -1.7183 C   0  0  0  0  0  0  0  0  0  0  0  0
    2.7915   -1.6745   -2.6938 O   0  0  0  0  0  0  0  0  0  0  0  0
    5.4404    1.2084    3.0050 H   0  0  0  0  0  0  0  0  0  0  0  0
    7.1594    0.8293    3.0786 H   0  0  0  0  0  0  0  0  0  0  0  0
    5.9531   -0.4187    3.4550 H   0  0  0  0  0  0  0  0  0  0  0  0
    7.0441   -1.9579    1.6570 H   0  0  0  0  0  0  0  0  0  0  0  0
    8.2244   -0.6834    1.2849 H   0  0  0  0  0  0  0  0  0  0  0  0
    7.2250   -1.3676    0.0045 H   0  0  0  0  0  0  0  0  0  0  0  0
    3.9848    1.9296    1.5305 H   0  0  0  0  0  0  0  0  0  0  0  0
    5.5715    3.1537   -0.0280 H   0  0  0  0  0  0  0  0  0  0  0  0
    4.0355    3.1629   -0.9225 H   0  0  0  0  0  0  0  0  0  0  0  0
    5.0086    1.7737   -2.5560 H   0  0  0  0  0  0  0  0  0  0  0  0
    6.5279    1.7897   -1.6344 H   0  0  0  0  0  0  0  0  0  0  0  0
    5.7851   -0.6311   -1.4853 H   0  0  0  0  0  0  0  0  0  0  0  0
   -0.0431    0.8345    0.3457 H   0  0  0  0  0  0  0  0  0  0  0  0
   -4.3261   -0.2263   -2.5261 H   0  0  0  0  0  0  0  0  0  0  0  0
   -6.4714    0.3800   -1.5145 H   0  0  0  0  0  0  0  0  0  0  0  0
   -7.8338    0.7476    0.3179 H   0  0  0  0  0  0  0  0  0  0  0  0
   -8.7144   -0.3066    2.3394 H   0  0  0  0  0  0  0  0  0  0  0  0
   -7.8062   -1.4964    1.3941 H   0  0  0  0  0  0  0  0  0  0  0  0
   -7.0968   -0.7980    2.8563 H   0  0  0  0  0  0  0  0  0  0  0  0
   -8.0016    2.1596    2.3072 H   0  0  0  0  0  0  0  0  0  0  0  0
   -6.6071    2.6587    1.3380 H   0  0  0  0  0  0  0  0  0  0  0  0
   -6.3660    1.7259    2.8211 H   0  0  0  0  0  0  0  0  0  0  0  0
   -4.7591   -0.1304    2.4158 H   0  0  0  0  0  0  0  0  0  0  0  0
   -2.6169   -0.7533    1.3970 H   0  0  0  0  0  0  0  0  0  0  0  0
   -2.3484   -3.6541   -3.3247 H   0  0  0  0  0  0  0  0  0  0  0  0
   -3.2948   -2.2154   -3.7393 H   0  0  0  0  0  0  0  0  0  0  0  0
   -3.6117   -3.0977   -2.2303 H   0  0  0  0  0  0  0  0  0  0  0  0
    3.7360   -1.7870   -2.9018 H   0  0  0  0  0  0  0  0  0  0  0  0
  1  2  1  0
  2  3  1  0
  2  4  2  3
  4  5  1  0
  5  6  1  0
  6  7  1  0
  7  8  1  0
  8  9  1  0
  9 10  1  0
 10 11  2  0
 11 12  1  0
 11 13  1  0
 13 14  1  0
 14 15  2  0
 15 16  1  0
 16 17  1  0
 17 18  2  0
 18 19  1  0
 19 20  2  0
 20 21  1  0
 21 22  1  0
 21 23  1  0
 20 24  1  0
 24 25  2  0
 16 26  2  0
 26 27  1  0
 26 28  1  0
 13 29  1  0
 29 30  1  0
  8  4  1  0
 29  9  2  0
 10  5  1  0
 28 14  1  0
 25 17  1  0
  1 31  1  0
  1 32  1  0
  1 33  1  0
  3 34  1  0
  3 35  1  0
  3 36  1  0
  5 37  1  0
  6 38  1  0
  6 39  1  0
  7 40  1  0
  7 41  1  0
  8 42  1  0
 12 43  1  0
 18 44  1  0
 19 45  1  0
 21 46  1  0
 22 47  1  0
 22 48  1  0
 22 49  1  0
 23 50  1  0
 23 51  1  0
 23 52  1  0
 24 53  1  0
 25 54  1  0
 27 55  1  0
 27 56  1  0
 27 57  1  0
 30 58  1  0
M  END
$$$$
