
     RDKit          3D

 56 60  0  0  0  0  0  0  0  0999 V2000
   -5.5075   -1.1474    0.7682 C   0  0  0  0  0  0  0  0  0  0  0  0
   -4.9184   -1.5432   -0.4859 N   0  0  0  0  0  0  0  0  0  0  0  0
   -4.6040   -2.8107   -0.8887 C   0  0  0  0  0  0  0  0  0  0  0  0
   -4.8770   -4.2372    0.0467 S   0  0  0  0  0  0  0  0  0  0  0  0
   -3.4422   -5.2378   -0.4670 C   0  0  0  0  0  0  0  0  0  0  0  0
   -2.1488   -4.6221    0.0553 C   0  0  0  0  0  0  0  0  0  0  0  0
   -1.6966   -4.9456    1.1513 O   0  0  0  0  0  0  0  0  0  0  0  0
   -1.6016   -3.6863   -0.8082 N   0  0  0  0  0  0  0  0  0  0  0  0
   -0.4640   -2.8800   -0.6052 C   0  0  0  0  0  0  0  0  0  0  0  0
   -0.2283   -1.8835   -1.5570 C   0  0  0  0  0  0  0  0  0  0  0  0
    0.8582   -1.0087   -1.4380 C   0  0  0  0  0  0  0  0  0  0  0  0
    1.7307   -1.1298   -0.3417 C   0  0  0  0  0  0  0  0  0  0  0  0
    2.8288   -0.3262   -0.0865 N   0  0  0  0  0  0  0  0  0  0  0  0
    3.4142   -0.7204    1.0192 C   0  0  0  0  0  0  0  0  0  0  0  0
    4.8200    0.1030    1.6585 S   0  0  0  0  0  0  0  0  0  0  0  0
    5.2459    1.1596    0.2413 C   0  0  0  0  0  0  0  0  0  0  0  0
    6.4056    2.0681    0.5997 C   0  0  0  0  0  0  0  0  0  0  0  0
    7.4678    2.0510   -0.0179 O   0  0  0  0  0  0  0  0  0  0  0  0
    6.1345    2.9493    1.6330 N   0  0  0  0  0  0  0  0  0  0  0  0
    7.1244    3.8329    2.1588 C   0  0  0  0  0  0  0  0  0  0  0  0
    6.8671    4.6088    3.4211 C   0  0  0  0  0  0  0  0  0  0  0  0
    7.8601    3.4841    3.4223 C   0  0  0  0  0  0  0  0  0  0  0  0
    2.7051   -2.0565    1.8161 S   0  0  0  0  0  0  0  0  0  0  0  0
    1.4920   -2.1362    0.5948 C   0  0  0  0  0  0  0  0  0  0  0  0
    0.4054   -3.0245    0.4809 C   0  0  0  0  0  0  0  0  0  0  0  0
   -3.9756   -2.7742   -2.0395 N   0  0  0  0  0  0  0  0  0  0  0  0
   -3.8508   -1.4588   -2.3985 N   0  0  0  0  0  0  0  0  0  0  0  0
   -4.4504   -0.7117   -1.4846 C   0  0  0  0  0  0  0  0  0  0  0  0
   -4.5328    0.7468   -1.5142 C   0  0  0  0  0  0  0  0  0  0  0  0
   -3.3819    1.4944   -1.8034 C   0  0  0  0  0  0  0  0  0  0  0  0
   -3.4299    2.8896   -1.8338 C   0  0  0  0  0  0  0  0  0  0  0  0
   -4.6313    3.5506   -1.5838 C   0  0  0  0  0  0  0  0  0  0  0  0
   -5.7869    2.8183   -1.3170 C   0  0  0  0  0  0  0  0  0  0  0  0
   -5.7404    1.4220   -1.2880 C   0  0  0  0  0  0  0  0  0  0  0  0
   -6.5938   -1.1807    0.6601 H   0  0  0  0  0  0  0  0  0  0  0  0
   -5.1838   -1.8220    1.5638 H   0  0  0  0  0  0  0  0  0  0  0  0
   -5.1812   -0.1397    1.0333 H   0  0  0  0  0  0  0  0  0  0  0  0
   -3.5405   -6.2417   -0.0403 H   0  0  0  0  0  0  0  0  0  0  0  0
   -3.4090   -5.3525   -1.5555 H   0  0  0  0  0  0  0  0  0  0  0  0
   -2.1723   -3.4370   -1.6189 H   0  0  0  0  0  0  0  0  0  0  0  0
   -0.8983   -1.7607   -2.4075 H   0  0  0  0  0  0  0  0  0  0  0  0
    1.0276   -0.2353   -2.1806 H   0  0  0  0  0  0  0  0  0  0  0  0
    4.3979    1.7877   -0.0534 H   0  0  0  0  0  0  0  0  0  0  0  0
    5.5367    0.5339   -0.6085 H   0  0  0  0  0  0  0  0  0  0  0  0
    5.2953    2.7873    2.1777 H   0  0  0  0  0  0  0  0  0  0  0  0
    7.6962    4.3422    1.3847 H   0  0  0  0  0  0  0  0  0  0  0  0
    5.9334    4.4589    3.9486 H   0  0  0  0  0  0  0  0  0  0  0  0
    7.2490    5.6220    3.4756 H   0  0  0  0  0  0  0  0  0  0  0  0
    8.9144    3.7299    3.4709 H   0  0  0  0  0  0  0  0  0  0  0  0
    7.5967    2.5670    3.9352 H   0  0  0  0  0  0  0  0  0  0  0  0
    0.2657   -3.7890    1.2369 H   0  0  0  0  0  0  0  0  0  0  0  0
   -2.4395    0.9893   -2.0073 H   0  0  0  0  0  0  0  0  0  0  0  0
   -2.5301    3.4583   -2.0551 H   0  0  0  0  0  0  0  0  0  0  0  0
   -4.6686    4.6369   -1.6100 H   0  0  0  0  0  0  0  0  0  0  0  0
   -6.7273    3.3355   -1.1392 H   0  0  0  0  0  0  0  0  0  0  0  0
   -6.6600    0.8718   -1.1050 H   0  0  0  0  0  0  0  0  0  0  0  0
  1  2  1  0
  2  3  1  0
  3  4  1  0
  4  5  1  0
  5  6  1  0
  6  7  2  0
  6  8  1  0
  8  9  1  0
  9 10  2  0
 10 11  1  0
 11 12  2  0
 12 13  1  0
 13 14  2  0
 14 15  1  0
 15 16  1  0
 16 17  1  0
 17 18  2  0
 17 19  1  0
 19 20  1  0
 20 21  1  0
 21 22  1  0
 14 23  1  0
 23 24  1  0
 24 25  2  0
  3 26  2  0
 26 27  1  0
 27 28  2  0
 28 29  1  0
 29 30  2  0
 30 31  1  0
 31 32  2  0
 32 33  1  0
 33 34  2  0
 28  2  1  0
 34 29  1  0
 25  9  1  0
 24 12  1  0
 22 20  1  0
  1 35  1  0
  1 36  1  0
  1 37  1  0
  5 38  1  0
  5 39  1  0
  8 40  1  0
 10 41  1  0
 11 42  1  0
 16 43  1  0
 16 44  1  0
 19 45  1  0
 20 46  1  0
 21 47  1  0
 21 48  1  0
 22 49  1  0
 22 50  1  0
 25 51  1  0
 30 52  1  0
 31 53  1  0
 32 54  1  0
 33 55  1  0
 34 56  1  0
M  END
$$$$
