
     RDKit          3D

 55 58  0  0  0  0  0  0  0  0999 V2000
    6.5037   -0.1192    3.0678 C   0  0  0  0  0  0  0  0  0  0  0  0
    5.1281   -0.3696    2.4814 C   0  0  0  0  0  0  0  0  0  0  0  0
    5.1844   -0.0904    1.0765 O   0  0  0  0  0  0  0  0  0  0  0  0
    4.0081   -0.2563    0.4234 C   0  0  0  0  0  0  0  0  0  0  0  0
    2.9585   -0.6175    0.9380 O   0  0  0  0  0  0  0  0  0  0  0  0
    4.1409    0.0642   -1.0310 C   0  0  0  0  0  0  0  0  0  0  0  0
    5.3970    0.4192   -1.5589 C   0  0  0  0  0  0  0  0  0  0  0  0
    5.5394    0.7188   -2.9123 C   0  0  0  0  0  0  0  0  0  0  0  0
    4.4320    0.6657   -3.7493 C   0  0  0  0  0  0  0  0  0  0  0  0
    3.1785    0.3143   -3.2395 C   0  0  0  0  0  0  0  0  0  0  0  0
    3.0090    0.0109   -1.8823 C   0  0  0  0  0  0  0  0  0  0  0  0
    1.7452   -0.3504   -1.3482 N   0  0  0  0  0  0  0  0  0  0  0  0
    0.5296   -0.4266   -1.9919 C   0  0  0  0  0  0  0  0  0  0  0  0
    0.2868   -0.1482   -3.1597 O   0  0  0  0  0  0  0  0  0  0  0  0
   -0.5761   -0.8492   -1.0814 C   0  0  0  0  0  0  0  0  0  0  0  0
   -1.5919    0.0214   -0.9854 C   0  0  0  0  0  0  0  0  0  0  0  0
   -2.6874   -0.1425   -0.1371 N   0  0  0  0  0  0  0  0  0  0  0  0
   -3.7442    0.8497   -0.1100 C   0  0  0  0  0  0  0  0  0  0  0  0
   -4.5037    1.0983    1.0426 C   0  0  0  0  0  0  0  0  0  0  0  0
   -5.5160    2.0711    1.0640 C   0  0  0  0  0  0  0  0  0  0  0  0
   -5.7935    2.8219   -0.0734 C   0  0  0  0  0  0  0  0  0  0  0  0
   -6.7474    3.7933   -0.1883 O   0  0  0  0  0  0  0  0  0  0  0  0
   -7.5572    4.0341    0.9554 C   0  0  0  0  0  0  0  0  0  0  0  0
   -5.0484    2.5914   -1.2273 C   0  0  0  0  0  0  0  0  0  0  0  0
   -4.0381    1.6211   -1.2472 C   0  0  0  0  0  0  0  0  0  0  0  0
   -2.7668   -1.2844    0.7003 C   0  0  0  0  0  0  0  0  0  0  0  0
   -3.6874   -1.5527    1.4716 O   0  0  0  0  0  0  0  0  0  0  0  0
   -1.6592   -2.2812    0.6039 C   0  0  0  0  0  0  0  0  0  0  0  0
   -1.7105   -3.4421    1.3928 C   0  0  0  0  0  0  0  0  0  0  0  0
   -0.7142   -4.4104    1.2862 C   0  0  0  0  0  0  0  0  0  0  0  0
    0.3294   -4.2292    0.3845 C   0  0  0  0  0  0  0  0  0  0  0  0
    0.3844   -3.0755   -0.4023 C   0  0  0  0  0  0  0  0  0  0  0  0
   -0.5995   -2.0797   -0.2887 C   0  0  0  0  0  0  0  0  0  0  0  0
    7.2504   -0.7585    2.5851 H   0  0  0  0  0  0  0  0  0  0  0  0
    6.8129    0.9172    2.8954 H   0  0  0  0  0  0  0  0  0  0  0  0
    6.5116   -0.3160    4.1434 H   0  0  0  0  0  0  0  0  0  0  0  0
    4.8425   -1.4158    2.6380 H   0  0  0  0  0  0  0  0  0  0  0  0
    4.3957    0.2895    2.9608 H   0  0  0  0  0  0  0  0  0  0  0  0
    6.2801    0.4666   -0.9259 H   0  0  0  0  0  0  0  0  0  0  0  0
    6.5127    0.9926   -3.3126 H   0  0  0  0  0  0  0  0  0  0  0  0
    4.5363    0.8973   -4.8072 H   0  0  0  0  0  0  0  0  0  0  0  0
    2.3490    0.2858   -3.9398 H   0  0  0  0  0  0  0  0  0  0  0  0
    1.7451   -0.5555   -0.3456 H   0  0  0  0  0  0  0  0  0  0  0  0
   -1.5507    0.9454   -1.5570 H   0  0  0  0  0  0  0  0  0  0  0  0
   -4.3099    0.5664    1.9704 H   0  0  0  0  0  0  0  0  0  0  0  0
   -6.0601    2.2120    1.9920 H   0  0  0  0  0  0  0  0  0  0  0  0
   -8.1243    3.1399    1.2344 H   0  0  0  0  0  0  0  0  0  0  0  0
   -8.2766    4.8168    0.6965 H   0  0  0  0  0  0  0  0  0  0  0  0
   -6.9558    4.3994    1.7940 H   0  0  0  0  0  0  0  0  0  0  0  0
   -5.2606    3.1634   -2.1277 H   0  0  0  0  0  0  0  0  0  0  0  0
   -3.5259    1.4589   -2.1915 H   0  0  0  0  0  0  0  0  0  0  0  0
   -2.5349   -3.5987    2.0863 H   0  0  0  0  0  0  0  0  0  0  0  0
   -0.7603   -5.3083    1.8975 H   0  0  0  0  0  0  0  0  0  0  0  0
    1.1021   -4.9887    0.2884 H   0  0  0  0  0  0  0  0  0  0  0  0
    1.2071   -2.9797   -1.1078 H   0  0  0  0  0  0  0  0  0  0  0  0
  1  2  1  0
  2  3  1  0
  3  4  1  0
  4  5  2  0
  4  6  1  0
  6  7  2  0
  7  8  1  0
  8  9  2  0
  9 10  1  0
 10 11  2  0
 11 12  1  0
 12 13  1  0
 13 14  2  0
 13 15  1  0
 15 16  2  0
 16 17  1  0
 17 18  1  0
 18 19  2  0
 19 20  1  0
 20 21  2  0
 21 22  1  0
 22 23  1  0
 21 24  1  0
 24 25  2  0
 17 26  1  0
 26 27  2  0
 26 28  1  0
 28 29  2  0
 29 30  1  0
 30 31  2  0
 31 32  1  0
 32 33  2  0
 11  6  1  0
 33 15  1  0
 25 18  1  0
 33 28  1  0
  1 34  1  0
  1 35  1  0
  1 36  1  0
  2 37  1  0
  2 38  1  0
  7 39  1  0
  8 40  1  0
  9 41  1  0
 10 42  1  0
 12 43  1  0
 16 44  1  0
 19 45  1  0
 20 46  1  0
 23 47  1  0
 23 48  1  0
 23 49  1  0
 24 50  1  0
 25 51  1  0
 29 52  1  0
 30 53  1  0
 31 54  1  0
 32 55  1  0
M  END
$$$$
