
     RDKit          3D

 53 56  0  0  0  0  0  0  0  0999 V2000
    7.2934    3.0723    0.3463 C   0  0  0  0  0  0  0  0  0  0  0  0
    7.3213    1.6801    0.6261 O   0  0  0  0  0  0  0  0  0  0  0  0
    6.2070    0.9607    0.2941 C   0  0  0  0  0  0  0  0  0  0  0  0
    5.0928    1.4422   -0.3914 C   0  0  0  0  0  0  0  0  0  0  0  0
    4.0201    0.5894   -0.6719 C   0  0  0  0  0  0  0  0  0  0  0  0
    4.0424   -0.7512   -0.2690 C   0  0  0  0  0  0  0  0  0  0  0  0
    2.9261   -1.5390   -0.6087 N   0  0  0  0  0  0  0  0  0  0  0  0
    2.6345   -2.8264   -0.1947 C   0  0  0  0  0  0  0  0  0  0  0  0
    3.2987   -3.5042    0.5858 O   0  0  0  0  0  0  0  0  0  0  0  0
    1.3623   -3.3873   -0.8171 C   0  0  0  0  0  0  0  0  0  0  0  0
   -0.1177   -2.8199    0.0742 S   0  0  0  0  0  0  0  0  0  0  0  0
   -0.3741   -1.2543   -0.6297 C   0  0  0  0  0  0  0  0  0  0  0  0
    0.4448   -0.7035   -1.4957 N   0  0  0  0  0  0  0  0  0  0  0  0
    0.0445    0.5782   -1.7038 N   0  0  0  0  0  0  0  0  0  0  0  0
   -1.0562    0.7879   -1.0017 C   0  0  0  0  0  0  0  0  0  0  0  0
   -1.9236    1.9989   -1.1502 C   0  0  0  0  0  0  0  0  0  0  0  0
   -3.1709    1.7237   -1.9454 C   0  0  0  0  0  0  0  0  0  0  0  0
   -4.4598    1.5226   -1.4878 C   0  0  0  0  0  0  0  0  0  0  0  0
   -5.3828    1.2807   -2.5489 C   0  0  0  0  0  0  0  0  0  0  0  0
   -4.7711    1.3137   -3.7811 C   0  0  0  0  0  0  0  0  0  0  0  0
   -3.0966    1.6374   -3.6583 S   0  0  0  0  0  0  0  0  0  0  0  0
   -1.3446   -0.3446   -0.2432 N   0  0  0  0  0  0  0  0  0  0  0  0
   -2.4007   -0.5131    0.6893 C   0  0  0  0  0  0  0  0  0  0  0  0
   -2.6662    0.4847    1.6365 C   0  0  0  0  0  0  0  0  0  0  0  0
   -3.7167    0.3251    2.5458 C   0  0  0  0  0  0  0  0  0  0  0  0
   -4.5168   -0.8227    2.5130 C   0  0  0  0  0  0  0  0  0  0  0  0
   -5.6217   -1.0061    3.5107 C   0  0  0  0  0  0  0  0  0  0  0  0
   -4.2322   -1.8254    1.5779 C   0  0  0  0  0  0  0  0  0  0  0  0
   -3.1816   -1.6739    0.6682 C   0  0  0  0  0  0  0  0  0  0  0  0
    5.1599   -1.2307    0.4122 C   0  0  0  0  0  0  0  0  0  0  0  0
    6.2341   -0.3774    0.6887 C   0  0  0  0  0  0  0  0  0  0  0  0
    7.1940    3.2594   -0.7278 H   0  0  0  0  0  0  0  0  0  0  0  0
    8.2486    3.4967    0.6705 H   0  0  0  0  0  0  0  0  0  0  0  0
    6.4948    3.5677    0.9097 H   0  0  0  0  0  0  0  0  0  0  0  0
    5.0279    2.4702   -0.7324 H   0  0  0  0  0  0  0  0  0  0  0  0
    3.1629    0.9898   -1.2109 H   0  0  0  0  0  0  0  0  0  0  0  0
    2.2010   -1.0645   -1.1470 H   0  0  0  0  0  0  0  0  0  0  0  0
    1.4050   -4.4800   -0.7380 H   0  0  0  0  0  0  0  0  0  0  0  0
    1.3146   -3.1510   -1.8858 H   0  0  0  0  0  0  0  0  0  0  0  0
   -1.3428    2.7802   -1.6573 H   0  0  0  0  0  0  0  0  0  0  0  0
   -2.1815    2.4295   -0.1815 H   0  0  0  0  0  0  0  0  0  0  0  0
   -4.7358    1.5409   -0.4391 H   0  0  0  0  0  0  0  0  0  0  0  0
   -6.4414    1.0934   -2.4134 H   0  0  0  0  0  0  0  0  0  0  0  0
   -5.2229    1.1649   -4.7516 H   0  0  0  0  0  0  0  0  0  0  0  0
   -2.0401    1.3690    1.7274 H   0  0  0  0  0  0  0  0  0  0  0  0
   -3.9008    1.0986    3.2911 H   0  0  0  0  0  0  0  0  0  0  0  0
   -6.4107   -1.6489    3.1081 H   0  0  0  0  0  0  0  0  0  0  0  0
   -6.0810   -0.0451    3.7603 H   0  0  0  0  0  0  0  0  0  0  0  0
   -5.2308   -1.4607    4.4248 H   0  0  0  0  0  0  0  0  0  0  0  0
   -4.8314   -2.7338    1.5482 H   0  0  0  0  0  0  0  0  0  0  0  0
   -3.0190   -2.4604   -0.0652 H   0  0  0  0  0  0  0  0  0  0  0  0
    5.2375   -2.2660    0.7250 H   0  0  0  0  0  0  0  0  0  0  0  0
    7.1032   -0.7680    1.2153 H   0  0  0  0  0  0  0  0  0  0  0  0
  1  2  1  0
  2  3  1  0
  3  4  2  0
  4  5  1  0
  5  6  2  0
  6  7  1  0
  7  8  1  0
  8  9  2  0
  8 10  1  0
 10 11  1  0
 11 12  1  0
 12 13  2  0
 13 14  1  0
 14 15  2  0
 15 16  1  0
 16 17  1  0
 17 18  2  0
 18 19  1  0
 19 20  2  0
 20 21  1  0
 15 22  1  0
 22 23  1  0
 23 24  2  0
 24 25  1  0
 25 26  2  0
 26 27  1  0
 26 28  1  0
 28 29  2  0
  6 30  1  0
 30 31  2  0
 31  3  1  0
 22 12  1  0
 29 23  1  0
 21 17  1  0
  1 32  1  0
  1 33  1  0
  1 34  1  0
  4 35  1  0
  5 36  1  0
  7 37  1  0
 10 38  1  0
 10 39  1  0
 16 40  1  0
 16 41  1  0
 18 42  1  0
 19 43  1  0
 20 44  1  0
 24 45  1  0
 25 46  1  0
 27 47  1  0
 27 48  1  0
 27 49  1  0
 28 50  1  0
 29 51  1  0
 30 52  1  0
 31 53  1  0
M  END
$$$$
