
     RDKit          3D

 53 55  0  0  0  0  0  0  0  0999 V2000
    9.0577   -0.7975   -0.2835 C   0  0  0  0  0  0  0  0  0  0  0  0
    8.5649    0.3235    0.4397 O   0  0  0  0  0  0  0  0  0  0  0  0
    7.2616    0.2722    0.8507 C   0  0  0  0  0  0  0  0  0  0  0  0
    6.3660   -0.7736    0.6116 C   0  0  0  0  0  0  0  0  0  0  0  0
    5.0530   -0.6958    1.0868 C   0  0  0  0  0  0  0  0  0  0  0  0
    4.6392    0.4340    1.7987 C   0  0  0  0  0  0  0  0  0  0  0  0
    2.9704    0.5136    2.3927 S   0  0  0  0  0  6  0  0  0  0  0  0
    2.6533   -0.7682    2.9845 O   0  0  0  0  0  0  0  0  0  0  0  0
    2.7952    1.7464    3.1313 O   0  0  0  0  0  0  0  0  0  0  0  0
    2.0820    0.6552    0.9644 N   0  0  0  0  0  0  0  0  0  0  0  0
    2.2433    1.8993    0.1839 C   0  0  0  0  0  0  0  0  0  0  0  0
    0.8930    2.5677    0.2949 C   0  0  0  0  0  0  0  0  0  0  0  0
   -0.0172    1.4699    0.3402 O   0  0  0  0  0  0  0  0  0  0  0  0
    0.6228    0.4799    1.1642 C   0  0  0  0  0  0  0  0  0  0  0  0
    0.1828   -0.9380    0.7431 C   0  0  0  0  0  0  0  0  0  0  0  0
   -1.2297   -1.1898    0.9730 N   0  0  0  0  0  0  0  0  0  0  0  0
   -2.1848   -0.9135    0.0207 C   0  0  0  0  0  0  0  0  0  0  0  0
   -1.9864   -0.6222   -1.1496 O   0  0  0  0  0  0  0  0  0  0  0  0
   -3.6302   -0.9939    0.5616 C   0  0  0  0  0  0  0  0  0  0  0  0
   -3.8296   -1.2228    1.7467 O   0  0  0  0  0  0  0  0  0  0  0  0
   -4.5919   -0.7660   -0.3939 N   0  0  0  0  0  0  0  0  0  0  0  0
   -5.9671   -0.5600   -0.0247 C   0  0  0  0  0  0  0  0  0  0  0  0
   -6.8693   -0.5829   -1.2291 C   0  0  0  0  0  0  0  0  0  0  0  0
   -7.4705   -1.7986   -1.6037 C   0  0  0  0  0  0  0  0  0  0  0  0
   -8.3062   -1.8719   -2.7199 C   0  0  0  0  0  0  0  0  0  0  0  0
   -8.5480   -0.7344   -3.4847 C   0  0  0  0  0  0  0  0  0  0  0  0
   -7.9472    0.4760   -3.1382 C   0  0  0  0  0  0  0  0  0  0  0  0
   -7.1093    0.5519   -2.0206 C   0  0  0  0  0  0  0  0  0  0  0  0
   -6.3808    2.0789   -1.6706 Cl  0  0  0  0  0  0  0  0  0  0  0  0
    5.5278    1.4786    2.0549 C   0  0  0  0  0  0  0  0  0  0  0  0
    6.8359    1.3926    1.5744 C   0  0  0  0  0  0  0  0  0  0  0  0
   10.1042   -0.5992   -0.5344 H   0  0  0  0  0  0  0  0  0  0  0  0
    8.5105   -0.9340   -1.2225 H   0  0  0  0  0  0  0  0  0  0  0  0
    9.0274   -1.7055    0.3281 H   0  0  0  0  0  0  0  0  0  0  0  0
    6.6585   -1.6639    0.0631 H   0  0  0  0  0  0  0  0  0  0  0  0
    4.3613   -1.5156    0.9019 H   0  0  0  0  0  0  0  0  0  0  0  0
    2.4511    1.6119   -0.8524 H   0  0  0  0  0  0  0  0  0  0  0  0
    3.0515    2.5509    0.5231 H   0  0  0  0  0  0  0  0  0  0  0  0
    0.6662    3.2137   -0.5562 H   0  0  0  0  0  0  0  0  0  0  0  0
    0.7970    3.1441    1.2209 H   0  0  0  0  0  0  0  0  0  0  0  0
    0.3211    0.6826    2.1993 H   0  0  0  0  0  0  0  0  0  0  0  0
    0.7329   -1.6962    1.3089 H   0  0  0  0  0  0  0  0  0  0  0  0
    0.3924   -1.0906   -0.3222 H   0  0  0  0  0  0  0  0  0  0  0  0
   -1.5723   -1.3399    1.9189 H   0  0  0  0  0  0  0  0  0  0  0  0
   -4.2498   -0.4200   -1.2877 H   0  0  0  0  0  0  0  0  0  0  0  0
   -6.2604   -1.3401    0.6887 H   0  0  0  0  0  0  0  0  0  0  0  0
   -6.0457    0.3850    0.5241 H   0  0  0  0  0  0  0  0  0  0  0  0
   -7.2860   -2.7013   -1.0231 H   0  0  0  0  0  0  0  0  0  0  0  0
   -8.7649   -2.8187   -2.9936 H   0  0  0  0  0  0  0  0  0  0  0  0
   -9.1977   -0.7902   -4.3549 H   0  0  0  0  0  0  0  0  0  0  0  0
   -8.1325    1.3585   -3.7473 H   0  0  0  0  0  0  0  0  0  0  0  0
    5.2195    2.3542    2.6221 H   0  0  0  0  0  0  0  0  0  0  0  0
    7.5352    2.2037    1.7678 H   0  0  0  0  0  0  0  0  0  0  0  0
  1  2  1  0
  2  3  1  0
  3  4  2  0
  4  5  1  0
  5  6  2  0
  6  7  1  0
  7  8  2  0
  7  9  2  0
  7 10  1  0
 10 11  1  0
 11 12  1  0
 12 13  1  0
 13 14  1  0
 14 15  1  0
 15 16  1  0
 16 17  1  0
 17 18  2  0
 17 19  1  0
 19 20  2  0
 19 21  1  0
 21 22  1  0
 22 23  1  0
 23 24  2  0
 24 25  1  0
 25 26  2  0
 26 27  1  0
 27 28  2  0
 28 29  1  0
  6 30  1  0
 30 31  2  0
 31  3  1  0
 14 10  1  0
 28 23  1  0
  1 32  1  0
  1 33  1  0
  1 34  1  0
  4 35  1  0
  5 36  1  0
 11 37  1  0
 11 38  1  0
 12 39  1  0
 12 40  1  0
 14 41  1  0
 15 42  1  0
 15 43  1  0
 16 44  1  0
 21 45  1  0
 22 46  1  0
 22 47  1  0
 24 48  1  0
 25 49  1  0
 26 50  1  0
 27 51  1  0
 30 52  1  0
 31 53  1  0
M  END
$$$$
