
     RDKit          3D

 37 38  0  0  0  0  0  0  0  0999 V2000
   -5.8498   -1.0542   -0.3416 C   0  0  0  0  0  0  0  0  0  0  0  0
   -5.0696   -0.0583   -1.0751 N   0  0  0  0  0  0  0  0  0  0  0  0
   -5.6867    0.4464   -2.3012 C   0  0  0  0  0  0  0  0  0  0  0  0
   -3.6763   -0.0605   -0.9599 C   0  0  0  0  0  0  0  0  0  0  0  0
   -3.0114   -0.7544    0.0656 C   0  0  0  0  0  0  0  0  0  0  0  0
   -1.6137   -0.7412    0.2018 C   0  0  0  0  0  0  0  0  0  0  0  0
   -0.8202   -0.0101   -0.6809 C   0  0  0  0  0  0  0  0  0  0  0  0
    0.6462    0.0151   -0.5921 C   0  0  0  0  0  0  0  0  0  0  0  0
    1.3122    0.1125    0.5701 C   0  0  0  0  0  0  0  0  0  0  0  0
    2.7752    0.1467    0.6762 C   0  0  0  0  0  0  0  0  0  0  0  0
    3.5743    0.8372   -0.2340 C   0  0  0  0  0  0  0  0  0  0  0  0
    4.9542    0.8591   -0.0642 C   0  0  0  0  0  0  0  0  0  0  0  0
    5.5292    0.2283    0.9837 N   0  0  0  0  0  4  0  0  0  0  0  0
    6.9939    0.2553    1.1354 C   0  0  0  0  0  0  0  0  0  0  0  0
    4.7754   -0.4416    1.8833 C   0  0  0  0  0  0  0  0  0  0  0  0
    3.3918   -0.4876    1.7534 C   0  0  0  0  0  0  0  0  0  0  0  0
   -1.4524    0.6832   -1.7113 C   0  0  0  0  0  0  0  0  0  0  0  0
   -2.8509    0.6640   -1.8366 C   0  0  0  0  0  0  0  0  0  0  0  0
   -6.9230   -0.9396   -0.5315 H   0  0  0  0  0  0  0  0  0  0  0  0
   -5.5687   -2.0705   -0.6390 H   0  0  0  0  0  0  0  0  0  0  0  0
   -5.7230   -0.9384    0.7401 H   0  0  0  0  0  0  0  0  0  0  0  0
   -5.4460    1.5030   -2.4600 H   0  0  0  0  0  0  0  0  0  0  0  0
   -5.3687   -0.1392   -3.1709 H   0  0  0  0  0  0  0  0  0  0  0  0
   -6.7800    0.3930   -2.2485 H   0  0  0  0  0  0  0  0  0  0  0  0
   -3.5678   -1.3324    0.7975 H   0  0  0  0  0  0  0  0  0  0  0  0
   -1.1688   -1.3198    1.0067 H   0  0  0  0  0  0  0  0  0  0  0  0
    1.1634   -0.0406   -1.5465 H   0  0  0  0  0  0  0  0  0  0  0  0
    0.7647    0.1682    1.5100 H   0  0  0  0  0  0  0  0  0  0  0  0
    3.1330    1.3707   -1.0736 H   0  0  0  0  0  0  0  0  0  0  0  0
    5.6053    1.3817   -0.7593 H   0  0  0  0  0  0  0  0  0  0  0  0
    7.3951   -0.6005    0.5869 H   0  0  0  0  0  0  0  0  0  0  0  0
    7.3787    1.1942    0.7290 H   0  0  0  0  0  0  0  0  0  0  0  0
    7.2462    0.1908    2.1969 H   0  0  0  0  0  0  0  0  0  0  0  0
    5.2874   -0.9373    2.7034 H   0  0  0  0  0  0  0  0  0  0  0  0
    2.8023   -1.0297    2.4909 H   0  0  0  0  0  0  0  0  0  0  0  0
   -0.8758    1.2630   -2.4279 H   0  0  0  0  0  0  0  0  0  0  0  0
   -3.2759    1.2434   -2.6508 H   0  0  0  0  0  0  0  0  0  0  0  0
  1  2  1  0
  2  3  1  0
  2  4  1  0
  4  5  2  0
  5  6  1  0
  6  7  2  0
  7  8  1  0
  8  9  2  3
  9 10  1  0
 10 11  2  0
 11 12  1  0
 12 13  2  0
 13 14  1  0
 13 15  1  0
 15 16  2  0
  7 17  1  0
 17 18  2  0
 18  4  1  0
 16 10  1  0
  1 19  1  0
  1 20  1  0
  1 21  1  0
  3 22  1  0
  3 23  1  0
  3 24  1  0
  5 25  1  0
  6 26  1  0
  8 27  1  0
  9 28  1  0
 11 29  1  0
 12 30  1  0
 14 31  1  0
 14 32  1  0
 14 33  1  0
 15 34  1  0
 16 35  1  0
 17 36  1  0
 18 37  1  0
M  CHG  1  13   1
M  END
$$$$
