
     RDKit          3D

 32 34  0  0  0  0  0  0  0  0999 V2000
    6.2552   -1.1958    0.9631 O   0  0  0  0  0  0  0  0  0  0  0  0
    5.7268   -0.4567    0.1206 N   0  0  0  0  0  4  0  0  0  0  0  0
    6.3372    0.1231   -0.7880 O   0  0  0  0  0  1  0  0  0  0  0  0
    4.2880   -0.2602    0.2037 C   0  0  0  0  0  0  0  0  0  0  0  0
    3.5334   -0.8659    1.2033 C   0  0  0  0  0  0  0  0  0  0  0  0
    2.1565   -0.6363    1.2292 C   0  0  0  0  0  0  0  0  0  0  0  0
    1.5590    0.1808    0.2626 C   0  0  0  0  0  0  0  0  0  0  0  0
    0.1704    0.4083    0.3166 N   0  0  0  0  0  0  0  0  0  0  0  0
   -0.2637    1.5335   -0.5260 C   0  0  0  0  0  0  0  0  0  0  0  0
   -1.7020    1.9094   -0.1608 C   0  0  0  0  0  0  0  0  0  0  0  0
   -2.6178    0.7117   -0.1713 C   0  0  0  0  0  0  0  0  0  0  0  0
   -4.0048    0.8917   -0.2653 C   0  0  0  0  0  0  0  0  0  0  0  0
   -4.8615   -0.2080   -0.2448 C   0  0  0  0  0  0  0  0  0  0  0  0
   -4.3413   -1.4937   -0.1230 C   0  0  0  0  0  0  0  0  0  0  0  0
   -2.9629   -1.6815   -0.0160 C   0  0  0  0  0  0  0  0  0  0  0  0
   -2.0874   -0.5834   -0.0266 C   0  0  0  0  0  0  0  0  0  0  0  0
   -0.5920   -0.8285    0.0656 C   0  0  0  0  0  0  0  0  0  0  0  0
    2.3061    0.7720   -0.6989 N   0  0  0  0  0  0  0  0  0  0  0  0
    3.6446    0.5449   -0.7177 C   0  0  0  0  0  0  0  0  0  0  0  0
    3.9879   -1.4977    1.9620 H   0  0  0  0  0  0  0  0  0  0  0  0
    1.5554   -1.0731    2.0213 H   0  0  0  0  0  0  0  0  0  0  0  0
    0.3638    2.4188   -0.3598 H   0  0  0  0  0  0  0  0  0  0  0  0
   -0.2026    1.2669   -1.5904 H   0  0  0  0  0  0  0  0  0  0  0  0
   -2.0619    2.6670   -0.8666 H   0  0  0  0  0  0  0  0  0  0  0  0
   -1.7253    2.3463    0.8454 H   0  0  0  0  0  0  0  0  0  0  0  0
   -4.4235    1.8915   -0.3540 H   0  0  0  0  0  0  0  0  0  0  0  0
   -5.9355   -0.0608   -0.3220 H   0  0  0  0  0  0  0  0  0  0  0  0
   -5.0097   -2.3506   -0.1092 H   0  0  0  0  0  0  0  0  0  0  0  0
   -2.5733   -2.6928    0.0781 H   0  0  0  0  0  0  0  0  0  0  0  0
   -0.4229   -1.5423    0.8811 H   0  0  0  0  0  0  0  0  0  0  0  0
   -0.2689   -1.2910   -0.8773 H   0  0  0  0  0  0  0  0  0  0  0  0
    4.1724    1.0525   -1.5212 H   0  0  0  0  0  0  0  0  0  0  0  0
  1  2  2  0
  2  3  1  0
  2  4  1  0
  4  5  2  0
  5  6  1  0
  6  7  2  0
  7  8  1  0
  8  9  1  0
  9 10  1  0
 10 11  1  0
 11 12  2  0
 12 13  1  0
 13 14  2  0
 14 15  1  0
 15 16  2  0
 16 17  1  0
  7 18  1  0
 18 19  2  0
 19  4  1  0
 17  8  1  0
 16 11  1  0
  5 20  1  0
  6 21  1  0
  9 22  1  0
  9 23  1  0
 10 24  1  0
 10 25  1  0
 12 26  1  0
 13 27  1  0
 14 28  1  0
 15 29  1  0
 17 30  1  0
 17 31  1  0
 19 32  1  0
M  CHG  2   2   1   3  -1
M  END
$$$$
