
     RDKit          3D

 29 29  0  0  0  0  0  0  0  0999 V2000
   -2.9734    0.6313   -1.6662 C   0  0  0  0  0  0  0  0  0  0  0  0
   -3.1463   -0.4940   -1.2825 C   0  0  0  0  0  0  0  0  0  0  0  0
   -3.3672   -1.8675   -0.8180 C   0  0  0  0  0  0  0  0  0  0  0  0
   -2.1139   -2.5307   -0.4434 N   0  0  0  0  0  0  0  0  0  0  0  0
   -1.7328   -2.3068    0.9554 C   0  0  0  0  0  0  0  0  0  0  0  0
   -1.1643   -0.9257    1.2775 C   0  0  0  0  0  0  0  0  0  0  0  0
    0.0589   -0.5710    0.4360 C   0  0  0  0  0  0  0  0  0  0  0  0
    0.5574    0.6849    0.9033 O   0  0  0  0  0  0  0  0  0  0  0  0
    1.6455    1.2204    0.2662 C   0  0  0  0  0  0  0  0  0  0  0  0
    2.3078    0.6220   -0.8113 C   0  0  0  0  0  0  0  0  0  0  0  0
    3.4132    1.2475   -1.3983 C   0  0  0  0  0  0  0  0  0  0  0  0
    3.8615    2.4728   -0.9110 C   0  0  0  0  0  0  0  0  0  0  0  0
    5.2215    3.2343   -1.6387 Cl  0  0  0  0  0  0  0  0  0  0  0  0
    3.2170    3.0833    0.1591 C   0  0  0  0  0  0  0  0  0  0  0  0
    2.1132    2.4576    0.7439 C   0  0  0  0  0  0  0  0  0  0  0  0
    1.3452    3.2569    2.0731 Cl  0  0  0  0  0  0  0  0  0  0  0  0
   -2.8100    1.6299   -2.0000 H   0  0  0  0  0  0  0  0  0  0  0  0
   -4.1015   -1.9009   -0.0052 H   0  0  0  0  0  0  0  0  0  0  0  0
   -3.8080   -2.4333   -1.6480 H   0  0  0  0  0  0  0  0  0  0  0  0
   -2.2583   -3.5333   -0.5658 H   0  0  0  0  0  0  0  0  0  0  0  0
   -0.9620   -3.0482    1.2015 H   0  0  0  0  0  0  0  0  0  0  0  0
   -2.5766   -2.5253    1.6214 H   0  0  0  0  0  0  0  0  0  0  0  0
   -0.8809   -0.9014    2.3381 H   0  0  0  0  0  0  0  0  0  0  0  0
   -1.9286   -0.1474    1.1744 H   0  0  0  0  0  0  0  0  0  0  0  0
   -0.2198   -0.4914   -0.6200 H   0  0  0  0  0  0  0  0  0  0  0  0
    0.8272   -1.3430    0.5634 H   0  0  0  0  0  0  0  0  0  0  0  0
    1.9891   -0.3313   -1.2218 H   0  0  0  0  0  0  0  0  0  0  0  0
    3.9174    0.7714   -2.2359 H   0  0  0  0  0  0  0  0  0  0  0  0
    3.5685    4.0390    0.5374 H   0  0  0  0  0  0  0  0  0  0  0  0
  1  2  3  0
  2  3  1  0
  3  4  1  0
  4  5  1  0
  5  6  1  0
  6  7  1  0
  7  8  1  0
  8  9  1  0
  9 10  2  0
 10 11  1  0
 11 12  2  0
 12 13  1  0
 12 14  1  0
 14 15  2  0
 15 16  1  0
 15  9  1  0
  1 17  1  0
  3 18  1  0
  3 19  1  0
  4 20  1  0
  5 21  1  0
  5 22  1  0
  6 23  1  0
  6 24  1  0
  7 25  1  0
  7 26  1  0
 10 27  1  0
 11 28  1  0
 14 29  1  0
M  END
$$$$
