
     RDKit          3D

 57 59  0  0  0  0  0  0  0  0999 V2000
    9.0153   -0.8944   -0.4676 C   0  0  0  0  0  0  0  0  0  0  0  0
    7.8675   -0.1681   -0.8878 O   0  0  0  0  0  0  0  0  0  0  0  0
    6.7892   -0.1754   -0.0464 C   0  0  0  0  0  0  0  0  0  0  0  0
    5.6761    0.5241   -0.5169 C   0  0  0  0  0  0  0  0  0  0  0  0
    4.5060    0.5974    0.2424 C   0  0  0  0  0  0  0  0  0  0  0  0
    4.4345   -0.0251    1.4944 C   0  0  0  0  0  0  0  0  0  0  0  0
    3.1648    0.0334    2.3022 C   0  0  0  0  0  0  0  0  0  0  0  0
    2.2376   -0.9782    1.8688 N   0  0  0  0  0  0  0  0  0  0  0  0
    1.1926   -0.7066    1.0184 C   0  0  0  0  0  0  0  0  0  0  0  0
    0.8336    0.4008    0.6457 O   0  0  0  0  0  0  0  0  0  0  0  0
    0.4499   -1.9746    0.5383 C   0  0  0  0  0  0  0  0  0  0  0  0
    0.6745   -3.0529    1.0715 O   0  0  0  0  0  0  0  0  0  0  0  0
   -0.4381   -1.7536   -0.4854 N   0  0  0  0  0  0  0  0  0  0  0  0
   -1.3380   -2.7908   -0.9514 C   0  0  0  0  0  0  0  0  0  0  0  0
   -2.3695   -2.3304   -1.9975 C   0  0  0  0  0  0  0  0  0  0  0  0
   -3.2878   -3.4069   -2.2566 O   0  0  0  0  0  0  0  0  0  0  0  0
   -4.5432   -2.7823   -2.5336 C   0  0  0  0  0  0  0  0  0  0  0  0
   -4.5891   -1.6309   -1.5559 C   0  0  0  0  0  0  0  0  0  0  0  0
   -3.1802   -1.2008   -1.4709 N   0  0  0  0  0  0  0  0  0  0  0  0
   -2.7831    0.2895   -2.1566 S   0  0  0  0  0  6  0  0  0  0  0  0
   -1.3504    0.4533   -2.0290 O   0  0  0  0  0  0  0  0  0  0  0  0
   -3.4360    0.3625   -3.4459 O   0  0  0  0  0  0  0  0  0  0  0  0
   -3.5569    1.4360   -1.0488 C   0  0  0  0  0  0  0  0  0  0  0  0
   -2.9830    1.6588    0.2061 C   0  0  0  0  0  0  0  0  0  0  0  0
   -3.5724    2.5720    1.0859 C   0  0  0  0  0  0  0  0  0  0  0  0
   -4.7259    3.2640    0.7100 C   0  0  0  0  0  0  0  0  0  0  0  0
   -5.3977    4.1794    1.4721 O   0  0  0  0  0  0  0  0  0  0  0  0
   -4.8424    4.4886    2.7446 C   0  0  0  0  0  0  0  0  0  0  0  0
   -5.2838    3.0380   -0.5537 C   0  0  0  0  0  0  0  0  0  0  0  0
   -4.7016    2.1304   -1.4406 C   0  0  0  0  0  0  0  0  0  0  0  0
    5.5499   -0.7337    1.9598 C   0  0  0  0  0  0  0  0  0  0  0  0
    6.7212   -0.8053    1.1961 C   0  0  0  0  0  0  0  0  0  0  0  0
    8.7885   -1.9603   -0.3561 H   0  0  0  0  0  0  0  0  0  0  0  0
    9.7773   -0.7959   -1.2469 H   0  0  0  0  0  0  0  0  0  0  0  0
    9.4298   -0.4785    0.4569 H   0  0  0  0  0  0  0  0  0  0  0  0
    5.7178    1.0134   -1.4869 H   0  0  0  0  0  0  0  0  0  0  0  0
    3.6480    1.1403   -0.1510 H   0  0  0  0  0  0  0  0  0  0  0  0
    2.7134    1.0292    2.2265 H   0  0  0  0  0  0  0  0  0  0  0  0
    3.3763   -0.1478    3.3618 H   0  0  0  0  0  0  0  0  0  0  0  0
    2.4558   -1.9587    2.0174 H   0  0  0  0  0  0  0  0  0  0  0  0
   -0.5212   -0.7966   -0.8410 H   0  0  0  0  0  0  0  0  0  0  0  0
   -0.7344   -3.6115   -1.3569 H   0  0  0  0  0  0  0  0  0  0  0  0
   -1.8538   -3.2031   -0.0743 H   0  0  0  0  0  0  0  0  0  0  0  0
   -1.8760   -2.0774   -2.9431 H   0  0  0  0  0  0  0  0  0  0  0  0
   -4.5436   -2.4380   -3.5739 H   0  0  0  0  0  0  0  0  0  0  0  0
   -5.3592   -3.4953   -2.3899 H   0  0  0  0  0  0  0  0  0  0  0  0
   -5.2884   -0.8523   -1.8680 H   0  0  0  0  0  0  0  0  0  0  0  0
   -4.8878   -1.9772   -0.5599 H   0  0  0  0  0  0  0  0  0  0  0  0
   -2.0765    1.1342    0.5032 H   0  0  0  0  0  0  0  0  0  0  0  0
   -3.1019    2.7231    2.0524 H   0  0  0  0  0  0  0  0  0  0  0  0
   -5.4788    5.2467    3.2113 H   0  0  0  0  0  0  0  0  0  0  0  0
   -4.8397    3.6091    3.3965 H   0  0  0  0  0  0  0  0  0  0  0  0
   -3.8376    4.9125    2.6455 H   0  0  0  0  0  0  0  0  0  0  0  0
   -6.1773    3.5835   -0.8500 H   0  0  0  0  0  0  0  0  0  0  0  0
   -5.1416    1.9814   -2.4234 H   0  0  0  0  0  0  0  0  0  0  0  0
    5.5177   -1.2367    2.9237 H   0  0  0  0  0  0  0  0  0  0  0  0
    7.5596   -1.3623    1.6007 H   0  0  0  0  0  0  0  0  0  0  0  0
  1  2  1  0
  2  3  1  0
  3  4  2  0
  4  5  1  0
  5  6  2  0
  6  7  1  0
  7  8  1  0
  8  9  1  0
  9 10  2  0
  9 11  1  0
 11 12  2  0
 11 13  1  0
 13 14  1  0
 14 15  1  0
 15 16  1  0
 16 17  1  0
 17 18  1  0
 18 19  1  0
 19 20  1  0
 20 21  2  0
 20 22  2  0
 20 23  1  0
 23 24  2  0
 24 25  1  0
 25 26  2  0
 26 27  1  0
 27 28  1  0
 26 29  1  0
 29 30  2  0
  6 31  1  0
 31 32  2  0
 32  3  1  0
 19 15  1  0
 30 23  1  0
  1 33  1  0
  1 34  1  0
  1 35  1  0
  4 36  1  0
  5 37  1  0
  7 38  1  0
  7 39  1  0
  8 40  1  0
 13 41  1  0
 14 42  1  0
 14 43  1  0
 15 44  1  0
 17 45  1  0
 17 46  1  0
 18 47  1  0
 18 48  1  0
 24 49  1  0
 25 50  1  0
 28 51  1  0
 28 52  1  0
 28 53  1  0
 29 54  1  0
 30 55  1  0
 31 56  1  0
 32 57  1  0
M  END
$$$$
