
     RDKit          3D

 57 60  0  0  0  0  0  0  0  0999 V2000
    9.1043    2.4311   -0.7068 C   0  0  0  0  0  0  0  0  0  0  0  0
    8.1057    1.4307   -0.1517 C   0  0  0  0  0  0  0  0  0  0  0  0
    6.7937    1.9461   -0.3743 O   0  0  0  0  0  0  0  0  0  0  0  0
    5.7494    1.2239    0.1415 C   0  0  0  0  0  0  0  0  0  0  0  0
    5.8398   -0.0313    0.7400 C   0  0  0  0  0  0  0  0  0  0  0  0
    4.6918   -0.6609    1.2457 C   0  0  0  0  0  0  0  0  0  0  0  0
    3.4442   -0.0415    1.1645 C   0  0  0  0  0  0  0  0  0  0  0  0
    2.2592   -0.5841    1.6999 N   0  0  0  0  0  0  0  0  0  0  0  0
    2.0864   -1.8209    2.2943 C   0  0  0  0  0  0  0  0  0  0  0  0
    2.9282   -2.7163    2.3645 O   0  0  0  0  0  0  0  0  0  0  0  0
    0.7134   -2.0029    2.9256 C   0  0  0  0  0  0  0  0  0  0  0  0
   -0.5329   -2.4566    1.6863 S   0  0  0  0  0  0  0  0  0  0  0  0
   -1.0950   -0.8930    1.1832 C   0  0  0  0  0  0  0  0  0  0  0  0
   -0.4328    0.2211    1.3984 N   0  0  0  0  0  0  0  0  0  0  0  0
   -1.2216    1.2600    1.0041 N   0  0  0  0  0  0  0  0  0  0  0  0
   -2.3593    0.7717    0.5429 C   0  0  0  0  0  0  0  0  0  0  0  0
   -3.4254    1.6021   -0.1061 C   0  0  0  0  0  0  0  0  0  0  0  0
   -3.6883    1.2461   -1.5429 C   0  0  0  0  0  0  0  0  0  0  0  0
   -2.7919    0.9082   -2.5479 C   0  0  0  0  0  0  0  0  0  0  0  0
   -3.5313    0.6407   -3.7225 C   0  0  0  0  0  0  0  0  0  0  0  0
   -4.8599    0.8372   -3.4202 C   0  0  0  0  0  0  0  0  0  0  0  0
   -4.9466    1.2405   -2.1126 N   0  0  0  0  0  0  0  0  0  0  0  0
   -6.1848    1.6299   -1.4713 C   0  0  0  0  0  0  0  0  0  0  0  0
   -2.3435   -0.6185    0.6492 N   0  0  0  0  0  0  0  0  0  0  0  0
   -3.3710   -1.5305    0.2789 C   0  0  0  0  0  0  0  0  0  0  0  0
   -3.0571   -2.6690   -0.4791 C   0  0  0  0  0  0  0  0  0  0  0  0
   -4.0729   -3.5343   -0.8896 C   0  0  0  0  0  0  0  0  0  0  0  0
   -5.3901   -3.2672   -0.5356 C   0  0  0  0  0  0  0  0  0  0  0  0
   -6.3640   -4.0896   -0.9485 F   0  0  0  0  0  0  0  0  0  0  0  0
   -5.7142   -2.1544    0.2339 C   0  0  0  0  0  0  0  0  0  0  0  0
   -4.7032   -1.2806    0.6452 C   0  0  0  0  0  0  0  0  0  0  0  0
    3.3554    1.2137    0.5534 C   0  0  0  0  0  0  0  0  0  0  0  0
    4.4995    1.8374    0.0423 C   0  0  0  0  0  0  0  0  0  0  0  0
    8.9672    3.4121   -0.2402 H   0  0  0  0  0  0  0  0  0  0  0  0
   10.1303    2.0962   -0.5283 H   0  0  0  0  0  0  0  0  0  0  0  0
    8.9570    2.5673   -1.7845 H   0  0  0  0  0  0  0  0  0  0  0  0
    8.2912    1.3015    0.9221 H   0  0  0  0  0  0  0  0  0  0  0  0
    8.2303    0.4747   -0.6718 H   0  0  0  0  0  0  0  0  0  0  0  0
    6.7868   -0.5536    0.8450 H   0  0  0  0  0  0  0  0  0  0  0  0
    4.8168   -1.6330    1.7138 H   0  0  0  0  0  0  0  0  0  0  0  0
    1.4248   -0.0019    1.6135 H   0  0  0  0  0  0  0  0  0  0  0  0
    0.4300   -1.1087    3.4925 H   0  0  0  0  0  0  0  0  0  0  0  0
    0.7829   -2.8217    3.6514 H   0  0  0  0  0  0  0  0  0  0  0  0
   -3.1058    2.6525   -0.0829 H   0  0  0  0  0  0  0  0  0  0  0  0
   -4.3363    1.5600    0.4998 H   0  0  0  0  0  0  0  0  0  0  0  0
   -1.7154    0.8531   -2.4420 H   0  0  0  0  0  0  0  0  0  0  0  0
   -3.1395    0.3410   -4.6858 H   0  0  0  0  0  0  0  0  0  0  0  0
   -5.7430    0.7415   -4.0407 H   0  0  0  0  0  0  0  0  0  0  0  0
   -6.4215    0.8976   -0.6970 H   0  0  0  0  0  0  0  0  0  0  0  0
   -6.9900    1.6584   -2.2107 H   0  0  0  0  0  0  0  0  0  0  0  0
   -6.0532    2.6236   -1.0381 H   0  0  0  0  0  0  0  0  0  0  0  0
   -2.0408   -2.8744   -0.8083 H   0  0  0  0  0  0  0  0  0  0  0  0
   -3.8476   -4.4046   -1.4975 H   0  0  0  0  0  0  0  0  0  0  0  0
   -6.7497   -1.9788    0.5062 H   0  0  0  0  0  0  0  0  0  0  0  0
   -4.9742   -0.4364    1.2734 H   0  0  0  0  0  0  0  0  0  0  0  0
    2.4000    1.7287    0.4774 H   0  0  0  0  0  0  0  0  0  0  0  0
    4.4143    2.8159   -0.4233 H   0  0  0  0  0  0  0  0  0  0  0  0
  1  2  1  0
  2  3  1  0
  3  4  1  0
  4  5  2  0
  5  6  1  0
  6  7  2  0
  7  8  1  0
  8  9  1  0
  9 10  2  0
  9 11  1  0
 11 12  1  0
 12 13  1  0
 13 14  2  0
 14 15  1  0
 15 16  2  0
 16 17  1  0
 17 18  1  0
 18 19  2  0
 19 20  1  0
 20 21  2  0
 21 22  1  0
 22 23  1  0
 16 24  1  0
 24 25  1  0
 25 26  2  0
 26 27  1  0
 27 28  2  0
 28 29  1  0
 28 30  1  0
 30 31  2  0
  7 32  1  0
 32 33  2  0
 33  4  1  0
 24 13  1  0
 31 25  1  0
 22 18  1  0
  1 34  1  0
  1 35  1  0
  1 36  1  0
  2 37  1  0
  2 38  1  0
  5 39  1  0
  6 40  1  0
  8 41  1  0
 11 42  1  0
 11 43  1  0
 17 44  1  0
 17 45  1  0
 19 46  1  0
 20 47  1  0
 21 48  1  0
 23 49  1  0
 23 50  1  0
 23 51  1  0
 26 52  1  0
 27 53  1  0
 30 54  1  0
 31 55  1  0
 32 56  1  0
 33 57  1  0
M  END
$$$$
