
     RDKit          3D

 59 62  0  0  0  0  0  0  0  0999 V2000
   -1.0602    1.0487   -2.9141 C   0  0  0  0  0  0  0  0  0  0  0  0
   -1.1950    0.2402   -1.7376 O   0  0  0  0  0  0  0  0  0  0  0  0
   -2.5173   -0.0477   -1.5033 C   0  0  0  0  0  0  0  0  0  0  0  0
   -3.0013   -1.3077   -1.8980 C   0  0  0  0  0  0  0  0  0  0  0  0
   -2.0999   -2.3258   -2.5448 C   0  0  0  0  0  0  0  0  0  0  0  0
   -4.3513   -1.6132   -1.6700 C   0  0  0  0  0  0  0  0  0  0  0  0
   -5.1921   -0.6850   -1.0504 C   0  0  0  0  0  0  0  0  0  0  0  0
   -7.0089   -1.1205   -0.7575 Br  0  0  0  0  0  0  0  0  0  0  0  0
   -4.7033    0.5500   -0.6321 C   0  0  0  0  0  0  0  0  0  0  0  0
   -3.3537    0.8646   -0.8335 C   0  0  0  0  0  0  0  0  0  0  0  0
   -2.8731    2.1679   -0.2995 C   0  0  0  0  0  0  0  0  0  0  0  0
   -3.6261    3.1300   -0.3884 O   0  0  0  0  0  0  0  0  0  0  0  0
   -1.6183    2.1329    0.2717 N   0  0  0  0  0  0  0  0  0  0  0  0
   -0.8983    3.1807    0.8886 C   0  0  0  0  0  0  0  0  0  0  0  0
   -1.3700    4.5002    0.8894 C   0  0  0  0  0  0  0  0  0  0  0  0
   -0.6235    5.5324    1.4638 C   0  0  0  0  0  0  0  0  0  0  0  0
    0.6076    5.2606    2.0432 C   0  0  0  0  0  0  0  0  0  0  0  0
    1.0824    3.9510    2.0629 C   0  0  0  0  0  0  0  0  0  0  0  0
    0.3460    2.8895    1.5030 C   0  0  0  0  0  0  0  0  0  0  0  0
    0.9216    1.6171    1.6335 N   0  0  0  0  0  0  0  0  0  0  0  0
    1.5975    1.0929    0.4356 C   0  0  0  0  0  0  0  0  0  0  0  0
    2.5073   -0.0994    0.8066 C   0  0  0  0  0  0  0  0  0  0  0  0
    1.8138   -1.0928    1.6426 N   0  0  0  0  0  0  0  0  0  0  0  0
    1.8340   -2.4703    1.4653 C   0  0  0  0  0  0  0  0  0  0  0  0
    1.1055   -3.2419    2.0831 O   0  0  0  0  0  0  0  0  0  0  0  0
    2.7647   -3.0592    0.4771 C   0  0  0  0  0  0  0  0  0  0  0  0
    4.1436   -2.8355    0.5711 C   0  0  0  0  0  0  0  0  0  0  0  0
    5.0032   -3.4285   -0.3533 C   0  0  0  0  0  0  0  0  0  0  0  0
    4.4889   -4.2575   -1.3520 C   0  0  0  0  0  0  0  0  0  0  0  0
    3.1162   -4.4999   -1.4299 C   0  0  0  0  0  0  0  0  0  0  0  0
    2.2512   -3.9073   -0.5094 C   0  0  0  0  0  0  0  0  0  0  0  0
    1.1090   -0.5382    2.8064 C   0  0  0  0  0  0  0  0  0  0  0  0
    0.1719    0.6185    2.4190 C   0  0  0  0  0  0  0  0  0  0  0  0
   -0.0231    1.3967   -2.9629 H   0  0  0  0  0  0  0  0  0  0  0  0
   -1.2642    0.4553   -3.8114 H   0  0  0  0  0  0  0  0  0  0  0  0
   -1.7094    1.9320   -2.8904 H   0  0  0  0  0  0  0  0  0  0  0  0
   -1.2775   -2.5831   -1.8706 H   0  0  0  0  0  0  0  0  0  0  0  0
   -1.6917   -1.9319   -3.4797 H   0  0  0  0  0  0  0  0  0  0  0  0
   -2.6358   -3.2521   -2.7837 H   0  0  0  0  0  0  0  0  0  0  0  0
   -4.7476   -2.5821   -1.9717 H   0  0  0  0  0  0  0  0  0  0  0  0
   -5.3570    1.2650   -0.1346 H   0  0  0  0  0  0  0  0  0  0  0  0
   -1.1214    1.2526    0.2167 H   0  0  0  0  0  0  0  0  0  0  0  0
   -2.3176    4.7648    0.4317 H   0  0  0  0  0  0  0  0  0  0  0  0
   -1.0090    6.5481    1.4485 H   0  0  0  0  0  0  0  0  0  0  0  0
    1.1939    6.0602    2.4869 H   0  0  0  0  0  0  0  0  0  0  0  0
    2.0403    3.7434    2.5336 H   0  0  0  0  0  0  0  0  0  0  0  0
    2.2109    1.8696   -0.0373 H   0  0  0  0  0  0  0  0  0  0  0  0
    0.8623    0.7570   -0.2989 H   0  0  0  0  0  0  0  0  0  0  0  0
    3.3677    0.2528    1.3870 H   0  0  0  0  0  0  0  0  0  0  0  0
    2.8775   -0.5499   -0.1170 H   0  0  0  0  0  0  0  0  0  0  0  0
    4.5500   -2.2176    1.3668 H   0  0  0  0  0  0  0  0  0  0  0  0
    6.0756   -3.2606   -0.2877 H   0  0  0  0  0  0  0  0  0  0  0  0
    5.1628   -4.7251   -2.0667 H   0  0  0  0  0  0  0  0  0  0  0  0
    2.7267   -5.1579   -2.2007 H   0  0  0  0  0  0  0  0  0  0  0  0
    1.1841   -4.1091   -0.5540 H   0  0  0  0  0  0  0  0  0  0  0  0
    0.5428   -1.3118    3.3338 H   0  0  0  0  0  0  0  0  0  0  0  0
    1.8843   -0.1755    3.4922 H   0  0  0  0  0  0  0  0  0  0  0  0
   -0.2308    1.0698    3.3335 H   0  0  0  0  0  0  0  0  0  0  0  0
   -0.6657    0.2068    1.8476 H   0  0  0  0  0  0  0  0  0  0  0  0
  1  2  1  0
  2  3  1  0
  3  4  2  0
  4  5  1  0
  4  6  1  0
  6  7  2  0
  7  8  1  0
  7  9  1  0
  9 10  2  0
 10 11  1  0
 11 12  2  0
 11 13  1  0
 13 14  1  0
 14 15  2  0
 15 16  1  0
 16 17  2  0
 17 18  1  0
 18 19  2  0
 19 20  1  0
 20 21  1  0
 21 22  1  0
 22 23  1  0
 23 24  1  0
 24 25  2  0
 24 26  1  0
 26 27  2  0
 27 28  1  0
 28 29  2  0
 29 30  1  0
 30 31  2  0
 23 32  1  0
 32 33  1  0
 10  3  1  0
 19 14  1  0
 33 20  1  0
 31 26  1  0
  1 34  1  0
  1 35  1  0
  1 36  1  0
  5 37  1  0
  5 38  1  0
  5 39  1  0
  6 40  1  0
  9 41  1  0
 13 42  1  0
 15 43  1  0
 16 44  1  0
 17 45  1  0
 18 46  1  0
 21 47  1  0
 21 48  1  0
 22 49  1  0
 22 50  1  0
 27 51  1  0
 28 52  1  0
 29 53  1  0
 30 54  1  0
 31 55  1  0
 32 56  1  0
 32 57  1  0
 33 58  1  0
 33 59  1  0
M  END
$$$$
