
     RDKit          3D

 43 45  0  0  0  0  0  0  0  0999 V2000
   -1.3790   -2.5543    2.7757 C   0  0  0  0  0  0  0  0  0  0  0  0
   -1.3532   -1.4333    1.7822 C   0  0  0  0  0  0  0  0  0  0  0  0
   -0.1618   -0.8348    1.4395 C   0  0  0  0  0  0  0  0  0  0  0  0
   -0.2144    0.1854    0.5108 C   0  0  0  0  0  0  0  0  0  0  0  0
    0.9449    0.8693    0.1053 N   0  0  0  0  0  0  0  0  0  0  0  0
    2.1470    0.2516    0.2103 N   0  0  0  0  0  0  0  0  0  0  0  0
    3.1395    0.8970   -0.3058 C   0  0  0  0  0  0  0  0  0  0  0  0
    4.5178    0.3680   -0.2860 C   0  0  0  0  0  0  0  0  0  0  0  0
    5.4768    1.0812   -1.0198 C   0  0  0  0  0  0  0  0  0  0  0  0
    6.8032    0.6375   -1.0721 C   0  0  0  0  0  0  0  0  0  0  0  0
    7.1884   -0.5199   -0.3940 C   0  0  0  0  0  0  0  0  0  0  0  0
    6.2494   -1.2377    0.3446 C   0  0  0  0  0  0  0  0  0  0  0  0
    4.9227   -0.7846    0.3927 C   0  0  0  0  0  0  0  0  0  0  0  0
    4.0042   -1.5503    1.2038 N   0  0  0  0  0  4  0  0  0  0  0  0
    3.5404   -2.5827    0.7009 O   0  0  0  0  0  0  0  0  0  0  0  0
    3.8300   -1.1642    2.3679 O   0  0  0  0  0  1  0  0  0  0  0  0
   -1.3724    0.6015   -0.0312 N   0  0  0  0  0  0  0  0  0  0  0  0
   -2.5018   -0.0321    0.3565 C   0  0  0  0  0  0  0  0  0  0  0  0
   -3.7609    0.3950   -0.2157 N   0  0  0  0  0  0  0  0  0  0  0  0
   -4.9362   -0.2116    0.1401 N   0  0  0  0  0  0  0  0  0  0  0  0
   -5.8858    0.4113   -0.5579 C   0  0  0  0  0  0  0  0  0  0  0  0
   -7.3026    0.0007   -0.4128 C   0  0  0  0  0  0  0  0  0  0  0  0
   -5.3550    1.4250   -1.3735 C   0  0  0  0  0  0  0  0  0  0  0  0
   -3.9941    1.4080   -1.1479 C   0  0  0  0  0  0  0  0  0  0  0  0
   -2.9410    2.2670   -1.7438 C   0  0  0  0  0  0  0  0  0  0  0  0
   -2.5263   -1.0447    1.2519 N   0  0  0  0  0  0  0  0  0  0  0  0
   -0.7698   -3.3907    2.4188 H   0  0  0  0  0  0  0  0  0  0  0  0
   -0.9919   -2.2136    3.7411 H   0  0  0  0  0  0  0  0  0  0  0  0
   -2.4006   -2.9175    2.9271 H   0  0  0  0  0  0  0  0  0  0  0  0
    0.7773   -1.1509    1.8765 H   0  0  0  0  0  0  0  0  0  0  0  0
    0.7257    1.4979   -0.6639 H   0  0  0  0  0  0  0  0  0  0  0  0
    2.9893    1.8773   -0.7950 H   0  0  0  0  0  0  0  0  0  0  0  0
    5.2068    1.9843   -1.5639 H   0  0  0  0  0  0  0  0  0  0  0  0
    7.5396    1.1968   -1.6468 H   0  0  0  0  0  0  0  0  0  0  0  0
    8.2214   -0.8593   -0.4397 H   0  0  0  0  0  0  0  0  0  0  0  0
    6.5514   -2.1365    0.8788 H   0  0  0  0  0  0  0  0  0  0  0  0
   -7.9571    0.6104   -1.0441 H   0  0  0  0  0  0  0  0  0  0  0  0
   -7.6315    0.1155    0.6251 H   0  0  0  0  0  0  0  0  0  0  0  0
   -7.4311   -1.0468   -0.7041 H   0  0  0  0  0  0  0  0  0  0  0  0
   -5.8913    2.0856   -2.0407 H   0  0  0  0  0  0  0  0  0  0  0  0
   -2.2155    1.6699   -2.3048 H   0  0  0  0  0  0  0  0  0  0  0  0
   -2.4211    2.8452   -0.9739 H   0  0  0  0  0  0  0  0  0  0  0  0
   -3.3814    2.9842   -2.4453 H   0  0  0  0  0  0  0  0  0  0  0  0
  1  2  1  0
  2  3  2  0
  3  4  1  0
  4  5  1  0
  5  6  1  0
  6  7  2  3
  7  8  1  0
  8  9  2  0
  9 10  1  0
 10 11  2  0
 11 12  1  0
 12 13  2  0
 13 14  1  0
 14 15  2  0
 14 16  1  0
  4 17  2  0
 17 18  1  0
 18 19  1  0
 19 20  1  0
 20 21  2  0
 21 22  1  0
 21 23  1  0
 23 24  2  0
 24 25  1  0
 18 26  2  0
 26  2  1  0
 13  8  1  0
 24 19  1  0
  1 27  1  0
  1 28  1  0
  1 29  1  0
  3 30  1  0
  5 31  1  0
  7 32  1  0
  9 33  1  0
 10 34  1  0
 11 35  1  0
 12 36  1  0
 22 37  1  0
 22 38  1  0
 22 39  1  0
 23 40  1  0
 25 41  1  0
 25 42  1  0
 25 43  1  0
M  CHG  2  14   1  16  -1
M  END
$$$$
