
     RDKit          3D

 49 53  0  0  0  0  0  0  0  0999 V2000
    5.1704   -2.4912    3.1251 C   0  0  0  0  0  0  0  0  0  0  0  0
    4.6245   -1.9731    1.8266 C   0  0  0  0  0  0  0  0  0  0  0  0
    5.0524   -2.7571    0.3659 S   0  0  0  0  0  0  0  0  0  0  0  0
    4.1680   -1.6467   -0.5727 C   0  0  0  0  0  0  0  0  0  0  0  0
    4.1576   -1.7758   -1.9140 N   0  0  0  0  0  0  0  0  0  0  0  0
    3.4463   -0.8293   -2.5162 C   0  0  0  0  0  0  0  0  0  0  0  0
    2.7696    0.1645   -1.9309 N   0  0  0  0  0  0  0  0  0  0  0  0
    2.8003    0.2561   -0.5804 C   0  0  0  0  0  0  0  0  0  0  0  0
    1.9661    1.6298    0.1434 S   0  0  0  0  0  0  0  0  0  0  0  0
    0.2926    1.4050   -0.5858 C   0  0  0  0  0  0  0  0  0  0  0  0
   -0.2478    2.7878   -0.9811 C   0  0  0  0  0  0  0  0  0  0  0  0
   -0.6347    0.6997    0.4349 C   0  0  0  0  0  0  0  0  0  0  0  0
   -0.2839    0.3593    1.5653 O   0  0  0  0  0  0  0  0  0  0  0  0
   -1.9430    0.5057   -0.0445 N   0  0  0  0  0  0  0  0  0  0  0  0
   -3.0409    1.2078    0.5708 C   0  0  0  0  0  0  0  0  0  0  0  0
   -2.8295    1.9479    1.7573 C   0  0  0  0  0  0  0  0  0  0  0  0
   -3.8589    2.6509    2.3871 C   0  0  0  0  0  0  0  0  0  0  0  0
   -5.1327    2.6478    1.8404 C   0  0  0  0  0  0  0  0  0  0  0  0
   -5.3666    1.9485    0.6584 C   0  0  0  0  0  0  0  0  0  0  0  0
   -4.3345    1.2387    0.0200 C   0  0  0  0  0  0  0  0  0  0  0  0
   -4.7628    0.4988   -1.5349 S   0  0  0  0  0  0  0  0  0  0  0  0
   -3.3984   -0.6163   -1.7459 C   0  0  0  0  0  0  0  0  0  0  0  0
   -3.5734   -1.6366   -2.7050 C   0  0  0  0  0  0  0  0  0  0  0  0
   -2.5664   -2.5682   -2.9637 C   0  0  0  0  0  0  0  0  0  0  0  0
   -1.3726   -2.4937   -2.2557 C   0  0  0  0  0  0  0  0  0  0  0  0
   -1.1899   -1.4799   -1.3052 C   0  0  0  0  0  0  0  0  0  0  0  0
   -2.1891   -0.5088   -1.0385 C   0  0  0  0  0  0  0  0  0  0  0  0
    3.5225   -0.6740    0.1853 C   0  0  0  0  0  0  0  0  0  0  0  0
    3.7758   -0.8893    1.6115 C   0  0  0  0  0  0  0  0  0  0  0  0
    3.2049   -0.0643    2.7221 C   0  0  0  0  0  0  0  0  0  0  0  0
    5.8520   -3.3273    2.9827 H   0  0  0  0  0  0  0  0  0  0  0  0
    4.3577   -2.8369    3.7763 H   0  0  0  0  0  0  0  0  0  0  0  0
    5.7208   -1.7013    3.6489 H   0  0  0  0  0  0  0  0  0  0  0  0
    3.4097   -0.8672   -3.6038 H   0  0  0  0  0  0  0  0  0  0  0  0
    0.3599    0.7896   -1.4980 H   0  0  0  0  0  0  0  0  0  0  0  0
   -0.3978    3.4382   -0.1017 H   0  0  0  0  0  0  0  0  0  0  0  0
   -1.2237    2.7037   -1.4888 H   0  0  0  0  0  0  0  0  0  0  0  0
    0.4259    3.2830   -1.6884 H   0  0  0  0  0  0  0  0  0  0  0  0
   -1.8592    1.9831    2.2461 H   0  0  0  0  0  0  0  0  0  0  0  0
   -3.6557    3.1941    3.3084 H   0  0  0  0  0  0  0  0  0  0  0  0
   -5.9420    3.1878    2.3222 H   0  0  0  0  0  0  0  0  0  0  0  0
   -6.3690    1.9705    0.2264 H   0  0  0  0  0  0  0  0  0  0  0  0
   -4.5117   -1.7105   -3.2610 H   0  0  0  0  0  0  0  0  0  0  0  0
   -2.7210   -3.3543   -3.6999 H   0  0  0  0  0  0  0  0  0  0  0  0
   -0.5863   -3.2312   -2.4274 H   0  0  0  0  0  0  0  0  0  0  0  0
   -0.2506   -1.4989   -0.7493 H   0  0  0  0  0  0  0  0  0  0  0  0
    3.5253    0.9720    2.6431 H   0  0  0  0  0  0  0  0  0  0  0  0
    2.1163   -0.1155    2.7020 H   0  0  0  0  0  0  0  0  0  0  0  0
    3.5233   -0.4232    3.7076 H   0  0  0  0  0  0  0  0  0  0  0  0
  1  2  1  0
  2  3  1  0
  3  4  1  0
  4  5  2  0
  5  6  1  0
  6  7  2  0
  7  8  1  0
  8  9  1  0
  9 10  1  0
 10 11  1  0
 10 12  1  0
 12 13  2  0
 12 14  1  0
 14 15  1  0
 15 16  2  0
 16 17  1  0
 17 18  2  0
 18 19  1  0
 19 20  2  0
 20 21  1  0
 21 22  1  0
 22 23  2  0
 23 24  1  0
 24 25  2  0
 25 26  1  0
 26 27  2  0
  8 28  2  0
 28 29  1  0
 29 30  1  0
 29  2  2  0
 28  4  1  0
 27 14  1  0
 20 15  1  0
 27 22  1  0
  1 31  1  0
  1 32  1  0
  1 33  1  0
  6 34  1  0
 10 35  1  0
 11 36  1  0
 11 37  1  0
 11 38  1  0
 16 39  1  0
 17 40  1  0
 18 41  1  0
 19 42  1  0
 23 43  1  0
 24 44  1  0
 25 45  1  0
 26 46  1  0
 30 47  1  0
 30 48  1  0
 30 49  1  0
M  END
$$$$
