
     RDKit          3D

 57 59  0  0  0  0  0  0  0  0999 V2000
    9.5439   -1.5252   -2.4719 C   0  0  0  0  0  0  0  0  0  0  0  0
    8.9462   -0.7659   -1.4293 O   0  0  0  0  0  0  0  0  0  0  0  0
    7.9170   -1.3549   -0.7476 C   0  0  0  0  0  0  0  0  0  0  0  0
    7.4099   -2.6349   -0.9708 C   0  0  0  0  0  0  0  0  0  0  0  0
    6.3480   -3.1175   -0.1965 C   0  0  0  0  0  0  0  0  0  0  0  0
    5.7847   -2.3294    0.8158 C   0  0  0  0  0  0  0  0  0  0  0  0
    4.6262   -2.8365    1.6335 C   0  0  0  0  0  0  0  0  0  0  0  0
    3.3731   -2.4492    1.0423 N   0  0  0  0  0  0  0  0  0  0  0  0
    2.6782   -1.3359    1.4484 C   0  0  0  0  0  0  0  0  0  0  0  0
    2.9346   -0.6287    2.4129 O   0  0  0  0  0  0  0  0  0  0  0  0
    1.4680   -1.0037    0.5454 C   0  0  0  0  0  0  0  0  0  0  0  0
    1.2117   -1.7140   -0.4163 O   0  0  0  0  0  0  0  0  0  0  0  0
    0.7825    0.1213    0.9426 N   0  0  0  0  0  0  0  0  0  0  0  0
   -0.4842    0.5104    0.3472 C   0  0  0  0  0  0  0  0  0  0  0  0
   -1.7070   -0.0619    1.0935 C   0  0  0  0  0  0  0  0  0  0  0  0
   -1.7481   -1.4942    0.9672 O   0  0  0  0  0  0  0  0  0  0  0  0
   -3.1314   -1.8391    1.0344 C   0  0  0  0  0  0  0  0  0  0  0  0
   -3.8053   -0.7471    0.2367 C   0  0  0  0  0  0  0  0  0  0  0  0
   -2.9666    0.4414    0.4945 N   0  0  0  0  0  0  0  0  0  0  0  0
   -3.6596    1.7083    1.3674 S   0  0  0  0  0  6  0  0  0  0  0  0
   -4.2976    1.1261    2.5291 O   0  0  0  0  0  0  0  0  0  0  0  0
   -2.6672    2.7520    1.4987 O   0  0  0  0  0  0  0  0  0  0  0  0
   -4.9162    2.2970    0.2640 C   0  0  0  0  0  0  0  0  0  0  0  0
   -6.2610    2.2447    0.6371 C   0  0  0  0  0  0  0  0  0  0  0  0
   -7.2422    2.7087   -0.2456 C   0  0  0  0  0  0  0  0  0  0  0  0
   -6.8792    3.2244   -1.4926 C   0  0  0  0  0  0  0  0  0  0  0  0
   -7.7366    3.7055   -2.4431 O   0  0  0  0  0  0  0  0  0  0  0  0
   -9.1205    3.7207   -2.1157 C   0  0  0  0  0  0  0  0  0  0  0  0
   -5.5273    3.2747   -1.8503 C   0  0  0  0  0  0  0  0  0  0  0  0
   -4.5408    2.8159   -0.9762 C   0  0  0  0  0  0  0  0  0  0  0  0
    6.2911   -1.0414    1.0275 C   0  0  0  0  0  0  0  0  0  0  0  0
    7.3509   -0.5632    0.2536 C   0  0  0  0  0  0  0  0  0  0  0  0
   10.3371   -0.9163   -2.9163 H   0  0  0  0  0  0  0  0  0  0  0  0
    8.8188   -1.7537   -3.2599 H   0  0  0  0  0  0  0  0  0  0  0  0
   10.0049   -2.4383   -2.0810 H   0  0  0  0  0  0  0  0  0  0  0  0
    7.8147   -3.2835   -1.7402 H   0  0  0  0  0  0  0  0  0  0  0  0
    5.9637   -4.1163   -0.3919 H   0  0  0  0  0  0  0  0  0  0  0  0
    4.6948   -2.4651    2.6624 H   0  0  0  0  0  0  0  0  0  0  0  0
    4.6439   -3.9308    1.6814 H   0  0  0  0  0  0  0  0  0  0  0  0
    3.0862   -2.8551    0.1562 H   0  0  0  0  0  0  0  0  0  0  0  0
    1.1061    0.5683    1.7971 H   0  0  0  0  0  0  0  0  0  0  0  0
   -0.5076    1.6044    0.3498 H   0  0  0  0  0  0  0  0  0  0  0  0
   -0.4952    0.1735   -0.6959 H   0  0  0  0  0  0  0  0  0  0  0  0
   -1.6422    0.1629    2.1652 H   0  0  0  0  0  0  0  0  0  0  0  0
   -3.2953   -2.8353    0.6157 H   0  0  0  0  0  0  0  0  0  0  0  0
   -3.4462   -1.8330    2.0839 H   0  0  0  0  0  0  0  0  0  0  0  0
   -4.8571   -0.6315    0.5079 H   0  0  0  0  0  0  0  0  0  0  0  0
   -3.7526   -0.9601   -0.8369 H   0  0  0  0  0  0  0  0  0  0  0  0
   -6.5557    1.8510    1.6075 H   0  0  0  0  0  0  0  0  0  0  0  0
   -8.2790    2.6559    0.0710 H   0  0  0  0  0  0  0  0  0  0  0  0
   -9.3138    4.3565   -1.2453 H   0  0  0  0  0  0  0  0  0  0  0  0
   -9.4989    2.7055   -1.9564 H   0  0  0  0  0  0  0  0  0  0  0  0
   -9.6607    4.1474   -2.9663 H   0  0  0  0  0  0  0  0  0  0  0  0
   -5.2428    3.6804   -2.8189 H   0  0  0  0  0  0  0  0  0  0  0  0
   -3.4934    2.8670   -1.2642 H   0  0  0  0  0  0  0  0  0  0  0  0
    5.8594   -0.4007    1.7946 H   0  0  0  0  0  0  0  0  0  0  0  0
    7.7358    0.4382    0.4304 H   0  0  0  0  0  0  0  0  0  0  0  0
  1  2  1  0
  2  3  1  0
  3  4  2  0
  4  5  1  0
  5  6  2  0
  6  7  1  0
  7  8  1  0
  8  9  1  0
  9 10  2  0
  9 11  1  0
 11 12  2  0
 11 13  1  0
 13 14  1  0
 14 15  1  0
 15 16  1  0
 16 17  1  0
 17 18  1  0
 18 19  1  0
 19 20  1  0
 20 21  2  0
 20 22  2  0
 20 23  1  0
 23 24  2  0
 24 25  1  0
 25 26  2  0
 26 27  1  0
 27 28  1  0
 26 29  1  0
 29 30  2  0
  6 31  1  0
 31 32  2  0
 32  3  1  0
 19 15  1  0
 30 23  1  0
  1 33  1  0
  1 34  1  0
  1 35  1  0
  4 36  1  0
  5 37  1  0
  7 38  1  0
  7 39  1  0
  8 40  1  0
 13 41  1  0
 14 42  1  0
 14 43  1  0
 15 44  1  0
 17 45  1  0
 17 46  1  0
 18 47  1  0
 18 48  1  0
 24 49  1  0
 25 50  1  0
 28 51  1  0
 28 52  1  0
 28 53  1  0
 29 54  1  0
 30 55  1  0
 31 56  1  0
 32 57  1  0
M  END
$$$$
