
     RDKit          3D

 21 21  0  0  0  0  0  0  0  0999 V2000
   -3.8625    3.2831   -1.2792 C   0  0  0  0  0  3  0  0  0  0  0  0
   -3.0509    2.4564   -1.1108 N   0  0  0  0  0  4  0  0  0  0  0  0
   -2.0441    1.4230   -0.9103 C   0  0  0  0  0  0  0  0  0  0  0  0
   -1.3421    1.2761    0.2149 C   0  0  0  0  0  0  0  0  0  0  0  0
   -0.4305    0.1663    0.0989 C   0  0  0  0  0  0  0  0  0  0  0  0
    0.4096   -0.2265    1.0668 C   0  0  0  0  0  0  0  0  0  0  0  0
    1.3785   -1.3734    0.9765 C   0  0  0  0  0  0  0  0  0  0  0  0
    2.8090   -0.9067    1.1578 C   0  0  0  0  0  0  0  0  0  0  0  0
    3.2019    0.1847    1.5344 O   0  0  0  0  0  0  0  0  0  0  0  0
    3.6954   -1.8860    0.8780 O   0  0  0  0  0  0  0  0  0  0  0  0
   -0.6073   -0.4312   -1.2762 C   0  0  0  0  0  0  0  0  0  0  0  0
   -1.6934    0.4169   -1.9514 C   0  0  0  0  0  0  0  0  0  0  0  0
   -1.4375    1.8998    1.0926 H   0  0  0  0  0  0  0  0  0  0  0  0
    0.4226    0.3178    2.0113 H   0  0  0  0  0  0  0  0  0  0  0  0
    1.1524   -2.0949    1.7686 H   0  0  0  0  0  0  0  0  0  0  0  0
    1.3046   -1.8810    0.0094 H   0  0  0  0  0  0  0  0  0  0  0  0
    4.5666   -1.4678    1.0454 H   0  0  0  0  0  0  0  0  0  0  0  0
    0.3252   -0.3835   -1.8498 H   0  0  0  0  0  0  0  0  0  0  0  0
   -0.9254   -1.4781   -1.2133 H   0  0  0  0  0  0  0  0  0  0  0  0
   -1.3111    0.8995   -2.8567 H   0  0  0  0  0  0  0  0  0  0  0  0
   -2.5610   -0.1945   -2.2204 H   0  0  0  0  0  0  0  0  0  0  0  0
  1  2  3  0
  2  3  1  0
  3  4  2  0
  4  5  1  0
  5  6  2  3
  6  7  1  0
  7  8  1  0
  8  9  2  0
  8 10  1  0
  5 11  1  0
 11 12  1  0
 12  3  1  0
  4 13  1  0
  6 14  1  0
  7 15  1  0
  7 16  1  0
 10 17  1  0
 11 18  1  0
 11 19  1  0
 12 20  1  0
 12 21  1  0
M  CHG  2   1  -1   2   1
M  END
$$$$
