
     RDKit          3D

 42 41  0  0  0  0  0  0  0  0999 V2000
   -4.8991    1.3116    2.1332 C   0  0  0  0  0  0  0  0  0  0  0  0
   -5.1267    0.4934    0.8920 C   0  0  0  0  0  0  0  0  0  0  0  0
   -6.5747    0.1825    0.6138 C   0  0  0  0  0  0  0  0  0  0  0  0
   -4.1594    0.0428    0.0692 C   0  0  0  0  0  0  0  0  0  0  0  0
   -2.6758    0.2798    0.1697 C   0  0  0  0  0  0  0  0  0  0  0  0
   -1.9359   -0.9894    0.6066 C   0  0  0  0  0  0  0  0  0  0  0  0
   -0.4291   -0.8039    0.6406 C   0  0  0  0  0  0  0  0  0  0  0  0
    0.0991   -0.0773    1.8490 C   0  0  0  0  0  0  0  0  0  0  0  0
    0.3357   -1.2884   -0.3590 C   0  0  0  0  0  0  0  0  0  0  0  0
    1.8353   -1.2389   -0.4771 C   0  0  0  0  0  0  0  0  0  0  0  0
    2.2875   -0.0959   -1.3922 C   0  0  0  0  0  0  0  0  0  0  0  0
    3.7981   -0.0319   -1.5465 C   0  0  0  0  0  0  0  0  0  0  0  0
    4.3872   -1.0570   -2.4787 C   0  0  0  0  0  0  0  0  0  0  0  0
    4.5023    0.9123   -0.8893 C   0  0  0  0  0  0  0  0  0  0  0  0
    5.9742    1.1703   -0.9191 C   0  0  0  0  0  0  0  0  0  0  0  0
    6.5016    0.8728    0.3651 O   0  0  0  0  0  0  0  0  0  0  0  0
   -3.8440    1.4138    2.4006 H   0  0  0  0  0  0  0  0  0  0  0  0
   -5.3139    2.3168    2.0005 H   0  0  0  0  0  0  0  0  0  0  0  0
   -5.3965    0.8418    2.9885 H   0  0  0  0  0  0  0  0  0  0  0  0
   -7.1374    1.1101    0.4578 H   0  0  0  0  0  0  0  0  0  0  0  0
   -7.0159   -0.3569    1.4599 H   0  0  0  0  0  0  0  0  0  0  0  0
   -6.7032   -0.4409   -0.2798 H   0  0  0  0  0  0  0  0  0  0  0  0
   -4.4522   -0.5524   -0.7966 H   0  0  0  0  0  0  0  0  0  0  0  0
   -2.3190    0.5930   -0.8197 H   0  0  0  0  0  0  0  0  0  0  0  0
   -2.4462    1.1112    0.8424 H   0  0  0  0  0  0  0  0  0  0  0  0
   -2.1958   -1.8119   -0.0730 H   0  0  0  0  0  0  0  0  0  0  0  0
   -2.2807   -1.3075    1.5992 H   0  0  0  0  0  0  0  0  0  0  0  0
   -0.3910    0.8958    1.9573 H   0  0  0  0  0  0  0  0  0  0  0  0
   -0.0970   -0.6625    2.7543 H   0  0  0  0  0  0  0  0  0  0  0  0
    1.1733    0.1160    1.8014 H   0  0  0  0  0  0  0  0  0  0  0  0
   -0.1571   -1.7906   -1.1920 H   0  0  0  0  0  0  0  0  0  0  0  0
    2.1685   -2.2043   -0.8787 H   0  0  0  0  0  0  0  0  0  0  0  0
    2.3114   -1.1501    0.5050 H   0  0  0  0  0  0  0  0  0  0  0  0
    1.8298   -0.1961   -2.3856 H   0  0  0  0  0  0  0  0  0  0  0  0
    1.9104    0.8547   -0.9898 H   0  0  0  0  0  0  0  0  0  0  0  0
    4.1748   -2.0687   -2.1185 H   0  0  0  0  0  0  0  0  0  0  0  0
    3.9546   -0.9494   -3.4788 H   0  0  0  0  0  0  0  0  0  0  0  0
    5.4707   -0.9772   -2.5840 H   0  0  0  0  0  0  0  0  0  0  0  0
    3.9616    1.6046   -0.2440 H   0  0  0  0  0  0  0  0  0  0  0  0
    6.1621    2.2280   -1.1299 H   0  0  0  0  0  0  0  0  0  0  0  0
    6.5164    0.5837   -1.6630 H   0  0  0  0  0  0  0  0  0  0  0  0
    6.1959   -0.0238    0.5893 H   0  0  0  0  0  0  0  0  0  0  0  0
  1  2  1  0
  2  3  1  0
  2  4  2  3
  4  5  1  0
  5  6  1  0
  6  7  1  0
  7  8  1  0
  7  9  2  3
  9 10  1  0
 10 11  1  0
 11 12  1  0
 12 13  1  0
 12 14  2  3
 14 15  1  0
 15 16  1  0
  1 17  1  0
  1 18  1  0
  1 19  1  0
  3 20  1  0
  3 21  1  0
  3 22  1  0
  4 23  1  0
  5 24  1  0
  5 25  1  0
  6 26  1  0
  6 27  1  0
  8 28  1  0
  8 29  1  0
  8 30  1  0
  9 31  1  0
 10 32  1  0
 10 33  1  0
 11 34  1  0
 11 35  1  0
 13 36  1  0
 13 37  1  0
 13 38  1  0
 14 39  1  0
 15 40  1  0
 15 41  1  0
 16 42  1  0
M  END
$$$$
