
     RDKit          3D

 48 51  0  0  0  0  0  0  0  0999 V2000
    1.2563   -1.8410   -0.6075 C   0  0  0  0  0  0  0  0  0  0  0  0
    1.7742   -0.6260   -1.3622 C   0  0  0  0  0  0  0  0  0  0  0  0
    2.4116    0.3247   -0.4541 N   0  0  0  0  0  0  0  0  0  0  0  0
    1.9271    1.5564    0.0017 C   0  0  0  0  0  0  0  0  0  0  0  0
    0.6734    2.0336    0.1192 C   0  0  0  0  0  0  0  0  0  0  0  0
   -0.5762    1.3399   -0.1856 C   0  0  0  0  0  0  0  0  0  0  0  0
   -1.1332    1.5364   -1.4485 C   0  0  0  0  0  0  0  0  0  0  0  0
   -2.3271    0.9264   -1.7807 C   0  0  0  0  0  0  0  0  0  0  0  0
   -2.9770    0.1391   -0.8384 C   0  0  0  0  0  0  0  0  0  0  0  0
   -4.1942   -0.4744   -1.1738 C   0  0  0  0  0  0  0  0  0  0  0  0
   -4.8818   -1.2663   -0.2506 C   0  0  0  0  0  0  0  0  0  0  0  0
   -6.2004   -1.8884   -0.6129 C   0  0  0  0  0  0  0  0  0  0  0  0
   -4.3559   -1.4164    1.0305 C   0  0  0  0  0  0  0  0  0  0  0  0
   -3.1419   -0.8112    1.3779 C   0  0  0  0  0  0  0  0  0  0  0  0
   -2.4156   -0.0311    0.4573 C   0  0  0  0  0  0  0  0  0  0  0  0
   -1.2135    0.5741    0.7524 N   0  0  0  0  0  4  0  0  0  0  0  0
   -0.5884    0.3978    2.1012 C   0  0  0  0  0  0  0  0  0  0  0  0
   -1.1192    1.4508    3.0555 C   0  0  0  0  0  0  0  0  0  0  0  0
    3.2020    2.6468    0.6367 S   0  0  0  0  0  0  0  0  0  0  0  0
    4.4032    1.3706    0.3133 C   0  0  0  0  0  0  0  0  0  0  0  0
    5.7636    1.4578    0.5763 C   0  0  0  0  0  0  0  0  0  0  0  0
    6.5727    0.3710    0.2533 C   0  0  0  0  0  0  0  0  0  0  0  0
    6.0145   -0.7759   -0.3221 C   0  0  0  0  0  0  0  0  0  0  0  0
    4.6400   -0.8517   -0.5840 C   0  0  0  0  0  0  0  0  0  0  0  0
    3.8168    0.2271   -0.2708 C   0  0  0  0  0  0  0  0  0  0  0  0
    0.5345   -1.5571    0.1622 H   0  0  0  0  0  0  0  0  0  0  0  0
    0.7609   -2.5308   -1.2978 H   0  0  0  0  0  0  0  0  0  0  0  0
    2.0672   -2.3834   -0.1119 H   0  0  0  0  0  0  0  0  0  0  0  0
    2.4577   -0.9446   -2.1589 H   0  0  0  0  0  0  0  0  0  0  0  0
    0.9459   -0.1546   -1.8967 H   0  0  0  0  0  0  0  0  0  0  0  0
    0.5143    3.0370    0.5149 H   0  0  0  0  0  0  0  0  0  0  0  0
   -0.6305    2.1634   -2.1846 H   0  0  0  0  0  0  0  0  0  0  0  0
   -2.7464    1.0797   -2.7750 H   0  0  0  0  0  0  0  0  0  0  0  0
   -4.6233   -0.3365   -2.1675 H   0  0  0  0  0  0  0  0  0  0  0  0
   -6.2259   -2.1562   -1.6744 H   0  0  0  0  0  0  0  0  0  0  0  0
   -7.0142   -1.1874   -0.4036 H   0  0  0  0  0  0  0  0  0  0  0  0
   -6.3690   -2.8076   -0.0421 H   0  0  0  0  0  0  0  0  0  0  0  0
   -4.8919   -2.0078    1.7734 H   0  0  0  0  0  0  0  0  0  0  0  0
   -2.8112   -0.9733    2.3990 H   0  0  0  0  0  0  0  0  0  0  0  0
   -0.7828   -0.6179    2.4551 H   0  0  0  0  0  0  0  0  0  0  0  0
    0.4985    0.4564    2.0210 H   0  0  0  0  0  0  0  0  0  0  0  0
   -0.8874    2.4600    2.7015 H   0  0  0  0  0  0  0  0  0  0  0  0
   -2.2054    1.3828    3.1666 H   0  0  0  0  0  0  0  0  0  0  0  0
   -0.6683    1.3258    4.0446 H   0  0  0  0  0  0  0  0  0  0  0  0
    6.1933    2.3507    1.0199 H   0  0  0  0  0  0  0  0  0  0  0  0
    7.6425    0.4137    0.4474 H   0  0  0  0  0  0  0  0  0  0  0  0
    6.6581   -1.6186   -0.5682 H   0  0  0  0  0  0  0  0  0  0  0  0
    4.2523   -1.7644   -1.0227 H   0  0  0  0  0  0  0  0  0  0  0  0
  1  2  1  0
  2  3  1  0
  3  4  1  0
  4  5  2  3
  5  6  1  0
  6  7  2  0
  7  8  1  0
  8  9  2  0
  9 10  1  0
 10 11  2  0
 11 12  1  0
 11 13  1  0
 13 14  2  0
 14 15  1  0
 15 16  2  0
 16 17  1  0
 17 18  1  0
  4 19  1  0
 19 20  1  0
 20 21  2  0
 21 22  1  0
 22 23  2  0
 23 24  1  0
 24 25  2  0
 25  3  1  0
 16  6  1  0
 25 20  1  0
 15  9  1  0
  1 26  1  0
  1 27  1  0
  1 28  1  0
  2 29  1  0
  2 30  1  0
  5 31  1  0
  7 32  1  0
  8 33  1  0
 10 34  1  0
 12 35  1  0
 12 36  1  0
 12 37  1  0
 13 38  1  0
 14 39  1  0
 17 40  1  0
 17 41  1  0
 18 42  1  0
 18 43  1  0
 18 44  1  0
 21 45  1  0
 22 46  1  0
 23 47  1  0
 24 48  1  0
M  CHG  1  16   1
M  END
$$$$
