
     RDKit          3D

 70 76  0  0  0  0  0  0  0  0999 V2000
   -5.3921   -4.5003    0.4859 C   0  0  0  0  0  0  0  0  0  0  0  0
   -4.1179   -3.7332    0.6775 C   0  0  0  0  0  0  0  0  0  0  0  0
   -3.2110   -4.0601    1.7035 C   0  0  0  0  0  0  0  0  0  0  0  0
   -3.5241   -5.3664    2.7946 Cl  0  0  0  0  0  0  0  0  0  0  0  0
   -2.0161   -3.3385    1.8901 C   0  0  0  0  0  0  0  0  0  0  0  0
   -1.6859   -2.2722    1.0531 C   0  0  0  0  0  0  0  0  0  0  0  0
   -2.5645   -1.9459    0.0303 C   0  0  0  0  0  0  0  0  0  0  0  0
   -3.7582   -2.6657   -0.1373 C   0  0  0  0  0  0  0  0  0  0  0  0
   -4.4819   -2.1280   -1.1987 N   0  0  0  0  0  0  0  0  0  0  0  0
   -3.8258   -1.0443   -1.7878 C   0  0  0  0  0  0  0  0  0  0  0  0
   -4.2761   -0.3964   -2.7203 O   0  0  0  0  0  0  0  0  0  0  0  0
   -2.4895   -0.8637   -1.0213 C   0  0  1  0  0  0  0  0  0  0  0  0
   -2.3714    0.4248   -0.3010 C   0  0  0  0  0  0  0  0  0  0  0  0
   -1.1931    1.0780   -0.6625 C   0  0  0  0  0  0  0  0  0  0  0  0
   -1.1181    2.2689    0.0018 C   0  0  0  0  0  0  0  0  0  0  0  0
   -0.2159    3.2348   -0.1603 O   0  0  0  0  0  0  0  0  0  0  0  0
   -2.2325    2.3348    0.8630 N   0  0  0  0  0  0  0  0  0  0  0  0
   -2.4832    3.3573    1.8326 C   0  0  0  0  0  0  0  0  0  0  0  0
   -1.4130    3.9935    2.4810 C   0  0  0  0  0  0  0  0  0  0  0  0
   -1.6547    4.9977    3.4219 C   0  0  0  0  0  0  0  0  0  0  0  0
   -2.9617    5.3704    3.7262 C   0  0  0  0  0  0  0  0  0  0  0  0
   -4.0295    4.7339    3.0974 C   0  0  0  0  0  0  0  0  0  0  0  0
   -3.7940    3.7269    2.1574 C   0  0  0  0  0  0  0  0  0  0  0  0
   -3.0345    1.2007    0.6183 C   0  0  0  0  0  0  0  0  0  0  0  0
   -4.1719    0.9726    1.2714 O   0  0  0  0  0  0  0  0  0  0  0  0
   -0.4391    0.3404   -1.6949 C   0  0  1  0  0  0  0  0  0  0  0  0
    0.9957   -0.0361   -1.2771 C   0  0  0  0  0  0  0  0  0  0  0  0
    1.6164   -1.0227   -2.1781 N   0  0  0  0  0  0  0  0  0  0  0  0
    2.9823   -1.2420   -2.2848 C   0  0  0  0  0  0  0  0  0  0  0  0
    3.4489   -2.0724   -3.0651 O   0  0  0  0  0  0  0  0  0  0  0  0
    3.8778   -0.4072   -1.3852 C   0  0  0  0  0  0  0  0  0  0  0  0
    5.3437   -0.8207   -1.5062 C   0  0  0  0  0  0  0  0  0  0  0  0
    6.2198   -0.0249   -0.5695 C   0  0  0  0  0  0  0  0  0  0  0  0
    6.7056    1.2336   -0.9485 C   0  0  0  0  0  0  0  0  0  0  0  0
    7.4989    1.9777   -0.0737 C   0  0  0  0  0  0  0  0  0  0  0  0
    7.8111    1.4727    1.1874 C   0  0  0  0  0  0  0  0  0  0  0  0
    7.3295    0.2238    1.5756 C   0  0  0  0  0  0  0  0  0  0  0  0
    6.5352   -0.5216    0.7025 C   0  0  0  0  0  0  0  0  0  0  0  0
    0.6994   -1.8424   -2.9813 C   0  0  0  0  0  0  0  0  0  0  0  0
   -0.6388   -2.0837   -2.2562 C   0  0  0  0  0  0  0  0  0  0  0  0
   -1.3298   -0.8354   -1.9553 N   0  0  0  0  0  0  0  0  0  0  0  0
   -6.0082   -4.4460    1.3899 H   0  0  0  0  0  0  0  0  0  0  0  0
   -5.1730   -5.5483    0.2568 H   0  0  0  0  0  0  0  0  0  0  0  0
   -5.9976   -4.1100   -0.3369 H   0  0  0  0  0  0  0  0  0  0  0  0
   -1.3381   -3.6101    2.6975 H   0  0  0  0  0  0  0  0  0  0  0  0
   -0.7655   -1.7162    1.2052 H   0  0  0  0  0  0  0  0  0  0  0  0
   -5.3756   -2.4501   -1.5400 H   0  0  0  0  0  0  0  0  0  0  0  0
   -0.6167    4.0806    0.1147 H   0  0  0  0  0  0  0  0  0  0  0  0
   -0.3826    3.6890    2.3113 H   0  0  0  0  0  0  0  0  0  0  0  0
   -0.8225    5.4793    3.9293 H   0  0  0  0  0  0  0  0  0  0  0  0
   -3.1492    6.1502    4.4599 H   0  0  0  0  0  0  0  0  0  0  0  0
   -5.0504    5.0215    3.3357 H   0  0  0  0  0  0  0  0  0  0  0  0
   -4.6508    3.2706    1.6688 H   0  0  0  0  0  0  0  0  0  0  0  0
   -4.5276    0.1149    0.9806 H   0  0  0  0  0  0  0  0  0  0  0  0
   -0.3994    0.9297   -2.6199 H   0  0  0  0  0  0  0  0  0  0  0  0
    1.0045   -0.4830   -0.2748 H   0  0  0  0  0  0  0  0  0  0  0  0
    1.6146    0.8655   -1.2310 H   0  0  0  0  0  0  0  0  0  0  0  0
    3.7713    0.6458   -1.6694 H   0  0  0  0  0  0  0  0  0  0  0  0
    3.5434   -0.5259   -0.3481 H   0  0  0  0  0  0  0  0  0  0  0  0
    5.6968   -0.6847   -2.5366 H   0  0  0  0  0  0  0  0  0  0  0  0
    5.4579   -1.8915   -1.2940 H   0  0  0  0  0  0  0  0  0  0  0  0
    6.4710    1.6398   -1.9300 H   0  0  0  0  0  0  0  0  0  0  0  0
    7.8748    2.9513   -0.3773 H   0  0  0  0  0  0  0  0  0  0  0  0
    8.4312    2.0518    1.8665 H   0  0  0  0  0  0  0  0  0  0  0  0
    7.5740   -0.1711    2.5582 H   0  0  0  0  0  0  0  0  0  0  0  0
    6.1672   -1.4950    1.0190 H   0  0  0  0  0  0  0  0  0  0  0  0
    0.5345   -1.3115   -3.9271 H   0  0  0  0  0  0  0  0  0  0  0  0
    1.1644   -2.8049   -3.2209 H   0  0  0  0  0  0  0  0  0  0  0  0
   -1.2803   -2.7146   -2.8822 H   0  0  0  0  0  0  0  0  0  0  0  0
   -0.4083   -2.6459   -1.3450 H   0  0  0  0  0  0  0  0  0  0  0  0
  1  2  1  0
  2  3  2  0
  3  4  1  0
  3  5  1  0
  5  6  2  0
  6  7  1  0
  7  8  2  0
  8  9  1  0
  9 10  1  0
 10 11  2  0
 10 12  1  0
 12 13  1  0
 13 14  1  0
 14 15  2  0
 15 16  1  0
 15 17  1  0
 17 18  1  0
 18 19  2  0
 19 20  1  0
 20 21  2  0
 21 22  1  0
 22 23  2  0
 17 24  1  0
 24 25  1  0
 14 26  1  0
 26 27  1  0
 27 28  1  0
 28 29  1  0
 29 30  2  0
 29 31  1  0
 31 32  1  0
 32 33  1  0
 33 34  2  0
 34 35  1  0
 35 36  2  0
 36 37  1  0
 37 38  2  0
 28 39  1  0
 39 40  1  0
 40 41  1  0
  8  2  1  0
 12 41  1  6
 12  7  1  0
 24 13  2  0
 41 26  1  0
 23 18  1  0
 38 33  1  0
  1 42  1  0
  1 43  1  0
  1 44  1  0
  5 45  1  0
  6 46  1  0
  9 47  1  0
 16 48  1  0
 19 49  1  0
 20 50  1  0
 21 51  1  0
 22 52  1  0
 23 53  1  0
 25 54  1  0
 26 55  1  6
 27 56  1  0
 27 57  1  0
 31 58  1  0
 31 59  1  0
 32 60  1  0
 32 61  1  0
 34 62  1  0
 35 63  1  0
 36 64  1  0
 37 65  1  0
 38 66  1  0
 39 67  1  0
 39 68  1  0
 40 69  1  0
 40 70  1  0
M  END
$$$$
