
     RDKit          3D

 53 56  0  0  0  0  0  0  0  0999 V2000
   -6.4398    3.9119   -1.5781 C   0  0  0  0  0  0  0  0  0  0  0  0
   -5.5068    2.8064   -1.1871 C   0  0  0  0  0  0  0  0  0  0  0  0
   -4.9235    1.9971   -2.1642 C   0  0  0  0  0  0  0  0  0  0  0  0
   -4.0198    0.9937   -1.8047 C   0  0  0  0  0  0  0  0  0  0  0  0
   -3.6844    0.7765   -0.4574 C   0  0  0  0  0  0  0  0  0  0  0  0
   -2.7427   -0.2516   -0.1418 N   0  0  0  0  0  0  0  0  0  0  0  0
   -1.9722   -0.7530   -1.1447 N   0  0  0  0  0  0  0  0  0  0  0  0
   -1.0533   -1.5053   -0.5387 C   0  0  0  0  0  0  0  0  0  0  0  0
    0.0546   -2.1967   -1.1822 C   0  0  0  0  0  0  0  0  0  0  0  0
    0.2927   -2.1358   -2.3853 O   0  0  0  0  0  0  0  0  0  0  0  0
    0.8333   -2.9388   -0.2700 N   0  0  0  0  0  0  0  0  0  0  0  0
    1.9835   -3.6778   -0.7906 C   0  0  0  0  0  0  0  0  0  0  0  0
    3.2291   -2.7948   -0.8500 C   0  0  0  0  0  0  0  0  0  0  0  0
    4.1288   -2.9829   -1.6637 O   0  0  0  0  0  0  0  0  0  0  0  0
    3.3231   -1.8672    0.1680 N   0  0  0  0  0  0  0  0  0  0  0  0
    4.4045   -0.9052    0.2457 C   0  0  0  0  0  0  0  0  0  0  0  0
    4.1420    0.3241   -0.6299 C   0  0  0  0  0  0  0  0  0  0  0  0
    5.2592    1.3261   -0.5521 C   0  0  0  0  0  0  0  0  0  0  0  0
    5.7956    1.9406    0.5692 C   0  0  0  0  0  0  0  0  0  0  0  0
    6.8553    2.8349    0.2407 C   0  0  0  0  0  0  0  0  0  0  0  0
    7.0794    2.8906   -1.1230 C   0  0  0  0  0  0  0  0  0  0  0  0
    6.0252    1.8623   -1.9955 S   0  0  0  0  0  0  0  0  0  0  0  0
    0.6220   -2.9940    1.1156 N   0  0  0  0  0  0  0  0  0  0  0  0
   -0.3858   -2.3726    1.6658 C   0  0  0  0  0  0  0  0  0  0  0  0
   -0.5681   -2.4862    3.1523 C   0  0  0  0  0  0  0  0  0  0  0  0
   -1.2755   -1.5943    0.8388 C   0  0  0  0  0  0  0  0  0  0  0  0
   -2.4309   -0.8669    1.0786 C   0  0  0  0  0  0  0  0  0  0  0  0
   -3.2526   -0.7619    2.3124 C   0  0  0  0  0  0  0  0  0  0  0  0
   -4.2439    1.6111    0.5156 C   0  0  0  0  0  0  0  0  0  0  0  0
   -5.1481    2.6167    0.1512 C   0  0  0  0  0  0  0  0  0  0  0  0
   -7.1645    4.1157   -0.7798 H   0  0  0  0  0  0  0  0  0  0  0  0
   -5.8699    4.8254   -1.7819 H   0  0  0  0  0  0  0  0  0  0  0  0
   -7.0081    3.6404   -2.4756 H   0  0  0  0  0  0  0  0  0  0  0  0
   -5.1620    2.1410   -3.2168 H   0  0  0  0  0  0  0  0  0  0  0  0
   -3.5869    0.3827   -2.5962 H   0  0  0  0  0  0  0  0  0  0  0  0
    2.1864   -4.5350   -0.1408 H   0  0  0  0  0  0  0  0  0  0  0  0
    1.7639   -4.0391   -1.8005 H   0  0  0  0  0  0  0  0  0  0  0  0
    2.5328   -1.7980    0.8032 H   0  0  0  0  0  0  0  0  0  0  0  0
    4.4915   -0.6175    1.2988 H   0  0  0  0  0  0  0  0  0  0  0  0
    5.3406   -1.3965   -0.0446 H   0  0  0  0  0  0  0  0  0  0  0  0
    3.2114    0.8103   -0.3077 H   0  0  0  0  0  0  0  0  0  0  0  0
    3.9739    0.0023   -1.6659 H   0  0  0  0  0  0  0  0  0  0  0  0
    5.4522    1.7534    1.5829 H   0  0  0  0  0  0  0  0  0  0  0  0
    7.4203    3.4122    0.9665 H   0  0  0  0  0  0  0  0  0  0  0  0
    7.8137    3.4838   -1.6520 H   0  0  0  0  0  0  0  0  0  0  0  0
    0.3143   -2.9490    3.6091 H   0  0  0  0  0  0  0  0  0  0  0  0
   -0.7098   -1.4942    3.5927 H   0  0  0  0  0  0  0  0  0  0  0  0
   -1.4387   -3.1148    3.3660 H   0  0  0  0  0  0  0  0  0  0  0  0
   -4.3162   -0.6337    2.0877 H   0  0  0  0  0  0  0  0  0  0  0  0
   -2.9075    0.0669    2.9397 H   0  0  0  0  0  0  0  0  0  0  0  0
   -3.1890   -1.6804    2.9042 H   0  0  0  0  0  0  0  0  0  0  0  0
   -3.9692    1.5538    1.5610 H   0  0  0  0  0  0  0  0  0  0  0  0
   -5.5598    3.2633    0.9232 H   0  0  0  0  0  0  0  0  0  0  0  0
  1  2  1  0
  2  3  2  0
  3  4  1  0
  4  5  2  0
  5  6  1  0
  6  7  1  0
  7  8  2  0
  8  9  1  0
  9 10  2  0
  9 11  1  0
 11 12  1  0
 12 13  1  0
 13 14  2  0
 13 15  1  0
 15 16  1  0
 16 17  1  0
 17 18  1  0
 18 19  2  0
 19 20  1  0
 20 21  2  0
 21 22  1  0
 11 23  1  0
 23 24  2  0
 24 25  1  0
 24 26  1  0
 26 27  2  0
 27 28  1  0
  5 29  1  0
 29 30  2  0
 30  2  1  0
 27  6  1  0
 26  8  1  0
 22 18  1  0
  1 31  1  0
  1 32  1  0
  1 33  1  0
  3 34  1  0
  4 35  1  0
 12 36  1  0
 12 37  1  0
 15 38  1  0
 16 39  1  0
 16 40  1  0
 17 41  1  0
 17 42  1  0
 19 43  1  0
 20 44  1  0
 21 45  1  0
 25 46  1  0
 25 47  1  0
 25 48  1  0
 28 49  1  0
 28 50  1  0
 28 51  1  0
 29 52  1  0
 30 53  1  0
M  END
$$$$
