
     RDKit          3D

 35 37  0  0  0  0  0  0  0  0999 V2000
   -1.9110   -3.4207   -0.8105 C   0  0  0  0  0  0  0  0  0  0  0  0
   -1.9973   -1.8982   -0.8730 C   0  0  0  0  0  0  0  0  0  0  0  0
   -2.5578   -1.4637    0.3666 O   0  0  0  0  0  0  0  0  0  0  0  0
   -3.0608   -0.1942    0.4440 C   0  0  0  0  0  0  0  0  0  0  0  0
   -3.6549    0.1158    1.6717 C   0  0  0  0  0  0  0  0  0  0  0  0
   -4.2009    1.3805    1.9018 C   0  0  0  0  0  0  0  0  0  0  0  0
   -4.1504    2.3420    0.8973 C   0  0  0  0  0  0  0  0  0  0  0  0
   -4.8850    4.0567    1.1984 Br  0  0  0  0  0  0  0  0  0  0  0  0
   -3.5595    2.0465   -0.3292 C   0  0  0  0  0  0  0  0  0  0  0  0
   -3.0140    0.7777   -0.5569 C   0  0  0  0  0  0  0  0  0  0  0  0
   -0.5834   -1.3369   -1.1135 C   0  0  0  0  0  0  0  0  0  0  0  0
   -0.2060   -1.0710   -2.2509 O   0  0  0  0  0  0  0  0  0  0  0  0
    0.1442   -1.2288    0.0506 N   0  0  0  0  0  0  0  0  0  0  0  0
    1.4321   -0.7817    0.1876 C   0  0  0  0  0  0  0  0  0  0  0  0
    2.0063   -0.6530    1.3644 N   0  0  0  0  0  0  0  0  0  0  0  0
    3.3052   -0.1911    1.2618 N   0  0  0  0  0  0  0  0  0  0  0  0
    3.6440    0.0096    0.0080 C   0  0  0  0  0  0  0  0  0  0  0  0
    5.0564    0.5285   -0.4013 C   0  0  0  0  0  0  0  0  0  0  0  0
    5.7237    1.5868    0.4402 C   0  0  0  0  0  0  0  0  0  0  0  0
    5.2016    1.9360   -0.9229 C   0  0  0  0  0  0  0  0  0  0  0  0
    2.4284   -0.3655   -1.1315 S   0  0  0  0  0  0  0  0  0  0  0  0
   -1.4722   -3.8323   -1.7251 H   0  0  0  0  0  0  0  0  0  0  0  0
   -2.9076   -3.8540   -0.6727 H   0  0  0  0  0  0  0  0  0  0  0  0
   -1.3026   -3.7503    0.0396 H   0  0  0  0  0  0  0  0  0  0  0  0
   -2.6499   -1.6272   -1.7119 H   0  0  0  0  0  0  0  0  0  0  0  0
   -3.6956   -0.6341    2.4586 H   0  0  0  0  0  0  0  0  0  0  0  0
   -4.6593    1.6014    2.8619 H   0  0  0  0  0  0  0  0  0  0  0  0
   -3.5154    2.7957   -1.1161 H   0  0  0  0  0  0  0  0  0  0  0  0
   -2.5605    0.5961   -1.5265 H   0  0  0  0  0  0  0  0  0  0  0  0
   -0.3289   -1.4069    0.9292 H   0  0  0  0  0  0  0  0  0  0  0  0
    5.6984   -0.2343   -0.8288 H   0  0  0  0  0  0  0  0  0  0  0  0
    6.7969    1.5222    0.5754 H   0  0  0  0  0  0  0  0  0  0  0  0
    5.1929    1.9711    1.3048 H   0  0  0  0  0  0  0  0  0  0  0  0
    5.9210    2.1096   -1.7148 H   0  0  0  0  0  0  0  0  0  0  0  0
    4.3220    2.5677   -0.9782 H   0  0  0  0  0  0  0  0  0  0  0  0
  1  2  1  0
  2  3  1  0
  3  4  1  0
  4  5  2  0
  5  6  1  0
  6  7  2  0
  7  8  1  0
  7  9  1  0
  9 10  2  0
  2 11  1  0
 11 12  2  0
 11 13  1  0
 13 14  1  0
 14 15  2  0
 15 16  1  0
 16 17  2  0
 17 18  1  0
 18 19  1  0
 19 20  1  0
 17 21  1  0
 10  4  1  0
 21 14  1  0
 20 18  1  0
  1 22  1  0
  1 23  1  0
  1 24  1  0
  2 25  1  0
  5 26  1  0
  6 27  1  0
  9 28  1  0
 10 29  1  0
 13 30  1  0
 18 31  1  0
 19 32  1  0
 19 33  1  0
 20 34  1  0
 20 35  1  0
M  END
$$$$
