
     RDKit          3D

 39 41  0  0  0  0  0  0  0  0999 V2000
    1.7725   -2.2405   -1.9809 O   0  0  0  0  0  0  0  0  0  0  0  0
    1.5610   -1.2964   -1.2261 C   0  0  0  0  0  0  0  0  0  0  0  0
    2.6643   -0.4379   -0.7137 C   0  0  0  0  0  0  0  0  0  0  0  0
    3.9374   -0.8170   -0.9047 C   0  0  0  0  0  0  0  0  0  0  0  0
    5.1020   -0.0356   -0.4690 C   0  0  0  0  0  0  0  0  0  0  0  0
    6.2501   -0.0326   -1.2734 C   0  0  0  0  0  0  0  0  0  0  0  0
    7.3916    0.6749   -0.8850 C   0  0  0  0  0  0  0  0  0  0  0  0
    7.3929    1.3752    0.3187 C   0  0  0  0  0  0  0  0  0  0  0  0
    8.9350    2.3315    0.8475 Br  0  0  0  0  0  0  0  0  0  0  0  0
    6.2666    1.3701    1.1382 C   0  0  0  0  0  0  0  0  0  0  0  0
    5.1261    0.6617    0.7470 C   0  0  0  0  0  0  0  0  0  0  0  0
    0.1659   -0.9601   -0.8320 C   0  0  0  0  0  0  0  0  0  0  0  0
   -0.1477   -0.3080    0.3640 C   0  0  0  0  0  0  0  0  0  0  0  0
   -1.4825   -0.0237    0.6868 C   0  0  0  0  0  0  0  0  0  0  0  0
   -2.5199   -0.3938   -0.1714 C   0  0  0  0  0  0  0  0  0  0  0  0
   -3.8866   -0.1484    0.0790 N   0  0  0  0  0  0  0  0  0  0  0  0
   -4.4509    0.5137    1.1632 C   0  0  0  0  0  0  0  0  0  0  0  0
   -3.8001    1.0105    2.0780 O   0  0  0  0  0  0  0  0  0  0  0  0
   -5.9082    0.5794    1.1254 C   0  0  0  0  0  0  0  0  0  0  0  0
   -6.8721    0.0867    0.2584 C   0  0  0  0  0  0  0  0  0  0  0  0
   -8.1336    0.4857    0.7682 C   0  0  0  0  0  0  0  0  0  0  0  0
   -7.8738    1.1957    1.9137 C   0  0  0  0  0  0  0  0  0  0  0  0
   -6.5391    1.2577    2.1391 O   0  0  0  0  0  0  0  0  0  0  0  0
   -2.2019   -1.0639   -1.3594 C   0  0  0  0  0  0  0  0  0  0  0  0
   -0.8716   -1.3484   -1.6861 C   0  0  0  0  0  0  0  0  0  0  0  0
    2.4126    0.4961   -0.2294 H   0  0  0  0  0  0  0  0  0  0  0  0
    4.1586   -1.7440   -1.4326 H   0  0  0  0  0  0  0  0  0  0  0  0
    6.2634   -0.5763   -2.2163 H   0  0  0  0  0  0  0  0  0  0  0  0
    8.2692    0.6695   -1.5263 H   0  0  0  0  0  0  0  0  0  0  0  0
    6.2664    1.9059    2.0839 H   0  0  0  0  0  0  0  0  0  0  0  0
    4.2657    0.6523    1.4119 H   0  0  0  0  0  0  0  0  0  0  0  0
    0.6205   -0.0302    1.0798 H   0  0  0  0  0  0  0  0  0  0  0  0
   -1.6723    0.4815    1.6294 H   0  0  0  0  0  0  0  0  0  0  0  0
   -4.5238   -0.4885   -0.6254 H   0  0  0  0  0  0  0  0  0  0  0  0
   -6.7056   -0.4953   -0.6362 H   0  0  0  0  0  0  0  0  0  0  0  0
   -9.1107    0.2795    0.3541 H   0  0  0  0  0  0  0  0  0  0  0  0
   -8.4940    1.6953    2.6454 H   0  0  0  0  0  0  0  0  0  0  0  0
   -2.9794   -1.3781   -2.0512 H   0  0  0  0  0  0  0  0  0  0  0  0
   -0.6481   -1.8749   -2.6127 H   0  0  0  0  0  0  0  0  0  0  0  0
  1  2  2  0
  2  3  1  0
  3  4  2  3
  4  5  1  0
  5  6  2  0
  6  7  1  0
  7  8  2  0
  8  9  1  0
  8 10  1  0
 10 11  2  0
  2 12  1  0
 12 13  2  0
 13 14  1  0
 14 15  2  0
 15 16  1  0
 16 17  1  0
 17 18  2  0
 17 19  1  0
 19 20  2  0
 20 21  1  0
 21 22  2  0
 22 23  1  0
 15 24  1  0
 24 25  2  0
 11  5  1  0
 25 12  1  0
 23 19  1  0
  3 26  1  0
  4 27  1  0
  6 28  1  0
  7 29  1  0
 10 30  1  0
 11 31  1  0
 13 32  1  0
 14 33  1  0
 16 34  1  0
 20 35  1  0
 21 36  1  0
 22 37  1  0
 24 38  1  0
 25 39  1  0
M  END
$$$$
