
     RDKit          3D

 60 62  0  0  0  0  0  0  0  0999 V2000
   -8.1319    2.3872   -1.4634 C   0  0  0  0  0  0  0  0  0  0  0  0
   -7.8633    1.9898   -0.0168 C   0  0  0  0  0  0  0  0  0  0  0  0
   -6.4748    1.4347    0.1608 C   0  0  0  0  0  0  0  0  0  0  0  0
   -6.2582    0.0546    0.1749 C   0  0  0  0  0  0  0  0  0  0  0  0
   -4.9659   -0.4659    0.3160 C   0  0  0  0  0  0  0  0  0  0  0  0
   -3.8699    0.3837    0.4419 C   0  0  0  0  0  0  0  0  0  0  0  0
   -2.5347   -0.0508    0.5608 N   0  0  0  0  0  0  0  0  0  0  0  0
   -2.0548   -1.3503    0.5824 C   0  0  0  0  0  0  0  0  0  0  0  0
   -2.7472   -2.3625    0.5374 O   0  0  0  0  0  0  0  0  0  0  0  0
   -0.5084   -1.4239    0.6322 C   0  0  0  0  0  0  0  0  0  0  0  0
    0.0190   -0.7701    1.8453 N   0  0  0  0  0  0  0  0  0  0  0  0
    0.5525    0.8082    1.8173 S   0  0  0  0  0  6  0  0  0  0  0  0
    0.7430    1.1985    3.1944 O   0  0  0  0  0  0  0  0  0  0  0  0
   -0.3328    1.5391    0.9354 O   0  0  0  0  0  0  0  0  0  0  0  0
    2.1461    0.6734    1.0534 C   0  0  0  0  0  0  0  0  0  0  0  0
    3.2440    0.2614    1.8291 C   0  0  0  0  0  0  0  0  0  0  0  0
    4.5121    0.1527    1.2484 C   0  0  0  0  0  0  0  0  0  0  0  0
    4.6592    0.4702   -0.0944 C   0  0  0  0  0  0  0  0  0  0  0  0
    3.5656    0.8973   -0.8540 C   0  0  0  0  0  0  0  0  0  0  0  0
    2.2995    1.0118   -0.2973 C   0  0  0  0  0  0  0  0  0  0  0  0
    3.9601    1.1934   -2.2646 C   0  0  0  0  0  0  0  0  0  0  0  0
    5.4605    0.8757   -2.2520 C   0  0  0  0  0  0  0  0  0  0  0  0
    5.8178    0.4400   -0.8912 N   0  0  0  0  0  0  0  0  0  0  0  0
    7.0796    0.0608   -0.4676 C   0  0  0  0  0  0  0  0  0  0  0  0
    8.1596    0.1296   -1.5249 C   0  0  0  0  0  0  0  0  0  0  0  0
    7.3657   -0.3135    0.6704 O   0  0  0  0  0  0  0  0  0  0  0  0
    0.0131   -2.8815    0.5497 C   0  0  0  0  0  0  0  0  0  0  0  0
    1.5007   -2.9193    0.1815 C   0  0  0  0  0  0  0  0  0  0  0  0
   -0.2132   -3.6979    1.8283 C   0  0  0  0  0  0  0  0  0  0  0  0
   -4.0857    1.7683    0.4324 C   0  0  0  0  0  0  0  0  0  0  0  0
   -5.3751    2.2898    0.2932 C   0  0  0  0  0  0  0  0  0  0  0  0
   -7.4433    3.1781   -1.7940 H   0  0  0  0  0  0  0  0  0  0  0  0
   -9.1528    2.7642   -1.5660 H   0  0  0  0  0  0  0  0  0  0  0  0
   -8.0151    1.5343   -2.1445 H   0  0  0  0  0  0  0  0  0  0  0  0
   -8.6114    1.2490    0.3107 H   0  0  0  0  0  0  0  0  0  0  0  0
   -7.9910    2.8608    0.6422 H   0  0  0  0  0  0  0  0  0  0  0  0
   -7.0945   -0.6376    0.0694 H   0  0  0  0  0  0  0  0  0  0  0  0
   -4.8532   -1.5459    0.3163 H   0  0  0  0  0  0  0  0  0  0  0  0
   -1.8383    0.6909    0.6062 H   0  0  0  0  0  0  0  0  0  0  0  0
   -0.1538   -0.8997   -0.2633 H   0  0  0  0  0  0  0  0  0  0  0  0
   -0.2850   -1.1076    2.7572 H   0  0  0  0  0  0  0  0  0  0  0  0
    3.1179    0.0225    2.8850 H   0  0  0  0  0  0  0  0  0  0  0  0
    5.3510   -0.1715    1.8581 H   0  0  0  0  0  0  0  0  0  0  0  0
    1.4592    1.3556   -0.8954 H   0  0  0  0  0  0  0  0  0  0  0  0
    3.4243    0.5476   -2.9699 H   0  0  0  0  0  0  0  0  0  0  0  0
    3.7819    2.2434   -2.5195 H   0  0  0  0  0  0  0  0  0  0  0  0
    6.0555    1.7570   -2.5160 H   0  0  0  0  0  0  0  0  0  0  0  0
    5.7019    0.0753   -2.9609 H   0  0  0  0  0  0  0  0  0  0  0  0
    8.2923    1.1609   -1.8671 H   0  0  0  0  0  0  0  0  0  0  0  0
    9.1057   -0.2117   -1.0959 H   0  0  0  0  0  0  0  0  0  0  0  0
    7.9132   -0.5256   -2.3642 H   0  0  0  0  0  0  0  0  0  0  0  0
   -0.5242   -3.3883   -0.2638 H   0  0  0  0  0  0  0  0  0  0  0  0
    1.8279   -3.9531    0.0105 H   0  0  0  0  0  0  0  0  0  0  0  0
    2.1242   -2.4996    0.9784 H   0  0  0  0  0  0  0  0  0  0  0  0
    1.6926   -2.3576   -0.7391 H   0  0  0  0  0  0  0  0  0  0  0  0
   -1.2584   -3.6731    2.1477 H   0  0  0  0  0  0  0  0  0  0  0  0
    0.4031   -3.3349    2.6566 H   0  0  0  0  0  0  0  0  0  0  0  0
    0.0522   -4.7461    1.6592 H   0  0  0  0  0  0  0  0  0  0  0  0
   -3.2514    2.4612    0.5300 H   0  0  0  0  0  0  0  0  0  0  0  0
   -5.5125    3.3669    0.2823 H   0  0  0  0  0  0  0  0  0  0  0  0
  1  2  1  0
  2  3  1  0
  3  4  2  0
  4  5  1  0
  5  6  2  0
  6  7  1  0
  7  8  1  0
  8  9  2  0
  8 10  1  0
 10 11  1  0
 11 12  1  0
 12 13  2  0
 12 14  2  0
 12 15  1  0
 15 16  2  0
 16 17  1  0
 17 18  2  0
 18 19  1  0
 19 20  2  0
 19 21  1  0
 21 22  1  0
 22 23  1  0
 23 24  1  0
 24 25  1  0
 24 26  2  0
 10 27  1  0
 27 28  1  0
 27 29  1  0
  6 30  1  0
 30 31  2  0
 31  3  1  0
 20 15  1  0
 23 18  1  0
  1 32  1  0
  1 33  1  0
  1 34  1  0
  2 35  1  0
  2 36  1  0
  4 37  1  0
  5 38  1  0
  7 39  1  0
 10 40  1  0
 11 41  1  0
 16 42  1  0
 17 43  1  0
 20 44  1  0
 21 45  1  0
 21 46  1  0
 22 47  1  0
 22 48  1  0
 25 49  1  0
 25 50  1  0
 25 51  1  0
 27 52  1  0
 28 53  1  0
 28 54  1  0
 28 55  1  0
 29 56  1  0
 29 57  1  0
 29 58  1  0
 30 59  1  0
 31 60  1  0
M  END
$$$$
