
     RDKit          3D

 40 42  0  0  0  0  0  0  0  0999 V2000
    0.4034   -2.9685    0.8339 O   0  0  0  0  0  0  0  0  0  0  0  0
    1.1966   -2.0890    0.4926 C   0  0  0  0  0  0  0  0  0  0  0  0
    2.6491   -2.1321    0.9481 C   0  0  0  0  0  0  0  0  0  0  0  0
    3.5789   -1.1041    0.3436 C   0  0  0  0  0  0  0  0  0  0  0  0
    3.8446    0.0976    1.0167 C   0  0  0  0  0  0  0  0  0  0  0  0
    4.6768    1.0597    0.4418 C   0  0  0  0  0  0  0  0  0  0  0  0
    5.2493    0.8309   -0.8086 C   0  0  0  0  0  0  0  0  0  0  0  0
    4.9901   -0.3595   -1.4865 C   0  0  0  0  0  0  0  0  0  0  0  0
    4.1570   -1.3230   -0.9152 C   0  0  0  0  0  0  0  0  0  0  0  0
    0.8104   -1.0254   -0.2906 N   0  0  0  0  0  0  0  0  0  0  0  0
   -0.5944   -0.7934   -0.5958 C   0  0  0  0  0  0  0  0  0  0  0  0
   -1.3335   -0.0977    0.5746 C   0  0  0  0  0  0  0  0  0  0  0  0
   -0.6878    1.1635    0.8763 O   0  0  0  0  0  0  0  0  0  0  0  0
   -1.1143    2.2313    0.0309 C   0  0  0  0  0  0  0  0  0  0  0  0
   -2.5824    2.5427    0.2851 C   0  0  0  0  0  0  0  0  0  0  0  0
   -3.4191    1.2996    0.1411 C   0  0  0  0  0  0  0  0  0  0  0  0
   -4.7971    1.3992   -0.0926 C   0  0  0  0  0  0  0  0  0  0  0  0
   -5.5831    0.2496   -0.1700 C   0  0  0  0  0  0  0  0  0  0  0  0
   -5.0019   -1.0043    0.0009 C   0  0  0  0  0  0  0  0  0  0  0  0
   -3.6326   -1.1113    0.2459 C   0  0  0  0  0  0  0  0  0  0  0  0
   -2.8255    0.0365    0.3137 C   0  0  0  0  0  0  0  0  0  0  0  0
    3.0389   -3.1353    0.7277 H   0  0  0  0  0  0  0  0  0  0  0  0
    2.6509   -2.0273    2.0411 H   0  0  0  0  0  0  0  0  0  0  0  0
    3.4034    0.2920    1.9929 H   0  0  0  0  0  0  0  0  0  0  0  0
    4.8810    1.9875    0.9709 H   0  0  0  0  0  0  0  0  0  0  0  0
    5.9002    1.5793   -1.2539 H   0  0  0  0  0  0  0  0  0  0  0  0
    5.4383   -0.5401   -2.4608 H   0  0  0  0  0  0  0  0  0  0  0  0
    3.9595   -2.2454   -1.4589 H   0  0  0  0  0  0  0  0  0  0  0  0
    1.4171   -0.2140   -0.3259 H   0  0  0  0  0  0  0  0  0  0  0  0
   -0.6138   -0.1775   -1.5013 H   0  0  0  0  0  0  0  0  0  0  0  0
   -1.0597   -1.7561   -0.8391 H   0  0  0  0  0  0  0  0  0  0  0  0
   -1.2110   -0.7002    1.4835 H   0  0  0  0  0  0  0  0  0  0  0  0
   -0.9259    1.9845   -1.0206 H   0  0  0  0  0  0  0  0  0  0  0  0
   -0.5046    3.1094    0.2710 H   0  0  0  0  0  0  0  0  0  0  0  0
   -2.7099    2.9152    1.3091 H   0  0  0  0  0  0  0  0  0  0  0  0
   -2.9172    3.3187   -0.4121 H   0  0  0  0  0  0  0  0  0  0  0  0
   -5.2659    2.3738   -0.2080 H   0  0  0  0  0  0  0  0  0  0  0  0
   -6.6516    0.3326   -0.3522 H   0  0  0  0  0  0  0  0  0  0  0  0
   -5.6163   -1.9004   -0.0484 H   0  0  0  0  0  0  0  0  0  0  0  0
   -3.1977   -2.0991    0.3929 H   0  0  0  0  0  0  0  0  0  0  0  0
  1  2  2  0
  2  3  1  0
  3  4  1  0
  4  5  2  0
  5  6  1  0
  6  7  2  0
  7  8  1  0
  8  9  2  0
  2 10  1  0
 10 11  1  0
 11 12  1  0
 12 13  1  0
 13 14  1  0
 14 15  1  0
 15 16  1  0
 16 17  2  0
 17 18  1  0
 18 19  2  0
 19 20  1  0
 20 21  2  0
  9  4  1  0
 21 12  1  0
 21 16  1  0
  3 22  1  0
  3 23  1  0
  5 24  1  0
  6 25  1  0
  7 26  1  0
  8 27  1  0
  9 28  1  0
 10 29  1  0
 11 30  1  0
 11 31  1  0
 12 32  1  0
 14 33  1  0
 14 34  1  0
 15 35  1  0
 15 36  1  0
 17 37  1  0
 18 38  1  0
 19 39  1  0
 20 40  1  0
M  END
$$$$
