
     RDKit          3D

 73 75  0  0  0  0  0  0  0  0999 V2000
   -3.6462   -2.2042    1.9031 C   0  0  0  0  0  0  0  0  0  0  0  0
   -2.4906   -2.3245    0.9153 C   0  0  0  0  0  0  0  0  0  0  0  0
   -1.9916   -0.9520    0.4343 C   0  0  0  0  0  0  0  0  0  0  0  0
   -0.4531   -1.1784   -0.5496 S   0  0  0  0  0  0  0  0  0  0  0  0
    0.0497    0.5025   -0.5491 C   0  0  0  0  0  0  0  0  0  0  0  0
   -0.4236    1.2381   -1.4969 N   0  0  0  0  0  0  0  0  0  0  0  0
   -0.0872    2.5935   -1.5193 C   0  0  0  0  0  0  0  0  0  0  0  0
   -0.6311    3.4103   -2.5251 C   0  0  0  0  0  0  0  0  0  0  0  0
   -0.3471    4.7806   -2.5584 C   0  0  0  0  0  0  0  0  0  0  0  0
   -0.9486    5.6350   -3.4435 O   0  0  0  0  0  0  0  0  0  0  0  0
   -1.0941    5.1182   -4.7667 C   0  0  0  0  0  0  0  0  0  0  0  0
    0.5003    5.3295   -1.5843 C   0  0  0  0  0  0  0  0  0  0  0  0
    0.7645    6.6666   -1.4629 O   0  0  0  0  0  0  0  0  0  0  0  0
    1.3649    7.2368   -2.6250 C   0  0  0  0  0  0  0  0  0  0  0  0
    1.0492    4.5214   -0.5850 C   0  0  0  0  0  0  0  0  0  0  0  0
    0.7667    3.1571   -0.5757 C   0  0  0  0  0  0  0  0  0  0  0  0
    1.3435    2.2662    0.4463 C   0  0  0  0  0  0  0  0  0  0  0  0
    2.1808    2.7116    1.2302 O   0  0  0  0  0  0  0  0  0  0  0  0
    0.9053    0.9416    0.4451 N   0  0  0  0  0  0  0  0  0  0  0  0
    1.4903    0.0693    1.4703 C   0  0  0  0  0  0  0  0  0  0  0  0
    2.8119   -0.5533    1.0026 C   0  0  0  0  0  0  0  0  0  0  0  0
    3.2438   -1.7188    1.8533 C   0  0  0  0  0  0  0  0  0  0  0  0
    3.3096   -3.0056    1.3061 C   0  0  0  0  0  0  0  0  0  0  0  0
    3.7201   -4.0839    2.0918 C   0  0  0  0  0  0  0  0  0  0  0  0
    4.0746   -3.8878    3.4328 C   0  0  0  0  0  0  0  0  0  0  0  0
    4.4728   -4.9759    4.1648 O   0  0  0  0  0  0  0  0  0  0  0  0
    5.7361   -5.4675    3.7085 C   0  0  0  0  0  0  0  0  0  0  0  0
    3.9537   -2.6165    4.0170 C   0  0  0  0  0  0  0  0  0  0  0  0
    4.1801   -2.2600    5.3210 O   0  0  0  0  0  0  0  0  0  0  0  0
    4.1977   -3.3062    6.2886 C   0  0  0  0  0  0  0  0  0  0  0  0
    3.5757   -1.5366    3.2035 C   0  0  0  0  0  0  0  0  0  0  0  0
   -3.0495   -0.2248   -0.4026 C   0  0  0  0  0  0  0  0  0  0  0  0
   -3.6261    0.7753    0.0146 O   0  0  0  0  0  0  0  0  0  0  0  0
   -3.3577   -0.8162   -1.6114 N   0  0  0  0  0  0  0  0  0  0  0  0
   -4.4377   -0.3051   -2.4332 C   0  0  0  0  0  0  0  0  0  0  0  0
   -4.6467   -1.1311   -3.7028 C   0  0  0  0  0  0  0  0  0  0  0  0
   -5.7491   -0.6707   -4.4854 O   0  0  0  0  0  0  0  0  0  0  0  0
   -7.0092   -1.0950   -3.9703 C   0  0  0  0  0  0  0  0  0  0  0  0
   -3.3270   -1.6858    2.8107 H   0  0  0  0  0  0  0  0  0  0  0  0
   -4.4901   -1.6602    1.4715 H   0  0  0  0  0  0  0  0  0  0  0  0
   -4.0081   -3.1943    2.1806 H   0  0  0  0  0  0  0  0  0  0  0  0
   -2.8215   -2.9469    0.0742 H   0  0  0  0  0  0  0  0  0  0  0  0
   -1.6806   -2.8625    1.4191 H   0  0  0  0  0  0  0  0  0  0  0  0
   -1.7497   -0.3316    1.3030 H   0  0  0  0  0  0  0  0  0  0  0  0
   -1.3285    2.9663   -3.2265 H   0  0  0  0  0  0  0  0  0  0  0  0
   -0.2064    4.5546   -5.0818 H   0  0  0  0  0  0  0  0  0  0  0  0
   -1.1991    5.9752   -5.4420 H   0  0  0  0  0  0  0  0  0  0  0  0
   -2.0015    4.5053   -4.8461 H   0  0  0  0  0  0  0  0  0  0  0  0
    1.9732    6.5175   -3.1834 H   0  0  0  0  0  0  0  0  0  0  0  0
    0.5954    7.6691   -3.2704 H   0  0  0  0  0  0  0  0  0  0  0  0
    2.0140    8.0541   -2.2933 H   0  0  0  0  0  0  0  0  0  0  0  0
    1.6869    4.9628    0.1794 H   0  0  0  0  0  0  0  0  0  0  0  0
    1.6676    0.6531    2.3845 H   0  0  0  0  0  0  0  0  0  0  0  0
    0.7734   -0.7004    1.7657 H   0  0  0  0  0  0  0  0  0  0  0  0
    2.7248   -0.8775   -0.0431 H   0  0  0  0  0  0  0  0  0  0  0  0
    3.6091    0.2022    0.9968 H   0  0  0  0  0  0  0  0  0  0  0  0
    3.0466   -3.1780    0.2649 H   0  0  0  0  0  0  0  0  0  0  0  0
    3.7641   -5.0758    1.6555 H   0  0  0  0  0  0  0  0  0  0  0  0
    6.1542   -6.0997    4.4994 H   0  0  0  0  0  0  0  0  0  0  0  0
    5.6025   -6.0928    2.8179 H   0  0  0  0  0  0  0  0  0  0  0  0
    6.4484   -4.6561    3.5070 H   0  0  0  0  0  0  0  0  0  0  0  0
    3.3450   -3.9857    6.1603 H   0  0  0  0  0  0  0  0  0  0  0  0
    5.1538   -3.8436    6.2537 H   0  0  0  0  0  0  0  0  0  0  0  0
    4.1036   -2.8576    7.2792 H   0  0  0  0  0  0  0  0  0  0  0  0
    3.5240   -0.5426    3.6541 H   0  0  0  0  0  0  0  0  0  0  0  0
   -2.9424   -1.7167   -1.8281 H   0  0  0  0  0  0  0  0  0  0  0  0
   -5.3490   -0.2760   -1.8276 H   0  0  0  0  0  0  0  0  0  0  0  0
   -4.2083    0.7333   -2.6974 H   0  0  0  0  0  0  0  0  0  0  0  0
   -3.7524   -1.0548   -4.3275 H   0  0  0  0  0  0  0  0  0  0  0  0
   -4.7720   -2.1927   -3.4598 H   0  0  0  0  0  0  0  0  0  0  0  0
   -7.2170   -0.6236   -3.0078 H   0  0  0  0  0  0  0  0  0  0  0  0
   -7.7887   -0.7953   -4.6788 H   0  0  0  0  0  0  0  0  0  0  0  0
   -7.0464   -2.1831   -3.8664 H   0  0  0  0  0  0  0  0  0  0  0  0
  1  2  1  0
  2  3  1  0
  3  4  1  0
  4  5  1  0
  5  6  2  0
  6  7  1  0
  7  8  2  0
  8  9  1  0
  9 10  1  0
 10 11  1  0
  9 12  2  0
 12 13  1  0
 13 14  1  0
 12 15  1  0
 15 16  2  0
 16 17  1  0
 17 18  2  0
 17 19  1  0
 19 20  1  0
 20 21  1  0
 21 22  1  0
 22 23  2  0
 23 24  1  0
 24 25  2  0
 25 26  1  0
 26 27  1  0
 25 28  1  0
 28 29  1  0
 29 30  1  0
 28 31  2  0
  3 32  1  0
 32 33  2  0
 32 34  1  0
 34 35  1  0
 35 36  1  0
 36 37  1  0
 37 38  1  0
 19  5  1  0
 31 22  1  0
 16  7  1  0
  1 39  1  0
  1 40  1  0
  1 41  1  0
  2 42  1  0
  2 43  1  0
  3 44  1  0
  8 45  1  0
 11 46  1  0
 11 47  1  0
 11 48  1  0
 14 49  1  0
 14 50  1  0
 14 51  1  0
 15 52  1  0
 20 53  1  0
 20 54  1  0
 21 55  1  0
 21 56  1  0
 23 57  1  0
 24 58  1  0
 27 59  1  0
 27 60  1  0
 27 61  1  0
 30 62  1  0
 30 63  1  0
 30 64  1  0
 31 65  1  0
 34 66  1  0
 35 67  1  0
 35 68  1  0
 36 69  1  0
 36 70  1  0
 38 71  1  0
 38 72  1  0
 38 73  1  0
M  END
$$$$
