
     RDKit          3D

 57 62  0  0  0  0  0  0  0  0999 V2000
    7.9638    2.6975   -0.4312 C   0  0  0  0  0  0  0  0  0  0  0  0
    6.6791    3.1990   -0.0813 O   0  0  0  0  0  0  0  0  0  0  0  0
    5.6658    2.2919    0.0380 C   0  0  0  0  0  0  0  0  0  0  0  0
    5.7640    0.9159   -0.1565 C   0  0  0  0  0  0  0  0  0  0  0  0
    4.6371    0.0962   -0.0001 C   0  0  0  0  0  0  0  0  0  0  0  0
    3.4048    0.6474    0.3540 C   0  0  0  0  0  0  0  0  0  0  0  0
    2.1352   -0.2609    0.5316 C   0  0  0  0  0  0  0  0  0  0  0  0
    0.8452    0.1730    0.8142 C   0  0  0  0  0  0  0  0  0  0  0  0
   -0.0033   -0.9322    0.8697 N   0  0  0  0  0  4  0  0  0  0  0  0
   -1.4626   -0.9144    1.0870 C   0  0  0  0  0  0  0  0  0  0  0  0
   -2.2113   -1.1349   -0.2457 C   0  0  0  0  0  0  0  0  0  0  0  0
   -1.7539   -1.9687   -1.0330 O   0  0  0  0  0  0  0  0  0  0  0  0
   -3.2851   -0.2619   -0.4940 N   0  0  0  0  0  0  0  0  0  0  0  0
   -3.6240    0.1583   -1.8352 C   0  0  0  0  0  0  0  0  0  0  0  0
   -3.3935   -0.6762   -2.9437 C   0  0  0  0  0  0  0  0  0  0  0  0
   -3.7070   -0.2717   -4.2466 C   0  0  0  0  0  0  0  0  0  0  0  0
   -4.2537    0.9828   -4.4751 C   0  0  0  0  0  0  0  0  0  0  0  0
   -4.4874    1.8326   -3.3993 C   0  0  0  0  0  0  0  0  0  0  0  0
   -4.1807    1.4285   -2.0897 C   0  0  0  0  0  0  0  0  0  0  0  0
   -4.4339    2.6246   -0.7976 S   0  0  0  0  0  0  0  0  0  0  0  0
   -4.7058    1.5052    0.5463 C   0  0  0  0  0  0  0  0  0  0  0  0
   -5.4978    1.9435    1.6176 C   0  0  0  0  0  0  0  0  0  0  0  0
   -5.7487    1.1080    2.7034 C   0  0  0  0  0  0  0  0  0  0  0  0
   -5.2206   -0.1763    2.7194 C   0  0  0  0  0  0  0  0  0  0  0  0
   -4.4225   -0.6145    1.6597 C   0  0  0  0  0  0  0  0  0  0  0  0
   -4.1242    0.2286    0.5696 C   0  0  0  0  0  0  0  0  0  0  0  0
    0.7289   -2.0099    0.6028 C   0  0  0  0  0  0  0  0  0  0  0  0
    1.9967   -1.6348    0.4496 N   0  0  0  0  0  0  0  0  0  0  0  0
    2.8705   -2.7733    0.2048 C   0  0  0  0  0  0  0  0  0  0  0  0
    1.9847   -3.9942    0.5745 C   0  0  0  0  0  0  0  0  0  0  0  0
    0.5365   -3.4745    0.4809 C   0  0  0  0  0  0  0  0  0  0  0  0
    3.3042    2.0290    0.5438 C   0  0  0  0  0  0  0  0  0  0  0  0
    4.4314    2.8408    0.3868 C   0  0  0  0  0  0  0  0  0  0  0  0
    7.9461    2.2244   -1.4185 H   0  0  0  0  0  0  0  0  0  0  0  0
    8.6525    3.5464   -0.4800 H   0  0  0  0  0  0  0  0  0  0  0  0
    8.3381    2.0070    0.3318 H   0  0  0  0  0  0  0  0  0  0  0  0
    6.7041    0.4489   -0.4347 H   0  0  0  0  0  0  0  0  0  0  0  0
    4.7625   -0.9643   -0.1764 H   0  0  0  0  0  0  0  0  0  0  0  0
    0.4141    1.1473    0.9714 H   0  0  0  0  0  0  0  0  0  0  0  0
   -1.7078    0.0474    1.5452 H   0  0  0  0  0  0  0  0  0  0  0  0
   -1.7102   -1.7240    1.7801 H   0  0  0  0  0  0  0  0  0  0  0  0
   -3.0099   -1.6858   -2.8331 H   0  0  0  0  0  0  0  0  0  0  0  0
   -3.5306   -0.9472   -5.0812 H   0  0  0  0  0  0  0  0  0  0  0  0
   -4.4989    1.2993   -5.4862 H   0  0  0  0  0  0  0  0  0  0  0  0
   -4.9078    2.8184   -3.5904 H   0  0  0  0  0  0  0  0  0  0  0  0
   -5.9380    2.9397    1.6072 H   0  0  0  0  0  0  0  0  0  0  0  0
   -6.3782    1.4533    3.5213 H   0  0  0  0  0  0  0  0  0  0  0  0
   -5.4531   -0.8452    3.5459 H   0  0  0  0  0  0  0  0  0  0  0  0
   -4.0968   -1.6520    1.6789 H   0  0  0  0  0  0  0  0  0  0  0  0
    3.1425   -2.7878   -0.8546 H   0  0  0  0  0  0  0  0  0  0  0  0
    3.7599   -2.7294    0.8373 H   0  0  0  0  0  0  0  0  0  0  0  0
    2.1944   -4.2843    1.6110 H   0  0  0  0  0  0  0  0  0  0  0  0
    2.1700   -4.8627   -0.0630 H   0  0  0  0  0  0  0  0  0  0  0  0
   -0.1053   -3.8207    1.2915 H   0  0  0  0  0  0  0  0  0  0  0  0
    0.0996   -3.6615   -0.5011 H   0  0  0  0  0  0  0  0  0  0  0  0
    2.3714    2.5122    0.8174 H   0  0  0  0  0  0  0  0  0  0  0  0
    4.3498    3.9161    0.5372 H   0  0  0  0  0  0  0  0  0  0  0  0
  1  2  1  0
  2  3  1  0
  3  4  2  0
  4  5  1  0
  5  6  2  0
  6  7  1  0
  7  8  2  0
  8  9  1  0
  9 10  1  0
 10 11  1  0
 11 12  2  0
 11 13  1  0
 13 14  1  0
 14 15  2  0
 15 16  1  0
 16 17  2  0
 17 18  1  0
 18 19  2  0
 19 20  1  0
 20 21  1  0
 21 22  2  0
 22 23  1  0
 23 24  2  0
 24 25  1  0
 25 26  2  0
  9 27  2  0
 27 28  1  0
 28 29  1  0
 29 30  1  0
 30 31  1  0
  6 32  1  0
 32 33  2  0
 33  3  1  0
 28  7  1  0
 26 13  1  0
 31 27  1  0
 19 14  1  0
 26 21  1  0
  1 34  1  0
  1 35  1  0
  1 36  1  0
  4 37  1  0
  5 38  1  0
  8 39  1  0
 10 40  1  0
 10 41  1  0
 15 42  1  0
 16 43  1  0
 17 44  1  0
 18 45  1  0
 22 46  1  0
 23 47  1  0
 24 48  1  0
 25 49  1  0
 29 50  1  0
 29 51  1  0
 30 52  1  0
 30 53  1  0
 31 54  1  0
 31 55  1  0
 32 56  1  0
 33 57  1  0
M  CHG  1   9   1
M  END
$$$$
