
     RDKit          3D

 36 35  0  0  0  0  0  0  0  0999 V2000
    2.7875   -1.8644   -3.0366 C   0  0  0  0  0  0  0  0  0  0  0  0
    2.1294   -0.6287   -2.4363 C   0  0  0  0  0  0  0  0  0  0  0  0
    1.8752   -0.7509   -0.9871 N   0  0  0  0  0  0  0  0  0  0  0  0
    2.8715   -0.1001   -0.1162 C   0  0  0  0  0  0  0  0  0  0  0  0
    4.1358   -0.9203    0.0836 C   0  0  0  0  0  0  0  0  0  0  0  0
    0.8377   -1.5448   -0.4487 C   0  0  0  0  0  0  0  0  0  0  0  0
    0.7198   -2.0310    1.1637 S   0  0  0  0  0  0  0  0  0  0  0  0
   -0.4331   -2.0825   -1.5647 S   0  0  0  0  0  0  0  0  0  0  0  0
   -1.5927   -0.3775   -1.7269 S   0  0  0  0  0  0  0  0  0  0  0  0
   -2.6093   -0.4922   -0.2735 C   0  0  0  0  0  0  0  0  0  0  0  0
   -3.9217   -1.5547   -0.2998 S   0  0  0  0  0  0  0  0  0  0  0  0
   -2.2629    0.3485    0.8065 N   0  0  0  0  0  0  0  0  0  0  0  0
   -1.3170    1.4743    0.6912 C   0  0  0  0  0  0  0  0  0  0  0  0
   -1.9213    2.6938    0.0077 C   0  0  0  0  0  0  0  0  0  0  0  0
   -2.8991    0.1936    2.1286 C   0  0  0  0  0  0  0  0  0  0  0  0
   -4.0771    1.1305    2.3420 C   0  0  0  0  0  0  0  0  0  0  0  0
    2.9323   -1.7269   -4.1129 H   0  0  0  0  0  0  0  0  0  0  0  0
    2.1828   -2.7633   -2.8894 H   0  0  0  0  0  0  0  0  0  0  0  0
    3.7666   -2.0533   -2.5897 H   0  0  0  0  0  0  0  0  0  0  0  0
    2.7682    0.2445   -2.6124 H   0  0  0  0  0  0  0  0  0  0  0  0
    1.1949   -0.4206   -2.9627 H   0  0  0  0  0  0  0  0  0  0  0  0
    3.1229    0.8751   -0.5500 H   0  0  0  0  0  0  0  0  0  0  0  0
    2.4262    0.1222    0.8586 H   0  0  0  0  0  0  0  0  0  0  0  0
    3.9110   -1.9358    0.4225 H   0  0  0  0  0  0  0  0  0  0  0  0
    4.7099   -0.9933   -0.8440 H   0  0  0  0  0  0  0  0  0  0  0  0
    4.7787   -0.4432    0.8300 H   0  0  0  0  0  0  0  0  0  0  0  0
   -0.9731    1.7553    1.6934 H   0  0  0  0  0  0  0  0  0  0  0  0
   -0.4228    1.1571    0.1481 H   0  0  0  0  0  0  0  0  0  0  0  0
   -2.7832    3.0773    0.5599 H   0  0  0  0  0  0  0  0  0  0  0  0
   -2.2583    2.4680   -1.0078 H   0  0  0  0  0  0  0  0  0  0  0  0
   -1.1778    3.4948   -0.0542 H   0  0  0  0  0  0  0  0  0  0  0  0
   -2.1390    0.3670    2.8997 H   0  0  0  0  0  0  0  0  0  0  0  0
   -3.2263   -0.8406    2.2707 H   0  0  0  0  0  0  0  0  0  0  0  0
   -4.5807    0.8960    3.2852 H   0  0  0  0  0  0  0  0  0  0  0  0
   -4.8083    1.0541    1.5318 H   0  0  0  0  0  0  0  0  0  0  0  0
   -3.7466    2.1717    2.3972 H   0  0  0  0  0  0  0  0  0  0  0  0
  1  2  1  0
  2  3  1  0
  3  4  1  0
  4  5  1  0
  3  6  1  0
  6  7  2  0
  6  8  1  0
  8  9  1  0
  9 10  1  0
 10 11  2  0
 10 12  1  0
 12 13  1  0
 13 14  1  0
 12 15  1  0
 15 16  1  0
  1 17  1  0
  1 18  1  0
  1 19  1  0
  2 20  1  0
  2 21  1  0
  4 22  1  0
  4 23  1  0
  5 24  1  0
  5 25  1  0
  5 26  1  0
 13 27  1  0
 13 28  1  0
 14 29  1  0
 14 30  1  0
 14 31  1  0
 15 32  1  0
 15 33  1  0
 16 34  1  0
 16 35  1  0
 16 36  1  0
M  END
$$$$
