
     RDKit          3D

 68 71  0  0  0  0  0  0  0  0999 V2000
    6.8321   -2.1245    6.3060 C   0  0  0  0  0  0  0  0  0  0  0  0
    5.9241   -2.3646    5.1709 C   0  0  0  0  0  0  0  0  0  0  0  0
    4.9909   -1.6059    4.5099 C   0  0  0  0  0  0  0  0  0  0  0  0
    4.4604   -2.4700    3.5274 C   0  0  0  0  0  0  0  0  0  0  0  0
    3.4757   -2.2402    2.5932 N   0  0  0  0  0  0  0  0  0  0  0  0
    2.7555   -1.0740    2.4661 C   0  0  0  0  0  0  0  0  0  0  0  0
    2.8839   -0.0669    3.1546 O   0  0  0  0  0  0  0  0  0  0  0  0
    1.7282   -1.1683    1.3573 C   0  0  0  0  0  0  0  0  0  0  0  0
    0.9804    0.1480    1.1600 C   0  0  0  0  0  0  0  0  0  0  0  0
   -0.0584    0.0302    0.0594 C   0  0  0  0  0  0  0  0  0  0  0  0
   -0.3441   -1.0776   -0.3953 O   0  0  0  0  0  0  0  0  0  0  0  0
   -0.7288    1.1753   -0.3420 N   0  0  0  0  0  0  0  0  0  0  0  0
   -0.4707    2.4982    0.2416 C   0  0  0  0  0  0  0  0  0  0  0  0
    0.4538    3.3027   -0.5998 C   0  0  0  0  0  0  0  0  0  0  0  0
    1.7208    3.0990   -1.1102 C   0  0  0  0  0  0  0  0  0  0  0  0
    2.0535    4.2670   -1.8386 C   0  0  0  0  0  0  0  0  0  0  0  0
    0.9720    5.1098   -1.7283 C   0  0  0  0  0  0  0  0  0  0  0  0
    0.0007    4.5386   -0.9716 O   0  0  0  0  0  0  0  0  0  0  0  0
   -1.6217    1.1463   -1.5457 C   0  0  0  0  0  0  0  0  0  0  0  0
   -2.7814    0.0963   -1.5665 C   0  0  0  0  0  0  0  0  0  0  0  0
   -3.4090   -0.1910   -2.5869 O   0  0  0  0  0  0  0  0  0  0  0  0
   -3.1771   -0.3639   -0.3175 N   0  0  0  0  0  0  0  0  0  0  0  0
   -4.1816   -1.3988   -0.2050 C   0  0  0  0  0  0  0  0  0  0  0  0
   -3.6600   -2.7900   -0.5670 C   0  0  0  0  0  0  0  0  0  0  0  0
   -4.5341   -3.7698    0.2179 C   0  0  0  0  0  0  0  0  0  0  0  0
   -5.3653   -2.9284    1.1842 C   0  0  0  0  0  0  0  0  0  0  0  0
   -4.6750   -1.5744    1.2259 C   0  0  0  0  0  0  0  0  0  0  0  0
   -0.8789    1.2375   -2.8863 C   0  0  0  0  0  0  0  0  0  0  0  0
    0.0716    0.2585   -3.2401 C   0  0  0  0  0  0  0  0  0  0  0  0
    0.7768    0.3250   -4.4431 C   0  0  0  0  0  0  0  0  0  0  0  0
    0.5425    1.3679   -5.3279 C   0  0  0  0  0  0  0  0  0  0  0  0
   -0.4150    2.3303   -5.0210 C   0  0  0  0  0  0  0  0  0  0  0  0
   -1.1477    2.2704   -3.8212 C   0  0  0  0  0  0  0  0  0  0  0  0
   -2.1900    3.3322   -3.5862 C   0  0  0  0  0  0  0  0  0  0  0  0
    5.0587   -3.6663    3.5693 N   0  0  0  0  0  0  0  0  0  0  0  0
    5.9668   -3.6017    4.6100 O   0  0  0  0  0  0  0  0  0  0  0  0
    7.8538   -2.4225    6.0550 H   0  0  0  0  0  0  0  0  0  0  0  0
    6.5080   -2.7001    7.1796 H   0  0  0  0  0  0  0  0  0  0  0  0
    6.8441   -1.0656    6.5820 H   0  0  0  0  0  0  0  0  0  0  0  0
    4.7308   -0.5791    4.7156 H   0  0  0  0  0  0  0  0  0  0  0  0
    3.2809   -3.0370    2.0013 H   0  0  0  0  0  0  0  0  0  0  0  0
    1.0244   -1.9703    1.6154 H   0  0  0  0  0  0  0  0  0  0  0  0
    2.2395   -1.4520    0.4284 H   0  0  0  0  0  0  0  0  0  0  0  0
    1.6997    0.9312    0.9079 H   0  0  0  0  0  0  0  0  0  0  0  0
    0.4698    0.4237    2.0894 H   0  0  0  0  0  0  0  0  0  0  0  0
   -0.0520    2.4073    1.2477 H   0  0  0  0  0  0  0  0  0  0  0  0
   -1.4343    3.0080    0.3616 H   0  0  0  0  0  0  0  0  0  0  0  0
    2.3302    2.2140   -0.9848 H   0  0  0  0  0  0  0  0  0  0  0  0
    2.9655    4.4672   -2.3834 H   0  0  0  0  0  0  0  0  0  0  0  0
    0.7491    6.0986   -2.1096 H   0  0  0  0  0  0  0  0  0  0  0  0
   -2.2042    2.0696   -1.4335 H   0  0  0  0  0  0  0  0  0  0  0  0
   -2.4423   -0.3636    0.3798 H   0  0  0  0  0  0  0  0  0  0  0  0
   -5.0253   -1.1419   -0.8582 H   0  0  0  0  0  0  0  0  0  0  0  0
   -2.6127   -2.9106   -0.2647 H   0  0  0  0  0  0  0  0  0  0  0  0
   -3.7067   -2.9747   -1.6447 H   0  0  0  0  0  0  0  0  0  0  0  0
   -3.9070   -4.4843    0.7617 H   0  0  0  0  0  0  0  0  0  0  0  0
   -5.1856   -4.3468   -0.4479 H   0  0  0  0  0  0  0  0  0  0  0  0
   -5.4404   -3.3874    2.1754 H   0  0  0  0  0  0  0  0  0  0  0  0
   -6.3836   -2.8171    0.7916 H   0  0  0  0  0  0  0  0  0  0  0  0
   -3.8351   -1.5976    1.9325 H   0  0  0  0  0  0  0  0  0  0  0  0
   -5.3515   -0.7725    1.5369 H   0  0  0  0  0  0  0  0  0  0  0  0
    0.2680   -0.5905   -2.5922 H   0  0  0  0  0  0  0  0  0  0  0  0
    1.5034   -0.4450   -4.6897 H   0  0  0  0  0  0  0  0  0  0  0  0
    1.0884    1.4238   -6.2652 H   0  0  0  0  0  0  0  0  0  0  0  0
   -0.6019    3.1275   -5.7376 H   0  0  0  0  0  0  0  0  0  0  0  0
   -3.1391    2.8901   -3.2721 H   0  0  0  0  0  0  0  0  0  0  0  0
   -1.8432    4.0403   -2.8313 H   0  0  0  0  0  0  0  0  0  0  0  0
   -2.4005    3.9002   -4.5003 H   0  0  0  0  0  0  0  0  0  0  0  0
  1  2  1  0
  2  3  2  0
  3  4  1  0
  4  5  1  0
  5  6  1  0
  6  7  2  0
  6  8  1  0
  8  9  1  0
  9 10  1  0
 10 11  2  0
 10 12  1  0
 12 13  1  0
 13 14  1  0
 14 15  2  0
 15 16  1  0
 16 17  2  0
 17 18  1  0
 12 19  1  0
 19 20  1  0
 20 21  2  0
 20 22  1  0
 22 23  1  0
 23 24  1  0
 24 25  1  0
 25 26  1  0
 26 27  1  0
 19 28  1  0
 28 29  2  0
 29 30  1  0
 30 31  2  0
 31 32  1  0
 32 33  2  0
 33 34  1  0
  4 35  2  0
 35 36  1  0
 36  2  1  0
 18 14  1  0
 27 23  1  0
 33 28  1  0
  1 37  1  0
  1 38  1  0
  1 39  1  0
  3 40  1  0
  5 41  1  0
  8 42  1  0
  8 43  1  0
  9 44  1  0
  9 45  1  0
 13 46  1  0
 13 47  1  0
 15 48  1  0
 16 49  1  0
 17 50  1  0
 19 51  1  0
 22 52  1  0
 23 53  1  0
 24 54  1  0
 24 55  1  0
 25 56  1  0
 25 57  1  0
 26 58  1  0
 26 59  1  0
 27 60  1  0
 27 61  1  0
 29 62  1  0
 30 63  1  0
 31 64  1  0
 32 65  1  0
 34 66  1  0
 34 67  1  0
 34 68  1  0
M  END
$$$$
