
     RDKit          3D

 55 60  0  0  0  0  0  0  0  0999 V2000
    6.9163    2.4217    0.8857 C   0  0  0  0  0  0  0  0  0  0  0  0
    7.0735    1.6279   -0.2507 C   0  0  0  0  0  0  0  0  0  0  0  0
    6.0129    0.8429   -0.7051 C   0  0  0  0  0  0  0  0  0  0  0  0
    4.7876    0.8621   -0.0284 C   0  0  0  0  0  0  0  0  0  0  0  0
    3.6804    0.0044   -0.5273 C   0  0  0  0  0  0  0  0  0  0  0  0
    3.9532   -1.2187   -0.8756 N   0  0  0  0  0  0  0  0  0  0  0  0
    2.9176   -2.0462   -1.3528 C   0  0  0  0  0  0  0  0  0  0  0  0
    3.2605   -3.3292   -1.7890 C   0  0  0  0  0  0  0  0  0  0  0  0
    2.2925   -4.1898   -2.3090 C   0  0  0  0  0  0  0  0  0  0  0  0
    0.9695   -3.7655   -2.4112 C   0  0  0  0  0  0  0  0  0  0  0  0
    0.6071   -2.4888   -1.9772 C   0  0  0  0  0  0  0  0  0  0  0  0
    1.5727   -1.6436   -1.4231 C   0  0  0  0  0  0  0  0  0  0  0  0
    1.2904   -0.3322   -0.9677 N   0  0  0  0  0  0  0  0  0  0  0  0
    0.0842    0.3532   -0.7984 C   0  0  0  0  0  0  0  0  0  0  0  0
   -1.1485   -0.2504   -0.7864 N   0  0  0  0  0  0  0  0  0  0  0  0
   -2.3292    0.5414   -1.2155 C   0  0  0  0  0  0  0  0  0  0  0  0
   -3.6406   -0.2336   -0.9726 C   0  0  0  0  0  0  0  0  0  0  0  0
   -3.8483   -0.5139    0.4673 N   0  0  0  0  0  0  0  0  0  0  0  0
   -4.8077    0.2140    1.1858 C   0  0  0  0  0  0  0  0  0  0  0  0
   -5.2721    1.4802    0.8040 C   0  0  0  0  0  0  0  0  0  0  0  0
   -6.2259    2.1673    1.5649 C   0  0  0  0  0  0  0  0  0  0  0  0
   -6.7379    1.5984    2.7265 C   0  0  0  0  0  0  0  0  0  0  0  0
   -6.2960    0.3429    3.1267 C   0  0  0  0  0  0  0  0  0  0  0  0
   -5.3419   -0.3367    2.3634 C   0  0  0  0  0  0  0  0  0  0  0  0
   -2.5885   -0.7105    1.2383 C   0  0  0  0  0  0  0  0  0  0  0  0
   -1.4258   -1.1913    0.3405 C   0  0  0  0  0  0  0  0  0  0  0  0
    0.4076    1.6895   -0.6410 C   0  0  0  0  0  0  0  0  0  0  0  0
    1.8105    1.7911   -0.5153 C   0  0  0  0  0  0  0  0  0  0  0  0
    2.3303    0.5164   -0.6245 C   0  0  0  0  0  0  0  0  0  0  0  0
    4.6392    1.6428    1.1239 C   0  0  0  0  0  0  0  0  0  0  0  0
    5.7032    2.4263    1.5752 C   0  0  0  0  0  0  0  0  0  0  0  0
    7.7450    3.0297    1.2408 H   0  0  0  0  0  0  0  0  0  0  0  0
    8.0230    1.6153   -0.7797 H   0  0  0  0  0  0  0  0  0  0  0  0
    6.1410    0.2176   -1.5859 H   0  0  0  0  0  0  0  0  0  0  0  0
    4.2964   -3.6523   -1.7281 H   0  0  0  0  0  0  0  0  0  0  0  0
    2.5761   -5.1822   -2.6488 H   0  0  0  0  0  0  0  0  0  0  0  0
    0.2192   -4.4247   -2.8407 H   0  0  0  0  0  0  0  0  0  0  0  0
   -0.4203   -2.1704   -2.1142 H   0  0  0  0  0  0  0  0  0  0  0  0
   -2.3755    1.4921   -0.6710 H   0  0  0  0  0  0  0  0  0  0  0  0
   -2.2359    0.7644   -2.2847 H   0  0  0  0  0  0  0  0  0  0  0  0
   -4.4901    0.2878   -1.4269 H   0  0  0  0  0  0  0  0  0  0  0  0
   -3.5823   -1.2006   -1.4893 H   0  0  0  0  0  0  0  0  0  0  0  0
   -4.8860    1.9758   -0.0805 H   0  0  0  0  0  0  0  0  0  0  0  0
   -6.5639    3.1502    1.2479 H   0  0  0  0  0  0  0  0  0  0  0  0
   -7.4796    2.1306    3.3155 H   0  0  0  0  0  0  0  0  0  0  0  0
   -6.6944   -0.1151    4.0277 H   0  0  0  0  0  0  0  0  0  0  0  0
   -5.0294   -1.3277    2.6835 H   0  0  0  0  0  0  0  0  0  0  0  0
   -2.7487   -1.4563    2.0254 H   0  0  0  0  0  0  0  0  0  0  0  0
   -2.2905    0.2321    1.7175 H   0  0  0  0  0  0  0  0  0  0  0  0
   -1.6894   -2.1665   -0.0860 H   0  0  0  0  0  0  0  0  0  0  0  0
   -0.5358   -1.3424    0.9641 H   0  0  0  0  0  0  0  0  0  0  0  0
   -0.2951    2.5049   -0.5389 H   0  0  0  0  0  0  0  0  0  0  0  0
    2.3702    2.6998   -0.3355 H   0  0  0  0  0  0  0  0  0  0  0  0
    3.7093    1.6327    1.6863 H   0  0  0  0  0  0  0  0  0  0  0  0
    5.5899    3.0330    2.4701 H   0  0  0  0  0  0  0  0  0  0  0  0
  1  2  2  0
  2  3  1  0
  3  4  2  0
  4  5  1  0
  5  6  2  0
  6  7  1  0
  7  8  2  0
  8  9  1  0
  9 10  2  0
 10 11  1  0
 11 12  2  0
 12 13  1  0
 13 14  1  0
 14 15  1  0
 15 16  1  0
 16 17  1  0
 17 18  1  0
 18 19  1  0
 19 20  2  0
 20 21  1  0
 21 22  2  0
 22 23  1  0
 23 24  2  0
 18 25  1  0
 25 26  1  0
 14 27  2  0
 27 28  1  0
 28 29  2  0
  4 30  1  0
 30 31  2  0
 31  1  1  0
 29  5  1  0
 12  7  1  0
 29 13  1  0
 26 15  1  0
 24 19  1  0
  1 32  1  0
  2 33  1  0
  3 34  1  0
  8 35  1  0
  9 36  1  0
 10 37  1  0
 11 38  1  0
 16 39  1  0
 16 40  1  0
 17 41  1  0
 17 42  1  0
 20 43  1  0
 21 44  1  0
 22 45  1  0
 23 46  1  0
 24 47  1  0
 25 48  1  0
 25 49  1  0
 26 50  1  0
 26 51  1  0
 27 52  1  0
 28 53  1  0
 30 54  1  0
 31 55  1  0
M  END
$$$$
