
     RDKit          3D

 39 41  0  0  0  0  0  0  0  0999 V2000
    1.7730   -2.2371   -1.9925 O   0  0  0  0  0  0  0  0  0  0  0  0
    1.5616   -1.2988   -1.2304 C   0  0  0  0  0  0  0  0  0  0  0  0
    2.6646   -0.4438   -0.7115 C   0  0  0  0  0  0  0  0  0  0  0  0
    3.9381   -0.8175   -0.9104 C   0  0  0  0  0  0  0  0  0  0  0  0
    5.1006   -0.0353   -0.4710 C   0  0  0  0  0  0  0  0  0  0  0  0
    5.1292    0.6419    0.7561 C   0  0  0  0  0  0  0  0  0  0  0  0
    6.2666    1.3544    1.1490 C   0  0  0  0  0  0  0  0  0  0  0  0
    7.3853    1.3836    0.3198 C   0  0  0  0  0  0  0  0  0  0  0  0
    8.9228    2.3462    0.8504 Br  0  0  0  0  0  0  0  0  0  0  0  0
    7.3796    0.7031   -0.8950 C   0  0  0  0  0  0  0  0  0  0  0  0
    6.2415   -0.0090   -1.2848 C   0  0  0  0  0  0  0  0  0  0  0  0
    0.1667   -0.9651   -0.8340 C   0  0  0  0  0  0  0  0  0  0  0  0
   -0.1469   -0.3276    0.3698 C   0  0  0  0  0  0  0  0  0  0  0  0
   -1.4813   -0.0440    0.6945 C   0  0  0  0  0  0  0  0  0  0  0  0
   -2.5184   -0.4000   -0.1700 C   0  0  0  0  0  0  0  0  0  0  0  0
   -3.8846   -0.1525    0.0810 N   0  0  0  0  0  0  0  0  0  0  0  0
   -4.4482    0.4999    1.1714 C   0  0  0  0  0  0  0  0  0  0  0  0
   -3.7971    0.9823    2.0937 O   0  0  0  0  0  0  0  0  0  0  0  0
   -5.9049    0.5746    1.1307 C   0  0  0  0  0  0  0  0  0  0  0  0
   -6.8697    0.0920    0.2590 C   0  0  0  0  0  0  0  0  0  0  0  0
   -8.1298    0.4980    0.7666 C   0  0  0  0  0  0  0  0  0  0  0  0
   -7.8683    1.2015    1.9156 C   0  0  0  0  0  0  0  0  0  0  0  0
   -6.5338    1.2538    2.1446 O   0  0  0  0  0  0  0  0  0  0  0  0
   -2.2004   -1.0560   -1.3659 C   0  0  0  0  0  0  0  0  0  0  0  0
   -0.8706   -1.3403   -1.6943 C   0  0  0  0  0  0  0  0  0  0  0  0
    2.4121    0.4847   -0.2169 H   0  0  0  0  0  0  0  0  0  0  0  0
    4.1610   -1.7379   -1.4490 H   0  0  0  0  0  0  0  0  0  0  0  0
    4.2748    0.6138    1.4277 H   0  0  0  0  0  0  0  0  0  0  0  0
    6.2699    1.8749    2.1031 H   0  0  0  0  0  0  0  0  0  0  0  0
    8.2509    0.7173   -1.5443 H   0  0  0  0  0  0  0  0  0  0  0  0
    6.2513   -0.5373   -2.2364 H   0  0  0  0  0  0  0  0  0  0  0  0
    0.6215   -0.0600    1.0897 H   0  0  0  0  0  0  0  0  0  0  0  0
   -1.6710    0.4496    1.6432 H   0  0  0  0  0  0  0  0  0  0  0  0
   -4.5219   -0.4804   -0.6292 H   0  0  0  0  0  0  0  0  0  0  0  0
   -6.7048   -0.4881   -0.6371 H   0  0  0  0  0  0  0  0  0  0  0  0
   -9.1073    0.3006    0.3488 H   0  0  0  0  0  0  0  0  0  0  0  0
   -8.4872    1.7025    2.6475 H   0  0  0  0  0  0  0  0  0  0  0  0
   -2.9780   -1.3595   -2.0627 H   0  0  0  0  0  0  0  0  0  0  0  0
   -0.6470   -1.8556   -2.6271 H   0  0  0  0  0  0  0  0  0  0  0  0
  1  2  2  0
  2  3  1  0
  3  4  2  3
  4  5  1  0
  5  6  2  0
  6  7  1  0
  7  8  2  0
  8  9  1  0
  8 10  1  0
 10 11  2  0
  2 12  1  0
 12 13  2  0
 13 14  1  0
 14 15  2  0
 15 16  1  0
 16 17  1  0
 17 18  2  0
 17 19  1  0
 19 20  2  0
 20 21  1  0
 21 22  2  0
 22 23  1  0
 15 24  1  0
 24 25  2  0
 11  5  1  0
 25 12  1  0
 23 19  1  0
  3 26  1  0
  4 27  1  0
  6 28  1  0
  7 29  1  0
 10 30  1  0
 11 31  1  0
 13 32  1  0
 14 33  1  0
 16 34  1  0
 20 35  1  0
 21 36  1  0
 22 37  1  0
 24 38  1  0
 25 39  1  0
M  END
$$$$
