
     RDKit          3D

 21 21  0  0  0  0  0  0  0  0999 V2000
    3.0793   -0.2835   -0.3674 C   0  0  0  0  0  0  0  0  0  0  0  0
    1.6051   -0.0155   -0.2319 C   0  0  0  0  0  0  0  0  0  0  0  0
    1.1226    1.2640   -0.5205 C   0  0  0  0  0  0  0  0  0  0  0  0
   -0.2308    1.5308   -0.3860 C   0  0  0  0  0  0  0  0  0  0  0  0
   -0.6850    2.7661   -0.7656 O   0  0  0  0  0  0  0  0  0  0  0  0
   -1.1432    0.5744    0.0882 C   0  0  0  0  0  0  0  0  0  0  0  0
   -2.5037    0.9530    0.1960 N   0  0  0  0  0  0  0  0  0  0  0  0
   -0.7010   -0.7504    0.2631 C   0  0  0  0  0  0  0  0  0  0  0  0
   -1.6702   -1.8427    0.6402 C   0  0  0  0  0  0  0  0  0  0  0  0
    0.6876   -1.0194    0.1485 C   0  0  0  0  0  0  0  0  0  0  0  0
    1.2946   -2.6139    0.4943 Cl  0  0  0  0  0  0  0  0  0  0  0  0
    3.6276    0.6223   -0.6485 H   0  0  0  0  0  0  0  0  0  0  0  0
    3.4951   -0.6304    0.5840 H   0  0  0  0  0  0  0  0  0  0  0  0
    3.2616   -1.0315   -1.1456 H   0  0  0  0  0  0  0  0  0  0  0  0
    1.7876    2.0516   -0.8644 H   0  0  0  0  0  0  0  0  0  0  0  0
   -1.6123    2.6098   -1.0281 H   0  0  0  0  0  0  0  0  0  0  0  0
   -3.0448    0.3136    0.7715 H   0  0  0  0  0  0  0  0  0  0  0  0
   -2.5853    1.8933    0.5829 H   0  0  0  0  0  0  0  0  0  0  0  0
   -1.7356   -1.9255    1.7293 H   0  0  0  0  0  0  0  0  0  0  0  0
   -1.3784   -2.8109    0.2223 H   0  0  0  0  0  0  0  0  0  0  0  0
   -2.6705   -1.6555    0.2376 H   0  0  0  0  0  0  0  0  0  0  0  0
  1  2  1  0
  2  3  2  0
  3  4  1  0
  4  5  1  0
  4  6  2  0
  6  7  1  0
  6  8  1  0
  8  9  1  0
  8 10  2  0
 10 11  1  0
 10  2  1  0
  1 12  1  0
  1 13  1  0
  1 14  1  0
  3 15  1  0
  5 16  1  0
  7 17  1  0
  7 18  1  0
  9 19  1  0
  9 20  1  0
  9 21  1  0
M  END
$$$$
