
     RDKit          3D

 72 74  0  0  0  0  0  0  0  0999 V2000
   -5.7305    0.5844    5.3770 C   0  0  0  0  0  0  0  0  0  0  0  0
   -4.3297    0.7980    5.5171 O   0  0  0  0  0  0  0  0  0  0  0  0
   -3.5909    0.8129    4.3679 C   0  0  0  0  0  0  0  0  0  0  0  0
   -4.0523    0.5002    3.0909 C   0  0  0  0  0  0  0  0  0  0  0  0
   -3.1834    0.5514    1.9925 C   0  0  0  0  0  0  0  0  0  0  0  0
   -1.8376    0.9206    2.1470 C   0  0  0  0  0  0  0  0  0  0  0  0
   -0.8496    0.9869    0.9830 C   0  0  0  0  0  0  0  0  0  0  0  0
   -1.4980    1.2777   -0.4143 C   0  0  0  0  0  0  0  0  0  0  0  0
   -2.4299    2.0678   -0.5582 O   0  0  0  0  0  0  0  0  0  0  0  0
   -0.8883    0.6452   -1.4848 N   0  0  0  0  0  0  0  0  0  0  0  0
   -1.2223    0.8508   -2.9016 C   0  0  0  0  0  0  0  0  0  0  0  0
   -2.6760    0.4429   -3.1890 C   0  0  0  0  0  0  0  0  0  0  0  0
   -0.2954   -0.0484   -3.7424 C   0  0  0  0  0  0  0  0  0  0  0  0
   -0.9868    2.3120   -3.3137 C   0  0  0  0  0  0  0  0  0  0  0  0
    0.0811   -0.1755    0.9479 N   0  0  0  0  0  0  0  0  0  0  0  0
   -0.5055   -1.5287    0.9040 C   0  0  0  0  0  0  0  0  0  0  0  0
   -0.0573   -2.4488    2.0629 C   0  0  0  0  0  0  0  0  0  0  0  0
   -0.7715   -3.7961    2.0230 C   0  0  0  0  0  0  0  0  0  0  0  0
   -1.9544   -3.5744    2.9323 C   0  0  0  0  0  0  0  0  0  0  0  0
   -1.3647   -2.6748    3.9912 C   0  0  0  0  0  0  0  0  0  0  0  0
   -0.3930   -1.8542    3.3329 O   0  0  0  0  0  0  0  0  0  0  0  0
    1.4477   -0.0692    0.7208 C   0  0  0  0  0  0  0  0  0  0  0  0
    2.1368   -1.0603    0.4674 O   0  0  0  0  0  0  0  0  0  0  0  0
    2.0803    1.3119    0.7887 C   0  0  0  0  0  0  0  0  0  0  0  0
    3.5533    1.2625    0.3870 C   0  0  0  0  0  0  0  0  0  0  0  0
    3.7049    1.0388   -1.1102 C   0  0  0  0  0  0  0  0  0  0  0  0
    2.7876    1.2619   -1.8955 O   0  0  0  0  0  0  0  0  0  0  0  0
    4.9735    0.6293   -1.4461 N   0  0  0  0  0  0  0  0  0  0  0  0
    5.4225    0.3927   -2.7259 C   0  0  0  0  0  0  0  0  0  0  0  0
    4.7446    0.5242   -3.9570 C   0  0  0  0  0  0  0  0  0  0  0  0
    5.6751    0.1762   -4.9032 C   0  0  0  0  0  0  0  0  0  0  0  0
    5.6719    0.0921   -6.3745 C   0  0  0  0  0  0  0  0  0  0  0  0
    6.8365   -0.1577   -4.2821 O   0  0  0  0  0  0  0  0  0  0  0  0
    6.6817   -0.0171   -2.9158 N   0  0  0  0  0  0  0  0  0  0  0  0
   -1.3833    1.2186    3.4422 C   0  0  0  0  0  0  0  0  0  0  0  0
   -2.2514    1.1649    4.5367 C   0  0  0  0  0  0  0  0  0  0  0  0
   -5.9377   -0.4271    5.0093 H   0  0  0  0  0  0  0  0  0  0  0  0
   -6.1853    1.3432    4.7318 H   0  0  0  0  0  0  0  0  0  0  0  0
   -6.1851    0.6765    6.3693 H   0  0  0  0  0  0  0  0  0  0  0  0
   -5.0822    0.2113    2.9103 H   0  0  0  0  0  0  0  0  0  0  0  0
   -3.5840    0.3042    1.0109 H   0  0  0  0  0  0  0  0  0  0  0  0
   -0.2646    1.8956    1.1644 H   0  0  0  0  0  0  0  0  0  0  0  0
   -0.0164    0.1639   -1.2897 H   0  0  0  0  0  0  0  0  0  0  0  0
   -3.3970    1.0593   -2.6455 H   0  0  0  0  0  0  0  0  0  0  0  0
   -2.9093    0.5388   -4.2561 H   0  0  0  0  0  0  0  0  0  0  0  0
   -2.8550   -0.5975   -2.8996 H   0  0  0  0  0  0  0  0  0  0  0  0
   -0.5114    0.0453   -4.8127 H   0  0  0  0  0  0  0  0  0  0  0  0
    0.7583    0.2121   -3.5876 H   0  0  0  0  0  0  0  0  0  0  0  0
   -0.4130   -1.1040   -3.4649 H   0  0  0  0  0  0  0  0  0  0  0  0
    0.0281    2.6329   -3.0557 H   0  0  0  0  0  0  0  0  0  0  0  0
   -1.1197    2.4464   -4.3923 H   0  0  0  0  0  0  0  0  0  0  0  0
   -1.6824    2.9943   -2.8150 H   0  0  0  0  0  0  0  0  0  0  0  0
   -1.5953   -1.4444    0.8913 H   0  0  0  0  0  0  0  0  0  0  0  0
   -0.2138   -1.9865   -0.0499 H   0  0  0  0  0  0  0  0  0  0  0  0
    1.0265   -2.5966    2.0409 H   0  0  0  0  0  0  0  0  0  0  0  0
   -1.0528   -4.1207    1.0180 H   0  0  0  0  0  0  0  0  0  0  0  0
   -0.1231   -4.5675    2.4556 H   0  0  0  0  0  0  0  0  0  0  0  0
   -2.7499   -3.0492    2.3908 H   0  0  0  0  0  0  0  0  0  0  0  0
   -2.3728   -4.4969    3.3420 H   0  0  0  0  0  0  0  0  0  0  0  0
   -2.1148   -2.0472    4.4780 H   0  0  0  0  0  0  0  0  0  0  0  0
   -0.8452   -3.2552    4.7618 H   0  0  0  0  0  0  0  0  0  0  0  0
    2.0006    1.6692    1.8212 H   0  0  0  0  0  0  0  0  0  0  0  0
    1.5462    2.0037    0.1306 H   0  0  0  0  0  0  0  0  0  0  0  0
    4.0271    2.2226    0.6215 H   0  0  0  0  0  0  0  0  0  0  0  0
    4.0866    0.4804    0.9392 H   0  0  0  0  0  0  0  0  0  0  0  0
    5.6632    0.4412   -0.7324 H   0  0  0  0  0  0  0  0  0  0  0  0
    3.7296    0.8485   -4.1379 H   0  0  0  0  0  0  0  0  0  0  0  0
    6.4720    0.7069   -6.7975 H   0  0  0  0  0  0  0  0  0  0  0  0
    5.8212   -0.9421   -6.6991 H   0  0  0  0  0  0  0  0  0  0  0  0
    4.7218    0.4478   -6.7866 H   0  0  0  0  0  0  0  0  0  0  0  0
   -0.3405    1.4781    3.6130 H   0  0  0  0  0  0  0  0  0  0  0  0
   -1.8755    1.3943    5.5306 H   0  0  0  0  0  0  0  0  0  0  0  0
  1  2  1  0
  2  3  1  0
  3  4  2  0
  4  5  1  0
  5  6  2  0
  6  7  1  0
  7  8  1  0
  8  9  2  0
  8 10  1  0
 10 11  1  0
 11 12  1  0
 11 13  1  0
 11 14  1  0
  7 15  1  0
 15 16  1  0
 16 17  1  0
 17 18  1  0
 18 19  1  0
 19 20  1  0
 20 21  1  0
 15 22  1  0
 22 23  2  0
 22 24  1  0
 24 25  1  0
 25 26  1  0
 26 27  2  0
 26 28  1  0
 28 29  1  0
 29 30  1  0
 30 31  2  0
 31 32  1  0
 31 33  1  0
 33 34  1  0
  6 35  1  0
 35 36  2  0
 36  3  1  0
 21 17  1  0
 34 29  2  0
  1 37  1  0
  1 38  1  0
  1 39  1  0
  4 40  1  0
  5 41  1  0
  7 42  1  0
 10 43  1  0
 12 44  1  0
 12 45  1  0
 12 46  1  0
 13 47  1  0
 13 48  1  0
 13 49  1  0
 14 50  1  0
 14 51  1  0
 14 52  1  0
 16 53  1  0
 16 54  1  0
 17 55  1  0
 18 56  1  0
 18 57  1  0
 19 58  1  0
 19 59  1  0
 20 60  1  0
 20 61  1  0
 24 62  1  0
 24 63  1  0
 25 64  1  0
 25 65  1  0
 28 66  1  0
 30 67  1  0
 32 68  1  0
 32 69  1  0
 32 70  1  0
 35 71  1  0
 36 72  1  0
M  END
$$$$
