
     RDKit          3D

 46 48  0  0  0  0  0  0  0  0999 V2000
    2.1200   -0.4456    2.9562 O   0  0  0  0  0  0  0  0  0  0  0  0
    1.4906   -0.0077    1.9916 C   0  0  0  0  0  0  0  0  0  0  0  0
    0.1353   -0.5612    1.5666 C   0  0  0  0  0  0  0  0  0  0  0  0
   -0.6233    0.4293    0.8798 O   0  0  0  0  0  0  0  0  0  0  0  0
   -1.9392    0.1344    0.6534 C   0  0  0  0  0  0  0  0  0  0  0  0
   -2.5068   -1.1376    0.7018 C   0  0  0  0  0  0  0  0  0  0  0  0
   -3.8766   -1.3037    0.4569 C   0  0  0  0  0  0  0  0  0  0  0  0
   -4.7022   -0.2080    0.1560 C   0  0  0  0  0  0  0  0  0  0  0  0
   -6.1395   -0.3897   -0.0932 C   0  0  0  0  0  0  0  0  0  0  0  0
   -7.0987    0.2811    0.6866 C   0  0  0  0  0  0  0  0  0  0  0  0
   -8.4652    0.0982    0.4584 C   0  0  0  0  0  0  0  0  0  0  0  0
   -8.8937   -0.7537   -0.5582 C   0  0  0  0  0  0  0  0  0  0  0  0
   -7.9580   -1.4211   -1.3464 C   0  0  0  0  0  0  0  0  0  0  0  0
   -6.5924   -1.2423   -1.1127 C   0  0  0  0  0  0  0  0  0  0  0  0
   -4.1128    1.0624    0.0969 C   0  0  0  0  0  0  0  0  0  0  0  0
   -2.7448    1.2293    0.3366 C   0  0  0  0  0  0  0  0  0  0  0  0
    1.9903    0.9937    1.1758 N   0  0  0  0  0  0  0  0  0  0  0  0
    3.3862    1.2401    1.2758 N   0  0  0  0  0  0  0  0  0  0  0  0
    4.1282    0.9120    0.1450 C   0  0  0  0  0  0  0  0  0  0  0  0
    3.5959    0.6232   -0.9217 O   0  0  0  0  0  0  0  0  0  0  0  0
    5.4797    1.0247    0.3971 N   0  0  0  0  0  0  0  0  0  0  0  0
    6.5140    0.6043   -0.4649 C   0  0  0  0  0  0  0  0  0  0  0  0
    7.7505    1.2559   -0.3469 C   0  0  0  0  0  0  0  0  0  0  0  0
    8.8232    0.8866   -1.1636 C   0  0  0  0  0  0  0  0  0  0  0  0
    8.6672   -0.1452   -2.0838 C   0  0  0  0  0  0  0  0  0  0  0  0
    9.7050   -0.5055   -2.8519 F   0  0  0  0  0  0  0  0  0  0  0  0
    7.4627   -0.8229   -2.1986 C   0  0  0  0  0  0  0  0  0  0  0  0
    6.3941   -0.4498   -1.3849 C   0  0  0  0  0  0  0  0  0  0  0  0
    5.2820   -1.1948   -1.4511 F   0  0  0  0  0  0  0  0  0  0  0  0
    0.3284   -1.4193    0.9124 H   0  0  0  0  0  0  0  0  0  0  0  0
   -0.3838   -0.8790    2.4798 H   0  0  0  0  0  0  0  0  0  0  0  0
   -1.9169   -2.0237    0.9167 H   0  0  0  0  0  0  0  0  0  0  0  0
   -4.3009   -2.3035    0.5139 H   0  0  0  0  0  0  0  0  0  0  0  0
   -6.7843    0.9400    1.4919 H   0  0  0  0  0  0  0  0  0  0  0  0
   -9.1928    0.6172    1.0794 H   0  0  0  0  0  0  0  0  0  0  0  0
   -9.9555   -0.8982   -0.7358 H   0  0  0  0  0  0  0  0  0  0  0  0
   -8.2891   -2.0829   -2.1426 H   0  0  0  0  0  0  0  0  0  0  0  0
   -5.8769   -1.7656   -1.7458 H   0  0  0  0  0  0  0  0  0  0  0  0
   -4.7170    1.9353   -0.1437 H   0  0  0  0  0  0  0  0  0  0  0  0
   -2.3099    2.2256    0.2939 H   0  0  0  0  0  0  0  0  0  0  0  0
    1.6137    1.0543    0.2265 H   0  0  0  0  0  0  0  0  0  0  0  0
    3.7738    0.8845    2.1502 H   0  0  0  0  0  0  0  0  0  0  0  0
    5.7128    1.7108    1.1013 H   0  0  0  0  0  0  0  0  0  0  0  0
    7.8885    2.0692    0.3624 H   0  0  0  0  0  0  0  0  0  0  0  0
    9.7798    1.3962   -1.0885 H   0  0  0  0  0  0  0  0  0  0  0  0
    7.3582   -1.6473   -2.8955 H   0  0  0  0  0  0  0  0  0  0  0  0
  1  2  2  0
  2  3  1  0
  3  4  1  0
  4  5  1  0
  5  6  2  0
  6  7  1  0
  7  8  2  0
  8  9  1  0
  9 10  2  0
 10 11  1  0
 11 12  2  0
 12 13  1  0
 13 14  2  0
  8 15  1  0
 15 16  2  0
  2 17  1  0
 17 18  1  0
 18 19  1  0
 19 20  2  0
 19 21  1  0
 21 22  1  0
 22 23  2  0
 23 24  1  0
 24 25  2  0
 25 26  1  0
 25 27  1  0
 27 28  2  0
 28 29  1  0
 16  5  1  0
 28 22  1  0
 14  9  1  0
  3 30  1  0
  3 31  1  0
  6 32  1  0
  7 33  1  0
 10 34  1  0
 11 35  1  0
 12 36  1  0
 13 37  1  0
 14 38  1  0
 15 39  1  0
 16 40  1  0
 17 41  1  0
 18 42  1  0
 21 43  1  0
 23 44  1  0
 24 45  1  0
 27 46  1  0
M  END
$$$$
