
     RDKit          3D

 44 47  0  0  0  0  0  0  0  0999 V2000
   -1.0798    4.3143   -1.1248 C   0  0  0  0  0  0  0  0  0  0  0  0
   -1.5371    3.0777   -0.5084 N   0  0  0  0  0  0  0  0  0  0  0  0
   -2.8596    2.9399   -0.1354 C   0  0  0  0  0  0  0  0  0  0  0  0
   -3.6932    3.8291   -0.3044 O   0  0  0  0  0  0  0  0  0  0  0  0
   -3.2744    1.6506    0.4967 C   0  0  0  0  0  0  0  0  0  0  0  0
   -4.6502    1.5485    0.8699 C   0  0  0  0  0  0  0  0  0  0  0  0
   -5.7603    1.4230    1.1867 N   0  0  0  0  0  0  0  0  0  0  0  0
   -2.3877    0.6482    0.6959 C   0  0  0  0  0  0  0  0  0  0  0  0
   -2.8656   -0.6080    1.3266 C   0  0  0  0  0  0  0  0  0  0  0  0
   -2.8005   -0.7660    2.7193 C   0  0  0  0  0  0  0  0  0  0  0  0
   -3.2451   -1.9502    3.3094 C   0  0  0  0  0  0  0  0  0  0  0  0
   -3.7508   -2.9687    2.5095 C   0  0  0  0  0  0  0  0  0  0  0  0
   -4.1750   -4.1046    3.0779 F   0  0  0  0  0  0  0  0  0  0  0  0
   -3.8203   -2.8275    1.1281 C   0  0  0  0  0  0  0  0  0  0  0  0
   -3.3765   -1.6459    0.5323 C   0  0  0  0  0  0  0  0  0  0  0  0
   -0.9828    0.8556    0.2729 C   0  0  0  0  0  0  0  0  0  0  0  0
   -0.0055   -0.1370    0.4477 C   0  0  0  0  0  0  0  0  0  0  0  0
    1.3080    0.0832    0.0281 C   0  0  0  0  0  0  0  0  0  0  0  0
    2.3319   -0.9601    0.2531 C   0  0  0  0  0  0  0  0  0  0  0  0
    2.2017   -1.7205    1.2097 O   0  0  0  0  0  0  0  0  0  0  0  0
    3.5317   -1.1048   -0.6035 C   0  0  0  0  0  0  0  0  0  0  0  0
    4.7494   -1.3804    0.0342 C   0  0  0  0  0  0  0  0  0  0  0  0
    5.9080   -1.5499   -0.7222 C   0  0  0  0  0  0  0  0  0  0  0  0
    7.4018   -1.8706    0.0674 Cl  0  0  0  0  0  0  0  0  0  0  0  0
    5.8691   -1.4613   -2.1116 C   0  0  0  0  0  0  0  0  0  0  0  0
    4.6538   -1.2104   -2.7455 C   0  0  0  0  0  0  0  0  0  0  0  0
    4.6074   -1.1204   -4.4679 Cl  0  0  0  0  0  0  0  0  0  0  0  0
    3.4814   -1.0371   -1.9995 C   0  0  0  0  0  0  0  0  0  0  0  0
    2.2841   -0.8258   -2.6300 O   0  0  0  0  0  0  0  0  0  0  0  0
    1.6066    1.3122   -0.5311 C   0  0  0  0  0  0  0  0  0  0  0  0
    0.6921    2.2937   -0.7137 N   0  0  0  0  0  0  0  0  0  0  0  0
   -0.5834    2.0568   -0.3163 C   0  0  0  0  0  0  0  0  0  0  0  0
   -0.6857    4.0993   -2.1234 H   0  0  0  0  0  0  0  0  0  0  0  0
   -0.3003    4.7652   -0.5019 H   0  0  0  0  0  0  0  0  0  0  0  0
   -1.8916    5.0396   -1.2296 H   0  0  0  0  0  0  0  0  0  0  0  0
   -2.4056    0.0254    3.3528 H   0  0  0  0  0  0  0  0  0  0  0  0
   -3.2022   -2.0852    4.3857 H   0  0  0  0  0  0  0  0  0  0  0  0
   -4.2215   -3.6372    0.5265 H   0  0  0  0  0  0  0  0  0  0  0  0
   -3.4350   -1.5437   -0.5491 H   0  0  0  0  0  0  0  0  0  0  0  0
   -0.2503   -1.0922    0.9096 H   0  0  0  0  0  0  0  0  0  0  0  0
    4.7884   -1.4664    1.1192 H   0  0  0  0  0  0  0  0  0  0  0  0
    6.7769   -1.5964   -2.6943 H   0  0  0  0  0  0  0  0  0  0  0  0
    2.4379   -0.8665   -3.5951 H   0  0  0  0  0  0  0  0  0  0  0  0
    2.6101    1.5746   -0.8517 H   0  0  0  0  0  0  0  0  0  0  0  0
  1  2  1  0
  2  3  1  0
  3  4  2  0
  3  5  1  0
  5  6  1  0
  6  7  3  0
  5  8  2  0
  8  9  1  0
  9 10  2  0
 10 11  1  0
 11 12  2  0
 12 13  1  0
 12 14  1  0
 14 15  2  0
  8 16  1  0
 16 17  2  0
 17 18  1  0
 18 19  1  0
 19 20  2  0
 19 21  1  0
 21 22  2  0
 22 23  1  0
 23 24  1  0
 23 25  2  0
 25 26  1  0
 26 27  1  0
 26 28  2  0
 28 29  1  0
 18 30  2  0
 30 31  1  0
 31 32  2  0
 32  2  1  0
 15  9  1  0
 32 16  1  0
 28 21  1  0
  1 33  1  0
  1 34  1  0
  1 35  1  0
 10 36  1  0
 11 37  1  0
 14 38  1  0
 15 39  1  0
 17 40  1  0
 22 41  1  0
 25 42  1  0
 29 43  1  0
 30 44  1  0
M  END
$$$$
