
     RDKit          3D

 68 70  0  0  0  0  0  0  0  0999 V2000
   -5.0314    5.0201   -0.8001 C   0  0  0  0  0  0  0  0  0  0  0  0
   -4.4615    4.7534    0.4745 O   0  0  0  0  0  0  0  0  0  0  0  0
   -3.7670    3.5823    0.6060 C   0  0  0  0  0  0  0  0  0  0  0  0
   -3.2083    3.3706    1.8673 C   0  0  0  0  0  0  0  0  0  0  0  0
   -2.4702    2.2142    2.1361 C   0  0  0  0  0  0  0  0  0  0  0  0
   -2.2802    1.2382    1.1438 C   0  0  0  0  0  0  0  0  0  0  0  0
   -1.4583   -0.0101    1.4763 C   0  0  0  0  0  0  0  0  0  0  0  0
   -1.9238   -1.3558    0.8457 C   0  0  0  0  0  0  0  0  0  0  0  0
   -1.1275   -2.2379    0.5207 O   0  0  0  0  0  0  0  0  0  0  0  0
   -3.2971   -1.5424    0.8011 N   0  0  0  0  0  0  0  0  0  0  0  0
   -3.9685   -2.7002    0.1878 C   0  0  0  0  0  0  0  0  0  0  0  0
   -5.4875   -2.4966    0.3330 C   0  0  0  0  0  0  0  0  0  0  0  0
   -3.6287   -2.7916   -1.3089 C   0  0  0  0  0  0  0  0  0  0  0  0
   -3.5887   -4.0095    0.8970 C   0  0  0  0  0  0  0  0  0  0  0  0
   -0.0015    0.2045    1.3026 N   0  0  0  0  0  0  0  0  0  0  0  0
    0.5009    0.3016    0.0043 C   0  0  0  0  0  0  0  0  0  0  0  0
   -0.2308    0.3495   -0.9868 O   0  0  0  0  0  0  0  0  0  0  0  0
    2.0117    0.2803   -0.1822 C   0  0  0  0  0  0  0  0  0  0  0  0
    2.3706   -0.3181   -1.5402 C   0  0  0  0  0  0  0  0  0  0  0  0
    3.8618   -0.2793   -1.8088 C   0  0  0  0  0  0  0  0  0  0  0  0
    4.6397    0.3643   -1.1160 O   0  0  0  0  0  0  0  0  0  0  0  0
    4.1909   -1.0108   -2.9269 N   0  0  0  0  0  0  0  0  0  0  0  0
    5.4440   -1.0800   -3.4937 C   0  0  0  0  0  0  0  0  0  0  0  0
    6.6481   -0.4499   -3.1035 C   0  0  0  0  0  0  0  0  0  0  0  0
    7.5572   -0.8270   -4.0581 C   0  0  0  0  0  0  0  0  0  0  0  0
    8.9826   -0.5352   -4.2904 C   0  0  0  0  0  0  0  0  0  0  0  0
    6.9508   -1.6627   -4.9447 O   0  0  0  0  0  0  0  0  0  0  0  0
    5.6225   -1.8168   -4.5977 N   0  0  0  0  0  0  0  0  0  0  0  0
    0.7766    0.3908    2.4811 C   0  0  0  0  0  0  0  0  0  0  0  0
    0.6884   -0.5311    3.5369 C   0  0  0  0  0  0  0  0  0  0  0  0
    1.4367   -0.3527    4.7045 C   0  0  0  0  0  0  0  0  0  0  0  0
    2.2727    0.7567    4.8303 C   0  0  0  0  0  0  0  0  0  0  0  0
    2.3540    1.6718    3.7877 C   0  0  0  0  0  0  0  0  0  0  0  0
    3.1499    2.7436    3.9104 F   0  0  0  0  0  0  0  0  0  0  0  0
    1.6155    1.5027    2.6196 C   0  0  0  0  0  0  0  0  0  0  0  0
   -2.8340    1.4689   -0.1225 C   0  0  0  0  0  0  0  0  0  0  0  0
   -3.5757    2.6269   -0.3890 C   0  0  0  0  0  0  0  0  0  0  0  0
   -5.7796    4.2650   -1.0646 H   0  0  0  0  0  0  0  0  0  0  0  0
   -4.2541    5.0959   -1.5681 H   0  0  0  0  0  0  0  0  0  0  0  0
   -5.5406    5.9888   -0.7465 H   0  0  0  0  0  0  0  0  0  0  0  0
   -3.3420    4.1228    2.6413 H   0  0  0  0  0  0  0  0  0  0  0  0
   -2.0374    2.0834    3.1259 H   0  0  0  0  0  0  0  0  0  0  0  0
   -1.6546   -0.1939    2.5444 H   0  0  0  0  0  0  0  0  0  0  0  0
   -3.8776   -0.7360    0.9931 H   0  0  0  0  0  0  0  0  0  0  0  0
   -5.7775   -2.4094    1.3873 H   0  0  0  0  0  0  0  0  0  0  0  0
   -6.0439   -3.3330   -0.1060 H   0  0  0  0  0  0  0  0  0  0  0  0
   -5.8143   -1.5759   -0.1657 H   0  0  0  0  0  0  0  0  0  0  0  0
   -2.5645   -2.9815   -1.4822 H   0  0  0  0  0  0  0  0  0  0  0  0
   -3.8773   -1.8543   -1.8193 H   0  0  0  0  0  0  0  0  0  0  0  0
   -4.1869   -3.6018   -1.7937 H   0  0  0  0  0  0  0  0  0  0  0  0
   -2.5314   -4.2566    0.7679 H   0  0  0  0  0  0  0  0  0  0  0  0
   -3.7834   -3.9429    1.9734 H   0  0  0  0  0  0  0  0  0  0  0  0
   -4.1629   -4.8573    0.5057 H   0  0  0  0  0  0  0  0  0  0  0  0
    2.4922   -0.3175    0.6001 H   0  0  0  0  0  0  0  0  0  0  0  0
    2.3798    1.3102   -0.1204 H   0  0  0  0  0  0  0  0  0  0  0  0
    1.8810    0.2403   -2.3481 H   0  0  0  0  0  0  0  0  0  0  0  0
    2.0202   -1.3566   -1.5907 H   0  0  0  0  0  0  0  0  0  0  0  0
    3.4789   -1.5277   -3.4360 H   0  0  0  0  0  0  0  0  0  0  0  0
    6.8346    0.1912   -2.2576 H   0  0  0  0  0  0  0  0  0  0  0  0
    9.6121   -1.2993   -3.8229 H   0  0  0  0  0  0  0  0  0  0  0  0
    9.2080   -0.5089   -5.3612 H   0  0  0  0  0  0  0  0  0  0  0  0
    9.2552    0.4389   -3.8681 H   0  0  0  0  0  0  0  0  0  0  0  0
    0.0694   -1.4241    3.4431 H   0  0  0  0  0  0  0  0  0  0  0  0
    1.3746   -1.0817    5.5093 H   0  0  0  0  0  0  0  0  0  0  0  0
    2.8606    0.9073    5.7308 H   0  0  0  0  0  0  0  0  0  0  0  0
    1.6806    2.2716    1.8558 H   0  0  0  0  0  0  0  0  0  0  0  0
   -2.6768    0.7586   -0.9346 H   0  0  0  0  0  0  0  0  0  0  0  0
   -3.9763    2.7525   -1.3899 H   0  0  0  0  0  0  0  0  0  0  0  0
  1  2  1  0
  2  3  1  0
  3  4  2  0
  4  5  1  0
  5  6  2  0
  6  7  1  0
  7  8  1  0
  8  9  2  0
  8 10  1  0
 10 11  1  0
 11 12  1  0
 11 13  1  0
 11 14  1  0
  7 15  1  0
 15 16  1  0
 16 17  2  0
 16 18  1  0
 18 19  1  0
 19 20  1  0
 20 21  2  0
 20 22  1  0
 22 23  1  0
 23 24  1  0
 24 25  2  0
 25 26  1  0
 25 27  1  0
 27 28  1  0
 15 29  1  0
 29 30  2  0
 30 31  1  0
 31 32  2  0
 32 33  1  0
 33 34  1  0
 33 35  2  0
  6 36  1  0
 36 37  2  0
 37  3  1  0
 28 23  2  0
 35 29  1  0
  1 38  1  0
  1 39  1  0
  1 40  1  0
  4 41  1  0
  5 42  1  0
  7 43  1  0
 10 44  1  0
 12 45  1  0
 12 46  1  0
 12 47  1  0
 13 48  1  0
 13 49  1  0
 13 50  1  0
 14 51  1  0
 14 52  1  0
 14 53  1  0
 18 54  1  0
 18 55  1  0
 19 56  1  0
 19 57  1  0
 22 58  1  0
 24 59  1  0
 26 60  1  0
 26 61  1  0
 26 62  1  0
 30 63  1  0
 31 64  1  0
 32 65  1  0
 35 66  1  0
 36 67  1  0
 37 68  1  0
M  END
$$$$
