
     RDKit          3D

 57 59  0  0  0  0  0  0  0  0999 V2000
    5.4241    1.0058   -2.0089 C   0  0  0  0  0  0  0  0  0  0  0  0
    5.0319    0.5235   -0.6157 C   0  0  0  0  0  0  0  0  0  0  0  0
    6.0157   -0.9569   -0.1480 S   0  0  0  0  0  0  0  0  0  0  0  0
    7.6459   -0.2039    0.1447 C   0  0  0  0  0  0  0  0  0  0  0  0
    7.6701    0.7021    1.3467 C   0  0  0  0  0  0  0  0  0  0  0  0
    7.4959    0.1845    2.6408 C   0  0  0  0  0  0  0  0  0  0  0  0
    7.5250    1.0279    3.7543 C   0  0  0  0  0  0  0  0  0  0  0  0
    7.7313    2.3945    3.5886 C   0  0  0  0  0  0  0  0  0  0  0  0
    7.9085    2.9217    2.3100 C   0  0  0  0  0  0  0  0  0  0  0  0
    7.8790    2.0803    1.1945 C   0  0  0  0  0  0  0  0  0  0  0  0
    3.5428    0.1520   -0.5633 C   0  0  0  0  0  0  0  0  0  0  0  0
    2.8514    0.0300   -1.5743 O   0  0  0  0  0  0  0  0  0  0  0  0
    3.0710   -0.0088    0.7419 N   0  0  0  0  0  0  0  0  0  0  0  0
    1.7278   -0.0687    1.0323 N   0  0  0  0  0  0  0  0  0  0  0  0
    1.0498   -0.9425    0.3568 C   0  0  0  0  0  0  0  0  0  0  0  0
   -0.4180   -1.0516    0.4539 C   0  0  0  0  0  0  0  0  0  0  0  0
   -1.1743   -0.0817    1.1162 C   0  0  0  0  0  0  0  0  0  0  0  0
   -2.5717   -0.1740    1.1383 C   0  0  0  0  0  0  0  0  0  0  0  0
   -3.2116   -1.2371    0.4976 C   0  0  0  0  0  0  0  0  0  0  0  0
   -4.5613   -1.4370    0.4289 O   0  0  0  0  0  0  0  0  0  0  0  0
   -5.3991   -0.3884    0.8849 C   0  0  0  0  0  0  0  0  0  0  0  0
   -6.8558   -0.7600    0.5986 C   0  0  0  0  0  0  0  0  0  0  0  0
   -7.3468   -1.8414    0.9173 O   0  0  0  0  0  0  0  0  0  0  0  0
   -7.5801    0.2314   -0.0367 N   0  0  0  0  0  0  0  0  0  0  0  0
   -8.9110   -0.0292   -0.5397 C   0  0  0  0  0  0  0  0  0  0  0  0
   -8.7966   -0.4090   -1.9670 C   0  0  0  0  0  0  0  0  0  0  0  0
   -8.6883   -1.6194   -2.6171 C   0  0  0  0  0  0  0  0  0  0  0  0
   -8.5905   -1.3234   -3.9961 C   0  0  0  0  0  0  0  0  0  0  0  0
   -8.6442    0.0457   -4.0992 C   0  0  0  0  0  0  0  0  0  0  0  0
   -8.7639    0.6114   -2.8721 O   0  0  0  0  0  0  0  0  0  0  0  0
   -2.4441   -2.2170   -0.1505 C   0  0  0  0  0  0  0  0  0  0  0  0
   -1.0513   -2.1253   -0.1817 C   0  0  0  0  0  0  0  0  0  0  0  0
    4.7576    1.8114   -2.3395 H   0  0  0  0  0  0  0  0  0  0  0  0
    6.4433    1.4039   -2.0319 H   0  0  0  0  0  0  0  0  0  0  0  0
    5.3512    0.2047   -2.7503 H   0  0  0  0  0  0  0  0  0  0  0  0
    5.1925    1.3295    0.1080 H   0  0  0  0  0  0  0  0  0  0  0  0
    8.3703   -1.0125    0.3018 H   0  0  0  0  0  0  0  0  0  0  0  0
    7.9777    0.3197   -0.7542 H   0  0  0  0  0  0  0  0  0  0  0  0
    7.3373   -0.8833    2.7921 H   0  0  0  0  0  0  0  0  0  0  0  0
    7.3893    0.6175    4.7518 H   0  0  0  0  0  0  0  0  0  0  0  0
    7.7590    3.0476    4.4576 H   0  0  0  0  0  0  0  0  0  0  0  0
    8.0741    3.9892    2.1813 H   0  0  0  0  0  0  0  0  0  0  0  0
    8.0247    2.5143    0.2077 H   0  0  0  0  0  0  0  0  0  0  0  0
    3.6322    0.3928    1.4880 H   0  0  0  0  0  0  0  0  0  0  0  0
    1.5449   -1.6563   -0.3247 H   0  0  0  0  0  0  0  0  0  0  0  0
   -0.6826    0.7566    1.6078 H   0  0  0  0  0  0  0  0  0  0  0  0
   -3.1258    0.6035    1.6589 H   0  0  0  0  0  0  0  0  0  0  0  0
   -5.1487    0.5478    0.3708 H   0  0  0  0  0  0  0  0  0  0  0  0
   -5.3047   -0.2578    1.9700 H   0  0  0  0  0  0  0  0  0  0  0  0
   -7.0773    0.9812   -0.4963 H   0  0  0  0  0  0  0  0  0  0  0  0
   -9.4001   -0.8169    0.0388 H   0  0  0  0  0  0  0  0  0  0  0  0
   -9.4908    0.8915   -0.4313 H   0  0  0  0  0  0  0  0  0  0  0  0
   -8.6709   -2.5929   -2.1450 H   0  0  0  0  0  0  0  0  0  0  0  0
   -8.4890   -2.0217   -4.8136 H   0  0  0  0  0  0  0  0  0  0  0  0
   -8.6078    0.7358   -4.9302 H   0  0  0  0  0  0  0  0  0  0  0  0
   -2.9408   -3.0510   -0.6476 H   0  0  0  0  0  0  0  0  0  0  0  0
   -0.4771   -2.8900   -0.7009 H   0  0  0  0  0  0  0  0  0  0  0  0
  1  2  1  0
  2  3  1  0
  3  4  1  0
  4  5  1  0
  5  6  2  0
  6  7  1  0
  7  8  2  0
  8  9  1  0
  9 10  2  0
  2 11  1  0
 11 12  2  0
 11 13  1  0
 13 14  1  0
 14 15  2  3
 15 16  1  0
 16 17  2  0
 17 18  1  0
 18 19  2  0
 19 20  1  0
 20 21  1  0
 21 22  1  0
 22 23  2  0
 22 24  1  0
 24 25  1  0
 25 26  1  0
 26 27  2  0
 27 28  1  0
 28 29  2  0
 29 30  1  0
 19 31  1  0
 31 32  2  0
 10  5  1  0
 32 16  1  0
 30 26  1  0
  1 33  1  0
  1 34  1  0
  1 35  1  0
  2 36  1  0
  4 37  1  0
  4 38  1  0
  6 39  1  0
  7 40  1  0
  8 41  1  0
  9 42  1  0
 10 43  1  0
 13 44  1  0
 15 45  1  0
 17 46  1  0
 18 47  1  0
 21 48  1  0
 21 49  1  0
 24 50  1  0
 25 51  1  0
 25 52  1  0
 27 53  1  0
 28 54  1  0
 29 55  1  0
 31 56  1  0
 32 57  1  0
M  END
$$$$
