
     RDKit          3D

 39 39  0  0  0  0  0  0  0  0999 V2000
   -2.7164   -3.4772    1.9442 C   0  0  0  0  0  0  0  0  0  0  0  0
   -1.7840   -3.5953    0.7534 C   0  0  0  0  0  0  0  0  0  0  0  0
   -0.8712   -2.4863    0.7294 O   0  0  0  0  0  0  0  0  0  0  0  0
   -1.3303   -1.3447    0.1189 C   0  0  0  0  0  0  0  0  0  0  0  0
   -2.4205   -1.2587   -0.4356 O   0  0  0  0  0  0  0  0  0  0  0  0
   -0.2459   -0.2272    0.1850 C   0  0  0  0  0  0  0  0  0  0  0  0
   -0.5384    0.7610   -0.8463 N   0  0  0  0  0  0  0  0  0  0  0  0
   -1.5165    1.7068   -0.6997 C   0  0  0  0  0  0  0  0  0  0  0  0
   -2.1048    1.8860    0.3573 O   0  0  0  0  0  0  0  0  0  0  0  0
   -1.7653    2.5078   -1.9608 C   0  0  0  0  0  0  0  0  0  0  0  0
   -2.8518    3.5517   -1.7764 C   0  0  0  0  0  0  0  0  0  0  0  0
    1.0387   -0.8354   -0.3097 N   0  0  0  0  0  0  0  0  0  0  0  0
    2.2794   -0.1995   -0.1941 C   0  0  0  0  0  0  0  0  0  0  0  0
    2.4595    1.1846   -0.1153 C   0  0  0  0  0  0  0  0  0  0  0  0
    3.7400    1.7507   -0.0787 C   0  0  0  0  0  0  0  0  0  0  0  0
    4.8681    0.9413   -0.1546 C   0  0  0  0  0  0  0  0  0  0  0  0
    4.7149   -0.4338   -0.2801 C   0  0  0  0  0  0  0  0  0  0  0  0
    3.4335   -0.9921   -0.3134 C   0  0  0  0  0  0  0  0  0  0  0  0
   -0.2481    0.1894    1.6959 C   0  0  0  0  0  0  0  0  0  0  0  0
   -1.4761    0.1791    2.2645 F   0  0  0  0  0  0  0  0  0  0  0  0
    0.5044   -0.6804    2.4306 F   0  0  0  0  0  0  0  0  0  0  0  0
    0.2878    1.4177    1.9023 F   0  0  0  0  0  0  0  0  0  0  0  0
   -3.3328   -2.5754    1.8734 H   0  0  0  0  0  0  0  0  0  0  0  0
   -2.1436   -3.3985    2.8742 H   0  0  0  0  0  0  0  0  0  0  0  0
   -3.3761   -4.3470    2.0081 H   0  0  0  0  0  0  0  0  0  0  0  0
   -1.1796   -4.5033    0.8477 H   0  0  0  0  0  0  0  0  0  0  0  0
   -2.3392   -3.6747   -0.1881 H   0  0  0  0  0  0  0  0  0  0  0  0
   -0.1881    0.5294   -1.7637 H   0  0  0  0  0  0  0  0  0  0  0  0
   -0.8297    2.9990   -2.2506 H   0  0  0  0  0  0  0  0  0  0  0  0
   -2.0544    1.8165   -2.7602 H   0  0  0  0  0  0  0  0  0  0  0  0
   -3.8015    3.0850   -1.4946 H   0  0  0  0  0  0  0  0  0  0  0  0
   -3.0066    4.1092   -2.7052 H   0  0  0  0  0  0  0  0  0  0  0  0
   -2.5825    4.2647   -0.9900 H   0  0  0  0  0  0  0  0  0  0  0  0
    1.1115   -1.7879    0.0596 H   0  0  0  0  0  0  0  0  0  0  0  0
    1.6192    1.8701   -0.0733 H   0  0  0  0  0  0  0  0  0  0  0  0
    3.8503    2.8292    0.0036 H   0  0  0  0  0  0  0  0  0  0  0  0
    5.8608    1.3823   -0.1280 H   0  0  0  0  0  0  0  0  0  0  0  0
    5.5889   -1.0748   -0.3596 H   0  0  0  0  0  0  0  0  0  0  0  0
    3.3463   -2.0697   -0.4348 H   0  0  0  0  0  0  0  0  0  0  0  0
  1  2  1  0
  2  3  1  0
  3  4  1  0
  4  5  2  0
  4  6  1  0
  6  7  1  0
  7  8  1  0
  8  9  2  0
  8 10  1  0
 10 11  1  0
  6 12  1  0
 12 13  1  0
 13 14  2  0
 14 15  1  0
 15 16  2  0
 16 17  1  0
 17 18  2  0
  6 19  1  0
 19 20  1  0
 19 21  1  0
 19 22  1  0
 18 13  1  0
  1 23  1  0
  1 24  1  0
  1 25  1  0
  2 26  1  0
  2 27  1  0
  7 28  1  0
 10 29  1  0
 10 30  1  0
 11 31  1  0
 11 32  1  0
 11 33  1  0
 12 34  1  0
 14 35  1  0
 15 36  1  0
 16 37  1  0
 17 38  1  0
 18 39  1  0
M  END
$$$$
