
     RDKit          3D

 55 57  0  0  0  0  0  0  0  0999 V2000
   -4.5728    2.9175    1.1061 C   0  0  0  0  0  0  0  0  0  0  0  0
   -3.8438    1.7288    0.8230 O   0  0  0  0  0  0  0  0  0  0  0  0
   -4.5694    0.6010    0.5208 C   0  0  0  0  0  0  0  0  0  0  0  0
   -5.9663    0.5366    0.4982 C   0  0  0  0  0  0  0  0  0  0  0  0
   -6.6209   -0.6616    0.1760 C   0  0  0  0  0  0  0  0  0  0  0  0
   -8.1150   -0.6707    0.1633 C   0  0  0  0  0  0  0  0  0  0  0  0
   -8.8360   -1.9484   -0.1738 C   0  0  0  0  0  0  0  0  0  0  0  0
   -8.7339    0.3602    0.4222 O   0  0  0  0  0  0  0  0  0  0  0  0
   -5.8662   -1.7995   -0.1233 C   0  0  0  0  0  0  0  0  0  0  0  0
   -4.4684   -1.7435   -0.1010 C   0  0  0  0  0  0  0  0  0  0  0  0
   -3.8154   -0.5503    0.2193 C   0  0  0  0  0  0  0  0  0  0  0  0
   -2.4556   -0.3948    0.2658 O   0  0  0  0  0  0  0  0  0  0  0  0
   -1.6350   -1.5227   -0.0197 C   0  0  0  0  0  0  0  0  0  0  0  0
   -0.1572   -1.1390    0.1060 C   0  0  0  0  0  0  0  0  0  0  0  0
    0.7249   -1.9476   -0.1681 O   0  0  0  0  0  0  0  0  0  0  0  0
    0.0247    0.1618    0.5436 N   0  0  0  0  0  0  0  0  0  0  0  0
    1.2289    0.8373    0.7991 C   0  0  0  0  0  0  0  0  0  0  0  0
    1.1379    2.1790    1.1761 C   0  0  0  0  0  0  0  0  0  0  0  0
    2.2921    2.9205    1.4450 C   0  0  0  0  0  0  0  0  0  0  0  0
    3.5618    2.3370    1.3476 C   0  0  0  0  0  0  0  0  0  0  0  0
    4.8874    3.3828    1.6883 Cl  0  0  0  0  0  0  0  0  0  0  0  0
    3.6586    0.9966    0.9768 C   0  0  0  0  0  0  0  0  0  0  0  0
    5.1862    0.1039    0.8338 S   0  0  0  0  0  6  0  0  0  0  0  0
    5.0179   -1.1257    1.5809 O   0  0  0  0  0  0  0  0  0  0  0  0
    6.3258    0.9557    1.0849 O   0  0  0  0  0  0  0  0  0  0  0  0
    5.2124   -0.2872   -0.8268 N   0  0  0  0  0  0  0  0  0  0  0  0
    5.3928    0.8478   -1.7879 C   0  0  0  0  0  0  0  0  0  0  0  0
    6.8733    1.2012   -1.9947 C   0  0  0  0  0  0  0  0  0  0  0  0
    7.6392    0.0524   -2.3844 O   0  0  0  0  0  0  0  0  0  0  0  0
    7.5534   -0.9701   -1.3789 C   0  0  0  0  0  0  0  0  0  0  0  0
    6.1036   -1.4301   -1.1986 C   0  0  0  0  0  0  0  0  0  0  0  0
    2.4901    0.2509    0.7060 C   0  0  0  0  0  0  0  0  0  0  0  0
   -5.1918    2.7967    2.0015 H   0  0  0  0  0  0  0  0  0  0  0  0
   -3.8479    3.7123    1.3082 H   0  0  0  0  0  0  0  0  0  0  0  0
   -5.1737    3.2275    0.2444 H   0  0  0  0  0  0  0  0  0  0  0  0
   -6.5728    1.4080    0.7283 H   0  0  0  0  0  0  0  0  0  0  0  0
   -8.5999   -2.2568   -1.1949 H   0  0  0  0  0  0  0  0  0  0  0  0
   -8.5755   -2.7322    0.5414 H   0  0  0  0  0  0  0  0  0  0  0  0
   -9.9155   -1.7785   -0.1104 H   0  0  0  0  0  0  0  0  0  0  0  0
   -6.3374   -2.7447   -0.3785 H   0  0  0  0  0  0  0  0  0  0  0  0
   -3.9210   -2.6502   -0.3400 H   0  0  0  0  0  0  0  0  0  0  0  0
   -1.7992   -1.8595   -1.0495 H   0  0  0  0  0  0  0  0  0  0  0  0
   -1.8250   -2.3268    0.7002 H   0  0  0  0  0  0  0  0  0  0  0  0
   -0.8425    0.6825    0.6732 H   0  0  0  0  0  0  0  0  0  0  0  0
    0.1703    2.6692    1.2638 H   0  0  0  0  0  0  0  0  0  0  0  0
    2.1896    3.9661    1.7336 H   0  0  0  0  0  0  0  0  0  0  0  0
    4.9582    0.5258   -2.7433 H   0  0  0  0  0  0  0  0  0  0  0  0
    4.8278    1.7280   -1.4673 H   0  0  0  0  0  0  0  0  0  0  0  0
    7.3240    1.6439   -1.1002 H   0  0  0  0  0  0  0  0  0  0  0  0
    6.9616    1.9402   -2.7988 H   0  0  0  0  0  0  0  0  0  0  0  0
    7.9862   -0.5977   -0.4429 H   0  0  0  0  0  0  0  0  0  0  0  0
    8.1677   -1.8113   -1.7156 H   0  0  0  0  0  0  0  0  0  0  0  0
    5.7253   -1.8363   -2.1460 H   0  0  0  0  0  0  0  0  0  0  0  0
    6.0374   -2.2370   -0.4620 H   0  0  0  0  0  0  0  0  0  0  0  0
    2.5990   -0.7963    0.4295 H   0  0  0  0  0  0  0  0  0  0  0  0
  1  2  1  0
  2  3  1  0
  3  4  2  0
  4  5  1  0
  5  6  1  0
  6  7  1  0
  6  8  2  0
  5  9  2  0
  9 10  1  0
 10 11  2  0
 11 12  1  0
 12 13  1  0
 13 14  1  0
 14 15  2  0
 14 16  1  0
 16 17  1  0
 17 18  2  0
 18 19  1  0
 19 20  2  0
 20 21  1  0
 20 22  1  0
 22 23  1  0
 23 24  2  0
 23 25  2  0
 23 26  1  0
 26 27  1  0
 27 28  1  0
 28 29  1  0
 29 30  1  0
 30 31  1  0
 22 32  2  0
 11  3  1  0
 32 17  1  0
 31 26  1  0
  1 33  1  0
  1 34  1  0
  1 35  1  0
  4 36  1  0
  7 37  1  0
  7 38  1  0
  7 39  1  0
  9 40  1  0
 10 41  1  0
 13 42  1  0
 13 43  1  0
 16 44  1  0
 18 45  1  0
 19 46  1  0
 27 47  1  0
 27 48  1  0
 28 49  1  0
 28 50  1  0
 30 51  1  0
 30 52  1  0
 31 53  1  0
 31 54  1  0
 32 55  1  0
M  END
$$$$
