
     RDKit          3D

 73 75  0  0  0  0  0  0  0  0999 V2000
   -1.9892   -5.8079   -0.1976 C   0  0  0  0  0  0  0  0  0  0  0  0
   -2.8742   -4.6963   -0.7527 C   0  0  0  0  0  0  0  0  0  0  0  0
   -3.0207   -4.8231   -2.2690 C   0  0  0  0  0  0  0  0  0  0  0  0
   -2.3225   -3.3995   -0.3967 N   0  0  0  0  0  0  0  0  0  0  0  0
   -3.1106   -2.2658   -0.3357 C   0  0  0  0  0  0  0  0  0  0  0  0
   -4.3305   -2.3022   -0.4356 O   0  0  0  0  0  0  0  0  0  0  0  0
   -2.3332   -1.1511   -0.1344 N   0  0  0  0  0  0  0  0  0  0  0  0
   -2.7280    0.1931    0.0482 C   0  0  0  0  0  0  0  0  0  0  0  0
   -4.0656    0.5715    0.1856 C   0  0  0  0  0  0  0  0  0  0  0  0
   -4.3960    1.9059    0.3884 C   0  0  0  0  0  0  0  0  0  0  0  0
   -3.3894    2.8646    0.4478 C   0  0  0  0  0  0  0  0  0  0  0  0
   -2.0336    2.5105    0.2974 C   0  0  0  0  0  0  0  0  0  0  0  0
   -1.6878    1.1621    0.1064 C   0  0  0  0  0  0  0  0  0  0  0  0
   -0.4505    0.5876   -0.0514 O   0  0  0  0  0  0  0  0  0  0  0  0
    0.7581    1.3349   -0.0472 C   0  0  0  0  0  0  0  0  0  0  0  0
    1.8900    0.4406    0.5192 C   0  0  0  0  0  0  0  0  0  0  0  0
    2.4122   -0.5920   -0.4148 N   0  0  0  0  0  0  0  0  0  0  0  0
    3.8722   -0.4876   -0.6352 C   0  0  0  0  0  0  0  0  0  0  0  0
    1.7789   -2.1703   -0.3477 S   0  0  0  0  0  6  0  0  0  0  0  0
    0.3338   -2.1049   -0.2744 O   0  0  0  0  0  0  0  0  0  0  0  0
    2.4129   -2.9536   -1.3868 O   0  0  0  0  0  0  0  0  0  0  0  0
    2.3664   -2.7995    1.2129 C   0  0  0  0  0  0  0  0  0  0  0  0
    1.5528   -2.7085    2.3502 C   0  0  0  0  0  0  0  0  0  0  0  0
    2.0032   -3.2393    3.5597 C   0  0  0  0  0  0  0  0  0  0  0  0
    3.2431   -3.8703    3.6161 C   0  0  0  0  0  0  0  0  0  0  0  0
    3.6662   -4.3833    4.7781 F   0  0  0  0  0  0  0  0  0  0  0  0
    4.0437   -3.9880    2.4824 C   0  0  0  0  0  0  0  0  0  0  0  0
    3.6025   -3.4564    1.2695 C   0  0  0  0  0  0  0  0  0  0  0  0
    1.0313    1.9748   -1.4356 C   0  0  0  0  0  0  0  0  0  0  0  0
    1.0494    0.9865   -2.6107 C   0  0  0  0  0  0  0  0  0  0  0  0
   -0.0279    3.0459   -1.7635 C   0  0  0  0  0  0  0  0  0  0  0  0
   -0.2259    3.9562   -0.6422 N   0  0  0  0  0  0  0  0  0  0  0  0
    0.6133    5.1748   -0.5891 C   0  0  0  0  0  0  0  0  0  0  0  0
    1.5580    5.1926    0.6147 C   0  0  0  0  0  0  0  0  0  0  0  0
   -0.2283    6.4674   -0.6689 C   0  0  0  0  0  0  0  0  0  0  0  0
   -0.9118    6.5586   -1.9228 O   0  0  0  0  0  0  0  0  0  0  0  0
   -1.1166    3.6743    0.3967 C   0  0  0  0  0  0  0  0  0  0  0  0
   -1.2077    4.3712    1.4058 O   0  0  0  0  0  0  0  0  0  0  0  0
   -2.4072   -6.7927   -0.4273 H   0  0  0  0  0  0  0  0  0  0  0  0
   -0.9781   -5.7591   -0.6162 H   0  0  0  0  0  0  0  0  0  0  0  0
   -1.9006   -5.7236    0.8900 H   0  0  0  0  0  0  0  0  0  0  0  0
   -3.8714   -4.7811   -0.3015 H   0  0  0  0  0  0  0  0  0  0  0  0
   -2.0523   -4.7113   -2.7691 H   0  0  0  0  0  0  0  0  0  0  0  0
   -3.4375   -5.7994   -2.5412 H   0  0  0  0  0  0  0  0  0  0  0  0
   -3.6886   -4.0506   -2.6664 H   0  0  0  0  0  0  0  0  0  0  0  0
   -1.3348   -3.2376   -0.5691 H   0  0  0  0  0  0  0  0  0  0  0  0
   -1.3254   -1.2936   -0.1849 H   0  0  0  0  0  0  0  0  0  0  0  0
   -4.8688   -0.1584    0.1547 H   0  0  0  0  0  0  0  0  0  0  0  0
   -5.4381    2.1966    0.5011 H   0  0  0  0  0  0  0  0  0  0  0  0
   -3.6642    3.9066    0.6127 H   0  0  0  0  0  0  0  0  0  0  0  0
    0.6891    2.1095    0.7224 H   0  0  0  0  0  0  0  0  0  0  0  0
    1.5423   -0.0385    1.4403 H   0  0  0  0  0  0  0  0  0  0  0  0
    2.7170    1.0974    0.8211 H   0  0  0  0  0  0  0  0  0  0  0  0
    4.2083   -1.1717   -1.4198 H   0  0  0  0  0  0  0  0  0  0  0  0
    4.1197    0.5238   -0.9770 H   0  0  0  0  0  0  0  0  0  0  0  0
    4.4230   -0.6892    0.2889 H   0  0  0  0  0  0  0  0  0  0  0  0
    0.5739   -2.2364    2.3025 H   0  0  0  0  0  0  0  0  0  0  0  0
    1.3918   -3.1768    4.4560 H   0  0  0  0  0  0  0  0  0  0  0  0
    4.9969   -4.5028    2.5522 H   0  0  0  0  0  0  0  0  0  0  0  0
    4.2175   -3.5685    0.3784 H   0  0  0  0  0  0  0  0  0  0  0  0
    2.0082    2.4737   -1.3879 H   0  0  0  0  0  0  0  0  0  0  0  0
    1.0126    1.5209   -3.5663 H   0  0  0  0  0  0  0  0  0  0  0  0
    1.9674    0.3990   -2.6316 H   0  0  0  0  0  0  0  0  0  0  0  0
    0.1931    0.3038   -2.5816 H   0  0  0  0  0  0  0  0  0  0  0  0
    0.2757    3.6289   -2.6425 H   0  0  0  0  0  0  0  0  0  0  0  0
   -0.9831    2.5875   -2.0423 H   0  0  0  0  0  0  0  0  0  0  0  0
    1.2514    5.1538   -1.4824 H   0  0  0  0  0  0  0  0  0  0  0  0
    2.2687    6.0221    0.5304 H   0  0  0  0  0  0  0  0  0  0  0  0
    2.1351    4.2634    0.6688 H   0  0  0  0  0  0  0  0  0  0  0  0
    1.0283    5.3154    1.5641 H   0  0  0  0  0  0  0  0  0  0  0  0
    0.4133    7.3510   -0.5814 H   0  0  0  0  0  0  0  0  0  0  0  0
   -0.9792    6.5233    0.1241 H   0  0  0  0  0  0  0  0  0  0  0  0
   -0.2420    6.5409   -2.6263 H   0  0  0  0  0  0  0  0  0  0  0  0
  1  2  1  0
  2  3  1  0
  2  4  1  0
  4  5  1  0
  5  6  2  0
  5  7  1  0
  7  8  1  0
  8  9  2  0
  9 10  1  0
 10 11  2  0
 11 12  1  0
 12 13  2  0
 13 14  1  0
 14 15  1  0
 15 16  1  0
 16 17  1  0
 17 18  1  0
 17 19  1  0
 19 20  2  0
 19 21  2  0
 19 22  1  0
 22 23  2  0
 23 24  1  0
 24 25  2  0
 25 26  1  0
 25 27  1  0
 27 28  2  0
 15 29  1  0
 29 30  1  0
 29 31  1  0
 31 32  1  0
 32 33  1  0
 33 34  1  0
 33 35  1  0
 35 36  1  0
 32 37  1  0
 37 38  2  0
 13  8  1  0
 28 22  1  0
 37 12  1  0
  1 39  1  0
  1 40  1  0
  1 41  1  0
  2 42  1  0
  3 43  1  0
  3 44  1  0
  3 45  1  0
  4 46  1  0
  7 47  1  0
  9 48  1  0
 10 49  1  0
 11 50  1  0
 15 51  1  0
 16 52  1  0
 16 53  1  0
 18 54  1  0
 18 55  1  0
 18 56  1  0
 23 57  1  0
 24 58  1  0
 27 59  1  0
 28 60  1  0
 29 61  1  0
 30 62  1  0
 30 63  1  0
 30 64  1  0
 31 65  1  0
 31 66  1  0
 33 67  1  0
 34 68  1  0
 34 69  1  0
 34 70  1  0
 35 71  1  0
 35 72  1  0
 36 73  1  0
M  END
$$$$
