
     RDKit          3D

 79 84  0  0  0  0  0  0  0  0999 V2000
   -5.2877    2.6682    1.1818 C   0  0  0  0  0  0  0  0  0  0  0  0
   -4.6631    1.7674    1.9610 C   0  0  0  0  0  0  0  0  0  0  0  0
   -3.6899    2.1876    3.0286 C   0  0  0  0  0  0  0  0  0  0  0  0
   -4.9240    0.2822    1.8224 C   0  0  0  0  0  0  0  0  0  0  0  0
   -3.7301   -0.5380    1.3103 C   0  0  1  0  0  0  0  0  0  0  0  0
   -4.1349   -1.9149    1.2132 O   0  0  0  0  0  0  0  0  0  0  0  0
   -3.2278   -0.0660   -0.0641 C   0  0  0  0  0  0  0  0  0  0  0  0
   -2.1541   -0.9408   -0.4510 O   0  0  0  0  0  0  0  0  0  0  0  0
   -1.2781   -0.4401   -1.3783 C   0  0  0  0  0  0  0  0  0  0  0  0
   -1.7104    0.4050   -2.4132 C   0  0  0  0  0  0  0  0  0  0  0  0
   -0.7855    0.8223   -3.3421 C   0  0  0  0  0  0  0  0  0  0  0  0
    0.5181    0.4065   -3.2952 C   0  0  0  0  0  0  0  0  0  0  0  0
    0.9698   -0.4476   -2.3134 C   0  0  0  0  0  0  0  0  0  0  0  0
    0.0767   -0.8740   -1.2991 C   0  0  0  0  0  0  0  0  0  0  0  0
    0.5794   -1.8586   -0.2024 C   0  0  0  0  0  0  0  0  0  0  0  0
    2.1138   -1.7693    0.0982 C   0  0  0  0  0  0  0  0  0  0  0  0
    2.9481   -2.9073    0.0093 C   0  0  0  0  0  0  0  0  0  0  0  0
    4.2962   -2.7725    0.2674 C   0  0  0  0  0  0  0  0  0  0  0  0
    4.8493   -1.5705    0.6193 C   0  0  0  0  0  0  0  0  0  0  0  0
    4.0859   -0.4328    0.7430 C   0  0  0  0  0  0  0  0  0  0  0  0
    2.7072   -0.5300    0.4996 C   0  0  0  0  0  0  0  0  0  0  0  0
    1.8693    0.5534    0.5596 O   0  0  0  0  0  0  0  0  0  0  0  0
    2.2239    1.6400    1.4204 C   0  0  0  0  0  0  0  0  0  0  0  0
    2.7458    2.8237    0.5949 C   0  0  2  0  0  0  0  0  0  0  0  0
    3.3240    3.8040    1.4617 O   0  0  0  0  0  0  0  0  0  0  0  0
    1.6810    3.4492   -0.3312 C   0  0  0  0  0  0  0  0  0  0  0  0
    0.4398    3.9994    0.3469 C   0  0  0  0  0  0  0  0  0  0  0  0
   -0.7526    3.3914    0.2235 C   0  0  0  0  0  0  0  0  0  0  0  0
    0.5840    5.2767    1.1255 C   0  0  0  0  0  0  0  0  0  0  0  0
    6.1935   -1.6528    0.8132 O   0  0  0  0  0  0  0  0  0  0  0  0
    6.4213   -3.0508    0.5395 C   0  0  0  0  0  0  0  0  0  0  0  0
    5.2182   -3.7699    0.1974 O   0  0  0  0  0  0  0  0  0  0  0  0
   -0.1604   -1.7036    1.2018 C   0  0  0  0  0  0  0  0  0  0  0  0
   -0.2133   -0.7366    1.9497 O   0  0  0  0  0  0  0  0  0  0  0  0
   -0.7853   -2.9177    1.4944 N   0  0  0  0  0  0  0  0  0  0  0  0
   -0.6610   -3.8221    0.4561 C   0  0  0  0  0  0  0  0  0  0  0  0
   -1.2234   -5.0787    0.3864 C   0  0  0  0  0  0  0  0  0  0  0  0
   -1.0096   -5.7996   -0.7843 C   0  0  0  0  0  0  0  0  0  0  0  0
   -1.5348   -7.0272   -0.9027 F   0  0  0  0  0  0  0  0  0  0  0  0
   -0.2643   -5.2745   -1.8489 C   0  0  0  0  0  0  0  0  0  0  0  0
    0.2953   -3.9968   -1.7562 C   0  0  0  0  0  0  0  0  0  0  0  0
    0.1006   -3.2769   -0.5806 C   0  0  0  0  0  0  0  0  0  0  0  0
    1.2655    0.9183   -4.3085 O   0  0  0  0  0  0  0  0  0  0  0  0
    0.2830    1.7330   -4.9823 C   0  0  0  0  0  0  0  0  0  0  0  0
   -1.0315    1.6479   -4.3944 O   0  0  0  0  0  0  0  0  0  0  0  0
   -6.0027    2.3677    0.4199 H   0  0  0  0  0  0  0  0  0  0  0  0
   -5.1020    3.7341    1.2875 H   0  0  0  0  0  0  0  0  0  0  0  0
   -2.6909    1.7939    2.8142 H   0  0  0  0  0  0  0  0  0  0  0  0
   -3.6083    3.2786    3.1050 H   0  0  0  0  0  0  0  0  0  0  0  0
   -4.0114    1.8117    4.0040 H   0  0  0  0  0  0  0  0  0  0  0  0
   -5.7832    0.1037    1.1594 H   0  0  0  0  0  0  0  0  0  0  0  0
   -5.2414   -0.1162    2.7950 H   0  0  0  0  0  0  0  0  0  0  0  0
   -2.9108   -0.5123    2.0376 H   0  0  0  0  0  0  0  0  0  0  0  0
   -3.4482   -2.3493    0.6709 H   0  0  0  0  0  0  0  0  0  0  0  0
   -4.0294   -0.1602   -0.8061 H   0  0  0  0  0  0  0  0  0  0  0  0
   -2.8801    0.9718   -0.0050 H   0  0  0  0  0  0  0  0  0  0  0  0
   -2.7405    0.7234   -2.5131 H   0  0  0  0  0  0  0  0  0  0  0  0
    2.0072   -0.7658   -2.3399 H   0  0  0  0  0  0  0  0  0  0  0  0
    2.5776   -3.8918   -0.2541 H   0  0  0  0  0  0  0  0  0  0  0  0
    4.5739    0.4973    1.0071 H   0  0  0  0  0  0  0  0  0  0  0  0
    1.3203    1.9321    1.9687 H   0  0  0  0  0  0  0  0  0  0  0  0
    2.9327    1.3533    2.2075 H   0  0  0  0  0  0  0  0  0  0  0  0
    3.5581    2.4672   -0.0501 H   0  0  0  0  0  0  0  0  0  0  0  0
    3.5996    4.5533    0.9069 H   0  0  0  0  0  0  0  0  0  0  0  0
    2.1423    4.2705   -0.8955 H   0  0  0  0  0  0  0  0  0  0  0  0
    1.3914    2.7008   -1.0800 H   0  0  0  0  0  0  0  0  0  0  0  0
   -0.8574    2.4711   -0.3409 H   0  0  0  0  0  0  0  0  0  0  0  0
   -1.6483    3.7798    0.6989 H   0  0  0  0  0  0  0  0  0  0  0  0
   -0.3860    5.6837    1.4292 H   0  0  0  0  0  0  0  0  0  0  0  0
    1.0806    6.0393    0.5155 H   0  0  0  0  0  0  0  0  0  0  0  0
    1.1691    5.1140    2.0345 H   0  0  0  0  0  0  0  0  0  0  0  0
    6.8681   -3.5146    1.4268 H   0  0  0  0  0  0  0  0  0  0  0  0
    7.1273   -3.1342   -0.2950 H   0  0  0  0  0  0  0  0  0  0  0  0
   -1.3274   -3.0503    2.3352 H   0  0  0  0  0  0  0  0  0  0  0  0
   -1.8150   -5.4976    1.1910 H   0  0  0  0  0  0  0  0  0  0  0  0
   -0.1327   -5.8716   -2.7473 H   0  0  0  0  0  0  0  0  0  0  0  0
    0.8658   -3.5838   -2.5831 H   0  0  0  0  0  0  0  0  0  0  0  0
    0.2205    1.4164   -6.0293 H   0  0  0  0  0  0  0  0  0  0  0  0
    0.6134    2.7779   -4.9526 H   0  0  0  0  0  0  0  0  0  0  0  0
  1  2  2  0
  2  3  1  0
  2  4  1  0
  4  5  1  0
  5  6  1  0
  5  7  1  0
  7  8  1  0
  8  9  1  0
  9 10  2  0
 10 11  1  0
 11 12  2  0
 12 13  1  0
 13 14  2  0
 14 15  1  0
 15 16  1  0
 16 17  2  0
 17 18  1  0
 18 19  2  0
 19 20  1  0
 20 21  2  0
 21 22  1  0
 22 23  1  0
 23 24  1  0
 24 25  1  0
 24 26  1  0
 26 27  1  0
 27 28  2  0
 27 29  1  0
 19 30  1  0
 30 31  1  0
 31 32  1  0
 15 33  1  0
 33 34  2  0
 33 35  1  0
 35 36  1  0
 36 37  2  0
 37 38  1  0
 38 39  1  0
 38 40  2  0
 40 41  1  0
 41 42  2  0
 12 43  1  0
 43 44  1  0
 44 45  1  0
 14  9  1  0
 42 15  1  0
 45 11  1  0
 21 16  1  0
 42 36  1  0
 32 18  1  0
  1 46  1  0
  1 47  1  0
  3 48  1  0
  3 49  1  0
  3 50  1  0
  4 51  1  0
  4 52  1  0
  5 53  1  1
  6 54  1  0
  7 55  1  0
  7 56  1  0
 10 57  1  0
 13 58  1  0
 17 59  1  0
 20 60  1  0
 23 61  1  0
 23 62  1  0
 24 63  1  6
 25 64  1  0
 26 65  1  0
 26 66  1  0
 28 67  1  0
 28 68  1  0
 29 69  1  0
 29 70  1  0
 29 71  1  0
 31 72  1  0
 31 73  1  0
 35 74  1  0
 37 75  1  0
 40 76  1  0
 41 77  1  0
 44 78  1  0
 44 79  1  0
M  END
$$$$
