
     RDKit          3D

 62 65  0  0  0  0  0  0  0  0999 V2000
   -2.0484    0.3111   -2.6798 C   0  0  0  0  0  0  0  0  0  0  0  0
   -2.5296   -0.6539   -1.6052 C   0  0  0  0  0  0  0  0  0  0  0  0
   -3.0383    0.0685   -0.4484 N   0  0  0  0  0  0  0  0  0  0  0  0
   -2.4431    0.2951    0.8023 C   0  0  0  0  0  0  0  0  0  0  0  0
   -1.1640    0.2071    1.2229 C   0  0  0  0  0  0  0  0  0  0  0  0
    0.0265   -0.0730    0.4483 C   0  0  0  0  0  0  0  0  0  0  0  0
    1.2286   -0.2477    1.0153 C   0  0  0  0  0  0  0  0  0  0  0  0
    2.5038   -0.4933    0.2889 C   0  0  0  0  0  0  0  0  0  0  0  0
    3.6408   -0.7342    0.8823 N   0  0  0  0  0  4  0  0  0  0  0  0
    3.9532   -0.8884    2.3194 C   0  0  0  0  0  0  0  0  0  0  0  0
    4.3669    0.4488    2.9048 C   0  0  0  0  0  0  0  0  0  0  0  0
    4.7124   -0.8766   -0.1187 C   0  0  0  0  0  0  0  0  0  0  0  0
    6.0636   -1.1068    0.0789 C   0  0  0  0  0  0  0  0  0  0  0  0
    6.8792   -1.1933   -1.0525 C   0  0  0  0  0  0  0  0  0  0  0  0
    6.3360   -1.0474   -2.3386 C   0  0  0  0  0  0  0  0  0  0  0  0
    4.9713   -0.8103   -2.5145 C   0  0  0  0  0  0  0  0  0  0  0  0
    4.1686   -0.7251   -1.3863 C   0  0  0  0  0  0  0  0  0  0  0  0
    2.6840   -0.4762   -1.2649 C   0  0  0  0  0  0  0  0  0  0  0  0
    2.3444    0.8906   -1.8682 C   0  0  0  0  0  0  0  0  0  0  0  0
    1.9281   -1.6205   -1.9491 C   0  0  0  0  0  0  0  0  0  0  0  0
   -3.5673    0.7590    1.7998 C   0  0  0  0  0  0  0  0  0  0  0  0
   -3.2927    2.1605    2.3667 C   0  0  0  0  0  0  0  0  0  0  0  0
   -3.7761   -0.2608    2.9291 C   0  0  0  0  0  0  0  0  0  0  0  0
   -4.7830    0.7918    0.8933 C   0  0  0  0  0  0  0  0  0  0  0  0
   -6.0910    1.1503    1.1991 C   0  0  0  0  0  0  0  0  0  0  0  0
   -7.0478    1.0890    0.1879 C   0  0  0  0  0  0  0  0  0  0  0  0
   -6.6893    0.6744   -1.1009 C   0  0  0  0  0  0  0  0  0  0  0  0
   -5.3690    0.3144   -1.3955 C   0  0  0  0  0  0  0  0  0  0  0  0
   -4.4116    0.3714   -0.3935 C   0  0  0  0  0  0  0  0  0  0  0  0
   -2.8731    0.9145   -3.0722 H   0  0  0  0  0  0  0  0  0  0  0  0
   -1.2935    1.0025   -2.2921 H   0  0  0  0  0  0  0  0  0  0  0  0
   -1.6089   -0.2428   -3.5153 H   0  0  0  0  0  0  0  0  0  0  0  0
   -1.7155   -1.3253   -1.3138 H   0  0  0  0  0  0  0  0  0  0  0  0
   -3.2886   -1.3252   -2.0271 H   0  0  0  0  0  0  0  0  0  0  0  0
   -0.9815    0.4178    2.2768 H   0  0  0  0  0  0  0  0  0  0  0  0
   -0.1030   -0.0898   -0.6211 H   0  0  0  0  0  0  0  0  0  0  0  0
    1.2893   -0.1950    2.0997 H   0  0  0  0  0  0  0  0  0  0  0  0
    3.0666   -1.2766    2.8300 H   0  0  0  0  0  0  0  0  0  0  0  0
    4.7366   -1.6430    2.4398 H   0  0  0  0  0  0  0  0  0  0  0  0
    3.5682    1.1929    2.8100 H   0  0  0  0  0  0  0  0  0  0  0  0
    5.2572    0.8512    2.4094 H   0  0  0  0  0  0  0  0  0  0  0  0
    4.5975    0.3373    3.9693 H   0  0  0  0  0  0  0  0  0  0  0  0
    6.5115   -1.2171    1.0604 H   0  0  0  0  0  0  0  0  0  0  0  0
    7.9483   -1.3742   -0.9429 H   0  0  0  0  0  0  0  0  0  0  0  0
    6.9890   -1.1183   -3.2087 H   0  0  0  0  0  0  0  0  0  0  0  0
    4.5645   -0.6965   -3.5167 H   0  0  0  0  0  0  0  0  0  0  0  0
    2.6451    0.9522   -2.9206 H   0  0  0  0  0  0  0  0  0  0  0  0
    2.8537    1.7006   -1.3318 H   0  0  0  0  0  0  0  0  0  0  0  0
    1.2736    1.1054   -1.8312 H   0  0  0  0  0  0  0  0  0  0  0  0
    2.1440   -2.5833   -1.4710 H   0  0  0  0  0  0  0  0  0  0  0  0
    2.2044   -1.7081   -3.0059 H   0  0  0  0  0  0  0  0  0  0  0  0
    0.8452   -1.4839   -1.9177 H   0  0  0  0  0  0  0  0  0  0  0  0
   -3.1278    2.8929    1.5671 H   0  0  0  0  0  0  0  0  0  0  0  0
   -4.1350    2.5200    2.9693 H   0  0  0  0  0  0  0  0  0  0  0  0
   -2.4079    2.1687    3.0127 H   0  0  0  0  0  0  0  0  0  0  0  0
   -4.6296    0.0120    3.5608 H   0  0  0  0  0  0  0  0  0  0  0  0
   -2.8973   -0.3258    3.5800 H   0  0  0  0  0  0  0  0  0  0  0  0
   -3.9715   -1.2651    2.5340 H   0  0  0  0  0  0  0  0  0  0  0  0
   -6.3700    1.4701    2.1978 H   0  0  0  0  0  0  0  0  0  0  0  0
   -8.0786    1.3650    0.3987 H   0  0  0  0  0  0  0  0  0  0  0  0
   -7.4459    0.6345   -1.8813 H   0  0  0  0  0  0  0  0  0  0  0  0
   -5.1231    0.0076   -2.4053 H   0  0  0  0  0  0  0  0  0  0  0  0
  1  2  1  0
  2  3  1  0
  3  4  1  0
  4  5  2  3
  5  6  1  0
  6  7  2  3
  7  8  1  0
  8  9  2  0
  9 10  1  0
 10 11  1  0
  9 12  1  0
 12 13  2  0
 13 14  1  0
 14 15  2  0
 15 16  1  0
 16 17  2  0
 17 18  1  0
 18 19  1  0
 18 20  1  0
  4 21  1  0
 21 22  1  0
 21 23  1  0
 21 24  1  0
 24 25  2  0
 25 26  1  0
 26 27  2  0
 27 28  1  0
 28 29  2  0
 29  3  1  0
 18  8  1  0
 29 24  1  0
 17 12  1  0
  1 30  1  0
  1 31  1  0
  1 32  1  0
  2 33  1  0
  2 34  1  0
  5 35  1  0
  6 36  1  0
  7 37  1  0
 10 38  1  0
 10 39  1  0
 11 40  1  0
 11 41  1  0
 11 42  1  0
 13 43  1  0
 14 44  1  0
 15 45  1  0
 16 46  1  0
 19 47  1  0
 19 48  1  0
 19 49  1  0
 20 50  1  0
 20 51  1  0
 20 52  1  0
 22 53  1  0
 22 54  1  0
 22 55  1  0
 23 56  1  0
 23 57  1  0
 23 58  1  0
 25 59  1  0
 26 60  1  0
 27 61  1  0
 28 62  1  0
M  CHG  1   9   1
M  END
$$$$
