
     RDKit          3D

 35 37  0  0  0  0  0  0  0  0999 V2000
    5.4160   -2.0958    0.0434 C   0  0  0  0  0  0  0  0  0  0  0  0
    4.3329   -1.3249   -0.4787 O   0  0  0  0  0  0  0  0  0  0  0  0
    3.7770   -0.4765    0.4222 C   0  0  0  0  0  0  0  0  0  0  0  0
    4.1278   -0.3386    1.5836 O   0  0  0  0  0  0  0  0  0  0  0  0
    2.6585    0.2881   -0.1947 C   0  0  0  0  0  0  0  0  0  0  0  0
    1.9654    1.2067    0.6050 C   0  0  0  0  0  0  0  0  0  0  0  0
    0.9048    1.9469    0.0750 C   0  0  0  0  0  0  0  0  0  0  0  0
    0.5247    1.7736   -1.2603 C   0  0  0  0  0  0  0  0  0  0  0  0
   -0.5919    2.5383   -1.8274 C   0  0  0  0  0  0  0  0  0  0  0  0
   -1.9042    2.3459   -1.5756 C   0  0  0  0  0  0  0  0  0  0  0  0
   -2.8558    3.2073   -2.2020 C   0  0  0  0  0  0  0  0  0  0  0  0
   -3.6140    3.9219   -2.7138 N   0  0  0  0  0  0  0  0  0  0  0  0
   -2.3569    1.2831   -0.7296 C   0  0  0  0  0  0  0  0  0  0  0  0
   -1.9758    0.0206   -0.7894 N   0  0  0  0  0  0  0  0  0  0  0  0
   -2.5853   -0.7327    0.1980 C   0  0  0  0  0  0  0  0  0  0  0  0
   -2.3915   -2.1102    0.4237 C   0  0  0  0  0  0  0  0  0  0  0  0
   -3.0772   -2.7477    1.4626 C   0  0  0  0  0  0  0  0  0  0  0  0
   -3.9501   -2.0302    2.2743 C   0  0  0  0  0  0  0  0  0  0  0  0
   -4.1583   -0.6625    2.0699 C   0  0  0  0  0  0  0  0  0  0  0  0
   -3.4627   -0.0334    1.0240 C   0  0  0  0  0  0  0  0  0  0  0  0
   -3.5024    1.6118    0.5309 S   0  0  0  0  0  0  0  0  0  0  0  0
    1.2191    0.8627   -2.0629 C   0  0  0  0  0  0  0  0  0  0  0  0
    2.2804    0.1211   -1.5334 C   0  0  0  0  0  0  0  0  0  0  0  0
    5.0738   -2.7283    0.8686 H   0  0  0  0  0  0  0  0  0  0  0  0
    5.7880   -2.7420   -0.7565 H   0  0  0  0  0  0  0  0  0  0  0  0
    6.2313   -1.4415    0.3675 H   0  0  0  0  0  0  0  0  0  0  0  0
    2.2465    1.3473    1.6474 H   0  0  0  0  0  0  0  0  0  0  0  0
    0.3806    2.6520    0.7161 H   0  0  0  0  0  0  0  0  0  0  0  0
   -0.2777    3.3326   -2.5041 H   0  0  0  0  0  0  0  0  0  0  0  0
   -1.7089   -2.6655   -0.2120 H   0  0  0  0  0  0  0  0  0  0  0  0
   -2.9249   -3.8108    1.6345 H   0  0  0  0  0  0  0  0  0  0  0  0
   -4.4779   -2.5380    3.0791 H   0  0  0  0  0  0  0  0  0  0  0  0
   -4.8396   -0.1039    2.7047 H   0  0  0  0  0  0  0  0  0  0  0  0
    0.9310    0.7095   -3.1008 H   0  0  0  0  0  0  0  0  0  0  0  0
    2.7970   -0.5868   -2.1768 H   0  0  0  0  0  0  0  0  0  0  0  0
  1  2  1  0
  2  3  1  0
  3  4  2  0
  3  5  1  0
  5  6  2  0
  6  7  1  0
  7  8  2  0
  8  9  1  0
  9 10  2  3
 10 11  1  0
 11 12  3  0
 10 13  1  0
 13 14  2  0
 14 15  1  0
 15 16  2  0
 16 17  1  0
 17 18  2  0
 18 19  1  0
 19 20  2  0
 20 21  1  0
  8 22  1  0
 22 23  2  0
 23  5  1  0
 21 13  1  0
 20 15  1  0
  1 24  1  0
  1 25  1  0
  1 26  1  0
  6 27  1  0
  7 28  1  0
  9 29  1  0
 16 30  1  0
 17 31  1  0
 18 32  1  0
 19 33  1  0
 22 34  1  0
 23 35  1  0
M  END
$$$$
