
     RDKit          3D

 53 54  0  0  0  0  0  0  0  0999 V2000
   -4.9037   -2.3371    1.6556 C   0  0  0  0  0  0  0  0  0  0  0  0
   -5.2073   -0.8490    1.7259 C   0  0  0  0  0  0  0  0  0  0  0  0
   -4.8526   -0.2027    0.4319 N   0  0  0  0  0  0  0  0  0  0  0  0
   -5.8951   -0.3885   -0.6191 C   0  0  0  0  0  0  0  0  0  0  0  0
   -5.2580   -1.0173   -1.8460 C   0  0  0  0  0  0  0  0  0  0  0  0
   -4.2860    1.4102    0.5560 S   0  0  0  0  0  6  0  0  0  0  0  0
   -3.9858    1.9001   -0.7710 O   0  0  0  0  0  0  0  0  0  0  0  0
   -5.1907    2.1152    1.4394 O   0  0  0  0  0  0  0  0  0  0  0  0
   -2.7298    1.2035    1.3873 C   0  0  0  0  0  0  0  0  0  0  0  0
   -2.4886    1.8591    2.5969 C   0  0  0  0  0  0  0  0  0  0  0  0
   -1.2662    1.6766    3.2406 C   0  0  0  0  0  0  0  0  0  0  0  0
   -0.2963    0.8433    2.6757 C   0  0  0  0  0  0  0  0  0  0  0  0
   -0.5383    0.1876    1.4582 C   0  0  0  0  0  0  0  0  0  0  0  0
    0.5293   -0.6923    0.9113 C   0  0  0  0  0  0  0  0  0  0  0  0
    1.6089   -0.8684    1.4572 O   0  0  0  0  0  0  0  0  0  0  0  0
    0.1409   -1.2544   -0.2566 O   0  0  0  0  0  0  0  0  0  0  0  0
    1.0637   -2.1755   -0.8397 C   0  0  0  0  0  0  0  0  0  0  0  0
    2.2118   -1.5431   -1.6354 C   0  0  0  0  0  0  0  0  0  0  0  0
    2.4178   -1.8195   -2.8145 O   0  0  0  0  0  0  0  0  0  0  0  0
    3.0108   -0.6845   -0.9110 N   0  0  0  0  0  0  0  0  0  0  0  0
    4.2273   -0.1335   -1.4776 C   0  0  0  0  0  0  0  0  0  0  0  0
    4.7816    1.0262   -0.6474 C   0  0  0  0  0  0  0  0  0  0  0  0
    6.0118    1.5624   -1.1992 N   0  0  0  0  0  0  0  0  0  0  0  0
    7.2468    1.0055   -0.9785 C   0  0  0  0  0  0  0  0  0  0  0  0
    7.3426   -0.0818   -0.1635 O   0  0  0  0  0  0  0  0  0  0  0  0
    8.2532    1.6116   -1.6186 C   0  0  0  0  0  0  0  0  0  0  0  0
    7.6790    2.9477   -2.5701 S   0  0  0  0  0  0  0  0  0  0  0  0
    6.0029    2.6370   -2.0739 C   0  0  0  0  0  0  0  0  0  0  0  0
    5.0489    3.2856   -2.4688 O   0  0  0  0  0  0  0  0  0  0  0  0
   -1.7632    0.3729    0.8081 C   0  0  0  0  0  0  0  0  0  0  0  0
   -3.8482   -2.5093    1.4192 H   0  0  0  0  0  0  0  0  0  0  0  0
   -5.5039   -2.8348    0.8876 H   0  0  0  0  0  0  0  0  0  0  0  0
   -5.1213   -2.8142    2.6162 H   0  0  0  0  0  0  0  0  0  0  0  0
   -6.2637   -0.6802    1.9621 H   0  0  0  0  0  0  0  0  0  0  0  0
   -4.6205   -0.4266    2.5474 H   0  0  0  0  0  0  0  0  0  0  0  0
   -6.7024   -1.0372   -0.2615 H   0  0  0  0  0  0  0  0  0  0  0  0
   -6.3667    0.5651   -0.8810 H   0  0  0  0  0  0  0  0  0  0  0  0
   -4.4694   -0.3796   -2.2574 H   0  0  0  0  0  0  0  0  0  0  0  0
   -6.0092   -1.1758   -2.6258 H   0  0  0  0  0  0  0  0  0  0  0  0
   -4.8085   -1.9854   -1.6024 H   0  0  0  0  0  0  0  0  0  0  0  0
   -3.2404    2.5107    3.0380 H   0  0  0  0  0  0  0  0  0  0  0  0
   -1.0652    2.1843    4.1817 H   0  0  0  0  0  0  0  0  0  0  0  0
    0.6536    0.7099    3.1914 H   0  0  0  0  0  0  0  0  0  0  0  0
    1.4788   -2.8524   -0.0828 H   0  0  0  0  0  0  0  0  0  0  0  0
    0.4874   -2.7982   -1.5329 H   0  0  0  0  0  0  0  0  0  0  0  0
    2.9212   -0.7263    0.1047 H   0  0  0  0  0  0  0  0  0  0  0  0
    4.0229    0.1929   -2.5041 H   0  0  0  0  0  0  0  0  0  0  0  0
    4.9549   -0.9508   -1.5394 H   0  0  0  0  0  0  0  0  0  0  0  0
    4.9573    0.7145    0.3897 H   0  0  0  0  0  0  0  0  0  0  0  0
    4.0334    1.8280   -0.6070 H   0  0  0  0  0  0  0  0  0  0  0  0
    8.2771   -0.3477   -0.1173 H   0  0  0  0  0  0  0  0  0  0  0  0
    9.2957    1.3329   -1.5837 H   0  0  0  0  0  0  0  0  0  0  0  0
   -1.9788   -0.1167   -0.1394 H   0  0  0  0  0  0  0  0  0  0  0  0
  1  2  1  0
  2  3  1  0
  3  4  1  0
  4  5  1  0
  3  6  1  0
  6  7  2  0
  6  8  2  0
  6  9  1  0
  9 10  2  0
 10 11  1  0
 11 12  2  0
 12 13  1  0
 13 14  1  0
 14 15  2  0
 14 16  1  0
 16 17  1  0
 17 18  1  0
 18 19  2  0
 18 20  1  0
 20 21  1  0
 21 22  1  0
 22 23  1  0
 23 24  1  0
 24 25  1  0
 24 26  2  0
 26 27  1  0
 27 28  1  0
 28 29  2  0
 13 30  2  0
 30  9  1  0
 28 23  1  0
  1 31  1  0
  1 32  1  0
  1 33  1  0
  2 34  1  0
  2 35  1  0
  4 36  1  0
  4 37  1  0
  5 38  1  0
  5 39  1  0
  5 40  1  0
 10 41  1  0
 11 42  1  0
 12 43  1  0
 17 44  1  0
 17 45  1  0
 20 46  1  0
 21 47  1  0
 21 48  1  0
 22 49  1  0
 22 50  1  0
 25 51  1  0
 26 52  1  0
 30 53  1  0
M  END
$$$$
