
     RDKit          3D

 46 49  0  0  0  0  0  0  0  0999 V2000
   -6.9498   -0.6020   -1.4809 C   0  0  0  0  0  0  0  0  0  0  0  0
   -5.8803    0.4086   -1.1075 C   0  0  0  0  0  0  0  0  0  0  0  0
   -4.7048   -0.3132   -0.7380 O   0  0  0  0  0  0  0  0  0  0  0  0
   -3.6066    0.4298   -0.3783 C   0  0  0  0  0  0  0  0  0  0  0  0
   -3.5459    1.8190   -0.3204 C   0  0  0  0  0  0  0  0  0  0  0  0
   -2.3556    2.4419    0.0502 C   0  0  0  0  0  0  0  0  0  0  0  0
   -1.2288    1.6773    0.3682 C   0  0  0  0  0  0  0  0  0  0  0  0
   -1.2517    0.2673    0.3319 C   0  0  0  0  0  0  0  0  0  0  0  0
   -0.0395   -0.4957    0.6791 C   0  0  0  0  0  0  0  0  0  0  0  0
   -0.1827   -1.7028    1.2647 N   0  0  0  0  0  0  0  0  0  0  0  0
    0.9524   -2.3696    1.5803 C   0  0  0  0  0  0  0  0  0  0  0  0
    0.7866   -3.7122    2.2006 C   0  0  0  0  0  0  0  0  0  0  0  0
   -0.5076   -4.1364    2.3367 N   0  0  0  0  0  0  0  0  0  0  0  0
    1.7390   -4.3942    2.5575 O   0  0  0  0  0  0  0  0  0  0  0  0
    2.1854   -1.8446    1.3419 C   0  0  0  0  0  0  0  0  0  0  0  0
    3.4685   -2.3073    1.5833 N   0  0  0  0  0  0  0  0  0  0  0  0
    4.3823   -1.3393    1.1467 C   0  0  0  0  0  0  0  0  0  0  0  0
    5.5916   -1.4767    1.2327 O   0  0  0  0  0  0  0  0  0  0  0  0
    3.6098   -0.2592    0.6163 N   0  0  0  0  0  0  0  0  0  0  0  0
    4.1006    0.9550    0.0604 C   0  0  0  0  0  0  0  0  0  0  0  0
    5.4686    1.2728    0.1415 C   0  0  0  0  0  0  0  0  0  0  0  0
    5.9874    2.4613   -0.3894 C   0  0  0  0  0  0  0  0  0  0  0  0
    5.1460    3.3676   -1.0206 C   0  0  0  0  0  0  0  0  0  0  0  0
    3.7925    3.0743   -1.1190 C   0  0  0  0  0  0  0  0  0  0  0  0
    2.7370    4.1879   -1.9032 Cl  0  0  0  0  0  0  0  0  0  0  0  0
    3.2752    1.8854   -0.5911 C   0  0  0  0  0  0  0  0  0  0  0  0
    2.2400   -0.6046    0.7546 C   0  0  0  0  0  0  0  0  0  0  0  0
    1.1509    0.0972    0.4252 N   0  0  0  0  0  0  0  0  0  0  0  0
   -2.4645   -0.3296   -0.0539 C   0  0  0  0  0  0  0  0  0  0  0  0
   -2.5713   -1.6987   -0.1589 O   0  0  0  0  0  0  0  0  0  0  0  0
   -7.8762   -0.0995   -1.7733 H   0  0  0  0  0  0  0  0  0  0  0  0
   -7.1598   -1.2698   -0.6389 H   0  0  0  0  0  0  0  0  0  0  0  0
   -6.6119   -1.2319   -2.3106 H   0  0  0  0  0  0  0  0  0  0  0  0
   -5.6769    1.0502   -1.9728 H   0  0  0  0  0  0  0  0  0  0  0  0
   -6.2365    1.0120   -0.2645 H   0  0  0  0  0  0  0  0  0  0  0  0
   -4.3979    2.4458   -0.5600 H   0  0  0  0  0  0  0  0  0  0  0  0
   -2.2994    3.5275    0.0922 H   0  0  0  0  0  0  0  0  0  0  0  0
   -0.3155    2.1986    0.6552 H   0  0  0  0  0  0  0  0  0  0  0  0
   -1.2643   -3.5653    1.9695 H   0  0  0  0  0  0  0  0  0  0  0  0
   -0.6993   -5.0581    2.7014 H   0  0  0  0  0  0  0  0  0  0  0  0
    3.7088   -3.1937    2.0117 H   0  0  0  0  0  0  0  0  0  0  0  0
    6.1783    0.6129    0.6334 H   0  0  0  0  0  0  0  0  0  0  0  0
    7.0511    2.6714   -0.3026 H   0  0  0  0  0  0  0  0  0  0  0  0
    5.5476    4.2894   -1.4313 H   0  0  0  0  0  0  0  0  0  0  0  0
    2.2153    1.7119   -0.7295 H   0  0  0  0  0  0  0  0  0  0  0  0
   -3.4880   -1.8604   -0.4579 H   0  0  0  0  0  0  0  0  0  0  0  0
  1  2  1  0
  2  3  1  0
  3  4  1  0
  4  5  2  0
  5  6  1  0
  6  7  2  0
  7  8  1  0
  8  9  1  0
  9 10  2  0
 10 11  1  0
 11 12  1  0
 12 13  1  0
 12 14  2  0
 11 15  2  0
 15 16  1  0
 16 17  1  0
 17 18  2  0
 17 19  1  0
 19 20  1  0
 20 21  2  0
 21 22  1  0
 22 23  2  0
 23 24  1  0
 24 25  1  0
 24 26  2  0
 19 27  1  0
 27 28  2  0
  8 29  2  0
 29 30  1  0
 29  4  1  0
 28  9  1  0
 27 15  1  0
 26 20  1  0
  1 31  1  0
  1 32  1  0
  1 33  1  0
  2 34  1  0
  2 35  1  0
  5 36  1  0
  6 37  1  0
  7 38  1  0
 13 39  1  0
 13 40  1  0
 16 41  1  0
 21 42  1  0
 22 43  1  0
 23 44  1  0
 26 45  1  0
 30 46  1  0
M  END
$$$$
