
     RDKit          3D

 59 62  0  0  0  0  0  0  0  0999 V2000
   -8.5418    3.7191    1.1988 C   0  0  0  0  0  0  0  0  0  0  0  0
   -7.7526    2.4882    0.8599 C   0  0  0  0  0  0  0  0  0  0  0  0
   -7.3052    1.6270    1.8727 C   0  0  0  0  0  0  0  0  0  0  0  0
   -6.5527    0.4948    1.5558 C   0  0  0  0  0  0  0  0  0  0  0  0
   -6.2278    0.2382    0.2221 C   0  0  0  0  0  0  0  0  0  0  0  0
   -5.4281   -0.9517   -0.1237 C   0  0  0  0  0  0  0  0  0  0  0  0
   -6.0223   -1.9348   -0.5537 O   0  0  0  0  0  0  0  0  0  0  0  0
   -4.0509   -0.8794    0.0418 N   0  0  0  0  0  0  0  0  0  0  0  0
   -3.3262    0.3396    0.4175 C   0  0  0  0  0  0  0  0  0  0  0  0
   -1.8377    0.1040    0.7389 C   0  0  0  0  0  0  0  0  0  0  0  0
   -1.1539   -0.6145   -0.3497 N   0  0  0  0  0  0  0  0  0  0  0  0
    0.1848   -0.4002   -0.6374 C   0  0  0  0  0  0  0  0  0  0  0  0
    1.0549    0.2199    0.2714 C   0  0  0  0  0  0  0  0  0  0  0  0
    2.4061    0.4651   -0.0251 C   0  0  0  0  0  0  0  0  0  0  0  0
    2.9393    0.0863   -1.2505 C   0  0  0  0  0  0  0  0  0  0  0  0
    4.2750    0.3050   -1.6365 N   0  0  0  0  0  0  0  0  0  0  0  0
    5.2748    0.9384   -0.9152 C   0  0  0  0  0  0  0  0  0  0  0  0
    5.1595    1.4445    0.1972 O   0  0  0  0  0  0  0  0  0  0  0  0
    6.5938    1.0183   -1.6701 C   0  0  0  0  0  0  0  0  0  0  0  0
    7.1911   -0.6374   -2.1540 S   0  0  0  0  0  0  0  0  0  0  0  0
    7.6855   -1.2369   -0.5493 C   0  0  0  0  0  0  0  0  0  0  0  0
    6.7735   -1.9130    0.2679 C   0  0  0  0  0  0  0  0  0  0  0  0
    7.1673   -2.3787    1.5254 C   0  0  0  0  0  0  0  0  0  0  0  0
    8.4752   -2.1752    1.9607 C   0  0  0  0  0  0  0  0  0  0  0  0
    8.9614   -2.7497    3.5078 Cl  0  0  0  0  0  0  0  0  0  0  0  0
    9.3936   -1.5122    1.1489 C   0  0  0  0  0  0  0  0  0  0  0  0
    8.9988   -1.0449   -0.1077 C   0  0  0  0  0  0  0  0  0  0  0  0
    2.1027   -0.5521   -2.1650 C   0  0  0  0  0  0  0  0  0  0  0  0
    0.7528   -0.7861   -1.8604 C   0  0  0  0  0  0  0  0  0  0  0  0
   -1.9553   -1.5875   -1.1175 C   0  0  0  0  0  0  0  0  0  0  0  0
   -3.2253   -2.0185   -0.3617 C   0  0  0  0  0  0  0  0  0  0  0  0
   -6.6677    1.0831   -0.7977 C   0  0  0  0  0  0  0  0  0  0  0  0
   -7.4225    2.2119   -0.4750 C   0  0  0  0  0  0  0  0  0  0  0  0
   -9.3296    3.8884    0.4571 H   0  0  0  0  0  0  0  0  0  0  0  0
   -7.8816    4.5914    1.2238 H   0  0  0  0  0  0  0  0  0  0  0  0
   -9.0290    3.6204    2.1743 H   0  0  0  0  0  0  0  0  0  0  0  0
   -7.5485    1.8295    2.9132 H   0  0  0  0  0  0  0  0  0  0  0  0
   -6.2223   -0.1800    2.3406 H   0  0  0  0  0  0  0  0  0  0  0  0
   -3.8133    0.8043    1.2793 H   0  0  0  0  0  0  0  0  0  0  0  0
   -3.4135    1.0317   -0.4279 H   0  0  0  0  0  0  0  0  0  0  0  0
   -1.3925    1.0887    0.9151 H   0  0  0  0  0  0  0  0  0  0  0  0
   -1.7450   -0.4811    1.6610 H   0  0  0  0  0  0  0  0  0  0  0  0
    0.7087    0.5181    1.2569 H   0  0  0  0  0  0  0  0  0  0  0  0
    3.0072    0.9510    0.7365 H   0  0  0  0  0  0  0  0  0  0  0  0
    4.5487   -0.0712   -2.5374 H   0  0  0  0  0  0  0  0  0  0  0  0
    7.3421    1.5253   -1.0534 H   0  0  0  0  0  0  0  0  0  0  0  0
    6.4406    1.6173   -2.5736 H   0  0  0  0  0  0  0  0  0  0  0  0
    5.7495   -2.0796   -0.0588 H   0  0  0  0  0  0  0  0  0  0  0  0
    6.4498   -2.8952    2.1576 H   0  0  0  0  0  0  0  0  0  0  0  0
   10.4148   -1.3558    1.4858 H   0  0  0  0  0  0  0  0  0  0  0  0
    9.7245   -0.5323   -0.7349 H   0  0  0  0  0  0  0  0  0  0  0  0
    2.4734   -0.8682   -3.1362 H   0  0  0  0  0  0  0  0  0  0  0  0
    0.1462   -1.2615   -2.6259 H   0  0  0  0  0  0  0  0  0  0  0  0
   -1.3693   -2.4912   -1.3242 H   0  0  0  0  0  0  0  0  0  0  0  0
   -2.2427   -1.1341   -2.0740 H   0  0  0  0  0  0  0  0  0  0  0  0
   -2.9515   -2.5468    0.5584 H   0  0  0  0  0  0  0  0  0  0  0  0
   -3.7996   -2.7151   -0.9798 H   0  0  0  0  0  0  0  0  0  0  0  0
   -6.4265    0.8630   -1.8343 H   0  0  0  0  0  0  0  0  0  0  0  0
   -7.7603    2.8723   -1.2709 H   0  0  0  0  0  0  0  0  0  0  0  0
  1  2  1  0
  2  3  2  0
  3  4  1  0
  4  5  2  0
  5  6  1  0
  6  7  2  0
  6  8  1  0
  8  9  1  0
  9 10  1  0
 10 11  1  0
 11 12  1  0
 12 13  2  0
 13 14  1  0
 14 15  2  0
 15 16  1  0
 16 17  1  0
 17 18  2  0
 17 19  1  0
 19 20  1  0
 20 21  1  0
 21 22  2  0
 22 23  1  0
 23 24  2  0
 24 25  1  0
 24 26  1  0
 26 27  2  0
 15 28  1  0
 28 29  2  0
 11 30  1  0
 30 31  1  0
  5 32  1  0
 32 33  2  0
 33  2  1  0
 31  8  1  0
 29 12  1  0
 27 21  1  0
  1 34  1  0
  1 35  1  0
  1 36  1  0
  3 37  1  0
  4 38  1  0
  9 39  1  0
  9 40  1  0
 10 41  1  0
 10 42  1  0
 13 43  1  0
 14 44  1  0
 16 45  1  0
 19 46  1  0
 19 47  1  0
 22 48  1  0
 23 49  1  0
 26 50  1  0
 27 51  1  0
 28 52  1  0
 29 53  1  0
 30 54  1  0
 30 55  1  0
 31 56  1  0
 31 57  1  0
 32 58  1  0
 33 59  1  0
M  END
$$$$
