
     RDKit          3D

 70 75  0  0  0  0  0  0  0  0999 V2000
    1.8686    1.6880   -2.1364 O   0  0  0  0  0  0  0  0  0  0  0  0
    2.0300    1.2715   -0.7701 C   0  0  0  0  0  0  0  0  0  0  0  0
    2.2115   -0.2568   -0.7064 C   0  0  0  0  0  0  0  0  0  0  0  0
    3.3985   -0.6653   -1.4630 N   0  0  0  0  0  0  0  0  0  0  0  0
    4.6618   -0.6059   -0.9089 C   0  0  0  0  0  0  0  0  0  0  0  0
    4.8645    0.1084    0.1659 N   0  0  0  0  0  0  0  0  0  0  0  0
    6.1446    0.1650    0.7532 C   0  0  0  0  0  0  0  0  0  0  0  0
    6.3124    0.9381    1.9041 C   0  0  0  0  0  0  0  0  0  0  0  0
    7.5561    1.0165    2.5349 C   0  0  0  0  0  0  0  0  0  0  0  0
    8.6489    0.3202    2.0168 C   0  0  0  0  0  0  0  0  0  0  0  0
    8.5057   -0.4552    0.8652 C   0  0  0  0  0  0  0  0  0  0  0  0
    7.2549   -0.5254    0.2453 C   0  0  0  0  0  0  0  0  0  0  0  0
    7.0195   -1.2850   -0.9136 N   0  0  0  0  0  0  0  0  0  0  0  0
    7.8843   -2.0633   -1.6448 C   0  0  0  0  0  0  0  0  0  0  0  0
    7.1889   -2.5994   -2.7087 C   0  0  0  0  0  0  0  0  0  0  0  0
    5.8552   -2.1353   -2.6164 C   0  0  0  0  0  0  0  0  0  0  0  0
    5.7715   -1.3307   -1.4934 C   0  0  0  0  0  0  0  0  0  0  0  0
    0.8580    1.7603    0.1097 C   0  0  0  0  0  0  0  0  0  0  0  0
   -0.4049    1.0014   -0.0183 N   0  0  0  0  0  0  0  0  0  0  0  0
   -1.0746    1.2662   -1.3114 C   0  0  0  0  0  0  0  0  0  0  0  0
   -2.4541    0.5694   -1.4219 C   0  0  0  0  0  0  0  0  0  0  0  0
   -3.3478    0.9230   -0.3060 N   0  0  0  0  0  0  0  0  0  0  0  0
   -4.7197    0.3752   -0.4553 C   0  0  0  0  0  0  0  0  0  0  0  0
   -5.7761    1.1302    0.3822 C   0  0  0  0  0  0  0  0  0  0  0  0
   -7.0520    0.5820    0.6119 C   0  0  0  0  0  0  0  0  0  0  0  0
   -8.0247    1.2801    1.3354 C   0  0  0  0  0  0  0  0  0  0  0  0
   -7.7527    2.5550    1.8202 C   0  0  0  0  0  0  0  0  0  0  0  0
   -6.5147    3.1385    1.5680 C   0  0  0  0  0  0  0  0  0  0  0  0
   -5.5433    2.4388    0.8459 C   0  0  0  0  0  0  0  0  0  0  0  0
   -4.7957   -1.1572   -0.3703 C   0  0  0  0  0  0  0  0  0  0  0  0
   -4.8273   -1.8391    0.8593 C   0  0  0  0  0  0  0  0  0  0  0  0
   -4.8897   -3.2341    0.9036 C   0  0  0  0  0  0  0  0  0  0  0  0
   -4.9187   -3.9702   -0.2788 C   0  0  0  0  0  0  0  0  0  0  0  0
   -4.8905   -3.3135   -1.5078 C   0  0  0  0  0  0  0  0  0  0  0  0
   -4.8305   -1.9186   -1.5538 C   0  0  0  0  0  0  0  0  0  0  0  0
   -2.6796    0.6165    0.9685 C   0  0  0  0  0  0  0  0  0  0  0  0
   -1.3294    1.3607    1.0791 C   0  0  0  0  0  0  0  0  0  0  0  0
    2.6218    1.2764   -2.6032 H   0  0  0  0  0  0  0  0  0  0  0  0
    2.9346    1.7768   -0.4136 H   0  0  0  0  0  0  0  0  0  0  0  0
    1.3515   -0.7533   -1.1723 H   0  0  0  0  0  0  0  0  0  0  0  0
    2.2758   -0.6070    0.3316 H   0  0  0  0  0  0  0  0  0  0  0  0
    3.2382   -1.4687   -2.0581 H   0  0  0  0  0  0  0  0  0  0  0  0
    5.4626    1.4795    2.3118 H   0  0  0  0  0  0  0  0  0  0  0  0
    7.6696    1.6197    3.4319 H   0  0  0  0  0  0  0  0  0  0  0  0
    9.6140    0.3827    2.5140 H   0  0  0  0  0  0  0  0  0  0  0  0
    9.3699   -0.9873    0.4816 H   0  0  0  0  0  0  0  0  0  0  0  0
    8.9209   -2.1797   -1.3646 H   0  0  0  0  0  0  0  0  0  0  0  0
    7.6016   -3.2533   -3.4674 H   0  0  0  0  0  0  0  0  0  0  0  0
    5.0475   -2.3661   -3.2988 H   0  0  0  0  0  0  0  0  0  0  0  0
    1.2004    1.6695    1.1484 H   0  0  0  0  0  0  0  0  0  0  0  0
    0.6797    2.8266   -0.0790 H   0  0  0  0  0  0  0  0  0  0  0  0
   -0.4618    0.8918   -2.1375 H   0  0  0  0  0  0  0  0  0  0  0  0
   -1.2091    2.3460   -1.4597 H   0  0  0  0  0  0  0  0  0  0  0  0
   -2.2896   -0.5144   -1.4659 H   0  0  0  0  0  0  0  0  0  0  0  0
   -2.9063    0.8726   -2.3734 H   0  0  0  0  0  0  0  0  0  0  0  0
   -5.0357    0.6397   -1.4773 H   0  0  0  0  0  0  0  0  0  0  0  0
   -7.3080   -0.4038    0.2282 H   0  0  0  0  0  0  0  0  0  0  0  0
   -8.9968    0.8255    1.5124 H   0  0  0  0  0  0  0  0  0  0  0  0
   -8.5092    3.0995    2.3798 H   0  0  0  0  0  0  0  0  0  0  0  0
   -6.3034    4.1431    1.9252 H   0  0  0  0  0  0  0  0  0  0  0  0
   -4.5938    2.9306    0.6439 H   0  0  0  0  0  0  0  0  0  0  0  0
   -4.8130   -1.2819    1.7939 H   0  0  0  0  0  0  0  0  0  0  0  0
   -4.9154   -3.7442    1.8630 H   0  0  0  0  0  0  0  0  0  0  0  0
   -4.9658   -5.0560   -0.2436 H   0  0  0  0  0  0  0  0  0  0  0  0
   -4.9122   -3.8869   -2.4312 H   0  0  0  0  0  0  0  0  0  0  0  0
   -4.8073   -1.4253   -2.5240 H   0  0  0  0  0  0  0  0  0  0  0  0
   -2.4838   -0.4576    1.0704 H   0  0  0  0  0  0  0  0  0  0  0  0
   -3.2998    0.9203    1.8192 H   0  0  0  0  0  0  0  0  0  0  0  0
   -1.5122    2.4440    1.0953 H   0  0  0  0  0  0  0  0  0  0  0  0
   -0.8741    1.0915    2.0398 H   0  0  0  0  0  0  0  0  0  0  0  0
  1  2  1  0
  2  3  1  0
  3  4  1  0
  4  5  1  0
  5  6  2  0
  6  7  1  0
  7  8  2  0
  8  9  1  0
  9 10  2  0
 10 11  1  0
 11 12  2  0
 12 13  1  0
 13 14  1  0
 14 15  2  0
 15 16  1  0
 16 17  2  0
  2 18  1  0
 18 19  1  0
 19 20  1  0
 20 21  1  0
 21 22  1  0
 22 23  1  0
 23 24  1  0
 24 25  2  0
 25 26  1  0
 26 27  2  0
 27 28  1  0
 28 29  2  0
 23 30  1  0
 30 31  2  0
 31 32  1  0
 32 33  2  0
 33 34  1  0
 34 35  2  0
 22 36  1  0
 36 37  1  0
 17  5  1  0
 37 19  1  0
 12  7  1  0
 17 13  1  0
 29 24  1  0
 35 30  1  0
  1 38  1  0
  2 39  1  0
  3 40  1  0
  3 41  1  0
  4 42  1  0
  8 43  1  0
  9 44  1  0
 10 45  1  0
 11 46  1  0
 14 47  1  0
 15 48  1  0
 16 49  1  0
 18 50  1  0
 18 51  1  0
 20 52  1  0
 20 53  1  0
 21 54  1  0
 21 55  1  0
 23 56  1  0
 25 57  1  0
 26 58  1  0
 27 59  1  0
 28 60  1  0
 29 61  1  0
 31 62  1  0
 32 63  1  0
 33 64  1  0
 34 65  1  0
 35 66  1  0
 36 67  1  0
 36 68  1  0
 37 69  1  0
 37 70  1  0
M  END
$$$$
