
     RDKit          3D

 33 35  0  0  0  0  0  0  0  0999 V2000
    5.0225    1.0403   -1.3999 C   0  0  0  0  0  0  0  0  0  0  0  0
    4.3076    0.3821   -0.3308 N   0  0  0  0  0  0  0  0  0  0  0  0
    4.8485   -0.2332    0.7567 C   0  0  0  0  0  0  0  0  0  0  0  0
    3.7755   -0.6961    1.4903 C   0  0  0  0  0  0  0  0  0  0  0  0
    3.8543   -1.3726    2.7401 N   0  0  0  0  0  4  0  0  0  0  0  0
    4.5926   -2.3644    2.7837 O   0  0  0  0  0  0  0  0  0  0  0  0
    3.2418   -0.8661    3.6859 O   0  0  0  0  0  1  0  0  0  0  0  0
    2.6228   -0.3483    0.7544 C   0  0  0  0  0  0  0  0  0  0  0  0
    1.2172   -0.6721    1.0505 C   0  0  0  0  0  0  0  0  0  0  0  0
    0.9219   -1.4414    1.9530 O   0  0  0  0  0  0  0  0  0  0  0  0
    0.3662   -0.0295    0.1693 N   0  0  0  0  0  0  0  0  0  0  0  0
   -1.0163   -0.0824    0.1256 C   0  0  0  0  0  0  0  0  0  0  0  0
   -1.9086   -0.9943    1.2796 S   0  0  0  0  0  0  0  0  0  0  0  0
   -3.3512   -0.5493    0.5704 C   0  0  0  0  0  0  0  0  0  0  0  0
   -3.2088    0.2687   -0.5142 C   0  0  0  0  0  0  0  0  0  0  0  0
   -1.8519    0.5524   -0.7886 C   0  0  0  0  0  0  0  0  0  0  0  0
   -1.3885    1.3788   -1.8601 C   0  0  0  0  0  0  0  0  0  0  0  0
   -0.9948    2.0465   -2.7238 N   0  0  0  0  0  0  0  0  0  0  0  0
   -4.5295    0.6208   -1.0940 C   0  0  0  0  0  0  0  0  0  0  0  0
   -5.5160    0.1650    0.0279 C   0  0  0  0  0  0  0  0  0  0  0  0
   -4.7561   -0.8804    0.9020 C   0  0  0  0  0  0  0  0  0  0  0  0
    2.9597    0.3454   -0.3596 N   0  0  0  0  0  0  0  0  0  0  0  0
    6.0971    0.9727   -1.2137 H   0  0  0  0  0  0  0  0  0  0  0  0
    4.7729    0.5397   -2.3387 H   0  0  0  0  0  0  0  0  0  0  0  0
    4.7120    2.0877   -1.4264 H   0  0  0  0  0  0  0  0  0  0  0  0
    5.9154   -0.2831    0.9287 H   0  0  0  0  0  0  0  0  0  0  0  0
    0.8505    0.5268   -0.5345 H   0  0  0  0  0  0  0  0  0  0  0  0
   -4.7075    0.0535   -2.0135 H   0  0  0  0  0  0  0  0  0  0  0  0
   -4.6323    1.6898   -1.2999 H   0  0  0  0  0  0  0  0  0  0  0  0
   -6.4513   -0.2331   -0.3778 H   0  0  0  0  0  0  0  0  0  0  0  0
   -5.7706    1.0326    0.6512 H   0  0  0  0  0  0  0  0  0  0  0  0
   -4.9930   -0.7577    1.9623 H   0  0  0  0  0  0  0  0  0  0  0  0
   -5.0022   -1.8985    0.5837 H   0  0  0  0  0  0  0  0  0  0  0  0
  1  2  1  0
  2  3  1  0
  3  4  2  0
  4  5  1  0
  5  6  2  0
  5  7  1  0
  4  8  1  0
  8  9  1  0
  9 10  2  0
  9 11  1  0
 11 12  1  0
 12 13  1  0
 13 14  1  0
 14 15  2  0
 15 16  1  0
 16 17  1  0
 17 18  3  0
 15 19  1  0
 19 20  1  0
 20 21  1  0
  8 22  2  0
 22  2  1  0
 16 12  2  0
 21 14  1  0
  1 23  1  0
  1 24  1  0
  1 25  1  0
  3 26  1  0
 11 27  1  0
 19 28  1  0
 19 29  1  0
 20 30  1  0
 20 31  1  0
 21 32  1  0
 21 33  1  0
M  CHG  2   5   1   7  -1
M  END
$$$$
