
     RDKit          3D

 57 62  0  0  0  0  0  0  0  0999 V2000
    7.6008   -2.1377   -0.1813 C   0  0  0  0  0  0  0  0  0  0  0  0
    6.3047   -1.6026    0.3233 C   0  0  0  0  0  0  0  0  0  0  0  0
    5.2347   -2.2956    0.8488 C   0  0  0  0  0  0  0  0  0  0  0  0
    4.1696   -1.4297    1.2333 C   0  0  0  0  0  0  0  0  0  0  0  0
    4.4499   -0.1015    0.9712 C   0  0  0  0  0  0  0  0  0  0  0  0
    3.6410    1.0831    1.2192 C   0  0  0  0  0  0  0  0  0  0  0  0
    4.1004    2.0872    1.7649 O   0  0  0  0  0  0  0  0  0  0  0  0
    2.2890    1.0418    0.8369 N   0  0  0  0  0  0  0  0  0  0  0  0
    1.4425    2.1631    1.2330 C   0  0  0  0  0  0  0  0  0  0  0  0
   -0.0322    1.7848    1.1776 C   0  0  0  0  0  0  0  0  0  0  0  0
   -0.4624    1.4296   -0.2705 C   0  0  0  0  0  0  0  0  0  0  0  0
    0.7022    0.7518   -1.0458 C   0  0  0  0  0  0  0  0  0  0  0  0
    1.7469    0.1025   -0.1417 C   0  0  0  0  0  0  0  0  0  0  0  0
   -0.6719    2.7400   -0.8739 O   0  0  0  0  0  0  0  0  0  0  0  0
   -1.4431    2.8150   -1.9939 C   0  0  0  0  0  0  0  0  0  0  0  0
   -1.3974    4.0236   -2.6891 C   0  0  0  0  0  0  0  0  0  0  0  0
   -2.1389    4.1875   -3.8619 C   0  0  0  0  0  0  0  0  0  0  0  0
   -2.9286    3.1401   -4.3353 C   0  0  0  0  0  0  0  0  0  0  0  0
   -3.8352    3.3422   -5.7826 Cl  0  0  0  0  0  0  0  0  0  0  0  0
   -2.9897    1.9343   -3.6424 C   0  0  0  0  0  0  0  0  0  0  0  0
   -2.2503    1.7862   -2.4642 C   0  0  0  0  0  0  0  0  0  0  0  0
   -2.3103    0.5351   -1.6994 C   0  0  0  0  0  0  0  0  0  0  0  0
   -2.7603   -0.4801   -2.2248 O   0  0  0  0  0  0  0  0  0  0  0  0
   -1.7731    0.5930   -0.2725 C   0  0  0  0  0  0  0  0  0  0  0  0
   -1.6601   -0.8067    0.3173 C   0  0  0  0  0  0  0  0  0  0  0  0
   -2.9890   -0.8740    0.9930 C   0  0  0  0  0  0  0  0  0  0  0  0
   -3.5545   -2.1414    1.4959 C   0  0  0  0  0  0  0  0  0  0  0  0
   -4.8248   -2.1594    2.0751 C   0  0  0  0  0  0  0  0  0  0  0  0
   -5.3452   -3.3594    2.5550 C   0  0  0  0  0  0  0  0  0  0  0  0
   -4.5722   -4.5034    2.4413 C   0  0  0  0  0  0  0  0  0  0  0  0
   -3.3384   -4.5223    1.8904 N   0  0  0  0  0  0  0  0  0  0  0  0
   -2.8595   -3.3416    1.4274 C   0  0  0  0  0  0  0  0  0  0  0  0
   -3.5818    0.2685    1.1352 N   0  0  0  0  0  0  0  0  0  0  0  0
   -2.7662    1.2506    0.5320 O   0  0  0  0  0  0  0  0  0  0  0  0
    6.0170    0.0841    0.3077 S   0  0  0  0  0  0  0  0  0  0  0  0
    7.7521   -1.8640   -1.2306 H   0  0  0  0  0  0  0  0  0  0  0  0
    7.6252   -3.2304   -0.1137 H   0  0  0  0  0  0  0  0  0  0  0  0
    8.4376   -1.7469    0.4069 H   0  0  0  0  0  0  0  0  0  0  0  0
    5.2201   -3.3729    0.9658 H   0  0  0  0  0  0  0  0  0  0  0  0
    3.2487   -1.7664    1.6929 H   0  0  0  0  0  0  0  0  0  0  0  0
    1.7075    2.4726    2.2506 H   0  0  0  0  0  0  0  0  0  0  0  0
    1.6635    3.0050    0.5661 H   0  0  0  0  0  0  0  0  0  0  0  0
   -0.6248    2.6280    1.5547 H   0  0  0  0  0  0  0  0  0  0  0  0
   -0.1950    0.9481    1.8647 H   0  0  0  0  0  0  0  0  0  0  0  0
    0.3247   -0.0022   -1.7460 H   0  0  0  0  0  0  0  0  0  0  0  0
    1.2135    1.5001   -1.6675 H   0  0  0  0  0  0  0  0  0  0  0  0
    2.5490   -0.2986   -0.7688 H   0  0  0  0  0  0  0  0  0  0  0  0
    1.3088   -0.7318    0.4147 H   0  0  0  0  0  0  0  0  0  0  0  0
   -0.7787    4.8396   -2.3221 H   0  0  0  0  0  0  0  0  0  0  0  0
   -2.0949    5.1315   -4.3997 H   0  0  0  0  0  0  0  0  0  0  0  0
   -3.6134    1.1209   -4.0061 H   0  0  0  0  0  0  0  0  0  0  0  0
   -1.5172   -1.5953   -0.4248 H   0  0  0  0  0  0  0  0  0  0  0  0
   -0.8945   -0.9013    1.0903 H   0  0  0  0  0  0  0  0  0  0  0  0
   -5.4127   -1.2475    2.1540 H   0  0  0  0  0  0  0  0  0  0  0  0
   -6.3306   -3.3989    3.0065 H   0  0  0  0  0  0  0  0  0  0  0  0
   -4.9352   -5.4625    2.8009 H   0  0  0  0  0  0  0  0  0  0  0  0
   -1.8671   -3.4157    0.9956 H   0  0  0  0  0  0  0  0  0  0  0  0
  1  2  1  0
  2  3  2  0
  3  4  1  0
  4  5  2  0
  5  6  1  0
  6  7  2  0
  6  8  1  0
  8  9  1  0
  9 10  1  0
 10 11  1  0
 11 12  1  0
 12 13  1  0
 11 14  1  0
 14 15  1  0
 15 16  2  0
 16 17  1  0
 17 18  2  0
 18 19  1  0
 18 20  1  0
 20 21  2  0
 21 22  1  0
 22 23  2  0
 22 24  1  0
 24 25  1  0
 25 26  1  0
 26 27  1  0
 27 28  2  0
 28 29  1  0
 29 30  2  0
 30 31  1  0
 31 32  2  0
 26 33  2  0
 33 34  1  0
  5 35  1  0
 35  2  1  0
 13  8  1  0
 21 15  1  0
 34 24  1  0
 24 11  1  0
 32 27  1  0
  1 36  1  0
  1 37  1  0
  1 38  1  0
  3 39  1  0
  4 40  1  0
  9 41  1  0
  9 42  1  0
 10 43  1  0
 10 44  1  0
 12 45  1  0
 12 46  1  0
 13 47  1  0
 13 48  1  0
 16 49  1  0
 17 50  1  0
 20 51  1  0
 25 52  1  0
 25 53  1  0
 28 54  1  0
 29 55  1  0
 30 56  1  0
 32 57  1  0
M  END
$$$$
