
     RDKit          3D

 59 62  0  0  0  0  0  0  0  0999 V2000
   -2.9194   -0.5631    1.2608 C   0  0  0  0  0  0  0  0  0  0  0  0
   -2.3934   -0.4713   -0.0667 O   0  0  0  0  0  0  0  0  0  0  0  0
   -3.4059   -0.2117   -0.9605 C   0  0  0  0  0  0  0  0  0  0  0  0
   -3.9997   -1.3032   -1.6257 C   0  0  0  0  0  0  0  0  0  0  0  0
   -3.5823   -2.7211   -1.3480 C   0  0  0  0  0  0  0  0  0  0  0  0
   -5.0468   -1.0606   -2.5262 C   0  0  0  0  0  0  0  0  0  0  0  0
   -5.4704    0.2446   -2.7803 C   0  0  0  0  0  0  0  0  0  0  0  0
   -6.8786    0.5476   -4.0081 Br  0  0  0  0  0  0  0  0  0  0  0  0
   -4.8576    1.3256   -2.1506 C   0  0  0  0  0  0  0  0  0  0  0  0
   -3.8048    1.1074   -1.2462 C   0  0  0  0  0  0  0  0  0  0  0  0
   -3.1790    2.3189   -0.6321 C   0  0  0  0  0  0  0  0  0  0  0  0
   -3.8739    3.3223   -0.5001 O   0  0  0  0  0  0  0  0  0  0  0  0
   -1.8498    2.1968   -0.3003 N   0  0  0  0  0  0  0  0  0  0  0  0
   -0.9906    3.1543    0.2780 C   0  0  0  0  0  0  0  0  0  0  0  0
   -1.3868    4.4414    0.6426 C   0  0  0  0  0  0  0  0  0  0  0  0
   -0.4651    5.3217    1.2139 C   0  0  0  0  0  0  0  0  0  0  0  0
    0.8534    4.9224    1.4192 C   0  0  0  0  0  0  0  0  0  0  0  0
    1.2591    3.6385    1.0542 C   0  0  0  0  0  0  0  0  0  0  0  0
    0.3469    2.7374    0.4855 C   0  0  0  0  0  0  0  0  0  0  0  0
    0.7216    1.4295    0.0827 N   0  0  0  0  0  0  0  0  0  0  0  0
    1.1727    0.5809    1.2091 C   0  0  0  0  0  0  0  0  0  0  0  0
    1.8481   -0.7017    0.6916 C   0  0  0  0  0  0  0  0  0  0  0  0
    3.0229   -0.4012   -0.1432 N   0  0  0  0  0  0  0  0  0  0  0  0
    4.1111   -1.2455   -0.3345 C   0  0  0  0  0  0  0  0  0  0  0  0
    5.0608   -0.9878   -1.0718 O   0  0  0  0  0  0  0  0  0  0  0  0
    4.1455   -2.5263    0.3998 C   0  0  0  0  0  0  0  0  0  0  0  0
    3.8073   -3.7151   -0.2605 C   0  0  0  0  0  0  0  0  0  0  0  0
    3.8736   -4.9246    0.4331 C   0  0  0  0  0  0  0  0  0  0  0  0
    4.2813   -4.9402    1.7726 C   0  0  0  0  0  0  0  0  0  0  0  0
    4.6320   -3.7498    2.4227 C   0  0  0  0  0  0  0  0  0  0  0  0
    4.5731   -2.5381    1.7346 C   0  0  0  0  0  0  0  0  0  0  0  0
    3.0209    0.9043   -0.8161 C   0  0  0  0  0  0  0  0  0  0  0  0
    1.6044    1.4264   -1.1143 C   0  0  0  0  0  0  0  0  0  0  0  0
   -3.3657    0.3838    1.5811 H   0  0  0  0  0  0  0  0  0  0  0  0
   -2.0867   -0.7919    1.9326 H   0  0  0  0  0  0  0  0  0  0  0  0
   -3.6510   -1.3743    1.3429 H   0  0  0  0  0  0  0  0  0  0  0  0
   -3.7934   -3.3703   -2.2035 H   0  0  0  0  0  0  0  0  0  0  0  0
   -2.5074   -2.7891   -1.1578 H   0  0  0  0  0  0  0  0  0  0  0  0
   -4.1236   -3.1053   -0.4784 H   0  0  0  0  0  0  0  0  0  0  0  0
   -5.5327   -1.8945   -3.0305 H   0  0  0  0  0  0  0  0  0  0  0  0
   -5.1853    2.3428   -2.3659 H   0  0  0  0  0  0  0  0  0  0  0  0
   -1.3840    1.3060   -0.4702 H   0  0  0  0  0  0  0  0  0  0  0  0
   -2.4048    4.7855    0.4933 H   0  0  0  0  0  0  0  0  0  0  0  0
   -0.7815    6.3231    1.4947 H   0  0  0  0  0  0  0  0  0  0  0  0
    1.5673    5.6119    1.8597 H   0  0  0  0  0  0  0  0  0  0  0  0
    2.2935    3.3510    1.2126 H   0  0  0  0  0  0  0  0  0  0  0  0
    0.3083    0.3108    1.8264 H   0  0  0  0  0  0  0  0  0  0  0  0
    1.8877    1.1134    1.8497 H   0  0  0  0  0  0  0  0  0  0  0  0
    1.1528   -1.2707    0.0631 H   0  0  0  0  0  0  0  0  0  0  0  0
    2.1249   -1.3337    1.5385 H   0  0  0  0  0  0  0  0  0  0  0  0
    3.5095   -3.6999   -1.3066 H   0  0  0  0  0  0  0  0  0  0  0  0
    3.6230   -5.8564   -0.0703 H   0  0  0  0  0  0  0  0  0  0  0  0
    4.3416   -5.8841    2.3068 H   0  0  0  0  0  0  0  0  0  0  0  0
    4.9643   -3.7706    3.4601 H   0  0  0  0  0  0  0  0  0  0  0  0
    4.8678   -1.6109    2.2303 H   0  0  0  0  0  0  0  0  0  0  0  0
    3.5414    1.5950   -0.1412 H   0  0  0  0  0  0  0  0  0  0  0  0
    3.6031    0.8559   -1.7448 H   0  0  0  0  0  0  0  0  0  0  0  0
    1.1340    0.7623   -1.8510 H   0  0  0  0  0  0  0  0  0  0  0  0
    1.6663    2.4156   -1.5867 H   0  0  0  0  0  0  0  0  0  0  0  0
  1  2  1  0
  2  3  1  0
  3  4  2  0
  4  5  1  0
  4  6  1  0
  6  7  2  0
  7  8  1  0
  7  9  1  0
  9 10  2  0
 10 11  1  0
 11 12  2  0
 11 13  1  0
 13 14  1  0
 14 15  2  0
 15 16  1  0
 16 17  2  0
 17 18  1  0
 18 19  2  0
 19 20  1  0
 20 21  1  0
 21 22  1  0
 22 23  1  0
 23 24  1  0
 24 25  2  0
 24 26  1  0
 26 27  2  0
 27 28  1  0
 28 29  2  0
 29 30  1  0
 30 31  2  0
 23 32  1  0
 32 33  1  0
 10  3  1  0
 19 14  1  0
 33 20  1  0
 31 26  1  0
  1 34  1  0
  1 35  1  0
  1 36  1  0
  5 37  1  0
  5 38  1  0
  5 39  1  0
  6 40  1  0
  9 41  1  0
 13 42  1  0
 15 43  1  0
 16 44  1  0
 17 45  1  0
 18 46  1  0
 21 47  1  0
 21 48  1  0
 22 49  1  0
 22 50  1  0
 27 51  1  0
 28 52  1  0
 29 53  1  0
 30 54  1  0
 31 55  1  0
 32 56  1  0
 32 57  1  0
 33 58  1  0
 33 59  1  0
M  END
$$$$
