
     RDKit          3D

 84 87  0  0  0  0  0  0  0  0999 V2000
    3.5748    6.0475    2.4656 C   0  0  0  0  0  0  0  0  0  0  0  0
    4.3947    5.0744    1.8301 O   0  0  0  0  0  0  0  0  0  0  0  0
    3.7576    4.0209    1.2343 C   0  0  0  0  0  0  0  0  0  0  0  0
    2.3773    3.8766    1.0831 C   0  0  0  0  0  0  0  0  0  0  0  0
    1.8529    2.7429    0.4526 C   0  0  0  0  0  0  0  0  0  0  0  0
    2.7148    1.7467   -0.0156 C   0  0  0  0  0  0  0  0  0  0  0  0
    2.0561    0.3194   -0.8572 S   0  0  0  0  0  6  0  0  0  0  0  0
    0.7440    0.6913   -1.3563 O   0  0  0  0  0  0  0  0  0  0  0  0
    3.0849   -0.1668   -1.7497 O   0  0  0  0  0  0  0  0  0  0  0  0
    1.8546   -0.8080    0.4044 N   0  0  0  0  0  0  0  0  0  0  0  0
    3.0744   -1.3075    1.0580 C   0  0  0  0  0  0  0  0  0  0  0  0
    0.6922   -0.6102    1.3088 C   0  0  0  0  0  0  0  0  0  0  0  0
   -0.4259   -1.6567    1.0764 C   0  0  0  0  0  0  0  0  0  0  0  0
   -0.5348   -1.9120   -0.3462 O   0  0  0  0  0  0  0  0  0  0  0  0
   -1.8200   -2.2498   -0.6743 C   0  0  0  0  0  0  0  0  0  0  0  0
   -2.6754   -1.1752   -1.0154 C   0  0  0  0  0  0  0  0  0  0  0  0
   -2.0740    0.0921   -1.1481 N   0  0  0  0  0  0  0  0  0  0  0  0
   -2.6674    1.3163   -1.3253 C   0  0  0  0  0  0  0  0  0  0  0  0
   -3.8614    1.5662   -1.2380 O   0  0  0  0  0  0  0  0  0  0  0  0
   -1.7132    2.2781   -1.5759 N   0  0  0  0  0  0  0  0  0  0  0  0
   -2.0447    3.6750   -1.7993 C   0  0  0  0  0  0  0  0  0  0  0  0
   -2.3136    4.3853   -0.4649 C   0  0  0  0  0  0  0  0  0  0  0  0
   -2.5827    5.8754   -0.6576 C   0  0  0  0  0  0  0  0  0  0  0  0
   -1.4584    6.5570   -1.4314 C   0  0  0  0  0  0  0  0  0  0  0  0
   -1.1895    5.8586   -2.7607 C   0  0  0  0  0  0  0  0  0  0  0  0
   -0.9122    4.3708   -2.5655 C   0  0  0  0  0  0  0  0  0  0  0  0
   -4.0237   -1.4161   -1.2617 C   0  0  0  0  0  0  0  0  0  0  0  0
   -4.5037   -2.7230   -1.2341 C   0  0  0  0  0  0  0  0  0  0  0  0
   -3.6305   -3.7865   -0.9842 C   0  0  0  0  0  0  0  0  0  0  0  0
   -2.2658   -3.5725   -0.7039 C   0  0  0  0  0  0  0  0  0  0  0  0
   -1.4507   -4.8207   -0.5880 C   0  0  0  0  0  0  0  0  0  0  0  0
   -1.7297   -5.7168   -1.3962 O   0  0  0  0  0  0  0  0  0  0  0  0
   -0.5130   -5.0741    0.4366 N   0  0  0  0  0  0  0  0  0  0  0  0
   -0.0881   -6.4948    0.5768 C   0  0  0  0  0  0  0  0  0  0  0  0
    0.1843   -6.8864    2.0327 C   0  0  0  0  0  0  0  0  0  0  0  0
    1.1114   -6.8510   -0.3294 C   0  0  0  0  0  0  0  0  0  0  0  0
    0.8225   -6.7296   -1.7188 O   0  0  0  0  0  0  0  0  0  0  0  0
    0.4059   -4.0493    0.9497 C   0  0  0  0  0  0  0  0  0  0  0  0
   -0.3018   -3.0038    1.8181 C   0  0  0  0  0  0  0  0  0  0  0  0
    0.2991   -2.9086    3.2203 C   0  0  0  0  0  0  0  0  0  0  0  0
    4.0978    1.8964    0.1038 C   0  0  0  0  0  0  0  0  0  0  0  0
    4.6108    3.0311    0.7349 C   0  0  0  0  0  0  0  0  0  0  0  0
    4.2326    6.7742    2.9496 H   0  0  0  0  0  0  0  0  0  0  0  0
    2.9620    6.5842    1.7348 H   0  0  0  0  0  0  0  0  0  0  0  0
    2.9533    5.5929    3.2425 H   0  0  0  0  0  0  0  0  0  0  0  0
    1.6828    4.6335    1.4342 H   0  0  0  0  0  0  0  0  0  0  0  0
    0.7761    2.6550    0.3281 H   0  0  0  0  0  0  0  0  0  0  0  0
    3.3771   -0.6495    1.8769 H   0  0  0  0  0  0  0  0  0  0  0  0
    2.8929   -2.3081    1.4584 H   0  0  0  0  0  0  0  0  0  0  0  0
    3.9025   -1.3997    0.3521 H   0  0  0  0  0  0  0  0  0  0  0  0
    0.2507    0.3736    1.1126 H   0  0  0  0  0  0  0  0  0  0  0  0
    1.0064   -0.5584    2.3556 H   0  0  0  0  0  0  0  0  0  0  0  0
   -1.3422   -1.1760    1.4526 H   0  0  0  0  0  0  0  0  0  0  0  0
   -1.0553    0.0863   -1.1474 H   0  0  0  0  0  0  0  0  0  0  0  0
   -0.7818    1.9437   -1.8104 H   0  0  0  0  0  0  0  0  0  0  0  0
   -2.9578    3.7079   -2.4079 H   0  0  0  0  0  0  0  0  0  0  0  0
   -1.4514    4.2571    0.2027 H   0  0  0  0  0  0  0  0  0  0  0  0
   -3.1688    3.9260    0.0454 H   0  0  0  0  0  0  0  0  0  0  0  0
   -3.5292    6.0080   -1.1955 H   0  0  0  0  0  0  0  0  0  0  0  0
   -2.6993    6.3570    0.3196 H   0  0  0  0  0  0  0  0  0  0  0  0
   -0.5434    6.5511   -0.8258 H   0  0  0  0  0  0  0  0  0  0  0  0
   -1.7171    7.6065   -1.6106 H   0  0  0  0  0  0  0  0  0  0  0  0
   -2.0542    5.9861   -3.4231 H   0  0  0  0  0  0  0  0  0  0  0  0
   -0.3341    6.3305   -3.2573 H   0  0  0  0  0  0  0  0  0  0  0  0
   -0.7757    3.8934   -3.5442 H   0  0  0  0  0  0  0  0  0  0  0  0
    0.0371    4.2477   -2.0262 H   0  0  0  0  0  0  0  0  0  0  0  0
   -4.7077   -0.6118   -1.5172 H   0  0  0  0  0  0  0  0  0  0  0  0
   -5.5507   -2.9208   -1.4533 H   0  0  0  0  0  0  0  0  0  0  0  0
   -4.0227   -4.8026   -1.0312 H   0  0  0  0  0  0  0  0  0  0  0  0
   -0.9357   -7.1155    0.2570 H   0  0  0  0  0  0  0  0  0  0  0  0
    1.1144   -6.4577    2.4144 H   0  0  0  0  0  0  0  0  0  0  0  0
   -0.6323   -6.5595    2.6837 H   0  0  0  0  0  0  0  0  0  0  0  0
    0.2706   -7.9749    2.1230 H   0  0  0  0  0  0  0  0  0  0  0  0
    1.9720   -6.2104   -0.1135 H   0  0  0  0  0  0  0  0  0  0  0  0
    1.4175   -7.8875   -0.1531 H   0  0  0  0  0  0  0  0  0  0  0  0
   -0.1239   -6.4852   -1.8159 H   0  0  0  0  0  0  0  0  0  0  0  0
    0.9400   -3.6264    0.0914 H   0  0  0  0  0  0  0  0  0  0  0  0
    1.1855   -4.5362    1.5421 H   0  0  0  0  0  0  0  0  0  0  0  0
   -1.3298   -3.3570    1.9856 H   0  0  0  0  0  0  0  0  0  0  0  0
    1.3654   -2.6686    3.1980 H   0  0  0  0  0  0  0  0  0  0  0  0
   -0.2170   -2.1465    3.8141 H   0  0  0  0  0  0  0  0  0  0  0  0
    0.1930   -3.8655    3.7438 H   0  0  0  0  0  0  0  0  0  0  0  0
    4.7800    1.1483   -0.2959 H   0  0  0  0  0  0  0  0  0  0  0  0
    5.6880    3.1517    0.8328 H   0  0  0  0  0  0  0  0  0  0  0  0
  1  2  1  0
  2  3  1  0
  3  4  2  0
  4  5  1  0
  5  6  2  0
  6  7  1  0
  7  8  2  0
  7  9  2  0
  7 10  1  0
 10 11  1  0
 10 12  1  0
 12 13  1  0
 13 14  1  0
 14 15  1  0
 15 16  2  0
 16 17  1  0
 17 18  1  0
 18 19  2  0
 18 20  1  0
 20 21  1  0
 21 22  1  0
 22 23  1  0
 23 24  1  0
 24 25  1  0
 25 26  1  0
 16 27  1  0
 27 28  2  0
 28 29  1  0
 29 30  2  0
 30 31  1  0
 31 32  2  0
 31 33  1  0
 33 34  1  0
 34 35  1  0
 34 36  1  0
 36 37  1  0
 33 38  1  0
 38 39  1  0
 39 40  1  0
  6 41  1  0
 41 42  2  0
 42  3  1  0
 39 13  1  0
 30 15  1  0
 26 21  1  0
  1 43  1  0
  1 44  1  0
  1 45  1  0
  4 46  1  0
  5 47  1  0
 11 48  1  0
 11 49  1  0
 11 50  1  0
 12 51  1  0
 12 52  1  0
 13 53  1  0
 17 54  1  0
 20 55  1  0
 21 56  1  0
 22 57  1  0
 22 58  1  0
 23 59  1  0
 23 60  1  0
 24 61  1  0
 24 62  1  0
 25 63  1  0
 25 64  1  0
 26 65  1  0
 26 66  1  0
 27 67  1  0
 28 68  1  0
 29 69  1  0
 34 70  1  0
 35 71  1  0
 35 72  1  0
 35 73  1  0
 36 74  1  0
 36 75  1  0
 37 76  1  0
 38 77  1  0
 38 78  1  0
 39 79  1  0
 40 80  1  0
 40 81  1  0
 40 82  1  0
 41 83  1  0
 42 84  1  0
M  END
$$$$
