
     RDKit          3D

 65 68  0  0  0  0  0  0  0  0999 V2000
    8.1088   -1.5964    6.3826 C   0  0  0  0  0  0  0  0  0  0  0  0
    7.3682   -0.8494    5.3526 C   0  0  0  0  0  0  0  0  0  0  0  0
    6.1958   -1.0577    4.6699 C   0  0  0  0  0  0  0  0  0  0  0  0
    6.0850    0.0554    3.8078 C   0  0  0  0  0  0  0  0  0  0  0  0
    5.1128    0.3547    2.8804 N   0  0  0  0  0  0  0  0  0  0  0  0
    4.0233   -0.4322    2.5862 C   0  0  0  0  0  0  0  0  0  0  0  0
    3.7355   -1.4930    3.1300 O   0  0  0  0  0  0  0  0  0  0  0  0
    3.1876    0.1642    1.4720 C   0  0  0  0  0  0  0  0  0  0  0  0
    2.0023   -0.7261    1.1085 C   0  0  0  0  0  0  0  0  0  0  0  0
    1.2312   -0.1670   -0.0743 C   0  0  0  0  0  0  0  0  0  0  0  0
    1.6333    0.8417   -0.6586 O   0  0  0  0  0  0  0  0  0  0  0  0
    0.0872   -0.8428   -0.4870 N   0  0  0  0  0  0  0  0  0  0  0  0
   -0.4100   -2.0700    0.1525 C   0  0  0  0  0  0  0  0  0  0  0  0
   -1.5528   -1.8318    1.0939 C   0  0  0  0  0  0  0  0  0  0  0  0
   -1.7808   -0.7919    1.9745 C   0  0  0  0  0  0  0  0  0  0  0  0
   -2.9788   -0.9582    2.7277 C   0  0  0  0  0  0  0  0  0  0  0  0
   -3.6207   -2.1350    2.4187 C   0  0  0  0  0  0  0  0  0  0  0  0
   -2.7815   -3.0276    1.2282 S   0  0  0  0  0  0  0  0  0  0  0  0
   -0.6385   -0.2403   -1.6322 C   0  0  0  0  0  0  0  0  0  0  0  0
   -1.4498    1.0407   -1.2523 C   0  0  0  0  0  0  0  0  0  0  0  0
   -1.7026    1.3816   -0.0993 O   0  0  0  0  0  0  0  0  0  0  0  0
   -1.8775    1.7831   -2.3475 N   0  0  0  0  0  0  0  0  0  0  0  0
   -2.7822    2.8987   -2.1837 C   0  0  0  0  0  0  0  0  0  0  0  0
   -4.2431    2.4574   -2.1070 C   0  0  0  0  0  0  0  0  0  0  0  0
   -5.0517    3.6759   -2.5501 C   0  0  0  0  0  0  0  0  0  0  0  0
   -4.0585    4.6405   -3.1976 C   0  0  0  0  0  0  0  0  0  0  0  0
   -2.7760    3.8422   -3.3806 C   0  0  0  0  0  0  0  0  0  0  0  0
   -1.4594   -1.2268   -2.4611 C   0  0  0  0  0  0  0  0  0  0  0  0
   -0.8316   -1.9611   -3.4823 C   0  0  0  0  0  0  0  0  0  0  0  0
   -1.5540   -2.8781   -4.2472 C   0  0  0  0  0  0  0  0  0  0  0  0
   -2.9100   -3.0783   -3.9981 C   0  0  0  0  0  0  0  0  0  0  0  0
   -3.5444   -2.3643   -2.9840 C   0  0  0  0  0  0  0  0  0  0  0  0
   -2.8252   -1.4461   -2.2177 C   0  0  0  0  0  0  0  0  0  0  0  0
    7.1174    0.8906    3.9703 N   0  0  0  0  0  0  0  0  0  0  0  0
    7.9228    0.3195    4.9374 O   0  0  0  0  0  0  0  0  0  0  0  0
    8.2533   -0.9794    7.2753 H   0  0  0  0  0  0  0  0  0  0  0  0
    9.0921   -1.8923    6.0067 H   0  0  0  0  0  0  0  0  0  0  0  0
    7.5684   -2.5013    6.6769 H   0  0  0  0  0  0  0  0  0  0  0  0
    5.5257   -1.8978    4.7759 H   0  0  0  0  0  0  0  0  0  0  0  0
    5.2779    1.2168    2.3761 H   0  0  0  0  0  0  0  0  0  0  0  0
    2.8358    1.1541    1.7891 H   0  0  0  0  0  0  0  0  0  0  0  0
    3.8372    0.2982    0.5973 H   0  0  0  0  0  0  0  0  0  0  0  0
    2.3729   -1.7224    0.8396 H   0  0  0  0  0  0  0  0  0  0  0  0
    1.3341   -0.8153    1.9716 H   0  0  0  0  0  0  0  0  0  0  0  0
    0.3897   -2.5474    0.7258 H   0  0  0  0  0  0  0  0  0  0  0  0
   -0.6620   -2.7973   -0.6252 H   0  0  0  0  0  0  0  0  0  0  0  0
   -1.1293    0.0701    2.0643 H   0  0  0  0  0  0  0  0  0  0  0  0
   -3.3475   -0.2470    3.4560 H   0  0  0  0  0  0  0  0  0  0  0  0
   -4.5401   -2.5184    2.8383 H   0  0  0  0  0  0  0  0  0  0  0  0
    0.1336    0.1454   -2.3153 H   0  0  0  0  0  0  0  0  0  0  0  0
   -1.8235    1.3455   -3.2599 H   0  0  0  0  0  0  0  0  0  0  0  0
   -2.5153    3.4494   -1.2723 H   0  0  0  0  0  0  0  0  0  0  0  0
   -4.4349    1.6222   -2.7933 H   0  0  0  0  0  0  0  0  0  0  0  0
   -4.5222    2.1204   -1.1032 H   0  0  0  0  0  0  0  0  0  0  0  0
   -5.8346    3.3797   -3.2569 H   0  0  0  0  0  0  0  0  0  0  0  0
   -5.5455    4.1533   -1.6968 H   0  0  0  0  0  0  0  0  0  0  0  0
   -4.4319    5.0422   -4.1450 H   0  0  0  0  0  0  0  0  0  0  0  0
   -3.8779    5.4876   -2.5245 H   0  0  0  0  0  0  0  0  0  0  0  0
   -1.8876    4.4828   -3.4034 H   0  0  0  0  0  0  0  0  0  0  0  0
   -2.8094    3.2851   -4.3257 H   0  0  0  0  0  0  0  0  0  0  0  0
    0.2299   -1.8253   -3.6836 H   0  0  0  0  0  0  0  0  0  0  0  0
   -1.0575   -3.4422   -5.0332 H   0  0  0  0  0  0  0  0  0  0  0  0
   -3.4716   -3.7978   -4.5893 H   0  0  0  0  0  0  0  0  0  0  0  0
   -4.5997   -2.5279   -2.7802 H   0  0  0  0  0  0  0  0  0  0  0  0
   -3.3419   -0.9136   -1.4198 H   0  0  0  0  0  0  0  0  0  0  0  0
  1  2  1  0
  2  3  2  0
  3  4  1  0
  4  5  1  0
  5  6  1  0
  6  7  2  0
  6  8  1  0
  8  9  1  0
  9 10  1  0
 10 11  2  0
 10 12  1  0
 12 13  1  0
 13 14  1  0
 14 15  2  0
 15 16  1  0
 16 17  2  0
 17 18  1  0
 12 19  1  0
 19 20  1  0
 20 21  2  0
 20 22  1  0
 22 23  1  0
 23 24  1  0
 24 25  1  0
 25 26  1  0
 26 27  1  0
 19 28  1  0
 28 29  2  0
 29 30  1  0
 30 31  2  0
 31 32  1  0
 32 33  2  0
  4 34  2  0
 34 35  1  0
 35  2  1  0
 18 14  1  0
 27 23  1  0
 33 28  1  0
  1 36  1  0
  1 37  1  0
  1 38  1  0
  3 39  1  0
  5 40  1  0
  8 41  1  0
  8 42  1  0
  9 43  1  0
  9 44  1  0
 13 45  1  0
 13 46  1  0
 15 47  1  0
 16 48  1  0
 17 49  1  0
 19 50  1  0
 22 51  1  0
 23 52  1  0
 24 53  1  0
 24 54  1  0
 25 55  1  0
 25 56  1  0
 26 57  1  0
 26 58  1  0
 27 59  1  0
 27 60  1  0
 29 61  1  0
 30 62  1  0
 31 63  1  0
 32 64  1  0
 33 65  1  0
M  END
$$$$
