
     RDKit          3D

 48 50  0  0  0  0  0  0  0  0999 V2000
    8.3235    1.3535   -1.6467 C   0  0  0  0  0  0  0  0  0  0  0  0
    7.3406    0.5501   -0.8784 C   0  0  0  0  0  0  0  0  0  0  0  0
    7.4956   -0.7584   -0.4598 C   0  0  0  0  0  0  0  0  0  0  0  0
    6.1028   -1.2646    0.3989 S   0  0  0  0  0  0  0  0  0  0  0  0
    5.4048    0.2663    0.1473 C   0  0  0  0  0  0  0  0  0  0  0  0
    4.1553    0.6110    0.5950 N   0  0  0  0  0  0  0  0  0  0  0  0
    3.2817   -0.1691    1.3207 C   0  0  0  0  0  0  0  0  0  0  0  0
    3.4577   -1.3198    1.7054 O   0  0  0  0  0  0  0  0  0  0  0  0
    1.9848    0.5742    1.6013 C   0  0  0  0  0  0  0  0  0  0  0  0
    1.0547   -0.1952    2.5320 C   0  0  0  0  0  0  0  0  0  0  0  0
    0.5125   -1.3763    1.8434 N   0  0  0  0  0  0  0  0  0  0  0  0
   -0.9171   -2.0471    2.4158 S   0  0  0  0  0  6  0  0  0  0  0  0
   -0.9644   -3.4132    1.9499 O   0  0  0  0  0  0  0  0  0  0  0  0
   -1.0580   -1.7044    3.8135 O   0  0  0  0  0  0  0  0  0  0  0  0
   -2.1243   -1.1346    1.4872 C   0  0  0  0  0  0  0  0  0  0  0  0
   -2.9298   -0.1893    2.1201 C   0  0  0  0  0  0  0  0  0  0  0  0
   -3.8927    0.5055    1.3789 C   0  0  0  0  0  0  0  0  0  0  0  0
   -4.0643    0.2621    0.0044 C   0  0  0  0  0  0  0  0  0  0  0  0
   -3.2467   -0.6906   -0.6048 C   0  0  0  0  0  0  0  0  0  0  0  0
   -2.2797   -1.3964    0.1268 C   0  0  0  0  0  0  0  0  0  0  0  0
   -3.4013   -0.9581   -2.0417 C   0  0  0  0  0  0  0  0  0  0  0  0
   -2.6249   -1.7375   -2.5889 O   0  0  0  0  0  0  0  0  0  0  0  0
   -4.4218   -0.2856   -2.6948 N   0  0  0  0  0  0  0  0  0  0  0  0
   -4.6150   -0.5453   -4.1116 C   0  0  0  0  0  0  0  0  0  0  0  0
   -5.2162    0.7038   -2.1290 C   0  0  0  0  0  0  0  0  0  0  0  0
   -6.0378    1.3313   -2.8052 O   0  0  0  0  0  0  0  0  0  0  0  0
   -5.0318    0.9547   -0.7712 N   0  0  0  0  0  0  0  0  0  0  0  0
   -5.8720    1.9657   -0.1414 C   0  0  0  0  0  0  0  0  0  0  0  0
    6.1331    1.1290   -0.5203 N   0  0  0  0  0  0  0  0  0  0  0  0
    7.8799    2.2949   -1.9877 H   0  0  0  0  0  0  0  0  0  0  0  0
    8.6691    0.8021   -2.5261 H   0  0  0  0  0  0  0  0  0  0  0  0
    9.1890    1.5928   -1.0228 H   0  0  0  0  0  0  0  0  0  0  0  0
    8.3350   -1.4211   -0.6098 H   0  0  0  0  0  0  0  0  0  0  0  0
    3.9005    1.5545    0.3379 H   0  0  0  0  0  0  0  0  0  0  0  0
    1.4874    0.7758    0.6443 H   0  0  0  0  0  0  0  0  0  0  0  0
    2.2372    1.5338    2.0681 H   0  0  0  0  0  0  0  0  0  0  0  0
    1.5854   -0.5178    3.4346 H   0  0  0  0  0  0  0  0  0  0  0  0
    0.2377    0.4726    2.8261 H   0  0  0  0  0  0  0  0  0  0  0  0
    1.2012   -2.0990    1.6018 H   0  0  0  0  0  0  0  0  0  0  0  0
   -2.8214    0.0115    3.1839 H   0  0  0  0  0  0  0  0  0  0  0  0
   -4.5017    1.2321    1.9104 H   0  0  0  0  0  0  0  0  0  0  0  0
   -1.6572   -2.1454   -0.3611 H   0  0  0  0  0  0  0  0  0  0  0  0
   -4.2550    0.3207   -4.6775 H   0  0  0  0  0  0  0  0  0  0  0  0
   -5.6814   -0.6786   -4.3198 H   0  0  0  0  0  0  0  0  0  0  0  0
   -4.0809   -1.4372   -4.4460 H   0  0  0  0  0  0  0  0  0  0  0  0
   -6.4683    1.4989    0.6495 H   0  0  0  0  0  0  0  0  0  0  0  0
   -6.5656    2.4297   -0.8484 H   0  0  0  0  0  0  0  0  0  0  0  0
   -5.2399    2.7581    0.2731 H   0  0  0  0  0  0  0  0  0  0  0  0
  1  2  1  0
  2  3  2  0
  3  4  1  0
  4  5  1  0
  5  6  1  0
  6  7  1  0
  7  8  2  0
  7  9  1  0
  9 10  1  0
 10 11  1  0
 11 12  1  0
 12 13  2  0
 12 14  2  0
 12 15  1  0
 15 16  2  0
 16 17  1  0
 17 18  2  0
 18 19  1  0
 19 20  2  0
 19 21  1  0
 21 22  2  0
 21 23  1  0
 23 24  1  0
 23 25  1  0
 25 26  2  0
 25 27  1  0
 27 28  1  0
  5 29  2  0
 29  2  1  0
 20 15  1  0
 27 18  1  0
  1 30  1  0
  1 31  1  0
  1 32  1  0
  3 33  1  0
  6 34  1  0
  9 35  1  0
  9 36  1  0
 10 37  1  0
 10 38  1  0
 11 39  1  0
 16 40  1  0
 17 41  1  0
 20 42  1  0
 24 43  1  0
 24 44  1  0
 24 45  1  0
 28 46  1  0
 28 47  1  0
 28 48  1  0
M  END
$$$$
