
     RDKit          3D

 67 72  0  0  0  0  0  0  0  0999 V2000
   -5.0851   -3.6369   -2.1288 C   0  0  0  0  0  0  0  0  0  0  0  0
   -4.0762   -3.1107   -1.1526 C   0  0  0  0  0  0  0  0  0  0  0  0
   -4.0416   -3.5536    0.1822 C   0  0  0  0  0  0  0  0  0  0  0  0
   -5.1569   -4.7422    0.7644 Cl  0  0  0  0  0  0  0  0  0  0  0  0
   -3.1075   -3.0435    1.1040 C   0  0  0  0  0  0  0  0  0  0  0  0
   -2.1798   -2.0734    0.7221 C   0  0  0  0  0  0  0  0  0  0  0  0
   -2.1971   -1.6288   -0.5902 C   0  0  0  0  0  0  0  0  0  0  0  0
   -3.1428   -2.1389   -1.4968 C   0  0  0  0  0  0  0  0  0  0  0  0
   -2.9932   -1.5145   -2.7331 N   0  0  0  0  0  0  0  0  0  0  0  0
   -1.9759   -0.5583   -2.7176 C   0  0  0  0  0  0  0  0  0  0  0  0
   -1.6685    0.1338   -3.6772 O   0  0  0  0  0  0  0  0  0  0  0  0
   -1.3495   -0.6014   -1.2990 C   0  0  1  0  0  0  0  0  0  0  0  0
   -1.4455    0.6734   -0.5577 C   0  0  0  0  0  0  0  0  0  0  0  0
   -0.1965    1.0747   -0.0739 C   0  0  0  0  0  0  0  0  0  0  0  0
   -0.3450    2.2528    0.6095 C   0  0  0  0  0  0  0  0  0  0  0  0
    0.5684    3.0172    1.2025 O   0  0  0  0  0  0  0  0  0  0  0  0
   -1.7044    2.6169    0.5181 N   0  0  0  0  0  0  0  0  0  0  0  0
   -2.2873    3.8370    0.9862 C   0  0  0  0  0  0  0  0  0  0  0  0
   -1.7894    4.4744    2.1291 C   0  0  0  0  0  0  0  0  0  0  0  0
   -2.3716    5.6612    2.5824 C   0  0  0  0  0  0  0  0  0  0  0  0
   -3.4445    6.2241    1.8942 C   0  0  0  0  0  0  0  0  0  0  0  0
   -3.9344    5.6062    0.7459 C   0  0  0  0  0  0  0  0  0  0  0  0
   -3.3578    4.4187    0.2890 C   0  0  0  0  0  0  0  0  0  0  0  0
   -2.3879    1.5756   -0.1436 C   0  0  0  0  0  0  0  0  0  0  0  0
   -3.7116    1.4893   -0.2686 O   0  0  0  0  0  0  0  0  0  0  0  0
    0.8632    0.1070   -0.4447 C   0  0  1  0  0  0  0  0  0  0  0  0
    1.4738   -0.6058    0.7834 C   0  0  0  0  0  0  0  0  0  0  0  0
    2.1538   -1.8341    0.3780 N   0  0  0  0  0  0  0  0  0  0  0  0
    3.5009   -1.8496    0.0513 C   0  0  0  0  0  0  0  0  0  0  0  0
    4.0378   -2.7647   -0.5581 O   0  0  0  0  0  0  0  0  0  0  0  0
    4.1406   -0.7302    0.4772 O   0  0  0  0  0  0  0  0  0  0  0  0
    5.5568   -0.5362    0.2276 C   0  0  0  0  0  0  0  0  0  0  0  0
    6.3996   -1.6054    0.9314 C   0  0  0  0  0  0  0  0  0  0  0  0
    5.8535   -0.4651   -1.2745 C   0  0  0  0  0  0  0  0  0  0  0  0
    5.8752    0.8307    0.8533 C   0  0  0  0  0  0  0  0  0  0  0  0
    1.2737   -2.7873   -0.2906 C   0  0  0  0  0  0  0  0  0  0  0  0
    0.6649   -2.1499   -1.5570 C   0  0  0  0  0  0  0  0  0  0  0  0
    0.1201   -0.8113   -1.3629 N   0  0  0  0  0  0  0  0  0  0  0  0
   -6.0907   -3.3099   -1.8449 H   0  0  0  0  0  0  0  0  0  0  0  0
   -5.0545   -4.7311   -2.1618 H   0  0  0  0  0  0  0  0  0  0  0  0
   -4.9002   -3.2904   -3.1493 H   0  0  0  0  0  0  0  0  0  0  0  0
   -3.1108   -3.3993    2.1324 H   0  0  0  0  0  0  0  0  0  0  0  0
   -1.4813   -1.6715    1.4474 H   0  0  0  0  0  0  0  0  0  0  0  0
   -3.5617   -1.6623   -3.5523 H   0  0  0  0  0  0  0  0  0  0  0  0
    1.4484    2.6721    0.9732 H   0  0  0  0  0  0  0  0  0  0  0  0
   -0.9689    4.0526    2.7036 H   0  0  0  0  0  0  0  0  0  0  0  0
   -1.9845    6.1465    3.4749 H   0  0  0  0  0  0  0  0  0  0  0  0
   -3.8895    7.1509    2.2470 H   0  0  0  0  0  0  0  0  0  0  0  0
   -4.7550    6.0586    0.1942 H   0  0  0  0  0  0  0  0  0  0  0  0
   -3.7241    3.9966   -0.6451 H   0  0  0  0  0  0  0  0  0  0  0  0
   -4.1285    2.0644    0.3982 H   0  0  0  0  0  0  0  0  0  0  0  0
    1.6548    0.5982   -1.0226 H   0  0  0  0  0  0  0  0  0  0  0  0
    2.1508    0.0714    1.3148 H   0  0  0  0  0  0  0  0  0  0  0  0
    0.6991   -0.8917    1.5046 H   0  0  0  0  0  0  0  0  0  0  0  0
    6.2646   -2.5945    0.4833 H   0  0  0  0  0  0  0  0  0  0  0  0
    7.4676   -1.3672    0.8816 H   0  0  0  0  0  0  0  0  0  0  0  0
    6.1113   -1.6960    1.9847 H   0  0  0  0  0  0  0  0  0  0  0  0
    5.1755    0.2383   -1.7713 H   0  0  0  0  0  0  0  0  0  0  0  0
    6.8849   -0.1471   -1.4625 H   0  0  0  0  0  0  0  0  0  0  0  0
    5.7163   -1.4330   -1.7658 H   0  0  0  0  0  0  0  0  0  0  0  0
    6.9304    1.0974    0.7331 H   0  0  0  0  0  0  0  0  0  0  0  0
    5.2647    1.6191    0.3978 H   0  0  0  0  0  0  0  0  0  0  0  0
    5.6364    0.8349    1.9230 H   0  0  0  0  0  0  0  0  0  0  0  0
    0.4904   -3.0718    0.4187 H   0  0  0  0  0  0  0  0  0  0  0  0
    1.8194   -3.6984   -0.5578 H   0  0  0  0  0  0  0  0  0  0  0  0
   -0.0660   -2.8318   -2.0063 H   0  0  0  0  0  0  0  0  0  0  0  0
    1.4685   -2.0563   -2.2990 H   0  0  0  0  0  0  0  0  0  0  0  0
  1  2  1  0
  2  3  2  0
  3  4  1  0
  3  5  1  0
  5  6  2  0
  6  7  1  0
  7  8  2  0
  8  9  1  0
  9 10  1  0
 10 11  2  0
 10 12  1  0
 12 13  1  0
 13 14  1  0
 14 15  2  0
 15 16  1  0
 15 17  1  0
 17 18  1  0
 18 19  2  0
 19 20  1  0
 20 21  2  0
 21 22  1  0
 22 23  2  0
 17 24  1  0
 24 25  1  0
 14 26  1  0
 26 27  1  0
 27 28  1  0
 28 29  1  0
 29 30  2  0
 29 31  1  0
 31 32  1  0
 32 33  1  0
 32 34  1  0
 32 35  1  0
 28 36  1  0
 36 37  1  0
 37 38  1  0
  8  2  1  0
 12 38  1  6
 12  7  1  0
 24 13  2  0
 38 26  1  0
 23 18  1  0
  1 39  1  0
  1 40  1  0
  1 41  1  0
  5 42  1  0
  6 43  1  0
  9 44  1  0
 16 45  1  0
 19 46  1  0
 20 47  1  0
 21 48  1  0
 22 49  1  0
 23 50  1  0
 25 51  1  0
 26 52  1  6
 27 53  1  0
 27 54  1  0
 33 55  1  0
 33 56  1  0
 33 57  1  0
 34 58  1  0
 34 59  1  0
 34 60  1  0
 35 61  1  0
 35 62  1  0
 35 63  1  0
 36 64  1  0
 36 65  1  0
 37 66  1  0
 37 67  1  0
M  END
$$$$
