
     RDKit          3D

 58 60  0  0  0  0  0  0  0  0999 V2000
    8.4218    3.5055   -0.0678 C   0  0  0  0  0  0  0  0  0  0  0  0
    7.1407    3.1933    0.5879 C   0  0  0  0  0  0  0  0  0  0  0  0
    6.0287    2.4729    0.2290 C   0  0  0  0  0  0  0  0  0  0  0  0
    5.1621    2.5809    1.3380 C   0  0  0  0  0  0  0  0  0  0  0  0
    3.9048    2.0505    1.5249 N   0  0  0  0  0  0  0  0  0  0  0  0
    3.2278    1.2711    0.6159 C   0  0  0  0  0  0  0  0  0  0  0  0
    3.6385    0.9331   -0.4895 O   0  0  0  0  0  0  0  0  0  0  0  0
    1.8651    0.8570    1.1327 C   0  0  0  0  0  0  0  0  0  0  0  0
    1.1393   -0.0487    0.1419 C   0  0  0  0  0  0  0  0  0  0  0  0
   -0.1921   -0.5187    0.6930 C   0  0  0  0  0  0  0  0  0  0  0  0
   -0.6683   -0.0160    1.7141 O   0  0  0  0  0  0  0  0  0  0  0  0
   -0.8659   -1.5107   -0.0031 N   0  0  0  0  0  0  0  0  0  0  0  0
   -2.1394   -1.9942    0.5512 C   0  0  0  0  0  0  0  0  0  0  0  0
   -3.3334   -1.1568    0.0807 C   0  0  0  0  0  0  0  0  0  0  0  0
   -4.3020   -1.6581   -0.4840 O   0  0  0  0  0  0  0  0  0  0  0  0
   -3.2413    0.1840    0.3948 N   0  0  0  0  0  0  0  0  0  0  0  0
   -4.3461    1.0908    0.1887 C   0  0  0  0  0  0  0  0  0  0  0  0
   -3.9152    2.5517    0.2217 C   0  0  0  0  0  0  0  0  0  0  0  0
   -5.2299    3.2811    0.4397 C   0  0  0  0  0  0  0  0  0  0  0  0
   -5.9844    2.4063    1.4356 C   0  0  0  0  0  0  0  0  0  0  0  0
   -5.4064    0.9969    1.2898 C   0  0  0  0  0  0  0  0  0  0  0  0
   -0.5678   -1.8942   -1.3868 C   0  0  0  0  0  0  0  0  0  0  0  0
   -0.3041   -3.3744   -1.5379 C   0  0  0  0  0  0  0  0  0  0  0  0
   -1.1943   -4.1840   -2.2632 C   0  0  0  0  0  0  0  0  0  0  0  0
   -0.9533   -5.5519   -2.4004 C   0  0  0  0  0  0  0  0  0  0  0  0
    0.1760   -6.1117   -1.8158 C   0  0  0  0  0  0  0  0  0  0  0  0
    0.4058   -7.4248   -1.9475 F   0  0  0  0  0  0  0  0  0  0  0  0
    1.0683   -5.3299   -1.0929 C   0  0  0  0  0  0  0  0  0  0  0  0
    0.8294   -3.9618   -0.9528 C   0  0  0  0  0  0  0  0  0  0  0  0
    5.7144    3.3209    2.3059 N   0  0  0  0  0  0  0  0  0  0  0  0
    6.9567    3.7031    1.8336 O   0  0  0  0  0  0  0  0  0  0  0  0
    8.4860    3.0301   -1.0512 H   0  0  0  0  0  0  0  0  0  0  0  0
    8.5296    4.5856   -0.2040 H   0  0  0  0  0  0  0  0  0  0  0  0
    9.2601    3.1483    0.5376 H   0  0  0  0  0  0  0  0  0  0  0  0
    5.8729    1.9456   -0.7005 H   0  0  0  0  0  0  0  0  0  0  0  0
    3.4922    2.2821    2.4185 H   0  0  0  0  0  0  0  0  0  0  0  0
    1.2760    1.7632    1.3182 H   0  0  0  0  0  0  0  0  0  0  0  0
    1.9991    0.3375    2.0894 H   0  0  0  0  0  0  0  0  0  0  0  0
    0.9576    0.5024   -0.7879 H   0  0  0  0  0  0  0  0  0  0  0  0
    1.7629   -0.9218   -0.0785 H   0  0  0  0  0  0  0  0  0  0  0  0
   -2.2964   -3.0384    0.2657 H   0  0  0  0  0  0  0  0  0  0  0  0
   -2.1117   -1.9592    1.6466 H   0  0  0  0  0  0  0  0  0  0  0  0
   -2.5157    0.4404    1.0652 H   0  0  0  0  0  0  0  0  0  0  0  0
   -4.8103    0.8640   -0.7800 H   0  0  0  0  0  0  0  0  0  0  0  0
   -3.4146    2.8604   -0.7006 H   0  0  0  0  0  0  0  0  0  0  0  0
   -3.2307    2.7441    1.0568 H   0  0  0  0  0  0  0  0  0  0  0  0
   -5.7887    3.3378   -0.5025 H   0  0  0  0  0  0  0  0  0  0  0  0
   -5.0865    4.3012    0.8081 H   0  0  0  0  0  0  0  0  0  0  0  0
   -5.8244    2.7685    2.4580 H   0  0  0  0  0  0  0  0  0  0  0  0
   -7.0626    2.4258    1.2458 H   0  0  0  0  0  0  0  0  0  0  0  0
   -6.1819    0.2671    1.0330 H   0  0  0  0  0  0  0  0  0  0  0  0
   -4.9674    0.6785    2.2440 H   0  0  0  0  0  0  0  0  0  0  0  0
   -1.4200   -1.5849   -2.0041 H   0  0  0  0  0  0  0  0  0  0  0  0
    0.2945   -1.3524   -1.7840 H   0  0  0  0  0  0  0  0  0  0  0  0
   -2.0869   -3.7569   -2.7179 H   0  0  0  0  0  0  0  0  0  0  0  0
   -1.6394   -6.1834   -2.9562 H   0  0  0  0  0  0  0  0  0  0  0  0
    1.9404   -5.7905   -0.6410 H   0  0  0  0  0  0  0  0  0  0  0  0
    1.5308   -3.3585   -0.3818 H   0  0  0  0  0  0  0  0  0  0  0  0
  1  2  1  0
  2  3  2  0
  3  4  1  0
  4  5  1  0
  5  6  1  0
  6  7  2  0
  6  8  1  0
  8  9  1  0
  9 10  1  0
 10 11  2  0
 10 12  1  0
 12 13  1  0
 13 14  1  0
 14 15  2  0
 14 16  1  0
 16 17  1  0
 17 18  1  0
 18 19  1  0
 19 20  1  0
 20 21  1  0
 12 22  1  0
 22 23  1  0
 23 24  2  0
 24 25  1  0
 25 26  2  0
 26 27  1  0
 26 28  1  0
 28 29  2  0
  4 30  2  0
 30 31  1  0
 31  2  1  0
 21 17  1  0
 29 23  1  0
  1 32  1  0
  1 33  1  0
  1 34  1  0
  3 35  1  0
  5 36  1  0
  8 37  1  0
  8 38  1  0
  9 39  1  0
  9 40  1  0
 13 41  1  0
 13 42  1  0
 16 43  1  0
 17 44  1  0
 18 45  1  0
 18 46  1  0
 19 47  1  0
 19 48  1  0
 20 49  1  0
 20 50  1  0
 21 51  1  0
 21 52  1  0
 22 53  1  0
 22 54  1  0
 24 55  1  0
 25 56  1  0
 28 57  1  0
 29 58  1  0
M  END
$$$$
