
     RDKit          3D

 46 48  0  0  0  0  0  0  0  0999 V2000
   -2.7540   -1.2266   -2.0929 C   0  0  0  0  0  0  0  0  0  0  0  0
   -2.7886    0.1065   -2.2323 C   0  0  0  0  0  0  0  0  0  0  0  0
   -2.5103    1.1625   -1.1953 C   0  0  0  0  0  0  0  0  0  0  0  0
   -2.2739    0.6694    0.1490 N   0  0  0  0  0  0  0  0  0  0  0  0
   -1.0674    0.3857    0.7332 C   0  0  0  0  0  0  0  0  0  0  0  0
    0.4630    0.6206   -0.0340 S   0  0  0  0  0  0  0  0  0  0  0  0
    1.5772   -0.0143    1.2558 C   0  0  0  0  0  0  0  0  0  0  0  0
    3.0198    0.0684    0.8171 C   0  0  0  0  0  0  0  0  0  0  0  0
    3.6117   -0.9910    0.1140 C   0  0  0  0  0  0  0  0  0  0  0  0
    4.9428   -0.9109   -0.3070 C   0  0  0  0  0  0  0  0  0  0  0  0
    5.7014    0.2340   -0.0320 C   0  0  0  0  0  0  0  0  0  0  0  0
    7.1218    0.3729   -0.4548 C   0  0  0  0  0  0  0  0  0  0  0  0
    7.7911    1.3742   -0.2525 O   0  0  0  0  0  0  0  0  0  0  0  0
    7.5498   -0.7540   -1.0783 O   0  0  0  0  0  0  0  0  0  0  0  0
    8.9118   -0.6986   -1.5044 C   0  0  0  0  0  0  0  0  0  0  0  0
    5.1111    1.2971    0.6633 C   0  0  0  0  0  0  0  0  0  0  0  0
    3.7804    1.2161    1.0824 C   0  0  0  0  0  0  0  0  0  0  0  0
   -1.2574   -0.1081    1.9336 N   0  0  0  0  0  0  0  0  0  0  0  0
   -2.6112   -0.1573    2.1544 N   0  0  0  0  0  0  0  0  0  0  0  0
   -3.2201    0.3330    1.0926 C   0  0  0  0  0  0  0  0  0  0  0  0
   -4.6409    0.4046    0.9660 C   0  0  0  0  0  0  0  0  0  0  0  0
   -5.4792    1.8832    0.7547 S   0  0  0  0  0  0  0  0  0  0  0  0
   -6.9671    1.0354    0.7371 C   0  0  0  0  0  0  0  0  0  0  0  0
   -8.1383    1.6754    0.5788 N   0  0  0  0  0  0  0  0  0  0  0  0
   -6.8806   -0.2583    0.9075 N   0  0  0  0  0  0  0  0  0  0  0  0
   -5.5533   -0.6336    1.0658 C   0  0  0  0  0  0  0  0  0  0  0  0
   -5.2516   -2.0692    1.3129 C   0  0  0  0  0  0  0  0  0  0  0  0
   -2.9812   -1.8739   -2.9364 H   0  0  0  0  0  0  0  0  0  0  0  0
   -2.5000   -1.7194   -1.1594 H   0  0  0  0  0  0  0  0  0  0  0  0
   -3.0485    0.5002   -3.2147 H   0  0  0  0  0  0  0  0  0  0  0  0
   -3.3504    1.8603   -1.1570 H   0  0  0  0  0  0  0  0  0  0  0  0
   -1.6474    1.7599   -1.5063 H   0  0  0  0  0  0  0  0  0  0  0  0
    1.4403    0.5603    2.1794 H   0  0  0  0  0  0  0  0  0  0  0  0
    1.3233   -1.0561    1.4828 H   0  0  0  0  0  0  0  0  0  0  0  0
    3.0373   -1.8879   -0.1120 H   0  0  0  0  0  0  0  0  0  0  0  0
    5.3718   -1.7484   -0.8503 H   0  0  0  0  0  0  0  0  0  0  0  0
    9.0475    0.0916   -2.2501 H   0  0  0  0  0  0  0  0  0  0  0  0
    9.1618   -1.6580   -1.9662 H   0  0  0  0  0  0  0  0  0  0  0  0
    9.5765   -0.5445   -0.6484 H   0  0  0  0  0  0  0  0  0  0  0  0
    5.6860    2.1952    0.8822 H   0  0  0  0  0  0  0  0  0  0  0  0
    3.3416    2.0556    1.6178 H   0  0  0  0  0  0  0  0  0  0  0  0
   -8.1744    2.6409    0.8820 H   0  0  0  0  0  0  0  0  0  0  0  0
   -8.9460    1.1358    0.8724 H   0  0  0  0  0  0  0  0  0  0  0  0
   -4.8610   -2.2085    2.3255 H   0  0  0  0  0  0  0  0  0  0  0  0
   -6.1535   -2.6808    1.2108 H   0  0  0  0  0  0  0  0  0  0  0  0
   -4.5119   -2.4393    0.5968 H   0  0  0  0  0  0  0  0  0  0  0  0
  1  2  2  0
  2  3  1  0
  3  4  1  0
  4  5  1  0
  5  6  1  0
  6  7  1  0
  7  8  1  0
  8  9  2  0
  9 10  1  0
 10 11  2  0
 11 12  1  0
 12 13  2  0
 12 14  1  0
 14 15  1  0
 11 16  1  0
 16 17  2  0
  5 18  2  0
 18 19  1  0
 19 20  2  0
 20 21  1  0
 21 22  1  0
 22 23  1  0
 23 24  1  0
 23 25  2  0
 25 26  1  0
 26 27  1  0
 20  4  1  0
 26 21  2  0
 17  8  1  0
  1 28  1  0
  1 29  1  0
  2 30  1  0
  3 31  1  0
  3 32  1  0
  7 33  1  0
  7 34  1  0
  9 35  1  0
 10 36  1  0
 15 37  1  0
 15 38  1  0
 15 39  1  0
 16 40  1  0
 17 41  1  0
 24 42  1  0
 24 43  1  0
 27 44  1  0
 27 45  1  0
 27 46  1  0
M  END
$$$$
