
     RDKit          3D

 61 66  0  0  0  0  0  0  0  0999 V2000
    6.6336   -3.6925    3.3372 F   0  0  0  0  0  0  0  0  0  0  0  0
    6.4155   -2.6030    2.5885 C   0  0  0  0  0  0  0  0  0  0  0  0
    6.0971   -2.7469    1.2431 C   0  0  0  0  0  0  0  0  0  0  0  0
    5.8718   -1.6114    0.4637 C   0  0  0  0  0  0  0  0  0  0  0  0
    5.9628   -0.3318    1.0320 C   0  0  0  0  0  0  0  0  0  0  0  0
    5.7224    0.8963    0.1870 C   0  0  0  0  0  0  0  0  0  0  0  0
    4.3965    1.6394    0.4414 C   0  0  0  0  0  0  0  0  0  0  0  0
    3.2326    0.9908   -0.1814 N   0  0  0  0  0  0  0  0  0  0  0  0
    2.6669   -0.1109    0.6371 C   0  0  0  0  0  0  0  0  0  0  0  0
    1.2188    0.1014    1.1431 C   0  0  0  0  0  0  0  0  0  0  0  0
    0.3044    0.3966    0.0208 N   0  0  0  0  0  0  0  0  0  0  0  0
   -1.0195    0.5778    0.3179 C   0  0  0  0  0  0  0  0  0  0  0  0
   -1.5794    1.3968    1.2807 C   0  0  0  0  0  0  0  0  0  0  0  0
   -2.9795    1.3627    1.1224 C   0  0  0  0  0  0  0  0  0  0  0  0
   -3.2645    0.4797    0.0956 C   0  0  0  0  0  0  0  0  0  0  0  0
   -4.5153    0.0728   -0.5134 C   0  0  0  0  0  0  0  0  0  0  0  0
   -5.8108    0.6031   -0.0187 C   0  0  0  0  0  0  0  0  0  0  0  0
   -6.7236    1.1261   -0.9444 C   0  0  0  0  0  0  0  0  0  0  0  0
   -7.9512    1.6228   -0.5056 C   0  0  0  0  0  0  0  0  0  0  0  0
   -8.2716    1.5855    0.8521 C   0  0  0  0  0  0  0  0  0  0  0  0
   -7.3734    1.0392    1.7739 C   0  0  0  0  0  0  0  0  0  0  0  0
   -6.1451    0.5393    1.3402 C   0  0  0  0  0  0  0  0  0  0  0  0
   -4.5336   -0.7495   -1.5207 N   0  0  0  0  0  0  0  0  0  0  0  0
   -3.3220   -1.3032   -1.9770 C   0  0  0  0  0  0  0  0  0  0  0  0
   -3.3922   -2.2356   -3.0168 C   0  0  0  0  0  0  0  0  0  0  0  0
   -2.2394   -2.8541   -3.5007 C   0  0  0  0  0  0  0  0  0  0  0  0
   -1.0020   -2.5507   -2.9369 C   0  0  0  0  0  0  0  0  0  0  0  0
   -0.9116   -1.6226   -1.8961 C   0  0  0  0  0  0  0  0  0  0  0  0
   -2.0656   -0.9871   -1.4281 C   0  0  0  0  0  0  0  0  0  0  0  0
   -2.0639   -0.0252   -0.3850 N   0  0  0  0  0  0  0  0  0  0  0  0
    0.8690    1.3209   -0.9988 C   0  0  0  0  0  0  0  0  0  0  0  0
    2.1872    1.9768   -0.5283 C   0  0  0  0  0  0  0  0  0  0  0  0
    6.2855   -0.2084    2.3931 C   0  0  0  0  0  0  0  0  0  0  0  0
    6.5106   -1.3455    3.1706 C   0  0  0  0  0  0  0  0  0  0  0  0
    6.0283   -3.7385    0.8100 H   0  0  0  0  0  0  0  0  0  0  0  0
    5.6155   -1.7278   -0.5886 H   0  0  0  0  0  0  0  0  0  0  0  0
    6.5500    1.5923    0.3769 H   0  0  0  0  0  0  0  0  0  0  0  0
    5.8050    0.6432   -0.8767 H   0  0  0  0  0  0  0  0  0  0  0  0
    4.2290    1.8207    1.5104 H   0  0  0  0  0  0  0  0  0  0  0  0
    4.5274    2.6304   -0.0175 H   0  0  0  0  0  0  0  0  0  0  0  0
    3.2872   -0.3334    1.5113 H   0  0  0  0  0  0  0  0  0  0  0  0
    2.6797   -1.0101    0.0076 H   0  0  0  0  0  0  0  0  0  0  0  0
    0.8849   -0.8125    1.6535 H   0  0  0  0  0  0  0  0  0  0  0  0
    1.2098    0.9163    1.8813 H   0  0  0  0  0  0  0  0  0  0  0  0
   -1.0282    2.0081    1.9824 H   0  0  0  0  0  0  0  0  0  0  0  0
   -3.6958    1.9413    1.6914 H   0  0  0  0  0  0  0  0  0  0  0  0
   -6.4790    1.1456   -2.0042 H   0  0  0  0  0  0  0  0  0  0  0  0
   -8.6590    2.0332   -1.2234 H   0  0  0  0  0  0  0  0  0  0  0  0
   -9.2294    1.9717    1.1912 H   0  0  0  0  0  0  0  0  0  0  0  0
   -7.6343    0.9951    2.8287 H   0  0  0  0  0  0  0  0  0  0  0  0
   -5.4651    0.0875    2.0606 H   0  0  0  0  0  0  0  0  0  0  0  0
   -4.3605   -2.4846   -3.4431 H   0  0  0  0  0  0  0  0  0  0  0  0
   -2.3108   -3.5788   -4.3071 H   0  0  0  0  0  0  0  0  0  0  0  0
   -0.1033   -3.0417   -3.3016 H   0  0  0  0  0  0  0  0  0  0  0  0
    0.0653   -1.4354   -1.4639 H   0  0  0  0  0  0  0  0  0  0  0  0
    0.1546    2.1144   -1.2537 H   0  0  0  0  0  0  0  0  0  0  0  0
    1.0553    0.7521   -1.9180 H   0  0  0  0  0  0  0  0  0  0  0  0
    1.9750    2.6254    0.3337 H   0  0  0  0  0  0  0  0  0  0  0  0
    2.5573    2.6208   -1.3362 H   0  0  0  0  0  0  0  0  0  0  0  0
    6.3659    0.7737    2.8527 H   0  0  0  0  0  0  0  0  0  0  0  0
    6.7646   -1.2589    4.2231 H   0  0  0  0  0  0  0  0  0  0  0  0
  1  2  1  0
  2  3  2  0
  3  4  1  0
  4  5  2  0
  5  6  1  0
  6  7  1  0
  7  8  1  0
  8  9  1  0
  9 10  1  0
 10 11  1  0
 11 12  1  0
 12 13  2  0
 13 14  1  0
 14 15  2  0
 15 16  1  0
 16 17  1  0
 17 18  2  0
 18 19  1  0
 19 20  2  0
 20 21  1  0
 21 22  2  0
 16 23  2  0
 23 24  1  0
 24 25  2  0
 25 26  1  0
 26 27  2  0
 27 28  1  0
 28 29  2  0
 29 30  1  0
 11 31  1  0
 31 32  1  0
  5 33  1  0
 33 34  2  0
 34  2  1  0
 32  8  1  0
 30 12  1  0
 30 15  1  0
 22 17  1  0
 29 24  1  0
  3 35  1  0
  4 36  1  0
  6 37  1  0
  6 38  1  0
  7 39  1  0
  7 40  1  0
  9 41  1  0
  9 42  1  0
 10 43  1  0
 10 44  1  0
 13 45  1  0
 14 46  1  0
 18 47  1  0
 19 48  1  0
 20 49  1  0
 21 50  1  0
 22 51  1  0
 25 52  1  0
 26 53  1  0
 27 54  1  0
 28 55  1  0
 31 56  1  0
 31 57  1  0
 32 58  1  0
 32 59  1  0
 33 60  1  0
 34 61  1  0
M  END
$$$$
