
     RDKit          3D

 43 45  0  0  0  0  0  0  0  0999 V2000
    6.5010    2.1651    2.0070 C   0  0  0  0  0  0  0  0  0  0  0  0
    5.2277    1.5790    1.7330 O   0  0  0  0  0  0  0  0  0  0  0  0
    5.2274    0.7346    0.6714 C   0  0  0  0  0  0  0  0  0  0  0  0
    6.1924    0.4636   -0.0260 O   0  0  0  0  0  0  0  0  0  0  0  0
    3.8705    0.1635    0.4525 C   0  0  0  0  0  0  0  0  0  0  0  0
    2.7735    0.4990    1.2540 C   0  0  0  0  0  0  0  0  0  0  0  0
    1.5224   -0.0697    0.9988 C   0  0  0  0  0  0  0  0  0  0  0  0
    1.3488   -0.9683   -0.0565 C   0  0  0  0  0  0  0  0  0  0  0  0
    0.0781   -1.4502   -0.1940 O   0  0  0  0  0  0  0  0  0  0  0  0
   -0.2516   -2.0422   -1.4413 C   0  0  0  0  0  0  0  0  0  0  0  0
   -1.7538   -2.3137   -1.5879 C   0  0  0  0  0  0  0  0  0  0  0  0
   -2.1035   -3.4058   -2.0600 O   0  0  0  0  0  0  0  0  0  0  0  0
   -2.7044   -1.3859   -1.1432 N   0  0  0  0  0  0  0  0  0  0  0  0
   -4.0038   -1.9756   -0.8083 C   0  0  0  0  0  0  0  0  0  0  0  0
   -5.0686   -1.0036   -0.3289 C   0  0  0  0  0  0  0  0  0  0  0  0
   -4.4712   -0.0738    0.7091 C   0  0  0  0  0  0  0  0  0  0  0  0
   -3.3240    0.6588    0.0702 C   0  0  0  0  0  0  0  0  0  0  0  0
   -3.0921    2.0011    0.4125 C   0  0  0  0  0  0  0  0  0  0  0  0
   -2.0716    2.7181   -0.2029 C   0  0  0  0  0  0  0  0  0  0  0  0
   -1.2929    2.1035   -1.1750 C   0  0  0  0  0  0  0  0  0  0  0  0
   -1.5095    0.7612   -1.5049 C   0  0  0  0  0  0  0  0  0  0  0  0
   -2.4871   -0.0003   -0.8534 C   0  0  0  0  0  0  0  0  0  0  0  0
    2.4414   -1.3135   -0.8510 C   0  0  0  0  0  0  0  0  0  0  0  0
    3.6965   -0.7470   -0.5989 C   0  0  0  0  0  0  0  0  0  0  0  0
    6.8364    2.7680    1.1572 H   0  0  0  0  0  0  0  0  0  0  0  0
    7.2358    1.3907    2.2482 H   0  0  0  0  0  0  0  0  0  0  0  0
    6.3919    2.8211    2.8750 H   0  0  0  0  0  0  0  0  0  0  0  0
    2.8729    1.1991    2.0794 H   0  0  0  0  0  0  0  0  0  0  0  0
    0.6712    0.1970    1.6222 H   0  0  0  0  0  0  0  0  0  0  0  0
    0.2412   -3.0223   -1.4897 H   0  0  0  0  0  0  0  0  0  0  0  0
    0.0853   -1.4535   -2.3005 H   0  0  0  0  0  0  0  0  0  0  0  0
   -3.8229   -2.7318   -0.0324 H   0  0  0  0  0  0  0  0  0  0  0  0
   -4.3810   -2.5119   -1.6881 H   0  0  0  0  0  0  0  0  0  0  0  0
   -5.4487   -0.4238   -1.1804 H   0  0  0  0  0  0  0  0  0  0  0  0
   -5.9179   -1.5541    0.0906 H   0  0  0  0  0  0  0  0  0  0  0  0
   -5.2418    0.6284    1.0473 H   0  0  0  0  0  0  0  0  0  0  0  0
   -4.1115   -0.6286    1.5833 H   0  0  0  0  0  0  0  0  0  0  0  0
   -3.7195    2.4968    1.1500 H   0  0  0  0  0  0  0  0  0  0  0  0
   -1.9014    3.7595    0.0566 H   0  0  0  0  0  0  0  0  0  0  0  0
   -0.5179    2.6679   -1.6877 H   0  0  0  0  0  0  0  0  0  0  0  0
   -0.9165    0.3530   -2.3134 H   0  0  0  0  0  0  0  0  0  0  0  0
    2.3567   -2.0281   -1.6636 H   0  0  0  0  0  0  0  0  0  0  0  0
    4.5422   -1.0253   -1.2261 H   0  0  0  0  0  0  0  0  0  0  0  0
  1  2  1  0
  2  3  1  0
  3  4  2  0
  3  5  1  0
  5  6  2  0
  6  7  1  0
  7  8  2  0
  8  9  1  0
  9 10  1  0
 10 11  1  0
 11 12  2  0
 11 13  1  0
 13 14  1  0
 14 15  1  0
 15 16  1  0
 16 17  1  0
 17 18  2  0
 18 19  1  0
 19 20  2  0
 20 21  1  0
 21 22  2  0
  8 23  1  0
 23 24  2  0
 24  5  1  0
 22 13  1  0
 22 17  1  0
  1 25  1  0
  1 26  1  0
  1 27  1  0
  6 28  1  0
  7 29  1  0
 10 30  1  0
 10 31  1  0
 14 32  1  0
 14 33  1  0
 15 34  1  0
 15 35  1  0
 16 36  1  0
 16 37  1  0
 18 38  1  0
 19 39  1  0
 20 40  1  0
 21 41  1  0
 23 42  1  0
 24 43  1  0
M  END
$$$$
