
     RDKit          3D

 43 46  0  0  0  0  0  0  0  0999 V2000
   -8.1916    0.0180    1.0603 C   0  0  0  0  0  0  0  0  0  0  0  0
   -7.0735   -0.7775    1.4325 O   0  0  0  0  0  0  0  0  0  0  0  0
   -5.9028   -0.5511    0.7633 C   0  0  0  0  0  0  0  0  0  0  0  0
   -4.8301   -1.3428    1.1790 C   0  0  0  0  0  0  0  0  0  0  0  0
   -3.5745   -1.2145    0.5786 C   0  0  0  0  0  0  0  0  0  0  0  0
   -3.3775   -0.2971   -0.4584 C   0  0  0  0  0  0  0  0  0  0  0  0
   -2.0604   -0.1763   -1.0663 C   0  0  0  0  0  0  0  0  0  0  0  0
   -0.9319   -0.0938   -0.2643 N   0  0  0  0  0  0  0  0  0  0  0  0
    0.1401    0.0200   -1.0096 C   0  0  0  0  0  0  0  0  0  0  0  0
    1.3797    0.1353   -0.4475 N   0  0  0  0  0  0  0  0  0  0  0  0
    2.5918    0.2637   -1.0880 C   0  0  0  0  0  0  0  0  0  0  0  0
    2.7857    0.2999   -2.2980 O   0  0  0  0  0  0  0  0  0  0  0  0
    3.6958    0.3590   -0.1047 C   0  0  0  0  0  0  0  0  0  0  0  0
    3.4568    0.3146    1.2547 N   0  0  0  0  0  0  0  0  0  0  0  0
    4.6516    0.4253    1.7898 C   0  0  0  0  0  0  0  0  0  0  0  0
    5.0021    0.4399    3.1092 N   0  0  0  0  0  0  0  0  0  0  0  0
    6.2699    0.5623    3.3541 C   0  0  0  0  0  0  0  0  0  0  0  0
    7.3578    0.6860    2.3449 C   0  0  0  0  0  0  0  0  0  0  0  0
    6.9702    0.6671    1.0571 C   0  0  0  0  0  0  0  0  0  0  0  0
    7.9280    0.7798   -0.0876 C   0  0  0  0  0  0  0  0  0  0  0  0
    5.6054    0.5357    0.7680 N   0  0  0  0  0  0  0  0  0  0  0  0
    4.9894    0.4927   -0.4346 N   0  0  0  0  0  0  0  0  0  0  0  0
   -0.1223    0.0100   -2.6885 S   0  0  0  0  0  0  0  0  0  0  0  0
   -1.8114   -0.1732   -2.4298 C   0  0  0  0  0  0  0  0  0  0  0  0
   -2.7302   -0.3049   -3.5934 C   0  0  0  0  0  0  0  0  0  0  0  0
   -4.4496    0.5074   -0.8630 C   0  0  0  0  0  0  0  0  0  0  0  0
   -5.7071    0.3782   -0.2585 C   0  0  0  0  0  0  0  0  0  0  0  0
   -7.9997    1.0801    1.2451 H   0  0  0  0  0  0  0  0  0  0  0  0
   -8.4713   -0.1582    0.0163 H   0  0  0  0  0  0  0  0  0  0  0  0
   -9.0379   -0.2810    1.6863 H   0  0  0  0  0  0  0  0  0  0  0  0
   -4.9701   -2.0631    1.9813 H   0  0  0  0  0  0  0  0  0  0  0  0
   -2.7501   -1.8344    0.9250 H   0  0  0  0  0  0  0  0  0  0  0  0
    1.3890    0.1255    0.5673 H   0  0  0  0  0  0  0  0  0  0  0  0
    6.6068    0.5797    4.4045 H   0  0  0  0  0  0  0  0  0  0  0  0
    8.3807    0.7826    2.6820 H   0  0  0  0  0  0  0  0  0  0  0  0
    7.8754   -0.1097   -0.7242 H   0  0  0  0  0  0  0  0  0  0  0  0
    8.9626    0.8775    0.2586 H   0  0  0  0  0  0  0  0  0  0  0  0
    7.6992    1.6603   -0.6973 H   0  0  0  0  0  0  0  0  0  0  0  0
   -3.5552   -0.9878   -3.3664 H   0  0  0  0  0  0  0  0  0  0  0  0
   -3.1508    0.6706   -3.8574 H   0  0  0  0  0  0  0  0  0  0  0  0
   -2.2169   -0.7027   -4.4754 H   0  0  0  0  0  0  0  0  0  0  0  0
   -4.3160    1.2563   -1.6396 H   0  0  0  0  0  0  0  0  0  0  0  0
   -6.5070    1.0236   -0.6053 H   0  0  0  0  0  0  0  0  0  0  0  0
  1  2  1  0
  2  3  1  0
  3  4  2  0
  4  5  1  0
  5  6  2  0
  6  7  1  0
  7  8  1  0
  8  9  2  0
  9 10  1  0
 10 11  1  0
 11 12  2  0
 11 13  1  0
 13 14  1  0
 14 15  2  0
 15 16  1  0
 16 17  2  0
 17 18  1  0
 18 19  2  0
 19 20  1  0
 19 21  1  0
 21 22  1  0
  9 23  1  0
 23 24  1  0
 24 25  1  0
  6 26  1  0
 26 27  2  0
 27  3  1  0
 24  7  2  0
 22 13  2  0
 21 15  1  0
  1 28  1  0
  1 29  1  0
  1 30  1  0
  4 31  1  0
  5 32  1  0
 10 33  1  0
 17 34  1  0
 18 35  1  0
 20 36  1  0
 20 37  1  0
 20 38  1  0
 25 39  1  0
 25 40  1  0
 25 41  1  0
 26 42  1  0
 27 43  1  0
M  END
$$$$
