
     RDKit          3D

 43 45  0  0  0  0  0  0  0  0999 V2000
    4.4762    5.1306    0.7029 C   0  0  0  0  0  0  0  0  0  0  0  0
    4.6375    3.7845    1.1263 O   0  0  0  0  0  0  0  0  0  0  0  0
    3.6085    2.9084    0.8927 C   0  0  0  0  0  0  0  0  0  0  0  0
    2.4171    3.2421    0.2441 C   0  0  0  0  0  0  0  0  0  0  0  0
    1.4213    2.2788    0.0501 C   0  0  0  0  0  0  0  0  0  0  0  0
    1.5964    0.9697    0.5100 C   0  0  0  0  0  0  0  0  0  0  0  0
    0.5886   -0.0830    0.3026 C   0  0  0  0  0  0  0  0  0  0  0  0
   -0.7368    0.1310    0.3373 C   0  0  0  0  0  0  0  0  0  0  0  0
   -1.7078   -0.9545    0.1554 C   0  0  0  0  0  0  0  0  0  0  0  0
   -1.8047   -1.9271    1.1528 C   0  0  0  0  0  0  0  0  0  0  0  0
   -2.7325   -2.9466    1.0426 C   0  0  0  0  0  0  0  0  0  0  0  0
   -3.5743   -2.9862   -0.0622 C   0  0  0  0  0  0  0  0  0  0  0  0
   -4.5277   -4.0088   -0.1777 C   0  0  0  0  0  0  0  0  0  0  0  0
   -5.3843   -4.0600   -1.2743 C   0  0  0  0  0  0  0  0  0  0  0  0
   -5.2992   -3.0904   -2.2648 C   0  0  0  0  0  0  0  0  0  0  0  0
   -4.3530   -2.0655   -2.1642 C   0  0  0  0  0  0  0  0  0  0  0  0
   -3.4681   -1.9888   -1.0693 C   0  0  0  0  0  0  0  0  0  0  0  0
   -2.5220   -0.9993   -0.9385 N   0  0  0  0  0  4  0  0  0  0  0  0
   -2.3774    0.0069   -2.0180 C   0  0  0  0  0  0  0  0  0  0  0  0
    2.8001    0.6317    1.1463 C   0  0  0  0  0  0  0  0  0  0  0  0
    3.8035    1.5894    1.3460 C   0  0  0  0  0  0  0  0  0  0  0  0
    5.0021    1.3403    1.9663 O   0  0  0  0  0  0  0  0  0  0  0  0
    5.2490    0.0280    2.4483 C   0  0  0  0  0  0  0  0  0  0  0  0
    3.6298    5.6055    1.2098 H   0  0  0  0  0  0  0  0  0  0  0  0
    4.3711    5.1916   -0.3852 H   0  0  0  0  0  0  0  0  0  0  0  0
    5.3810    5.6798    0.9808 H   0  0  0  0  0  0  0  0  0  0  0  0
    2.2359    4.2453   -0.1280 H   0  0  0  0  0  0  0  0  0  0  0  0
    0.5188    2.5772   -0.4754 H   0  0  0  0  0  0  0  0  0  0  0  0
    0.9931   -1.0819    0.1398 H   0  0  0  0  0  0  0  0  0  0  0  0
   -1.1545    1.1162    0.5294 H   0  0  0  0  0  0  0  0  0  0  0  0
   -1.1600   -1.8877    2.0304 H   0  0  0  0  0  0  0  0  0  0  0  0
   -2.7975   -3.6981    1.8293 H   0  0  0  0  0  0  0  0  0  0  0  0
   -4.6175   -4.7801    0.5876 H   0  0  0  0  0  0  0  0  0  0  0  0
   -6.1215   -4.8582   -1.3531 H   0  0  0  0  0  0  0  0  0  0  0  0
   -5.9740   -3.1327   -3.1191 H   0  0  0  0  0  0  0  0  0  0  0  0
   -4.3447   -1.3377   -2.9705 H   0  0  0  0  0  0  0  0  0  0  0  0
   -1.5288    0.6714   -1.8604 H   0  0  0  0  0  0  0  0  0  0  0  0
   -3.2953    0.6006   -2.0453 H   0  0  0  0  0  0  0  0  0  0  0  0
   -2.2114   -0.5252   -2.9591 H   0  0  0  0  0  0  0  0  0  0  0  0
    2.9410   -0.3876    1.4916 H   0  0  0  0  0  0  0  0  0  0  0  0
    5.2584   -0.6979    1.6287 H   0  0  0  0  0  0  0  0  0  0  0  0
    6.2412    0.0214    2.9097 H   0  0  0  0  0  0  0  0  0  0  0  0
    4.5224   -0.2530    3.2177 H   0  0  0  0  0  0  0  0  0  0  0  0
  1  2  1  0
  2  3  1  0
  3  4  2  0
  4  5  1  0
  5  6  2  0
  6  7  1  0
  7  8  2  3
  8  9  1  0
  9 10  2  0
 10 11  1  0
 11 12  2  0
 12 13  1  0
 13 14  2  0
 14 15  1  0
 15 16  2  0
 16 17  1  0
 17 18  2  0
 18 19  1  0
  6 20  1  0
 20 21  2  0
 21 22  1  0
 22 23  1  0
 21  3  1  0
 18  9  1  0
 17 12  1  0
  1 24  1  0
  1 25  1  0
  1 26  1  0
  4 27  1  0
  5 28  1  0
  7 29  1  0
  8 30  1  0
 10 31  1  0
 11 32  1  0
 13 33  1  0
 14 34  1  0
 15 35  1  0
 16 36  1  0
 19 37  1  0
 19 38  1  0
 19 39  1  0
 20 40  1  0
 23 41  1  0
 23 42  1  0
 23 43  1  0
M  CHG  1  18   1
M  END
$$$$
