
     RDKit          3D

 48 52  0  0  0  0  0  0  0  0999 V2000
   -2.9175   -2.6532    2.2795 C   0  0  0  0  0  0  0  0  0  0  0  0
   -2.4908   -1.7779    1.2110 N   0  0  0  0  0  0  0  0  0  0  0  0
   -1.2010   -1.3706    1.0076 C   0  0  0  0  0  0  0  0  0  0  0  0
   -1.1596   -0.5399   -0.1017 C   0  0  0  0  0  0  0  0  0  0  0  0
    0.0447    0.1276   -0.7330 C   0  0  0  0  0  0  0  0  0  0  0  0
   -0.1906    1.6353   -0.7740 C   0  0  0  0  0  0  0  0  0  0  0  0
   -0.6098    2.3678    0.3427 C   0  0  0  0  0  0  0  0  0  0  0  0
   -0.8044    3.7423    0.2292 C   0  0  0  0  0  0  0  0  0  0  0  0
   -0.5767    4.3636   -0.9904 C   0  0  0  0  0  0  0  0  0  0  0  0
   -0.1664    3.5803   -2.0533 C   0  0  0  0  0  0  0  0  0  0  0  0
    0.0249    2.2454   -1.9764 N   0  0  0  0  0  0  0  0  0  0  0  0
    1.3857   -0.0817   -0.0616 C   0  0  0  0  0  0  0  0  0  0  0  0
    1.7425    0.1403    1.2613 C   0  0  0  0  0  0  0  0  0  0  0  0
    3.0604   -0.1854    1.4253 N   0  0  0  0  0  0  0  0  0  0  0  0
    3.7860   -0.0753    2.6707 C   0  0  0  0  0  0  0  0  0  0  0  0
    3.5963   -0.6279    0.2377 C   0  0  0  0  0  0  0  0  0  0  0  0
    4.8915   -1.0697   -0.0796 C   0  0  0  0  0  0  0  0  0  0  0  0
    5.1515   -1.4570   -1.3966 C   0  0  0  0  0  0  0  0  0  0  0  0
    4.1556   -1.4036   -2.3652 C   0  0  0  0  0  0  0  0  0  0  0  0
    2.8689   -0.9622   -2.0380 C   0  0  0  0  0  0  0  0  0  0  0  0
    2.5740   -0.5683   -0.7140 C   0  0  0  0  0  0  0  0  0  0  0  0
   -2.5110   -0.4883   -0.6038 C   0  0  0  0  0  0  0  0  0  0  0  0
   -3.1167    0.1492   -1.7095 C   0  0  0  0  0  0  0  0  0  0  0  0
   -4.4911    0.0094   -1.9284 C   0  0  0  0  0  0  0  0  0  0  0  0
   -5.2691   -0.7565   -1.0673 C   0  0  0  0  0  0  0  0  0  0  0  0
   -4.6973   -1.4039    0.0311 C   0  0  0  0  0  0  0  0  0  0  0  0
   -3.3163   -1.2568    0.2413 C   0  0  0  0  0  0  0  0  0  0  0  0
   -2.0601   -2.9145    2.9051 H   0  0  0  0  0  0  0  0  0  0  0  0
   -3.3416   -3.5582    1.8372 H   0  0  0  0  0  0  0  0  0  0  0  0
   -3.6648   -2.1276    2.8795 H   0  0  0  0  0  0  0  0  0  0  0  0
   -0.4061   -1.7109    1.6586 H   0  0  0  0  0  0  0  0  0  0  0  0
    0.0995   -0.2390   -1.7666 H   0  0  0  0  0  0  0  0  0  0  0  0
   -0.7950    1.8748    1.2916 H   0  0  0  0  0  0  0  0  0  0  0  0
   -1.1332    4.3196    1.0880 H   0  0  0  0  0  0  0  0  0  0  0  0
   -0.7169    5.4314   -1.1107 H   0  0  0  0  0  0  0  0  0  0  0  0
    0.0259    4.0178   -3.0285 H   0  0  0  0  0  0  0  0  0  0  0  0
    1.1549    0.5050    2.0932 H   0  0  0  0  0  0  0  0  0  0  0  0
    4.1486   -1.0682    2.9488 H   0  0  0  0  0  0  0  0  0  0  0  0
    3.1218    0.3067    3.4503 H   0  0  0  0  0  0  0  0  0  0  0  0
    4.6202    0.6159    2.5256 H   0  0  0  0  0  0  0  0  0  0  0  0
    5.6756   -1.1099    0.6691 H   0  0  0  0  0  0  0  0  0  0  0  0
    6.1468   -1.8008   -1.6672 H   0  0  0  0  0  0  0  0  0  0  0  0
    4.3752   -1.7034   -3.3866 H   0  0  0  0  0  0  0  0  0  0  0  0
    2.1045   -0.9196   -2.8087 H   0  0  0  0  0  0  0  0  0  0  0  0
   -2.5222    0.7529   -2.3908 H   0  0  0  0  0  0  0  0  0  0  0  0
   -4.9503    0.5054   -2.7796 H   0  0  0  0  0  0  0  0  0  0  0  0
   -6.3360   -0.8560   -1.2520 H   0  0  0  0  0  0  0  0  0  0  0  0
   -5.3107   -2.0045    0.6946 H   0  0  0  0  0  0  0  0  0  0  0  0
  1  2  1  0
  2  3  1  0
  3  4  2  0
  4  5  1  0
  5  6  1  0
  6  7  2  0
  7  8  1  0
  8  9  2  0
  9 10  1  0
 10 11  2  0
  5 12  1  0
 12 13  2  0
 13 14  1  0
 14 15  1  0
 14 16  1  0
 16 17  2  0
 17 18  1  0
 18 19  2  0
 19 20  1  0
 20 21  2  0
  4 22  1  0
 22 23  2  0
 23 24  1  0
 24 25  2  0
 25 26  1  0
 26 27  2  0
 27  2  1  0
 11  6  1  0
 21 12  1  0
 27 22  1  0
 21 16  1  0
  1 28  1  0
  1 29  1  0
  1 30  1  0
  3 31  1  0
  5 32  1  0
  7 33  1  0
  8 34  1  0
  9 35  1  0
 10 36  1  0
 13 37  1  0
 15 38  1  0
 15 39  1  0
 15 40  1  0
 17 41  1  0
 18 42  1  0
 19 43  1  0
 20 44  1  0
 23 45  1  0
 24 46  1  0
 25 47  1  0
 26 48  1  0
M  END
$$$$
