
     RDKit          3D

 69 71  0  0  0  0  0  0  0  0999 V2000
   -3.0274    0.7993   -5.2664 C   0  0  0  0  0  0  0  0  0  0  0  0
   -2.4052    1.0646   -4.0164 O   0  0  0  0  0  0  0  0  0  0  0  0
   -2.6465    0.1824   -2.9962 C   0  0  0  0  0  0  0  0  0  0  0  0
   -3.6437   -0.7952   -3.0179 C   0  0  0  0  0  0  0  0  0  0  0  0
   -3.8447   -1.6255   -1.9145 C   0  0  0  0  0  0  0  0  0  0  0  0
   -3.0570   -1.4841   -0.7746 C   0  0  0  0  0  0  0  0  0  0  0  0
   -2.0485   -0.5076   -0.7184 C   0  0  0  0  0  0  0  0  0  0  0  0
   -1.1611   -0.3500    0.5136 C   0  0  0  0  0  0  0  0  0  0  0  0
   -1.9440   -0.6075    1.8370 C   0  0  0  0  0  0  0  0  0  0  0  0
   -1.7530   -1.5828    2.5581 O   0  0  0  0  0  0  0  0  0  0  0  0
   -2.8951    0.3682    2.1174 N   0  0  0  0  0  0  0  0  0  0  0  0
   -3.8810    0.2851    3.2080 C   0  0  0  0  0  0  0  0  0  0  0  0
   -4.8681   -0.8630    2.9466 C   0  0  0  0  0  0  0  0  0  0  0  0
   -3.2061    0.1039    4.5773 C   0  0  0  0  0  0  0  0  0  0  0  0
   -4.6632    1.6108    3.2371 C   0  0  0  0  0  0  0  0  0  0  0  0
    0.1076   -1.1269    0.4488 N   0  0  0  0  0  0  0  0  0  0  0  0
    1.2848   -0.6714    1.0540 C   0  0  0  0  0  0  0  0  0  0  0  0
    2.2573   -1.4005    1.2609 O   0  0  0  0  0  0  0  0  0  0  0  0
    1.3487    0.7949    1.4597 C   0  0  0  0  0  0  0  0  0  0  0  0
    2.7392    1.1658    1.9716 C   0  0  0  0  0  0  0  0  0  0  0  0
    3.7390    1.2738    0.8317 C   0  0  0  0  0  0  0  0  0  0  0  0
    3.4186    1.7287   -0.2637 O   0  0  0  0  0  0  0  0  0  0  0  0
    5.0034    0.8785    1.1975 N   0  0  0  0  0  0  0  0  0  0  0  0
    6.1253    0.9601    0.4026 C   0  0  0  0  0  0  0  0  0  0  0  0
    6.2759    1.5144   -0.8877 C   0  0  0  0  0  0  0  0  0  0  0  0
    7.6064    1.3510   -1.1819 C   0  0  0  0  0  0  0  0  0  0  0  0
    8.4585    1.6980   -2.3320 C   0  0  0  0  0  0  0  0  0  0  0  0
    8.2173    0.7252   -0.1416 O   0  0  0  0  0  0  0  0  0  0  0  0
    7.2912    0.4813    0.8546 N   0  0  0  0  0  0  0  0  0  0  0  0
    0.0108   -2.5488    0.1438 C   0  0  0  0  0  0  0  0  0  0  0  0
   -0.2325   -3.0646   -1.2551 C   0  0  0  0  0  0  0  0  0  0  0  0
    1.0978   -3.2752   -0.6182 C   0  0  0  0  0  0  0  0  0  0  0  0
   -1.8440    0.3094   -1.8475 C   0  0  0  0  0  0  0  0  0  0  0  0
   -0.8776    1.2843   -1.7507 O   0  0  0  0  0  0  0  0  0  0  0  0
    0.2293    1.0152   -2.6152 C   0  0  0  0  0  0  0  0  0  0  0  0
   -4.1102    0.9446   -5.2033 H   0  0  0  0  0  0  0  0  0  0  0  0
   -2.6383    1.5176   -5.9937 H   0  0  0  0  0  0  0  0  0  0  0  0
   -2.7813   -0.2041   -5.6259 H   0  0  0  0  0  0  0  0  0  0  0  0
   -4.2925   -0.9310   -3.8766 H   0  0  0  0  0  0  0  0  0  0  0  0
   -4.6200   -2.3878   -1.9430 H   0  0  0  0  0  0  0  0  0  0  0  0
   -3.2258   -2.1581    0.0636 H   0  0  0  0  0  0  0  0  0  0  0  0
   -0.9092    0.7119    0.5787 H   0  0  0  0  0  0  0  0  0  0  0  0
   -3.1202    1.0008    1.3570 H   0  0  0  0  0  0  0  0  0  0  0  0
   -4.3664   -1.8357    2.9373 H   0  0  0  0  0  0  0  0  0  0  0  0
   -5.3633   -0.7438    1.9758 H   0  0  0  0  0  0  0  0  0  0  0  0
   -5.6467   -0.9021    3.7168 H   0  0  0  0  0  0  0  0  0  0  0  0
   -3.9358    0.1898    5.3910 H   0  0  0  0  0  0  0  0  0  0  0  0
   -2.7334   -0.8773    4.6809 H   0  0  0  0  0  0  0  0  0  0  0  0
   -2.4315    0.8626    4.7375 H   0  0  0  0  0  0  0  0  0  0  0  0
   -3.9938    2.4597    3.4219 H   0  0  0  0  0  0  0  0  0  0  0  0
   -5.4278    1.6063    4.0231 H   0  0  0  0  0  0  0  0  0  0  0  0
   -5.1685    1.7942    2.2818 H   0  0  0  0  0  0  0  0  0  0  0  0
    0.6284    0.9550    2.2693 H   0  0  0  0  0  0  0  0  0  0  0  0
    1.0813    1.4236    0.6054 H   0  0  0  0  0  0  0  0  0  0  0  0
    2.6993    2.1520    2.4505 H   0  0  0  0  0  0  0  0  0  0  0  0
    3.0827    0.4501    2.7269 H   0  0  0  0  0  0  0  0  0  0  0  0
    5.1605    0.4102    2.0793 H   0  0  0  0  0  0  0  0  0  0  0  0
    5.5272    1.9802   -1.5116 H   0  0  0  0  0  0  0  0  0  0  0  0
    9.2969    2.3240   -2.0128 H   0  0  0  0  0  0  0  0  0  0  0  0
    7.8916    2.2497   -3.0877 H   0  0  0  0  0  0  0  0  0  0  0  0
    8.8597    0.7934   -2.7978 H   0  0  0  0  0  0  0  0  0  0  0  0
   -0.4289   -3.1130    0.9628 H   0  0  0  0  0  0  0  0  0  0  0  0
   -0.8854   -3.9199   -1.3701 H   0  0  0  0  0  0  0  0  0  0  0  0
   -0.2729   -2.3667   -2.0805 H   0  0  0  0  0  0  0  0  0  0  0  0
    1.9343   -2.7030   -1.0029 H   0  0  0  0  0  0  0  0  0  0  0  0
    1.3634   -4.2719   -0.2870 H   0  0  0  0  0  0  0  0  0  0  0  0
    0.4502   -0.0552   -2.6914 H   0  0  0  0  0  0  0  0  0  0  0  0
    0.0548    1.4423   -3.6058 H   0  0  0  0  0  0  0  0  0  0  0  0
    1.1091    1.5097   -2.1918 H   0  0  0  0  0  0  0  0  0  0  0  0
  1  2  1  0
  2  3  1  0
  3  4  2  0
  4  5  1  0
  5  6  2  0
  6  7  1  0
  7  8  1  0
  8  9  1  0
  9 10  2  0
  9 11  1  0
 11 12  1  0
 12 13  1  0
 12 14  1  0
 12 15  1  0
  8 16  1  0
 16 17  1  0
 17 18  2  0
 17 19  1  0
 19 20  1  0
 20 21  1  0
 21 22  2  0
 21 23  1  0
 23 24  1  0
 24 25  1  0
 25 26  2  0
 26 27  1  0
 26 28  1  0
 28 29  1  0
 16 30  1  0
 30 31  1  0
 31 32  1  0
  7 33  2  0
 33 34  1  0
 34 35  1  0
 33  3  1  0
 29 24  2  0
 32 30  1  0
  1 36  1  0
  1 37  1  0
  1 38  1  0
  4 39  1  0
  5 40  1  0
  6 41  1  0
  8 42  1  0
 11 43  1  0
 13 44  1  0
 13 45  1  0
 13 46  1  0
 14 47  1  0
 14 48  1  0
 14 49  1  0
 15 50  1  0
 15 51  1  0
 15 52  1  0
 19 53  1  0
 19 54  1  0
 20 55  1  0
 20 56  1  0
 23 57  1  0
 25 58  1  0
 27 59  1  0
 27 60  1  0
 27 61  1  0
 30 62  1  0
 31 63  1  0
 31 64  1  0
 32 65  1  0
 32 66  1  0
 35 67  1  0
 35 68  1  0
 35 69  1  0
M  END
$$$$
