
     RDKit          3D

 56 58  0  0  0  0  0  0  0  0999 V2000
   -6.9980    0.1284   -1.1069 C   0  0  0  0  0  0  0  0  0  0  0  0
   -6.1947    0.1271   -2.4008 C   0  0  0  0  0  0  0  0  0  0  0  0
   -5.0986   -0.8545   -2.3641 N   0  0  0  0  0  0  0  0  0  0  0  0
   -5.2738   -2.0527   -3.1990 C   0  0  0  0  0  0  0  0  0  0  0  0
   -6.0576   -3.1325   -2.4689 C   0  0  0  0  0  0  0  0  0  0  0  0
   -3.9625   -0.6677   -1.5852 C   0  0  0  0  0  0  0  0  0  0  0  0
   -3.0641   -1.7102   -1.3048 C   0  0  0  0  0  0  0  0  0  0  0  0
   -1.9133   -1.5272   -0.5212 C   0  0  0  0  0  0  0  0  0  0  0  0
   -1.6046   -0.2757    0.0077 C   0  0  0  0  0  0  0  0  0  0  0  0
   -0.4013   -0.1257    0.8354 C   0  0  0  0  0  0  0  0  0  0  0  0
    0.3859    0.9611    0.7968 C   0  0  0  0  0  0  0  0  0  0  0  0
    1.5988    1.0719    1.6147 C   0  0  0  0  0  0  0  0  0  0  0  0
    1.4437    1.2731    2.9857 C   0  0  0  0  0  0  0  0  0  0  0  0
    2.5538    1.3907    3.7984 C   0  0  0  0  0  0  0  0  0  0  0  0
    3.8208    1.2962    3.2381 C   0  0  0  0  0  0  0  0  0  0  0  0
    4.9444    1.4049    4.0642 C   0  0  0  0  0  0  0  0  0  0  0  0
    6.2241    1.3006    3.5283 C   0  0  0  0  0  0  0  0  0  0  0  0
    6.4046    1.0835    2.1663 C   0  0  0  0  0  0  0  0  0  0  0  0
    7.7114    0.9933    1.7820 O   0  0  0  0  0  0  0  0  0  0  0  0
    7.9985    0.7863    0.4048 C   0  0  0  0  0  0  0  0  0  0  0  0
    5.2883    0.9748    1.3313 C   0  0  0  0  0  0  0  0  0  0  0  0
    3.9737    1.0851    1.8384 C   0  0  0  0  0  0  0  0  0  0  0  0
    2.8434    0.9898    1.0521 N   0  0  0  0  0  4  0  0  0  0  0  0
    2.9598    0.7829   -0.4248 C   0  0  0  0  0  0  0  0  0  0  0  0
    3.0844   -0.6977   -0.7328 C   0  0  0  0  0  0  0  0  0  0  0  0
   -2.4873    0.7746   -0.2367 C   0  0  0  0  0  0  0  0  0  0  0  0
   -3.6357    0.5763   -1.0207 C   0  0  0  0  0  0  0  0  0  0  0  0
   -7.8345    0.8303   -1.1855 H   0  0  0  0  0  0  0  0  0  0  0  0
   -7.4083   -0.8632   -0.8931 H   0  0  0  0  0  0  0  0  0  0  0  0
   -6.3913    0.4277   -0.2475 H   0  0  0  0  0  0  0  0  0  0  0  0
   -5.8184    1.1306   -2.6284 H   0  0  0  0  0  0  0  0  0  0  0  0
   -6.8841   -0.1087   -3.2212 H   0  0  0  0  0  0  0  0  0  0  0  0
   -4.3119   -2.4459   -3.5481 H   0  0  0  0  0  0  0  0  0  0  0  0
   -5.8113   -1.7882   -4.1184 H   0  0  0  0  0  0  0  0  0  0  0  0
   -6.1236   -4.0333   -3.0870 H   0  0  0  0  0  0  0  0  0  0  0  0
   -7.0781   -2.8006   -2.2544 H   0  0  0  0  0  0  0  0  0  0  0  0
   -5.5881   -3.4042   -1.5189 H   0  0  0  0  0  0  0  0  0  0  0  0
   -3.2484   -2.7154   -1.6729 H   0  0  0  0  0  0  0  0  0  0  0  0
   -1.2719   -2.3866   -0.3396 H   0  0  0  0  0  0  0  0  0  0  0  0
   -0.1655   -0.9786    1.4708 H   0  0  0  0  0  0  0  0  0  0  0  0
    0.1610    1.8068    0.1514 H   0  0  0  0  0  0  0  0  0  0  0  0
    0.4500    1.3442    3.4272 H   0  0  0  0  0  0  0  0  0  0  0  0
    2.4181    1.5507    4.8680 H   0  0  0  0  0  0  0  0  0  0  0  0
    4.8436    1.5689    5.1370 H   0  0  0  0  0  0  0  0  0  0  0  0
    7.0918    1.3851    4.1822 H   0  0  0  0  0  0  0  0  0  0  0  0
    9.0860    0.7525    0.2897 H   0  0  0  0  0  0  0  0  0  0  0  0
    7.6222    1.6151   -0.2037 H   0  0  0  0  0  0  0  0  0  0  0  0
    7.5945   -0.1709    0.0597 H   0  0  0  0  0  0  0  0  0  0  0  0
    5.4638    0.7910    0.2801 H   0  0  0  0  0  0  0  0  0  0  0  0
    3.8114    1.3579   -0.7980 H   0  0  0  0  0  0  0  0  0  0  0  0
    2.0935    1.2154   -0.9313 H   0  0  0  0  0  0  0  0  0  0  0  0
    3.9666   -1.1365   -0.2577 H   0  0  0  0  0  0  0  0  0  0  0  0
    2.2112   -1.2530   -0.3779 H   0  0  0  0  0  0  0  0  0  0  0  0
    3.1690   -0.8524   -1.8127 H   0  0  0  0  0  0  0  0  0  0  0  0
   -2.3189    1.7635    0.1813 H   0  0  0  0  0  0  0  0  0  0  0  0
   -4.2728    1.4414   -1.1797 H   0  0  0  0  0  0  0  0  0  0  0  0
  1  2  1  0
  2  3  1  0
  3  4  1  0
  4  5  1  0
  3  6  1  0
  6  7  2  0
  7  8  1  0
  8  9  2  0
  9 10  1  0
 10 11  2  3
 11 12  1  0
 12 13  2  0
 13 14  1  0
 14 15  2  0
 15 16  1  0
 16 17  2  0
 17 18  1  0
 18 19  1  0
 19 20  1  0
 18 21  2  0
 21 22  1  0
 22 23  2  0
 23 24  1  0
 24 25  1  0
  9 26  1  0
 26 27  2  0
 27  6  1  0
 23 12  1  0
 22 15  1  0
  1 28  1  0
  1 29  1  0
  1 30  1  0
  2 31  1  0
  2 32  1  0
  4 33  1  0
  4 34  1  0
  5 35  1  0
  5 36  1  0
  5 37  1  0
  7 38  1  0
  8 39  1  0
 10 40  1  0
 11 41  1  0
 13 42  1  0
 14 43  1  0
 16 44  1  0
 17 45  1  0
 20 46  1  0
 20 47  1  0
 20 48  1  0
 21 49  1  0
 24 50  1  0
 24 51  1  0
 25 52  1  0
 25 53  1  0
 25 54  1  0
 26 55  1  0
 27 56  1  0
M  CHG  1  23   1
M  END
$$$$
