
     RDKit          3D

 33 35  0  0  0  0  0  0  0  0999 V2000
    5.0234    1.1088   -1.3545 C   0  0  0  0  0  0  0  0  0  0  0  0
    4.3091    0.3451   -0.3575 N   0  0  0  0  0  0  0  0  0  0  0  0
    4.8510   -0.4340    0.6188 C   0  0  0  0  0  0  0  0  0  0  0  0
    3.7781   -0.9594    1.3090 C   0  0  0  0  0  0  0  0  0  0  0  0
    3.8570   -1.8719    2.3982 N   0  0  0  0  0  4  0  0  0  0  0  0
    3.2781   -2.9543    2.2586 O   0  0  0  0  0  0  0  0  0  0  0  0
    4.5619   -1.5277    3.3548 O   0  0  0  0  0  1  0  0  0  0  0  0
    2.6240   -0.4179    0.7044 C   0  0  0  0  0  0  0  0  0  0  0  0
    1.2172   -0.5942    1.1013 C   0  0  0  0  0  0  0  0  0  0  0  0
    0.9207   -1.1559    2.1456 O   0  0  0  0  0  0  0  0  0  0  0  0
    0.3664   -0.0240    0.1715 N   0  0  0  0  0  0  0  0  0  0  0  0
   -1.0170    0.0167    0.1924 C   0  0  0  0  0  0  0  0  0  0  0  0
   -1.9098   -0.7247    1.4623 S   0  0  0  0  0  0  0  0  0  0  0  0
   -3.3535   -0.2546    0.7715 C   0  0  0  0  0  0  0  0  0  0  0  0
   -3.2110    0.4480   -0.3912 C   0  0  0  0  0  0  0  0  0  0  0  0
   -1.8531    0.6163   -0.7448 C   0  0  0  0  0  0  0  0  0  0  0  0
   -1.3894    1.3085   -1.9073 C   0  0  0  0  0  0  0  0  0  0  0  0
   -0.9949    1.8654   -2.8460 N   0  0  0  0  0  0  0  0  0  0  0  0
   -4.5325    0.8359   -0.9458 C   0  0  0  0  0  0  0  0  0  0  0  0
   -5.5144   -0.0466   -0.1112 C   0  0  0  0  0  0  0  0  0  0  0  0
   -4.7591   -0.4588    1.1903 C   0  0  0  0  0  0  0  0  0  0  0  0
    2.9604    0.3684   -0.3464 N   0  0  0  0  0  0  0  0  0  0  0  0
    6.0967    0.9364   -1.2435 H   0  0  0  0  0  0  0  0  0  0  0  0
    4.6924    0.7798   -2.3426 H   0  0  0  0  0  0  0  0  0  0  0  0
    4.7953    2.1668   -1.2029 H   0  0  0  0  0  0  0  0  0  0  0  0
    5.9185   -0.5614    0.7387 H   0  0  0  0  0  0  0  0  0  0  0  0
    0.8511    0.4310   -0.6014 H   0  0  0  0  0  0  0  0  0  0  0  0
   -4.7262    1.8985   -0.7661 H   0  0  0  0  0  0  0  0  0  0  0  0
   -4.6236    0.6248   -2.0148 H   0  0  0  0  0  0  0  0  0  0  0  0
   -5.7545   -0.9515   -0.6851 H   0  0  0  0  0  0  0  0  0  0  0  0
   -6.4572    0.4673    0.1002 H   0  0  0  0  0  0  0  0  0  0  0  0
   -4.9838   -1.4920    1.4680 H   0  0  0  0  0  0  0  0  0  0  0  0
   -5.0214    0.2112    2.0153 H   0  0  0  0  0  0  0  0  0  0  0  0
  1  2  1  0
  2  3  1  0
  3  4  2  0
  4  5  1  0
  5  6  2  0
  5  7  1  0
  4  8  1  0
  8  9  1  0
  9 10  2  0
  9 11  1  0
 11 12  1  0
 12 13  1  0
 13 14  1  0
 14 15  2  0
 15 16  1  0
 16 17  1  0
 17 18  3  0
 15 19  1  0
 19 20  1  0
 20 21  1  0
  8 22  2  0
 22  2  1  0
 16 12  2  0
 21 14  1  0
  1 23  1  0
  1 24  1  0
  1 25  1  0
  3 26  1  0
 11 27  1  0
 19 28  1  0
 19 29  1  0
 20 30  1  0
 20 31  1  0
 21 32  1  0
 21 33  1  0
M  CHG  2   5   1   7  -1
M  END
$$$$
