
     RDKit          3D

 31 33  0  0  0  0  0  0  0  0999 V2000
    4.8854    1.2784   -2.2764 C   0  0  0  0  0  0  0  0  0  0  0  0
    4.1593    1.6089   -1.0735 N   0  0  0  0  0  0  0  0  0  0  0  0
    4.5684    2.4373   -0.0725 C   0  0  0  0  0  0  0  0  0  0  0  0
    3.5530    2.4424    0.8534 C   0  0  0  0  0  0  0  0  0  0  0  0
    2.5585    1.5804    0.3257 C   0  0  0  0  0  0  0  0  0  0  0  0
    1.2568    1.2347    0.9298 C   0  0  0  0  0  0  0  0  0  0  0  0
    0.9145    1.7002    2.0092 O   0  0  0  0  0  0  0  0  0  0  0  0
    0.5564    0.3615    0.1178 N   0  0  0  0  0  0  0  0  0  0  0  0
   -0.6931   -0.1914    0.3318 C   0  0  0  0  0  0  0  0  0  0  0  0
   -1.5947    0.1730    1.7513 S   0  0  0  0  0  0  0  0  0  0  0  0
   -2.8467   -0.8101    1.2529 C   0  0  0  0  0  0  0  0  0  0  0  0
   -2.6303   -1.4188    0.0495 C   0  0  0  0  0  0  0  0  0  0  0  0
   -1.3771   -1.0696   -0.5032 C   0  0  0  0  0  0  0  0  0  0  0  0
   -0.8722   -1.5508   -1.7521 C   0  0  0  0  0  0  0  0  0  0  0  0
   -0.4566   -1.9372   -2.7645 N   0  0  0  0  0  0  0  0  0  0  0  0
   -3.7801   -2.2787   -0.3281 C   0  0  0  0  0  0  0  0  0  0  0  0
   -4.8821   -1.8191    0.6787 C   0  0  0  0  0  0  0  0  0  0  0  0
   -4.1468   -1.1442    1.8781 C   0  0  0  0  0  0  0  0  0  0  0  0
    2.9420    1.0701   -0.8652 N   0  0  0  0  0  0  0  0  0  0  0  0
    5.8449    1.8014   -2.2777 H   0  0  0  0  0  0  0  0  0  0  0  0
    4.2878    1.5918   -3.1360 H   0  0  0  0  0  0  0  0  0  0  0  0
    5.0487    0.1980   -2.2937 H   0  0  0  0  0  0  0  0  0  0  0  0
    5.5232    2.9439   -0.0970 H   0  0  0  0  0  0  0  0  0  0  0  0
    3.5161    2.9867    1.7873 H   0  0  0  0  0  0  0  0  0  0  0  0
    1.0588    0.1199   -0.7361 H   0  0  0  0  0  0  0  0  0  0  0  0
   -3.5360   -3.3347   -0.1722 H   0  0  0  0  0  0  0  0  0  0  0  0
   -4.1024   -2.1282   -1.3621 H   0  0  0  0  0  0  0  0  0  0  0  0
   -5.5226   -1.0736    0.1887 H   0  0  0  0  0  0  0  0  0  0  0  0
   -5.5252   -2.6456    0.9968 H   0  0  0  0  0  0  0  0  0  0  0  0
   -4.0134   -1.8580    2.6974 H   0  0  0  0  0  0  0  0  0  0  0  0
   -4.6945   -0.2687    2.2368 H   0  0  0  0  0  0  0  0  0  0  0  0
  1  2  1  0
  2  3  1  0
  3  4  2  0
  4  5  1  0
  5  6  1  0
  6  7  2  0
  6  8  1  0
  8  9  1  0
  9 10  1  0
 10 11  1  0
 11 12  2  0
 12 13  1  0
 13 14  1  0
 14 15  3  0
 12 16  1  0
 16 17  1  0
 17 18  1  0
  5 19  2  0
 19  2  1  0
 13  9  2  0
 18 11  1  0
  1 20  1  0
  1 21  1  0
  1 22  1  0
  3 23  1  0
  4 24  1  0
  8 25  1  0
 16 26  1  0
 16 27  1  0
 17 28  1  0
 17 29  1  0
 18 30  1  0
 18 31  1  0
M  END
$$$$
