
     RDKit          3D

 47 49  0  0  0  0  0  0  0  0999 V2000
   -3.0632    1.3129    0.8125 O   0  0  0  0  0  0  0  0  0  0  0  0
   -3.2412    0.2511    1.3999 C   0  0  0  0  0  0  0  0  0  0  0  0
   -4.6182   -0.1551    1.9538 C   0  0  0  0  0  0  0  0  0  0  0  0
   -5.7380    0.4815    1.3614 O   0  0  0  0  0  0  0  0  0  0  0  0
   -6.1999   -0.0146    0.1738 C   0  0  0  0  0  0  0  0  0  0  0  0
   -7.4369    0.5008   -0.2270 C   0  0  0  0  0  0  0  0  0  0  0  0
   -8.0338    0.0814   -1.4184 C   0  0  0  0  0  0  0  0  0  0  0  0
   -7.3848   -0.8541   -2.2179 C   0  0  0  0  0  0  0  0  0  0  0  0
   -8.1837   -1.4293   -3.8311 Br  0  0  0  0  0  0  0  0  0  0  0  0
   -6.1462   -1.3670   -1.8368 C   0  0  0  0  0  0  0  0  0  0  0  0
   -5.5527   -0.9455   -0.6412 C   0  0  0  0  0  0  0  0  0  0  0  0
   -2.2740   -0.7150    1.6545 N   0  0  0  0  0  0  0  0  0  0  0  0
   -0.9295   -0.7152    1.2282 C   0  0  0  0  0  0  0  0  0  0  0  0
   -0.1404   -1.8058    1.6135 C   0  0  0  0  0  0  0  0  0  0  0  0
    1.1967   -1.8968    1.2129 C   0  0  0  0  0  0  0  0  0  0  0  0
    1.7708   -0.8921    0.4262 C   0  0  0  0  0  0  0  0  0  0  0  0
    3.1961   -1.0503    0.0054 C   0  0  0  0  0  0  0  0  0  0  0  0
    3.6495   -2.1867   -0.0750 O   0  0  0  0  0  0  0  0  0  0  0  0
    3.8816    0.1264   -0.2253 N   0  0  0  0  0  0  0  0  0  0  0  0
    5.2185    0.2940   -0.6745 C   0  0  0  0  0  0  0  0  0  0  0  0
    6.0249   -0.7949   -1.0319 C   0  0  0  0  0  0  0  0  0  0  0  0
    7.3386   -0.6060   -1.4738 C   0  0  0  0  0  0  0  0  0  0  0  0
    7.8710    0.6740   -1.5670 C   0  0  0  0  0  0  0  0  0  0  0  0
    7.0870    1.7736   -1.2232 C   0  0  0  0  0  0  0  0  0  0  0  0
    5.7637    1.5967   -0.7795 C   0  0  0  0  0  0  0  0  0  0  0  0
    4.9405    2.7876   -0.4332 C   0  0  0  0  0  0  0  0  0  0  0  0
    3.7704    2.7647   -0.0886 O   0  0  0  0  0  0  0  0  0  0  0  0
    5.6116    3.9495   -0.5224 O   0  0  0  0  0  0  0  0  0  0  0  0
    0.9832    0.1952    0.0327 C   0  0  0  0  0  0  0  0  0  0  0  0
   -0.3570    0.2819    0.4364 C   0  0  0  0  0  0  0  0  0  0  0  0
   -4.6147    0.1448    3.0099 H   0  0  0  0  0  0  0  0  0  0  0  0
   -4.7418   -1.2454    1.9490 H   0  0  0  0  0  0  0  0  0  0  0  0
   -7.9409    1.2370    0.3959 H   0  0  0  0  0  0  0  0  0  0  0  0
   -8.9960    0.4931   -1.7097 H   0  0  0  0  0  0  0  0  0  0  0  0
   -5.6298   -2.0889   -2.4637 H   0  0  0  0  0  0  0  0  0  0  0  0
   -4.5797   -1.3540   -0.3927 H   0  0  0  0  0  0  0  0  0  0  0  0
   -2.5562   -1.5140    2.2079 H   0  0  0  0  0  0  0  0  0  0  0  0
   -0.5495   -2.6069    2.2239 H   0  0  0  0  0  0  0  0  0  0  0  0
    1.7901   -2.7582    1.5152 H   0  0  0  0  0  0  0  0  0  0  0  0
    3.4023    0.9966    0.0090 H   0  0  0  0  0  0  0  0  0  0  0  0
    5.6571   -1.8161   -0.9866 H   0  0  0  0  0  0  0  0  0  0  0  0
    7.9416   -1.4696   -1.7471 H   0  0  0  0  0  0  0  0  0  0  0  0
    8.8922    0.8165   -1.9117 H   0  0  0  0  0  0  0  0  0  0  0  0
    7.5166    2.7687   -1.3107 H   0  0  0  0  0  0  0  0  0  0  0  0
    4.9569    4.6333   -0.2676 H   0  0  0  0  0  0  0  0  0  0  0  0
    1.3752    0.9781   -0.6113 H   0  0  0  0  0  0  0  0  0  0  0  0
   -0.9280    1.1421    0.0992 H   0  0  0  0  0  0  0  0  0  0  0  0
  1  2  2  0
  2  3  1  0
  3  4  1  0
  4  5  1  0
  5  6  2  0
  6  7  1  0
  7  8  2  0
  8  9  1  0
  8 10  1  0
 10 11  2  0
  2 12  1  0
 12 13  1  0
 13 14  2  0
 14 15  1  0
 15 16  2  0
 16 17  1  0
 17 18  2  0
 17 19  1  0
 19 20  1  0
 20 21  2  0
 21 22  1  0
 22 23  2  0
 23 24  1  0
 24 25  2  0
 25 26  1  0
 26 27  2  0
 26 28  1  0
 16 29  1  0
 29 30  2  0
 11  5  1  0
 30 13  1  0
 25 20  1  0
  3 31  1  0
  3 32  1  0
  6 33  1  0
  7 34  1  0
 10 35  1  0
 11 36  1  0
 12 37  1  0
 14 38  1  0
 15 39  1  0
 19 40  1  0
 21 41  1  0
 22 42  1  0
 23 43  1  0
 24 44  1  0
 28 45  1  0
 29 46  1  0
 30 47  1  0
M  END
$$$$
