
     RDKit          3D

 43 45  0  0  0  0  0  0  0  0999 V2000
   -3.1830    1.0368   -1.4472 C   0  0  0  0  0  0  0  0  0  0  0  0
   -2.4381   -0.0997   -0.7148 C   0  0  0  0  0  0  0  0  0  0  0  0
   -2.1010   -1.1585   -1.7850 C   0  0  0  0  0  0  0  0  0  0  0  0
   -3.2006   -0.6763    0.5107 C   0  0  0  0  0  0  0  0  0  0  0  0
   -2.1755   -1.6521    1.1294 C   0  0  0  0  0  0  0  0  0  0  0  0
   -0.8280   -0.9299    0.9128 C   0  0  0  0  0  0  0  0  0  0  0  0
   -1.2266    0.3630    0.1600 C   0  0  0  0  0  0  0  0  0  0  0  0
   -0.1567    1.1566   -0.5634 C   0  0  0  0  0  0  0  0  0  0  0  0
    1.4109    1.3183    0.2942 S   0  0  0  0  0  6  0  0  0  0  0  0
    2.1820    2.3525   -0.3614 O   0  0  0  0  0  0  0  0  0  0  0  0
    1.1915    1.3436    1.7217 O   0  0  0  0  0  0  0  0  0  0  0  0
    2.1494   -0.1712   -0.0824 N   0  0  0  0  0  0  0  0  0  0  0  0
    2.7681   -0.2974   -1.4428 C   0  0  0  0  0  0  0  0  0  0  0  0
    4.2031    0.2511   -1.4738 C   0  0  0  0  0  0  0  0  0  0  0  0
    5.0200   -0.3461   -0.4563 O   0  0  0  0  0  0  0  0  0  0  0  0
    4.4641   -0.0901    0.8434 C   0  0  0  0  0  0  0  0  0  0  0  0
    3.0761   -0.7217    0.9587 C   0  0  0  0  0  0  0  0  0  0  0  0
   -1.9989    1.1884    1.1943 C   0  0  0  0  0  0  0  0  0  0  0  0
   -1.6412    2.2507    1.6764 O   0  0  0  0  0  0  0  0  0  0  0  0
   -3.3307    0.5233    1.4774 C   0  0  0  0  0  0  0  0  0  0  0  0
   -3.4067    1.9031   -0.8191 H   0  0  0  0  0  0  0  0  0  0  0  0
   -4.1355    0.6718   -1.8478 H   0  0  0  0  0  0  0  0  0  0  0  0
   -2.5885    1.4107   -2.2889 H   0  0  0  0  0  0  0  0  0  0  0  0
   -3.0216   -1.5801   -2.2046 H   0  0  0  0  0  0  0  0  0  0  0  0
   -1.5039   -1.9964   -1.4186 H   0  0  0  0  0  0  0  0  0  0  0  0
   -1.5352   -0.7122   -2.6106 H   0  0  0  0  0  0  0  0  0  0  0  0
   -4.1600   -1.1493    0.2870 H   0  0  0  0  0  0  0  0  0  0  0  0
   -2.3664   -1.8437    2.1907 H   0  0  0  0  0  0  0  0  0  0  0  0
   -2.1839   -2.6201    0.6174 H   0  0  0  0  0  0  0  0  0  0  0  0
   -0.3555   -0.7303    1.8802 H   0  0  0  0  0  0  0  0  0  0  0  0
   -0.1521   -1.5619    0.3286 H   0  0  0  0  0  0  0  0  0  0  0  0
    0.0623    0.7344   -1.5477 H   0  0  0  0  0  0  0  0  0  0  0  0
   -0.4942    2.1853   -0.7400 H   0  0  0  0  0  0  0  0  0  0  0  0
    2.1528    0.1936   -2.2021 H   0  0  0  0  0  0  0  0  0  0  0  0
    2.7803   -1.3668   -1.6876 H   0  0  0  0  0  0  0  0  0  0  0  0
    4.2355    1.3388   -1.3593 H   0  0  0  0  0  0  0  0  0  0  0  0
    4.6606    0.0155   -2.4402 H   0  0  0  0  0  0  0  0  0  0  0  0
    4.4398    0.9906    1.0233 H   0  0  0  0  0  0  0  0  0  0  0  0
    5.1372   -0.5379    1.5811 H   0  0  0  0  0  0  0  0  0  0  0  0
    3.1467   -1.8029    0.7845 H   0  0  0  0  0  0  0  0  0  0  0  0
    2.6656   -0.5965    1.9644 H   0  0  0  0  0  0  0  0  0  0  0  0
   -4.1518    1.1874    1.1978 H   0  0  0  0  0  0  0  0  0  0  0  0
   -3.4103    0.2256    2.5252 H   0  0  0  0  0  0  0  0  0  0  0  0
  1  2  1  0
  2  3  1  0
  2  4  1  0
  4  5  1  0
  5  6  1  0
  6  7  1  0
  7  8  1  0
  8  9  1  0
  9 10  2  0
  9 11  2  0
  9 12  1  0
 12 13  1  0
 13 14  1  0
 14 15  1  0
 15 16  1  0
 16 17  1  0
  7 18  1  0
 18 19  2  0
 18 20  1  0
  7  2  1  0
 17 12  1  0
 20  4  1  0
  1 21  1  0
  1 22  1  0
  1 23  1  0
  3 24  1  0
  3 25  1  0
  3 26  1  0
  4 27  1  0
  5 28  1  0
  5 29  1  0
  6 30  1  0
  6 31  1  0
  8 32  1  0
  8 33  1  0
 13 34  1  0
 13 35  1  0
 14 36  1  0
 14 37  1  0
 16 38  1  0
 16 39  1  0
 17 40  1  0
 17 41  1  0
 20 42  1  0
 20 43  1  0
M  END
$$$$
