
     RDKit          3D

 36 37  0  0  0  0  0  0  0  0999 V2000
   -5.1212    1.9706    2.0186 C   0  0  0  0  0  0  0  0  0  0  0  0
   -5.1761    1.2151    0.8150 O   0  0  0  0  0  0  0  0  0  0  0  0
   -4.0464    0.5317    0.4604 C   0  0  0  0  0  0  0  0  0  0  0  0
   -4.1506   -0.1877   -0.7329 C   0  0  0  0  0  0  0  0  0  0  0  0
   -3.0698   -0.9312   -1.2148 C   0  0  0  0  0  0  0  0  0  0  0  0
   -1.8672   -0.9653   -0.5008 C   0  0  0  0  0  0  0  0  0  0  0  0
   -0.7399   -1.7621   -1.0555 C   0  0  0  0  0  0  0  0  0  0  0  0
   -0.7639   -2.2984   -2.1515 O   0  0  0  0  0  0  0  0  0  0  0  0
    0.2930   -1.7911   -0.1792 O   0  0  0  0  0  0  0  0  0  0  0  0
    1.4725   -2.4865   -0.6197 C   0  0  0  0  0  0  0  0  0  0  0  0
    2.3361   -1.6056   -1.5258 C   0  0  0  0  0  0  0  0  0  0  0  0
    2.9305   -0.4289   -0.7856 C   0  0  0  0  0  0  0  0  0  0  0  0
    4.1332   -0.5663   -0.0772 C   0  0  0  0  0  0  0  0  0  0  0  0
    4.6711    0.5157    0.6238 C   0  0  0  0  0  0  0  0  0  0  0  0
    4.0022    1.7354    0.6185 C   0  0  0  0  0  0  0  0  0  0  0  0
    4.4908    2.8166    1.2906 O   0  0  0  0  0  0  0  0  0  0  0  0
    2.8084    1.8893   -0.0747 C   0  0  0  0  0  0  0  0  0  0  0  0
    2.2718    0.8090   -0.7760 C   0  0  0  0  0  0  0  0  0  0  0  0
   -1.7605   -0.2421    0.6946 C   0  0  0  0  0  0  0  0  0  0  0  0
   -2.8468    0.5025    1.1726 C   0  0  0  0  0  0  0  0  0  0  0  0
   -4.3642    2.7592    1.9555 H   0  0  0  0  0  0  0  0  0  0  0  0
   -6.0939    2.4530    2.1552 H   0  0  0  0  0  0  0  0  0  0  0  0
   -4.9466    1.3223    2.8837 H   0  0  0  0  0  0  0  0  0  0  0  0
   -5.0822   -0.1678   -1.2940 H   0  0  0  0  0  0  0  0  0  0  0  0
   -3.1732   -1.4814   -2.1480 H   0  0  0  0  0  0  0  0  0  0  0  0
    1.1932   -3.4137   -1.1345 H   0  0  0  0  0  0  0  0  0  0  0  0
    2.0252   -2.7794    0.2800 H   0  0  0  0  0  0  0  0  0  0  0  0
    3.1505   -2.2061   -1.9492 H   0  0  0  0  0  0  0  0  0  0  0  0
    1.7521   -1.2339   -2.3761 H   0  0  0  0  0  0  0  0  0  0  0  0
    4.6589   -1.5185   -0.0680 H   0  0  0  0  0  0  0  0  0  0  0  0
    5.6035    0.3873    1.1638 H   0  0  0  0  0  0  0  0  0  0  0  0
    5.3323    2.5667    1.7056 H   0  0  0  0  0  0  0  0  0  0  0  0
    2.2966    2.8473   -0.0705 H   0  0  0  0  0  0  0  0  0  0  0  0
    1.3352    0.9388   -1.3137 H   0  0  0  0  0  0  0  0  0  0  0  0
   -0.8348   -0.2425    1.2662 H   0  0  0  0  0  0  0  0  0  0  0  0
   -2.7195    1.0479    2.1021 H   0  0  0  0  0  0  0  0  0  0  0  0
  1  2  1  0
  2  3  1  0
  3  4  2  0
  4  5  1  0
  5  6  2  0
  6  7  1  0
  7  8  2  0
  7  9  1  0
  9 10  1  0
 10 11  1  0
 11 12  1  0
 12 13  2  0
 13 14  1  0
 14 15  2  0
 15 16  1  0
 15 17  1  0
 17 18  2  0
  6 19  1  0
 19 20  2  0
 20  3  1  0
 18 12  1  0
  1 21  1  0
  1 22  1  0
  1 23  1  0
  4 24  1  0
  5 25  1  0
 10 26  1  0
 10 27  1  0
 11 28  1  0
 11 29  1  0
 13 30  1  0
 14 31  1  0
 16 32  1  0
 17 33  1  0
 18 34  1  0
 19 35  1  0
 20 36  1  0
M  END
$$$$
