
     RDKit          3D

 44 47  0  0  0  0  0  0  0  0999 V2000
   -1.0808    4.3082   -1.1473 C   0  0  0  0  0  0  0  0  0  0  0  0
   -1.5309    3.0810   -0.5072 N   0  0  0  0  0  0  0  0  0  0  0  0
   -2.8453    2.9551   -0.1026 C   0  0  0  0  0  0  0  0  0  0  0  0
   -3.6775    3.8474   -0.2621 O   0  0  0  0  0  0  0  0  0  0  0  0
   -3.2529    1.6752    0.5528 C   0  0  0  0  0  0  0  0  0  0  0  0
   -4.6204    1.5852    0.9582 C   0  0  0  0  0  0  0  0  0  0  0  0
   -5.7237    1.4697    1.3014 N   0  0  0  0  0  0  0  0  0  0  0  0
   -2.3675    0.6698    0.7428 C   0  0  0  0  0  0  0  0  0  0  0  0
   -2.8381   -0.5767    1.3977 C   0  0  0  0  0  0  0  0  0  0  0  0
   -3.3718   -1.6204    0.6263 C   0  0  0  0  0  0  0  0  0  0  0  0
   -3.8086   -2.7930    1.2446 C   0  0  0  0  0  0  0  0  0  0  0  0
   -3.7095   -2.9195    2.6256 C   0  0  0  0  0  0  0  0  0  0  0  0
   -4.1271   -4.0468    3.2157 F   0  0  0  0  0  0  0  0  0  0  0  0
   -3.1810   -1.8952    3.4030 C   0  0  0  0  0  0  0  0  0  0  0  0
   -2.7432   -0.7199    2.7903 C   0  0  0  0  0  0  0  0  0  0  0  0
   -0.9714    0.8644    0.2859 C   0  0  0  0  0  0  0  0  0  0  0  0
    0.0041   -0.1319    0.4496 C   0  0  0  0  0  0  0  0  0  0  0  0
    1.3089    0.0760   -0.0022 C   0  0  0  0  0  0  0  0  0  0  0  0
    2.3318   -0.9707    0.2110 C   0  0  0  0  0  0  0  0  0  0  0  0
    2.2191   -1.7199    1.1787 O   0  0  0  0  0  0  0  0  0  0  0  0
    3.5108   -1.1319   -0.6710 C   0  0  0  0  0  0  0  0  0  0  0  0
    4.7413   -1.4076   -0.0583 C   0  0  0  0  0  0  0  0  0  0  0  0
    5.8812   -1.5922   -0.8389 C   0  0  0  0  0  0  0  0  0  0  0  0
    7.3909   -1.9130   -0.0801 Cl  0  0  0  0  0  0  0  0  0  0  0  0
    5.8111   -1.5186   -2.2280 C   0  0  0  0  0  0  0  0  0  0  0  0
    4.5830   -1.2676   -2.8367 C   0  0  0  0  0  0  0  0  0  0  0  0
    4.4977   -1.1963   -4.5585 Cl  0  0  0  0  0  0  0  0  0  0  0  0
    3.4290   -1.0792   -2.0662 C   0  0  0  0  0  0  0  0  0  0  0  0
    2.2188   -0.8679   -2.6715 O   0  0  0  0  0  0  0  0  0  0  0  0
    1.6015    1.2971   -0.5816 C   0  0  0  0  0  0  0  0  0  0  0  0
    0.6887    2.2818   -0.7542 N   0  0  0  0  0  0  0  0  0  0  0  0
   -0.5788    2.0567   -0.3255 C   0  0  0  0  0  0  0  0  0  0  0  0
   -0.7089    4.0800   -2.1515 H   0  0  0  0  0  0  0  0  0  0  0  0
   -1.8911    5.0364   -1.2432 H   0  0  0  0  0  0  0  0  0  0  0  0
   -0.2862    4.7620   -0.5461 H   0  0  0  0  0  0  0  0  0  0  0  0
   -3.4535   -1.5297   -0.4547 H   0  0  0  0  0  0  0  0  0  0  0  0
   -4.2271   -3.6070    0.6609 H   0  0  0  0  0  0  0  0  0  0  0  0
   -3.1152   -2.0186    4.4795 H   0  0  0  0  0  0  0  0  0  0  0  0
   -2.3303    0.0762    3.4062 H   0  0  0  0  0  0  0  0  0  0  0  0
   -0.2355   -1.0805    0.9275 H   0  0  0  0  0  0  0  0  0  0  0  0
    4.8045   -1.4819    1.0264 H   0  0  0  0  0  0  0  0  0  0  0  0
    6.7045   -1.6656   -2.8297 H   0  0  0  0  0  0  0  0  0  0  0  0
    2.3502   -0.9202   -3.6393 H   0  0  0  0  0  0  0  0  0  0  0  0
    2.5989    1.5500   -0.9277 H   0  0  0  0  0  0  0  0  0  0  0  0
  1  2  1  0
  2  3  1  0
  3  4  2  0
  3  5  1  0
  5  6  1  0
  6  7  3  0
  5  8  2  0
  8  9  1  0
  9 10  2  0
 10 11  1  0
 11 12  2  0
 12 13  1  0
 12 14  1  0
 14 15  2  0
  8 16  1  0
 16 17  2  0
 17 18  1  0
 18 19  1  0
 19 20  2  0
 19 21  1  0
 21 22  2  0
 22 23  1  0
 23 24  1  0
 23 25  2  0
 25 26  1  0
 26 27  1  0
 26 28  2  0
 28 29  1  0
 18 30  2  0
 30 31  1  0
 31 32  2  0
 32  2  1  0
 15  9  1  0
 32 16  1  0
 28 21  1  0
  1 33  1  0
  1 34  1  0
  1 35  1  0
 10 36  1  0
 11 37  1  0
 14 38  1  0
 15 39  1  0
 17 40  1  0
 22 41  1  0
 25 42  1  0
 29 43  1  0
 30 44  1  0
M  END
$$$$
