
     RDKit          3D

 54 59  0  0  0  0  0  0  0  0999 V2000
    7.1059   -2.3972    0.6366 C   0  0  0  0  0  0  0  0  0  0  0  0
    6.0072   -1.4874    0.1736 C   0  0  0  0  0  0  0  0  0  0  0  0
    4.8232   -2.0157   -0.3500 C   0  0  0  0  0  0  0  0  0  0  0  0
    3.8111   -1.1702   -0.8117 C   0  0  0  0  0  0  0  0  0  0  0  0
    3.9622    0.2223   -0.7585 C   0  0  0  0  0  0  0  0  0  0  0  0
    2.8764    1.1464   -1.2693 C   0  0  0  0  0  0  0  0  0  0  0  0
    1.5817    0.9414   -0.6173 N   0  0  0  0  0  0  0  0  0  0  0  0
    1.2804    1.4720    0.6424 C   0  0  0  0  0  0  0  0  0  0  0  0
    2.3327    2.2852    1.3620 C   0  0  0  0  0  0  0  0  0  0  0  0
    0.1415    1.3179    1.2594 N   0  0  0  0  0  0  0  0  0  0  0  0
   -0.7655    0.5832    0.5825 C   0  0  0  0  0  0  0  0  0  0  0  0
   -0.6082    0.0054   -0.6556 C   0  0  0  0  0  0  0  0  0  0  0  0
    0.6430    0.1788   -1.3427 C   0  0  0  0  0  0  0  0  0  0  0  0
    0.8624   -0.2974   -2.4524 O   0  0  0  0  0  0  0  0  0  0  0  0
   -1.8014   -0.6727   -0.9669 C   0  0  0  0  0  0  0  0  0  0  0  0
   -2.1660   -1.4042   -2.0483 N   0  0  0  0  0  0  0  0  0  0  0  0
   -3.4059   -1.9151   -1.9856 C   0  0  0  0  0  0  0  0  0  0  0  0
   -3.8585   -2.6738   -3.0574 C   0  0  0  0  0  0  0  0  0  0  0  0
   -5.1343   -3.2394   -3.0669 C   0  0  0  0  0  0  0  0  0  0  0  0
   -5.9770   -3.0429   -1.9821 C   0  0  0  0  0  0  0  0  0  0  0  0
   -5.5359   -2.2830   -0.8977 C   0  0  0  0  0  0  0  0  0  0  0  0
   -4.2688   -1.7142   -0.8739 C   0  0  0  0  0  0  0  0  0  0  0  0
   -3.9138   -0.9962    0.2053 N   0  0  0  0  0  0  0  0  0  0  0  0
   -2.6689   -0.4885    0.1077 C   0  0  0  0  0  0  0  0  0  0  0  0
   -2.0290    0.2943    1.0373 N   0  0  0  0  0  0  0  0  0  0  0  0
   -2.5906    0.7040    2.3132 C   0  0  0  0  0  0  0  0  0  0  0  0
   -3.2341    2.0383    2.2094 C   0  0  0  0  0  0  0  0  0  0  0  0
   -2.7568    3.3095    1.9570 C   0  0  0  0  0  0  0  0  0  0  0  0
   -3.8758    4.1746    1.9994 C   0  0  0  0  0  0  0  0  0  0  0  0
   -4.9620    3.3813    2.2830 C   0  0  0  0  0  0  0  0  0  0  0  0
   -4.5822    2.0854    2.4199 O   0  0  0  0  0  0  0  0  0  0  0  0
    5.1653    0.7468   -0.2638 C   0  0  0  0  0  0  0  0  0  0  0  0
    6.1767   -0.0997    0.1982 C   0  0  0  0  0  0  0  0  0  0  0  0
    6.6974   -3.3326    1.0333 H   0  0  0  0  0  0  0  0  0  0  0  0
    7.6867   -1.9308    1.4394 H   0  0  0  0  0  0  0  0  0  0  0  0
    7.7762   -2.6289   -0.1968 H   0  0  0  0  0  0  0  0  0  0  0  0
    4.6804   -3.0929   -0.4082 H   0  0  0  0  0  0  0  0  0  0  0  0
    2.9085   -1.6158   -1.2259 H   0  0  0  0  0  0  0  0  0  0  0  0
    3.1735    2.1911   -1.1310 H   0  0  0  0  0  0  0  0  0  0  0  0
    2.7959    1.0083   -2.3542 H   0  0  0  0  0  0  0  0  0  0  0  0
    3.1749    1.6471    1.6364 H   0  0  0  0  0  0  0  0  0  0  0  0
    1.9161    2.7064    2.2829 H   0  0  0  0  0  0  0  0  0  0  0  0
    2.6752    3.1156    0.7410 H   0  0  0  0  0  0  0  0  0  0  0  0
   -3.1977   -2.8274   -3.9080 H   0  0  0  0  0  0  0  0  0  0  0  0
   -5.4625   -3.8283   -3.9196 H   0  0  0  0  0  0  0  0  0  0  0  0
   -6.9741   -3.4757   -1.9744 H   0  0  0  0  0  0  0  0  0  0  0  0
   -6.1974   -2.1280   -0.0483 H   0  0  0  0  0  0  0  0  0  0  0  0
   -3.3041   -0.0625    2.6348 H   0  0  0  0  0  0  0  0  0  0  0  0
   -1.7812    0.7221    3.0511 H   0  0  0  0  0  0  0  0  0  0  0  0
   -1.7258    3.5713    1.7607 H   0  0  0  0  0  0  0  0  0  0  0  0
   -3.8907    5.2436    1.8424 H   0  0  0  0  0  0  0  0  0  0  0  0
   -6.0175    3.5742    2.4144 H   0  0  0  0  0  0  0  0  0  0  0  0
    5.3299    1.8217   -0.2325 H   0  0  0  0  0  0  0  0  0  0  0  0
    7.1011    0.3321    0.5757 H   0  0  0  0  0  0  0  0  0  0  0  0
  1  2  1  0
  2  3  2  0
  3  4  1  0
  4  5  2  0
  5  6  1  0
  6  7  1  0
  7  8  1  0
  8  9  1  0
  8 10  2  0
 10 11  1  0
 11 12  2  0
 12 13  1  0
 13 14  2  0
 12 15  1  0
 15 16  2  0
 16 17  1  0
 17 18  2  0
 18 19  1  0
 19 20  2  0
 20 21  1  0
 21 22  2  0
 22 23  1  0
 23 24  2  0
 24 25  1  0
 25 26  1  0
 26 27  1  0
 27 28  2  0
 28 29  1  0
 29 30  2  0
 30 31  1  0
  5 32  1  0
 32 33  2  0
 33  2  1  0
 13  7  1  0
 24 15  1  0
 31 27  1  0
 25 11  1  0
 22 17  1  0
  1 34  1  0
  1 35  1  0
  1 36  1  0
  3 37  1  0
  4 38  1  0
  6 39  1  0
  6 40  1  0
  9 41  1  0
  9 42  1  0
  9 43  1  0
 18 44  1  0
 19 45  1  0
 20 46  1  0
 21 47  1  0
 26 48  1  0
 26 49  1  0
 28 50  1  0
 29 51  1  0
 30 52  1  0
 32 53  1  0
 33 54  1  0
M  END
$$$$
