
     RDKit          3D

 53 55  0  0  0  0  0  0  0  0999 V2000
   -3.4167    1.3065    3.5476 C   0  0  0  0  0  0  0  0  0  0  0  0
   -3.6432    0.4765    2.4152 O   0  0  0  0  0  0  0  0  0  0  0  0
   -4.7044    0.7898    1.6059 C   0  0  0  0  0  0  0  0  0  0  0  0
   -5.5592    1.8802    1.7995 C   0  0  0  0  0  0  0  0  0  0  0  0
   -6.6036    2.1296    0.9055 C   0  0  0  0  0  0  0  0  0  0  0  0
   -6.8002    1.2963   -0.1908 C   0  0  0  0  0  0  0  0  0  0  0  0
   -5.9555    0.2069   -0.3926 C   0  0  0  0  0  0  0  0  0  0  0  0
   -4.9092   -0.0648    0.5057 C   0  0  0  0  0  0  0  0  0  0  0  0
   -4.0056   -1.2424    0.2453 C   0  0  0  0  0  0  0  0  0  0  0  0
   -2.7999   -0.8323   -0.4268 N   0  0  0  0  0  0  0  0  0  0  0  0
   -1.9513   -1.7499   -0.9946 C   0  0  0  0  0  0  0  0  0  0  0  0
   -2.1802   -2.9385   -1.1687 O   0  0  0  0  0  0  0  0  0  0  0  0
   -0.5862   -1.1556   -1.4105 C   0  0  0  0  0  0  0  0  0  0  0  0
   -0.2846   -0.0113   -1.0994 O   0  0  0  0  0  0  0  0  0  0  0  0
    0.2155   -2.0343   -2.1007 N   0  0  0  0  0  0  0  0  0  0  0  0
    1.5787   -1.6966   -2.4776 C   0  0  0  0  0  0  0  0  0  0  0  0
    2.5160   -1.5070   -1.2699 C   0  0  0  0  0  0  0  0  0  0  0  0
    2.6375   -2.7622   -0.5655 O   0  0  0  0  0  0  0  0  0  0  0  0
    3.9080   -2.7026    0.0876 C   0  0  0  0  0  0  0  0  0  0  0  0
    4.8064   -2.0242   -0.9236 C   0  0  0  0  0  0  0  0  0  0  0  0
    3.8864   -1.1600   -1.6723 N   0  0  0  0  0  0  0  0  0  0  0  0
    4.2700    0.4529   -1.9201 S   0  0  0  0  0  6  0  0  0  0  0  0
    5.6728    0.5200   -2.2725 O   0  0  0  0  0  0  0  0  0  0  0  0
    3.2606    1.0312   -2.7787 O   0  0  0  0  0  0  0  0  0  0  0  0
    4.0934    1.1974   -0.3098 C   0  0  0  0  0  0  0  0  0  0  0  0
    5.1964    1.2663    0.5481 C   0  0  0  0  0  0  0  0  0  0  0  0
    5.0602    1.8725    1.7987 C   0  0  0  0  0  0  0  0  0  0  0  0
    3.8319    2.4189    2.1746 C   0  0  0  0  0  0  0  0  0  0  0  0
    3.6506    3.2356    3.8697 Br  0  0  0  0  0  0  0  0  0  0  0  0
    2.7392    2.3762    1.3082 C   0  0  0  0  0  0  0  0  0  0  0  0
    2.8710    1.7734    0.0559 C   0  0  0  0  0  0  0  0  0  0  0  0
   -2.5480    0.9107    4.0825 H   0  0  0  0  0  0  0  0  0  0  0  0
   -4.2697    1.2807    4.2336 H   0  0  0  0  0  0  0  0  0  0  0  0
   -3.1809    2.3318    3.2442 H   0  0  0  0  0  0  0  0  0  0  0  0
   -5.4388    2.5615    2.6351 H   0  0  0  0  0  0  0  0  0  0  0  0
   -7.2611    2.9808    1.0639 H   0  0  0  0  0  0  0  0  0  0  0  0
   -7.6080    1.4956   -0.8902 H   0  0  0  0  0  0  0  0  0  0  0  0
   -6.1130   -0.4331   -1.2586 H   0  0  0  0  0  0  0  0  0  0  0  0
   -4.5158   -1.9984   -0.3640 H   0  0  0  0  0  0  0  0  0  0  0  0
   -3.7287   -1.7423    1.1808 H   0  0  0  0  0  0  0  0  0  0  0  0
   -2.3965    0.0702   -0.1920 H   0  0  0  0  0  0  0  0  0  0  0  0
   -0.1011   -2.9998   -2.1480 H   0  0  0  0  0  0  0  0  0  0  0  0
    1.5314   -0.7873   -3.0831 H   0  0  0  0  0  0  0  0  0  0  0  0
    1.9356   -2.5140   -3.1138 H   0  0  0  0  0  0  0  0  0  0  0  0
    2.1097   -0.7905   -0.5531 H   0  0  0  0  0  0  0  0  0  0  0  0
    3.8039   -2.1065    1.0013 H   0  0  0  0  0  0  0  0  0  0  0  0
    4.2467   -3.7075    0.3524 H   0  0  0  0  0  0  0  0  0  0  0  0
    5.2225   -2.7570   -1.6234 H   0  0  0  0  0  0  0  0  0  0  0  0
    5.6348   -1.5032   -0.4404 H   0  0  0  0  0  0  0  0  0  0  0  0
    6.1621    0.8647    0.2486 H   0  0  0  0  0  0  0  0  0  0  0  0
    5.9165    1.9246    2.4669 H   0  0  0  0  0  0  0  0  0  0  0  0
    1.7854    2.8141    1.5929 H   0  0  0  0  0  0  0  0  0  0  0  0
    2.0181    1.7566   -0.6221 H   0  0  0  0  0  0  0  0  0  0  0  0
  1  2  1  0
  2  3  1  0
  3  4  2  0
  4  5  1  0
  5  6  2  0
  6  7  1  0
  7  8  2  0
  8  9  1  0
  9 10  1  0
 10 11  1  0
 11 12  2  0
 11 13  1  0
 13 14  2  0
 13 15  1  0
 15 16  1  0
 16 17  1  0
 17 18  1  0
 18 19  1  0
 19 20  1  0
 20 21  1  0
 21 22  1  0
 22 23  2  0
 22 24  2  0
 22 25  1  0
 25 26  2  0
 26 27  1  0
 27 28  2  0
 28 29  1  0
 28 30  1  0
 30 31  2  0
  8  3  1  0
 21 17  1  0
 31 25  1  0
  1 32  1  0
  1 33  1  0
  1 34  1  0
  4 35  1  0
  5 36  1  0
  6 37  1  0
  7 38  1  0
  9 39  1  0
  9 40  1  0
 10 41  1  0
 15 42  1  0
 16 43  1  0
 16 44  1  0
 17 45  1  0
 19 46  1  0
 19 47  1  0
 20 48  1  0
 20 49  1  0
 26 50  1  0
 27 51  1  0
 30 52  1  0
 31 53  1  0
M  END
$$$$
