
     RDKit          3D

 47 51  0  0  0  0  0  0  0  0999 V2000
   -1.7327   -2.8982   -2.5510 C   0  0  0  0  0  0  0  0  0  0  0  0
   -1.9849   -1.6243   -1.8063 C   0  0  0  0  0  0  0  0  0  0  0  0
   -2.9931   -0.8670   -2.1621 N   0  0  0  0  0  0  0  0  0  0  0  0
   -3.1955    0.2877   -1.4570 C   0  0  0  0  0  0  0  0  0  0  0  0
   -4.4761    1.3653   -1.8115 S   0  0  0  0  0  0  0  0  0  0  0  0
   -4.0063    2.4328   -0.5624 C   0  0  0  0  0  0  0  0  0  0  0  0
   -2.8979    1.9914    0.1399 C   0  0  0  0  0  0  0  0  0  0  0  0
   -2.4542    0.7647   -0.3970 C   0  0  0  0  0  0  0  0  0  0  0  0
   -1.2838   -0.1508   -0.0234 C   0  0  0  0  0  0  0  0  0  0  0  0
   -0.3756   -0.0202    0.9096 N   0  0  0  0  0  0  0  0  0  0  0  0
    0.4423   -1.1195    0.8190 N   0  0  0  0  0  0  0  0  0  0  0  0
    0.0041   -1.8828   -0.1609 C   0  0  0  0  0  0  0  0  0  0  0  0
    0.7747   -3.3588   -0.6253 S   0  0  0  0  0  0  0  0  0  0  0  0
    1.3568   -3.9736    0.9835 C   0  0  0  0  0  0  0  0  0  0  0  0
    2.6190   -3.3188    1.5237 C   0  0  0  0  0  0  0  0  0  0  0  0
    3.0015   -3.5548    2.6712 O   0  0  0  0  0  0  0  0  0  0  0  0
    3.3349   -2.5196    0.6679 N   0  0  0  0  0  0  0  0  0  0  0  0
    4.4806   -1.7818    1.1432 C   0  0  0  0  0  0  0  0  0  0  0  0
    4.9986   -0.9382    0.0404 C   0  0  0  0  0  0  0  0  0  0  0  0
    4.8550    0.3973   -0.2757 C   0  0  0  0  0  0  0  0  0  0  0  0
    5.5932    0.6085   -1.4651 C   0  0  0  0  0  0  0  0  0  0  0  0
    6.1357   -0.6088   -1.8017 C   0  0  0  0  0  0  0  0  0  0  0  0
    5.7770   -1.5551   -0.8961 O   0  0  0  0  0  0  0  0  0  0  0  0
   -1.1039   -1.3088   -0.7507 N   0  0  0  0  0  0  0  0  0  0  0  0
   -2.3001    2.7745    1.2671 C   0  0  0  0  0  0  0  0  0  0  0  0
   -3.2812    3.8337    1.7964 C   0  0  0  0  0  0  0  0  0  0  0  0
   -3.9482    4.6111    0.6515 C   0  0  0  0  0  0  0  0  0  0  0  0
   -4.7662    3.6891   -0.2673 C   0  0  0  0  0  0  0  0  0  0  0  0
   -1.7809   -3.7566   -1.8776 H   0  0  0  0  0  0  0  0  0  0  0  0
   -0.7671   -2.8526   -3.0653 H   0  0  0  0  0  0  0  0  0  0  0  0
   -2.5062   -3.0366   -3.3143 H   0  0  0  0  0  0  0  0  0  0  0  0
    1.5711   -5.0405    0.8707 H   0  0  0  0  0  0  0  0  0  0  0  0
    0.5609   -3.8631    1.7265 H   0  0  0  0  0  0  0  0  0  0  0  0
    2.8753   -2.1909   -0.1735 H   0  0  0  0  0  0  0  0  0  0  0  0
    4.1709   -1.1664    1.9946 H   0  0  0  0  0  0  0  0  0  0  0  0
    5.2369   -2.4929    1.4922 H   0  0  0  0  0  0  0  0  0  0  0  0
    4.2854    1.1259    0.2865 H   0  0  0  0  0  0  0  0  0  0  0  0
    5.7142    1.5342   -2.0118 H   0  0  0  0  0  0  0  0  0  0  0  0
    6.7639   -0.9515   -2.6107 H   0  0  0  0  0  0  0  0  0  0  0  0
   -2.0030    2.1097    2.0857 H   0  0  0  0  0  0  0  0  0  0  0  0
   -1.3928    3.2752    0.9010 H   0  0  0  0  0  0  0  0  0  0  0  0
   -4.0590    3.3459    2.3998 H   0  0  0  0  0  0  0  0  0  0  0  0
   -2.7484    4.5269    2.4573 H   0  0  0  0  0  0  0  0  0  0  0  0
   -4.5992    5.3907    1.0583 H   0  0  0  0  0  0  0  0  0  0  0  0
   -3.1721    5.1180    0.0643 H   0  0  0  0  0  0  0  0  0  0  0  0
   -5.7074    3.4258    0.2299 H   0  0  0  0  0  0  0  0  0  0  0  0
   -5.0164    4.2239   -1.1891 H   0  0  0  0  0  0  0  0  0  0  0  0
  1  2  1  0
  2  3  2  0
  3  4  1  0
  4  5  1  0
  5  6  1  0
  6  7  2  0
  7  8  1  0
  8  9  1  0
  9 10  2  0
 10 11  1  0
 11 12  2  0
 12 13  1  0
 13 14  1  0
 14 15  1  0
 15 16  2  0
 15 17  1  0
 17 18  1  0
 18 19  1  0
 19 20  2  0
 20 21  1  0
 21 22  2  0
 22 23  1  0
 12 24  1  0
  7 25  1  0
 25 26  1  0
 26 27  1  0
 27 28  1  0
 24  2  1  0
  8  4  2  0
 24  9  1  0
 28  6  1  0
 23 19  1  0
  1 29  1  0
  1 30  1  0
  1 31  1  0
 14 32  1  0
 14 33  1  0
 17 34  1  0
 18 35  1  0
 18 36  1  0
 20 37  1  0
 21 38  1  0
 22 39  1  0
 25 40  1  0
 25 41  1  0
 26 42  1  0
 26 43  1  0
 27 44  1  0
 27 45  1  0
 28 46  1  0
 28 47  1  0
M  END
$$$$
