
     RDKit          3D

 60 64  0  0  0  0  0  0  0  0999 V2000
   -1.5194    0.4297   -3.9149 C   0  0  0  0  0  0  0  0  0  0  0  0
   -2.1430    0.3299   -2.5989 N   0  0  0  0  0  0  0  0  0  0  0  0
   -3.5264    0.5116   -2.5435 C   0  0  0  0  0  0  0  0  0  0  0  0
   -4.1932    0.7780   -3.5482 O   0  0  0  0  0  0  0  0  0  0  0  0
   -4.2330    0.3255   -1.2340 C   0  0  0  0  0  0  0  0  0  0  0  0
   -5.5112   -0.0960   -1.2851 C   0  0  0  0  0  0  0  0  0  0  0  0
   -6.3942   -0.3168   -0.1351 C   0  0  0  0  0  0  0  0  0  0  0  0
   -6.6391   -1.6179    0.3130 C   0  0  0  0  0  0  0  0  0  0  0  0
   -7.4710   -1.8378    1.4145 C   0  0  0  0  0  0  0  0  0  0  0  0
   -8.0737   -0.7589    2.0813 C   0  0  0  0  0  0  0  0  0  0  0  0
   -8.9528   -1.0088    3.2824 C   0  0  0  0  0  0  0  0  0  0  0  0
   -8.2463   -1.4579    4.3566 F   0  0  0  0  0  0  0  0  0  0  0  0
   -9.6183    0.1005    3.7121 F   0  0  0  0  0  0  0  0  0  0  0  0
   -9.9110   -1.9482    3.0459 F   0  0  0  0  0  0  0  0  0  0  0  0
   -7.8251    0.5434    1.6236 C   0  0  0  0  0  0  0  0  0  0  0  0
   -6.9946    0.7622    0.5210 C   0  0  0  0  0  0  0  0  0  0  0  0
   -3.4141    0.7330    0.2203 S   0  0  0  0  0  0  0  0  0  0  0  0
   -1.8195    0.0600   -0.1598 C   0  0  0  0  0  0  0  0  0  0  0  0
   -1.0194   -0.3228    0.9327 C   0  0  0  0  0  0  0  0  0  0  0  0
    0.2694   -0.8082    0.7346 C   0  0  0  0  0  0  0  0  0  0  0  0
    0.7648   -0.8848   -0.5632 C   0  0  0  0  0  0  0  0  0  0  0  0
    2.1160   -1.4200   -0.8028 C   0  0  0  0  0  0  0  0  0  0  0  0
    2.1955   -2.5670   -1.2307 O   0  0  0  0  0  0  0  0  0  0  0  0
    3.2051   -0.5990   -0.5500 N   0  0  0  0  0  0  0  0  0  0  0  0
    3.1304    0.8275   -0.1958 C   0  0  0  0  0  0  0  0  0  0  0  0
    4.4058    1.3291    0.5069 C   0  0  0  0  0  0  0  0  0  0  0  0
    5.6291    1.0790   -0.2935 N   0  0  0  0  0  0  0  0  0  0  0  0
    6.7590    0.9625    0.5454 C   0  0  0  0  0  0  0  0  0  0  0  0
    7.1779    2.0745    1.2807 C   0  0  0  0  0  0  0  0  0  0  0  0
    8.2834    1.9749    2.1237 C   0  0  0  0  0  0  0  0  0  0  0  0
    8.9542    0.7663    2.2170 C   0  0  0  0  0  0  0  0  0  0  0  0
    8.4878   -0.2893    1.4558 C   0  0  0  0  0  0  0  0  0  0  0  0
    7.4170   -0.2130    0.6333 N   0  0  0  0  0  0  0  0  0  0  0  0
    5.5132   -0.0150   -1.2868 C   0  0  0  0  0  0  0  0  0  0  0  0
    4.5539   -1.1207   -0.8223 C   0  0  0  0  0  0  0  0  0  0  0  0
   -0.0247   -0.5210   -1.6600 C   0  0  0  0  0  0  0  0  0  0  0  0
   -1.3348   -0.0441   -1.4757 C   0  0  0  0  0  0  0  0  0  0  0  0
   -2.1783    0.9040   -4.6483 H   0  0  0  0  0  0  0  0  0  0  0  0
   -1.2813   -0.5759   -4.2766 H   0  0  0  0  0  0  0  0  0  0  0  0
   -0.6138    1.0420   -3.8529 H   0  0  0  0  0  0  0  0  0  0  0  0
   -5.9748   -0.3207   -2.2447 H   0  0  0  0  0  0  0  0  0  0  0  0
   -6.1812   -2.4691   -0.1880 H   0  0  0  0  0  0  0  0  0  0  0  0
   -7.6457   -2.8575    1.7545 H   0  0  0  0  0  0  0  0  0  0  0  0
   -8.2749    1.3993    2.1257 H   0  0  0  0  0  0  0  0  0  0  0  0
   -6.8154    1.7804    0.1823 H   0  0  0  0  0  0  0  0  0  0  0  0
   -1.4029   -0.2468    1.9493 H   0  0  0  0  0  0  0  0  0  0  0  0
    0.8758   -1.1241    1.5795 H   0  0  0  0  0  0  0  0  0  0  0  0
    2.9734    1.3780   -1.1314 H   0  0  0  0  0  0  0  0  0  0  0  0
    2.2672    1.0176    0.4461 H   0  0  0  0  0  0  0  0  0  0  0  0
    4.3075    2.4048    0.6937 H   0  0  0  0  0  0  0  0  0  0  0  0
    4.4685    0.8222    1.4806 H   0  0  0  0  0  0  0  0  0  0  0  0
    6.6551    3.0199    1.1855 H   0  0  0  0  0  0  0  0  0  0  0  0
    8.6123    2.8352    2.6994 H   0  0  0  0  0  0  0  0  0  0  0  0
    9.8183    0.6492    2.8605 H   0  0  0  0  0  0  0  0  0  0  0  0
    8.9763   -1.2586    1.4857 H   0  0  0  0  0  0  0  0  0  0  0  0
    5.1115    0.4304   -2.2071 H   0  0  0  0  0  0  0  0  0  0  0  0
    6.4853   -0.4350   -1.5740 H   0  0  0  0  0  0  0  0  0  0  0  0
    4.9096   -1.5760    0.1090 H   0  0  0  0  0  0  0  0  0  0  0  0
    4.5048   -1.9088   -1.5804 H   0  0  0  0  0  0  0  0  0  0  0  0
    0.4053   -0.6510   -2.6494 H   0  0  0  0  0  0  0  0  0  0  0  0
  1  2  1  0
  2  3  1  0
  3  4  2  0
  3  5  1  0
  5  6  2  3
  6  7  1  0
  7  8  2  0
  8  9  1  0
  9 10  2  0
 10 11  1  0
 11 12  1  0
 11 13  1  0
 11 14  1  0
 10 15  1  0
 15 16  2  0
  5 17  1  0
 17 18  1  0
 18 19  2  0
 19 20  1  0
 20 21  2  0
 21 22  1  0
 22 23  2  0
 22 24  1  0
 24 25  1  0
 25 26  1  0
 26 27  1  0
 27 28  1  0
 28 29  2  0
 29 30  1  0
 30 31  2  0
 31 32  1  0
 32 33  2  0
 27 34  1  0
 34 35  1  0
 21 36  1  0
 36 37  2  0
 37  2  1  0
 16  7  1  0
 37 18  1  0
 35 24  1  0
 33 28  1  0
  1 38  1  0
  1 39  1  0
  1 40  1  0
  6 41  1  0
  8 42  1  0
  9 43  1  0
 15 44  1  0
 16 45  1  0
 19 46  1  0
 20 47  1  0
 25 48  1  0
 25 49  1  0
 26 50  1  0
 26 51  1  0
 29 52  1  0
 30 53  1  0
 31 54  1  0
 32 55  1  0
 34 56  1  0
 34 57  1  0
 35 58  1  0
 35 59  1  0
 36 60  1  0
M  END
$$$$
