
     RDKit          3D

 33 35  0  0  0  0  0  0  0  0999 V2000
    6.0373   -0.5821    0.4287 C   0  0  0  0  0  0  0  0  0  0  0  0
    4.9825    0.1632   -0.1670 O   0  0  0  0  0  0  0  0  0  0  0  0
    3.7071   -0.1731    0.1937 C   0  0  0  0  0  0  0  0  0  0  0  0
    3.3463   -1.1760    1.0926 C   0  0  0  0  0  0  0  0  0  0  0  0
    1.9968   -1.4092    1.3773 C   0  0  0  0  0  0  0  0  0  0  0  0
    0.9989   -0.6472    0.7577 C   0  0  0  0  0  0  0  0  0  0  0  0
    1.3508    0.3560   -0.1529 C   0  0  0  0  0  0  0  0  0  0  0  0
    2.7080    0.5910   -0.4189 C   0  0  0  0  0  0  0  0  0  0  0  0
    0.2927    1.2131   -0.7864 C   0  0  0  0  0  0  0  0  0  0  0  0
   -0.9977    0.4270   -1.0058 C   0  0  0  0  0  0  0  0  0  0  0  0
   -1.4761   -0.2318    0.2587 C   0  0  0  0  0  0  0  0  0  0  0  0
   -2.7332   -0.3105    0.7356 C   0  0  0  0  0  0  0  0  0  0  0  0
   -3.8936    0.1943    0.0839 C   0  0  0  0  0  0  0  0  0  0  0  0
   -5.1597    0.3854    0.6306 C   0  0  0  0  0  0  0  0  0  0  0  0
   -6.0097    0.8819   -0.3852 C   0  0  0  0  0  0  0  0  0  0  0  0
   -5.2329    0.9638   -1.5107 C   0  0  0  0  0  0  0  0  0  0  0  0
   -3.9710    0.5518   -1.2441 O   0  0  0  0  0  0  0  0  0  0  0  0
   -0.4254   -0.9038    1.0985 C   0  0  0  0  0  0  0  0  0  0  0  0
   -0.7086   -1.6491    2.0315 O   0  0  0  0  0  0  0  0  0  0  0  0
    5.9746   -1.6411    0.1573 H   0  0  0  0  0  0  0  0  0  0  0  0
    6.9828   -0.1939    0.0380 H   0  0  0  0  0  0  0  0  0  0  0  0
    6.0476   -0.4516    1.5159 H   0  0  0  0  0  0  0  0  0  0  0  0
    4.0857   -1.7911    1.5947 H   0  0  0  0  0  0  0  0  0  0  0  0
    1.7270   -2.1880    2.0885 H   0  0  0  0  0  0  0  0  0  0  0  0
    3.0003    1.3791   -1.1106 H   0  0  0  0  0  0  0  0  0  0  0  0
    0.1075    2.0796   -0.1393 H   0  0  0  0  0  0  0  0  0  0  0  0
    0.6417    1.5920   -1.7545 H   0  0  0  0  0  0  0  0  0  0  0  0
   -0.8348   -0.3512   -1.7628 H   0  0  0  0  0  0  0  0  0  0  0  0
   -1.7290    1.1267   -1.4165 H   0  0  0  0  0  0  0  0  0  0  0  0
   -2.9115   -0.8061    1.6891 H   0  0  0  0  0  0  0  0  0  0  0  0
   -5.4307    0.1845    1.6585 H   0  0  0  0  0  0  0  0  0  0  0  0
   -7.0558    1.1409   -0.3060 H   0  0  0  0  0  0  0  0  0  0  0  0
   -5.4180    1.2755   -2.5290 H   0  0  0  0  0  0  0  0  0  0  0  0
  1  2  1  0
  2  3  1  0
  3  4  2  0
  4  5  1  0
  5  6  2  0
  6  7  1  0
  7  8  2  0
  7  9  1  0
  9 10  1  0
 10 11  1  0
 11 12  2  3
 12 13  1  0
 13 14  2  0
 14 15  1  0
 15 16  2  0
 16 17  1  0
 11 18  1  0
 18 19  2  0
  8  3  1  0
 17 13  1  0
 18  6  1  0
  1 20  1  0
  1 21  1  0
  1 22  1  0
  4 23  1  0
  5 24  1  0
  8 25  1  0
  9 26  1  0
  9 27  1  0
 10 28  1  0
 10 29  1  0
 12 30  1  0
 14 31  1  0
 15 32  1  0
 16 33  1  0
M  END
$$$$
