
     RDKit          3D

 71 75  0  0  0  0  0  0  0  0999 V2000
   -8.5167   -1.7000    0.0499 C   0  0  0  0  0  0  0  0  0  0  0  0
   -7.0686   -1.6201   -0.3348 C   0  0  0  0  0  0  0  0  0  0  0  0
   -6.6902   -1.3462   -1.6485 C   0  0  0  0  0  0  0  0  0  0  0  0
   -5.3394   -1.2576   -1.9890 C   0  0  0  0  0  0  0  0  0  0  0  0
   -4.3346   -1.4318   -1.0231 C   0  0  0  0  0  0  0  0  0  0  0  0
   -2.8954   -1.3406   -1.4563 C   0  0  0  0  0  0  0  0  0  0  0  0
   -4.7025   -1.6868    0.3152 C   0  0  0  0  0  0  0  0  0  0  0  0
   -3.6834   -1.8910    1.4179 C   0  0  0  0  0  0  0  0  0  0  0  0
   -3.7392   -0.8377    2.4149 N   0  0  0  0  0  0  0  0  0  0  0  0
   -4.4843   -0.9826    3.5418 N   0  0  0  0  0  0  0  0  0  0  0  0
   -4.2880    0.0942    4.3026 N   0  0  0  0  0  0  0  0  0  0  0  0
   -3.4010    0.8917    3.6512 C   0  0  0  0  0  0  0  0  0  0  0  0
   -2.8057    2.1434    4.0309 C   0  0  0  0  0  0  0  0  0  0  0  0
   -3.0360    2.7706    5.0585 O   0  0  0  0  0  0  0  0  0  0  0  0
   -1.8891    2.5941    3.0884 N   0  0  0  0  0  0  0  0  0  0  0  0
   -1.5971    1.9298    1.8979 C   0  0  0  0  0  0  0  0  0  0  0  0
   -0.5023    2.5907    1.0605 C   0  0  0  0  0  0  0  0  0  0  0  0
    0.8654    2.1997    1.6371 C   0  0  0  0  0  0  0  0  0  0  0  0
    1.1807    0.7148    1.4205 C   0  0  0  0  0  0  0  0  0  0  0  0
    0.6842    0.2415    0.1121 N   0  0  0  0  0  0  0  0  0  0  0  0
    1.1144   -1.3202   -0.3755 S   0  0  0  0  0  6  0  0  0  0  0  0
    1.0484   -2.1847    0.7846 O   0  0  0  0  0  0  0  0  0  0  0  0
    0.3941   -1.6389   -1.5908 O   0  0  0  0  0  0  0  0  0  0  0  0
    2.8354   -1.1456   -0.8165 C   0  0  0  0  0  0  0  0  0  0  0  0
    3.8256   -1.5004    0.1081 C   0  0  0  0  0  0  0  0  0  0  0  0
    5.1707   -1.4207   -0.2562 C   0  0  0  0  0  0  0  0  0  0  0  0
    5.5142   -0.9857   -1.5417 C   0  0  0  0  0  0  0  0  0  0  0  0
    7.2329   -0.9451   -2.0269 S   0  0  0  0  0  6  0  0  0  0  0  0
    7.2718   -1.0406   -3.4708 O   0  0  0  0  0  0  0  0  0  0  0  0
    7.9358   -1.8958   -1.1921 O   0  0  0  0  0  0  0  0  0  0  0  0
    7.7212    0.6228   -1.5838 N   0  0  0  0  0  0  0  0  0  0  0  0
    7.8346    0.9103   -0.1457 C   0  0  0  0  0  0  0  0  0  0  0  0
    7.1730    1.7408   -2.3683 C   0  0  0  0  0  0  0  0  0  0  0  0
    4.5228   -0.6677   -2.4784 C   0  0  0  0  0  0  0  0  0  0  0  0
    3.1776   -0.7478   -2.1142 C   0  0  0  0  0  0  0  0  0  0  0  0
    0.4946    1.2789   -0.9081 C   0  0  0  0  0  0  0  0  0  0  0  0
   -0.5875    2.2539   -0.4382 C   0  0  0  0  0  0  0  0  0  0  0  0
   -2.1421    0.7994    1.5464 N   0  0  0  0  0  0  0  0  0  0  0  0
   -3.0299    0.3291    2.4545 C   0  0  0  0  0  0  0  0  0  0  0  0
   -6.0733   -1.7791    0.6371 C   0  0  0  0  0  0  0  0  0  0  0  0
   -8.6814   -2.5256    0.7513 H   0  0  0  0  0  0  0  0  0  0  0  0
   -8.8330   -0.7620    0.5179 H   0  0  0  0  0  0  0  0  0  0  0  0
   -9.1496   -1.8857   -0.8241 H   0  0  0  0  0  0  0  0  0  0  0  0
   -7.4430   -1.2055   -2.4203 H   0  0  0  0  0  0  0  0  0  0  0  0
   -5.0748   -1.0547   -3.0249 H   0  0  0  0  0  0  0  0  0  0  0  0
   -2.3728   -2.2768   -1.2348 H   0  0  0  0  0  0  0  0  0  0  0  0
   -2.8083   -1.1666   -2.5336 H   0  0  0  0  0  0  0  0  0  0  0  0
   -2.4002   -0.5084   -0.9482 H   0  0  0  0  0  0  0  0  0  0  0  0
   -3.8715   -2.8461    1.9243 H   0  0  0  0  0  0  0  0  0  0  0  0
   -2.6547   -1.9326    1.0473 H   0  0  0  0  0  0  0  0  0  0  0  0
   -1.4499    3.4734    3.3171 H   0  0  0  0  0  0  0  0  0  0  0  0
   -0.6287    3.6764    1.1725 H   0  0  0  0  0  0  0  0  0  0  0  0
    0.9284    2.4287    2.7075 H   0  0  0  0  0  0  0  0  0  0  0  0
    1.6396    2.8059    1.1481 H   0  0  0  0  0  0  0  0  0  0  0  0
    2.2622    0.5697    1.5068 H   0  0  0  0  0  0  0  0  0  0  0  0
    0.6960    0.1264    2.2086 H   0  0  0  0  0  0  0  0  0  0  0  0
    3.5555   -1.8597    1.0994 H   0  0  0  0  0  0  0  0  0  0  0  0
    5.9412   -1.7184    0.4534 H   0  0  0  0  0  0  0  0  0  0  0  0
    8.4317    1.8162    0.0034 H   0  0  0  0  0  0  0  0  0  0  0  0
    6.8494    1.0679    0.3028 H   0  0  0  0  0  0  0  0  0  0  0  0
    8.3491    0.1023    0.3807 H   0  0  0  0  0  0  0  0  0  0  0  0
    7.2608    1.5488   -3.4408 H   0  0  0  0  0  0  0  0  0  0  0  0
    6.1259    1.9237   -2.1126 H   0  0  0  0  0  0  0  0  0  0  0  0
    7.7430    2.6528   -2.1618 H   0  0  0  0  0  0  0  0  0  0  0  0
    4.7894   -0.3830   -3.4947 H   0  0  0  0  0  0  0  0  0  0  0  0
    2.4068   -0.5286   -2.8506 H   0  0  0  0  0  0  0  0  0  0  0  0
    1.4413    1.8057   -1.0763 H   0  0  0  0  0  0  0  0  0  0  0  0
    0.1858    0.8573   -1.8693 H   0  0  0  0  0  0  0  0  0  0  0  0
   -1.5779    1.8613   -0.6969 H   0  0  0  0  0  0  0  0  0  0  0  0
   -0.4792    3.1782   -1.0203 H   0  0  0  0  0  0  0  0  0  0  0  0
   -6.3724   -1.9800    1.6670 H   0  0  0  0  0  0  0  0  0  0  0  0
  1  2  1  0
  2  3  2  0
  3  4  1  0
  4  5  2  0
  5  6  1  0
  5  7  1  0
  7  8  1  0
  8  9  1  0
  9 10  1  0
 10 11  2  0
 11 12  1  0
 12 13  1  0
 13 14  2  0
 13 15  1  0
 15 16  1  0
 16 17  1  0
 17 18  1  0
 18 19  1  0
 19 20  1  0
 20 21  1  0
 21 22  2  0
 21 23  2  0
 21 24  1  0
 24 25  2  0
 25 26  1  0
 26 27  2  0
 27 28  1  0
 28 29  2  0
 28 30  2  0
 28 31  1  0
 31 32  1  0
 31 33  1  0
 27 34  1  0
 34 35  2  0
 20 36  1  0
 36 37  1  0
 16 38  2  0
 38 39  1  0
  7 40  2  0
 40  2  1  0
 39  9  1  0
 39 12  2  0
 37 17  1  0
 35 24  1  0
  1 41  1  0
  1 42  1  0
  1 43  1  0
  3 44  1  0
  4 45  1  0
  6 46  1  0
  6 47  1  0
  6 48  1  0
  8 49  1  0
  8 50  1  0
 15 51  1  0
 17 52  1  0
 18 53  1  0
 18 54  1  0
 19 55  1  0
 19 56  1  0
 25 57  1  0
 26 58  1  0
 32 59  1  0
 32 60  1  0
 32 61  1  0
 33 62  1  0
 33 63  1  0
 33 64  1  0
 34 65  1  0
 35 66  1  0
 36 67  1  0
 36 68  1  0
 37 69  1  0
 37 70  1  0
 40 71  1  0
M  END
$$$$
