
     RDKit          3D

 57 60  0  0  0  0  0  0  0  0999 V2000
   -7.0165    0.4299    3.9794 C   0  0  0  0  0  0  0  0  0  0  0  0
   -6.7761    1.5413    2.9690 C   0  0  0  0  0  0  0  0  0  0  0  0
   -5.7646    1.1412    1.9264 C   0  0  0  0  0  0  0  0  0  0  0  0
   -4.4041    1.3987    2.1162 C   0  0  0  0  0  0  0  0  0  0  0  0
   -3.4637    1.0103    1.1534 C   0  0  0  0  0  0  0  0  0  0  0  0
   -3.8491    0.3447   -0.0244 C   0  0  0  0  0  0  0  0  0  0  0  0
   -2.8729   -0.0827   -1.0513 C   0  0  0  0  0  0  0  0  0  0  0  0
   -1.5568   -0.3995   -0.7620 C   0  0  0  0  0  0  0  0  0  0  0  0
   -0.7246   -0.7982   -1.8096 C   0  0  0  0  0  0  0  0  0  0  0  0
    0.6818   -1.1107   -1.4778 C   0  0  0  0  0  0  0  0  0  0  0  0
    1.0579   -2.2697   -1.5689 O   0  0  0  0  0  0  0  0  0  0  0  0
    1.4131    0.0002   -1.1025 N   0  0  0  0  0  0  0  0  0  0  0  0
    2.7701    0.0387   -0.7222 C   0  0  0  0  0  0  0  0  0  0  0  0
    3.3205    1.2985   -0.4452 C   0  0  0  0  0  0  0  0  0  0  0  0
    4.6602    1.4261   -0.0656 C   0  0  0  0  0  0  0  0  0  0  0  0
    5.4547    0.2839    0.0504 C   0  0  0  0  0  0  0  0  0  0  0  0
    7.1694    0.4440    0.4763 S   0  0  0  0  0  6  0  0  0  0  0  0
    7.8997   -0.6967   -0.0258 O   0  0  0  0  0  0  0  0  0  0  0  0
    7.5749    1.7920    0.1300 O   0  0  0  0  0  0  0  0  0  0  0  0
    7.1631    0.4132    2.1365 N   0  0  0  0  0  0  0  0  0  0  0  0
    6.8321   -0.6948    2.9236 C   0  0  0  0  0  0  0  0  0  0  0  0
    7.0378   -0.4792    4.3965 C   0  0  0  0  0  0  0  0  0  0  0  0
    6.3871   -1.7377    2.4704 O   0  0  0  0  0  0  0  0  0  0  0  0
    4.9233   -0.9740   -0.2343 C   0  0  0  0  0  0  0  0  0  0  0  0
    3.5810   -1.0938   -0.6116 C   0  0  0  0  0  0  0  0  0  0  0  0
   -1.1996   -0.9009   -3.1307 C   0  0  0  0  0  0  0  0  0  0  0  0
   -0.4208   -1.3088   -4.2426 C   0  0  0  0  0  0  0  0  0  0  0  0
   -0.9744   -1.3718   -5.5195 C   0  0  0  0  0  0  0  0  0  0  0  0
   -2.3062   -1.0285   -5.7027 C   0  0  0  0  0  0  0  0  0  0  0  0
   -3.0747   -0.6269   -4.6072 C   0  0  0  0  0  0  0  0  0  0  0  0
   -2.5474   -0.5571   -3.3242 C   0  0  0  0  0  0  0  0  0  0  0  0
   -3.3487   -0.1577   -2.3202 N   0  0  0  0  0  0  0  0  0  0  0  0
   -5.2235    0.0976   -0.1968 C   0  0  0  0  0  0  0  0  0  0  0  0
   -6.1670    0.4836    0.7616 C   0  0  0  0  0  0  0  0  0  0  0  0
   -7.7532    0.7481    4.7238 H   0  0  0  0  0  0  0  0  0  0  0  0
   -6.0933    0.1661    4.5066 H   0  0  0  0  0  0  0  0  0  0  0  0
   -7.3956   -0.4750    3.4924 H   0  0  0  0  0  0  0  0  0  0  0  0
   -6.4348    2.4457    3.4876 H   0  0  0  0  0  0  0  0  0  0  0  0
   -7.7212    1.8101    2.4812 H   0  0  0  0  0  0  0  0  0  0  0  0
   -4.0641    1.9078    3.0155 H   0  0  0  0  0  0  0  0  0  0  0  0
   -2.4208    1.2536    1.3403 H   0  0  0  0  0  0  0  0  0  0  0  0
   -1.1786   -0.3767    0.2541 H   0  0  0  0  0  0  0  0  0  0  0  0
    0.9402    0.8947   -1.1534 H   0  0  0  0  0  0  0  0  0  0  0  0
    2.7187    2.1998   -0.5331 H   0  0  0  0  0  0  0  0  0  0  0  0
    5.0730    2.4142    0.1243 H   0  0  0  0  0  0  0  0  0  0  0  0
    7.4974    1.2770    2.5496 H   0  0  0  0  0  0  0  0  0  0  0  0
    8.0723   -0.1797    4.5872 H   0  0  0  0  0  0  0  0  0  0  0  0
    6.8344   -1.4075    4.9378 H   0  0  0  0  0  0  0  0  0  0  0  0
    6.3565    0.2983    4.7524 H   0  0  0  0  0  0  0  0  0  0  0  0
    5.5397   -1.8688   -0.1585 H   0  0  0  0  0  0  0  0  0  0  0  0
    3.2016   -2.0912   -0.8142 H   0  0  0  0  0  0  0  0  0  0  0  0
    0.6229   -1.5935   -4.1159 H   0  0  0  0  0  0  0  0  0  0  0  0
   -0.3681   -1.6931   -6.3628 H   0  0  0  0  0  0  0  0  0  0  0  0
   -2.7537   -1.0754   -6.6923 H   0  0  0  0  0  0  0  0  0  0  0  0
   -4.1187   -0.3614   -4.7594 H   0  0  0  0  0  0  0  0  0  0  0  0
   -5.5728   -0.4122   -1.0942 H   0  0  0  0  0  0  0  0  0  0  0  0
   -7.2180    0.2640    0.5871 H   0  0  0  0  0  0  0  0  0  0  0  0
  1  2  1  0
  2  3  1  0
  3  4  2  0
  4  5  1  0
  5  6  2  0
  6  7  1  0
  7  8  2  0
  8  9  1  0
  9 10  1  0
 10 11  2  0
 10 12  1  0
 12 13  1  0
 13 14  2  0
 14 15  1  0
 15 16  2  0
 16 17  1  0
 17 18  2  0
 17 19  2  0
 17 20  1  0
 20 21  1  0
 21 22  1  0
 21 23  2  0
 16 24  1  0
 24 25  2  0
  9 26  2  0
 26 27  1  0
 27 28  2  0
 28 29  1  0
 29 30  2  0
 30 31  1  0
 31 32  2  0
  6 33  1  0
 33 34  2  0
 34  3  1  0
 32  7  1  0
 25 13  1  0
 31 26  1  0
  1 35  1  0
  1 36  1  0
  1 37  1  0
  2 38  1  0
  2 39  1  0
  4 40  1  0
  5 41  1  0
  8 42  1  0
 12 43  1  0
 14 44  1  0
 15 45  1  0
 20 46  1  0
 22 47  1  0
 22 48  1  0
 22 49  1  0
 24 50  1  0
 25 51  1  0
 27 52  1  0
 28 53  1  0
 29 54  1  0
 30 55  1  0
 33 56  1  0
 34 57  1  0
M  END
$$$$
