
     RDKit          3D

 69 73  0  0  0  0  0  0  0  0999 V2000
    2.5925   -3.4938   -3.7270 C   0  0  0  0  0  0  0  0  0  0  0  0
    2.6422   -2.1390   -3.2999 O   0  0  0  0  0  0  0  0  0  0  0  0
    3.1493   -1.8938   -2.0524 C   0  0  0  0  0  0  0  0  0  0  0  0
    3.6369   -2.8535   -1.1606 C   0  0  0  0  0  0  0  0  0  0  0  0
    4.1331   -2.4649    0.0876 C   0  0  0  0  0  0  0  0  0  0  0  0
    4.6319   -3.3009    1.0507 O   0  0  0  0  0  0  0  0  0  0  0  0
    4.6557   -4.6911    0.7534 C   0  0  0  0  0  0  0  0  0  0  0  0
    4.1415   -1.1120    0.4376 C   0  0  0  0  0  0  0  0  0  0  0  0
    3.6557   -0.1415   -0.4453 C   0  0  0  0  0  0  0  0  0  0  0  0
    3.6449    1.2754   -0.0705 C   0  0  0  0  0  0  0  0  0  0  0  0
    5.1383    2.1025    0.0285 S   0  0  0  0  0  0  0  0  0  0  0  0
    4.3888    3.5903    0.4454 C   0  0  0  0  0  0  0  0  0  0  0  0
    5.0299    4.8176    0.7014 C   0  0  0  0  0  0  0  0  0  0  0  0
    4.2589    5.9367    1.0369 C   0  0  0  0  0  0  0  0  0  0  0  0
    2.8765    5.8440    1.1200 C   0  0  0  0  0  0  0  0  0  0  0  0
    2.0193    6.8610    1.4407 O   0  0  0  0  0  0  0  0  0  0  0  0
    2.6015    8.1172    1.7654 C   0  0  0  0  0  0  0  0  0  0  0  0
    2.2515    4.6188    0.8591 C   0  0  0  0  0  0  0  0  0  0  0  0
    3.0010    3.4638    0.5124 C   0  0  0  0  0  0  0  0  0  0  0  0
    2.5781    2.1144    0.2095 C   0  0  0  0  0  0  0  0  0  0  0  0
    1.2002    1.6356    0.1939 C   0  0  0  0  0  0  0  0  0  0  0  0
    0.3261    2.0496   -0.8145 C   0  0  0  0  0  0  0  0  0  0  0  0
   -0.9952    1.5964   -0.8212 C   0  0  0  0  0  0  0  0  0  0  0  0
   -1.4592    0.7336    0.1755 C   0  0  0  0  0  0  0  0  0  0  0  0
   -2.7725    0.3753    0.0516 O   0  0  0  0  0  0  0  0  0  0  0  0
   -3.3098   -0.4952    1.0486 C   0  0  0  0  0  0  0  0  0  0  0  0
   -4.8037   -0.7497    0.7625 C   0  0  0  0  0  0  0  0  0  0  0  0
   -5.0941   -1.4747   -0.4915 N   0  0  0  0  0  0  0  0  0  0  0  0
   -4.6112   -2.8619   -0.5153 C   0  0  0  0  0  0  0  0  0  0  0  0
   -5.4128   -3.8130    0.3773 C   0  0  0  0  0  0  0  0  0  0  0  0
   -6.9013   -3.7543    0.0469 C   0  0  0  0  0  0  0  0  0  0  0  0
   -7.4053   -2.3145    0.0409 C   0  0  0  0  0  0  0  0  0  0  0  0
   -6.5235   -1.4208   -0.8355 C   0  0  0  0  0  0  0  0  0  0  0  0
   -0.5859    0.3219    1.1831 C   0  0  0  0  0  0  0  0  0  0  0  0
    0.7391    0.7725    1.1935 C   0  0  0  0  0  0  0  0  0  0  0  0
    3.1586   -0.5450   -1.6887 C   0  0  0  0  0  0  0  0  0  0  0  0
    3.5962   -3.9274   -3.7834 H   0  0  0  0  0  0  0  0  0  0  0  0
    1.9402   -4.0880   -3.0790 H   0  0  0  0  0  0  0  0  0  0  0  0
    2.1661   -3.5110   -4.7345 H   0  0  0  0  0  0  0  0  0  0  0  0
    3.6293   -3.8990   -1.4376 H   0  0  0  0  0  0  0  0  0  0  0  0
    5.2986   -4.8993   -0.1083 H   0  0  0  0  0  0  0  0  0  0  0  0
    5.0793   -5.2111    1.6181 H   0  0  0  0  0  0  0  0  0  0  0  0
    3.6435   -5.0782    0.5961 H   0  0  0  0  0  0  0  0  0  0  0  0
    4.5258   -0.8191    1.4124 H   0  0  0  0  0  0  0  0  0  0  0  0
    6.1118    4.8973    0.6404 H   0  0  0  0  0  0  0  0  0  0  0  0
    4.7819    6.8683    1.2269 H   0  0  0  0  0  0  0  0  0  0  0  0
    3.1388    8.5361    0.9082 H   0  0  0  0  0  0  0  0  0  0  0  0
    3.2540    8.0359    2.6410 H   0  0  0  0  0  0  0  0  0  0  0  0
    1.7897    8.8060    2.0185 H   0  0  0  0  0  0  0  0  0  0  0  0
    1.1676    4.5532    0.9287 H   0  0  0  0  0  0  0  0  0  0  0  0
    0.6646    2.7198   -1.6009 H   0  0  0  0  0  0  0  0  0  0  0  0
   -1.6706    1.9177   -1.6110 H   0  0  0  0  0  0  0  0  0  0  0  0
   -3.2379   -0.0076    2.0290 H   0  0  0  0  0  0  0  0  0  0  0  0
   -2.7538   -1.4375    1.0820 H   0  0  0  0  0  0  0  0  0  0  0  0
   -5.2407   -1.2646    1.6254 H   0  0  0  0  0  0  0  0  0  0  0  0
   -5.2807    0.2375    0.7020 H   0  0  0  0  0  0  0  0  0  0  0  0
   -3.5489   -2.9194   -0.2598 H   0  0  0  0  0  0  0  0  0  0  0  0
   -4.6688   -3.2227   -1.5511 H   0  0  0  0  0  0  0  0  0  0  0  0
   -5.0492   -4.8384    0.2411 H   0  0  0  0  0  0  0  0  0  0  0  0
   -5.2585   -3.5631    1.4338 H   0  0  0  0  0  0  0  0  0  0  0  0
   -7.0704   -4.2009   -0.9412 H   0  0  0  0  0  0  0  0  0  0  0  0
   -7.4716   -4.3494    0.7690 H   0  0  0  0  0  0  0  0  0  0  0  0
   -7.4310   -1.9295    1.0673 H   0  0  0  0  0  0  0  0  0  0  0  0
   -8.4365   -2.2895   -0.3301 H   0  0  0  0  0  0  0  0  0  0  0  0
   -6.8878   -0.3870   -0.7960 H   0  0  0  0  0  0  0  0  0  0  0  0
   -6.6380   -1.7280   -1.8833 H   0  0  0  0  0  0  0  0  0  0  0  0
   -0.8995   -0.3478    1.9762 H   0  0  0  0  0  0  0  0  0  0  0  0
    1.4065    0.4451    1.9874 H   0  0  0  0  0  0  0  0  0  0  0  0
    2.7729    0.1945   -2.3875 H   0  0  0  0  0  0  0  0  0  0  0  0
  1  2  1  0
  2  3  1  0
  3  4  2  0
  4  5  1  0
  5  6  1  0
  6  7  1  0
  5  8  2  0
  8  9  1  0
  9 10  1  0
 10 11  1  0
 11 12  1  0
 12 13  2  0
 13 14  1  0
 14 15  2  0
 15 16  1  0
 16 17  1  0
 15 18  1  0
 18 19  2  0
 19 20  1  0
 20 21  1  0
 21 22  2  0
 22 23  1  0
 23 24  2  0
 24 25  1  0
 25 26  1  0
 26 27  1  0
 27 28  1  0
 28 29  1  0
 29 30  1  0
 30 31  1  0
 31 32  1  0
 32 33  1  0
 24 34  1  0
 34 35  2  0
  9 36  2  0
 36  3  1  0
 20 10  2  0
 35 21  1  0
 19 12  1  0
 33 28  1  0
  1 37  1  0
  1 38  1  0
  1 39  1  0
  4 40  1  0
  7 41  1  0
  7 42  1  0
  7 43  1  0
  8 44  1  0
 13 45  1  0
 14 46  1  0
 17 47  1  0
 17 48  1  0
 17 49  1  0
 18 50  1  0
 22 51  1  0
 23 52  1  0
 26 53  1  0
 26 54  1  0
 27 55  1  0
 27 56  1  0
 29 57  1  0
 29 58  1  0
 30 59  1  0
 30 60  1  0
 31 61  1  0
 31 62  1  0
 32 63  1  0
 32 64  1  0
 33 65  1  0
 33 66  1  0
 34 67  1  0
 35 68  1  0
 36 69  1  0
M  END
$$$$
