
     RDKit          3D

 47 50  0  0  0  0  0  0  0  0999 V2000
   -4.1768    3.3525    0.4216 C   0  0  0  0  0  0  0  0  0  0  0  0
   -3.8334    1.9110   -0.0409 C   0  0  0  0  0  0  0  0  0  0  0  0
   -2.3272    1.6461   -0.0613 C   0  0  0  0  0  0  0  0  0  0  0  0
   -1.7332    0.5902    0.8557 C   0  0  0  0  0  0  0  0  0  0  0  0
   -0.8664    0.9246    1.6659 O   0  0  0  0  0  0  0  0  0  0  0  0
   -2.0030   -0.7517    0.6131 N   0  0  0  0  0  0  0  0  0  0  0  0
   -1.1197   -1.7139    1.2809 C   0  0  0  0  0  0  0  0  0  0  0  0
    0.2278   -1.8216    0.5469 C   0  0  0  0  0  0  0  0  0  0  0  0
    0.3967   -2.6610   -0.3279 O   0  0  0  0  0  0  0  0  0  0  0  0
    1.1386   -0.8561    0.9458 N   0  0  0  0  0  0  0  0  0  0  0  0
    2.4538   -0.6576    0.4739 C   0  0  0  0  0  0  0  0  0  0  0  0
    3.1020   -1.5212   -0.4226 C   0  0  0  0  0  0  0  0  0  0  0  0
    4.4154   -1.2593   -0.8474 C   0  0  0  0  0  0  0  0  0  0  0  0
    5.0911   -0.1336   -0.3763 C   0  0  0  0  0  0  0  0  0  0  0  0
    4.4441    0.7467    0.5052 C   0  0  0  0  0  0  0  0  0  0  0  0
    3.1381    0.4768    0.9401 C   0  0  0  0  0  0  0  0  0  0  0  0
    5.0342    1.8961    0.9884 O   0  0  0  0  0  0  0  0  0  0  0  0
    6.1582    2.2677    0.1696 C   0  0  0  0  0  0  0  0  0  0  0  0
    7.0665    1.0660   -0.0803 C   0  0  0  0  0  0  0  0  0  0  0  0
    6.3769    0.0488   -0.8291 O   0  0  0  0  0  0  0  0  0  0  0  0
   -3.1116   -1.2681   -0.1294 C   0  0  0  0  0  0  0  0  0  0  0  0
   -2.9486   -2.4343   -0.9094 C   0  0  0  0  0  0  0  0  0  0  0  0
   -4.0213   -2.9981   -1.6074 C   0  0  0  0  0  0  0  0  0  0  0  0
   -5.2912   -2.4238   -1.5142 C   0  0  0  0  0  0  0  0  0  0  0  0
   -5.4738   -1.2789   -0.7439 C   0  0  0  0  0  0  0  0  0  0  0  0
   -4.3975   -0.6948   -0.0554 C   0  0  0  0  0  0  0  0  0  0  0  0
   -4.7727    0.7322    0.9576 S   0  0  0  0  0  0  0  0  0  0  0  0
   -3.9385    3.5270    1.4863 H   0  0  0  0  0  0  0  0  0  0  0  0
   -5.2414    3.5742    0.2358 H   0  0  0  0  0  0  0  0  0  0  0  0
   -3.6212    4.0834   -0.1723 H   0  0  0  0  0  0  0  0  0  0  0  0
   -4.2063    1.8239   -1.0706 H   0  0  0  0  0  0  0  0  0  0  0  0
   -1.9837    1.4055   -1.0913 H   0  0  0  0  0  0  0  0  0  0  0  0
   -1.8032    2.6002    0.1824 H   0  0  0  0  0  0  0  0  0  0  0  0
   -1.5805   -2.7107    1.3431 H   0  0  0  0  0  0  0  0  0  0  0  0
   -0.9480   -1.3973    2.3222 H   0  0  0  0  0  0  0  0  0  0  0  0
    0.7662   -0.1294    1.5604 H   0  0  0  0  0  0  0  0  0  0  0  0
    2.6143   -2.4129   -0.8086 H   0  0  0  0  0  0  0  0  0  0  0  0
    4.9072   -1.9426   -1.5469 H   0  0  0  0  0  0  0  0  0  0  0  0
    2.6644    1.1724    1.6345 H   0  0  0  0  0  0  0  0  0  0  0  0
    6.7045    3.0598    0.6930 H   0  0  0  0  0  0  0  0  0  0  0  0
    5.7785    2.6810   -0.7731 H   0  0  0  0  0  0  0  0  0  0  0  0
    7.4173    0.6287    0.8626 H   0  0  0  0  0  0  0  0  0  0  0  0
    7.9474    1.3629   -0.6686 H   0  0  0  0  0  0  0  0  0  0  0  0
   -1.9842   -2.9209   -1.0030 H   0  0  0  0  0  0  0  0  0  0  0  0
   -3.8663   -3.8885   -2.2151 H   0  0  0  0  0  0  0  0  0  0  0  0
   -6.1313   -2.8621   -2.0482 H   0  0  0  0  0  0  0  0  0  0  0  0
   -6.4624   -0.8391   -0.6958 H   0  0  0  0  0  0  0  0  0  0  0  0
  1  2  1  0
  2  3  1  0
  3  4  1  0
  4  5  2  0
  4  6  1  0
  6  7  1  0
  7  8  1  0
  8  9  2  0
  8 10  1  0
 10 11  1  0
 11 12  2  0
 12 13  1  0
 13 14  2  0
 14 15  1  0
 15 16  2  0
 15 17  1  0
 17 18  1  0
 18 19  1  0
 19 20  1  0
  6 21  1  0
 21 22  2  0
 22 23  1  0
 23 24  2  0
 24 25  1  0
 25 26  2  0
 26 27  1  0
 27  2  1  0
 16 11  1  0
 26 21  1  0
 20 14  1  0
  1 28  1  0
  1 29  1  0
  1 30  1  0
  2 31  1  0
  3 32  1  0
  3 33  1  0
  7 34  1  0
  7 35  1  0
 10 36  1  0
 12 37  1  0
 13 38  1  0
 16 39  1  0
 18 40  1  0
 18 41  1  0
 19 42  1  0
 19 43  1  0
 22 44  1  0
 23 45  1  0
 24 46  1  0
 25 47  1  0
M  END
$$$$
