
     RDKit          3D

 44 46  0  0  0  0  0  0  0  0999 V2000
    7.2432    4.4771    3.1132 C   0  0  0  0  0  0  0  0  0  0  0  0
    7.0776    4.0802    1.7578 O   0  0  0  0  0  0  0  0  0  0  0  0
    5.9089    3.4487    1.4365 C   0  0  0  0  0  0  0  0  0  0  0  0
    4.8902    3.1044    2.3219 C   0  0  0  0  0  0  0  0  0  0  0  0
    3.7390    2.4535    1.8552 C   0  0  0  0  0  0  0  0  0  0  0  0
    3.5843    2.1345    0.4979 C   0  0  0  0  0  0  0  0  0  0  0  0
    2.3817    1.4541    0.0294 C   0  0  0  0  0  0  0  0  0  0  0  0
    1.2783    0.9036    0.6373 C   0  0  0  0  0  0  0  0  0  0  0  0
    0.4849    0.3997   -0.4237 C   0  0  0  0  0  0  0  0  0  0  0  0
   -0.8036   -0.2964   -0.3199 C   0  0  0  0  0  0  0  0  0  0  0  0
   -1.3192   -0.5050    0.7726 O   0  0  0  0  0  0  0  0  0  0  0  0
   -1.3162   -0.6566   -1.5533 N   0  0  0  0  0  0  0  0  0  0  0  0
   -2.5129   -1.3399   -1.8405 C   0  0  0  0  0  0  0  0  0  0  0  0
   -2.8029   -1.5663   -3.1907 C   0  0  0  0  0  0  0  0  0  0  0  0
   -3.9658   -2.2413   -3.5599 C   0  0  0  0  0  0  0  0  0  0  0  0
   -4.8379   -2.7106   -2.5789 C   0  0  0  0  0  0  0  0  0  0  0  0
   -5.9715   -3.3439   -3.0240 O   0  0  0  0  0  0  0  0  0  0  0  0
   -5.9366   -4.7364   -2.7128 C   0  0  0  0  0  0  0  0  0  0  0  0
   -4.5844   -2.4674   -1.2206 C   0  0  0  0  0  0  0  0  0  0  0  0
   -5.5287   -2.9124   -0.3323 O   0  0  0  0  0  0  0  0  0  0  0  0
   -5.3266   -2.6206    1.0441 C   0  0  0  0  0  0  0  0  0  0  0  0
   -3.4094   -1.7904   -0.8634 C   0  0  0  0  0  0  0  0  0  0  0  0
    1.0716    0.6363   -1.6103 N   0  0  0  0  0  0  0  0  0  0  0  0
    2.2535    1.2936   -1.3199 O   0  0  0  0  0  0  0  0  0  0  0  0
    4.6176    2.4842   -0.3816 C   0  0  0  0  0  0  0  0  0  0  0  0
    5.7665    3.1327    0.0851 C   0  0  0  0  0  0  0  0  0  0  0  0
    7.2697    3.6073    3.7773 H   0  0  0  0  0  0  0  0  0  0  0  0
    6.4632    5.1836    3.4165 H   0  0  0  0  0  0  0  0  0  0  0  0
    8.2066    4.9893    3.1969 H   0  0  0  0  0  0  0  0  0  0  0  0
    4.9563    3.3240    3.3827 H   0  0  0  0  0  0  0  0  0  0  0  0
    2.9643    2.2023    2.5764 H   0  0  0  0  0  0  0  0  0  0  0  0
    1.0586    0.8548    1.6933 H   0  0  0  0  0  0  0  0  0  0  0  0
   -0.7374   -0.3810   -2.3428 H   0  0  0  0  0  0  0  0  0  0  0  0
   -2.1326   -1.2189   -3.9733 H   0  0  0  0  0  0  0  0  0  0  0  0
   -4.1920   -2.4074   -4.6096 H   0  0  0  0  0  0  0  0  0  0  0  0
   -6.1768   -4.9176   -1.6610 H   0  0  0  0  0  0  0  0  0  0  0  0
   -4.9692   -5.1851   -2.9682 H   0  0  0  0  0  0  0  0  0  0  0  0
   -6.7043   -5.2300   -3.3176 H   0  0  0  0  0  0  0  0  0  0  0  0
   -4.4305   -3.1212    1.4244 H   0  0  0  0  0  0  0  0  0  0  0  0
   -6.1851   -3.0124    1.5981 H   0  0  0  0  0  0  0  0  0  0  0  0
   -5.2842   -1.5405    1.2188 H   0  0  0  0  0  0  0  0  0  0  0  0
   -3.1952   -1.6096    0.1818 H   0  0  0  0  0  0  0  0  0  0  0  0
    4.5494    2.2542   -1.4427 H   0  0  0  0  0  0  0  0  0  0  0  0
    6.5571    3.3926   -0.6145 H   0  0  0  0  0  0  0  0  0  0  0  0
  1  2  1  0
  2  3  1  0
  3  4  2  0
  4  5  1  0
  5  6  2  0
  6  7  1  0
  7  8  2  0
  8  9  1  0
  9 10  1  0
 10 11  2  0
 10 12  1  0
 12 13  1  0
 13 14  2  0
 14 15  1  0
 15 16  2  0
 16 17  1  0
 17 18  1  0
 16 19  1  0
 19 20  1  0
 20 21  1  0
 19 22  2  0
  9 23  2  0
 23 24  1  0
  6 25  1  0
 25 26  2  0
 26  3  1  0
 24  7  1  0
 22 13  1  0
  1 27  1  0
  1 28  1  0
  1 29  1  0
  4 30  1  0
  5 31  1  0
  8 32  1  0
 12 33  1  0
 14 34  1  0
 15 35  1  0
 18 36  1  0
 18 37  1  0
 18 38  1  0
 21 39  1  0
 21 40  1  0
 21 41  1  0
 22 42  1  0
 25 43  1  0
 26 44  1  0
M  END
$$$$
