
     RDKit          3D

 57 60  0  0  0  0  0  0  0  0999 V2000
   -1.0104   -2.2787    3.5705 C   0  0  0  0  0  0  0  0  0  0  0  0
   -1.3998   -0.9918    3.0831 O   0  0  0  0  0  0  0  0  0  0  0  0
   -0.5070   -0.5250    2.1598 C   0  0  0  0  0  0  0  0  0  0  0  0
    0.7168   -0.0217    2.6173 C   0  0  0  0  0  0  0  0  0  0  0  0
    1.6313    0.5350    1.7204 C   0  0  0  0  0  0  0  0  0  0  0  0
    1.3187    0.5994    0.3584 C   0  0  0  0  0  0  0  0  0  0  0  0
    2.2495    1.2089   -0.6259 C   0  0  0  0  0  0  0  0  0  0  0  0
    1.7994    1.8144   -1.5907 O   0  0  0  0  0  0  0  0  0  0  0  0
    3.5922    1.0167   -0.3860 N   0  0  0  0  0  0  0  0  0  0  0  0
    4.5876    1.4068   -1.3604 C   0  0  0  0  0  0  0  0  0  0  0  0
    4.9879    0.2285   -2.2124 C   0  0  0  0  0  0  0  0  0  0  0  0
    4.1878   -0.1486   -3.3170 C   0  0  0  0  0  0  0  0  0  0  0  0
    4.5214   -1.2536   -4.1063 C   0  0  0  0  0  0  0  0  0  0  0  0
    5.6518   -1.9634   -3.7674 C   0  0  0  0  0  0  0  0  0  0  0  0
    6.4322   -1.6105   -2.6920 C   0  0  0  0  0  0  0  0  0  0  0  0
    6.1289   -0.5264   -1.8946 C   0  0  0  0  0  0  0  0  0  0  0  0
    7.4954   -2.4427   -2.5265 O   0  0  0  0  0  0  0  0  0  0  0  0
    7.2989   -3.3543   -3.6283 C   0  0  0  0  0  0  0  0  0  0  0  0
    6.1265   -3.0605   -4.4153 O   0  0  0  0  0  0  0  0  0  0  0  0
    0.0855    0.1211   -0.0983 C   0  0  0  0  0  0  0  0  0  0  0  0
   -0.8346   -0.4314    0.8052 C   0  0  0  0  0  0  0  0  0  0  0  0
   -2.3641   -1.0744    0.1565 S   0  0  0  0  0  6  0  0  0  0  0  0
   -2.1757   -1.2433   -1.2710 O   0  0  0  0  0  0  0  0  0  0  0  0
   -2.7712   -2.2078    0.9593 O   0  0  0  0  0  0  0  0  0  0  0  0
   -3.4685    0.1965    0.3829 N   0  0  0  0  0  0  0  0  0  0  0  0
   -3.2234    1.4261   -0.3982 C   0  0  0  0  0  0  0  0  0  0  0  0
   -3.8897    0.4512    1.7814 C   0  0  0  0  0  0  0  0  0  0  0  0
   -5.2511    1.1075    1.8775 C   0  0  0  0  0  0  0  0  0  0  0  0
   -5.4173    2.3285    2.5463 C   0  0  0  0  0  0  0  0  0  0  0  0
   -6.6793    2.9199    2.6332 C   0  0  0  0  0  0  0  0  0  0  0  0
   -7.7852    2.2964    2.0571 C   0  0  0  0  0  0  0  0  0  0  0  0
   -7.6326    1.0803    1.3942 C   0  0  0  0  0  0  0  0  0  0  0  0
   -6.3728    0.4873    1.3063 C   0  0  0  0  0  0  0  0  0  0  0  0
   -0.2036   -2.1820    4.3043 H   0  0  0  0  0  0  0  0  0  0  0  0
   -1.8755   -2.7219    4.0725 H   0  0  0  0  0  0  0  0  0  0  0  0
   -0.7062   -2.9493    2.7585 H   0  0  0  0  0  0  0  0  0  0  0  0
    0.9510   -0.0410    3.6794 H   0  0  0  0  0  0  0  0  0  0  0  0
    2.5629    0.9463    2.1006 H   0  0  0  0  0  0  0  0  0  0  0  0
    3.8687    0.3144    0.2855 H   0  0  0  0  0  0  0  0  0  0  0  0
    4.2195    2.2249   -1.9896 H   0  0  0  0  0  0  0  0  0  0  0  0
    5.4527    1.7870   -0.8058 H   0  0  0  0  0  0  0  0  0  0  0  0
    3.2924    0.4253   -3.5572 H   0  0  0  0  0  0  0  0  0  0  0  0
    3.9094   -1.5440   -4.9527 H   0  0  0  0  0  0  0  0  0  0  0  0
    6.7629   -0.2755   -1.0513 H   0  0  0  0  0  0  0  0  0  0  0  0
    7.2078   -4.3712   -3.2293 H   0  0  0  0  0  0  0  0  0  0  0  0
    8.1793   -3.3102   -4.2801 H   0  0  0  0  0  0  0  0  0  0  0  0
   -0.1494    0.1819   -1.1609 H   0  0  0  0  0  0  0  0  0  0  0  0
   -4.1521    1.9933   -0.5106 H   0  0  0  0  0  0  0  0  0  0  0  0
   -2.4807    2.0616    0.0929 H   0  0  0  0  0  0  0  0  0  0  0  0
   -2.8816    1.1938   -1.4105 H   0  0  0  0  0  0  0  0  0  0  0  0
   -3.9596   -0.4850    2.3458 H   0  0  0  0  0  0  0  0  0  0  0  0
   -3.1376    1.0761    2.2775 H   0  0  0  0  0  0  0  0  0  0  0  0
   -4.5671    2.8286    3.0037 H   0  0  0  0  0  0  0  0  0  0  0  0
   -6.8014    3.8677    3.1513 H   0  0  0  0  0  0  0  0  0  0  0  0
   -8.7668    2.7578    2.1249 H   0  0  0  0  0  0  0  0  0  0  0  0
   -8.4932    0.5925    0.9442 H   0  0  0  0  0  0  0  0  0  0  0  0
   -6.2611   -0.4614    0.7834 H   0  0  0  0  0  0  0  0  0  0  0  0
  1  2  1  0
  2  3  1  0
  3  4  2  0
  4  5  1  0
  5  6  2  0
  6  7  1  0
  7  8  2  0
  7  9  1  0
  9 10  1  0
 10 11  1  0
 11 12  2  0
 12 13  1  0
 13 14  2  0
 14 15  1  0
 15 16  2  0
 15 17  1  0
 17 18  1  0
 18 19  1  0
  6 20  1  0
 20 21  2  0
 21 22  1  0
 22 23  2  0
 22 24  2  0
 22 25  1  0
 25 26  1  0
 25 27  1  0
 27 28  1  0
 28 29  2  0
 29 30  1  0
 30 31  2  0
 31 32  1  0
 32 33  2  0
 21  3  1  0
 33 28  1  0
 16 11  1  0
 19 14  1  0
  1 34  1  0
  1 35  1  0
  1 36  1  0
  4 37  1  0
  5 38  1  0
  9 39  1  0
 10 40  1  0
 10 41  1  0
 12 42  1  0
 13 43  1  0
 16 44  1  0
 18 45  1  0
 18 46  1  0
 20 47  1  0
 26 48  1  0
 26 49  1  0
 26 50  1  0
 27 51  1  0
 27 52  1  0
 29 53  1  0
 30 54  1  0
 31 55  1  0
 32 56  1  0
 33 57  1  0
M  END
$$$$
