
     RDKit          3D

 56 58  0  0  0  0  0  0  0  0999 V2000
    6.0015   -0.1234    0.4598 C   0  0  0  0  0  0  0  0  0  0  0  0
    5.4941   -1.3139   -0.1316 O   0  0  0  0  0  0  0  0  0  0  0  0
    4.2472   -1.2421   -0.6913 C   0  0  0  0  0  0  0  0  0  0  0  0
    3.7739   -2.4480   -1.2095 C   0  0  0  0  0  0  0  0  0  0  0  0
    2.5136   -2.5259   -1.8070 C   0  0  0  0  0  0  0  0  0  0  0  0
    1.7112   -1.3870   -1.8912 C   0  0  0  0  0  0  0  0  0  0  0  0
    0.4543   -1.3499   -2.4542 O   0  0  0  0  0  0  0  0  0  0  0  0
   -0.0707   -2.5873   -2.9257 C   0  0  0  0  0  0  0  0  0  0  0  0
    2.1855   -0.1615   -1.3743 C   0  0  0  0  0  0  0  0  0  0  0  0
    1.3204    0.9501   -1.4808 N   0  0  0  0  0  0  0  0  0  0  0  0
    1.5206    2.2493   -1.0562 C   0  0  0  0  0  0  0  0  0  0  0  0
    2.5705    2.6998   -0.6012 O   0  0  0  0  0  0  0  0  0  0  0  0
    0.3305    3.1734   -1.2967 C   0  0  0  0  0  0  0  0  0  0  0  0
   -1.2879    2.3614   -1.0904 S   0  0  0  0  0  0  0  0  0  0  0  0
   -1.2178    1.8916    0.6038 C   0  0  0  0  0  0  0  0  0  0  0  0
   -0.2919    2.4178    1.3315 N   0  0  0  0  0  0  0  0  0  0  0  0
   -0.1865    2.0343    2.6693 C   0  0  0  0  0  0  0  0  0  0  0  0
    0.8094    2.6102    3.4612 C   0  0  0  0  0  0  0  0  0  0  0  0
    0.9543    2.2402    4.8010 C   0  0  0  0  0  0  0  0  0  0  0  0
    0.1021    1.2866    5.3590 C   0  0  0  0  0  0  0  0  0  0  0  0
   -0.8925    0.7026    4.5756 C   0  0  0  0  0  0  0  0  0  0  0  0
   -1.0273    1.0822    3.2351 C   0  0  0  0  0  0  0  0  0  0  0  0
   -2.0563    0.4831    2.3701 C   0  0  0  0  0  0  0  0  0  0  0  0
   -2.7584   -0.4216    2.8144 O   0  0  0  0  0  0  0  0  0  0  0  0
   -2.1489    0.9753    1.0685 N   0  0  0  0  0  0  0  0  0  0  0  0
   -3.2054    0.3853    0.2339 C   0  0  0  0  0  0  0  0  0  0  0  0
   -2.7260   -0.8877   -0.4780 C   0  0  0  0  0  0  0  0  0  0  0  0
   -3.4680   -1.1707   -1.6953 N   0  0  0  0  0  0  0  0  0  0  0  0
   -4.7669   -1.6202   -1.6580 C   0  0  0  0  0  0  0  0  0  0  0  0
   -5.3884   -1.8075   -3.0152 C   0  0  0  0  0  0  0  0  0  0  0  0
   -5.3830   -1.8252   -0.6194 O   0  0  0  0  0  0  0  0  0  0  0  0
    3.4503   -0.0991   -0.7772 C   0  0  0  0  0  0  0  0  0  0  0  0
    6.9783   -0.3579    0.8931 H   0  0  0  0  0  0  0  0  0  0  0  0
    6.1509    0.6570   -0.2922 H   0  0  0  0  0  0  0  0  0  0  0  0
    5.3535    0.2245    1.2719 H   0  0  0  0  0  0  0  0  0  0  0  0
    4.3952   -3.3387   -1.1442 H   0  0  0  0  0  0  0  0  0  0  0  0
    2.1974   -3.4892   -2.1918 H   0  0  0  0  0  0  0  0  0  0  0  0
   -1.0724   -2.3947   -3.3221 H   0  0  0  0  0  0  0  0  0  0  0  0
    0.5374   -2.9876   -3.7437 H   0  0  0  0  0  0  0  0  0  0  0  0
   -0.1705   -3.3104   -2.1086 H   0  0  0  0  0  0  0  0  0  0  0  0
    0.4229    0.7346   -1.9066 H   0  0  0  0  0  0  0  0  0  0  0  0
    0.3965    4.0343   -0.6236 H   0  0  0  0  0  0  0  0  0  0  0  0
    0.4002    3.5444   -2.3247 H   0  0  0  0  0  0  0  0  0  0  0  0
    1.4814    3.3466    3.0256 H   0  0  0  0  0  0  0  0  0  0  0  0
    1.7353    2.6939    5.4063 H   0  0  0  0  0  0  0  0  0  0  0  0
    0.2161    0.9956    6.4006 H   0  0  0  0  0  0  0  0  0  0  0  0
   -1.5565   -0.0445    5.0054 H   0  0  0  0  0  0  0  0  0  0  0  0
   -4.0751    0.1478    0.8589 H   0  0  0  0  0  0  0  0  0  0  0  0
   -3.5629    1.1251   -0.4894 H   0  0  0  0  0  0  0  0  0  0  0  0
   -2.8113   -1.7487    0.1942 H   0  0  0  0  0  0  0  0  0  0  0  0
   -1.6753   -0.8030   -0.7706 H   0  0  0  0  0  0  0  0  0  0  0  0
   -3.0776   -0.8660   -2.5784 H   0  0  0  0  0  0  0  0  0  0  0  0
   -6.0725   -2.6597   -2.9832 H   0  0  0  0  0  0  0  0  0  0  0  0
   -5.9380   -0.9034   -3.2876 H   0  0  0  0  0  0  0  0  0  0  0  0
   -4.6268   -2.0114   -3.7732 H   0  0  0  0  0  0  0  0  0  0  0  0
    3.8103    0.8390   -0.3757 H   0  0  0  0  0  0  0  0  0  0  0  0
  1  2  1  0
  2  3  1  0
  3  4  2  0
  4  5  1  0
  5  6  2  0
  6  7  1  0
  7  8  1  0
  6  9  1  0
  9 10  1  0
 10 11  1  0
 11 12  2  0
 11 13  1  0
 13 14  1  0
 14 15  1  0
 15 16  2  0
 16 17  1  0
 17 18  2  0
 18 19  1  0
 19 20  2  0
 20 21  1  0
 21 22  2  0
 22 23  1  0
 23 24  2  0
 23 25  1  0
 25 26  1  0
 26 27  1  0
 27 28  1  0
 28 29  1  0
 29 30  1  0
 29 31  2  0
  9 32  2  0
 32  3  1  0
 25 15  1  0
 22 17  1  0
  1 33  1  0
  1 34  1  0
  1 35  1  0
  4 36  1  0
  5 37  1  0
  8 38  1  0
  8 39  1  0
  8 40  1  0
 10 41  1  0
 13 42  1  0
 13 43  1  0
 18 44  1  0
 19 45  1  0
 20 46  1  0
 21 47  1  0
 26 48  1  0
 26 49  1  0
 27 50  1  0
 27 51  1  0
 28 52  1  0
 30 53  1  0
 30 54  1  0
 30 55  1  0
 32 56  1  0
M  END
$$$$
