
     RDKit          3D

 67 72  0  0  0  0  0  0  0  0999 V2000
   -5.5398    4.0743    0.6585 C   0  0  0  0  0  0  0  0  0  0  0  0
   -4.4308    3.4490   -0.1327 C   0  0  0  0  0  0  0  0  0  0  0  0
   -4.2449    3.7402   -1.4982 C   0  0  0  0  0  0  0  0  0  0  0  0
   -5.2919    4.8401   -2.3297 Cl  0  0  0  0  0  0  0  0  0  0  0  0
   -3.2013    3.1572   -2.2447 C   0  0  0  0  0  0  0  0  0  0  0  0
   -2.3126    2.2606   -1.6516 C   0  0  0  0  0  0  0  0  0  0  0  0
   -2.4919    1.9589   -0.3118 C   0  0  0  0  0  0  0  0  0  0  0  0
   -3.5278    2.5530    0.4267 C   0  0  0  0  0  0  0  0  0  0  0  0
   -3.4739    2.1104    1.7492 N   0  0  0  0  0  0  0  0  0  0  0  0
   -2.4250    1.2113    1.9539 C   0  0  0  0  0  0  0  0  0  0  0  0
   -2.1464    0.6946    3.0263 O   0  0  0  0  0  0  0  0  0  0  0  0
   -1.7117    1.0496    0.5900 C   0  0  1  0  0  0  0  0  0  0  0  0
   -1.7522   -0.3398    0.0658 C   0  0  0  0  0  0  0  0  0  0  0  0
   -0.4993   -0.9566    0.2218 C   0  0  0  0  0  0  0  0  0  0  0  0
   -0.5791   -2.2417   -0.2434 C   0  0  0  0  0  0  0  0  0  0  0  0
    0.3490   -3.1921   -0.3026 O   0  0  0  0  0  0  0  0  0  0  0  0
   -1.8830   -2.4151   -0.7543 N   0  0  0  0  0  0  0  0  0  0  0  0
   -2.3666   -3.5545   -1.4743 C   0  0  0  0  0  0  0  0  0  0  0  0
   -3.3486   -3.3962   -2.4641 C   0  0  0  0  0  0  0  0  0  0  0  0
   -3.8096   -4.5067   -3.1695 C   0  0  0  0  0  0  0  0  0  0  0  0
   -4.7429   -4.3396   -4.1153 F   0  0  0  0  0  0  0  0  0  0  0  0
   -3.3164   -5.7769   -2.9163 C   0  0  0  0  0  0  0  0  0  0  0  0
   -2.3385   -5.9273   -1.9450 C   0  0  0  0  0  0  0  0  0  0  0  0
   -1.8543   -7.1489   -1.6856 F   0  0  0  0  0  0  0  0  0  0  0  0
   -1.8552   -4.8346   -1.2263 C   0  0  0  0  0  0  0  0  0  0  0  0
   -2.6272   -1.2549   -0.4514 C   0  0  0  0  0  0  0  0  0  0  0  0
   -3.9445   -1.1309   -0.6039 O   0  0  0  0  0  0  0  0  0  0  0  0
    0.4324   -0.0221    0.8908 C   0  0  1  0  0  0  0  0  0  0  0  0
    1.8753    0.0691    0.4064 C   0  0  0  0  0  0  0  0  0  0  0  0
    2.5635    1.2100    1.0429 N   0  0  0  0  0  0  0  0  0  0  0  0
    3.9441    1.2628    1.1403 C   0  0  0  0  0  0  0  0  0  0  0  0
    4.5617    2.2753    1.4431 O   0  0  0  0  0  0  0  0  0  0  0  0
    4.5202    0.0643    0.8657 O   0  0  0  0  0  0  0  0  0  0  0  0
    5.9605   -0.1032    0.9158 C   0  0  0  0  0  0  0  0  0  0  0  0
    6.5031    0.1412    2.3283 C   0  0  0  0  0  0  0  0  0  0  0  0
    6.6607    0.7723   -0.1290 C   0  0  0  0  0  0  0  0  0  0  0  0
    6.1906   -1.5781    0.5515 C   0  0  0  0  0  0  0  0  0  0  0  0
    1.8258    2.4843    1.0899 C   0  0  0  0  0  0  0  0  0  0  0  0
    0.3207    2.3364    1.4302 C   0  0  0  0  0  0  0  0  0  0  0  0
   -0.2481    1.2801    0.6092 N   0  0  0  0  0  0  0  0  0  0  0  0
   -5.4325    5.1640    0.6678 H   0  0  0  0  0  0  0  0  0  0  0  0
   -5.5495    3.7438    1.7006 H   0  0  0  0  0  0  0  0  0  0  0  0
   -6.5109    3.8075    0.2286 H   0  0  0  0  0  0  0  0  0  0  0  0
   -3.0827    3.4031   -3.2979 H   0  0  0  0  0  0  0  0  0  0  0  0
   -1.5084    1.8083   -2.2239 H   0  0  0  0  0  0  0  0  0  0  0  0
   -4.1003    2.3775    2.4925 H   0  0  0  0  0  0  0  0  0  0  0  0
    1.1576   -2.8597    0.1237 H   0  0  0  0  0  0  0  0  0  0  0  0
   -3.7357   -2.4206   -2.7474 H   0  0  0  0  0  0  0  0  0  0  0  0
   -3.6821   -6.6336   -3.4694 H   0  0  0  0  0  0  0  0  0  0  0  0
   -1.1078   -5.0246   -0.4626 H   0  0  0  0  0  0  0  0  0  0  0  0
   -4.3500   -2.0163   -0.5944 H   0  0  0  0  0  0  0  0  0  0  0  0
    0.4170   -0.2298    1.9707 H   0  0  0  0  0  0  0  0  0  0  0  0
    1.9307    0.2184   -0.6796 H   0  0  0  0  0  0  0  0  0  0  0  0
    2.4006   -0.8651    0.6310 H   0  0  0  0  0  0  0  0  0  0  0  0
    6.4355    1.1943    2.6168 H   0  0  0  0  0  0  0  0  0  0  0  0
    7.5557   -0.1516    2.4070 H   0  0  0  0  0  0  0  0  0  0  0  0
    5.9276   -0.4252    3.0690 H   0  0  0  0  0  0  0  0  0  0  0  0
    7.7249    0.5248   -0.2073 H   0  0  0  0  0  0  0  0  0  0  0  0
    6.1997    0.6447   -1.1148 H   0  0  0  0  0  0  0  0  0  0  0  0
    6.5902    1.8366    0.1147 H   0  0  0  0  0  0  0  0  0  0  0  0
    5.7806   -1.8030   -0.4399 H   0  0  0  0  0  0  0  0  0  0  0  0
    7.2546   -1.8368    0.5527 H   0  0  0  0  0  0  0  0  0  0  0  0
    5.6727   -2.2387    1.2566 H   0  0  0  0  0  0  0  0  0  0  0  0
    1.9348    2.9432    0.0987 H   0  0  0  0  0  0  0  0  0  0  0  0
    2.2986    3.1575    1.8138 H   0  0  0  0  0  0  0  0  0  0  0  0
    0.2111    2.1118    2.4979 H   0  0  0  0  0  0  0  0  0  0  0  0
   -0.1762    3.2937    1.2383 H   0  0  0  0  0  0  0  0  0  0  0  0
  1  2  1  0
  2  3  2  0
  3  4  1  0
  3  5  1  0
  5  6  2  0
  6  7  1  0
  7  8  2  0
  8  9  1  0
  9 10  1  0
 10 11  2  0
 10 12  1  0
 12 13  1  0
 13 14  1  0
 14 15  2  0
 15 16  1  0
 15 17  1  0
 17 18  1  0
 18 19  2  0
 19 20  1  0
 20 21  1  0
 20 22  2  0
 22 23  1  0
 23 24  1  0
 23 25  2  0
 17 26  1  0
 26 27  1  0
 14 28  1  0
 28 29  1  0
 29 30  1  0
 30 31  1  0
 31 32  2  0
 31 33  1  0
 33 34  1  0
 34 35  1  0
 34 36  1  0
 34 37  1  0
 30 38  1  0
 38 39  1  0
 39 40  1  0
  8  2  1  0
 12 40  1  1
 12  7  1  0
 26 13  2  0
 40 28  1  0
 25 18  1  0
  1 41  1  0
  1 42  1  0
  1 43  1  0
  5 44  1  0
  6 45  1  0
  9 46  1  0
 16 47  1  0
 19 48  1  0
 22 49  1  0
 25 50  1  0
 27 51  1  0
 28 52  1  1
 29 53  1  0
 29 54  1  0
 35 55  1  0
 35 56  1  0
 35 57  1  0
 36 58  1  0
 36 59  1  0
 36 60  1  0
 37 61  1  0
 37 62  1  0
 37 63  1  0
 38 64  1  0
 38 65  1  0
 39 66  1  0
 39 67  1  0
M  END
$$$$
