
     RDKit          3D

 71 75  0  0  0  0  0  0  0  0999 V2000
   -1.8786    4.1591    0.3035 C   0  0  0  0  0  0  0  0  0  0  0  0
   -1.5015    2.6891    0.3852 C   0  0  0  0  0  0  0  0  0  0  0  0
   -1.9117    1.8790   -0.6180 C   0  0  0  0  0  0  0  0  0  0  0  0
   -1.7949    0.4372   -0.9125 C   0  0  0  0  0  0  0  0  0  0  0  0
   -2.9206   -0.5454   -0.6053 C   0  0  2  0  0  0  0  0  0  0  0  0
   -2.6692   -1.9647   -0.1338 C   0  0  0  0  0  0  0  0  0  0  0  0
   -2.9940   -2.2312    1.3516 C   0  0  0  0  0  0  0  0  0  0  0  0
   -2.1958   -1.4360    2.3691 C   0  0  2  0  0  0  0  0  0  0  0  0
   -2.3838   -1.7963    3.8064 C   0  0  0  0  0  0  0  0  0  0  0  0
   -2.2968   -0.0493    2.0932 O   0  0  0  0  0  0  0  0  0  0  0  0
   -0.9819   -0.6250    1.9355 C   0  0  1  0  0  0  0  0  0  0  0  0
   -0.0187    0.2342    2.6648 C   0  0  1  0  0  0  0  0  0  0  0  0
    1.2721   -0.4616    3.0901 C   0  0  1  0  0  0  0  0  0  0  0  0
    1.7472   -1.3488    2.0833 O   0  0  0  0  0  0  0  0  0  0  0  0
    2.2448    0.7091    3.3420 C   0  0  1  0  0  0  0  0  0  0  0  0
    3.6770    0.4590    2.8840 C   0  0  0  0  0  0  0  0  0  0  0  0
    4.1646   -0.7403    3.4823 O   0  0  0  0  0  0  0  0  0  0  0  0
    1.6161    1.9484    2.6628 C   0  0  0  0  0  0  0  0  0  0  0  0
    0.4575    1.4231    1.7682 C   0  0  1  0  0  0  0  0  0  0  0  0
    1.0224    0.9421    0.5416 O   0  0  0  0  0  0  0  0  0  0  0  0
    1.5277    1.8400   -0.3339 C   0  0  0  0  0  0  0  0  0  0  0  0
    1.5650    3.0512   -0.1869 O   0  0  0  0  0  0  0  0  0  0  0  0
    2.0272    1.1806   -1.5578 C   0  0  0  0  0  0  0  0  0  0  0  0
    2.1630   -0.1486   -1.6890 C   0  0  0  0  0  0  0  0  0  0  0  0
    2.6137   -0.8203   -2.9164 C   0  0  0  0  0  0  0  0  0  0  0  0
    3.5141   -0.2364   -3.8169 C   0  0  0  0  0  0  0  0  0  0  0  0
    3.9225   -0.9262   -4.9621 C   0  0  0  0  0  0  0  0  0  0  0  0
    3.4441   -2.2104   -5.2145 C   0  0  0  0  0  0  0  0  0  0  0  0
    2.5631   -2.8095   -4.3179 C   0  0  0  0  0  0  0  0  0  0  0  0
    2.1552   -2.1199   -3.1732 C   0  0  0  0  0  0  0  0  0  0  0  0
   -0.7146    2.4399    1.6639 C   0  0  0  0  0  0  0  0  0  0  0  0
   -1.0095    3.1258    2.6549 O   0  0  0  0  0  0  0  0  0  0  0  0
   -2.6322   -0.1655   -2.0486 C   0  0  0  0  0  0  0  0  0  0  0  0
   -3.7212    0.6089   -2.7568 C   0  0  0  0  0  0  0  0  0  0  0  0
   -1.9115   -1.1235   -2.9709 C   0  0  0  0  0  0  0  0  0  0  0  0
   -0.9836    4.7865    0.3870 H   0  0  0  0  0  0  0  0  0  0  0  0
   -2.5732    4.4254    1.1080 H   0  0  0  0  0  0  0  0  0  0  0  0
   -2.3650    4.4227   -0.6424 H   0  0  0  0  0  0  0  0  0  0  0  0
   -2.4431    2.4086   -1.4088 H   0  0  0  0  0  0  0  0  0  0  0  0
   -0.7750    0.0765   -0.8834 H   0  0  0  0  0  0  0  0  0  0  0  0
   -3.8293   -0.1477   -0.1620 H   0  0  0  0  0  0  0  0  0  0  0  0
   -1.6370   -2.2685   -0.3395 H   0  0  0  0  0  0  0  0  0  0  0  0
   -3.3073   -2.6287   -0.7314 H   0  0  0  0  0  0  0  0  0  0  0  0
   -4.0607   -2.0379    1.5216 H   0  0  0  0  0  0  0  0  0  0  0  0
   -2.8304   -3.2981    1.5463 H   0  0  0  0  0  0  0  0  0  0  0  0
   -1.8971   -1.0842    4.4810 H   0  0  0  0  0  0  0  0  0  0  0  0
   -1.9607   -2.7868    4.0035 H   0  0  0  0  0  0  0  0  0  0  0  0
   -3.4482   -1.8219    4.0612 H   0  0  0  0  0  0  0  0  0  0  0  0
   -0.5715   -0.9221    0.9827 H   0  0  0  0  0  0  0  0  0  0  0  0
   -0.4929    0.6406    3.5710 H   0  0  0  0  0  0  0  0  0  0  0  0
    1.1139   -1.0556    3.9970 H   0  0  0  0  0  0  0  0  0  0  0  0
    2.5982   -1.7091    2.4122 H   0  0  0  0  0  0  0  0  0  0  0  0
    2.2603    0.8956    4.4249 H   0  0  0  0  0  0  0  0  0  0  0  0
    4.3363    1.2867    3.1664 H   0  0  0  0  0  0  0  0  0  0  0  0
    3.7369    0.3438    1.7961 H   0  0  0  0  0  0  0  0  0  0  0  0
    4.4231   -0.5182    4.3958 H   0  0  0  0  0  0  0  0  0  0  0  0
    2.3675    2.5192    2.1094 H   0  0  0  0  0  0  0  0  0  0  0  0
    1.2400    2.6154    3.4490 H   0  0  0  0  0  0  0  0  0  0  0  0
    2.2646    1.8713   -2.3583 H   0  0  0  0  0  0  0  0  0  0  0  0
    1.9046   -0.8123   -0.8648 H   0  0  0  0  0  0  0  0  0  0  0  0
    3.9204    0.7556   -3.6380 H   0  0  0  0  0  0  0  0  0  0  0  0
    4.6192   -0.4613   -5.6549 H   0  0  0  0  0  0  0  0  0  0  0  0
    3.7627   -2.7456   -6.1058 H   0  0  0  0  0  0  0  0  0  0  0  0
    2.1931   -3.8144   -4.5066 H   0  0  0  0  0  0  0  0  0  0  0  0
    1.4685   -2.6087   -2.4853 H   0  0  0  0  0  0  0  0  0  0  0  0
   -4.3271    1.2085   -2.0699 H   0  0  0  0  0  0  0  0  0  0  0  0
   -4.4009   -0.0800   -3.2701 H   0  0  0  0  0  0  0  0  0  0  0  0
   -3.2860    1.2783   -3.5058 H   0  0  0  0  0  0  0  0  0  0  0  0
   -2.6033   -1.8831   -3.3489 H   0  0  0  0  0  0  0  0  0  0  0  0
   -1.0813   -1.6386   -2.4788 H   0  0  0  0  0  0  0  0  0  0  0  0
   -1.4965   -0.5796   -3.8265 H   0  0  0  0  0  0  0  0  0  0  0  0
  1  2  1  0
  2  3  2  3
  3  4  1  0
  4  5  1  0
  5  6  1  0
  6  7  1  0
  7  8  1  0
  8  9  1  1
  8 10  1  0
 10 11  1  0
 11 12  1  0
 12 13  1  0
 13 14  1  0
 13 15  1  0
 15 16  1  0
 16 17  1  0
 15 18  1  0
 18 19  1  0
 19 20  1  6
 20 21  1  0
 21 22  2  0
 21 23  1  0
 23 24  2  0
 24 25  1  0
 25 26  2  0
 26 27  1  0
 27 28  2  0
 28 29  1  0
 29 30  2  0
 19 31  1  0
 31 32  2  0
  5 33  1  0
 33 34  1  0
 33 35  1  0
 31  2  1  0
 33  4  1  0
 11  8  1  0
 19 12  1  0
 30 25  1  0
  1 36  1  0
  1 37  1  0
  1 38  1  0
  3 39  1  0
  4 40  1  0
  5 41  1  1
  6 42  1  0
  6 43  1  0
  7 44  1  0
  7 45  1  0
  9 46  1  0
  9 47  1  0
  9 48  1  0
 11 49  1  6
 12 50  1  1
 13 51  1  1
 14 52  1  0
 15 53  1  1
 16 54  1  0
 16 55  1  0
 17 56  1  0
 18 57  1  0
 18 58  1  0
 23 59  1  0
 24 60  1  0
 26 61  1  0
 27 62  1  0
 28 63  1  0
 29 64  1  0
 30 65  1  0
 34 66  1  0
 34 67  1  0
 34 68  1  0
 35 69  1  0
 35 70  1  0
 35 71  1  0
M  END
$$$$
