
     RDKit          3D

 52 54  0  0  0  0  0  0  0  0999 V2000
    6.8024   -1.4988   -1.0667 C   0  0  0  0  0  0  0  0  0  0  0  0
    5.6379   -0.5883   -0.8090 C   0  0  0  0  0  0  0  0  0  0  0  0
    5.0200    0.0894   -1.8675 C   0  0  0  0  0  0  0  0  0  0  0  0
    3.9153    0.9243   -1.6447 C   0  0  0  0  0  0  0  0  0  0  0  0
    3.2941    1.6517   -2.8021 C   0  0  0  0  0  0  0  0  0  0  0  0
    3.4013    1.0263   -0.3434 C   0  0  0  0  0  0  0  0  0  0  0  0
    2.3031    1.8140   -0.1032 O   0  0  0  0  0  0  0  0  0  0  0  0
    1.1047    1.0566   -0.2583 C   0  0  0  0  0  0  0  0  0  0  0  0
   -0.0950    1.7443    0.4041 C   0  0  0  0  0  0  0  0  0  0  0  0
   -0.0032    2.8107    1.0033 O   0  0  0  0  0  0  0  0  0  0  0  0
   -1.2523    1.0022    0.2435 N   0  0  0  0  0  0  0  0  0  0  0  0
   -2.5659    1.3085    0.6612 C   0  0  0  0  0  0  0  0  0  0  0  0
   -2.9204    2.5112    1.2746 C   0  0  0  0  0  0  0  0  0  0  0  0
   -4.2540    2.7653    1.5926 C   0  0  0  0  0  0  0  0  0  0  0  0
   -5.2332    1.8231    1.2946 C   0  0  0  0  0  0  0  0  0  0  0  0
   -4.8841    0.6128    0.6888 C   0  0  0  0  0  0  0  0  0  0  0  0
   -3.5506    0.3223    0.3747 C   0  0  0  0  0  0  0  0  0  0  0  0
   -3.1344   -0.9025   -0.1887 N   0  0  0  0  0  0  0  0  0  0  0  0
   -2.6245   -1.8730    0.8132 C   0  0  0  0  0  0  0  0  0  0  0  0
   -3.7269   -2.8216    1.2988 C   0  0  0  0  0  0  0  0  0  0  0  0
   -4.3251   -3.5145    0.1932 O   0  0  0  0  0  0  0  0  0  0  0  0
   -4.9566   -2.5793   -0.6918 C   0  0  0  0  0  0  0  0  0  0  0  0
   -3.9725   -1.5289   -1.2352 C   0  0  0  0  0  0  0  0  0  0  0  0
    4.0261    0.3861    0.7387 C   0  0  0  0  0  0  0  0  0  0  0  0
    3.5126    0.5432    2.1419 C   0  0  0  0  0  0  0  0  0  0  0  0
    5.1305   -0.4397    0.4878 C   0  0  0  0  0  0  0  0  0  0  0  0
    7.4881   -1.5063   -0.2132 H   0  0  0  0  0  0  0  0  0  0  0  0
    7.3750   -1.1661   -1.9386 H   0  0  0  0  0  0  0  0  0  0  0  0
    6.4471   -2.5177   -1.2453 H   0  0  0  0  0  0  0  0  0  0  0  0
    5.4115   -0.0249   -2.8769 H   0  0  0  0  0  0  0  0  0  0  0  0
    2.9260    2.6366   -2.4984 H   0  0  0  0  0  0  0  0  0  0  0  0
    2.4648    1.0682   -3.2126 H   0  0  0  0  0  0  0  0  0  0  0  0
    4.0272    1.8192   -3.5982 H   0  0  0  0  0  0  0  0  0  0  0  0
    0.8778    0.9518   -1.3259 H   0  0  0  0  0  0  0  0  0  0  0  0
    1.1983    0.0591    0.1919 H   0  0  0  0  0  0  0  0  0  0  0  0
   -1.2118    0.1238   -0.2665 H   0  0  0  0  0  0  0  0  0  0  0  0
   -2.1838    3.2753    1.5006 H   0  0  0  0  0  0  0  0  0  0  0  0
   -4.5257    3.7061    2.0647 H   0  0  0  0  0  0  0  0  0  0  0  0
   -6.2728    2.0277    1.5387 H   0  0  0  0  0  0  0  0  0  0  0  0
   -5.6782   -0.0957    0.4917 H   0  0  0  0  0  0  0  0  0  0  0  0
   -2.1517   -1.3749    1.6680 H   0  0  0  0  0  0  0  0  0  0  0  0
   -1.8453   -2.4644    0.3165 H   0  0  0  0  0  0  0  0  0  0  0  0
   -3.2971   -3.5757    1.9657 H   0  0  0  0  0  0  0  0  0  0  0  0
   -4.5048   -2.2877    1.8568 H   0  0  0  0  0  0  0  0  0  0  0  0
   -5.3748   -3.1497   -1.5279 H   0  0  0  0  0  0  0  0  0  0  0  0
   -5.8014   -2.1221   -0.1687 H   0  0  0  0  0  0  0  0  0  0  0  0
   -4.4983   -0.7766   -1.8350 H   0  0  0  0  0  0  0  0  0  0  0  0
   -3.2808   -2.0398   -1.9170 H   0  0  0  0  0  0  0  0  0  0  0  0
    2.6193   -0.0721    2.2889 H   0  0  0  0  0  0  0  0  0  0  0  0
    4.2655    0.2359    2.8758 H   0  0  0  0  0  0  0  0  0  0  0  0
    3.2692    1.5902    2.3519 H   0  0  0  0  0  0  0  0  0  0  0  0
    5.6075   -0.9655    1.3128 H   0  0  0  0  0  0  0  0  0  0  0  0
  1  2  1  0
  2  3  2  0
  3  4  1  0
  4  5  1  0
  4  6  2  0
  6  7  1  0
  7  8  1  0
  8  9  1  0
  9 10  2  0
  9 11  1  0
 11 12  1  0
 12 13  2  0
 13 14  1  0
 14 15  2  0
 15 16  1  0
 16 17  2  0
 17 18  1  0
 18 19  1  0
 19 20  1  0
 20 21  1  0
 21 22  1  0
 22 23  1  0
  6 24  1  0
 24 25  1  0
 24 26  2  0
 26  2  1  0
 17 12  1  0
 23 18  1  0
  1 27  1  0
  1 28  1  0
  1 29  1  0
  3 30  1  0
  5 31  1  0
  5 32  1  0
  5 33  1  0
  8 34  1  0
  8 35  1  0
 11 36  1  0
 13 37  1  0
 14 38  1  0
 15 39  1  0
 16 40  1  0
 19 41  1  0
 19 42  1  0
 20 43  1  0
 20 44  1  0
 22 45  1  0
 22 46  1  0
 23 47  1  0
 23 48  1  0
 25 49  1  0
 25 50  1  0
 25 51  1  0
 26 52  1  0
M  END
$$$$
