
     RDKit          3D

 51 54  0  0  0  0  0  0  0  0999 V2000
    7.4175   -1.5627    1.7959 C   0  0  0  0  0  0  0  0  0  0  0  0
    6.0654   -1.5421    1.1519 C   0  0  0  0  0  0  0  0  0  0  0  0
    5.0348   -0.7695    1.6998 C   0  0  0  0  0  0  0  0  0  0  0  0
    3.7695   -0.6806    1.0827 C   0  0  0  0  0  0  0  0  0  0  0  0
    2.7362    0.2227    1.7053 C   0  0  0  0  0  0  0  0  0  0  0  0
    3.5343   -1.3852   -0.1184 C   0  0  0  0  0  0  0  0  0  0  0  0
    2.2549   -1.2805   -0.7308 N   0  0  0  0  0  0  0  0  0  0  0  0
    2.0805   -1.0629   -2.0831 C   0  0  0  0  0  0  0  0  0  0  0  0
    2.9920   -0.7354   -2.8498 O   0  0  0  0  0  0  0  0  0  0  0  0
    0.6674   -1.1703   -2.6394 C   0  0  0  0  0  0  0  0  0  0  0  0
   -0.6265   -1.7475   -1.5018 S   0  0  0  0  0  0  0  0  0  0  0  0
   -0.9546   -0.2769   -0.6594 C   0  0  0  0  0  0  0  0  0  0  0  0
   -0.0744    0.3607    0.0681 N   0  0  0  0  0  0  0  0  0  0  0  0
   -0.6750    1.5021    0.5288 N   0  0  0  0  0  0  0  0  0  0  0  0
   -1.9285    1.5317    0.0990 C   0  0  0  0  0  0  0  0  0  0  0  0
   -2.8633    2.6257    0.3472 C   0  0  0  0  0  0  0  0  0  0  0  0
   -2.4563    3.9371    0.0798 C   0  0  0  0  0  0  0  0  0  0  0  0
   -3.3430    4.9666    0.3361 C   0  0  0  0  0  0  0  0  0  0  0  0
   -4.5861    4.7785    0.8265 N   0  0  0  0  0  0  0  0  0  0  0  0
   -4.9524    3.5072    1.0903 C   0  0  0  0  0  0  0  0  0  0  0  0
   -4.1382    2.4098    0.8696 C   0  0  0  0  0  0  0  0  0  0  0  0
   -2.1442    0.4058   -0.6753 N   0  0  0  0  0  0  0  0  0  0  0  0
   -3.3107    0.1076   -1.4819 C   0  0  0  0  0  0  0  0  0  0  0  0
   -4.2998   -0.7148   -0.7457 C   0  0  0  0  0  0  0  0  0  0  0  0
   -4.2217   -1.8159    0.0831 C   0  0  0  0  0  0  0  0  0  0  0  0
   -5.5482   -2.1347    0.4546 C   0  0  0  0  0  0  0  0  0  0  0  0
   -6.3529   -1.2194   -0.1779 C   0  0  0  0  0  0  0  0  0  0  0  0
   -5.6051   -0.3530   -0.9053 O   0  0  0  0  0  0  0  0  0  0  0  0
    4.5654   -2.2078   -0.6412 C   0  0  0  0  0  0  0  0  0  0  0  0
    4.3225   -3.3175   -1.9512 Cl  0  0  0  0  0  0  0  0  0  0  0  0
    5.8224   -2.2603   -0.0231 C   0  0  0  0  0  0  0  0  0  0  0  0
    7.9868   -0.6835    1.4840 H   0  0  0  0  0  0  0  0  0  0  0  0
    7.9755   -2.4630    1.5138 H   0  0  0  0  0  0  0  0  0  0  0  0
    7.3250   -1.5617    2.8919 H   0  0  0  0  0  0  0  0  0  0  0  0
    5.2244   -0.2088    2.6172 H   0  0  0  0  0  0  0  0  0  0  0  0
    1.8571   -0.3551    2.0128 H   0  0  0  0  0  0  0  0  0  0  0  0
    2.4460    1.0041    0.9985 H   0  0  0  0  0  0  0  0  0  0  0  0
    3.1239    0.7258    2.5979 H   0  0  0  0  0  0  0  0  0  0  0  0
    1.5096   -0.8793   -0.1659 H   0  0  0  0  0  0  0  0  0  0  0  0
    0.3864   -0.1966   -3.0598 H   0  0  0  0  0  0  0  0  0  0  0  0
    0.7062   -1.8922   -3.4647 H   0  0  0  0  0  0  0  0  0  0  0  0
   -1.4670    4.1484   -0.3131 H   0  0  0  0  0  0  0  0  0  0  0  0
   -3.0712    5.9990    0.1497 H   0  0  0  0  0  0  0  0  0  0  0  0
   -5.9490    3.3905    1.5039 H   0  0  0  0  0  0  0  0  0  0  0  0
   -4.4958    1.4195    1.1271 H   0  0  0  0  0  0  0  0  0  0  0  0
   -3.7409    1.0527   -1.8116 H   0  0  0  0  0  0  0  0  0  0  0  0
   -2.9932   -0.4139   -2.3855 H   0  0  0  0  0  0  0  0  0  0  0  0
   -3.3178   -2.3326    0.3882 H   0  0  0  0  0  0  0  0  0  0  0  0
   -5.8793   -2.9378    1.0982 H   0  0  0  0  0  0  0  0  0  0  0  0
   -7.4185   -1.0552   -0.2090 H   0  0  0  0  0  0  0  0  0  0  0  0
    6.6097   -2.8785   -0.4549 H   0  0  0  0  0  0  0  0  0  0  0  0
  1  2  1  0
  2  3  2  0
  3  4  1  0
  4  5  1  0
  4  6  2  0
  6  7  1  0
  7  8  1  0
  8  9  2  0
  8 10  1  0
 10 11  1  0
 11 12  1  0
 12 13  2  0
 13 14  1  0
 14 15  2  0
 15 16  1  0
 16 17  2  0
 17 18  1  0
 18 19  2  0
 19 20  1  0
 20 21  2  0
 15 22  1  0
 22 23  1  0
 23 24  1  0
 24 25  2  0
 25 26  1  0
 26 27  2  0
 27 28  1  0
  6 29  1  0
 29 30  1  0
 29 31  2  0
 31  2  1  0
 22 12  1  0
 28 24  1  0
 21 16  1  0
  1 32  1  0
  1 33  1  0
  1 34  1  0
  3 35  1  0
  5 36  1  0
  5 37  1  0
  5 38  1  0
  7 39  1  0
 10 40  1  0
 10 41  1  0
 17 42  1  0
 18 43  1  0
 20 44  1  0
 21 45  1  0
 23 46  1  0
 23 47  1  0
 25 48  1  0
 26 49  1  0
 27 50  1  0
 31 51  1  0
M  END
$$$$
