
     RDKit          3D

 67 72  0  0  0  0  0  0  0  0999 V2000
   -4.3339   -4.9404   -0.1471 C   0  0  0  0  0  0  0  0  0  0  0  0
   -3.6001   -3.8410    0.5609 C   0  0  0  0  0  0  0  0  0  0  0  0
   -3.6470   -3.7085    1.9624 C   0  0  0  0  0  0  0  0  0  0  0  0
   -4.5632   -4.8075    2.9356 Cl  0  0  0  0  0  0  0  0  0  0  0  0
   -2.9518   -2.6816    2.6320 C   0  0  0  0  0  0  0  0  0  0  0  0
   -2.1874   -1.7549    1.9232 C   0  0  0  0  0  0  0  0  0  0  0  0
   -2.1373   -1.8736    0.5444 C   0  0  0  0  0  0  0  0  0  0  0  0
   -2.8273   -2.9039   -0.1137 C   0  0  0  0  0  0  0  0  0  0  0  0
   -2.5979   -2.8159   -1.4863 N   0  0  0  0  0  0  0  0  0  0  0  0
   -1.7492   -1.7535   -1.8075 C   0  0  0  0  0  0  0  0  0  0  0  0
   -1.3640   -1.4860   -2.9353 O   0  0  0  0  0  0  0  0  0  0  0  0
   -1.4083   -1.0455   -0.4727 C   0  0  1  0  0  0  0  0  0  0  0  0
   -1.8947    0.3609   -0.4112 C   0  0  0  0  0  0  0  0  0  0  0  0
   -0.8121    1.2428   -0.5645 C   0  0  0  0  0  0  0  0  0  0  0  0
   -1.2744    2.5289   -0.5139 C   0  0  0  0  0  0  0  0  0  0  0  0
   -0.6222    3.6741   -0.6971 O   0  0  0  0  0  0  0  0  0  0  0  0
   -2.6702    2.4675   -0.2928 N   0  0  0  0  0  0  0  0  0  0  0  0
   -3.5573    3.5925   -0.1515 C   0  0  0  0  0  0  0  0  0  0  0  0
   -3.0736    4.8357    0.2894 C   0  0  0  0  0  0  0  0  0  0  0  0
   -3.9356    5.9284    0.4289 C   0  0  0  0  0  0  0  0  0  0  0  0
   -5.2819    5.7845    0.1274 C   0  0  0  0  0  0  0  0  0  0  0  0
   -6.1063    6.8315    0.2610 F   0  0  0  0  0  0  0  0  0  0  0  0
   -5.7841    4.5677   -0.3106 C   0  0  0  0  0  0  0  0  0  0  0  0
   -4.9249    3.4726   -0.4496 C   0  0  0  0  0  0  0  0  0  0  0  0
   -3.0362    1.1014   -0.2370 C   0  0  0  0  0  0  0  0  0  0  0  0
   -4.2810    0.6992    0.0109 O   0  0  0  0  0  0  0  0  0  0  0  0
    0.4326    0.4773   -0.7899 C   0  0  1  0  0  0  0  0  0  0  0  0
    1.7181    0.9314   -0.1097 C   0  0  0  0  0  0  0  0  0  0  0  0
    2.7758   -0.0806   -0.2727 N   0  0  0  0  0  0  0  0  0  0  0  0
    4.0907    0.3432   -0.1755 C   0  0  0  0  0  0  0  0  0  0  0  0
    4.4165    1.5233   -0.1608 O   0  0  0  0  0  0  0  0  0  0  0  0
    4.9595   -0.6968   -0.1023 O   0  0  0  0  0  0  0  0  0  0  0  0
    6.3892   -0.4733   -0.0007 C   0  0  0  0  0  0  0  0  0  0  0  0
    6.9982   -1.8827    0.0547 C   0  0  0  0  0  0  0  0  0  0  0  0
    6.7478    0.2658    1.2932 C   0  0  0  0  0  0  0  0  0  0  0  0
    6.9317    0.2435   -1.2417 C   0  0  0  0  0  0  0  0  0  0  0  0
    2.3939   -1.4849   -0.0270 C   0  0  0  0  0  0  0  0  0  0  0  0
    0.9991   -1.8683   -0.5884 C   0  0  0  0  0  0  0  0  0  0  0  0
    0.0341   -0.8469   -0.2148 N   0  0  0  0  0  0  0  0  0  0  0  0
   -4.2337   -4.8784   -1.2340 H   0  0  0  0  0  0  0  0  0  0  0  0
   -3.9433   -5.9160    0.1602 H   0  0  0  0  0  0  0  0  0  0  0  0
   -5.4047   -4.8898    0.0764 H   0  0  0  0  0  0  0  0  0  0  0  0
   -3.0056   -2.6060    3.7167 H   0  0  0  0  0  0  0  0  0  0  0  0
   -1.6486   -0.9640    2.4381 H   0  0  0  0  0  0  0  0  0  0  0  0
   -2.9563   -3.4403   -2.1938 H   0  0  0  0  0  0  0  0  0  0  0  0
    0.2961    3.4737   -0.9465 H   0  0  0  0  0  0  0  0  0  0  0  0
   -2.0338    4.9782    0.5681 H   0  0  0  0  0  0  0  0  0  0  0  0
   -3.5612    6.8857    0.7765 H   0  0  0  0  0  0  0  0  0  0  0  0
   -6.8388    4.4756   -0.5490 H   0  0  0  0  0  0  0  0  0  0  0  0
   -5.3486    2.5479   -0.8296 H   0  0  0  0  0  0  0  0  0  0  0  0
   -4.2772   -0.2675    0.1194 H   0  0  0  0  0  0  0  0  0  0  0  0
    0.5969    0.3859   -1.8734 H   0  0  0  0  0  0  0  0  0  0  0  0
    1.5733    1.0837    0.9678 H   0  0  0  0  0  0  0  0  0  0  0  0
    2.0488    1.8890   -0.5273 H   0  0  0  0  0  0  0  0  0  0  0  0
    6.7308   -2.4570   -0.8399 H   0  0  0  0  0  0  0  0  0  0  0  0
    6.6055   -2.4436    0.9108 H   0  0  0  0  0  0  0  0  0  0  0  0
    8.0900   -1.8524    0.1324 H   0  0  0  0  0  0  0  0  0  0  0  0
    6.2772   -0.2146    2.1583 H   0  0  0  0  0  0  0  0  0  0  0  0
    6.3995    1.3030    1.2829 H   0  0  0  0  0  0  0  0  0  0  0  0
    7.8313    0.2868    1.4530 H   0  0  0  0  0  0  0  0  0  0  0  0
    6.5882    1.2807   -1.2985 H   0  0  0  0  0  0  0  0  0  0  0  0
    8.0269    0.2610   -1.2440 H   0  0  0  0  0  0  0  0  0  0  0  0
    6.5891   -0.2512   -2.1576 H   0  0  0  0  0  0  0  0  0  0  0  0
    3.1462   -2.1580   -0.4516 H   0  0  0  0  0  0  0  0  0  0  0  0
    2.4053   -1.6239    1.0615 H   0  0  0  0  0  0  0  0  0  0  0  0
    0.7154   -2.8442   -0.1791 H   0  0  0  0  0  0  0  0  0  0  0  0
    1.0657   -1.9707   -1.6782 H   0  0  0  0  0  0  0  0  0  0  0  0
  1  2  1  0
  2  3  2  0
  3  4  1  0
  3  5  1  0
  5  6  2  0
  6  7  1  0
  7  8  2  0
  8  9  1  0
  9 10  1  0
 10 11  2  0
 10 12  1  0
 12 13  1  0
 13 14  1  0
 14 15  2  0
 15 16  1  0
 15 17  1  0
 17 18  1  0
 18 19  2  0
 19 20  1  0
 20 21  2  0
 21 22  1  0
 21 23  1  0
 23 24  2  0
 17 25  1  0
 25 26  1  0
 14 27  1  0
 27 28  1  0
 28 29  1  0
 29 30  1  0
 30 31  2  0
 30 32  1  0
 32 33  1  0
 33 34  1  0
 33 35  1  0
 33 36  1  0
 29 37  1  0
 37 38  1  0
 38 39  1  0
  8  2  1  0
 12 39  1  1
 12  7  1  0
 25 13  2  0
 39 27  1  0
 24 18  1  0
  1 40  1  0
  1 41  1  0
  1 42  1  0
  5 43  1  0
  6 44  1  0
  9 45  1  0
 16 46  1  0
 19 47  1  0
 20 48  1  0
 23 49  1  0
 24 50  1  0
 26 51  1  0
 27 52  1  6
 28 53  1  0
 28 54  1  0
 34 55  1  0
 34 56  1  0
 34 57  1  0
 35 58  1  0
 35 59  1  0
 35 60  1  0
 36 61  1  0
 36 62  1  0
 36 63  1  0
 37 64  1  0
 37 65  1  0
 38 66  1  0
 38 67  1  0
M  END
$$$$
