
     RDKit          3D

 44 46  0  0  0  0  0  0  0  0999 V2000
   -5.4312   -0.3150   -3.5730 C   0  0  0  0  0  0  0  0  0  0  0  0
   -4.7369   -0.7557   -2.3173 C   0  0  0  0  0  0  0  0  0  0  0  0
   -4.3721   -2.0984   -2.1467 C   0  0  0  0  0  0  0  0  0  0  0  0
   -3.6973   -2.5074   -0.9958 C   0  0  0  0  0  0  0  0  0  0  0  0
   -3.3705   -1.5640   -0.0192 C   0  0  0  0  0  0  0  0  0  0  0  0
   -2.5156   -2.0861    1.4442 S   0  0  0  0  0  6  0  0  0  0  0  0
   -2.9838   -3.4183    1.7671 O   0  0  0  0  0  0  0  0  0  0  0  0
   -2.5634   -1.0238    2.4251 O   0  0  0  0  0  0  0  0  0  0  0  0
   -0.9232   -2.2755    0.8988 N   0  0  0  0  0  0  0  0  0  0  0  0
   -0.1209   -1.1073    0.7767 C   0  0  0  0  0  0  0  0  0  0  0  0
   -0.1494   -0.3755   -0.4088 C   0  0  0  0  0  0  0  0  0  0  0  0
    0.5944    0.8045   -0.5289 C   0  0  0  0  0  0  0  0  0  0  0  0
    0.5581    1.5930   -1.8067 C   0  0  0  0  0  0  0  0  0  0  0  0
    1.3704    1.2310    0.5601 C   0  0  0  0  0  0  0  0  0  0  0  0
    2.0887    2.3864    0.3884 O   0  0  0  0  0  0  0  0  0  0  0  0
    1.3955    0.5071    1.7652 C   0  0  0  0  0  0  0  0  0  0  0  0
    2.2650    1.0387    3.2347 S   0  0  0  0  0  0  0  0  0  0  0  0
    3.9257    0.9675    2.7258 C   0  0  0  0  0  0  0  0  0  0  0  0
    4.8372    0.2071    3.3341 N   0  0  0  0  0  0  0  0  0  0  0  0
    5.9426    0.5005    2.6331 N   0  0  0  0  0  0  0  0  0  0  0  0
    5.6788    1.4059    1.6437 C   0  0  0  0  0  0  0  0  0  0  0  0
    6.7114    1.9106    0.7153 C   0  0  0  0  0  0  0  0  0  0  0  0
    4.4022    1.7246    1.6864 N   0  0  0  0  0  0  0  0  0  0  0  0
    0.6334   -0.6652    1.8627 C   0  0  0  0  0  0  0  0  0  0  0  0
   -3.7296   -0.2231   -0.1735 C   0  0  0  0  0  0  0  0  0  0  0  0
   -4.4027    0.1789   -1.3279 C   0  0  0  0  0  0  0  0  0  0  0  0
   -6.0895   -1.1042   -3.9522 H   0  0  0  0  0  0  0  0  0  0  0  0
   -6.0544    0.5665   -3.3879 H   0  0  0  0  0  0  0  0  0  0  0  0
   -4.6911   -0.0698   -4.3415 H   0  0  0  0  0  0  0  0  0  0  0  0
   -4.6172   -2.8345   -2.9096 H   0  0  0  0  0  0  0  0  0  0  0  0
   -3.4294   -3.5536   -0.8679 H   0  0  0  0  0  0  0  0  0  0  0  0
   -0.4982   -3.0952    1.3314 H   0  0  0  0  0  0  0  0  0  0  0  0
   -0.7468   -0.7259   -1.2471 H   0  0  0  0  0  0  0  0  0  0  0  0
   -0.0952    1.1231   -2.5491 H   0  0  0  0  0  0  0  0  0  0  0  0
    0.1755    2.6012   -1.6199 H   0  0  0  0  0  0  0  0  0  0  0  0
    1.5608    1.6569   -2.2420 H   0  0  0  0  0  0  0  0  0  0  0  0
    2.8629    2.3549    0.9896 H   0  0  0  0  0  0  0  0  0  0  0  0
    6.8209    0.0567    2.8783 H   0  0  0  0  0  0  0  0  0  0  0  0
    6.2471    2.3470   -0.1736 H   0  0  0  0  0  0  0  0  0  0  0  0
    7.3132    2.6852    1.1999 H   0  0  0  0  0  0  0  0  0  0  0  0
    7.3771    1.1051    0.3908 H   0  0  0  0  0  0  0  0  0  0  0  0
    0.6093   -1.2224    2.7963 H   0  0  0  0  0  0  0  0  0  0  0  0
   -3.4825    0.5115    0.5900 H   0  0  0  0  0  0  0  0  0  0  0  0
   -4.6693    1.2268   -1.4490 H   0  0  0  0  0  0  0  0  0  0  0  0
  1  2  1  0
  2  3  2  0
  3  4  1  0
  4  5  2  0
  5  6  1  0
  6  7  2  0
  6  8  2  0
  6  9  1  0
  9 10  1  0
 10 11  2  0
 11 12  1  0
 12 13  1  0
 12 14  2  0
 14 15  1  0
 14 16  1  0
 16 17  1  0
 17 18  1  0
 18 19  2  0
 19 20  1  0
 20 21  1  0
 21 22  1  0
 21 23  2  0
 16 24  2  0
  5 25  1  0
 25 26  2  0
 26  2  1  0
 24 10  1  0
 23 18  1  0
  1 27  1  0
  1 28  1  0
  1 29  1  0
  3 30  1  0
  4 31  1  0
  9 32  1  0
 11 33  1  0
 13 34  1  0
 13 35  1  0
 13 36  1  0
 15 37  1  0
 20 38  1  0
 22 39  1  0
 22 40  1  0
 22 41  1  0
 24 42  1  0
 25 43  1  0
 26 44  1  0
M  END
$$$$
