
     RDKit          3D

 51 54  0  0  0  0  0  0  0  0999 V2000
   -6.9443    2.0531   -1.2148 C   0  0  0  0  0  0  0  0  0  0  0  0
   -6.5556    0.5892   -1.3645 C   0  0  0  0  0  0  0  0  0  0  0  0
   -5.7986    0.1221   -0.1944 N   0  0  0  0  0  0  0  0  0  0  0  0
   -6.5974   -0.4857    0.8787 C   0  0  0  0  0  0  0  0  0  0  0  0
   -6.7074   -1.9923    0.6925 C   0  0  0  0  0  0  0  0  0  0  0  0
   -4.4148    0.2399   -0.1148 C   0  0  0  0  0  0  0  0  0  0  0  0
   -3.6709   -0.3258    0.9406 C   0  0  0  0  0  0  0  0  0  0  0  0
   -2.2724   -0.2158    1.0337 C   0  0  0  0  0  0  0  0  0  0  0  0
   -1.5634    0.4741    0.0604 C   0  0  0  0  0  0  0  0  0  0  0  0
   -0.1215    0.6324    0.1039 C   0  0  0  0  0  0  0  0  0  0  0  0
    0.5255    1.3131   -0.8580 C   0  0  0  0  0  0  0  0  0  0  0  0
    1.9464    1.4336   -0.7531 C   0  0  0  0  0  0  0  0  0  0  0  0
    2.7655    0.4832   -0.3317 N   0  0  0  0  0  0  0  0  0  0  0  0
    4.0859    0.9121   -0.3172 C   0  0  0  0  0  0  0  0  0  0  0  0
    5.1635    0.0096    0.0846 C   0  0  0  0  0  0  0  0  0  0  0  0
    6.5109    0.2746   -0.1978 C   0  0  0  0  0  0  0  0  0  0  0  0
    7.5206   -0.6134    0.2022 C   0  0  0  0  0  0  0  0  0  0  0  0
    7.1979   -1.7825    0.8889 C   0  0  0  0  0  0  0  0  0  0  0  0
    8.0809   -2.7264    1.3337 O   0  0  0  0  0  0  0  0  0  0  0  0
    9.4577   -2.4994    1.0607 C   0  0  0  0  0  0  0  0  0  0  0  0
    5.8591   -2.0568    1.1677 C   0  0  0  0  0  0  0  0  0  0  0  0
    4.8515   -1.1729    0.7683 C   0  0  0  0  0  0  0  0  0  0  0  0
    4.2558    2.2315   -0.6796 C   0  0  0  0  0  0  0  0  0  0  0  0
    2.7463    2.9420   -1.0583 S   0  0  0  0  0  0  0  0  0  0  0  0
   -0.2146    1.8771   -2.0196 C   0  0  0  0  0  0  0  0  0  0  0  0
    0.3382    2.4292   -2.9651 O   0  0  0  0  0  0  0  0  0  0  0  0
   -1.6030    1.7431   -2.0020 O   0  0  0  0  0  0  0  0  0  0  0  0
   -2.2716    1.0378   -0.9844 C   0  0  0  0  0  0  0  0  0  0  0  0
   -3.6631    0.9302   -1.0804 C   0  0  0  0  0  0  0  0  0  0  0  0
   -7.5571    2.2073   -0.3204 H   0  0  0  0  0  0  0  0  0  0  0  0
   -7.5241    2.3805   -2.0833 H   0  0  0  0  0  0  0  0  0  0  0  0
   -6.0661    2.7001   -1.1301 H   0  0  0  0  0  0  0  0  0  0  0  0
   -7.4738   -0.0028   -1.4699 H   0  0  0  0  0  0  0  0  0  0  0  0
   -6.0078    0.4217   -2.2986 H   0  0  0  0  0  0  0  0  0  0  0  0
   -7.6097   -0.0617    0.8698 H   0  0  0  0  0  0  0  0  0  0  0  0
   -6.2018   -0.2402    1.8705 H   0  0  0  0  0  0  0  0  0  0  0  0
   -7.1748   -2.2366   -0.2673 H   0  0  0  0  0  0  0  0  0  0  0  0
   -5.7270   -2.4775    0.7163 H   0  0  0  0  0  0  0  0  0  0  0  0
   -7.3204   -2.4272    1.4881 H   0  0  0  0  0  0  0  0  0  0  0  0
   -4.1622   -0.8880    1.7292 H   0  0  0  0  0  0  0  0  0  0  0  0
   -1.7619   -0.6795    1.8742 H   0  0  0  0  0  0  0  0  0  0  0  0
    0.4123    0.1926    0.9424 H   0  0  0  0  0  0  0  0  0  0  0  0
    6.8052    1.1660   -0.7450 H   0  0  0  0  0  0  0  0  0  0  0  0
    8.5465   -0.3607   -0.0439 H   0  0  0  0  0  0  0  0  0  0  0  0
    9.6469   -2.4710   -0.0174 H   0  0  0  0  0  0  0  0  0  0  0  0
    9.8115   -1.5855    1.5491 H   0  0  0  0  0  0  0  0  0  0  0  0
   10.0238   -3.3389    1.4758 H   0  0  0  0  0  0  0  0  0  0  0  0
    5.5939   -2.9679    1.6984 H   0  0  0  0  0  0  0  0  0  0  0  0
    3.8164   -1.4179    0.9976 H   0  0  0  0  0  0  0  0  0  0  0  0
    5.1598    2.8194   -0.7311 H   0  0  0  0  0  0  0  0  0  0  0  0
   -4.1367    1.4108   -1.9294 H   0  0  0  0  0  0  0  0  0  0  0  0
  1  2  1  0
  2  3  1  0
  3  4  1  0
  4  5  1  0
  3  6  1  0
  6  7  2  0
  7  8  1  0
  8  9  2  0
  9 10  1  0
 10 11  2  0
 11 12  1  0
 12 13  2  0
 13 14  1  0
 14 15  1  0
 15 16  2  0
 16 17  1  0
 17 18  2  0
 18 19  1  0
 19 20  1  0
 18 21  1  0
 21 22  2  0
 14 23  2  0
 23 24  1  0
 11 25  1  0
 25 26  2  0
 25 27  1  0
 27 28  1  0
 28 29  2  0
 29  6  1  0
 28  9  1  0
 24 12  1  0
 22 15  1  0
  1 30  1  0
  1 31  1  0
  1 32  1  0
  2 33  1  0
  2 34  1  0
  4 35  1  0
  4 36  1  0
  5 37  1  0
  5 38  1  0
  5 39  1  0
  7 40  1  0
  8 41  1  0
 10 42  1  0
 16 43  1  0
 17 44  1  0
 20 45  1  0
 20 46  1  0
 20 47  1  0
 21 48  1  0
 22 49  1  0
 23 50  1  0
 29 51  1  0
M  END
$$$$
