
     RDKit          3D

 60 63  0  0  0  0  0  0  0  0999 V2000
   -6.4859    2.6346   -2.7407 C   0  0  0  0  0  0  0  0  0  0  0  0
   -5.7799    3.3957   -1.7644 O   0  0  0  0  0  0  0  0  0  0  0  0
   -4.7481    2.7701   -1.1198 C   0  0  0  0  0  0  0  0  0  0  0  0
   -4.0631    3.5716   -0.2026 C   0  0  0  0  0  0  0  0  0  0  0  0
   -2.9850    3.0652    0.5309 C   0  0  0  0  0  0  0  0  0  0  0  0
   -2.5934    1.7350    0.3557 C   0  0  0  0  0  0  0  0  0  0  0  0
   -1.5097    1.2021    1.0968 N   0  0  0  0  0  0  0  0  0  0  0  0
   -1.4777    0.0071    1.8120 C   0  0  0  0  0  0  0  0  0  0  0  0
   -2.6472   -0.8837    2.1000 C   0  0  0  0  0  0  0  0  0  0  0  0
   -2.7777   -2.0767    1.1948 C   0  0  0  0  0  0  0  0  0  0  0  0
   -3.8651   -2.4460    0.4150 C   0  0  0  0  0  0  0  0  0  0  0  0
   -3.5363   -3.6410   -0.2604 C   0  0  0  0  0  0  0  0  0  0  0  0
   -2.2677   -3.9942    0.1368 C   0  0  0  0  0  0  0  0  0  0  0  0
   -1.8242   -3.0639    1.0450 N   0  0  0  0  0  0  0  0  0  0  0  0
   -0.5525   -3.1653    1.7326 C   0  0  0  0  0  0  0  0  0  0  0  0
   -0.2841   -0.1372    2.3660 N   0  0  0  0  0  0  0  0  0  0  0  0
    0.4679    0.9579    2.0679 N   0  0  0  0  0  0  0  0  0  0  0  0
   -0.2587    1.7578    1.3216 C   0  0  0  0  0  0  0  0  0  0  0  0
    0.3374    3.2186    0.6011 S   0  0  0  0  0  0  0  0  0  0  0  0
    1.8825    3.4706    1.5225 C   0  0  0  0  0  0  0  0  0  0  0  0
    3.0189    2.6743    0.9037 C   0  0  0  0  0  0  0  0  0  0  0  0
    3.7544    3.1459    0.0386 O   0  0  0  0  0  0  0  0  0  0  0  0
    3.1601    1.3942    1.3960 N   0  0  0  0  0  0  0  0  0  0  0  0
    4.1376    0.4768    0.8413 C   0  0  0  0  0  0  0  0  0  0  0  0
    3.6912   -0.1132   -0.5017 C   0  0  0  0  0  0  0  0  0  0  0  0
    4.7447   -1.0324   -1.0734 C   0  0  0  0  0  0  0  0  0  0  0  0
    4.7113   -2.4111   -0.8185 C   0  0  0  0  0  0  0  0  0  0  0  0
    5.7168   -3.2465   -1.3140 C   0  0  0  0  0  0  0  0  0  0  0  0
    6.7642   -2.7109   -2.0617 C   0  0  0  0  0  0  0  0  0  0  0  0
    6.8054   -1.3415   -2.3219 C   0  0  0  0  0  0  0  0  0  0  0  0
    5.7993   -0.5051   -1.8314 C   0  0  0  0  0  0  0  0  0  0  0  0
   -3.2720    0.9294   -0.5640 C   0  0  0  0  0  0  0  0  0  0  0  0
   -4.3454    1.4470   -1.3005 C   0  0  0  0  0  0  0  0  0  0  0  0
   -6.9741    1.7629   -2.2868 H   0  0  0  0  0  0  0  0  0  0  0  0
   -5.8239    2.3358   -3.5627 H   0  0  0  0  0  0  0  0  0  0  0  0
   -7.2699    3.2714   -3.1601 H   0  0  0  0  0  0  0  0  0  0  0  0
   -4.3724    4.6051   -0.0570 H   0  0  0  0  0  0  0  0  0  0  0  0
   -2.4969    3.7188    1.2507 H   0  0  0  0  0  0  0  0  0  0  0  0
   -2.5599   -1.2445    3.1332 H   0  0  0  0  0  0  0  0  0  0  0  0
   -3.5771   -0.3024    2.0792 H   0  0  0  0  0  0  0  0  0  0  0  0
   -4.7992   -1.9001    0.3364 H   0  0  0  0  0  0  0  0  0  0  0  0
   -4.1578   -4.1913   -0.9564 H   0  0  0  0  0  0  0  0  0  0  0  0
   -1.6535   -4.8427   -0.1396 H   0  0  0  0  0  0  0  0  0  0  0  0
    0.1634   -2.5220    1.2194 H   0  0  0  0  0  0  0  0  0  0  0  0
   -0.2074   -4.2029    1.6981 H   0  0  0  0  0  0  0  0  0  0  0  0
   -0.6841   -2.8687    2.7755 H   0  0  0  0  0  0  0  0  0  0  0  0
    2.1498    4.5318    1.4706 H   0  0  0  0  0  0  0  0  0  0  0  0
    1.7655    3.2264    2.5843 H   0  0  0  0  0  0  0  0  0  0  0  0
    2.3572    0.9926    1.8835 H   0  0  0  0  0  0  0  0  0  0  0  0
    5.0911    1.0093    0.7339 H   0  0  0  0  0  0  0  0  0  0  0  0
    4.2821   -0.3171    1.5819 H   0  0  0  0  0  0  0  0  0  0  0  0
    2.7448   -0.6593   -0.3776 H   0  0  0  0  0  0  0  0  0  0  0  0
    3.4727    0.6831   -1.2235 H   0  0  0  0  0  0  0  0  0  0  0  0
    3.9060   -2.8420   -0.2285 H   0  0  0  0  0  0  0  0  0  0  0  0
    5.6869   -4.3144   -1.1103 H   0  0  0  0  0  0  0  0  0  0  0  0
    7.5526   -3.3597   -2.4376 H   0  0  0  0  0  0  0  0  0  0  0  0
    7.6238   -0.9219   -2.9011 H   0  0  0  0  0  0  0  0  0  0  0  0
    5.8463    0.5639   -2.0347 H   0  0  0  0  0  0  0  0  0  0  0  0
   -2.9493   -0.0885   -0.7692 H   0  0  0  0  0  0  0  0  0  0  0  0
   -4.8348    0.7917   -2.0152 H   0  0  0  0  0  0  0  0  0  0  0  0
  1  2  1  0
  2  3  1  0
  3  4  2  0
  4  5  1  0
  5  6  2  0
  6  7  1  0
  7  8  1  0
  8  9  1  0
  9 10  1  0
 10 11  2  0
 11 12  1  0
 12 13  2  0
 13 14  1  0
 14 15  1  0
  8 16  2  0
 16 17  1  0
 17 18  2  0
 18 19  1  0
 19 20  1  0
 20 21  1  0
 21 22  2  0
 21 23  1  0
 23 24  1  0
 24 25  1  0
 25 26  1  0
 26 27  2  0
 27 28  1  0
 28 29  2  0
 29 30  1  0
 30 31  2  0
  6 32  1  0
 32 33  2  0
 33  3  1  0
 18  7  1  0
 31 26  1  0
 14 10  1  0
  1 34  1  0
  1 35  1  0
  1 36  1  0
  4 37  1  0
  5 38  1  0
  9 39  1  0
  9 40  1  0
 11 41  1  0
 12 42  1  0
 13 43  1  0
 15 44  1  0
 15 45  1  0
 15 46  1  0
 20 47  1  0
 20 48  1  0
 23 49  1  0
 24 50  1  0
 24 51  1  0
 25 52  1  0
 25 53  1  0
 27 54  1  0
 28 55  1  0
 29 56  1  0
 30 57  1  0
 31 58  1  0
 32 59  1  0
 33 60  1  0
M  END
$$$$
