
     RDKit          3D

 42 44  0  0  0  0  0  0  0  0999 V2000
   -3.9030   -1.6232   -1.8936 C   0  0  0  0  0  0  0  0  0  0  0  0
   -2.9812   -1.3271   -0.7262 C   0  0  0  0  0  0  0  0  0  0  0  0
   -2.0478   -2.1032   -0.5044 O   0  0  0  0  0  0  0  0  0  0  0  0
   -3.2284   -0.1374   -0.0069 N   0  0  0  0  0  0  0  0  0  0  0  0
   -2.1940    0.5316    0.6633 C   0  0  0  0  0  0  0  0  0  0  0  0
   -0.8723    0.3405    0.5191 C   0  0  0  0  0  0  0  0  0  0  0  0
    0.1085    1.0957    1.2741 C   0  0  0  0  0  0  0  0  0  0  0  0
    1.4471    1.0226    1.1850 C   0  0  0  0  0  0  0  0  0  0  0  0
    2.2271    0.1769    0.3001 C   0  0  0  0  0  0  0  0  0  0  0  0
    3.5658    0.1170    0.2307 C   0  0  0  0  0  0  0  0  0  0  0  0
    4.7185    1.0158    1.1739 S   0  0  0  0  0  0  0  0  0  0  0  0
    6.0811    0.2296    0.3598 C   0  0  0  0  0  0  0  0  0  0  0  0
    7.4274    0.4552    0.6093 C   0  0  0  0  0  0  0  0  0  0  0  0
    8.3799   -0.2553   -0.1300 C   0  0  0  0  0  0  0  0  0  0  0  0
    7.9829   -1.1803   -1.1073 C   0  0  0  0  0  0  0  0  0  0  0  0
    6.6285   -1.4049   -1.3559 C   0  0  0  0  0  0  0  0  0  0  0  0
    5.6990   -0.6901   -0.6113 C   0  0  0  0  0  0  0  0  0  0  0  0
    4.2415   -0.7992   -0.7404 C   0  0  0  0  0  0  0  0  0  0  0  0
    3.6894   -1.5365   -1.5390 O   0  0  0  0  0  0  0  0  0  0  0  0
   -4.5776    0.3493    0.1513 C   0  0  0  0  0  0  0  0  0  0  0  0
   -5.6479   -0.5352    0.3538 C   0  0  0  0  0  0  0  0  0  0  0  0
   -6.9501   -0.0561    0.5230 C   0  0  0  0  0  0  0  0  0  0  0  0
   -7.1992    1.3136    0.4995 C   0  0  0  0  0  0  0  0  0  0  0  0
   -6.1467    2.2062    0.3150 C   0  0  0  0  0  0  0  0  0  0  0  0
   -4.8439    1.7282    0.1489 C   0  0  0  0  0  0  0  0  0  0  0  0
   -4.4055   -0.7268   -2.2647 H   0  0  0  0  0  0  0  0  0  0  0  0
   -4.6343   -2.3838   -1.6115 H   0  0  0  0  0  0  0  0  0  0  0  0
   -3.2977   -2.0112   -2.7197 H   0  0  0  0  0  0  0  0  0  0  0  0
   -2.5301    1.2928    1.3648 H   0  0  0  0  0  0  0  0  0  0  0  0
   -0.4983   -0.3944   -0.1852 H   0  0  0  0  0  0  0  0  0  0  0  0
   -0.2946    1.7998    2.0025 H   0  0  0  0  0  0  0  0  0  0  0  0
    2.0104    1.6753    1.8512 H   0  0  0  0  0  0  0  0  0  0  0  0
    1.6674   -0.4710   -0.3729 H   0  0  0  0  0  0  0  0  0  0  0  0
    7.7433    1.1695    1.3642 H   0  0  0  0  0  0  0  0  0  0  0  0
    9.4395   -0.0895    0.0546 H   0  0  0  0  0  0  0  0  0  0  0  0
    8.7351   -1.7254   -1.6738 H   0  0  0  0  0  0  0  0  0  0  0  0
    6.3060   -2.1180   -2.1091 H   0  0  0  0  0  0  0  0  0  0  0  0
   -5.4809   -1.6069    0.4292 H   0  0  0  0  0  0  0  0  0  0  0  0
   -7.7677   -0.7542    0.6859 H   0  0  0  0  0  0  0  0  0  0  0  0
   -8.2123    1.6854    0.6318 H   0  0  0  0  0  0  0  0  0  0  0  0
   -6.3386    3.2762    0.2963 H   0  0  0  0  0  0  0  0  0  0  0  0
   -4.0466    2.4482   -0.0191 H   0  0  0  0  0  0  0  0  0  0  0  0
  1  2  1  0
  2  3  2  0
  2  4  1  0
  4  5  1  0
  5  6  2  3
  6  7  1  0
  7  8  2  3
  8  9  1  0
  9 10  2  3
 10 11  1  0
 11 12  1  0
 12 13  2  0
 13 14  1  0
 14 15  2  0
 15 16  1  0
 16 17  2  0
 17 18  1  0
 18 19  2  0
  4 20  1  0
 20 21  2  0
 21 22  1  0
 22 23  2  0
 23 24  1  0
 24 25  2  0
 18 10  1  0
 25 20  1  0
 17 12  1  0
  1 26  1  0
  1 27  1  0
  1 28  1  0
  5 29  1  0
  6 30  1  0
  7 31  1  0
  8 32  1  0
  9 33  1  0
 13 34  1  0
 14 35  1  0
 15 36  1  0
 16 37  1  0
 21 38  1  0
 22 39  1  0
 23 40  1  0
 24 41  1  0
 25 42  1  0
M  END
$$$$
