
     RDKit          3D

 53 54  0  0  0  0  0  0  0  0999 V2000
   -5.9279    0.3513    1.6576 C   0  0  0  0  0  0  0  0  0  0  0  0
   -6.1514   -1.1079    1.2984 C   0  0  0  0  0  0  0  0  0  0  0  0
   -5.0103   -1.7040    0.5790 N   0  0  0  0  0  0  0  0  0  0  0  0
   -4.8712   -1.3721   -0.8454 C   0  0  0  0  0  0  0  0  0  0  0  0
   -5.5724   -2.4233   -1.6841 C   0  0  0  0  0  0  0  0  0  0  0  0
   -3.7128   -2.3803    1.4215 S   0  0  0  0  0  6  0  0  0  0  0  0
   -4.2091   -2.9054    2.6767 O   0  0  0  0  0  0  0  0  0  0  0  0
   -2.9644   -3.2160    0.5072 O   0  0  0  0  0  0  0  0  0  0  0  0
   -2.6729   -0.9831    1.8106 C   0  0  0  0  0  0  0  0  0  0  0  0
   -2.6627   -0.4654    3.1116 C   0  0  0  0  0  0  0  0  0  0  0  0
   -1.8029    0.5850    3.4306 C   0  0  0  0  0  0  0  0  0  0  0  0
   -0.9460    1.1069    2.4569 C   0  0  0  0  0  0  0  0  0  0  0  0
   -0.9357    0.5760    1.1595 C   0  0  0  0  0  0  0  0  0  0  0  0
    0.0195    1.1508    0.1725 C   0  0  0  0  0  0  0  0  0  0  0  0
    0.7949    2.0630    0.4224 O   0  0  0  0  0  0  0  0  0  0  0  0
   -0.0928    0.5197   -1.0222 O   0  0  0  0  0  0  0  0  0  0  0  0
    0.8592    0.9253   -2.0097 C   0  0  0  0  0  0  0  0  0  0  0  0
    2.2724    0.4368   -1.6869 C   0  0  0  0  0  0  0  0  0  0  0  0
    2.6307   -0.7224   -1.8888 O   0  0  0  0  0  0  0  0  0  0  0  0
    3.0815    1.4049   -1.1103 N   0  0  0  0  0  0  0  0  0  0  0  0
    4.3825    1.0549   -0.5566 C   0  0  0  0  0  0  0  0  0  0  0  0
    5.3865    0.5023   -1.5780 C   0  0  0  0  0  0  0  0  0  0  0  0
    6.7508    0.5242   -1.0716 N   0  0  0  0  0  0  0  0  0  0  0  0
    7.6749    1.4845   -1.3996 C   0  0  0  0  0  0  0  0  0  0  0  0
    7.3210    2.4872   -2.2550 O   0  0  0  0  0  0  0  0  0  0  0  0
    8.8676    1.3329   -0.8094 C   0  0  0  0  0  0  0  0  0  0  0  0
    8.8866   -0.0555    0.2323 S   0  0  0  0  0  0  0  0  0  0  0  0
    7.1900   -0.4184   -0.1534 C   0  0  0  0  0  0  0  0  0  0  0  0
    6.5645   -1.3354    0.3547 O   0  0  0  0  0  0  0  0  0  0  0  0
   -1.7965   -0.4838    0.8398 C   0  0  0  0  0  0  0  0  0  0  0  0
   -5.6051    0.9430    0.7980 H   0  0  0  0  0  0  0  0  0  0  0  0
   -6.8559    0.7891    2.0334 H   0  0  0  0  0  0  0  0  0  0  0  0
   -5.1781    0.4595    2.4419 H   0  0  0  0  0  0  0  0  0  0  0  0
   -6.3810   -1.6866    2.2007 H   0  0  0  0  0  0  0  0  0  0  0  0
   -7.0434   -1.1923    0.6652 H   0  0  0  0  0  0  0  0  0  0  0  0
   -5.3021   -0.3889   -1.0513 H   0  0  0  0  0  0  0  0  0  0  0  0
   -3.8197   -1.3123   -1.1411 H   0  0  0  0  0  0  0  0  0  0  0  0
   -5.4871   -2.1760   -2.7448 H   0  0  0  0  0  0  0  0  0  0  0  0
   -5.1326   -3.4140   -1.5289 H   0  0  0  0  0  0  0  0  0  0  0  0
   -6.6380   -2.4876   -1.4317 H   0  0  0  0  0  0  0  0  0  0  0  0
   -3.3136   -0.8793    3.8823 H   0  0  0  0  0  0  0  0  0  0  0  0
   -1.7882    0.9851    4.4412 H   0  0  0  0  0  0  0  0  0  0  0  0
   -0.2708    1.9188    2.7235 H   0  0  0  0  0  0  0  0  0  0  0  0
    0.5624    0.4816   -2.9671 H   0  0  0  0  0  0  0  0  0  0  0  0
    0.8364    2.0131   -2.1440 H   0  0  0  0  0  0  0  0  0  0  0  0
    2.5574    2.0818   -0.5626 H   0  0  0  0  0  0  0  0  0  0  0  0
    4.2209    0.3300    0.2495 H   0  0  0  0  0  0  0  0  0  0  0  0
    4.7749    1.9716   -0.1010 H   0  0  0  0  0  0  0  0  0  0  0  0
    5.3281    1.0530   -2.5207 H   0  0  0  0  0  0  0  0  0  0  0  0
    5.1408   -0.5392   -1.8089 H   0  0  0  0  0  0  0  0  0  0  0  0
    8.0847    3.0843   -2.3561 H   0  0  0  0  0  0  0  0  0  0  0  0
    9.7274    1.9724   -0.9332 H   0  0  0  0  0  0  0  0  0  0  0  0
   -1.7709   -0.9398   -0.1484 H   0  0  0  0  0  0  0  0  0  0  0  0
  1  2  1  0
  2  3  1  0
  3  4  1  0
  4  5  1  0
  3  6  1  0
  6  7  2  0
  6  8  2  0
  6  9  1  0
  9 10  2  0
 10 11  1  0
 11 12  2  0
 12 13  1  0
 13 14  1  0
 14 15  2  0
 14 16  1  0
 16 17  1  0
 17 18  1  0
 18 19  2  0
 18 20  1  0
 20 21  1  0
 21 22  1  0
 22 23  1  0
 23 24  1  0
 24 25  1  0
 24 26  2  0
 26 27  1  0
 27 28  1  0
 28 29  2  0
 13 30  2  0
 30  9  1  0
 28 23  1  0
  1 31  1  0
  1 32  1  0
  1 33  1  0
  2 34  1  0
  2 35  1  0
  4 36  1  0
  4 37  1  0
  5 38  1  0
  5 39  1  0
  5 40  1  0
 10 41  1  0
 11 42  1  0
 12 43  1  0
 17 44  1  0
 17 45  1  0
 20 46  1  0
 21 47  1  0
 21 48  1  0
 22 49  1  0
 22 50  1  0
 25 51  1  0
 26 52  1  0
 30 53  1  0
M  END
$$$$
