
     RDKit          3D

 32 34  0  0  0  0  0  0  0  0999 V2000
   -4.6633   -0.5130   -1.5492 O   0  0  0  0  0  0  0  0  0  0  0  0
   -5.0562   -0.5234   -0.3956 C   0  0  0  0  0  0  0  0  0  0  0  0
   -6.2968   -0.9749   -0.0365 N   0  0  0  0  0  0  0  0  0  0  0  0
   -6.6209   -1.0057    1.2822 C   0  0  0  0  0  0  0  0  0  0  0  0
   -8.0695   -1.5567    1.8610 S   0  0  0  0  0  0  0  0  0  0  0  0
   -5.2906   -0.3865    2.2254 S   0  0  0  0  0  0  0  0  0  0  0  0
   -4.3008   -0.0913    0.8178 C   0  0  0  0  0  0  0  0  0  0  0  0
   -3.0663    0.4147    0.9399 C   0  0  0  0  0  0  0  0  0  0  0  0
   -2.1579    0.7120   -0.1107 C   0  0  0  0  0  0  0  0  0  0  0  0
   -2.3398    1.2461   -1.3794 C   0  0  0  0  0  0  0  0  0  0  0  0
   -1.0693    1.3636   -1.9925 C   0  0  0  0  0  0  0  0  0  0  0  0
   -0.1489    0.9210   -1.0721 C   0  0  0  0  0  0  0  0  0  0  0  0
    1.5817    0.8358   -1.2492 S   0  0  0  0  0  0  0  0  0  0  0  0
    2.0461    0.0933    0.3414 C   0  0  0  0  0  0  0  0  0  0  0  0
    3.5376   -0.1069    0.4468 C   0  0  0  0  0  0  0  0  0  0  0  0
    4.3575    0.9030    0.9718 C   0  0  0  0  0  0  0  0  0  0  0  0
    5.7385    0.7198    1.0607 C   0  0  0  0  0  0  0  0  0  0  0  0
    6.3145   -0.4708    0.6214 C   0  0  0  0  0  0  0  0  0  0  0  0
    5.5115   -1.4782    0.0901 C   0  0  0  0  0  0  0  0  0  0  0  0
    4.1304   -1.2973    0.0002 C   0  0  0  0  0  0  0  0  0  0  0  0
   -0.8003    0.5455    0.0632 O   0  0  0  0  0  0  0  0  0  0  0  0
   -6.9289   -1.3167   -0.7446 H   0  0  0  0  0  0  0  0  0  0  0  0
   -2.6725    0.5983    1.9375 H   0  0  0  0  0  0  0  0  0  0  0  0
   -3.2858    1.5258   -1.8227 H   0  0  0  0  0  0  0  0  0  0  0  0
   -0.8518    1.7332   -2.9848 H   0  0  0  0  0  0  0  0  0  0  0  0
    1.7048    0.7359    1.1616 H   0  0  0  0  0  0  0  0  0  0  0  0
    1.5386   -0.8713    0.4602 H   0  0  0  0  0  0  0  0  0  0  0  0
    3.9239    1.8413    1.3110 H   0  0  0  0  0  0  0  0  0  0  0  0
    6.3654    1.5082    1.4690 H   0  0  0  0  0  0  0  0  0  0  0  0
    7.3900   -0.6115    0.6886 H   0  0  0  0  0  0  0  0  0  0  0  0
    5.9612   -2.4041   -0.2584 H   0  0  0  0  0  0  0  0  0  0  0  0
    3.5179   -2.0895   -0.4252 H   0  0  0  0  0  0  0  0  0  0  0  0
  1  2  2  0
  2  3  1  0
  3  4  1  0
  4  5  2  0
  4  6  1  0
  6  7  1  0
  7  8  2  3
  8  9  1  0
  9 10  2  0
 10 11  1  0
 11 12  2  0
 12 13  1  0
 13 14  1  0
 14 15  1  0
 15 16  2  0
 16 17  1  0
 17 18  2  0
 18 19  1  0
 19 20  2  0
 12 21  1  0
  7  2  1  0
 21  9  1  0
 20 15  1  0
  3 22  1  0
  8 23  1  0
 10 24  1  0
 11 25  1  0
 14 26  1  0
 14 27  1  0
 16 28  1  0
 17 29  1  0
 18 30  1  0
 19 31  1  0
 20 32  1  0
M  END
$$$$
