
     RDKit          3D

 38 39  0  0  0  0  0  0  0  0999 V2000
    0.6680   -1.4098   -2.1592 O   0  0  0  0  0  0  0  0  0  0  0  0
    0.4830   -0.2841   -1.7077 C   0  0  0  0  0  0  0  0  0  0  0  0
   -0.5836    0.6533   -2.2761 C   0  0  0  0  0  0  0  0  0  0  0  0
   -1.8278    0.5725   -1.5726 O   0  0  0  0  0  0  0  0  0  0  0  0
   -1.8613    1.2395   -0.3912 C   0  0  0  0  0  0  0  0  0  0  0  0
   -0.9221    1.8560    0.0906 O   0  0  0  0  0  0  0  0  0  0  0  0
   -3.1985    1.1293    0.2530 C   0  0  0  0  0  0  0  0  0  0  0  0
   -3.3949    1.8765    1.4278 C   0  0  0  0  0  0  0  0  0  0  0  0
   -4.6179    1.8362    2.1011 C   0  0  0  0  0  0  0  0  0  0  0  0
   -5.6488    1.0487    1.6058 C   0  0  0  0  0  0  0  0  0  0  0  0
   -6.8251    1.0371    2.2937 O   0  0  0  0  0  0  0  0  0  0  0  0
   -5.4782    0.2995    0.4472 C   0  0  0  0  0  0  0  0  0  0  0  0
   -4.2551    0.3393   -0.2274 C   0  0  0  0  0  0  0  0  0  0  0  0
   -4.1934   -0.4389   -1.3517 O   0  0  0  0  0  0  0  0  0  0  0  0
    1.2037    0.2457   -0.6592 N   0  0  0  0  0  0  0  0  0  0  0  0
    2.1403   -0.5565    0.1093 C   0  0  0  0  0  0  0  0  0  0  0  0
    3.3784   -0.9968   -0.6821 C   0  0  0  0  0  0  0  0  0  0  0  0
    4.4164   -1.5303    0.1852 N   0  0  0  0  0  0  0  0  0  0  0  0
    5.3920   -0.7572    0.7651 C   0  0  0  0  0  0  0  0  0  0  0  0
    5.4213    0.5790    0.5004 O   0  0  0  0  0  0  0  0  0  0  0  0
    6.2293   -1.4255    1.5662 C   0  0  0  0  0  0  0  0  0  0  0  0
    5.8125   -3.1107    1.6459 S   0  0  0  0  0  0  0  0  0  0  0  0
    4.4304   -2.8649    0.5577 C   0  0  0  0  0  0  0  0  0  0  0  0
    3.6539   -3.7510    0.2456 O   0  0  0  0  0  0  0  0  0  0  0  0
   -0.7723    0.3577   -3.3141 H   0  0  0  0  0  0  0  0  0  0  0  0
   -0.2125    1.6854   -2.3095 H   0  0  0  0  0  0  0  0  0  0  0  0
   -2.5956    2.4985    1.8282 H   0  0  0  0  0  0  0  0  0  0  0  0
   -4.7641    2.4167    3.0084 H   0  0  0  0  0  0  0  0  0  0  0  0
   -7.4453    0.4401    1.8420 H   0  0  0  0  0  0  0  0  0  0  0  0
   -6.2787   -0.3201    0.0544 H   0  0  0  0  0  0  0  0  0  0  0  0
   -3.3037   -0.3582   -1.7460 H   0  0  0  0  0  0  0  0  0  0  0  0
    0.7807    1.0458   -0.1854 H   0  0  0  0  0  0  0  0  0  0  0  0
    1.6062   -1.4308    0.4995 H   0  0  0  0  0  0  0  0  0  0  0  0
    2.4379    0.0576    0.9669 H   0  0  0  0  0  0  0  0  0  0  0  0
    3.7862   -0.1632   -1.2663 H   0  0  0  0  0  0  0  0  0  0  0  0
    3.1014   -1.7756   -1.4021 H   0  0  0  0  0  0  0  0  0  0  0  0
    6.1786    0.9677    0.9712 H   0  0  0  0  0  0  0  0  0  0  0  0
    7.0588   -1.0086    2.1177 H   0  0  0  0  0  0  0  0  0  0  0  0
  1  2  2  0
  2  3  1  0
  3  4  1  0
  4  5  1  0
  5  6  2  0
  5  7  1  0
  7  8  2  0
  8  9  1  0
  9 10  2  0
 10 11  1  0
 10 12  1  0
 12 13  2  0
 13 14  1  0
  2 15  1  0
 15 16  1  0
 16 17  1  0
 17 18  1  0
 18 19  1  0
 19 20  1  0
 19 21  2  0
 21 22  1  0
 22 23  1  0
 23 24  2  0
 13  7  1  0
 23 18  1  0
  3 25  1  0
  3 26  1  0
  8 27  1  0
  9 28  1  0
 11 29  1  0
 12 30  1  0
 14 31  1  0
 15 32  1  0
 16 33  1  0
 16 34  1  0
 17 35  1  0
 17 36  1  0
 20 37  1  0
 21 38  1  0
M  END
$$$$
