
     RDKit          3D

 49 52  0  0  0  0  0  0  0  0999 V2000
   -5.4515    1.1991    1.6858 C   0  0  0  0  0  0  0  0  0  0  0  0
   -4.1612    0.8602    0.9984 C   0  0  0  0  0  0  0  0  0  0  0  0
   -3.4853    1.8279    0.2459 C   0  0  0  0  0  0  0  0  0  0  0  0
   -2.2668    1.5287   -0.3686 C   0  0  0  0  0  0  0  0  0  0  0  0
   -1.7130    0.2521   -0.2309 C   0  0  0  0  0  0  0  0  0  0  0  0
   -0.4823   -0.0655   -0.8578 N   0  0  0  0  0  0  0  0  0  0  0  0
   -0.1821   -1.1977   -1.6077 C   0  0  0  0  0  0  0  0  0  0  0  0
   -1.1602   -2.2168   -2.1012 C   0  0  0  0  0  0  0  0  0  0  0  0
   -2.1956   -1.6492   -3.0347 C   0  0  0  0  0  0  0  0  0  0  0  0
   -3.5503   -1.4826   -2.8167 C   0  0  0  0  0  0  0  0  0  0  0  0
   -4.2152   -0.9060   -3.9370 C   0  0  0  0  0  0  0  0  0  0  0  0
   -3.3511   -0.6639   -4.9803 C   0  0  0  0  0  0  0  0  0  0  0  0
   -1.7501   -1.1304   -4.6092 S   0  0  0  0  0  0  0  0  0  0  0  0
    1.0976   -1.1797   -1.9322 N   0  0  0  0  0  0  0  0  0  0  0  0
    1.6450   -0.0198   -1.4651 N   0  0  0  0  0  0  0  0  0  0  0  0
    0.7016    0.6535   -0.8518 C   0  0  0  0  0  0  0  0  0  0  0  0
    0.9817    2.1264    0.0255 S   0  0  0  0  0  0  0  0  0  0  0  0
    2.6526    2.5658   -0.5472 C   0  0  0  0  0  0  0  0  0  0  0  0
    3.7956    1.7832    0.0961 C   0  0  0  0  0  0  0  0  0  0  0  0
    4.9380    1.9240   -0.3401 O   0  0  0  0  0  0  0  0  0  0  0  0
    3.4517    1.0118    1.1896 N   0  0  0  0  0  0  0  0  0  0  0  0
    4.2839    0.1955    1.9794 C   0  0  0  0  0  0  0  0  0  0  0  0
    5.6635    0.0604    1.7845 C   0  0  0  0  0  0  0  0  0  0  0  0
    6.4220   -0.7747    2.6140 C   0  0  0  0  0  0  0  0  0  0  0  0
    5.8001   -1.4749    3.6392 C   0  0  0  0  0  0  0  0  0  0  0  0
    6.5284   -2.2725    4.4320 F   0  0  0  0  0  0  0  0  0  0  0  0
    4.4331   -1.3462    3.8395 C   0  0  0  0  0  0  0  0  0  0  0  0
    3.8289   -2.0184    4.8298 F   0  0  0  0  0  0  0  0  0  0  0  0
    3.6721   -0.5177    3.0184 C   0  0  0  0  0  0  0  0  0  0  0  0
   -2.3734   -0.7161    0.5344 C   0  0  0  0  0  0  0  0  0  0  0  0
   -3.5885   -0.4074    1.1507 C   0  0  0  0  0  0  0  0  0  0  0  0
   -5.2492    1.6075    2.6807 H   0  0  0  0  0  0  0  0  0  0  0  0
   -6.0193    1.9361    1.1083 H   0  0  0  0  0  0  0  0  0  0  0  0
   -6.0839    0.3110    1.7895 H   0  0  0  0  0  0  0  0  0  0  0  0
   -3.9093    2.8232    0.1265 H   0  0  0  0  0  0  0  0  0  0  0  0
   -1.7941    2.2947   -0.9790 H   0  0  0  0  0  0  0  0  0  0  0  0
   -1.6443   -2.7239   -1.2609 H   0  0  0  0  0  0  0  0  0  0  0  0
   -0.6082   -3.0061   -2.6294 H   0  0  0  0  0  0  0  0  0  0  0  0
   -4.0476   -1.7538   -1.8931 H   0  0  0  0  0  0  0  0  0  0  0  0
   -5.2744   -0.6828   -3.9768 H   0  0  0  0  0  0  0  0  0  0  0  0
   -3.5819   -0.2379   -5.9471 H   0  0  0  0  0  0  0  0  0  0  0  0
    2.8122    3.6215   -0.3040 H   0  0  0  0  0  0  0  0  0  0  0  0
    2.7150    2.4566   -1.6347 H   0  0  0  0  0  0  0  0  0  0  0  0
    2.4627    1.0001    1.4133 H   0  0  0  0  0  0  0  0  0  0  0  0
    6.1830    0.5901    0.9910 H   0  0  0  0  0  0  0  0  0  0  0  0
    7.4916   -0.8795    2.4593 H   0  0  0  0  0  0  0  0  0  0  0  0
    2.6059   -0.4451    3.2071 H   0  0  0  0  0  0  0  0  0  0  0  0
   -1.9433   -1.6994    0.7069 H   0  0  0  0  0  0  0  0  0  0  0  0
   -4.0840   -1.1614    1.7598 H   0  0  0  0  0  0  0  0  0  0  0  0
  1  2  1  0
  2  3  2  0
  3  4  1  0
  4  5  2  0
  5  6  1  0
  6  7  1  0
  7  8  1  0
  8  9  1  0
  9 10  2  0
 10 11  1  0
 11 12  2  0
 12 13  1  0
  7 14  2  0
 14 15  1  0
 15 16  2  0
 16 17  1  0
 17 18  1  0
 18 19  1  0
 19 20  2  0
 19 21  1  0
 21 22  1  0
 22 23  2  0
 23 24  1  0
 24 25  2  0
 25 26  1  0
 25 27  1  0
 27 28  1  0
 27 29  2  0
  5 30  1  0
 30 31  2  0
 31  2  1  0
 16  6  1  0
 29 22  1  0
 13  9  1  0
  1 32  1  0
  1 33  1  0
  1 34  1  0
  3 35  1  0
  4 36  1  0
  8 37  1  0
  8 38  1  0
 10 39  1  0
 11 40  1  0
 12 41  1  0
 18 42  1  0
 18 43  1  0
 21 44  1  0
 23 45  1  0
 24 46  1  0
 29 47  1  0
 30 48  1  0
 31 49  1  0
M  END
$$$$
