
     RDKit          3D

 44 46  0  0  0  0  0  0  0  0999 V2000
    6.2123    2.2765   -2.0061 C   0  0  0  0  0  0  0  0  0  0  0  0
    6.7970    1.5205   -0.9521 O   0  0  0  0  0  0  0  0  0  0  0  0
    6.0328    0.5134   -0.4205 C   0  0  0  0  0  0  0  0  0  0  0  0
    4.7606    0.1294   -0.8475 C   0  0  0  0  0  0  0  0  0  0  0  0
    4.0861   -0.9210   -0.2024 C   0  0  0  0  0  0  0  0  0  0  0  0
    2.7522   -1.3470   -0.6394 C   0  0  0  0  0  0  0  0  0  0  0  0
    1.6278   -0.6251   -0.5439 C   0  0  0  0  0  0  0  0  0  0  0  0
    1.4338    0.9629    0.1041 S   0  0  0  0  0  0  0  0  0  0  0  0
   -0.3074    0.9732   -0.1667 C   0  0  0  0  0  0  0  0  0  0  0  0
   -1.2892    2.2667    0.2040 S   0  0  0  0  0  0  0  0  0  0  0  0
   -0.6654   -0.2228   -0.7494 N   0  0  0  0  0  0  0  0  0  0  0  0
   -2.1121   -0.6028   -1.0241 N   0  0  0  0  0  0  0  0  0  0  0  0
   -2.8074   -1.5155    0.2483 S   0  0  0  0  0  6  0  0  0  0  0  0
   -1.9813   -1.3526    1.4262 O   0  0  0  0  0  0  0  0  0  0  0  0
   -3.1056   -2.8194   -0.3010 O   0  0  0  0  0  0  0  0  0  0  0  0
   -4.3384   -0.6591    0.4967 C   0  0  0  0  0  0  0  0  0  0  0  0
   -5.4411   -0.9782   -0.3001 C   0  0  0  0  0  0  0  0  0  0  0  0
   -6.6549   -0.3219   -0.0898 C   0  0  0  0  0  0  0  0  0  0  0  0
   -6.7718    0.6516    0.9115 C   0  0  0  0  0  0  0  0  0  0  0  0
   -8.0869    1.3319    1.1583 C   0  0  0  0  0  0  0  0  0  0  0  0
   -5.6657    0.9387    1.7228 C   0  0  0  0  0  0  0  0  0  0  0  0
   -4.4495    0.2845    1.5198 C   0  0  0  0  0  0  0  0  0  0  0  0
    0.3183   -1.1613   -1.0007 C   0  0  0  0  0  0  0  0  0  0  0  0
    0.1504   -2.2456   -1.5411 O   0  0  0  0  0  0  0  0  0  0  0  0
    4.7007   -1.5969    0.8595 C   0  0  0  0  0  0  0  0  0  0  0  0
    5.9726   -1.2201    1.2878 C   0  0  0  0  0  0  0  0  0  0  0  0
    6.6220   -0.1732    0.6474 C   0  0  0  0  0  0  0  0  0  0  0  0
    7.8689    0.1787    1.0878 O   0  0  0  0  0  0  0  0  0  0  0  0
    6.0222    1.6482   -2.8823 H   0  0  0  0  0  0  0  0  0  0  0  0
    5.2985    2.7789   -1.6725 H   0  0  0  0  0  0  0  0  0  0  0  0
    6.9291    3.0493   -2.2998 H   0  0  0  0  0  0  0  0  0  0  0  0
    4.2750    0.6286   -1.6790 H   0  0  0  0  0  0  0  0  0  0  0  0
    2.7126   -2.3582   -1.0444 H   0  0  0  0  0  0  0  0  0  0  0  0
   -2.1798   -1.1889   -1.8658 H   0  0  0  0  0  0  0  0  0  0  0  0
   -5.3696   -1.7370   -1.0761 H   0  0  0  0  0  0  0  0  0  0  0  0
   -7.5132   -0.5768   -0.7089 H   0  0  0  0  0  0  0  0  0  0  0  0
   -7.9340    2.3476    1.5379 H   0  0  0  0  0  0  0  0  0  0  0  0
   -8.6692    0.7644    1.8903 H   0  0  0  0  0  0  0  0  0  0  0  0
   -8.6650    1.4138    0.2322 H   0  0  0  0  0  0  0  0  0  0  0  0
   -5.7462    1.6741    2.5212 H   0  0  0  0  0  0  0  0  0  0  0  0
   -3.6028    0.5173    2.1620 H   0  0  0  0  0  0  0  0  0  0  0  0
    4.1940   -2.4162    1.3652 H   0  0  0  0  0  0  0  0  0  0  0  0
    6.4531   -1.7353    2.1137 H   0  0  0  0  0  0  0  0  0  0  0  0
    8.1363    0.9250    0.5171 H   0  0  0  0  0  0  0  0  0  0  0  0
  1  2  1  0
  2  3  1  0
  3  4  2  0
  4  5  1  0
  5  6  1  0
  6  7  2  3
  7  8  1  0
  8  9  1  0
  9 10  2  0
  9 11  1  0
 11 12  1  0
 12 13  1  0
 13 14  2  0
 13 15  2  0
 13 16  1  0
 16 17  2  0
 17 18  1  0
 18 19  2  0
 19 20  1  0
 19 21  1  0
 21 22  2  0
 11 23  1  0
 23 24  2  0
  5 25  2  0
 25 26  1  0
 26 27  2  0
 27 28  1  0
 27  3  1  0
 23  7  1  0
 22 16  1  0
  1 29  1  0
  1 30  1  0
  1 31  1  0
  4 32  1  0
  6 33  1  0
 12 34  1  0
 17 35  1  0
 18 36  1  0
 20 37  1  0
 20 38  1  0
 20 39  1  0
 21 40  1  0
 22 41  1  0
 25 42  1  0
 26 43  1  0
 28 44  1  0
M  END
$$$$
