
     RDKit          3D

 37 39  0  0  0  0  0  0  0  0999 V2000
   -4.0396    1.8616    0.0256 O   0  0  0  0  0  0  0  0  0  0  0  0
   -4.3103    0.6688    0.1288 C   0  0  0  0  0  0  0  0  0  0  0  0
   -3.3699   -0.3465    0.1948 N   0  0  0  0  0  0  0  0  0  0  0  0
   -1.9661   -0.2448    0.1637 C   0  0  0  0  0  0  0  0  0  0  0  0
   -1.2395   -1.4372    0.2426 C   0  0  0  0  0  0  0  0  0  0  0  0
    0.1601   -1.4251    0.2182 C   0  0  0  0  0  0  0  0  0  0  0  0
    0.8623   -0.2201    0.1159 C   0  0  0  0  0  0  0  0  0  0  0  0
    2.2705   -0.2954    0.0964 N   0  0  0  0  0  0  0  0  0  0  0  0
    3.1710    0.7498    0.0431 C   0  0  0  0  0  0  0  0  0  0  0  0
    2.8955    1.9432   -0.0159 O   0  0  0  0  0  0  0  0  0  0  0  0
    4.6175    0.3753   -0.0037 C   0  0  0  0  0  0  0  0  0  0  0  0
    5.4483    1.2176   -0.7671 C   0  0  0  0  0  0  0  0  0  0  0  0
    6.8167    0.9630   -0.8841 C   0  0  0  0  0  0  0  0  0  0  0  0
    7.3690   -0.1337   -0.2317 C   0  0  0  0  0  0  0  0  0  0  0  0
    9.0527   -0.4536   -0.3725 Cl  0  0  0  0  0  0  0  0  0  0  0  0
    6.5675   -0.9724    0.5394 C   0  0  0  0  0  0  0  0  0  0  0  0
    5.1940   -0.7192    0.6594 C   0  0  0  0  0  0  0  0  0  0  0  0
    4.3030   -1.7980    1.6760 Cl  0  0  0  0  0  0  0  0  0  0  0  0
    0.1376    0.9676    0.0378 C   0  0  0  0  0  0  0  0  0  0  0  0
   -1.2658    0.9555    0.0613 C   0  0  0  0  0  0  0  0  0  0  0  0
   -5.7018    0.2146    0.1907 C   0  0  0  0  0  0  0  0  0  0  0  0
   -6.8310    1.0142    0.1463 C   0  0  0  0  0  0  0  0  0  0  0  0
   -8.0410    0.2673    0.2288 C   0  0  0  0  0  0  0  0  0  0  0  0
   -7.8027   -1.0838    0.3340 C   0  0  0  0  0  0  0  0  0  0  0  0
   -6.1314   -1.4416    0.3327 S   0  0  0  0  0  0  0  0  0  0  0  0
   -3.7530   -1.2800    0.2761 H   0  0  0  0  0  0  0  0  0  0  0  0
   -1.7478   -2.3945    0.3247 H   0  0  0  0  0  0  0  0  0  0  0  0
    0.6879   -2.3730    0.2838 H   0  0  0  0  0  0  0  0  0  0  0  0
    2.6566   -1.2294    0.1655 H   0  0  0  0  0  0  0  0  0  0  0  0
    5.0257    2.0827   -1.2788 H   0  0  0  0  0  0  0  0  0  0  0  0
    7.4395    1.6255   -1.4808 H   0  0  0  0  0  0  0  0  0  0  0  0
    7.0152   -1.8191    1.0550 H   0  0  0  0  0  0  0  0  0  0  0  0
    0.6283    1.9326   -0.0437 H   0  0  0  0  0  0  0  0  0  0  0  0
   -1.7735    1.9131   -0.0022 H   0  0  0  0  0  0  0  0  0  0  0  0
   -6.7805    2.0943    0.0580 H   0  0  0  0  0  0  0  0  0  0  0  0
   -9.0338    0.7006    0.2118 H   0  0  0  0  0  0  0  0  0  0  0  0
   -8.5311   -1.8797    0.4119 H   0  0  0  0  0  0  0  0  0  0  0  0
  1  2  2  0
  2  3  1  0
  3  4  1  0
  4  5  2  0
  5  6  1  0
  6  7  2  0
  7  8  1  0
  8  9  1  0
  9 10  2  0
  9 11  1  0
 11 12  2  0
 12 13  1  0
 13 14  2  0
 14 15  1  0
 14 16  1  0
 16 17  2  0
 17 18  1  0
  7 19  1  0
 19 20  2  0
  2 21  1  0
 21 22  2  0
 22 23  1  0
 23 24  2  0
 24 25  1  0
 20  4  1  0
 25 21  1  0
 17 11  1  0
  3 26  1  0
  5 27  1  0
  6 28  1  0
  8 29  1  0
 12 30  1  0
 13 31  1  0
 16 32  1  0
 19 33  1  0
 20 34  1  0
 22 35  1  0
 23 36  1  0
 24 37  1  0
M  END
$$$$
