
     RDKit          3D

102104  0  0  0  0  0  0  0  0999 V2000
    8.9229    2.0866    0.1786 C   0  0  0  0  0  0  0  0  0  0  0  0
    7.4027    2.1341    0.1841 C   0  0  0  0  0  0  0  0  0  0  0  0
    6.8265    1.7856   -1.1898 C   0  0  0  0  0  0  0  0  0  0  0  0
    5.2972    1.8693   -1.2481 C   0  0  0  0  0  0  0  0  0  0  0  0
    4.6072    0.8489   -0.3409 C   0  0  0  0  0  0  0  0  0  0  0  0
    3.0935    0.7345   -0.5761 C   0  0  0  0  0  0  0  0  0  0  0  0
    2.3314    1.9919   -0.1495 C   0  0  0  0  0  0  0  0  0  0  0  0
    0.8740    1.9356   -0.5673 C   0  0  0  0  0  0  0  0  0  0  0  0
    0.4233    1.1521   -1.3955 O   0  0  0  0  0  0  0  0  0  0  0  0
    0.0930    2.8951    0.0428 N   0  0  0  0  0  0  0  0  0  0  0  0
   -1.3518    2.8751   -0.1585 C   0  0  0  0  0  0  0  0  0  0  0  0
   -1.9492    4.2829   -0.0054 C   0  0  0  0  0  0  0  0  0  0  0  0
   -1.4590    5.3005   -1.0565 C   0  0  0  0  0  0  0  0  0  0  0  0
   -1.9832    6.6973   -0.7151 C   0  0  0  0  0  0  0  0  0  0  0  0
   -1.8901    4.9202   -2.4741 C   0  0  0  0  0  0  0  0  0  0  0  0
   -1.9859    1.9271    0.8847 C   0  0  0  0  0  0  0  0  0  0  0  0
   -1.4028    1.5455    1.8990 O   0  0  0  0  0  0  0  0  0  0  0  0
   -3.2845    1.5737    0.6098 N   0  0  0  0  0  0  0  0  0  0  0  0
   -4.1245    0.8067    1.5357 C   0  0  0  0  0  0  0  0  0  0  0  0
   -5.6067    1.2275    1.4272 C   0  0  0  0  0  0  0  0  0  0  0  0
   -6.1489    1.2699    0.0131 C   0  0  0  0  0  0  0  0  0  0  0  0
   -6.6034    0.1037   -0.6160 C   0  0  0  0  0  0  0  0  0  0  0  0
   -7.0637    0.1426   -1.9333 C   0  0  0  0  0  0  0  0  0  0  0  0
   -7.0794    1.3464   -2.6343 C   0  0  0  0  0  0  0  0  0  0  0  0
   -6.6378    2.5146   -2.0168 C   0  0  0  0  0  0  0  0  0  0  0  0
   -6.1779    2.4785   -0.6995 C   0  0  0  0  0  0  0  0  0  0  0  0
   -3.9460   -0.7289    1.4306 C   0  0  0  0  0  0  0  0  0  0  0  0
   -4.8662   -1.5184    1.6417 O   0  0  0  0  0  0  0  0  0  0  0  0
   -2.6411   -1.1584    1.2517 N   0  0  0  0  0  0  0  0  0  0  0  0
   -2.3142   -2.5755    1.4605 C   0  0  0  0  0  0  0  0  0  0  0  0
   -2.7691   -3.4355    0.2658 C   0  0  0  0  0  0  0  0  0  0  0  0
   -2.4897   -4.9470    0.4058 C   0  0  0  0  0  0  0  0  0  0  0  0
   -3.1809   -5.5590    1.6247 C   0  0  0  0  0  0  0  0  0  0  0  0
   -2.9416   -5.6737   -0.8647 C   0  0  0  0  0  0  0  0  0  0  0  0
   -0.7993   -2.7141    1.6995 C   0  0  0  0  0  0  0  0  0  0  0  0
   -0.3406   -3.2639    2.6979 O   0  0  0  0  0  0  0  0  0  0  0  0
    0.0022   -2.2354    0.6896 N   0  0  0  0  0  0  0  0  0  0  0  0
    1.4627   -2.3317    0.7570 C   0  0  0  0  0  0  0  0  0  0  0  0
    1.9645   -3.7633    0.5055 C   0  0  0  0  0  0  0  0  0  0  0  0
    3.4590   -3.8934    0.6951 C   0  0  0  0  0  0  0  0  0  0  0  0
    4.3220   -3.8480   -0.4091 C   0  0  0  0  0  0  0  0  0  0  0  0
    5.7024   -3.9379   -0.2303 C   0  0  0  0  0  0  0  0  0  0  0  0
    6.2327   -4.0771    1.0509 C   0  0  0  0  0  0  0  0  0  0  0  0
    5.3826   -4.1239    2.1552 C   0  0  0  0  0  0  0  0  0  0  0  0
    4.0009   -4.0313    1.9802 C   0  0  0  0  0  0  0  0  0  0  0  0
    2.0308   -1.3981   -0.3085 C   0  0  0  0  0  0  0  0  0  0  0  0
    1.8758   -1.5588   -1.5138 O   0  0  0  0  0  0  0  0  0  0  0  0
    2.6458   -0.3376    0.2845 O   0  0  0  0  0  0  0  0  0  0  0  0
    9.2811    1.0791   -0.0535 H   0  0  0  0  0  0  0  0  0  0  0  0
    9.3385    2.7796   -0.5583 H   0  0  0  0  0  0  0  0  0  0  0  0
    9.3139    2.3629    1.1624 H   0  0  0  0  0  0  0  0  0  0  0  0
    7.0399    1.4315    0.9410 H   0  0  0  0  0  0  0  0  0  0  0  0
    7.0731    3.1367    0.4793 H   0  0  0  0  0  0  0  0  0  0  0  0
    7.1496    0.7796   -1.4827 H   0  0  0  0  0  0  0  0  0  0  0  0
    7.2382    2.4771   -1.9354 H   0  0  0  0  0  0  0  0  0  0  0  0
    4.9848    1.6974   -2.2854 H   0  0  0  0  0  0  0  0  0  0  0  0
    4.9868    2.8850   -0.9815 H   0  0  0  0  0  0  0  0  0  0  0  0
    5.0571   -0.1404   -0.4975 H   0  0  0  0  0  0  0  0  0  0  0  0
    4.7879    1.0911    0.7140 H   0  0  0  0  0  0  0  0  0  0  0  0
    2.9126    0.5126   -1.6337 H   0  0  0  0  0  0  0  0  0  0  0  0
    2.7569    2.8868   -0.6137 H   0  0  0  0  0  0  0  0  0  0  0  0
    2.3770    2.1078    0.9402 H   0  0  0  0  0  0  0  0  0  0  0  0
    0.4068    3.2130    0.9524 H   0  0  0  0  0  0  0  0  0  0  0  0
   -1.5777    2.4664   -1.1492 H   0  0  0  0  0  0  0  0  0  0  0  0
   -3.0440    4.2260   -0.0495 H   0  0  0  0  0  0  0  0  0  0  0  0
   -1.7106    4.6626    0.9970 H   0  0  0  0  0  0  0  0  0  0  0  0
   -0.3642    5.3459   -1.0324 H   0  0  0  0  0  0  0  0  0  0  0  0
   -1.6200    7.4373   -1.4372 H   0  0  0  0  0  0  0  0  0  0  0  0
   -1.6461    7.0086    0.2798 H   0  0  0  0  0  0  0  0  0  0  0  0
   -3.0779    6.7253   -0.7254 H   0  0  0  0  0  0  0  0  0  0  0  0
   -1.4340    3.9787   -2.7915 H   0  0  0  0  0  0  0  0  0  0  0  0
   -2.9774    4.8143   -2.5412 H   0  0  0  0  0  0  0  0  0  0  0  0
   -1.5803    5.6869   -3.1917 H   0  0  0  0  0  0  0  0  0  0  0  0
   -3.5934    1.6128   -0.3589 H   0  0  0  0  0  0  0  0  0  0  0  0
   -3.7940    1.0512    2.5551 H   0  0  0  0  0  0  0  0  0  0  0  0
   -5.7121    2.2306    1.8637 H   0  0  0  0  0  0  0  0  0  0  0  0
   -6.2472    0.5774    2.0373 H   0  0  0  0  0  0  0  0  0  0  0  0
   -6.6089   -0.8469   -0.0846 H   0  0  0  0  0  0  0  0  0  0  0  0
   -7.4166   -0.7686   -2.4096 H   0  0  0  0  0  0  0  0  0  0  0  0
   -7.4426    1.3741   -3.6587 H   0  0  0  0  0  0  0  0  0  0  0  0
   -6.6588    3.4553   -2.5610 H   0  0  0  0  0  0  0  0  0  0  0  0
   -5.8412    3.4022   -0.2326 H   0  0  0  0  0  0  0  0  0  0  0  0
   -1.9304   -0.4796    1.5219 H   0  0  0  0  0  0  0  0  0  0  0  0
   -2.8245   -2.8897    2.3782 H   0  0  0  0  0  0  0  0  0  0  0  0
   -2.2854   -3.0729   -0.6520 H   0  0  0  0  0  0  0  0  0  0  0  0
   -3.8452   -3.2917    0.1007 H   0  0  0  0  0  0  0  0  0  0  0  0
   -1.4098   -5.1073    0.5085 H   0  0  0  0  0  0  0  0  0  0  0  0
   -4.2559   -5.3494    1.6188 H   0  0  0  0  0  0  0  0  0  0  0  0
   -2.7612   -5.1723    2.5580 H   0  0  0  0  0  0  0  0  0  0  0  0
   -3.0493   -6.6466    1.6409 H   0  0  0  0  0  0  0  0  0  0  0  0
   -2.7064   -6.7416   -0.8069 H   0  0  0  0  0  0  0  0  0  0  0  0
   -4.0213   -5.5720   -1.0177 H   0  0  0  0  0  0  0  0  0  0  0  0
   -2.4350   -5.2696   -1.7466 H   0  0  0  0  0  0  0  0  0  0  0  0
   -0.4198   -1.8328   -0.1423 H   0  0  0  0  0  0  0  0  0  0  0  0
    1.7725   -1.9911    1.7525 H   0  0  0  0  0  0  0  0  0  0  0  0
    1.4663   -4.4715    1.1813 H   0  0  0  0  0  0  0  0  0  0  0  0
    1.6929   -4.0945   -0.5061 H   0  0  0  0  0  0  0  0  0  0  0  0
    3.9233   -3.7414   -1.4172 H   0  0  0  0  0  0  0  0  0  0  0  0
    6.3639   -3.8992   -1.0912 H   0  0  0  0  0  0  0  0  0  0  0  0
    7.3086   -4.1498    1.1883 H   0  0  0  0  0  0  0  0  0  0  0  0
    5.7961   -4.2304    3.1550 H   0  0  0  0  0  0  0  0  0  0  0  0
    3.3481   -4.0713    2.8509 H   0  0  0  0  0  0  0  0  0  0  0  0
  1  2  1  0
  2  3  1  0
  3  4  1  0
  4  5  1  0
  5  6  1  0
  6  7  1  0
  7  8  1  0
  8  9  2  0
  8 10  1  0
 10 11  1  0
 11 12  1  0
 12 13  1  0
 13 14  1  0
 13 15  1  0
 11 16  1  0
 16 17  2  0
 16 18  1  0
 18 19  1  0
 19 20  1  0
 20 21  1  0
 21 22  2  0
 22 23  1  0
 23 24  2  0
 24 25  1  0
 25 26  2  0
 19 27  1  0
 27 28  2  0
 27 29  1  0
 29 30  1  0
 30 31  1  0
 31 32  1  0
 32 33  1  0
 32 34  1  0
 30 35  1  0
 35 36  2  0
 35 37  1  0
 37 38  1  0
 38 39  1  0
 39 40  1  0
 40 41  2  0
 41 42  1  0
 42 43  2  0
 43 44  1  0
 44 45  2  0
 38 46  1  0
 46 47  2  0
 46 48  1  0
 48  6  1  0
 26 21  1  0
 45 40  1  0
  1 49  1  0
  1 50  1  0
  1 51  1  0
  2 52  1  0
  2 53  1  0
  3 54  1  0
  3 55  1  0
  4 56  1  0
  4 57  1  0
  5 58  1  0
  5 59  1  0
  6 60  1  0
  7 61  1  0
  7 62  1  0
 10 63  1  0
 11 64  1  0
 12 65  1  0
 12 66  1  0
 13 67  1  0
 14 68  1  0
 14 69  1  0
 14 70  1  0
 15 71  1  0
 15 72  1  0
 15 73  1  0
 18 74  1  0
 19 75  1  0
 20 76  1  0
 20 77  1  0
 22 78  1  0
 23 79  1  0
 24 80  1  0
 25 81  1  0
 26 82  1  0
 29 83  1  0
 30 84  1  0
 31 85  1  0
 31 86  1  0
 32 87  1  0
 33 88  1  0
 33 89  1  0
 33 90  1  0
 34 91  1  0
 34 92  1  0
 34 93  1  0
 37 94  1  0
 38 95  1  0
 39 96  1  0
 39 97  1  0
 41 98  1  0
 42 99  1  0
 43100  1  0
 44101  1  0
 45102  1  0
M  END
$$$$
