
     RDKit          3D

 45 44  0  0  0  0  0  0  0  0999 V2000
    5.5664   -4.0135    0.9436 C   0  0  0  0  0  0  0  0  0  0  0  0
    4.1643   -4.4769    0.5798 C   0  0  0  0  0  0  0  0  0  0  0  0
    3.1388   -3.3430    0.5442 C   0  0  0  0  0  0  0  0  0  0  0  0
    3.4049   -2.3225   -0.5608 C   0  0  0  0  0  0  0  0  0  0  0  0
    2.3455   -1.3432   -0.6409 N   0  0  0  0  0  0  0  0  0  0  0  0
    2.2952   -0.2443    0.1601 C   0  0  0  0  0  0  0  0  0  0  0  0
    3.1425    0.0811    0.9764 O   0  0  0  0  0  0  0  0  0  0  0  0
    1.1477    0.4312   -0.0899 O   0  0  0  0  0  0  0  0  0  0  0  0
    0.9909    1.6253    0.6938 C   0  0  0  0  0  0  0  0  0  0  0  0
   -0.2919    2.3696    0.2865 C   0  0  0  0  0  0  0  0  0  0  0  0
   -0.2077    3.0516   -1.0940 C   0  0  0  0  0  0  0  0  0  0  0  0
   -0.0288    2.1203   -2.2851 C   0  0  0  0  0  0  0  0  0  0  0  0
   -1.4481    1.4885    0.3752 N   0  0  0  0  0  0  0  0  0  0  0  0
   -2.7171    1.9393    0.5626 C   0  0  0  0  0  0  0  0  0  0  0  0
   -3.0284    3.0941    0.8074 O   0  0  0  0  0  0  0  0  0  0  0  0
   -3.5756    0.9013    0.4201 O   0  0  0  0  0  0  0  0  0  0  0  0
   -4.9721    1.2112    0.5804 C   0  0  0  0  0  0  0  0  0  0  0  0
   -5.5338    1.7333   -0.7374 C   0  0  0  0  0  0  0  0  0  0  0  0
   -5.6735   -0.0777    0.9917 C   0  0  0  0  0  0  0  0  0  0  0  0
    6.2324   -4.8764    1.0452 H   0  0  0  0  0  0  0  0  0  0  0  0
    5.9860   -3.3608    0.1725 H   0  0  0  0  0  0  0  0  0  0  0  0
    5.5668   -3.4714    1.8945 H   0  0  0  0  0  0  0  0  0  0  0  0
    3.8387   -5.2169    1.3207 H   0  0  0  0  0  0  0  0  0  0  0  0
    4.1890   -4.9887   -0.3893 H   0  0  0  0  0  0  0  0  0  0  0  0
    3.1087   -2.8407    1.5191 H   0  0  0  0  0  0  0  0  0  0  0  0
    2.1434   -3.7807    0.3947 H   0  0  0  0  0  0  0  0  0  0  0  0
    4.3497   -1.7975   -0.3867 H   0  0  0  0  0  0  0  0  0  0  0  0
    3.4593   -2.8164   -1.5364 H   0  0  0  0  0  0  0  0  0  0  0  0
    1.5350   -1.5141   -1.2183 H   0  0  0  0  0  0  0  0  0  0  0  0
    0.9185    1.3361    1.7497 H   0  0  0  0  0  0  0  0  0  0  0  0
    1.8601    2.2805    0.5596 H   0  0  0  0  0  0  0  0  0  0  0  0
   -0.4446    3.1732    1.0192 H   0  0  0  0  0  0  0  0  0  0  0  0
    0.6189    3.7726   -1.0871 H   0  0  0  0  0  0  0  0  0  0  0  0
   -1.1228    3.6349   -1.2573 H   0  0  0  0  0  0  0  0  0  0  0  0
   -0.1111    2.6907   -3.2165 H   0  0  0  0  0  0  0  0  0  0  0  0
   -0.7925    1.3375   -2.3053 H   0  0  0  0  0  0  0  0  0  0  0  0
    0.9583    1.6503   -2.2825 H   0  0  0  0  0  0  0  0  0  0  0  0
   -1.3645    0.5339    0.0531 H   0  0  0  0  0  0  0  0  0  0  0  0
   -5.1134    1.9517    1.3772 H   0  0  0  0  0  0  0  0  0  0  0  0
   -6.6073    1.9309   -0.6597 H   0  0  0  0  0  0  0  0  0  0  0  0
   -5.0341    2.6609   -1.0349 H   0  0  0  0  0  0  0  0  0  0  0  0
   -5.3661    1.0140   -1.5466 H   0  0  0  0  0  0  0  0  0  0  0  0
   -5.2510   -0.4584    1.9280 H   0  0  0  0  0  0  0  0  0  0  0  0
   -6.7470    0.0806    1.1329 H   0  0  0  0  0  0  0  0  0  0  0  0
   -5.5292   -0.8620    0.2403 H   0  0  0  0  0  0  0  0  0  0  0  0
  1  2  1  0
  2  3  1  0
  3  4  1  0
  4  5  1  0
  5  6  1  0
  6  7  2  0
  6  8  1  0
  8  9  1  0
  9 10  1  0
 10 11  1  0
 11 12  1  0
 10 13  1  0
 13 14  1  0
 14 15  2  0
 14 16  1  0
 16 17  1  0
 17 18  1  0
 17 19  1  0
  1 20  1  0
  1 21  1  0
  1 22  1  0
  2 23  1  0
  2 24  1  0
  3 25  1  0
  3 26  1  0
  4 27  1  0
  4 28  1  0
  5 29  1  0
  9 30  1  0
  9 31  1  0
 10 32  1  0
 11 33  1  0
 11 34  1  0
 12 35  1  0
 12 36  1  0
 12 37  1  0
 13 38  1  0
 17 39  1  0
 18 40  1  0
 18 41  1  0
 18 42  1  0
 19 43  1  0
 19 44  1  0
 19 45  1  0
M  END
$$$$
