
     RDKit          3D

 64 67  0  0  0  0  0  0  0  0999 V2000
    7.5533   -6.5098   -3.5139 C   0  0  0  0  0  0  0  0  0  0  0  0
    6.5927   -5.5443   -3.9243 O   0  0  0  0  0  0  0  0  0  0  0  0
    6.1394   -4.6776   -2.9702 C   0  0  0  0  0  0  0  0  0  0  0  0
    5.2425   -3.7140   -3.4320 C   0  0  0  0  0  0  0  0  0  0  0  0
    4.7014   -2.7571   -2.5646 C   0  0  0  0  0  0  0  0  0  0  0  0
    5.0486   -2.7542   -1.2152 C   0  0  0  0  0  0  0  0  0  0  0  0
    4.5591   -1.8266   -0.2717 N   0  0  0  0  0  0  0  0  0  0  0  0
    3.6910   -0.7675   -0.4980 C   0  0  0  0  0  0  0  0  0  0  0  0
    3.2179   -0.4436   -1.5835 O   0  0  0  0  0  0  0  0  0  0  0  0
    3.4321    0.0571    0.7772 C   0  0  0  0  0  0  0  0  0  0  0  0
    2.1285    0.7203    0.7736 N   0  0  0  0  0  0  0  0  0  0  0  0
    1.9907    1.9014   -0.0709 C   0  0  0  0  0  0  0  0  0  0  0  0
    1.0637    0.0042    1.3011 C   0  0  0  0  0  0  0  0  0  0  0  0
    1.2161   -1.0215    1.9640 O   0  0  0  0  0  0  0  0  0  0  0  0
   -0.3008    0.5259    1.0342 C   0  0  0  0  0  0  0  0  0  0  0  0
   -1.3165    0.1959    1.8471 C   0  0  0  0  0  0  0  0  0  0  0  0
   -2.6772    0.5942    1.6799 C   0  0  0  0  0  0  0  0  0  0  0  0
   -3.7398   -0.1299    2.1675 C   0  0  0  0  0  0  0  0  0  0  0  0
   -4.8883    0.5216    1.7787 N   0  0  0  0  0  0  0  0  0  0  0  0
   -6.2380    0.1376    2.0252 C   0  0  0  0  0  0  0  0  0  0  0  0
   -6.5442   -1.0253    2.7455 C   0  0  0  0  0  0  0  0  0  0  0  0
   -7.8783   -1.3838    2.9613 C   0  0  0  0  0  0  0  0  0  0  0  0
   -8.9099   -0.5913    2.4597 C   0  0  0  0  0  0  0  0  0  0  0  0
   -8.6136    0.5706    1.7529 C   0  0  0  0  0  0  0  0  0  0  0  0
   -7.2831    0.9365    1.5352 C   0  0  0  0  0  0  0  0  0  0  0  0
   -4.6038    1.6464    1.0771 N   0  0  0  0  0  0  0  0  0  0  0  0
   -3.2664    1.7166    1.0356 C   0  0  0  0  0  0  0  0  0  0  0  0
   -2.6132    2.8512    0.3939 C   0  0  0  0  0  0  0  0  0  0  0  0
   -2.7829    3.0780   -0.9753 C   0  0  0  0  0  0  0  0  0  0  0  0
   -2.1231    4.1399   -1.5990 C   0  0  0  0  0  0  0  0  0  0  0  0
   -1.3049    5.0005   -0.8574 C   0  0  0  0  0  0  0  0  0  0  0  0
   -0.5722    6.1219   -1.5323 C   0  0  0  0  0  0  0  0  0  0  0  0
   -1.1410    4.7737    0.5136 C   0  0  0  0  0  0  0  0  0  0  0  0
   -1.7941    3.7079    1.1371 C   0  0  0  0  0  0  0  0  0  0  0  0
    5.9423   -3.7287   -0.7512 C   0  0  0  0  0  0  0  0  0  0  0  0
    6.4864   -4.6835   -1.6214 C   0  0  0  0  0  0  0  0  0  0  0  0
    8.4652   -6.0270   -3.1468 H   0  0  0  0  0  0  0  0  0  0  0  0
    7.1351   -7.1899   -2.7637 H   0  0  0  0  0  0  0  0  0  0  0  0
    7.8229   -7.1072   -4.3904 H   0  0  0  0  0  0  0  0  0  0  0  0
    4.9564   -3.7030   -4.4812 H   0  0  0  0  0  0  0  0  0  0  0  0
    4.0060   -2.0346   -2.9813 H   0  0  0  0  0  0  0  0  0  0  0  0
    4.8604   -1.9733    0.6824 H   0  0  0  0  0  0  0  0  0  0  0  0
    3.5124   -0.5928    1.6546 H   0  0  0  0  0  0  0  0  0  0  0  0
    4.2167    0.8161    0.8612 H   0  0  0  0  0  0  0  0  0  0  0  0
    1.2459    2.5797    0.3519 H   0  0  0  0  0  0  0  0  0  0  0  0
    2.9421    2.4363   -0.1246 H   0  0  0  0  0  0  0  0  0  0  0  0
    1.6732    1.5998   -1.0724 H   0  0  0  0  0  0  0  0  0  0  0  0
   -0.4532    1.1205    0.1458 H   0  0  0  0  0  0  0  0  0  0  0  0
   -1.1053   -0.4619    2.6901 H   0  0  0  0  0  0  0  0  0  0  0  0
   -3.7640   -1.0515    2.7272 H   0  0  0  0  0  0  0  0  0  0  0  0
   -5.7750   -1.6747    3.1520 H   0  0  0  0  0  0  0  0  0  0  0  0
   -8.1117   -2.2883    3.5168 H   0  0  0  0  0  0  0  0  0  0  0  0
   -9.9458   -0.8786    2.6234 H   0  0  0  0  0  0  0  0  0  0  0  0
   -9.4172    1.1881    1.3555 H   0  0  0  0  0  0  0  0  0  0  0  0
   -7.0766    1.8479    0.9750 H   0  0  0  0  0  0  0  0  0  0  0  0
   -3.4237    2.4222   -1.5606 H   0  0  0  0  0  0  0  0  0  0  0  0
   -2.2572    4.2922   -2.6665 H   0  0  0  0  0  0  0  0  0  0  0  0
    0.4084    5.7750   -1.8717 H   0  0  0  0  0  0  0  0  0  0  0  0
   -0.4315    6.9640   -0.8467 H   0  0  0  0  0  0  0  0  0  0  0  0
   -1.1361    6.4938   -2.3943 H   0  0  0  0  0  0  0  0  0  0  0  0
   -0.5075    5.4292    1.1070 H   0  0  0  0  0  0  0  0  0  0  0  0
   -1.6639    3.5531    2.2048 H   0  0  0  0  0  0  0  0  0  0  0  0
    6.2350   -3.7619    0.2953 H   0  0  0  0  0  0  0  0  0  0  0  0
    7.1748   -5.4158   -1.2116 H   0  0  0  0  0  0  0  0  0  0  0  0
  1  2  1  0
  2  3  1  0
  3  4  2  0
  4  5  1  0
  5  6  2  0
  6  7  1  0
  7  8  1  0
  8  9  2  0
  8 10  1  0
 10 11  1  0
 11 12  1  0
 11 13  1  0
 13 14  2  0
 13 15  1  0
 15 16  2  3
 16 17  1  0
 17 18  2  0
 18 19  1  0
 19 20  1  0
 20 21  2  0
 21 22  1  0
 22 23  2  0
 23 24  1  0
 24 25  2  0
 19 26  1  0
 26 27  2  0
 27 28  1  0
 28 29  2  0
 29 30  1  0
 30 31  2  0
 31 32  1  0
 31 33  1  0
 33 34  2  0
  6 35  1  0
 35 36  2  0
 36  3  1  0
 27 17  1  0
 34 28  1  0
 25 20  1  0
  1 37  1  0
  1 38  1  0
  1 39  1  0
  4 40  1  0
  5 41  1  0
  7 42  1  0
 10 43  1  0
 10 44  1  0
 12 45  1  0
 12 46  1  0
 12 47  1  0
 15 48  1  0
 16 49  1  0
 18 50  1  0
 21 51  1  0
 22 52  1  0
 23 53  1  0
 24 54  1  0
 25 55  1  0
 29 56  1  0
 30 57  1  0
 32 58  1  0
 32 59  1  0
 32 60  1  0
 33 61  1  0
 34 62  1  0
 35 63  1  0
 36 64  1  0
M  END
$$$$
