
     RDKit          3D

 51 53  0  0  0  0  0  0  0  0999 V2000
    8.3464   -2.1768   -1.4052 C   0  0  0  0  0  0  0  0  0  0  0  0
    7.9157   -1.3629   -0.3237 O   0  0  0  0  0  0  0  0  0  0  0  0
    6.7328   -0.6815   -0.4748 C   0  0  0  0  0  0  0  0  0  0  0  0
    6.0027   -0.6189   -1.6666 C   0  0  0  0  0  0  0  0  0  0  0  0
    4.8098    0.1073   -1.7310 C   0  0  0  0  0  0  0  0  0  0  0  0
    4.3341    0.7920   -0.6080 C   0  0  0  0  0  0  0  0  0  0  0  0
    3.0474    1.5803   -0.6768 C   0  0  0  0  0  0  0  0  0  0  0  0
    1.8112    0.8108   -0.2212 C   0  0  0  0  0  0  0  0  0  0  0  0
    1.8769   -0.1901    0.4839 O   0  0  0  0  0  0  0  0  0  0  0  0
    0.6415    1.4120   -0.6710 N   0  0  0  0  0  0  0  0  0  0  0  0
   -0.6844    0.9925   -0.4363 C   0  0  0  0  0  0  0  0  0  0  0  0
   -1.0290   -0.1610    0.2652 C   0  0  0  0  0  0  0  0  0  0  0  0
   -2.3746   -0.5011    0.4573 C   0  0  0  0  0  0  0  0  0  0  0  0
   -3.4001    0.3050   -0.0477 C   0  0  0  0  0  0  0  0  0  0  0  0
   -4.7261   -0.1028    0.2053 N   0  0  0  0  0  0  0  0  0  0  0  0
   -5.8893    0.5144   -0.2174 C   0  0  0  0  0  0  0  0  0  0  0  0
   -5.9788    1.4926   -0.9491 O   0  0  0  0  0  0  0  0  0  0  0  0
   -7.1506   -0.1208    0.2633 C   0  0  0  0  0  0  0  0  0  0  0  0
   -7.2502   -0.7016    1.5354 C   0  0  0  0  0  0  0  0  0  0  0  0
   -8.4556   -1.2772    1.9487 C   0  0  0  0  0  0  0  0  0  0  0  0
   -9.5598   -1.2634    1.0965 C   0  0  0  0  0  0  0  0  0  0  0  0
  -11.1888   -2.0368    1.6630 Br  0  0  0  0  0  0  0  0  0  0  0  0
   -9.4753   -0.6729   -0.1634 C   0  0  0  0  0  0  0  0  0  0  0  0
   -8.2714   -0.0980   -0.5781 C   0  0  0  0  0  0  0  0  0  0  0  0
   -3.0561    1.4568   -0.7521 C   0  0  0  0  0  0  0  0  0  0  0  0
   -1.7102    1.7952   -0.9470 C   0  0  0  0  0  0  0  0  0  0  0  0
    5.0611    0.7218    0.5911 C   0  0  0  0  0  0  0  0  0  0  0  0
    6.2532   -0.0108    0.6673 C   0  0  0  0  0  0  0  0  0  0  0  0
    7.0234   -0.1158    1.8007 O   0  0  0  0  0  0  0  0  0  0  0  0
    6.4317    0.2884    3.0281 C   0  0  0  0  0  0  0  0  0  0  0  0
    7.5984   -2.9376   -1.6543 H   0  0  0  0  0  0  0  0  0  0  0  0
    8.5992   -1.5680   -2.2801 H   0  0  0  0  0  0  0  0  0  0  0  0
    9.2561   -2.6979   -1.0897 H   0  0  0  0  0  0  0  0  0  0  0  0
    6.3363   -1.1240   -2.5669 H   0  0  0  0  0  0  0  0  0  0  0  0
    4.2584    0.1320   -2.6689 H   0  0  0  0  0  0  0  0  0  0  0  0
    2.8978    1.9280   -1.7071 H   0  0  0  0  0  0  0  0  0  0  0  0
    3.1341    2.4793   -0.0536 H   0  0  0  0  0  0  0  0  0  0  0  0
    0.7411    2.2662   -1.2055 H   0  0  0  0  0  0  0  0  0  0  0  0
   -0.2767   -0.8256    0.6786 H   0  0  0  0  0  0  0  0  0  0  0  0
   -2.5984   -1.4088    1.0123 H   0  0  0  0  0  0  0  0  0  0  0  0
   -4.8225   -0.9708    0.7152 H   0  0  0  0  0  0  0  0  0  0  0  0
   -6.4141   -0.6853    2.2293 H   0  0  0  0  0  0  0  0  0  0  0  0
   -8.5281   -1.7206    2.9386 H   0  0  0  0  0  0  0  0  0  0  0  0
  -10.3374   -0.6453   -0.8240 H   0  0  0  0  0  0  0  0  0  0  0  0
   -8.2091    0.3731   -1.5573 H   0  0  0  0  0  0  0  0  0  0  0  0
   -3.8107    2.1202   -1.1636 H   0  0  0  0  0  0  0  0  0  0  0  0
   -1.4876    2.7031   -1.5022 H   0  0  0  0  0  0  0  0  0  0  0  0
    4.6744    1.2477    1.4590 H   0  0  0  0  0  0  0  0  0  0  0  0
    6.3047    1.3760    3.0618 H   0  0  0  0  0  0  0  0  0  0  0  0
    7.1150    0.0097    3.8370 H   0  0  0  0  0  0  0  0  0  0  0  0
    5.4820   -0.2282    3.2039 H   0  0  0  0  0  0  0  0  0  0  0  0
  1  2  1  0
  2  3  1  0
  3  4  2  0
  4  5  1  0
  5  6  2  0
  6  7  1  0
  7  8  1  0
  8  9  2  0
  8 10  1  0
 10 11  1  0
 11 12  2  0
 12 13  1  0
 13 14  2  0
 14 15  1  0
 15 16  1  0
 16 17  2  0
 16 18  1  0
 18 19  2  0
 19 20  1  0
 20 21  2  0
 21 22  1  0
 21 23  1  0
 23 24  2  0
 14 25  1  0
 25 26  2  0
  6 27  1  0
 27 28  2  0
 28 29  1  0
 29 30  1  0
 28  3  1  0
 26 11  1  0
 24 18  1  0
  1 31  1  0
  1 32  1  0
  1 33  1  0
  4 34  1  0
  5 35  1  0
  7 36  1  0
  7 37  1  0
 10 38  1  0
 12 39  1  0
 13 40  1  0
 15 41  1  0
 19 42  1  0
 20 43  1  0
 23 44  1  0
 24 45  1  0
 25 46  1  0
 26 47  1  0
 27 48  1  0
 30 49  1  0
 30 50  1  0
 30 51  1  0
M  END
$$$$
