
     RDKit          3D

 59 64  0  0  0  0  0  0  0  0999 V2000
   -4.8797    3.7489    0.5880 C   0  0  0  0  0  0  0  0  0  0  0  0
   -5.4247    2.4724    1.1167 C   0  0  0  0  0  0  0  0  0  0  0  0
   -6.3882    2.3715    2.0092 N   0  0  0  0  0  0  0  0  0  0  0  0
   -6.5746    1.0285    2.2116 C   0  0  0  0  0  0  0  0  0  0  0  0
   -7.4791    0.3733    3.0592 C   0  0  0  0  0  0  0  0  0  0  0  0
   -7.4786   -1.0261    3.0919 C   0  0  0  0  0  0  0  0  0  0  0  0
   -6.5944   -1.7586    2.2976 C   0  0  0  0  0  0  0  0  0  0  0  0
   -5.6846   -1.1214    1.4460 C   0  0  0  0  0  0  0  0  0  0  0  0
   -5.7034    0.2792    1.4271 C   0  0  0  0  0  0  0  0  0  0  0  0
   -4.9791    1.2243    0.7369 N   0  0  0  0  0  0  0  0  0  0  0  0
   -3.9308    0.9405   -0.2266 C   0  0  0  0  0  0  0  0  0  0  0  0
   -2.5683    0.7718    0.4405 C   0  0  0  0  0  0  0  0  0  0  0  0
   -1.4823    0.5157   -0.5417 C   0  0  0  0  0  0  0  0  0  0  0  0
   -1.7279    0.1024   -1.8286 N   0  0  0  0  0  0  0  0  0  0  0  0
   -0.5208   -0.0159   -2.3355 C   0  0  0  0  0  0  0  0  0  0  0  0
   -0.0584   -0.4196   -3.6444 C   0  0  0  0  0  0  0  0  0  0  0  0
   -0.9278   -0.7647   -4.6783 C   0  0  0  0  0  0  0  0  0  0  0  0
   -0.4063   -1.1461   -5.9141 C   0  0  0  0  0  0  0  0  0  0  0  0
    0.9751   -1.1815   -6.1113 C   0  0  0  0  0  0  0  0  0  0  0  0
    1.8435   -0.8352   -5.0740 C   0  0  0  0  0  0  0  0  0  0  0  0
    1.3396   -0.4518   -3.8315 C   0  0  0  0  0  0  0  0  0  0  0  0
    2.2511   -0.1089   -2.8000 N   0  0  0  0  0  0  0  0  0  0  0  0
    1.7950    0.2599   -1.6322 C   0  0  0  0  0  0  0  0  0  0  0  0
    2.9305    0.6853   -0.3582 S   0  0  0  0  0  0  0  0  0  0  0  0
    4.5014    0.4417   -1.2310 C   0  0  0  0  0  0  0  0  0  0  0  0
    5.6615    0.8068   -0.3262 C   0  0  0  0  0  0  0  0  0  0  0  0
    6.2874    1.8558   -0.4491 O   0  0  0  0  0  0  0  0  0  0  0  0
    5.9670   -0.1371    0.6272 N   0  0  0  0  0  0  0  0  0  0  0  0
    7.1308    0.0101    1.4671 C   0  0  0  0  0  0  0  0  0  0  0  0
    7.0696   -0.9997    2.5495 C   0  0  0  0  0  0  0  0  0  0  0  0
    6.9752   -0.9129    3.9228 C   0  0  0  0  0  0  0  0  0  0  0  0
    6.9631   -2.2433    4.4076 C   0  0  0  0  0  0  0  0  0  0  0  0
    7.0472   -3.0557    3.3024 C   0  0  0  0  0  0  0  0  0  0  0  0
    7.1019   -2.3113    2.1685 O   0  0  0  0  0  0  0  0  0  0  0  0
    0.4131    0.3105   -1.3896 N   0  0  0  0  0  0  0  0  0  0  0  0
   -0.1885    0.6579   -0.2270 N   0  0  0  0  0  0  0  0  0  0  0  0
   -5.3645    4.6020    1.0733 H   0  0  0  0  0  0  0  0  0  0  0  0
   -3.8051    3.8213    0.7772 H   0  0  0  0  0  0  0  0  0  0  0  0
   -5.0572    3.8300   -0.4883 H   0  0  0  0  0  0  0  0  0  0  0  0
   -8.1625    0.9506    3.6721 H   0  0  0  0  0  0  0  0  0  0  0  0
   -8.1775   -1.5444    3.7438 H   0  0  0  0  0  0  0  0  0  0  0  0
   -6.6136   -2.8458    2.3402 H   0  0  0  0  0  0  0  0  0  0  0  0
   -5.0024   -1.6978    0.8309 H   0  0  0  0  0  0  0  0  0  0  0  0
   -4.2228    0.0346   -0.7729 H   0  0  0  0  0  0  0  0  0  0  0  0
   -3.9155    1.7542   -0.9615 H   0  0  0  0  0  0  0  0  0  0  0  0
   -2.3256    1.6726    1.0200 H   0  0  0  0  0  0  0  0  0  0  0  0
   -2.6006   -0.0615    1.1552 H   0  0  0  0  0  0  0  0  0  0  0  0
   -2.0036   -0.7373   -4.5249 H   0  0  0  0  0  0  0  0  0  0  0  0
   -1.0762   -1.4173   -6.7262 H   0  0  0  0  0  0  0  0  0  0  0  0
    1.3784   -1.4795   -7.0763 H   0  0  0  0  0  0  0  0  0  0  0  0
    2.9175   -0.8658   -5.2362 H   0  0  0  0  0  0  0  0  0  0  0  0
    4.5525    1.0752   -2.1226 H   0  0  0  0  0  0  0  0  0  0  0  0
    4.6083   -0.6035   -1.5419 H   0  0  0  0  0  0  0  0  0  0  0  0
    5.5302   -1.0464    0.5929 H   0  0  0  0  0  0  0  0  0  0  0  0
    8.0227   -0.1433    0.8461 H   0  0  0  0  0  0  0  0  0  0  0  0
    7.1622    1.0297    1.8683 H   0  0  0  0  0  0  0  0  0  0  0  0
    6.9212    0.0016    4.5007 H   0  0  0  0  0  0  0  0  0  0  0  0
    6.9023   -2.5695    5.4365 H   0  0  0  0  0  0  0  0  0  0  0  0
    7.0760   -4.1266    3.1606 H   0  0  0  0  0  0  0  0  0  0  0  0
  1  2  1  0
  2  3  2  0
  3  4  1  0
  4  5  2  0
  5  6  1  0
  6  7  2  0
  7  8  1  0
  8  9  2  0
  9 10  1  0
 10 11  1  0
 11 12  1  0
 12 13  1  0
 13 14  1  0
 14 15  2  0
 15 16  1  0
 16 17  2  0
 17 18  1  0
 18 19  2  0
 19 20  1  0
 20 21  2  0
 21 22  1  0
 22 23  2  0
 23 24  1  0
 24 25  1  0
 25 26  1  0
 26 27  2  0
 26 28  1  0
 28 29  1  0
 29 30  1  0
 30 31  2  0
 31 32  1  0
 32 33  2  0
 33 34  1  0
 23 35  1  0
 35 36  1  0
 10  2  1  0
 36 13  2  0
  9  4  1  0
 35 15  1  0
 21 16  1  0
 34 30  1  0
  1 37  1  0
  1 38  1  0
  1 39  1  0
  5 40  1  0
  6 41  1  0
  7 42  1  0
  8 43  1  0
 11 44  1  0
 11 45  1  0
 12 46  1  0
 12 47  1  0
 17 48  1  0
 18 49  1  0
 19 50  1  0
 20 51  1  0
 25 52  1  0
 25 53  1  0
 28 54  1  0
 29 55  1  0
 29 56  1  0
 31 57  1  0
 32 58  1  0
 33 59  1  0
M  END
$$$$
