
     RDKit          3D

 41 42  0  0  0  0  0  0  0  0999 V2000
    6.6742    1.4678    2.0528 C   0  0  0  0  0  0  0  0  0  0  0  0
    5.3444    1.3849    1.5411 O   0  0  0  0  0  0  0  0  0  0  0  0
    5.1326    0.3219    0.7134 C   0  0  0  0  0  0  0  0  0  0  0  0
    5.9855   -0.5057    0.4200 O   0  0  0  0  0  0  0  0  0  0  0  0
    3.7564    0.3234    0.2496 C   0  0  0  0  0  0  0  0  0  0  0  0
    2.7327    1.1941    0.5924 C   0  0  0  0  0  0  0  0  0  0  0  0
    1.5611    0.7832   -0.0725 C   0  0  0  0  0  0  0  0  0  0  0  0
    1.8563   -0.3470   -0.8181 C   0  0  0  0  0  0  0  0  0  0  0  0
    0.8077   -1.3592   -1.8339 S   0  0  0  0  0  6  0  0  0  0  0  0
    0.9939   -2.7067   -1.3484 O   0  0  0  0  0  0  0  0  0  0  0  0
    1.1247   -0.9727   -3.1880 O   0  0  0  0  0  0  0  0  0  0  0  0
   -0.7799   -0.9018   -1.5425 N   0  0  0  0  0  0  0  0  0  0  0  0
   -1.3715   -1.4050   -0.2938 C   0  0  0  0  0  0  0  0  0  0  0  0
   -2.7438   -0.8173   -0.0590 C   0  0  0  0  0  0  0  0  0  0  0  0
   -2.9499    0.5690   -0.1115 C   0  0  0  0  0  0  0  0  0  0  0  0
   -4.2162    1.1170    0.1242 C   0  0  0  0  0  0  0  0  0  0  0  0
   -5.2946    0.2858    0.4231 C   0  0  0  0  0  0  0  0  0  0  0  0
   -6.5772    0.6880    0.6736 O   0  0  0  0  0  0  0  0  0  0  0  0
   -6.8364    2.0848    0.6116 C   0  0  0  0  0  0  0  0  0  0  0  0
   -5.0929   -1.0944    0.4855 C   0  0  0  0  0  0  0  0  0  0  0  0
   -3.8300   -1.6446    0.2500 C   0  0  0  0  0  0  0  0  0  0  0  0
    3.2122   -0.5823   -0.6540 N   0  0  0  0  0  0  0  0  0  0  0  0
    3.9767   -1.6209   -1.3216 C   0  0  0  0  0  0  0  0  0  0  0  0
    6.7347    2.3493    2.6972 H   0  0  0  0  0  0  0  0  0  0  0  0
    6.9103    0.5838    2.6534 H   0  0  0  0  0  0  0  0  0  0  0  0
    7.3933    1.5866    1.2363 H   0  0  0  0  0  0  0  0  0  0  0  0
    2.8265    2.0357    1.2687 H   0  0  0  0  0  0  0  0  0  0  0  0
    0.5853    1.2477   -0.0110 H   0  0  0  0  0  0  0  0  0  0  0  0
   -1.3541   -1.0945   -2.3636 H   0  0  0  0  0  0  0  0  0  0  0  0
   -0.7406   -1.1546    0.5656 H   0  0  0  0  0  0  0  0  0  0  0  0
   -1.4528   -2.4963   -0.3577 H   0  0  0  0  0  0  0  0  0  0  0  0
   -2.1210    1.2349   -0.3439 H   0  0  0  0  0  0  0  0  0  0  0  0
   -4.3231    2.1950    0.0664 H   0  0  0  0  0  0  0  0  0  0  0  0
   -7.8980    2.2377    0.8285 H   0  0  0  0  0  0  0  0  0  0  0  0
   -6.6414    2.4787   -0.3914 H   0  0  0  0  0  0  0  0  0  0  0  0
   -6.2605    2.6270    1.3689 H   0  0  0  0  0  0  0  0  0  0  0  0
   -5.9292   -1.7484    0.7216 H   0  0  0  0  0  0  0  0  0  0  0  0
   -3.7080   -2.7240    0.3109 H   0  0  0  0  0  0  0  0  0  0  0  0
    4.8895   -1.1776   -1.7277 H   0  0  0  0  0  0  0  0  0  0  0  0
    3.4172   -2.0447   -2.1549 H   0  0  0  0  0  0  0  0  0  0  0  0
    4.2061   -2.3986   -0.5892 H   0  0  0  0  0  0  0  0  0  0  0  0
  1  2  1  0
  2  3  1  0
  3  4  2  0
  3  5  1  0
  5  6  2  0
  6  7  1  0
  7  8  2  0
  8  9  1  0
  9 10  2  0
  9 11  2  0
  9 12  1  0
 12 13  1  0
 13 14  1  0
 14 15  2  0
 15 16  1  0
 16 17  2  0
 17 18  1  0
 18 19  1  0
 17 20  1  0
 20 21  2  0
  8 22  1  0
 22 23  1  0
 22  5  1  0
 21 14  1  0
  1 24  1  0
  1 25  1  0
  1 26  1  0
  6 27  1  0
  7 28  1  0
 12 29  1  0
 13 30  1  0
 13 31  1  0
 15 32  1  0
 16 33  1  0
 19 34  1  0
 19 35  1  0
 19 36  1  0
 20 37  1  0
 21 38  1  0
 23 39  1  0
 23 40  1  0
 23 41  1  0
M  END
$$$$
