
     RDKit          3D

 67 72  0  0  0  0  0  0  0  0999 V2000
    3.6181   -0.7966   -1.8162 O   0  0  0  0  0  0  0  0  0  0  0  0
    2.9022   -0.7458   -0.8102 C   0  0  0  0  0  0  0  0  0  0  0  0
    3.5406   -0.5503    0.5734 C   0  0  0  0  0  0  0  0  0  0  0  0
    3.7905    0.9473    0.8205 C   0  0  0  0  0  0  0  0  0  0  0  0
    4.6434    1.2063    2.0421 C   0  0  0  0  0  0  0  0  0  0  0  0
    4.0537    1.5875    3.2551 C   0  0  0  0  0  0  0  0  0  0  0  0
    4.8432    1.8030    4.3868 C   0  0  0  0  0  0  0  0  0  0  0  0
    6.2260    1.6376    4.3171 C   0  0  0  0  0  0  0  0  0  0  0  0
    6.8216    1.2520    3.1175 C   0  0  0  0  0  0  0  0  0  0  0  0
    6.0346    1.0379    1.9845 C   0  0  0  0  0  0  0  0  0  0  0  0
    2.7389   -1.1746    1.6264 N   0  0  0  0  0  0  0  0  0  0  0  0
    1.3770   -0.8979    1.5720 C   0  0  0  0  0  0  0  0  0  0  0  0
    0.7623   -0.8790    2.7631 N   0  0  0  0  0  0  0  0  0  0  0  0
   -0.5557   -0.6840    2.7337 C   0  0  0  0  0  0  0  0  0  0  0  0
   -1.2931   -0.4678    1.6406 N   0  0  0  0  0  0  0  0  0  0  0  0
   -0.6567   -0.4614    0.4490 C   0  0  0  0  0  0  0  0  0  0  0  0
   -1.4191   -0.0636   -0.6642 N   0  0  0  0  0  0  0  0  0  0  0  0
   -2.8204   -0.5554   -0.6452 C   0  0  0  0  0  0  0  0  0  0  0  0
   -3.6605    0.1817   -1.7096 C   0  0  0  0  0  0  0  0  0  0  0  0
   -3.7569    1.6321   -1.4181 N   0  0  0  0  0  0  0  0  0  0  0  0
   -4.9857    2.1495   -0.9733 C   0  0  0  0  0  0  0  0  0  0  0  0
   -5.9361    1.4002   -0.2652 C   0  0  0  0  0  0  0  0  0  0  0  0
   -7.1460    1.9694    0.1524 C   0  0  0  0  0  0  0  0  0  0  0  0
   -7.4274    3.3027   -0.1289 C   0  0  0  0  0  0  0  0  0  0  0  0
   -6.4964    4.0696   -0.8224 C   0  0  0  0  0  0  0  0  0  0  0  0
   -5.2889    3.4963   -1.2345 C   0  0  0  0  0  0  0  0  0  0  0  0
   -2.6098    2.1765   -0.6390 C   0  0  0  0  0  0  0  0  0  0  0  0
   -1.2981    1.4012   -0.9162 C   0  0  0  0  0  0  0  0  0  0  0  0
    0.7233   -0.7138    0.3473 C   0  0  0  0  0  0  0  0  0  0  0  0
    1.5014   -0.7793   -0.8679 N   0  0  0  0  0  0  0  0  0  0  0  0
    0.9142   -1.1936   -2.1396 C   0  0  0  0  0  0  0  0  0  0  0  0
    0.9472   -2.7007   -2.3196 C   0  0  0  0  0  0  0  0  0  0  0  0
    0.0028   -3.5224   -1.6844 C   0  0  0  0  0  0  0  0  0  0  0  0
    0.0591   -4.9105   -1.8234 C   0  0  0  0  0  0  0  0  0  0  0  0
    1.0612   -5.4859   -2.6005 C   0  0  0  0  0  0  0  0  0  0  0  0
    1.1446   -7.3645   -2.7799 Br  0  0  0  0  0  0  0  0  0  0  0  0
    2.0072   -4.6874   -3.2394 C   0  0  0  0  0  0  0  0  0  0  0  0
    1.9500   -3.3002   -3.0975 C   0  0  0  0  0  0  0  0  0  0  0  0
    4.4977   -1.0892    0.5479 H   0  0  0  0  0  0  0  0  0  0  0  0
    2.8431    1.4975    0.9118 H   0  0  0  0  0  0  0  0  0  0  0  0
    4.2938    1.3899   -0.0512 H   0  0  0  0  0  0  0  0  0  0  0  0
    2.9745    1.7156    3.3284 H   0  0  0  0  0  0  0  0  0  0  0  0
    4.3782    2.1056    5.3238 H   0  0  0  0  0  0  0  0  0  0  0  0
    6.8414    1.8063    5.1979 H   0  0  0  0  0  0  0  0  0  0  0  0
    7.8990    1.1228    3.0627 H   0  0  0  0  0  0  0  0  0  0  0  0
    6.5154    0.7386    1.0552 H   0  0  0  0  0  0  0  0  0  0  0  0
    3.0813   -1.0852    2.5786 H   0  0  0  0  0  0  0  0  0  0  0  0
   -1.0769   -0.6914    3.6845 H   0  0  0  0  0  0  0  0  0  0  0  0
   -2.8191   -1.6291   -0.8681 H   0  0  0  0  0  0  0  0  0  0  0  0
   -3.2995   -0.4136    0.3317 H   0  0  0  0  0  0  0  0  0  0  0  0
   -3.1676    0.0807   -2.6855 H   0  0  0  0  0  0  0  0  0  0  0  0
   -4.6421   -0.2922   -1.8247 H   0  0  0  0  0  0  0  0  0  0  0  0
   -5.7482    0.3641   -0.0019 H   0  0  0  0  0  0  0  0  0  0  0  0
   -7.8659    1.3663    0.6996 H   0  0  0  0  0  0  0  0  0  0  0  0
   -8.3680    3.7419    0.1900 H   0  0  0  0  0  0  0  0  0  0  0  0
   -6.7070    5.1111   -1.0532 H   0  0  0  0  0  0  0  0  0  0  0  0
   -4.5837    4.1078   -1.7925 H   0  0  0  0  0  0  0  0  0  0  0  0
   -2.8262    2.1256    0.4371 H   0  0  0  0  0  0  0  0  0  0  0  0
   -2.4516    3.2299   -0.9011 H   0  0  0  0  0  0  0  0  0  0  0  0
   -1.0288    1.5279   -1.9717 H   0  0  0  0  0  0  0  0  0  0  0  0
   -0.4872    1.8539   -0.3322 H   0  0  0  0  0  0  0  0  0  0  0  0
    1.4826   -0.7264   -2.9532 H   0  0  0  0  0  0  0  0  0  0  0  0
   -0.0991   -0.8393   -2.2953 H   0  0  0  0  0  0  0  0  0  0  0  0
   -0.7768   -3.0877   -1.0642 H   0  0  0  0  0  0  0  0  0  0  0  0
   -0.6754   -5.5302   -1.3147 H   0  0  0  0  0  0  0  0  0  0  0  0
    2.7964   -5.1298   -3.8404 H   0  0  0  0  0  0  0  0  0  0  0  0
    2.7073   -2.6875   -3.5855 H   0  0  0  0  0  0  0  0  0  0  0  0
  1  2  2  0
  2  3  1  0
  3  4  1  0
  4  5  1  0
  5  6  2  0
  6  7  1  0
  7  8  2  0
  8  9  1  0
  9 10  2  0
  3 11  1  0
 11 12  1  0
 12 13  2  0
 13 14  1  0
 14 15  2  0
 15 16  1  0
 16 17  1  0
 17 18  1  0
 18 19  1  0
 19 20  1  0
 20 21  1  0
 21 22  2  0
 22 23  1  0
 23 24  2  0
 24 25  1  0
 25 26  2  0
 20 27  1  0
 27 28  1  0
 16 29  2  0
 29 30  1  0
 30 31  1  0
 31 32  1  0
 32 33  2  0
 33 34  1  0
 34 35  2  0
 35 36  1  0
 35 37  1  0
 37 38  2  0
 30  2  1  0
 38 32  1  0
 10  5  1  0
 29 12  1  0
 28 17  1  0
 26 21  1  0
  3 39  1  0
  4 40  1  0
  4 41  1  0
  6 42  1  0
  7 43  1  0
  8 44  1  0
  9 45  1  0
 10 46  1  0
 11 47  1  0
 14 48  1  0
 18 49  1  0
 18 50  1  0
 19 51  1  0
 19 52  1  0
 22 53  1  0
 23 54  1  0
 24 55  1  0
 25 56  1  0
 26 57  1  0
 27 58  1  0
 27 59  1  0
 28 60  1  0
 28 61  1  0
 31 62  1  0
 31 63  1  0
 33 64  1  0
 34 65  1  0
 37 66  1  0
 38 67  1  0
M  END
$$$$
