
     RDKit          3D

 51 53  0  0  0  0  0  0  0  0999 V2000
    5.1489   -5.2819    0.2193 N   0  0  0  0  0  0  0  0  0  0  0  0
    4.7033   -4.2264    0.0270 C   0  0  0  0  0  0  0  0  0  0  0  0
    4.1304   -2.9613   -0.2699 C   0  0  0  0  0  0  0  0  0  0  0  0
    3.8477   -2.6289   -1.5406 C   0  0  0  0  0  0  0  0  0  0  0  0
    3.3388   -1.3581   -1.9120 C   0  0  0  0  0  0  0  0  0  0  0  0
    3.9536   -0.1124   -1.8866 C   0  0  0  0  0  0  0  0  0  0  0  0
    3.0177    0.8428   -2.3559 C   0  0  0  0  0  0  0  0  0  0  0  0
    1.8677    0.1410   -2.6319 C   0  0  0  0  0  0  0  0  0  0  0  0
    0.5116    0.5402   -3.0758 C   0  0  0  0  0  0  0  0  0  0  0  0
   -0.4062    0.1919   -2.0268 N   0  0  0  0  0  0  0  0  0  0  0  0
   -1.6322    0.7797   -1.8702 C   0  0  0  0  0  0  0  0  0  0  0  0
   -2.1076    1.6700   -2.5627 O   0  0  0  0  0  0  0  0  0  0  0  0
   -2.4474    0.1881   -0.6978 C   0  0  0  0  0  0  0  0  0  0  0  0
   -1.9954   -0.7780   -0.0906 O   0  0  0  0  0  0  0  0  0  0  0  0
   -3.6275    0.8753   -0.4879 N   0  0  0  0  0  0  0  0  0  0  0  0
   -4.6264    0.6055    0.4644 C   0  0  0  0  0  0  0  0  0  0  0  0
   -4.5905   -0.4898    1.3284 C   0  0  0  0  0  0  0  0  0  0  0  0
   -5.6339   -0.6981    2.2359 C   0  0  0  0  0  0  0  0  0  0  0  0
   -5.5831   -2.0528    3.2889 Cl  0  0  0  0  0  0  0  0  0  0  0  0
   -6.7189    0.1775    2.2981 C   0  0  0  0  0  0  0  0  0  0  0  0
   -6.7499    1.2697    1.4420 C   0  0  0  0  0  0  0  0  0  0  0  0
   -8.0804    2.3692    1.5097 Cl  0  0  0  0  0  0  0  0  0  0  0  0
   -5.7158    1.4866    0.5265 C   0  0  0  0  0  0  0  0  0  0  0  0
    2.0632   -1.1879   -2.3891 O   0  0  0  0  0  0  0  0  0  0  0  0
    3.8861   -2.0469    0.8769 C   0  0  0  0  0  0  0  0  0  0  0  0
    4.8165   -1.6009    1.5347 O   0  0  0  0  0  0  0  0  0  0  0  0
    2.5572   -1.7879    1.1250 N   0  0  0  0  0  0  0  0  0  0  0  0
    2.1288   -0.9157    2.1996 C   0  0  0  0  0  0  0  0  0  0  0  0
    1.7880    0.4514    1.6888 C   0  0  0  0  0  0  0  0  0  0  0  0
    2.7902    1.3831    1.3998 C   0  0  0  0  0  0  0  0  0  0  0  0
    2.4428    2.6387    0.9149 C   0  0  0  0  0  0  0  0  0  0  0  0
    1.0988    2.9174    0.7207 C   0  0  0  0  0  0  0  0  0  0  0  0
    0.0988    2.0441    0.9795 N   0  0  0  0  0  0  0  0  0  0  0  0
    0.4687    0.8364    1.4657 C   0  0  0  0  0  0  0  0  0  0  0  0
    4.0010   -3.3438   -2.3477 H   0  0  0  0  0  0  0  0  0  0  0  0
    4.9663    0.0823   -1.5554 H   0  0  0  0  0  0  0  0  0  0  0  0
    3.1552    1.9131   -2.4507 H   0  0  0  0  0  0  0  0  0  0  0  0
    0.2204   -0.0055   -3.9784 H   0  0  0  0  0  0  0  0  0  0  0  0
    0.4508    1.6137   -3.2820 H   0  0  0  0  0  0  0  0  0  0  0  0
   -0.1908   -0.5939   -1.4218 H   0  0  0  0  0  0  0  0  0  0  0  0
   -3.7573    1.6823   -1.1040 H   0  0  0  0  0  0  0  0  0  0  0  0
   -3.7669   -1.1992    1.3114 H   0  0  0  0  0  0  0  0  0  0  0  0
   -7.5259    0.0093    3.0071 H   0  0  0  0  0  0  0  0  0  0  0  0
   -5.7638    2.3465   -0.1309 H   0  0  0  0  0  0  0  0  0  0  0  0
    1.8495   -2.1167    0.4793 H   0  0  0  0  0  0  0  0  0  0  0  0
    2.9059   -0.8423    2.9666 H   0  0  0  0  0  0  0  0  0  0  0  0
    1.2537   -1.3817    2.6683 H   0  0  0  0  0  0  0  0  0  0  0  0
    3.8375    1.1266    1.5508 H   0  0  0  0  0  0  0  0  0  0  0  0
    3.2015    3.3785    0.6904 H   0  0  0  0  0  0  0  0  0  0  0  0
    0.7796    3.8853    0.3409 H   0  0  0  0  0  0  0  0  0  0  0  0
   -0.3602    0.1640    1.6763 H   0  0  0  0  0  0  0  0  0  0  0  0
  1  2  3  0
  2  3  1  0
  3  4  2  3
  4  5  1  0
  5  6  2  0
  6  7  1  0
  7  8  2  0
  8  9  1  0
  9 10  1  0
 10 11  1  0
 11 12  2  0
 11 13  1  0
 13 14  2  0
 13 15  1  0
 15 16  1  0
 16 17  2  0
 17 18  1  0
 18 19  1  0
 18 20  2  0
 20 21  1  0
 21 22  1  0
 21 23  2  0
  8 24  1  0
  3 25  1  0
 25 26  2  0
 25 27  1  0
 27 28  1  0
 28 29  1  0
 29 30  2  0
 30 31  1  0
 31 32  2  0
 32 33  1  0
 33 34  2  0
 24  5  1  0
 34 29  1  0
 23 16  1  0
  4 35  1  0
  6 36  1  0
  7 37  1  0
  9 38  1  0
  9 39  1  0
 10 40  1  0
 15 41  1  0
 17 42  1  0
 20 43  1  0
 23 44  1  0
 27 45  1  0
 28 46  1  0
 28 47  1  0
 30 48  1  0
 31 49  1  0
 32 50  1  0
 34 51  1  0
M  END
$$$$
