
     RDKit          3D

 54 59  0  0  0  0  0  0  0  0999 V2000
    6.5198   -0.3327    2.7257 C   0  0  0  0  0  0  0  0  0  0  0  0
    5.6207   -0.4271    1.5290 C   0  0  0  0  0  0  0  0  0  0  0  0
    4.4118   -1.1255    1.6044 C   0  0  0  0  0  0  0  0  0  0  0  0
    3.5576   -1.1882    0.5004 C   0  0  0  0  0  0  0  0  0  0  0  0
    3.8849   -0.5350   -0.6959 C   0  0  0  0  0  0  0  0  0  0  0  0
    2.9726   -0.6097   -1.9026 C   0  0  0  0  0  0  0  0  0  0  0  0
    1.6146   -0.1316   -1.6390 N   0  0  0  0  0  0  0  0  0  0  0  0
    1.2837    1.2286   -1.6300 C   0  0  0  0  0  0  0  0  0  0  0  0
    2.3704    2.2457   -1.8957 C   0  0  0  0  0  0  0  0  0  0  0  0
    0.0882    1.6987   -1.4070 N   0  0  0  0  0  0  0  0  0  0  0  0
   -0.8470    0.7588   -1.1621 C   0  0  0  0  0  0  0  0  0  0  0  0
   -0.6683   -0.6047   -1.1488 C   0  0  0  0  0  0  0  0  0  0  0  0
    0.6451   -1.1293   -1.4091 C   0  0  0  0  0  0  0  0  0  0  0  0
    0.8862   -2.3328   -1.4269 O   0  0  0  0  0  0  0  0  0  0  0  0
   -1.9129   -1.1970   -0.8648 C   0  0  0  0  0  0  0  0  0  0  0  0
   -2.2884   -2.4939   -0.7452 N   0  0  0  0  0  0  0  0  0  0  0  0
   -3.5885   -2.6774   -0.4679 C   0  0  0  0  0  0  0  0  0  0  0  0
   -4.0526   -3.9791   -0.3291 C   0  0  0  0  0  0  0  0  0  0  0  0
   -5.3905   -4.2522   -0.0415 C   0  0  0  0  0  0  0  0  0  0  0  0
   -6.2848   -3.2023    0.1108 C   0  0  0  0  0  0  0  0  0  0  0  0
   -5.8330   -1.8888   -0.0257 C   0  0  0  0  0  0  0  0  0  0  0  0
   -4.5043   -1.6012   -0.3116 C   0  0  0  0  0  0  0  0  0  0  0  0
   -4.1429   -0.3110   -0.4272 N   0  0  0  0  0  0  0  0  0  0  0  0
   -2.8312   -0.1617   -0.7046 C   0  0  0  0  0  0  0  0  0  0  0  0
   -2.1608    1.0264   -0.8698 N   0  0  0  0  0  0  0  0  0  0  0  0
   -2.7682    2.3435   -0.7817 C   0  0  0  0  0  0  0  0  0  0  0  0
   -2.7637    2.8408    0.6178 C   0  0  0  0  0  0  0  0  0  0  0  0
   -3.3551    2.4030    1.7866 C   0  0  0  0  0  0  0  0  0  0  0  0
   -2.9766    3.3196    2.7960 C   0  0  0  0  0  0  0  0  0  0  0  0
   -2.1877    4.2622    2.1806 C   0  0  0  0  0  0  0  0  0  0  0  0
   -2.0585    3.9851    0.8582 O   0  0  0  0  0  0  0  0  0  0  0  0
    5.1006    0.1610   -0.7677 C   0  0  0  0  0  0  0  0  0  0  0  0
    5.9539    0.2236    0.3372 C   0  0  0  0  0  0  0  0  0  0  0  0
    7.5678   -0.2422    2.4210 H   0  0  0  0  0  0  0  0  0  0  0  0
    6.4392   -1.2309    3.3470 H   0  0  0  0  0  0  0  0  0  0  0  0
    6.2499    0.5399    3.3284 H   0  0  0  0  0  0  0  0  0  0  0  0
    4.1265   -1.6334    2.5234 H   0  0  0  0  0  0  0  0  0  0  0  0
    2.6359   -1.7609    0.5866 H   0  0  0  0  0  0  0  0  0  0  0  0
    2.9611   -1.6482   -2.2547 H   0  0  0  0  0  0  0  0  0  0  0  0
    3.3922   -0.0278   -2.7297 H   0  0  0  0  0  0  0  0  0  0  0  0
    1.9405    3.2518   -1.9379 H   0  0  0  0  0  0  0  0  0  0  0  0
    2.8590    2.0511   -2.8529 H   0  0  0  0  0  0  0  0  0  0  0  0
    3.1042    2.2286   -1.0876 H   0  0  0  0  0  0  0  0  0  0  0  0
   -3.3511   -4.8022   -0.4489 H   0  0  0  0  0  0  0  0  0  0  0  0
   -5.7260   -5.2811    0.0614 H   0  0  0  0  0  0  0  0  0  0  0  0
   -7.3303   -3.3989    0.3344 H   0  0  0  0  0  0  0  0  0  0  0  0
   -6.5359   -1.0675    0.0934 H   0  0  0  0  0  0  0  0  0  0  0  0
   -2.2222    3.0176   -1.4505 H   0  0  0  0  0  0  0  0  0  0  0  0
   -3.7933    2.2711   -1.1614 H   0  0  0  0  0  0  0  0  0  0  0  0
   -3.9777    1.5242    1.8918 H   0  0  0  0  0  0  0  0  0  0  0  0
   -3.2448    3.2968    3.8426 H   0  0  0  0  0  0  0  0  0  0  0  0
   -1.6697    5.1464    2.5247 H   0  0  0  0  0  0  0  0  0  0  0  0
    5.3952    0.6682   -1.6839 H   0  0  0  0  0  0  0  0  0  0  0  0
    6.8845    0.7818    0.2598 H   0  0  0  0  0  0  0  0  0  0  0  0
  1  2  1  0
  2  3  2  0
  3  4  1  0
  4  5  2  0
  5  6  1  0
  6  7  1  0
  7  8  1  0
  8  9  1  0
  8 10  2  0
 10 11  1  0
 11 12  2  0
 12 13  1  0
 13 14  2  0
 12 15  1  0
 15 16  2  0
 16 17  1  0
 17 18  2  0
 18 19  1  0
 19 20  2  0
 20 21  1  0
 21 22  2  0
 22 23  1  0
 23 24  2  0
 24 25  1  0
 25 26  1  0
 26 27  1  0
 27 28  2  0
 28 29  1  0
 29 30  2  0
 30 31  1  0
  5 32  1  0
 32 33  2  0
 33  2  1  0
 13  7  1  0
 24 15  1  0
 31 27  1  0
 25 11  1  0
 22 17  1  0
  1 34  1  0
  1 35  1  0
  1 36  1  0
  3 37  1  0
  4 38  1  0
  6 39  1  0
  6 40  1  0
  9 41  1  0
  9 42  1  0
  9 43  1  0
 18 44  1  0
 19 45  1  0
 20 46  1  0
 21 47  1  0
 26 48  1  0
 26 49  1  0
 28 50  1  0
 29 51  1  0
 30 52  1  0
 32 53  1  0
 33 54  1  0
M  END
$$$$
