
     RDKit          3D

 44 46  0  0  0  0  0  0  0  0999 V2000
   -3.8714   -0.7261    2.8041 C   0  0  0  0  0  0  0  0  0  0  0  0
   -2.8052   -1.2564    1.8915 C   0  0  0  0  0  0  0  0  0  0  0  0
   -3.0075   -1.2924    0.5118 C   0  0  0  0  0  0  0  0  0  0  0  0
   -2.0369   -1.8122   -0.3675 C   0  0  0  0  0  0  0  0  0  0  0  0
   -2.3892   -1.8086   -1.8308 C   0  0  0  0  0  0  0  0  0  0  0  0
   -0.8225   -2.3081    0.1692 C   0  0  0  0  0  0  0  0  0  0  0  0
    0.4807   -2.9536   -0.9069 S   0  0  0  0  0  6  0  0  0  0  0  0
    0.0079   -3.0573   -2.2703 O   0  0  0  0  0  0  0  0  0  0  0  0
    1.0628   -4.1134   -0.2635 O   0  0  0  0  0  0  0  0  0  0  0  0
    1.6612   -1.7402   -0.8552 N   0  0  0  0  0  0  0  0  0  0  0  0
    1.2954   -0.4079   -1.1888 C   0  0  0  0  0  0  0  0  0  0  0  0
    1.0149   -0.0678   -2.5106 C   0  0  0  0  0  0  0  0  0  0  0  0
    0.6184    1.2317   -2.8283 C   0  0  0  0  0  0  0  0  0  0  0  0
    0.5001    2.1848   -1.8158 C   0  0  0  0  0  0  0  0  0  0  0  0
    0.1009    3.4553   -2.1312 O   0  0  0  0  0  0  0  0  0  0  0  0
    0.7801    1.8523   -0.4824 C   0  0  0  0  0  0  0  0  0  0  0  0
    0.6173    3.0330    0.8481 S   0  0  0  0  0  0  0  0  0  0  0  0
    2.1495    3.8683    0.7829 C   0  0  0  0  0  0  0  0  0  0  0  0
    2.2964    5.1560    1.2334 N   0  0  0  0  0  0  0  0  0  0  0  0
    3.5705    5.3980    1.0409 C   0  0  0  0  0  0  0  0  0  0  0  0
    4.1647    4.2962    0.5167 N   0  0  0  0  0  0  0  0  0  0  0  0
    3.2860    3.2948    0.3634 N   0  0  0  0  0  0  0  0  0  0  0  0
    1.1754    0.5437   -0.1760 C   0  0  0  0  0  0  0  0  0  0  0  0
   -0.6183   -2.3038    1.5758 C   0  0  0  0  0  0  0  0  0  0  0  0
    0.6007   -2.8653    2.2606 C   0  0  0  0  0  0  0  0  0  0  0  0
   -1.6236   -1.7822    2.4119 C   0  0  0  0  0  0  0  0  0  0  0  0
   -4.5536   -1.5323    3.0906 H   0  0  0  0  0  0  0  0  0  0  0  0
   -3.4317   -0.2954    3.7099 H   0  0  0  0  0  0  0  0  0  0  0  0
   -4.4459    0.0672    2.3145 H   0  0  0  0  0  0  0  0  0  0  0  0
   -3.9457   -0.9081    0.1116 H   0  0  0  0  0  0  0  0  0  0  0  0
   -1.6705   -1.2210   -2.4063 H   0  0  0  0  0  0  0  0  0  0  0  0
   -2.4550   -2.8320   -2.2118 H   0  0  0  0  0  0  0  0  0  0  0  0
   -3.3687   -1.3492   -2.0078 H   0  0  0  0  0  0  0  0  0  0  0  0
    2.3246   -1.8746   -0.0955 H   0  0  0  0  0  0  0  0  0  0  0  0
    1.1038   -0.8117   -3.2994 H   0  0  0  0  0  0  0  0  0  0  0  0
    0.4032    1.4779   -3.8635 H   0  0  0  0  0  0  0  0  0  0  0  0
   -0.0422    3.5195   -3.0888 H   0  0  0  0  0  0  0  0  0  0  0  0
    4.0968    6.3166    1.2563 H   0  0  0  0  0  0  0  0  0  0  0  0
    5.1333    4.1537    0.2541 H   0  0  0  0  0  0  0  0  0  0  0  0
    1.3853    0.2744    0.8553 H   0  0  0  0  0  0  0  0  0  0  0  0
    0.6301   -2.5799    3.3185 H   0  0  0  0  0  0  0  0  0  0  0  0
    1.5229   -2.4789    1.8224 H   0  0  0  0  0  0  0  0  0  0  0  0
    0.5886   -3.9585    2.2235 H   0  0  0  0  0  0  0  0  0  0  0  0
   -1.4837   -1.7863    3.4927 H   0  0  0  0  0  0  0  0  0  0  0  0
  1  2  1  0
  2  3  2  0
  3  4  1  0
  4  5  1  0
  4  6  2  0
  6  7  1  0
  7  8  2  0
  7  9  2  0
  7 10  1  0
 10 11  1  0
 11 12  2  0
 12 13  1  0
 13 14  2  0
 14 15  1  0
 14 16  1  0
 16 17  1  0
 17 18  1  0
 18 19  1  0
 19 20  2  0
 20 21  1  0
 21 22  1  0
 16 23  2  0
  6 24  1  0
 24 25  1  0
 24 26  2  0
 26  2  1  0
 23 11  1  0
 22 18  2  0
  1 27  1  0
  1 28  1  0
  1 29  1  0
  3 30  1  0
  5 31  1  0
  5 32  1  0
  5 33  1  0
 10 34  1  0
 12 35  1  0
 13 36  1  0
 15 37  1  0
 20 38  1  0
 21 39  1  0
 23 40  1  0
 25 41  1  0
 25 42  1  0
 25 43  1  0
 26 44  1  0
M  END
$$$$
