
     RDKit          3D

 62 66  0  0  0  0  0  0  0  0999 V2000
   -4.6873    5.6765   -3.1436 C   0  0  0  0  0  0  0  0  0  0  0  0
   -3.7691    4.6514   -2.7861 O   0  0  0  0  0  0  0  0  0  0  0  0
   -4.2432    3.6427   -1.9924 C   0  0  0  0  0  0  0  0  0  0  0  0
   -5.5388    3.5247   -1.5083 C   0  0  0  0  0  0  0  0  0  0  0  0
   -5.9023    2.4413   -0.7001 C   0  0  0  0  0  0  0  0  0  0  0  0
   -4.9387    1.4650   -0.3817 C   0  0  0  0  0  0  0  0  0  0  0  0
   -5.1712    0.0654    0.5867 S   0  0  0  0  0  0  0  0  0  0  0  0
   -3.5485   -0.4391    0.3995 C   0  0  0  0  0  0  0  0  0  0  0  0
   -3.1312   -1.6941    1.0397 C   0  0  0  0  0  0  0  0  0  0  0  0
   -3.0854   -2.8621    0.2609 C   0  0  0  0  0  0  0  0  0  0  0  0
   -2.6892   -4.0741    0.8232 C   0  0  0  0  0  0  0  0  0  0  0  0
   -2.3323   -4.1283    2.1671 C   0  0  0  0  0  0  0  0  0  0  0  0
   -2.3677   -2.9726    2.9528 C   0  0  0  0  0  0  0  0  0  0  0  0
   -2.7659   -1.7490    2.4009 C   0  0  0  0  0  0  0  0  0  0  0  0
   -2.8052   -0.5647    3.0940 O   0  0  0  0  0  0  0  0  0  0  0  0
   -2.6159   -0.6223    4.5007 C   0  0  0  0  0  0  0  0  0  0  0  0
   -2.8278    0.4362   -0.3965 C   0  0  0  0  0  0  0  0  0  0  0  0
   -1.4232    0.2027   -0.7135 C   0  0  0  0  0  0  0  0  0  0  0  0
   -0.4428    0.3212    0.2771 C   0  0  0  0  0  0  0  0  0  0  0  0
    0.9045    0.0989   -0.0292 C   0  0  0  0  0  0  0  0  0  0  0  0
    1.2810   -0.2385   -1.3297 C   0  0  0  0  0  0  0  0  0  0  0  0
    2.5558   -0.4808   -1.7618 O   0  0  0  0  0  0  0  0  0  0  0  0
    3.6023   -0.3870   -0.7893 C   0  0  0  0  0  0  0  0  0  0  0  0
    4.9347   -0.6994   -1.4934 C   0  0  0  0  0  0  0  0  0  0  0  0
    6.1641   -0.6722   -0.6997 N   0  0  0  0  0  0  0  0  0  0  0  0
    6.4884    0.6167   -0.0993 C   0  0  0  0  0  0  0  0  0  0  0  0
    7.6449    0.2686    0.8279 C   0  0  0  0  0  0  0  0  0  0  0  0
    7.4743   -1.2153    1.1429 C   0  0  0  0  0  0  0  0  0  0  0  0
    6.2246   -1.6437    0.3861 C   0  0  0  0  0  0  0  0  0  0  0  0
    0.3003   -0.3500   -2.3190 C   0  0  0  0  0  0  0  0  0  0  0  0
   -1.0458   -0.1304   -2.0170 C   0  0  0  0  0  0  0  0  0  0  0  0
   -3.6285    1.5504   -0.8542 C   0  0  0  0  0  0  0  0  0  0  0  0
   -3.2948    2.6653   -1.6677 C   0  0  0  0  0  0  0  0  0  0  0  0
   -4.1550    6.3983   -3.7705 H   0  0  0  0  0  0  0  0  0  0  0  0
   -5.5187    5.2742   -3.7318 H   0  0  0  0  0  0  0  0  0  0  0  0
   -5.0497    6.2085   -2.2578 H   0  0  0  0  0  0  0  0  0  0  0  0
   -6.3033    4.2604   -1.7362 H   0  0  0  0  0  0  0  0  0  0  0  0
   -6.9176    2.3562   -0.3226 H   0  0  0  0  0  0  0  0  0  0  0  0
   -3.3591   -2.8265   -0.7913 H   0  0  0  0  0  0  0  0  0  0  0  0
   -2.6568   -4.9720    0.2118 H   0  0  0  0  0  0  0  0  0  0  0  0
   -2.0197   -5.0725    2.6063 H   0  0  0  0  0  0  0  0  0  0  0  0
   -2.0691   -3.0606    3.9919 H   0  0  0  0  0  0  0  0  0  0  0  0
   -2.7705    0.3848    4.8999 H   0  0  0  0  0  0  0  0  0  0  0  0
   -1.5922   -0.9228    4.7463 H   0  0  0  0  0  0  0  0  0  0  0  0
   -3.3485   -1.2838    4.9749 H   0  0  0  0  0  0  0  0  0  0  0  0
   -0.7232    0.5858    1.2947 H   0  0  0  0  0  0  0  0  0  0  0  0
    1.6286    0.1984    0.7718 H   0  0  0  0  0  0  0  0  0  0  0  0
    3.6266    0.6283   -0.3789 H   0  0  0  0  0  0  0  0  0  0  0  0
    3.4224   -1.1150    0.0091 H   0  0  0  0  0  0  0  0  0  0  0  0
    5.0500   -0.0057   -2.3371 H   0  0  0  0  0  0  0  0  0  0  0  0
    4.8504   -1.6850   -1.9708 H   0  0  0  0  0  0  0  0  0  0  0  0
    5.6598    1.0215    0.4927 H   0  0  0  0  0  0  0  0  0  0  0  0
    6.7825    1.3610   -0.8458 H   0  0  0  0  0  0  0  0  0  0  0  0
    7.6286    0.8796    1.7361 H   0  0  0  0  0  0  0  0  0  0  0  0
    8.6074    0.4334    0.3293 H   0  0  0  0  0  0  0  0  0  0  0  0
    8.3516   -1.7715    0.7919 H   0  0  0  0  0  0  0  0  0  0  0  0
    7.3732   -1.3922    2.2185 H   0  0  0  0  0  0  0  0  0  0  0  0
    5.3573   -1.5789    1.0530 H   0  0  0  0  0  0  0  0  0  0  0  0
    6.3099   -2.6717    0.0205 H   0  0  0  0  0  0  0  0  0  0  0  0
    0.5870   -0.6108   -3.3348 H   0  0  0  0  0  0  0  0  0  0  0  0
   -1.7923   -0.2243   -2.8019 H   0  0  0  0  0  0  0  0  0  0  0  0
   -2.2799    2.7674   -2.0460 H   0  0  0  0  0  0  0  0  0  0  0  0
  1  2  1  0
  2  3  1  0
  3  4  2  0
  4  5  1  0
  5  6  2  0
  6  7  1  0
  7  8  1  0
  8  9  1  0
  9 10  2  0
 10 11  1  0
 11 12  2  0
 12 13  1  0
 13 14  2  0
 14 15  1  0
 15 16  1  0
  8 17  2  0
 17 18  1  0
 18 19  2  0
 19 20  1  0
 20 21  2  0
 21 22  1  0
 22 23  1  0
 23 24  1  0
 24 25  1  0
 25 26  1  0
 26 27  1  0
 27 28  1  0
 28 29  1  0
 21 30  1  0
 30 31  2  0
 17 32  1  0
 32 33  2  0
 33  3  1  0
 32  6  1  0
 14  9  1  0
 31 18  1  0
 29 25  1  0
  1 34  1  0
  1 35  1  0
  1 36  1  0
  4 37  1  0
  5 38  1  0
 10 39  1  0
 11 40  1  0
 12 41  1  0
 13 42  1  0
 16 43  1  0
 16 44  1  0
 16 45  1  0
 19 46  1  0
 20 47  1  0
 23 48  1  0
 23 49  1  0
 24 50  1  0
 24 51  1  0
 26 52  1  0
 26 53  1  0
 27 54  1  0
 27 55  1  0
 28 56  1  0
 28 57  1  0
 29 58  1  0
 29 59  1  0
 30 60  1  0
 31 61  1  0
 33 62  1  0
M  END
$$$$
