
     RDKit          3D

 20 21  0  0  0  0  0  0  0  0999 V2000
    4.5214    0.0841    0.8409 O   0  0  0  0  0  0  0  0  0  0  0  0
    3.8189    0.0600   -0.1616 C   0  0  0  0  0  0  0  0  0  0  0  0
    2.3439    0.0369   -0.0879 C   0  0  0  0  0  0  0  0  0  0  0  0
    1.7020    0.0422    1.1518 C   0  0  0  0  0  0  0  0  0  0  0  0
    0.3062    0.0203    1.2119 C   0  0  0  0  0  0  0  0  0  0  0  0
   -0.4537   -0.0070    0.0310 C   0  0  0  0  0  0  0  0  0  0  0  0
   -1.8709   -0.0289    0.1174 N   0  0  0  0  0  0  0  0  0  0  0  0
   -2.8005   -0.0568   -0.8948 C   0  0  0  0  0  0  0  0  0  0  0  0
   -4.0190   -0.0704   -0.4040 N   0  0  0  0  0  0  0  0  0  0  0  0
   -3.7979   -0.0498    0.9386 C   0  0  0  0  0  0  0  0  0  0  0  0
   -2.5180   -0.0243    1.3098 N   0  0  0  0  0  0  0  0  0  0  0  0
    0.1985   -0.0121   -1.2117 C   0  0  0  0  0  0  0  0  0  0  0  0
    1.5974    0.0098   -1.2690 C   0  0  0  0  0  0  0  0  0  0  0  0
    4.2618    0.0543   -1.1716 H   0  0  0  0  0  0  0  0  0  0  0  0
    2.2824    0.0633    2.0726 H   0  0  0  0  0  0  0  0  0  0  0  0
   -0.1738    0.0250    2.1901 H   0  0  0  0  0  0  0  0  0  0  0  0
   -2.5488   -0.0661   -1.9442 H   0  0  0  0  0  0  0  0  0  0  0  0
   -4.5954   -0.0534    1.6713 H   0  0  0  0  0  0  0  0  0  0  0  0
   -0.3452   -0.0329   -2.1520 H   0  0  0  0  0  0  0  0  0  0  0  0
    2.0905    0.0056   -2.2385 H   0  0  0  0  0  0  0  0  0  0  0  0
  1  2  2  0
  2  3  1  0
  3  4  2  0
  4  5  1  0
  5  6  2  0
  6  7  1  0
  7  8  1  0
  8  9  2  0
  9 10  1  0
 10 11  2  0
  6 12  1  0
 12 13  2  0
 13  3  1  0
 11  7  1  0
  2 14  1  0
  4 15  1  0
  5 16  1  0
  8 17  1  0
 10 18  1  0
 12 19  1  0
 13 20  1  0
M  END
$$$$
