
     RDKit          3D

 42 44  0  0  0  0  0  0  0  0999 V2000
   -3.5179    2.1632   -0.8497 C   0  0  0  0  0  0  0  0  0  0  0  0
   -3.6975    0.7510   -0.3607 C   0  0  0  0  0  0  0  0  0  0  0  0
   -4.9958    0.2420   -0.1897 C   0  0  0  0  0  0  0  0  0  0  0  0
   -5.1939   -1.0622    0.2618 C   0  0  0  0  0  0  0  0  0  0  0  0
   -4.0944   -1.8633    0.5444 C   0  0  0  0  0  0  0  0  0  0  0  0
   -4.3272   -3.4745    1.1023 Cl  0  0  0  0  0  0  0  0  0  0  0  0
   -2.7988   -1.3737    0.3801 C   0  0  0  0  0  0  0  0  0  0  0  0
   -2.5813   -0.0631   -0.0736 C   0  0  0  0  0  0  0  0  0  0  0  0
   -1.2835    0.4632   -0.2505 N   0  0  0  0  0  0  0  0  0  0  0  0
   -0.5405    0.5906    1.0186 C   0  0  0  0  0  0  0  0  0  0  0  0
    0.7980    1.3247    0.7794 C   0  0  0  0  0  0  0  0  0  0  0  0
    1.6050    0.7661   -0.3407 N   0  0  0  0  0  0  0  0  0  0  0  0
    2.5450   -0.1947   -0.0011 C   0  0  0  0  0  0  0  0  0  0  0  0
    2.2156   -1.4829    0.4464 C   0  0  0  0  0  0  0  0  0  0  0  0
    3.2105   -2.3989    0.7706 C   0  0  0  0  0  0  0  0  0  0  0  0
    4.5371   -2.0266    0.6475 C   0  0  0  0  0  0  0  0  0  0  0  0
    4.8395   -0.7484    0.2033 C   0  0  0  0  0  0  0  0  0  0  0  0
    3.8626    0.1326   -0.1086 N   0  0  0  0  0  4  0  0  0  0  0  0
    4.2347    1.4811   -0.5768 C   0  0  0  0  0  0  0  0  0  0  0  0
    0.8104    0.5051   -1.5730 C   0  0  0  0  0  0  0  0  0  0  0  0
   -0.5280   -0.2232   -1.3167 C   0  0  0  0  0  0  0  0  0  0  0  0
   -2.9750    2.7562   -0.1066 H   0  0  0  0  0  0  0  0  0  0  0  0
   -4.4813    2.6539   -1.0244 H   0  0  0  0  0  0  0  0  0  0  0  0
   -2.9673    2.1702   -1.7960 H   0  0  0  0  0  0  0  0  0  0  0  0
   -5.8635    0.8618   -0.4083 H   0  0  0  0  0  0  0  0  0  0  0  0
   -6.2042   -1.4424    0.3894 H   0  0  0  0  0  0  0  0  0  0  0  0
   -1.9604   -2.0231    0.6090 H   0  0  0  0  0  0  0  0  0  0  0  0
   -1.1272    1.1701    1.7425 H   0  0  0  0  0  0  0  0  0  0  0  0
   -0.3497   -0.3927    1.4624 H   0  0  0  0  0  0  0  0  0  0  0  0
    1.3841    1.3514    1.7066 H   0  0  0  0  0  0  0  0  0  0  0  0
    0.5783    2.3691    0.5231 H   0  0  0  0  0  0  0  0  0  0  0  0
    1.1807   -1.7926    0.5492 H   0  0  0  0  0  0  0  0  0  0  0  0
    2.9475   -3.3973    1.1174 H   0  0  0  0  0  0  0  0  0  0  0  0
    5.3317   -2.7271    0.8956 H   0  0  0  0  0  0  0  0  0  0  0  0
    5.8697   -0.4210    0.0943 H   0  0  0  0  0  0  0  0  0  0  0  0
    3.8340    1.6177   -1.5848 H   0  0  0  0  0  0  0  0  0  0  0  0
    3.8254    2.2135    0.1241 H   0  0  0  0  0  0  0  0  0  0  0  0
    5.3229    1.5801   -0.6059 H   0  0  0  0  0  0  0  0  0  0  0  0
    0.5916    1.4819   -2.0232 H   0  0  0  0  0  0  0  0  0  0  0  0
    1.4052   -0.0481   -2.3105 H   0  0  0  0  0  0  0  0  0  0  0  0
   -1.1060   -0.2211   -2.2495 H   0  0  0  0  0  0  0  0  0  0  0  0
   -0.3361   -1.2688   -1.0515 H   0  0  0  0  0  0  0  0  0  0  0  0
  1  2  1  0
  2  3  2  0
  3  4  1  0
  4  5  2  0
  5  6  1  0
  5  7  1  0
  7  8  2  0
  8  9  1  0
  9 10  1  0
 10 11  1  0
 11 12  1  0
 12 13  1  0
 13 14  2  0
 14 15  1  0
 15 16  2  0
 16 17  1  0
 17 18  2  0
 18 19  1  0
 12 20  1  0
 20 21  1  0
  8  2  1  0
 21  9  1  0
 18 13  1  0
  1 22  1  0
  1 23  1  0
  1 24  1  0
  3 25  1  0
  4 26  1  0
  7 27  1  0
 10 28  1  0
 10 29  1  0
 11 30  1  0
 11 31  1  0
 14 32  1  0
 15 33  1  0
 16 34  1  0
 17 35  1  0
 19 36  1  0
 19 37  1  0
 19 38  1  0
 20 39  1  0
 20 40  1  0
 21 41  1  0
 21 42  1  0
M  CHG  1  18   1
M  END
$$$$
