
     RDKit          3D

 74 75  0  0  0  0  0  0  0  0999 V2000
   -5.2846    5.3349    1.5829 C   0  0  0  0  0  0  0  0  0  0  0  0
   -4.7222    4.0560    1.8421 O   0  0  0  0  0  0  0  0  0  0  0  0
   -3.4715    3.7891    1.3450 C   0  0  0  0  0  0  0  0  0  0  0  0
   -2.6668    4.7446    0.7198 C   0  0  0  0  0  0  0  0  0  0  0  0
   -1.4479    4.3771    0.1587 C   0  0  0  0  0  0  0  0  0  0  0  0
   -1.0165    3.0538    0.2359 C   0  0  0  0  0  0  0  0  0  0  0  0
   -1.7541    2.0708    0.9303 C   0  0  0  0  0  0  0  0  0  0  0  0
   -1.2663    0.6163    0.9132 C   0  0  0  0  0  0  0  0  0  0  0  0
   -1.6927   -0.3551    2.0584 C   0  0  0  0  0  0  0  0  0  0  0  0
   -1.7582   -0.0469    3.2478 O   0  0  0  0  0  0  0  0  0  0  0  0
   -1.8964   -1.6582    1.6130 N   0  0  0  0  0  0  0  0  0  0  0  0
   -2.2164   -2.8109    2.4623 C   0  0  0  0  0  0  0  0  0  0  0  0
   -2.3266   -4.0550    1.5595 C   0  0  0  0  0  0  0  0  0  0  0  0
   -3.5624   -2.6080    3.1763 C   0  0  0  0  0  0  0  0  0  0  0  0
   -1.1027   -3.0666    3.4945 C   0  0  0  0  0  0  0  0  0  0  0  0
    0.2068    0.4296    0.6196 N   0  0  0  0  0  0  0  0  0  0  0  0
    0.4307   -0.5235   -0.3914 C   0  0  0  0  0  0  0  0  0  0  0  0
   -0.4775   -1.2661   -0.7913 O   0  0  0  0  0  0  0  0  0  0  0  0
    1.7967   -0.6245   -1.0392 C   0  0  0  0  0  0  0  0  0  0  0  0
    1.7293   -1.4375   -2.3325 C   0  0  0  0  0  0  0  0  0  0  0  0
    3.0654   -1.4661   -3.0478 C   0  0  0  0  0  0  0  0  0  0  0  0
    4.1222   -1.2255   -2.4675 O   0  0  0  0  0  0  0  0  0  0  0  0
    2.9296   -1.8131   -4.3732 N   0  0  0  0  0  0  0  0  0  0  0  0
    3.9657   -1.9751   -5.2660 C   0  0  0  0  0  0  0  0  0  0  0  0
    5.3618   -1.9119   -5.0483 C   0  0  0  0  0  0  0  0  0  0  0  0
    5.9148   -2.1770   -6.2773 C   0  0  0  0  0  0  0  0  0  0  0  0
    7.2943   -2.2928   -6.7856 C   0  0  0  0  0  0  0  0  0  0  0  0
    4.9138   -2.3732   -7.1802 O   0  0  0  0  0  0  0  0  0  0  0  0
    3.6912   -2.2484   -6.5480 N   0  0  0  0  0  0  0  0  0  0  0  0
    1.2556    0.8022    1.6706 C   0  0  0  0  0  0  0  0  0  0  0  0
    0.7902    1.8486    2.7211 C   0  0  0  0  0  0  0  0  0  0  0  0
    2.5162    1.4493    1.0408 C   0  0  0  0  0  0  0  0  0  0  0  0
    1.6863   -0.4593    2.4521 C   0  0  0  0  0  0  0  0  0  0  0  0
   -3.0042    2.4571    1.4589 C   0  0  0  0  0  0  0  0  0  0  0  0
   -3.8105    1.4645    1.9620 O   0  0  0  0  0  0  0  0  0  0  0  0
   -4.2097    1.7103    3.3128 C   0  0  0  0  0  0  0  0  0  0  0  0
   -4.7025    6.1256    2.0673 H   0  0  0  0  0  0  0  0  0  0  0  0
   -6.2891    5.3566    2.0151 H   0  0  0  0  0  0  0  0  0  0  0  0
   -5.3799    5.5119    0.5056 H   0  0  0  0  0  0  0  0  0  0  0  0
   -2.9751    5.7795    0.6230 H   0  0  0  0  0  0  0  0  0  0  0  0
   -0.8377    5.1182   -0.3557 H   0  0  0  0  0  0  0  0  0  0  0  0
   -0.0837    2.7925   -0.2617 H   0  0  0  0  0  0  0  0  0  0  0  0
   -1.8207    0.2598    0.0322 H   0  0  0  0  0  0  0  0  0  0  0  0
   -1.6152   -1.8427    0.6499 H   0  0  0  0  0  0  0  0  0  0  0  0
   -2.5666   -4.9511    2.1427 H   0  0  0  0  0  0  0  0  0  0  0  0
   -1.3837   -4.2429    1.0309 H   0  0  0  0  0  0  0  0  0  0  0  0
   -3.1071   -3.9284    0.7955 H   0  0  0  0  0  0  0  0  0  0  0  0
   -4.3668   -2.4301    2.4506 H   0  0  0  0  0  0  0  0  0  0  0  0
   -3.5425   -1.7515    3.8612 H   0  0  0  0  0  0  0  0  0  0  0  0
   -3.8316   -3.4935    3.7639 H   0  0  0  0  0  0  0  0  0  0  0  0
   -0.1314   -3.1933    3.0000 H   0  0  0  0  0  0  0  0  0  0  0  0
   -1.0076   -2.2387    4.2058 H   0  0  0  0  0  0  0  0  0  0  0  0
   -1.3036   -3.9741    4.0766 H   0  0  0  0  0  0  0  0  0  0  0  0
    2.1449    0.3805   -1.2930 H   0  0  0  0  0  0  0  0  0  0  0  0
    2.4933   -1.1080   -0.3506 H   0  0  0  0  0  0  0  0  0  0  0  0
    1.4368   -2.4725   -2.1209 H   0  0  0  0  0  0  0  0  0  0  0  0
    0.9732   -1.0078   -3.0006 H   0  0  0  0  0  0  0  0  0  0  0  0
    2.0151   -1.9696   -4.7770 H   0  0  0  0  0  0  0  0  0  0  0  0
    5.8934   -1.7021   -4.1315 H   0  0  0  0  0  0  0  0  0  0  0  0
    8.0170   -2.2954   -5.9636 H   0  0  0  0  0  0  0  0  0  0  0  0
    7.5325   -1.4521   -7.4472 H   0  0  0  0  0  0  0  0  0  0  0  0
    7.4155   -3.2251   -7.3510 H   0  0  0  0  0  0  0  0  0  0  0  0
    1.5379    1.9578    3.5151 H   0  0  0  0  0  0  0  0  0  0  0  0
   -0.1376    1.5916    3.2245 H   0  0  0  0  0  0  0  0  0  0  0  0
    0.6672    2.8424    2.2805 H   0  0  0  0  0  0  0  0  0  0  0  0
    3.1952    0.7206    0.5907 H   0  0  0  0  0  0  0  0  0  0  0  0
    3.1189    1.9684    1.7967 H   0  0  0  0  0  0  0  0  0  0  0  0
    2.2434    2.1871    0.2782 H   0  0  0  0  0  0  0  0  0  0  0  0
    0.8570   -0.8744    3.0333 H   0  0  0  0  0  0  0  0  0  0  0  0
    2.4933   -0.2319    3.1591 H   0  0  0  0  0  0  0  0  0  0  0  0
    2.0469   -1.2540    1.7927 H   0  0  0  0  0  0  0  0  0  0  0  0
   -5.2072    2.1653    3.3318 H   0  0  0  0  0  0  0  0  0  0  0  0
   -4.2842    0.7437    3.8216 H   0  0  0  0  0  0  0  0  0  0  0  0
   -3.4908    2.3285    3.8680 H   0  0  0  0  0  0  0  0  0  0  0  0
  1  2  1  0
  2  3  1  0
  3  4  2  0
  4  5  1  0
  5  6  2  0
  6  7  1  0
  7  8  1  0
  8  9  1  0
  9 10  2  0
  9 11  1  0
 11 12  1  0
 12 13  1  0
 12 14  1  0
 12 15  1  0
  8 16  1  0
 16 17  1  0
 17 18  2  0
 17 19  1  0
 19 20  1  0
 20 21  1  0
 21 22  2  0
 21 23  1  0
 23 24  1  0
 24 25  1  0
 25 26  2  0
 26 27  1  0
 26 28  1  0
 28 29  1  0
 16 30  1  0
 30 31  1  0
 30 32  1  0
 30 33  1  0
  7 34  2  0
 34 35  1  0
 35 36  1  0
 34  3  1  0
 29 24  2  0
  1 37  1  0
  1 38  1  0
  1 39  1  0
  4 40  1  0
  5 41  1  0
  6 42  1  0
  8 43  1  0
 11 44  1  0
 13 45  1  0
 13 46  1  0
 13 47  1  0
 14 48  1  0
 14 49  1  0
 14 50  1  0
 15 51  1  0
 15 52  1  0
 15 53  1  0
 19 54  1  0
 19 55  1  0
 20 56  1  0
 20 57  1  0
 23 58  1  0
 25 59  1  0
 27 60  1  0
 27 61  1  0
 27 62  1  0
 31 63  1  0
 31 64  1  0
 31 65  1  0
 32 66  1  0
 32 67  1  0
 32 68  1  0
 33 69  1  0
 33 70  1  0
 33 71  1  0
 36 72  1  0
 36 73  1  0
 36 74  1  0
M  END
$$$$
