
     RDKit          3D

 33 35  0  0  0  0  0  0  0  0999 V2000
   -0.9722   -0.2575   -1.7189 O   0  0  0  0  0  0  0  0  0  0  0  0
   -0.5904   -0.6168   -0.6101 C   0  0  0  0  0  0  0  0  0  0  0  0
   -1.5038   -1.2777    0.3688 C   0  0  0  0  0  0  0  0  0  0  0  0
   -2.7465   -0.8350    0.6321 C   0  0  0  0  0  0  0  0  0  0  0  0
   -3.2910    0.3828    0.1412 C   0  0  0  0  0  0  0  0  0  0  0  0
   -4.6178    0.6827   -0.1476 C   0  0  0  0  0  0  0  0  0  0  0  0
   -4.6779    2.0295   -0.5775 C   0  0  0  0  0  0  0  0  0  0  0  0
   -3.3915    2.4983   -0.5137 C   0  0  0  0  0  0  0  0  0  0  0  0
   -2.5569    1.5298   -0.0676 O   0  0  0  0  0  0  0  0  0  0  0  0
   -0.9316   -2.4945    1.0331 C   0  0  0  0  0  0  0  0  0  0  0  0
    0.3699   -2.1200    1.7265 C   0  0  0  0  0  0  0  0  0  0  0  0
    1.3913   -1.5713    0.7305 C   0  0  0  0  0  0  0  0  0  0  0  0
    0.8451   -0.5134   -0.1904 C   0  0  0  0  0  0  0  0  0  0  0  0
    1.5012    0.5312   -0.7311 C   0  0  0  0  0  0  0  0  0  0  0  0
    2.8857    0.8084   -0.5523 C   0  0  0  0  0  0  0  0  0  0  0  0
    3.5695    1.9745   -0.8851 C   0  0  0  0  0  0  0  0  0  0  0  0
    4.9325    1.7986   -0.5502 C   0  0  0  0  0  0  0  0  0  0  0  0
    5.0272    0.5322   -0.0362 C   0  0  0  0  0  0  0  0  0  0  0  0
    3.8142   -0.0694   -0.0367 O   0  0  0  0  0  0  0  0  0  0  0  0
   -3.3833   -1.4067    1.3013 H   0  0  0  0  0  0  0  0  0  0  0  0
   -5.4459   -0.0080   -0.0686 H   0  0  0  0  0  0  0  0  0  0  0  0
   -5.5479    2.5857   -0.8953 H   0  0  0  0  0  0  0  0  0  0  0  0
   -2.9263    3.4477   -0.7374 H   0  0  0  0  0  0  0  0  0  0  0  0
   -0.7559   -3.2768    0.2844 H   0  0  0  0  0  0  0  0  0  0  0  0
   -1.6260   -2.9114    1.7721 H   0  0  0  0  0  0  0  0  0  0  0  0
    0.1766   -1.3713    2.5063 H   0  0  0  0  0  0  0  0  0  0  0  0
    0.7883   -2.9998    2.2293 H   0  0  0  0  0  0  0  0  0  0  0  0
    1.7665   -2.3990    0.1153 H   0  0  0  0  0  0  0  0  0  0  0  0
    2.2340   -1.1974    1.3193 H   0  0  0  0  0  0  0  0  0  0  0  0
    0.9580    1.2258   -1.3714 H   0  0  0  0  0  0  0  0  0  0  0  0
    3.1203    2.8553   -1.3238 H   0  0  0  0  0  0  0  0  0  0  0  0
    5.7414    2.5044   -0.6734 H   0  0  0  0  0  0  0  0  0  0  0  0
    5.8433   -0.0611    0.3513 H   0  0  0  0  0  0  0  0  0  0  0  0
  1  2  2  0
  2  3  1  0
  3  4  2  3
  4  5  1  0
  5  6  2  0
  6  7  1  0
  7  8  2  0
  8  9  1  0
  3 10  1  0
 10 11  1  0
 11 12  1  0
 12 13  1  0
 13 14  2  3
 14 15  1  0
 15 16  2  0
 16 17  1  0
 17 18  2  0
 18 19  1  0
 13  2  1  0
 19 15  1  0
  9  5  1  0
  4 20  1  0
  6 21  1  0
  7 22  1  0
  8 23  1  0
 10 24  1  0
 10 25  1  0
 11 26  1  0
 11 27  1  0
 12 28  1  0
 12 29  1  0
 14 30  1  0
 16 31  1  0
 17 32  1  0
 18 33  1  0
M  END
$$$$
