
     RDKit          3D

 43 45  0  0  0  0  0  0  0  0999 V2000
   -2.8323   -3.3173    0.1767 C   0  0  0  0  0  0  0  0  0  0  0  0
   -1.9662   -2.4499    0.9028 O   0  0  0  0  0  0  0  0  0  0  0  0
   -2.0143   -1.1254    0.5628 C   0  0  0  0  0  0  0  0  0  0  0  0
   -2.9052   -0.5402   -0.3385 C   0  0  0  0  0  0  0  0  0  0  0  0
   -2.8551    0.8347   -0.5940 C   0  0  0  0  0  0  0  0  0  0  0  0
   -1.9208    1.6344    0.0646 C   0  0  0  0  0  0  0  0  0  0  0  0
   -1.8323    2.9664   -0.2392 O   0  0  0  0  0  0  0  0  0  0  0  0
   -2.9624    3.6899    0.2580 C   0  0  0  0  0  0  0  0  0  0  0  0
   -1.0168    1.0484    0.9506 C   0  0  0  0  0  0  0  0  0  0  0  0
    0.1836    2.0406    1.7945 S   0  0  0  0  0  6  0  0  0  0  0  0
    1.0228    1.1637    2.5844 O   0  0  0  0  0  0  0  0  0  0  0  0
   -0.5246    3.1365    2.4227 O   0  0  0  0  0  0  0  0  0  0  0  0
    1.1133    2.7090    0.5456 N   0  0  0  0  0  0  0  0  0  0  0  0
    1.6834    1.8395   -0.4291 C   0  0  0  0  0  0  0  0  0  0  0  0
    1.2669    1.9497   -1.7556 C   0  0  0  0  0  0  0  0  0  0  0  0
    1.7879    1.0911   -2.7264 C   0  0  0  0  0  0  0  0  0  0  0  0
    2.7192    0.1184   -2.3632 C   0  0  0  0  0  0  0  0  0  0  0  0
    3.2110   -0.7291   -3.3181 O   0  0  0  0  0  0  0  0  0  0  0  0
    3.1476   -0.0011   -1.0335 C   0  0  0  0  0  0  0  0  0  0  0  0
    4.3247   -1.2485   -0.5329 S   0  0  0  0  0  0  0  0  0  0  0  0
    3.3179   -2.3440    0.3737 C   0  0  0  0  0  0  0  0  0  0  0  0
    1.9471   -2.3421    0.3332 N   0  0  0  0  0  0  0  0  0  0  0  0
    1.6244   -3.2965    1.1715 C   0  0  0  0  0  0  0  0  0  0  0  0
    2.7523   -3.8483    1.6838 N   0  0  0  0  0  0  0  0  0  0  0  0
    3.8501   -3.2702    1.1804 N   0  0  0  0  0  0  0  0  0  0  0  0
    2.6301    0.8785   -0.0712 C   0  0  0  0  0  0  0  0  0  0  0  0
   -1.0695   -0.3245    1.2069 C   0  0  0  0  0  0  0  0  0  0  0  0
   -3.8845   -3.0769    0.3690 H   0  0  0  0  0  0  0  0  0  0  0  0
   -2.6057   -3.2896   -0.8951 H   0  0  0  0  0  0  0  0  0  0  0  0
   -2.6582   -4.3394    0.5302 H   0  0  0  0  0  0  0  0  0  0  0  0
   -3.6494   -1.1285   -0.8637 H   0  0  0  0  0  0  0  0  0  0  0  0
   -3.5392    1.2688   -1.3183 H   0  0  0  0  0  0  0  0  0  0  0  0
   -3.8121    3.5908   -0.4220 H   0  0  0  0  0  0  0  0  0  0  0  0
   -3.2440    3.3658    1.2691 H   0  0  0  0  0  0  0  0  0  0  0  0
   -2.6814    4.7479    0.3103 H   0  0  0  0  0  0  0  0  0  0  0  0
    0.6741    3.5644    0.2046 H   0  0  0  0  0  0  0  0  0  0  0  0
    0.5379    2.7007   -2.0459 H   0  0  0  0  0  0  0  0  0  0  0  0
    1.4556    1.1942   -3.7554 H   0  0  0  0  0  0  0  0  0  0  0  0
    2.6577   -0.6730   -4.1120 H   0  0  0  0  0  0  0  0  0  0  0  0
    0.6263   -3.6130    1.4368 H   0  0  0  0  0  0  0  0  0  0  0  0
    2.8504   -4.5973    2.3542 H   0  0  0  0  0  0  0  0  0  0  0  0
    2.9645    0.8061    0.9609 H   0  0  0  0  0  0  0  0  0  0  0  0
   -0.3747   -0.7851    1.9010 H   0  0  0  0  0  0  0  0  0  0  0  0
  1  2  1  0
  2  3  1  0
  3  4  2  0
  4  5  1  0
  5  6  2  0
  6  7  1  0
  7  8  1  0
  6  9  1  0
  9 10  1  0
 10 11  2  0
 10 12  2  0
 10 13  1  0
 13 14  1  0
 14 15  2  0
 15 16  1  0
 16 17  2  0
 17 18  1  0
 17 19  1  0
 19 20  1  0
 20 21  1  0
 21 22  1  0
 22 23  2  0
 23 24  1  0
 24 25  1  0
 19 26  2  0
  9 27  2  0
 27  3  1  0
 26 14  1  0
 25 21  2  0
  1 28  1  0
  1 29  1  0
  1 30  1  0
  4 31  1  0
  5 32  1  0
  8 33  1  0
  8 34  1  0
  8 35  1  0
 13 36  1  0
 15 37  1  0
 16 38  1  0
 18 39  1  0
 23 40  1  0
 24 41  1  0
 26 42  1  0
 27 43  1  0
M  END
$$$$
