
     RDKit          3D

 92 94  0  0  0  0  0  0  0  0999 V2000
   -2.7883   -0.3030    4.8962 C   0  0  0  0  0  0  0  0  0  0  0  0
   -2.0712    0.0013    3.6191 C   0  0  0  0  0  0  0  0  0  0  0  0
   -1.0196    0.6237    3.5470 O   0  0  0  0  0  0  0  0  0  0  0  0
   -2.7500   -0.5406    2.5703 O   0  0  0  0  0  0  0  0  0  0  0  0
   -2.1858   -0.3690    1.2429 C   0  0  1  0  0  0  0  0  0  0  0  0
   -1.2989   -1.5995    0.8821 C   0  0  2  0  0  0  0  0  0  0  0  0
   -0.2271   -1.7442    1.8471 O   0  0  0  0  0  0  0  0  0  0  0  0
   -0.3858   -2.6753    2.8218 C   0  0  0  0  0  0  0  0  0  0  0  0
    0.8876   -2.8263    3.5962 C   0  0  0  0  0  0  0  0  0  0  0  0
   -1.4034   -3.3242    3.0369 O   0  0  0  0  0  0  0  0  0  0  0  0
   -0.6035   -1.5211   -0.4792 C   0  0  0  0  0  0  0  0  0  0  0  0
   -1.0666   -2.5645   -1.4667 C   0  0  0  0  0  0  0  0  0  0  0  0
    0.4250   -0.7120   -0.8251 C   0  0  0  0  0  0  0  0  0  0  0  0
    1.1453    0.3258    0.0083 C   0  0  1  0  0  0  0  0  0  0  0  0
    2.4018   -0.2694    0.6902 C   0  0  1  0  0  0  0  0  0  0  0  0
    3.2198   -0.9423   -0.2823 O   0  0  0  0  0  0  0  0  0  0  0  0
    3.5426   -2.2320   -0.0217 C   0  0  0  0  0  0  0  0  0  0  0  0
    3.3943   -2.8199    1.0432 O   0  0  0  0  0  0  0  0  0  0  0  0
    4.1051   -2.8728   -1.2414 C   0  0  0  0  0  0  0  0  0  0  0  0
    4.1754   -2.2099   -2.4761 C   0  0  0  0  0  0  0  0  0  0  0  0
    4.6686   -2.8704   -3.6046 C   0  0  0  0  0  0  0  0  0  0  0  0
    5.1031   -4.1915   -3.5030 C   0  0  0  0  0  0  0  0  0  0  0  0
    5.0438   -4.8567   -2.2782 C   0  0  0  0  0  0  0  0  0  0  0  0
    4.5425   -4.2024   -1.1501 C   0  0  0  0  0  0  0  0  0  0  0  0
    3.1071    0.9673    1.2375 C   0  0  1  0  0  0  0  0  0  0  0  0
    4.5851    0.7769    1.5590 C   0  0  0  0  0  0  0  0  0  0  0  0
    2.8591    2.0672    0.1915 C   0  0  0  0  0  0  0  0  0  0  0  0
    1.7122    1.5719   -0.7425 C   0  0  1  0  0  0  0  0  0  0  0  0
    2.3526    1.1863   -1.9693 O   0  0  0  0  0  0  0  0  0  0  0  0
    0.7099    2.7300   -1.0208 C   0  0  1  0  0  0  0  0  0  0  0  0
    1.5180    3.8509   -1.5169 O   0  0  0  0  0  0  0  0  0  0  0  0
    1.0858    5.0977   -1.1862 C   0  0  0  0  0  0  0  0  0  0  0  0
    1.9715    6.1306   -1.8193 C   0  0  0  0  0  0  0  0  0  0  0  0
    0.1010    5.3519   -0.5080 O   0  0  0  0  0  0  0  0  0  0  0  0
   -0.4480    2.5187   -2.0431 C   0  0  1  0  0  0  0  0  0  0  0  0
   -0.0156    2.0227   -3.4291 C   0  0  0  0  0  0  0  0  0  0  0  0
   -1.6040    1.7027   -1.5139 C   0  0  0  0  0  0  0  0  0  0  0  0
   -2.4433    2.1652   -0.5636 C   0  0  0  0  0  0  0  0  0  0  0  0
   -3.6508    1.4146   -0.0010 C   0  0  0  0  0  0  0  0  0  0  0  0
   -4.1047    2.1123    1.3075 C   0  0  0  0  0  0  0  0  0  0  0  0
   -4.8130    1.5684   -1.0176 C   0  0  0  0  0  0  0  0  0  0  0  0
   -3.3656   -0.1179    0.2489 C   0  0  2  0  0  0  0  0  0  0  0  0
   -4.5978   -0.7009    0.7604 O   0  0  0  0  0  0  0  0  0  0  0  0
   -4.8400   -2.0052    0.4810 C   0  0  0  0  0  0  0  0  0  0  0  0
   -6.1254   -2.4292    1.1293 C   0  0  0  0  0  0  0  0  0  0  0  0
   -4.1397   -2.7297   -0.2164 O   0  0  0  0  0  0  0  0  0  0  0  0
   -2.5663   -1.3311    5.2079 H   0  0  0  0  0  0  0  0  0  0  0  0
   -3.8709   -0.1800    4.7524 H   0  0  0  0  0  0  0  0  0  0  0  0
   -2.4647    0.3976    5.6727 H   0  0  0  0  0  0  0  0  0  0  0  0
   -1.5394    0.5127    1.2509 H   0  0  0  0  0  0  0  0  0  0  0  0
   -1.9163   -2.5034    0.9095 H   0  0  0  0  0  0  0  0  0  0  0  0
    1.5956   -3.4130    3.0052 H   0  0  0  0  0  0  0  0  0  0  0  0
    0.6768   -3.3422    4.5366 H   0  0  0  0  0  0  0  0  0  0  0  0
    1.2974   -1.8442    3.8423 H   0  0  0  0  0  0  0  0  0  0  0  0
   -2.1015   -2.3941   -1.7639 H   0  0  0  0  0  0  0  0  0  0  0  0
   -0.9834   -3.5650   -1.0229 H   0  0  0  0  0  0  0  0  0  0  0  0
   -0.4669   -2.5627   -2.3874 H   0  0  0  0  0  0  0  0  0  0  0  0
    0.8584   -0.8455   -1.8178 H   0  0  0  0  0  0  0  0  0  0  0  0
    0.4904    0.6965    0.8026 H   0  0  0  0  0  0  0  0  0  0  0  0
    2.1237   -0.9327    1.5103 H   0  0  0  0  0  0  0  0  0  0  0  0
    3.8335   -1.1800   -2.5738 H   0  0  0  0  0  0  0  0  0  0  0  0
    4.7097   -2.3526   -4.5597 H   0  0  0  0  0  0  0  0  0  0  0  0
    5.4976   -4.7055   -4.3785 H   0  0  0  0  0  0  0  0  0  0  0  0
    5.3732   -5.8903   -2.2028 H   0  0  0  0  0  0  0  0  0  0  0  0
    4.4844   -4.7391   -0.2034 H   0  0  0  0  0  0  0  0  0  0  0  0
    2.5955    1.2754    2.1607 H   0  0  0  0  0  0  0  0  0  0  0  0
    5.0012    1.7016    1.9889 H   0  0  0  0  0  0  0  0  0  0  0  0
    4.7242   -0.0227    2.2965 H   0  0  0  0  0  0  0  0  0  0  0  0
    5.1680    0.5369    0.6635 H   0  0  0  0  0  0  0  0  0  0  0  0
    2.5845    2.9831    0.7328 H   0  0  0  0  0  0  0  0  0  0  0  0
    3.7728    2.2884   -0.3825 H   0  0  0  0  0  0  0  0  0  0  0  0
    2.7064    2.0017   -2.3732 H   0  0  0  0  0  0  0  0  0  0  0  0
    0.2859    3.0177   -0.0504 H   0  0  0  0  0  0  0  0  0  0  0  0
    3.0202    5.9243   -1.5872 H   0  0  0  0  0  0  0  0  0  0  0  0
    1.8088    6.1440   -2.9016 H   0  0  0  0  0  0  0  0  0  0  0  0
    1.7127    7.1135   -1.4114 H   0  0  0  0  0  0  0  0  0  0  0  0
   -0.8611    3.5179   -2.2480 H   0  0  0  0  0  0  0  0  0  0  0  0
   -0.8516    2.0865   -4.1336 H   0  0  0  0  0  0  0  0  0  0  0  0
    0.3080    0.9784   -3.4099 H   0  0  0  0  0  0  0  0  0  0  0  0
    0.7966    2.6274   -3.8433 H   0  0  0  0  0  0  0  0  0  0  0  0
   -1.7918    0.7448   -1.9973 H   0  0  0  0  0  0  0  0  0  0  0  0
   -2.2488    3.1528   -0.1443 H   0  0  0  0  0  0  0  0  0  0  0  0
   -5.0091    1.6443    1.7224 H   0  0  0  0  0  0  0  0  0  0  0  0
   -4.3479    3.1703    1.1260 H   0  0  0  0  0  0  0  0  0  0  0  0
   -3.3264    2.0898    2.0784 H   0  0  0  0  0  0  0  0  0  0  0  0
   -5.7411    1.1389   -0.6266 H   0  0  0  0  0  0  0  0  0  0  0  0
   -5.0085    2.6244   -1.2388 H   0  0  0  0  0  0  0  0  0  0  0  0
   -4.5817    1.0689   -1.9673 H   0  0  0  0  0  0  0  0  0  0  0  0
   -3.1474   -0.5652   -0.7260 H   0  0  0  0  0  0  0  0  0  0  0  0
   -6.9686   -1.9386    0.6293 H   0  0  0  0  0  0  0  0  0  0  0  0
   -6.1103   -2.1736    2.1921 H   0  0  0  0  0  0  0  0  0  0  0  0
   -6.2311   -3.5127    1.0305 H   0  0  0  0  0  0  0  0  0  0  0  0
  1  2  1  0
  2  3  2  0
  2  4  1  0
  4  5  1  0
  5  6  1  0
  6  7  1  0
  7  8  1  0
  8  9  1  0
  8 10  2  0
  6 11  1  0
 11 12  1  0
 11 13  2  0
 13 14  1  0
 14 15  1  0
 15 16  1  0
 16 17  1  0
 17 18  2  0
 17 19  1  0
 19 20  2  0
 20 21  1  0
 21 22  2  0
 22 23  1  0
 23 24  2  0
 15 25  1  0
 25 26  1  0
 25 27  1  0
 27 28  1  0
 28 29  1  6
 28 30  1  0
 30 31  1  0
 31 32  1  0
 32 33  1  0
 32 34  2  0
 30 35  1  0
 35 36  1  0
 35 37  1  0
 37 38  2  0
 38 39  1  0
 39 40  1  0
 39 41  1  0
 39 42  1  0
 42 43  1  0
 43 44  1  0
 44 45  1  0
 44 46  2  0
 42  5  1  0
 28 14  1  0
 24 19  1  0
  1 47  1  0
  1 48  1  0
  1 49  1  0
  5 50  1  1
  6 51  1  6
  9 52  1  0
  9 53  1  0
  9 54  1  0
 12 55  1  0
 12 56  1  0
 12 57  1  0
 13 58  1  0
 14 59  1  1
 15 60  1  1
 20 61  1  0
 21 62  1  0
 22 63  1  0
 23 64  1  0
 24 65  1  0
 25 66  1  1
 26 67  1  0
 26 68  1  0
 26 69  1  0
 27 70  1  0
 27 71  1  0
 29 72  1  0
 30 73  1  1
 33 74  1  0
 33 75  1  0
 33 76  1  0
 35 77  1  6
 36 78  1  0
 36 79  1  0
 36 80  1  0
 37 81  1  0
 38 82  1  0
 40 83  1  0
 40 84  1  0
 40 85  1  0
 41 86  1  0
 41 87  1  0
 41 88  1  0
 42 89  1  6
 45 90  1  0
 45 91  1  0
 45 92  1  0
M  END
$$$$
