
     RDKit          3D

 55 58  0  0  0  0  0  0  0  0999 V2000
    4.9388   -1.1729    1.7212 C   0  0  0  0  0  0  0  0  0  0  0  0
    3.7161   -1.7584    1.2327 N   0  0  0  0  0  0  0  0  0  0  0  0
    3.4292   -2.0993   -0.0724 C   0  0  0  0  0  0  0  0  0  0  0  0
    4.3465   -1.9208   -1.2455 C   0  0  0  0  0  0  0  0  0  0  0  0
    4.7547   -0.4857   -1.5028 C   0  0  0  0  0  0  0  0  0  0  0  0
    6.1130   -0.1330   -1.5542 C   0  0  0  0  0  0  0  0  0  0  0  0
    6.4955    1.1890   -1.7869 C   0  0  0  0  0  0  0  0  0  0  0  0
    5.5259    2.1739   -1.9796 C   0  0  0  0  0  0  0  0  0  0  0  0
    4.1741    1.8355   -1.9502 C   0  0  0  0  0  0  0  0  0  0  0  0
    3.7893    0.5127   -1.7152 C   0  0  0  0  0  0  0  0  0  0  0  0
    2.2126   -2.6164   -0.1166 N   0  0  0  0  0  0  0  0  0  0  0  0
    1.7017   -2.6196    1.1531 N   0  0  0  0  0  0  0  0  0  0  0  0
    2.5988   -2.0888    1.9490 C   0  0  0  0  0  0  0  0  0  0  0  0
    2.4111   -1.8149    3.6431 S   0  0  0  0  0  0  0  0  0  0  0  0
    0.7253   -2.4242    3.9136 C   0  0  0  0  0  0  0  0  0  0  0  0
   -0.3043   -1.3794    3.5063 C   0  0  0  0  0  0  0  0  0  0  0  0
   -0.7541   -0.5850    4.3334 O   0  0  0  0  0  0  0  0  0  0  0  0
   -0.6534   -1.4546    2.1678 N   0  0  0  0  0  0  0  0  0  0  0  0
   -1.6556   -0.7251    1.4982 C   0  0  0  0  0  0  0  0  0  0  0  0
   -2.5664    0.1170    2.1283 C   0  0  0  0  0  0  0  0  0  0  0  0
   -3.5607    0.7778    1.3855 C   0  0  0  0  0  0  0  0  0  0  0  0
   -3.6876    0.6205   -0.0022 C   0  0  0  0  0  0  0  0  0  0  0  0
   -4.6749    1.2620   -0.7235 N   0  0  0  0  0  0  0  0  0  0  0  0
   -5.3773    2.4444   -0.2048 C   0  0  0  0  0  0  0  0  0  0  0  0
   -5.9582    3.2693   -1.3682 C   0  0  0  0  0  0  0  0  0  0  0  0
   -6.8771    2.5464   -2.1985 O   0  0  0  0  0  0  0  0  0  0  0  0
   -6.6170    1.1359   -2.2348 C   0  0  0  0  0  0  0  0  0  0  0  0
   -5.1366    0.7689   -2.0301 C   0  0  0  0  0  0  0  0  0  0  0  0
   -2.7521   -0.2281   -0.6147 C   0  0  0  0  0  0  0  0  0  0  0  0
   -1.7522   -0.8900    0.1165 C   0  0  0  0  0  0  0  0  0  0  0  0
    5.7847   -1.5514    1.1392 H   0  0  0  0  0  0  0  0  0  0  0  0
    5.0992   -1.4489    2.7648 H   0  0  0  0  0  0  0  0  0  0  0  0
    4.8665   -0.0851    1.6250 H   0  0  0  0  0  0  0  0  0  0  0  0
    5.2332   -2.5520   -1.0939 H   0  0  0  0  0  0  0  0  0  0  0  0
    3.8580   -2.3012   -2.1519 H   0  0  0  0  0  0  0  0  0  0  0  0
    6.8878   -0.8870   -1.4206 H   0  0  0  0  0  0  0  0  0  0  0  0
    7.5512    1.4534   -1.8217 H   0  0  0  0  0  0  0  0  0  0  0  0
    5.8241    3.2020   -2.1648 H   0  0  0  0  0  0  0  0  0  0  0  0
    3.4155    2.6016   -2.1106 H   0  0  0  0  0  0  0  0  0  0  0  0
    2.7266    0.2663   -1.7002 H   0  0  0  0  0  0  0  0  0  0  0  0
    0.5454   -3.3719    3.3924 H   0  0  0  0  0  0  0  0  0  0  0  0
    0.5979   -2.6254    4.9819 H   0  0  0  0  0  0  0  0  0  0  0  0
   -0.0654   -2.0488    1.5790 H   0  0  0  0  0  0  0  0  0  0  0  0
   -2.5484    0.2771    3.2015 H   0  0  0  0  0  0  0  0  0  0  0  0
   -4.2604    1.3998    1.9367 H   0  0  0  0  0  0  0  0  0  0  0  0
   -4.6959    3.0889    0.3601 H   0  0  0  0  0  0  0  0  0  0  0  0
   -6.1882    2.1218    0.4566 H   0  0  0  0  0  0  0  0  0  0  0  0
   -6.4903    4.1455   -0.9817 H   0  0  0  0  0  0  0  0  0  0  0  0
   -5.1506    3.6393   -2.0126 H   0  0  0  0  0  0  0  0  0  0  0  0
   -6.9708    0.7610   -3.2004 H   0  0  0  0  0  0  0  0  0  0  0  0
   -7.2308    0.6651   -1.4577 H   0  0  0  0  0  0  0  0  0  0  0  0
   -4.5290    1.2252   -2.8184 H   0  0  0  0  0  0  0  0  0  0  0  0
   -5.0477   -0.3209   -2.1005 H   0  0  0  0  0  0  0  0  0  0  0  0
   -2.7652   -0.3795   -1.6910 H   0  0  0  0  0  0  0  0  0  0  0  0
   -1.0522   -1.5322   -0.4175 H   0  0  0  0  0  0  0  0  0  0  0  0
  1  2  1  0
  2  3  1  0
  3  4  1  0
  4  5  1  0
  5  6  2  0
  6  7  1  0
  7  8  2  0
  8  9  1  0
  9 10  2  0
  3 11  2  0
 11 12  1  0
 12 13  2  0
 13 14  1  0
 14 15  1  0
 15 16  1  0
 16 17  2  0
 16 18  1  0
 18 19  1  0
 19 20  2  0
 20 21  1  0
 21 22  2  0
 22 23  1  0
 23 24  1  0
 24 25  1  0
 25 26  1  0
 26 27  1  0
 27 28  1  0
 22 29  1  0
 29 30  2  0
 13  2  1  0
 30 19  1  0
 10  5  1  0
 28 23  1  0
  1 31  1  0
  1 32  1  0
  1 33  1  0
  4 34  1  0
  4 35  1  0
  6 36  1  0
  7 37  1  0
  8 38  1  0
  9 39  1  0
 10 40  1  0
 15 41  1  0
 15 42  1  0
 18 43  1  0
 20 44  1  0
 21 45  1  0
 24 46  1  0
 24 47  1  0
 25 48  1  0
 25 49  1  0
 27 50  1  0
 27 51  1  0
 28 52  1  0
 28 53  1  0
 29 54  1  0
 30 55  1  0
M  END
$$$$
