
     RDKit          3D

 50 53  0  0  0  0  0  0  0  0999 V2000
    7.6558    3.0777    0.0081 C   0  0  0  0  0  0  0  0  0  0  0  0
    7.5133    1.6786    0.2177 O   0  0  0  0  0  0  0  0  0  0  0  0
    6.2426    1.1760    0.1915 C   0  0  0  0  0  0  0  0  0  0  0  0
    6.1502   -0.1960    0.4162 C   0  0  0  0  0  0  0  0  0  0  0  0
    4.9063   -0.8373    0.4166 C   0  0  0  0  0  0  0  0  0  0  0  0
    3.7128   -0.1275    0.1964 C   0  0  0  0  0  0  0  0  0  0  0  0
    2.4075   -0.8241    0.2054 C   0  0  0  0  0  0  0  0  0  0  0  0
    1.2187   -0.2061    0.5504 C   0  0  0  0  0  0  0  0  0  0  0  0
    0.0414   -0.9548    0.5115 C   0  0  0  0  0  0  0  0  0  0  0  0
   -1.2070   -0.2234    0.8254 C   0  0  0  0  0  0  0  0  0  0  0  0
   -1.2922    0.3228    1.9164 O   0  0  0  0  0  0  0  0  0  0  0  0
   -2.1218   -0.2112   -0.2097 N   0  0  0  0  0  0  0  0  0  0  0  0
   -3.3930    0.4005   -0.2240 C   0  0  0  0  0  0  0  0  0  0  0  0
   -4.1502    0.2684   -1.3900 C   0  0  0  0  0  0  0  0  0  0  0  0
   -5.4096    0.8631   -1.4876 C   0  0  0  0  0  0  0  0  0  0  0  0
   -5.9440    1.5899   -0.4140 C   0  0  0  0  0  0  0  0  0  0  0  0
   -7.2857    2.2502   -0.5715 C   0  0  0  0  0  0  0  0  0  0  0  0
   -5.2164    1.6767    0.7852 C   0  0  0  0  0  0  0  0  0  0  0  0
   -5.6546    2.4847    1.8486 N   0  0  0  0  0  0  0  0  0  0  0  0
   -3.9262    1.1227    0.8454 C   0  0  0  0  0  0  0  0  0  0  0  0
    0.0530   -2.3260    0.1810 C   0  0  0  0  0  0  0  0  0  0  0  0
   -1.0811   -3.1793    0.1878 C   0  0  0  0  0  0  0  0  0  0  0  0
   -0.9709   -4.5229   -0.1640 C   0  0  0  0  0  0  0  0  0  0  0  0
    0.2685   -5.0350   -0.5182 C   0  0  0  0  0  0  0  0  0  0  0  0
    1.3898   -4.2024   -0.5064 C   0  0  0  0  0  0  0  0  0  0  0  0
    1.3078   -2.8613   -0.1561 C   0  0  0  0  0  0  0  0  0  0  0  0
    2.4372   -2.1331   -0.1526 N   0  0  0  0  0  0  0  0  0  0  0  0
    3.8295    1.2550   -0.0370 C   0  0  0  0  0  0  0  0  0  0  0  0
    5.0760    1.9005   -0.0381 C   0  0  0  0  0  0  0  0  0  0  0  0
    8.7216    3.3180    0.0685 H   0  0  0  0  0  0  0  0  0  0  0  0
    7.3058    3.3649   -0.9889 H   0  0  0  0  0  0  0  0  0  0  0  0
    7.1411    3.6486    0.7881 H   0  0  0  0  0  0  0  0  0  0  0  0
    7.0522   -0.7766    0.5930 H   0  0  0  0  0  0  0  0  0  0  0  0
    4.8744   -1.9111    0.5964 H   0  0  0  0  0  0  0  0  0  0  0  0
    1.1852    0.8349    0.8556 H   0  0  0  0  0  0  0  0  0  0  0  0
   -1.8505   -0.6829   -1.0645 H   0  0  0  0  0  0  0  0  0  0  0  0
   -3.7695   -0.2832   -2.2453 H   0  0  0  0  0  0  0  0  0  0  0  0
   -5.9675    0.7663   -2.4165 H   0  0  0  0  0  0  0  0  0  0  0  0
   -7.2063    3.3260   -0.3843 H   0  0  0  0  0  0  0  0  0  0  0  0
   -7.6809    2.1234   -1.5851 H   0  0  0  0  0  0  0  0  0  0  0  0
   -8.0078    1.8100    0.1235 H   0  0  0  0  0  0  0  0  0  0  0  0
   -5.2139    2.2566    2.7354 H   0  0  0  0  0  0  0  0  0  0  0  0
   -6.6627    2.5523    1.9299 H   0  0  0  0  0  0  0  0  0  0  0  0
   -3.3504    1.2694    1.7534 H   0  0  0  0  0  0  0  0  0  0  0  0
   -2.0591   -2.8078    0.4894 H   0  0  0  0  0  0  0  0  0  0  0  0
   -1.8470   -5.1667   -0.1513 H   0  0  0  0  0  0  0  0  0  0  0  0
    0.3730   -6.0819   -0.7920 H   0  0  0  0  0  0  0  0  0  0  0  0
    2.3610   -4.6151   -0.7726 H   0  0  0  0  0  0  0  0  0  0  0  0
    2.9484    1.8598   -0.2401 H   0  0  0  0  0  0  0  0  0  0  0  0
    5.0948    2.9688   -0.2265 H   0  0  0  0  0  0  0  0  0  0  0  0
  1  2  1  0
  2  3  1  0
  3  4  2  0
  4  5  1  0
  5  6  2  0
  6  7  1  0
  7  8  2  0
  8  9  1  0
  9 10  1  0
 10 11  2  0
 10 12  1  0
 12 13  1  0
 13 14  2  0
 14 15  1  0
 15 16  2  0
 16 17  1  0
 16 18  1  0
 18 19  1  0
 18 20  2  0
  9 21  2  0
 21 22  1  0
 22 23  2  0
 23 24  1  0
 24 25  2  0
 25 26  1  0
 26 27  2  0
  6 28  1  0
 28 29  2  0
 29  3  1  0
 27  7  1  0
 20 13  1  0
 26 21  1  0
  1 30  1  0
  1 31  1  0
  1 32  1  0
  4 33  1  0
  5 34  1  0
  8 35  1  0
 12 36  1  0
 14 37  1  0
 15 38  1  0
 17 39  1  0
 17 40  1  0
 17 41  1  0
 19 42  1  0
 19 43  1  0
 20 44  1  0
 22 45  1  0
 23 46  1  0
 24 47  1  0
 25 48  1  0
 28 49  1  0
 29 50  1  0
M  END
$$$$
