
     RDKit          3D

 59 61  0  0  0  0  0  0  0  0999 V2000
   -8.0338   -1.2278   -1.6529 C   0  0  0  0  0  0  0  0  0  0  0  0
   -6.7503   -1.4694   -1.3548 C   0  0  0  0  0  0  0  0  0  0  0  0
   -5.5081   -0.8132   -1.9693 C   0  0  0  0  0  0  0  0  0  0  0  0
   -5.8157    0.3851   -2.9042 C   0  0  0  0  0  0  0  0  0  0  0  0
   -4.8795   -1.9206   -2.8562 C   0  0  0  0  0  0  0  0  0  0  0  0
   -4.5629   -0.3113   -0.8479 C   0  0  0  0  0  0  0  0  0  0  0  0
   -3.2102   -0.7134   -0.7749 C   0  0  0  0  0  0  0  0  0  0  0  0
   -2.3414   -0.2660    0.2538 C   0  0  0  0  0  0  0  0  0  0  0  0
   -0.8884   -0.7175    0.2591 C   0  0  2  0  0  0  0  0  0  0  0  0
   -0.6103   -1.6551    1.4326 C   0  0  0  0  0  0  0  0  0  0  0  0
    0.8475   -1.9850    1.4274 C   0  0  0  0  0  0  0  0  0  0  0  0
    1.2931   -3.0974    1.6974 O   0  0  0  0  0  0  0  0  0  0  0  0
    1.7653   -0.8617    1.1684 C   0  0  0  0  0  0  0  0  0  0  0  0
    1.2369    0.2978    0.6032 C   0  0  0  0  0  0  0  0  0  0  0  0
    2.0618    1.4041    0.4169 C   0  0  0  0  0  0  0  0  0  0  0  0
    3.4015    1.3562    0.8008 C   0  0  0  0  0  0  0  0  0  0  0  0
    4.0984    2.5085    0.5837 O   0  0  0  0  0  0  0  0  0  0  0  0
    3.9677    0.1998    1.3689 C   0  0  0  0  0  0  0  0  0  0  0  0
    5.4151    0.1458    1.8210 C   0  0  0  0  0  0  0  0  0  0  0  0
    6.3954    0.3524    0.6895 C   0  0  0  0  0  0  0  0  0  0  0  0
    7.4482    1.1967    0.6406 C   0  0  0  0  0  0  0  0  0  0  0  0
    8.3260    1.2397   -0.5995 C   0  0  0  0  0  0  0  0  0  0  0  0
    7.8848    2.1127    1.7502 C   0  0  0  0  0  0  0  0  0  0  0  0
    3.1214   -0.9122    1.5473 C   0  0  0  0  0  0  0  0  0  0  0  0
    3.6484   -2.0410    2.1380 O   0  0  0  0  0  0  0  0  0  0  0  0
   -0.0666    0.4659    0.2416 O   0  0  0  0  0  0  0  0  0  0  0  0
   -2.8576    0.5923    1.2414 C   0  0  0  0  0  0  0  0  0  0  0  0
   -2.0518    1.0145    2.2759 O   0  0  0  0  0  0  0  0  0  0  0  0
   -4.1780    1.0215    1.1949 C   0  0  0  0  0  0  0  0  0  0  0  0
   -5.0114    0.5810    0.1508 C   0  0  0  0  0  0  0  0  0  0  0  0
   -6.2997    1.0380    0.1215 O   0  0  0  0  0  0  0  0  0  0  0  0
   -8.3338   -0.5124   -2.4141 H   0  0  0  0  0  0  0  0  0  0  0  0
   -8.8267   -1.7377   -1.1072 H   0  0  0  0  0  0  0  0  0  0  0  0
   -6.5451   -2.1908   -0.5584 H   0  0  0  0  0  0  0  0  0  0  0  0
   -4.8901    0.8169   -3.2972 H   0  0  0  0  0  0  0  0  0  0  0  0
   -6.3517    1.1914   -2.3957 H   0  0  0  0  0  0  0  0  0  0  0  0
   -6.4250    0.0879   -3.7654 H   0  0  0  0  0  0  0  0  0  0  0  0
   -5.5894   -2.2765   -3.6100 H   0  0  0  0  0  0  0  0  0  0  0  0
   -4.0035   -1.5572   -3.4025 H   0  0  0  0  0  0  0  0  0  0  0  0
   -4.5677   -2.7912   -2.2697 H   0  0  0  0  0  0  0  0  0  0  0  0
   -2.8005   -1.3856   -1.5257 H   0  0  0  0  0  0  0  0  0  0  0  0
   -0.6784   -1.2543   -0.6815 H   0  0  0  0  0  0  0  0  0  0  0  0
   -0.8343   -1.2108    2.4096 H   0  0  0  0  0  0  0  0  0  0  0  0
   -1.1937   -2.5795    1.3335 H   0  0  0  0  0  0  0  0  0  0  0  0
    1.6593    2.3162   -0.0170 H   0  0  0  0  0  0  0  0  0  0  0  0
    4.9989    2.4253    0.9569 H   0  0  0  0  0  0  0  0  0  0  0  0
    5.6538   -0.8355    2.2689 H   0  0  0  0  0  0  0  0  0  0  0  0
    5.5352    0.8819    2.6273 H   0  0  0  0  0  0  0  0  0  0  0  0
    6.2012   -0.2943   -0.1839 H   0  0  0  0  0  0  0  0  0  0  0  0
    9.3718    1.0614   -0.3400 H   0  0  0  0  0  0  0  0  0  0  0  0
    8.2517    2.2173   -1.0907 H   0  0  0  0  0  0  0  0  0  0  0  0
    8.0473    0.4606   -1.3260 H   0  0  0  0  0  0  0  0  0  0  0  0
    7.3497    1.9550    2.6827 H   0  0  0  0  0  0  0  0  0  0  0  0
    7.7435    3.1601    1.4686 H   0  0  0  0  0  0  0  0  0  0  0  0
    8.9447    1.9536    1.9568 H   0  0  0  0  0  0  0  0  0  0  0  0
    3.0055   -2.7743    2.0070 H   0  0  0  0  0  0  0  0  0  0  0  0
   -2.5540    1.6178    2.8553 H   0  0  0  0  0  0  0  0  0  0  0  0
   -4.5628    1.6950    1.9661 H   0  0  0  0  0  0  0  0  0  0  0  0
   -6.4519    1.6395    0.8690 H   0  0  0  0  0  0  0  0  0  0  0  0
  1  2  2  0
  2  3  1  0
  3  4  1  0
  3  5  1  0
  3  6  1  0
  6  7  2  0
  7  8  1  0
  8  9  1  0
  9 10  1  0
 10 11  1  0
 11 12  2  0
 11 13  1  0
 13 14  2  0
 14 15  1  0
 15 16  2  0
 16 17  1  0
 16 18  1  0
 18 19  1  0
 19 20  1  0
 20 21  2  3
 21 22  1  0
 21 23  1  0
 18 24  2  0
 24 25  1  0
 14 26  1  0
  8 27  2  0
 27 28  1  0
 27 29  1  0
 29 30  2  0
 30 31  1  0
 30  6  1  0
 26  9  1  0
 24 13  1  0
  1 32  1  0
  1 33  1  0
  2 34  1  0
  4 35  1  0
  4 36  1  0
  4 37  1  0
  5 38  1  0
  5 39  1  0
  5 40  1  0
  7 41  1  0
  9 42  1  6
 10 43  1  0
 10 44  1  0
 15 45  1  0
 17 46  1  0
 19 47  1  0
 19 48  1  0
 20 49  1  0
 22 50  1  0
 22 51  1  0
 22 52  1  0
 23 53  1  0
 23 54  1  0
 23 55  1  0
 25 56  1  0
 28 57  1  0
 29 58  1  0
 31 59  1  0
M  END
$$$$
