
     RDKit          3D

 56 59  0  0  0  0  0  0  0  0999 V2000
    9.7112    0.1470    1.5191 C   0  0  0  0  0  0  0  0  0  0  0  0
    8.6973    0.6577    0.6626 O   0  0  0  0  0  0  0  0  0  0  0  0
    7.4044    0.3366    0.9716 C   0  0  0  0  0  0  0  0  0  0  0  0
    6.9922   -0.4890    2.0210 C   0  0  0  0  0  0  0  0  0  0  0  0
    5.6314   -0.7398    2.2268 C   0  0  0  0  0  0  0  0  0  0  0  0
    4.6867   -0.1628    1.3753 C   0  0  0  0  0  0  0  0  0  0  0  0
    2.9561   -0.4749    1.6161 S   0  0  0  0  0  6  0  0  0  0  0  0
    2.2893    0.8066    1.6502 O   0  0  0  0  0  0  0  0  0  0  0  0
    2.8080   -1.4382    2.6867 O   0  0  0  0  0  0  0  0  0  0  0  0
    2.5257   -1.2559    0.1818 N   0  0  0  0  0  0  0  0  0  0  0  0
    3.1376   -2.5764   -0.0803 C   0  0  0  0  0  0  0  0  0  0  0  0
    1.9584   -3.5214   -0.1214 C   0  0  0  0  0  0  0  0  0  0  0  0
    0.9027   -2.7098   -0.6375 O   0  0  0  0  0  0  0  0  0  0  0  0
    1.0617   -1.4374    0.0268 C   0  0  0  0  0  0  0  0  0  0  0  0
    0.4552   -0.3305   -0.8574 C   0  0  0  0  0  0  0  0  0  0  0  0
   -0.9438   -0.5480   -1.1838 N   0  0  0  0  0  0  0  0  0  0  0  0
   -1.9331   -0.4455   -0.2355 C   0  0  0  0  0  0  0  0  0  0  0  0
   -1.7853   -0.0574    0.9145 O   0  0  0  0  0  0  0  0  0  0  0  0
   -3.3249   -0.9004   -0.7311 C   0  0  0  0  0  0  0  0  0  0  0  0
   -3.4587   -1.3479   -1.8611 O   0  0  0  0  0  0  0  0  0  0  0  0
   -4.3164   -0.7388    0.2065 N   0  0  0  0  0  0  0  0  0  0  0  0
   -5.7076   -0.9436   -0.0977 C   0  0  0  0  0  0  0  0  0  0  0  0
   -6.3828    0.3642   -0.4221 C   0  0  0  0  0  0  0  0  0  0  0  0
   -7.0209    1.1119    0.5950 C   0  0  0  0  0  0  0  0  0  0  0  0
   -7.6301    2.3386    0.3115 C   0  0  0  0  0  0  0  0  0  0  0  0
   -7.5795    2.7946   -0.9875 C   0  0  0  0  0  0  0  0  0  0  0  0
   -6.9536    2.0808   -1.9816 C   0  0  0  0  0  0  0  0  0  0  0  0
   -6.3449    0.8689   -1.7332 C   0  0  0  0  0  0  0  0  0  0  0  0
   -7.0125    2.7084   -3.1865 O   0  0  0  0  0  0  0  0  0  0  0  0
   -7.7448    3.9004   -2.8356 C   0  0  0  0  0  0  0  0  0  0  0  0
   -8.1125    3.9602   -1.4417 O   0  0  0  0  0  0  0  0  0  0  0  0
    5.0857    0.6694    0.3281 C   0  0  0  0  0  0  0  0  0  0  0  0
    6.4457    0.9118    0.1299 C   0  0  0  0  0  0  0  0  0  0  0  0
   10.6749    0.5122    1.1511 H   0  0  0  0  0  0  0  0  0  0  0  0
    9.7367   -0.9473    1.4901 H   0  0  0  0  0  0  0  0  0  0  0  0
    9.5852    0.5133    2.5434 H   0  0  0  0  0  0  0  0  0  0  0  0
    7.7039   -0.9503    2.6983 H   0  0  0  0  0  0  0  0  0  0  0  0
    5.3222   -1.3787    3.0513 H   0  0  0  0  0  0  0  0  0  0  0  0
    3.6265   -2.5231   -1.0594 H   0  0  0  0  0  0  0  0  0  0  0  0
    3.8828   -2.8901    0.6544 H   0  0  0  0  0  0  0  0  0  0  0  0
    2.1270   -4.3842   -0.7709 H   0  0  0  0  0  0  0  0  0  0  0  0
    1.6796   -3.8720    0.8788 H   0  0  0  0  0  0  0  0  0  0  0  0
    0.5476   -1.5089    0.9923 H   0  0  0  0  0  0  0  0  0  0  0  0
    0.9853   -0.2780   -1.8151 H   0  0  0  0  0  0  0  0  0  0  0  0
    0.5437    0.6439   -0.3662 H   0  0  0  0  0  0  0  0  0  0  0  0
   -1.1876   -1.0536   -2.0320 H   0  0  0  0  0  0  0  0  0  0  0  0
   -4.0524   -0.2572    1.0614 H   0  0  0  0  0  0  0  0  0  0  0  0
   -6.1728   -1.4055    0.7800 H   0  0  0  0  0  0  0  0  0  0  0  0
   -5.8183   -1.6459   -0.9319 H   0  0  0  0  0  0  0  0  0  0  0  0
   -7.0425    0.7367    1.6165 H   0  0  0  0  0  0  0  0  0  0  0  0
   -8.1225    2.9153    1.0862 H   0  0  0  0  0  0  0  0  0  0  0  0
   -5.8473    0.3284   -2.5329 H   0  0  0  0  0  0  0  0  0  0  0  0
   -7.1268    4.7742   -3.0727 H   0  0  0  0  0  0  0  0  0  0  0  0
   -8.6578    3.9416   -3.4406 H   0  0  0  0  0  0  0  0  0  0  0  0
    4.3502    1.1296   -0.3275 H   0  0  0  0  0  0  0  0  0  0  0  0
    6.7647    1.5598   -0.6837 H   0  0  0  0  0  0  0  0  0  0  0  0
  1  2  1  0
  2  3  1  0
  3  4  2  0
  4  5  1  0
  5  6  2  0
  6  7  1  0
  7  8  2  0
  7  9  2  0
  7 10  1  0
 10 11  1  0
 11 12  1  0
 12 13  1  0
 13 14  1  0
 14 15  1  0
 15 16  1  0
 16 17  1  0
 17 18  2  0
 17 19  1  0
 19 20  2  0
 19 21  1  0
 21 22  1  0
 22 23  1  0
 23 24  2  0
 24 25  1  0
 25 26  2  0
 26 27  1  0
 27 28  2  0
 27 29  1  0
 29 30  1  0
 30 31  1  0
  6 32  1  0
 32 33  2  0
 33  3  1  0
 14 10  1  0
 28 23  1  0
 31 26  1  0
  1 34  1  0
  1 35  1  0
  1 36  1  0
  4 37  1  0
  5 38  1  0
 11 39  1  0
 11 40  1  0
 12 41  1  0
 12 42  1  0
 14 43  1  0
 15 44  1  0
 15 45  1  0
 16 46  1  0
 21 47  1  0
 22 48  1  0
 22 49  1  0
 24 50  1  0
 25 51  1  0
 28 52  1  0
 30 53  1  0
 30 54  1  0
 32 55  1  0
 33 56  1  0
M  END
$$$$
