
     RDKit          3D

 42 44  0  0  0  0  0  0  0  0999 V2000
   -5.7603    0.5646    2.2099 C   0  0  0  0  0  0  0  0  0  0  0  0
   -4.5563    1.2713    1.9406 O   0  0  0  0  0  0  0  0  0  0  0  0
   -3.8659    0.9155    0.8151 C   0  0  0  0  0  0  0  0  0  0  0  0
   -2.7012    1.6565    0.5882 C   0  0  0  0  0  0  0  0  0  0  0  0
   -1.8981    1.4017   -0.5248 C   0  0  0  0  0  0  0  0  0  0  0  0
   -2.2563    0.3811   -1.4071 C   0  0  0  0  0  0  0  0  0  0  0  0
   -1.2510    0.0547   -2.8376 S   0  0  0  0  0  6  0  0  0  0  0  0
   -0.5357    1.2671   -3.1703 O   0  0  0  0  0  0  0  0  0  0  0  0
   -2.0895   -0.6093   -3.8150 O   0  0  0  0  0  0  0  0  0  0  0  0
   -0.1648   -1.1180   -2.2951 N   0  0  0  0  0  0  0  0  0  0  0  0
    0.6352   -0.8810   -1.1390 C   0  0  0  0  0  0  0  0  0  0  0  0
    1.5610    0.1700   -1.1419 C   0  0  0  0  0  0  0  0  0  0  0  0
    2.3478    0.4460   -0.0153 C   0  0  0  0  0  0  0  0  0  0  0  0
    3.4225    1.8708   -0.0876 S   0  0  0  0  0  0  0  0  0  0  0  0
    4.9989    1.1621    0.1012 C   0  0  0  0  0  0  0  0  0  0  0  0
    5.3450    0.4292    1.2088 N   0  0  0  0  0  0  0  0  0  0  0  0
    6.5979    0.1160    0.9708 C   0  0  0  0  0  0  0  0  0  0  0  0
    6.9823    0.6501   -0.2189 N   0  0  0  0  0  0  0  0  0  0  0  0
    5.9782    1.3324   -0.7899 N   0  0  0  0  0  0  0  0  0  0  0  0
    2.1885   -0.3595    1.1172 C   0  0  0  0  0  0  0  0  0  0  0  0
    2.9011   -0.1845    2.2715 O   0  0  0  0  0  0  0  0  0  0  0  0
    1.2688   -1.4084    1.1281 C   0  0  0  0  0  0  0  0  0  0  0  0
    0.4845   -1.6876    0.0000 C   0  0  0  0  0  0  0  0  0  0  0  0
   -0.4830   -2.8358    0.0510 C   0  0  0  0  0  0  0  0  0  0  0  0
   -3.4281   -0.3531   -1.2032 C   0  0  0  0  0  0  0  0  0  0  0  0
   -4.2287   -0.0874   -0.0872 C   0  0  0  0  0  0  0  0  0  0  0  0
   -5.5642   -0.5001    2.3748 H   0  0  0  0  0  0  0  0  0  0  0  0
   -6.4930    0.7131    1.4096 H   0  0  0  0  0  0  0  0  0  0  0  0
   -6.1875    0.9708    3.1318 H   0  0  0  0  0  0  0  0  0  0  0  0
   -2.4205    2.4441    1.2845 H   0  0  0  0  0  0  0  0  0  0  0  0
   -1.0031    1.9975   -0.6896 H   0  0  0  0  0  0  0  0  0  0  0  0
   -0.5015   -2.0624   -2.4690 H   0  0  0  0  0  0  0  0  0  0  0  0
    1.6750    0.7812   -2.0358 H   0  0  0  0  0  0  0  0  0  0  0  0
    7.2535   -0.4701    1.5994 H   0  0  0  0  0  0  0  0  0  0  0  0
    7.8799    0.5977   -0.6883 H   0  0  0  0  0  0  0  0  0  0  0  0
    3.7480    0.2528    2.0398 H   0  0  0  0  0  0  0  0  0  0  0  0
    1.1744   -2.0090    2.0307 H   0  0  0  0  0  0  0  0  0  0  0  0
   -0.4820   -3.3209    1.0330 H   0  0  0  0  0  0  0  0  0  0  0  0
   -0.2106   -3.5932   -0.6910 H   0  0  0  0  0  0  0  0  0  0  0  0
   -1.5024   -2.4889   -0.1400 H   0  0  0  0  0  0  0  0  0  0  0  0
   -3.7281   -1.1283   -1.9050 H   0  0  0  0  0  0  0  0  0  0  0  0
   -5.1307   -0.6761    0.0456 H   0  0  0  0  0  0  0  0  0  0  0  0
  1  2  1  0
  2  3  1  0
  3  4  2  0
  4  5  1  0
  5  6  2  0
  6  7  1  0
  7  8  2  0
  7  9  2  0
  7 10  1  0
 10 11  1  0
 11 12  2  0
 12 13  1  0
 13 14  1  0
 14 15  1  0
 15 16  1  0
 16 17  2  0
 17 18  1  0
 18 19  1  0
 13 20  2  0
 20 21  1  0
 20 22  1  0
 22 23  2  0
 23 24  1  0
  6 25  1  0
 25 26  2  0
 26  3  1  0
 23 11  1  0
 19 15  2  0
  1 27  1  0
  1 28  1  0
  1 29  1  0
  4 30  1  0
  5 31  1  0
 10 32  1  0
 12 33  1  0
 17 34  1  0
 18 35  1  0
 21 36  1  0
 22 37  1  0
 24 38  1  0
 24 39  1  0
 24 40  1  0
 25 41  1  0
 26 42  1  0
M  END
$$$$
