
     RDKit          3D

 52 55  0  0  0  0  0  0  0  0999 V2000
    5.8083    2.6544    4.9018 C   0  0  0  0  0  0  0  0  0  0  0  0
    4.8467    3.0520    3.9320 O   0  0  0  0  0  0  0  0  0  0  0  0
    4.2270    2.0531    3.2342 C   0  0  0  0  0  0  0  0  0  0  0  0
    4.4669    0.6868    3.3649 C   0  0  0  0  0  0  0  0  0  0  0  0
    3.7551   -0.2369    2.5851 C   0  0  0  0  0  0  0  0  0  0  0  0
    2.7977    0.1943    1.6667 C   0  0  0  0  0  0  0  0  0  0  0  0
    2.0438   -0.6669    0.8471 N   0  0  0  0  0  0  0  0  0  0  0  0
    2.0305   -2.0498    0.8485 C   0  0  0  0  0  0  0  0  0  0  0  0
    2.7180   -2.7791    1.5601 O   0  0  0  0  0  0  0  0  0  0  0  0
    1.0958   -2.6546   -0.1902 C   0  0  0  0  0  0  0  0  0  0  0  0
   -0.6357   -2.2024    0.1159 S   0  0  0  0  0  0  0  0  0  0  0  0
   -0.8498   -0.9112   -1.0605 C   0  0  0  0  0  0  0  0  0  0  0  0
    0.1576   -0.0998   -1.2064 N   0  0  0  0  0  0  0  0  0  0  0  0
   -0.0229    0.9352   -2.0776 C   0  0  0  0  0  0  0  0  0  0  0  0
   -1.1376    1.1777   -2.7649 C   0  0  0  0  0  0  0  0  0  0  0  0
   -2.2918    0.2678   -2.6260 C   0  0  0  0  0  0  0  0  0  0  0  0
   -3.3041    0.4284   -3.3066 O   0  0  0  0  0  0  0  0  0  0  0  0
   -2.0717   -0.7844   -1.7253 N   0  0  0  0  0  0  0  0  0  0  0  0
   -3.1549   -1.6947   -1.5317 C   0  0  0  0  0  0  0  0  0  0  0  0
   -3.0368   -3.0266   -1.9568 C   0  0  0  0  0  0  0  0  0  0  0  0
   -4.1056   -3.9099   -1.7997 C   0  0  0  0  0  0  0  0  0  0  0  0
   -5.2946   -3.4704   -1.2190 C   0  0  0  0  0  0  0  0  0  0  0  0
   -5.4244   -2.1450   -0.7984 C   0  0  0  0  0  0  0  0  0  0  0  0
   -4.3648   -1.2493   -0.9679 C   0  0  0  0  0  0  0  0  0  0  0  0
   -4.4140    0.0439   -0.5079 O   0  0  0  0  0  0  0  0  0  0  0  0
   -5.6296    0.7194   -0.8291 C   0  0  0  0  0  0  0  0  0  0  0  0
   -1.0891    2.5492   -3.7959 S   0  0  0  0  0  0  0  0  0  0  0  0
    0.7172    2.7202   -3.5794 C   0  0  0  0  0  0  0  0  0  0  0  0
    1.0781    1.9261   -2.3197 C   0  0  0  0  0  0  0  0  0  0  0  0
    2.5609    1.5663    1.5387 C   0  0  0  0  0  0  0  0  0  0  0  0
    3.2702    2.4865    2.3163 C   0  0  0  0  0  0  0  0  0  0  0  0
    5.3524    2.0335    5.6807 H   0  0  0  0  0  0  0  0  0  0  0  0
    6.6540    2.1419    4.4307 H   0  0  0  0  0  0  0  0  0  0  0  0
    6.1934    3.5597    5.3816 H   0  0  0  0  0  0  0  0  0  0  0  0
    5.2005    0.2971    4.0632 H   0  0  0  0  0  0  0  0  0  0  0  0
    3.9784   -1.2903    2.7224 H   0  0  0  0  0  0  0  0  0  0  0  0
    1.3874   -0.2215    0.2061 H   0  0  0  0  0  0  0  0  0  0  0  0
    1.1665   -3.7448   -0.1108 H   0  0  0  0  0  0  0  0  0  0  0  0
    1.4318   -2.3847   -1.1965 H   0  0  0  0  0  0  0  0  0  0  0  0
   -2.1243   -3.3817   -2.4285 H   0  0  0  0  0  0  0  0  0  0  0  0
   -4.0115   -4.9418   -2.1299 H   0  0  0  0  0  0  0  0  0  0  0  0
   -6.1222   -4.1635   -1.0864 H   0  0  0  0  0  0  0  0  0  0  0  0
   -6.3488   -1.8352   -0.3206 H   0  0  0  0  0  0  0  0  0  0  0  0
   -5.9629    0.5044   -1.8513 H   0  0  0  0  0  0  0  0  0  0  0  0
   -5.4419    1.7953   -0.7569 H   0  0  0  0  0  0  0  0  0  0  0  0
   -6.4100    0.4674   -0.1044 H   0  0  0  0  0  0  0  0  0  0  0  0
    1.2134    2.2938   -4.4580 H   0  0  0  0  0  0  0  0  0  0  0  0
    1.0039    3.7721   -3.4935 H   0  0  0  0  0  0  0  0  0  0  0  0
    2.0454    1.4296   -2.4516 H   0  0  0  0  0  0  0  0  0  0  0  0
    1.1636    2.5986   -1.4586 H   0  0  0  0  0  0  0  0  0  0  0  0
    1.8142    1.9397    0.8441 H   0  0  0  0  0  0  0  0  0  0  0  0
    3.0702    3.5500    2.2099 H   0  0  0  0  0  0  0  0  0  0  0  0
  1  2  1  0
  2  3  1  0
  3  4  2  0
  4  5  1  0
  5  6  2  0
  6  7  1  0
  7  8  1  0
  8  9  2  0
  8 10  1  0
 10 11  1  0
 11 12  1  0
 12 13  2  0
 13 14  1  0
 14 15  2  0
 15 16  1  0
 16 17  2  0
 16 18  1  0
 18 19  1  0
 19 20  2  0
 20 21  1  0
 21 22  2  0
 22 23  1  0
 23 24  2  0
 24 25  1  0
 25 26  1  0
 15 27  1  0
 27 28  1  0
 28 29  1  0
  6 30  1  0
 30 31  2  0
 31  3  1  0
 18 12  1  0
 24 19  1  0
 29 14  1  0
  1 32  1  0
  1 33  1  0
  1 34  1  0
  4 35  1  0
  5 36  1  0
  7 37  1  0
 10 38  1  0
 10 39  1  0
 20 40  1  0
 21 41  1  0
 22 42  1  0
 23 43  1  0
 26 44  1  0
 26 45  1  0
 26 46  1  0
 28 47  1  0
 28 48  1  0
 29 49  1  0
 29 50  1  0
 30 51  1  0
 31 52  1  0
M  END
$$$$
