
     RDKit          3D

 39 41  0  0  0  0  0  0  0  0999 V2000
   -4.4536    2.3141   -0.6744 C   0  0  0  0  0  0  0  0  0  0  0  0
   -3.3453    1.5354   -0.2321 O   0  0  0  0  0  0  0  0  0  0  0  0
   -3.5923    0.2076    0.0144 C   0  0  0  0  0  0  0  0  0  0  0  0
   -4.6768   -0.5017   -0.5182 C   0  0  0  0  0  0  0  0  0  0  0  0
   -4.8817   -1.8549   -0.1992 C   0  0  0  0  0  0  0  0  0  0  0  0
   -6.0639   -2.5860   -0.7689 C   0  0  0  0  0  0  0  0  0  0  0  0
   -3.9960   -2.4952    0.6731 C   0  0  0  0  0  0  0  0  0  0  0  0
   -2.9044   -1.8028    1.1954 C   0  0  0  0  0  0  0  0  0  0  0  0
   -2.6851   -0.4695    0.8454 C   0  0  0  0  0  0  0  0  0  0  0  0
   -1.5819    0.1121    1.4149 O   0  0  0  0  0  0  0  0  0  0  0  0
   -0.7167    0.7234    0.4639 C   0  0  0  0  0  0  0  0  0  0  0  0
    0.7525    0.3699    0.7330 C   0  0  0  0  0  0  0  0  0  0  0  0
    1.0940   -0.4090    1.6172 O   0  0  0  0  0  0  0  0  0  0  0  0
    1.5934    1.0222   -0.1489 N   0  0  0  0  0  0  0  0  0  0  0  0
    2.9563    0.8916   -0.2421 C   0  0  0  0  0  0  0  0  0  0  0  0
    3.6538    1.5582   -1.1360 N   0  0  0  0  0  0  0  0  0  0  0  0
    5.0004    1.2584   -1.0736 N   0  0  0  0  0  0  0  0  0  0  0  0
    5.2527    0.3839   -0.1260 C   0  0  0  0  0  0  0  0  0  0  0  0
    6.6906   -0.1534    0.1500 C   0  0  0  0  0  0  0  0  0  0  0  0
    7.4202    0.2900    1.3921 C   0  0  0  0  0  0  0  0  0  0  0  0
    7.8648    0.7894    0.0486 C   0  0  0  0  0  0  0  0  0  0  0  0
    3.8827   -0.1407    0.7468 S   0  0  0  0  0  0  0  0  0  0  0  0
   -4.1719    3.3708   -0.6016 H   0  0  0  0  0  0  0  0  0  0  0  0
   -4.6794    2.1006   -1.7229 H   0  0  0  0  0  0  0  0  0  0  0  0
   -5.3337    2.1594   -0.0397 H   0  0  0  0  0  0  0  0  0  0  0  0
   -5.3787   -0.0227   -1.1956 H   0  0  0  0  0  0  0  0  0  0  0  0
   -6.9916   -2.1937   -0.3390 H   0  0  0  0  0  0  0  0  0  0  0  0
   -6.0129   -3.6573   -0.5538 H   0  0  0  0  0  0  0  0  0  0  0  0
   -6.0953   -2.4670   -1.8577 H   0  0  0  0  0  0  0  0  0  0  0  0
   -4.1435   -3.5366    0.9485 H   0  0  0  0  0  0  0  0  0  0  0  0
   -2.2154   -2.3032    1.8714 H   0  0  0  0  0  0  0  0  0  0  0  0
   -0.8246    1.8115    0.5480 H   0  0  0  0  0  0  0  0  0  0  0  0
   -0.9292    0.4099   -0.5678 H   0  0  0  0  0  0  0  0  0  0  0  0
    1.2089    1.6648   -0.8301 H   0  0  0  0  0  0  0  0  0  0  0  0
    6.8548   -1.1682   -0.1969 H   0  0  0  0  0  0  0  0  0  0  0  0
    8.0446   -0.4382    1.8958 H   0  0  0  0  0  0  0  0  0  0  0  0
    6.9393    0.9980    2.0571 H   0  0  0  0  0  0  0  0  0  0  0  0
    8.7909    0.4014   -0.3619 H   0  0  0  0  0  0  0  0  0  0  0  0
    7.6736    1.8273   -0.2019 H   0  0  0  0  0  0  0  0  0  0  0  0
  1  2  1  0
  2  3  1  0
  3  4  2  0
  4  5  1  0
  5  6  1  0
  5  7  2  0
  7  8  1  0
  8  9  2  0
  9 10  1  0
 10 11  1  0
 11 12  1  0
 12 13  2  0
 12 14  1  0
 14 15  1  0
 15 16  2  0
 16 17  1  0
 17 18  2  0
 18 19  1  0
 19 20  1  0
 20 21  1  0
 18 22  1  0
  9  3  1  0
 22 15  1  0
 21 19  1  0
  1 23  1  0
  1 24  1  0
  1 25  1  0
  4 26  1  0
  6 27  1  0
  6 28  1  0
  6 29  1  0
  7 30  1  0
  8 31  1  0
 11 32  1  0
 11 33  1  0
 14 34  1  0
 19 35  1  0
 20 36  1  0
 20 37  1  0
 21 38  1  0
 21 39  1  0
M  END
$$$$
