
     RDKit          3D

 41 43  0  0  0  0  0  0  0  0999 V2000
   -1.8844   -2.1462   -1.7203 O   0  0  0  0  0  0  0  0  0  0  0  0
   -1.6130   -1.2060   -0.9820 C   0  0  0  0  0  0  0  0  0  0  0  0
   -2.5138   -0.3547   -0.3721 N   0  0  0  0  0  0  0  0  0  0  0  0
   -3.9269   -0.3218   -0.5052 C   0  0  0  0  0  0  0  0  0  0  0  0
   -4.6113   -1.1729   -1.3836 C   0  0  0  0  0  0  0  0  0  0  0  0
   -6.0045   -1.1237   -1.4995 C   0  0  0  0  0  0  0  0  0  0  0  0
   -6.7248   -0.2168   -0.7365 C   0  0  0  0  0  0  0  0  0  0  0  0
   -8.0824   -0.1376   -0.8206 O   0  0  0  0  0  0  0  0  0  0  0  0
   -6.0784    0.6444    0.1392 C   0  0  0  0  0  0  0  0  0  0  0  0
   -4.6798    0.6017    0.2614 C   0  0  0  0  0  0  0  0  0  0  0  0
   -3.9978    1.5373    1.1969 C   0  0  0  0  0  0  0  0  0  0  0  0
   -2.7915    1.6164    1.3614 O   0  0  0  0  0  0  0  0  0  0  0  0
   -4.8422    2.3269    1.8827 O   0  0  0  0  0  0  0  0  0  0  0  0
   -0.1754   -0.9533   -0.6621 C   0  0  0  0  0  0  0  0  0  0  0  0
    0.3162    0.3216   -0.3598 C   0  0  0  0  0  0  0  0  0  0  0  0
    1.6759    0.5062   -0.0724 C   0  0  0  0  0  0  0  0  0  0  0  0
    2.5609   -0.5734   -0.0923 C   0  0  0  0  0  0  0  0  0  0  0  0
    3.9359   -0.4708    0.1837 N   0  0  0  0  0  0  0  0  0  0  0  0
    4.6654    0.6550    0.5239 C   0  0  0  0  0  0  0  0  0  0  0  0
    4.2123    1.7881    0.6463 O   0  0  0  0  0  0  0  0  0  0  0  0
    6.0732    0.3622    0.7327 C   0  0  0  0  0  0  0  0  0  0  0  0
    7.1320    1.1811    1.0774 C   0  0  0  0  0  0  0  0  0  0  0  0
    8.2814    0.3580    1.1423 C   0  0  0  0  0  0  0  0  0  0  0  0
    7.8594   -0.9134    0.8343 C   0  0  0  0  0  0  0  0  0  0  0  0
    6.5245   -0.9263    0.5841 O   0  0  0  0  0  0  0  0  0  0  0  0
    2.0685   -1.8446   -0.4111 C   0  0  0  0  0  0  0  0  0  0  0  0
    0.7127   -2.0338   -0.6981 C   0  0  0  0  0  0  0  0  0  0  0  0
   -2.1377    0.3055    0.3093 H   0  0  0  0  0  0  0  0  0  0  0  0
   -4.0858   -1.8936   -2.0029 H   0  0  0  0  0  0  0  0  0  0  0  0
   -6.4984   -1.8006   -2.1904 H   0  0  0  0  0  0  0  0  0  0  0  0
   -8.3960   -0.7946   -1.4646 H   0  0  0  0  0  0  0  0  0  0  0  0
   -6.6731    1.3452    0.7194 H   0  0  0  0  0  0  0  0  0  0  0  0
   -4.2646    2.8789    2.4503 H   0  0  0  0  0  0  0  0  0  0  0  0
   -0.3301    1.1957   -0.3629 H   0  0  0  0  0  0  0  0  0  0  0  0
    2.0098    1.5141    0.1558 H   0  0  0  0  0  0  0  0  0  0  0  0
    4.4829   -1.3240    0.1323 H   0  0  0  0  0  0  0  0  0  0  0  0
    7.0667    2.2460    1.2575 H   0  0  0  0  0  0  0  0  0  0  0  0
    9.2927    0.6547    1.3836 H   0  0  0  0  0  0  0  0  0  0  0  0
    8.3604   -1.8686    0.7547 H   0  0  0  0  0  0  0  0  0  0  0  0
    2.7299   -2.7070   -0.4442 H   0  0  0  0  0  0  0  0  0  0  0  0
    0.3512   -3.0295   -0.9486 H   0  0  0  0  0  0  0  0  0  0  0  0
  1  2  2  0
  2  3  1  0
  3  4  1  0
  4  5  2  0
  5  6  1  0
  6  7  2  0
  7  8  1  0
  7  9  1  0
  9 10  2  0
 10 11  1  0
 11 12  2  0
 11 13  1  0
  2 14  1  0
 14 15  2  0
 15 16  1  0
 16 17  2  0
 17 18  1  0
 18 19  1  0
 19 20  2  0
 19 21  1  0
 21 22  2  0
 22 23  1  0
 23 24  2  0
 24 25  1  0
 17 26  1  0
 26 27  2  0
 10  4  1  0
 27 14  1  0
 25 21  1  0
  3 28  1  0
  5 29  1  0
  6 30  1  0
  8 31  1  0
  9 32  1  0
 13 33  1  0
 15 34  1  0
 16 35  1  0
 18 36  1  0
 22 37  1  0
 23 38  1  0
 24 39  1  0
 26 40  1  0
 27 41  1  0
M  END
$$$$
