
     RDKit          3D

 58 59  0  0  0  0  0  0  0  0999 V2000
    8.2751    1.6280   -2.5619 C   0  0  0  0  0  0  0  0  0  0  0  0
    8.5038    0.1308   -2.4263 C   0  0  0  0  0  0  0  0  0  0  0  0
    7.2165   -0.6900   -2.4881 C   0  0  0  0  0  0  0  0  0  0  0  0
    6.2682   -0.4313   -1.3189 C   0  0  0  0  0  0  0  0  0  0  0  0
    5.1657   -1.3312   -1.4462 O   0  0  0  0  0  0  0  0  0  0  0  0
    4.2079   -1.2887   -0.4718 C   0  0  0  0  0  0  0  0  0  0  0  0
    4.1802   -0.4143    0.6158 C   0  0  0  0  0  0  0  0  0  0  0  0
    3.1339   -0.4769    1.5456 C   0  0  0  0  0  0  0  0  0  0  0  0
    2.1042   -1.4126    1.3873 C   0  0  0  0  0  0  0  0  0  0  0  0
    0.9757   -1.5168    2.3537 C   0  0  0  0  0  0  0  0  0  0  0  0
    0.3751   -2.5752    2.4921 O   0  0  0  0  0  0  0  0  0  0  0  0
    0.6425   -0.3620    3.0321 N   0  0  0  0  0  0  0  0  0  0  0  0
   -0.5737   -0.3122    3.8330 C   0  0  0  0  0  0  0  0  0  0  0  0
   -1.7428    0.2108    3.0081 C   0  0  0  0  0  0  0  0  0  0  0  0
   -1.6496    0.7293    1.9000 O   0  0  0  0  0  0  0  0  0  0  0  0
   -2.9072    0.0914    3.7090 O   0  0  0  0  0  0  0  0  0  0  0  0
   -4.0622    0.5379    2.9878 C   0  0  0  0  0  0  0  0  0  0  0  0
   -4.4202   -0.4082    1.8386 C   0  0  0  0  0  0  0  0  0  0  0  0
   -4.0835   -1.5967    1.8758 O   0  0  0  0  0  0  0  0  0  0  0  0
   -5.1256    0.1540    0.6374 C   0  0  0  0  0  0  0  0  0  0  0  0
   -4.9975   -0.4325   -0.5748 C   0  0  0  0  0  0  0  0  0  0  0  0
   -4.2923   -1.6159   -0.7650 N   0  0  0  0  0  0  0  0  0  0  0  0
   -5.6071    0.1524   -1.6821 N   0  0  0  0  0  0  0  0  0  0  0  0
   -5.5627   -0.5473   -2.9664 C   0  0  0  0  0  0  0  0  0  0  0  0
   -6.2879    1.3656   -1.6421 C   0  0  0  0  0  0  0  0  0  0  0  0
   -6.8212    1.8614   -2.6364 O   0  0  0  0  0  0  0  0  0  0  0  0
   -6.3463    1.9856   -0.4067 N   0  0  0  0  0  0  0  0  0  0  0  0
   -7.0937    3.2260   -0.3097 C   0  0  0  0  0  0  0  0  0  0  0  0
   -5.9445    1.3790    0.7601 C   0  0  0  0  0  0  0  0  0  0  0  0
   -6.2424    1.8059    1.8759 O   0  0  0  0  0  0  0  0  0  0  0  0
    2.1406   -2.2978    0.3059 C   0  0  0  0  0  0  0  0  0  0  0  0
    3.1849   -2.2290   -0.6197 C   0  0  0  0  0  0  0  0  0  0  0  0
    9.2357    2.1521   -2.6014 H   0  0  0  0  0  0  0  0  0  0  0  0
    7.7245    1.8606   -3.4790 H   0  0  0  0  0  0  0  0  0  0  0  0
    7.7154    2.0270   -1.7109 H   0  0  0  0  0  0  0  0  0  0  0  0
    9.1642   -0.1959   -3.2384 H   0  0  0  0  0  0  0  0  0  0  0  0
    9.0318   -0.0738   -1.4876 H   0  0  0  0  0  0  0  0  0  0  0  0
    6.6917   -0.5010   -3.4333 H   0  0  0  0  0  0  0  0  0  0  0  0
    7.4753   -1.7566   -2.5046 H   0  0  0  0  0  0  0  0  0  0  0  0
    5.9046    0.6016   -1.3546 H   0  0  0  0  0  0  0  0  0  0  0  0
    6.7952   -0.6143   -0.3747 H   0  0  0  0  0  0  0  0  0  0  0  0
    4.9599    0.3232    0.7749 H   0  0  0  0  0  0  0  0  0  0  0  0
    3.1543    0.1932    2.4003 H   0  0  0  0  0  0  0  0  0  0  0  0
    0.9404    0.5140    2.6217 H   0  0  0  0  0  0  0  0  0  0  0  0
   -0.8135   -1.3066    4.2202 H   0  0  0  0  0  0  0  0  0  0  0  0
   -0.3908    0.3827    4.6574 H   0  0  0  0  0  0  0  0  0  0  0  0
   -4.8975    0.5454    3.6947 H   0  0  0  0  0  0  0  0  0  0  0  0
   -3.8881    1.5595    2.6345 H   0  0  0  0  0  0  0  0  0  0  0  0
   -3.5709   -1.5236   -1.4749 H   0  0  0  0  0  0  0  0  0  0  0  0
   -3.8759   -1.9764    0.1050 H   0  0  0  0  0  0  0  0  0  0  0  0
   -6.1745   -0.0582   -3.7293 H   0  0  0  0  0  0  0  0  0  0  0  0
   -4.5290   -0.5696   -3.3261 H   0  0  0  0  0  0  0  0  0  0  0  0
   -5.9408   -1.5675   -2.8423 H   0  0  0  0  0  0  0  0  0  0  0  0
   -8.1548    2.9826   -0.1959 H   0  0  0  0  0  0  0  0  0  0  0  0
   -6.9629    3.8314   -1.2117 H   0  0  0  0  0  0  0  0  0  0  0  0
   -6.7681    3.8111    0.5553 H   0  0  0  0  0  0  0  0  0  0  0  0
    1.3567   -3.0419    0.1787 H   0  0  0  0  0  0  0  0  0  0  0  0
    3.2037   -2.9186   -1.4605 H   0  0  0  0  0  0  0  0  0  0  0  0
  1  2  1  0
  2  3  1  0
  3  4  1  0
  4  5  1  0
  5  6  1  0
  6  7  2  0
  7  8  1  0
  8  9  2  0
  9 10  1  0
 10 11  2  0
 10 12  1  0
 12 13  1  0
 13 14  1  0
 14 15  2  0
 14 16  1  0
 16 17  1  0
 17 18  1  0
 18 19  2  0
 18 20  1  0
 20 21  2  0
 21 22  1  0
 21 23  1  0
 23 24  1  0
 23 25  1  0
 25 26  2  0
 25 27  1  0
 27 28  1  0
 27 29  1  0
 29 30  2  0
  9 31  1  0
 31 32  2  0
 32  6  1  0
 29 20  1  0
  1 33  1  0
  1 34  1  0
  1 35  1  0
  2 36  1  0
  2 37  1  0
  3 38  1  0
  3 39  1  0
  4 40  1  0
  4 41  1  0
  7 42  1  0
  8 43  1  0
 12 44  1  0
 13 45  1  0
 13 46  1  0
 17 47  1  0
 17 48  1  0
 22 49  1  0
 22 50  1  0
 24 51  1  0
 24 52  1  0
 24 53  1  0
 28 54  1  0
 28 55  1  0
 28 56  1  0
 31 57  1  0
 32 58  1  0
M  END
$$$$
