
     RDKit          3D

 48 50  0  0  0  0  0  0  0  0999 V2000
    9.2050    1.2917   -0.2013 C   0  0  0  0  0  0  0  0  0  0  0  0
    7.7280    1.4367   -0.2436 C   0  0  0  0  0  0  0  0  0  0  0  0
    7.0236    2.6095   -0.4380 C   0  0  0  0  0  0  0  0  0  0  0  0
    5.3415    2.2895   -0.4058 S   0  0  0  0  0  0  0  0  0  0  0  0
    5.6680    0.6420   -0.1361 C   0  0  0  0  0  0  0  0  0  0  0  0
    4.6912   -0.3088    0.0057 N   0  0  0  0  0  0  0  0  0  0  0  0
    3.3281   -0.1173   -0.0278 C   0  0  0  0  0  0  0  0  0  0  0  0
    2.7297    0.9387   -0.1956 O   0  0  0  0  0  0  0  0  0  0  0  0
    2.5833   -1.4260    0.1551 C   0  0  0  0  0  0  0  0  0  0  0  0
    1.0814   -1.1943    0.2373 C   0  0  0  0  0  0  0  0  0  0  0  0
    0.4026   -2.4842    0.3848 N   0  0  0  0  0  0  0  0  0  0  0  0
   -0.7364   -2.7135    1.5878 S   0  0  0  0  0  6  0  0  0  0  0  0
   -1.3127   -4.0207    1.3739 O   0  0  0  0  0  0  0  0  0  0  0  0
   -0.1280   -2.3378    2.8442 O   0  0  0  0  0  0  0  0  0  0  0  0
   -1.9749   -1.5090    1.1840 C   0  0  0  0  0  0  0  0  0  0  0  0
   -2.1981   -0.4185    2.0226 C   0  0  0  0  0  0  0  0  0  0  0  0
   -3.1816    0.5200    1.6895 C   0  0  0  0  0  0  0  0  0  0  0  0
   -3.9519    0.3795    0.5218 C   0  0  0  0  0  0  0  0  0  0  0  0
   -3.7116   -0.7231   -0.2981 C   0  0  0  0  0  0  0  0  0  0  0  0
   -2.7330   -1.6746    0.0264 C   0  0  0  0  0  0  0  0  0  0  0  0
   -4.4928   -0.8860   -1.5328 C   0  0  0  0  0  0  0  0  0  0  0  0
   -4.2075   -1.8039   -2.2985 O   0  0  0  0  0  0  0  0  0  0  0  0
   -5.5021    0.0353   -1.7582 N   0  0  0  0  0  0  0  0  0  0  0  0
   -6.3012   -0.1165   -2.9604 C   0  0  0  0  0  0  0  0  0  0  0  0
   -5.7295    1.1711   -0.9899 C   0  0  0  0  0  0  0  0  0  0  0  0
   -6.5767    2.0062   -1.3155 O   0  0  0  0  0  0  0  0  0  0  0  0
   -4.9503    1.3203    0.1547 N   0  0  0  0  0  0  0  0  0  0  0  0
   -5.1781    2.4925    0.9915 C   0  0  0  0  0  0  0  0  0  0  0  0
    6.9366    0.3115   -0.0706 N   0  0  0  0  0  0  0  0  0  0  0  0
    9.4963    0.2374   -0.2422 H   0  0  0  0  0  0  0  0  0  0  0  0
    9.6676    1.8041   -1.0507 H   0  0  0  0  0  0  0  0  0  0  0  0
    9.6022    1.7212    0.7235 H   0  0  0  0  0  0  0  0  0  0  0  0
    7.4043    3.6087   -0.5930 H   0  0  0  0  0  0  0  0  0  0  0  0
    5.0692   -1.2330    0.1630 H   0  0  0  0  0  0  0  0  0  0  0  0
    2.8206   -2.0828   -0.6904 H   0  0  0  0  0  0  0  0  0  0  0  0
    2.9373   -1.9122    1.0722 H   0  0  0  0  0  0  0  0  0  0  0  0
    0.8584   -0.5296    1.0790 H   0  0  0  0  0  0  0  0  0  0  0  0
    0.7095   -0.7089   -0.6722 H   0  0  0  0  0  0  0  0  0  0  0  0
    0.3252   -3.1138   -0.4128 H   0  0  0  0  0  0  0  0  0  0  0  0
   -1.6170   -0.2878    2.9342 H   0  0  0  0  0  0  0  0  0  0  0  0
   -3.3230    1.3559    2.3696 H   0  0  0  0  0  0  0  0  0  0  0  0
   -2.5701   -2.5359   -0.6195 H   0  0  0  0  0  0  0  0  0  0  0  0
   -7.3476    0.1278   -2.7509 H   0  0  0  0  0  0  0  0  0  0  0  0
   -6.2526   -1.1345   -3.3568 H   0  0  0  0  0  0  0  0  0  0  0  0
   -5.9232    0.5798   -3.7162 H   0  0  0  0  0  0  0  0  0  0  0  0
   -5.4901    2.1701    1.9901 H   0  0  0  0  0  0  0  0  0  0  0  0
   -5.9623    3.1417    0.5928 H   0  0  0  0  0  0  0  0  0  0  0  0
   -4.2571    3.0813    1.0505 H   0  0  0  0  0  0  0  0  0  0  0  0
  1  2  1  0
  2  3  2  0
  3  4  1  0
  4  5  1  0
  5  6  1  0
  6  7  1  0
  7  8  2  0
  7  9  1  0
  9 10  1  0
 10 11  1  0
 11 12  1  0
 12 13  2  0
 12 14  2  0
 12 15  1  0
 15 16  2  0
 16 17  1  0
 17 18  2  0
 18 19  1  0
 19 20  2  0
 19 21  1  0
 21 22  2  0
 21 23  1  0
 23 24  1  0
 23 25  1  0
 25 26  2  0
 25 27  1  0
 27 28  1  0
  5 29  2  0
 29  2  1  0
 20 15  1  0
 27 18  1  0
  1 30  1  0
  1 31  1  0
  1 32  1  0
  3 33  1  0
  6 34  1  0
  9 35  1  0
  9 36  1  0
 10 37  1  0
 10 38  1  0
 11 39  1  0
 16 40  1  0
 17 41  1  0
 20 42  1  0
 24 43  1  0
 24 44  1  0
 24 45  1  0
 28 46  1  0
 28 47  1  0
 28 48  1  0
M  END
$$$$
