
     RDKit          3D

 57 59  0  0  0  0  0  0  0  0999 V2000
   -3.8697    0.5647    2.0011 C   0  0  0  0  0  0  0  0  0  0  0  0
   -2.8019   -0.1186    2.7013 N   0  0  0  0  0  0  0  0  0  0  0  0
   -1.8192   -0.8822    2.1416 C   0  0  0  0  0  0  0  0  0  0  0  0
   -1.1776   -2.1118    3.0845 S   0  0  0  0  0  0  0  0  0  0  0  0
   -1.4464   -0.5873    0.8390 N   0  0  0  0  0  0  0  0  0  0  0  0
   -0.9972   -1.6637   -0.0663 C   0  0  0  0  0  0  0  0  0  0  0  0
   -1.4694   -1.5202   -1.5238 C   0  0  0  0  0  0  0  0  0  0  0  0
   -2.9666   -1.3896   -1.6983 C   0  0  0  0  0  0  0  0  0  0  0  0
   -3.4969   -0.3318   -2.4496 C   0  0  0  0  0  0  0  0  0  0  0  0
   -4.8754   -0.2061   -2.6236 C   0  0  0  0  0  0  0  0  0  0  0  0
   -5.7407   -1.1379   -2.0524 C   0  0  0  0  0  0  0  0  0  0  0  0
   -5.2348   -2.2012   -1.2977 C   0  0  0  0  0  0  0  0  0  0  0  0
   -6.1617   -3.2272   -0.7142 C   0  0  0  0  0  0  0  0  0  0  0  0
   -3.8475   -2.3295   -1.1415 C   0  0  0  0  0  0  0  0  0  0  0  0
   -1.0568    0.7998    0.5181 C   0  0  0  0  0  0  0  0  0  0  0  0
    0.4211    1.0144    0.7058 C   0  0  0  0  0  0  0  0  0  0  0  0
    1.3226    0.8853   -0.2858 C   0  0  0  0  0  0  0  0  0  0  0  0
    2.7502    1.1009   -0.0472 C   0  0  0  0  0  0  0  0  0  0  0  0
    3.6944    0.9377   -1.0650 C   0  0  0  0  0  0  0  0  0  0  0  0
    5.0555    1.1418   -0.8031 C   0  0  0  0  0  0  0  0  0  0  0  0
    6.0527    1.0052   -1.7376 O   0  0  0  0  0  0  0  0  0  0  0  0
    5.6863    0.5839   -3.0433 C   0  0  0  0  0  0  0  0  0  0  0  0
    5.4729    1.5155    0.4934 C   0  0  0  0  0  0  0  0  0  0  0  0
    6.8241    1.6985    0.6589 O   0  0  0  0  0  0  0  0  0  0  0  0
    7.2906    2.0622    1.9504 C   0  0  0  0  0  0  0  0  0  0  0  0
    4.5243    1.6772    1.5086 C   0  0  0  0  0  0  0  0  0  0  0  0
    3.1734    1.4691    1.2317 C   0  0  0  0  0  0  0  0  0  0  0  0
    2.2196    1.6433    2.2395 N   0  0  0  0  0  0  0  0  0  0  0  0
    0.8719    1.4812    2.0541 C   0  0  0  0  0  0  0  0  0  0  0  0
    0.0842    1.7390    2.9586 O   0  0  0  0  0  0  0  0  0  0  0  0
   -4.8204    0.1820    2.3829 H   0  0  0  0  0  0  0  0  0  0  0  0
   -3.8005    1.6315    2.2259 H   0  0  0  0  0  0  0  0  0  0  0  0
   -3.8278    0.3967    0.9234 H   0  0  0  0  0  0  0  0  0  0  0  0
   -2.9801   -0.3475    3.6721 H   0  0  0  0  0  0  0  0  0  0  0  0
   -1.3608   -2.6254    0.3122 H   0  0  0  0  0  0  0  0  0  0  0  0
    0.0967   -1.7144   -0.0299 H   0  0  0  0  0  0  0  0  0  0  0  0
   -1.1383   -2.3987   -2.0923 H   0  0  0  0  0  0  0  0  0  0  0  0
   -0.9681   -0.6622   -1.9861 H   0  0  0  0  0  0  0  0  0  0  0  0
   -2.8405    0.4040   -2.9076 H   0  0  0  0  0  0  0  0  0  0  0  0
   -5.2764    0.6170   -3.2099 H   0  0  0  0  0  0  0  0  0  0  0  0
   -6.8125   -1.0319   -2.2027 H   0  0  0  0  0  0  0  0  0  0  0  0
   -6.3429   -4.0242   -1.4422 H   0  0  0  0  0  0  0  0  0  0  0  0
   -7.1198   -2.7744   -0.4369 H   0  0  0  0  0  0  0  0  0  0  0  0
   -5.7368   -3.6679    0.1942 H   0  0  0  0  0  0  0  0  0  0  0  0
   -3.4558   -3.1707   -0.5723 H   0  0  0  0  0  0  0  0  0  0  0  0
   -1.6054    1.5155    1.1365 H   0  0  0  0  0  0  0  0  0  0  0  0
   -1.3553    1.0147   -0.5130 H   0  0  0  0  0  0  0  0  0  0  0  0
    1.0176    0.5915   -1.2838 H   0  0  0  0  0  0  0  0  0  0  0  0
    3.3516    0.6518   -2.0531 H   0  0  0  0  0  0  0  0  0  0  0  0
    5.2158   -0.4048   -3.0229 H   0  0  0  0  0  0  0  0  0  0  0  0
    6.6014    0.5037   -3.6381 H   0  0  0  0  0  0  0  0  0  0  0  0
    5.0386    1.3219   -3.5279 H   0  0  0  0  0  0  0  0  0  0  0  0
    7.0658    1.2825    2.6855 H   0  0  0  0  0  0  0  0  0  0  0  0
    6.8820    3.0296    2.2604 H   0  0  0  0  0  0  0  0  0  0  0  0
    8.3788    2.1643    1.8966 H   0  0  0  0  0  0  0  0  0  0  0  0
    4.8151    1.9633    2.5123 H   0  0  0  0  0  0  0  0  0  0  0  0
    2.4962    1.9394    3.1656 H   0  0  0  0  0  0  0  0  0  0  0  0
  1  2  1  0
  2  3  1  0
  3  4  2  0
  3  5  1  0
  5  6  1  0
  6  7  1  0
  7  8  1  0
  8  9  2  0
  9 10  1  0
 10 11  2  0
 11 12  1  0
 12 13  1  0
 12 14  2  0
  5 15  1  0
 15 16  1  0
 16 17  2  0
 17 18  1  0
 18 19  2  0
 19 20  1  0
 20 21  1  0
 21 22  1  0
 20 23  2  0
 23 24  1  0
 24 25  1  0
 23 26  1  0
 26 27  2  0
 27 28  1  0
 28 29  1  0
 29 30  2  0
 14  8  1  0
 29 16  1  0
 27 18  1  0
  1 31  1  0
  1 32  1  0
  1 33  1  0
  2 34  1  0
  6 35  1  0
  6 36  1  0
  7 37  1  0
  7 38  1  0
  9 39  1  0
 10 40  1  0
 11 41  1  0
 13 42  1  0
 13 43  1  0
 13 44  1  0
 14 45  1  0
 15 46  1  0
 15 47  1  0
 17 48  1  0
 19 49  1  0
 22 50  1  0
 22 51  1  0
 22 52  1  0
 25 53  1  0
 25 54  1  0
 25 55  1  0
 26 56  1  0
 28 57  1  0
M  END
$$$$
