
     RDKit          3D

 37 39  0  0  0  0  0  0  0  0999 V2000
   -1.5638    4.5933    0.2706 C   0  0  0  0  0  0  0  0  0  0  0  0
   -0.2647    4.0891   -0.8892 S   0  0  0  0  0  0  0  0  0  0  0  0
   -0.1833    2.3366   -0.5462 C   0  0  0  0  0  0  0  0  0  0  0  0
    0.8094    1.5928   -1.1470 C   0  0  0  0  0  0  0  0  0  0  0  0
    0.8475    0.2395   -0.8704 C   0  0  0  0  0  0  0  0  0  0  0  0
    1.8288   -0.5729   -1.4749 N   0  0  0  0  0  0  0  0  0  0  0  0
    1.6241   -2.0192   -1.2257 C   0  0  0  0  0  0  0  0  0  0  0  0
    2.6768   -2.8322   -1.9943 C   0  0  0  0  0  0  0  0  0  0  0  0
    4.0102   -2.4418   -1.6277 O   0  0  0  0  0  0  0  0  0  0  0  0
    4.2130   -1.0500   -1.9161 C   0  0  0  0  0  0  0  0  0  0  0  0
    3.2152   -0.1599   -1.1554 C   0  0  0  0  0  0  0  0  0  0  0  0
   -0.0758   -0.3179   -0.0701 N   0  0  0  0  0  0  0  0  0  0  0  0
   -0.9992    0.4860    0.4896 C   0  0  0  0  0  0  0  0  0  0  0  0
   -2.0146   -0.1537    1.3341 C   0  0  0  0  0  0  0  0  0  0  0  0
   -2.6522   -1.3261    0.8710 C   0  0  0  0  0  0  0  0  0  0  0  0
   -3.6384   -1.9721    1.6213 C   0  0  0  0  0  0  0  0  0  0  0  0
   -4.0100   -1.4628    2.8598 C   0  0  0  0  0  0  0  0  0  0  0  0
   -3.3893   -0.3145    3.3482 C   0  0  0  0  0  0  0  0  0  0  0  0
   -2.3977    0.3342    2.5970 C   0  0  0  0  0  0  0  0  0  0  0  0
   -1.6494    1.7117    3.3362 Cl  0  0  0  0  0  0  0  0  0  0  0  0
   -1.0997    1.8027    0.2713 N   0  0  0  0  0  0  0  0  0  0  0  0
   -1.7235    5.6708    0.1755 H   0  0  0  0  0  0  0  0  0  0  0  0
   -2.5071    4.0869    0.0473 H   0  0  0  0  0  0  0  0  0  0  0  0
   -1.2641    4.3815    1.3007 H   0  0  0  0  0  0  0  0  0  0  0  0
    1.5123    2.0496   -1.8305 H   0  0  0  0  0  0  0  0  0  0  0  0
    0.6284   -2.3343   -1.5606 H   0  0  0  0  0  0  0  0  0  0  0  0
    1.7263   -2.2331   -0.1534 H   0  0  0  0  0  0  0  0  0  0  0  0
    2.5676   -3.8962   -1.7614 H   0  0  0  0  0  0  0  0  0  0  0  0
    2.5554   -2.7117   -3.0775 H   0  0  0  0  0  0  0  0  0  0  0  0
    4.1306   -0.8955   -2.9986 H   0  0  0  0  0  0  0  0  0  0  0  0
    5.2358   -0.7961   -1.6195 H   0  0  0  0  0  0  0  0  0  0  0  0
    3.4051    0.8813   -1.4371 H   0  0  0  0  0  0  0  0  0  0  0  0
    3.3864   -0.2641   -0.0759 H   0  0  0  0  0  0  0  0  0  0  0  0
   -2.3764   -1.7397   -0.0991 H   0  0  0  0  0  0  0  0  0  0  0  0
   -4.1129   -2.8711    1.2349 H   0  0  0  0  0  0  0  0  0  0  0  0
   -4.7757   -1.9611    3.4486 H   0  0  0  0  0  0  0  0  0  0  0  0
   -3.6751    0.0699    4.3247 H   0  0  0  0  0  0  0  0  0  0  0  0
  1  2  1  0
  2  3  1  0
  3  4  2  0
  4  5  1  0
  5  6  1  0
  6  7  1  0
  7  8  1  0
  8  9  1  0
  9 10  1  0
 10 11  1  0
  5 12  2  0
 12 13  1  0
 13 14  1  0
 14 15  2  0
 15 16  1  0
 16 17  2  0
 17 18  1  0
 18 19  2  0
 19 20  1  0
 13 21  2  0
 21  3  1  0
 11  6  1  0
 19 14  1  0
  1 22  1  0
  1 23  1  0
  1 24  1  0
  4 25  1  0
  7 26  1  0
  7 27  1  0
  8 28  1  0
  8 29  1  0
 10 30  1  0
 10 31  1  0
 11 32  1  0
 11 33  1  0
 15 34  1  0
 16 35  1  0
 17 36  1  0
 18 37  1  0
M  END
$$$$
