
     RDKit          3D

 23 23  0  0  0  0  0  0  0  0999 V2000
   -1.7669    2.7597    0.0231 O   0  0  0  0  0  0  0  0  0  0  0  0
   -1.0391    1.8283   -0.2687 C   0  0  0  0  0  0  0  0  0  0  0  0
    0.2081    2.0281   -0.7322 O   0  0  0  0  0  0  0  0  0  0  0  0
   -1.4362    0.4061   -0.2834 C   0  0  0  0  0  0  0  0  0  0  0  0
   -2.7264    0.1192   -0.7576 C   0  0  0  0  0  0  0  0  0  0  0  0
   -3.1867   -1.1967   -0.7913 C   0  0  0  0  0  0  0  0  0  0  0  0
   -2.3686   -2.2278   -0.3370 C   0  0  0  0  0  0  0  0  0  0  0  0
   -1.0917   -1.9428    0.1534 C   0  0  0  0  0  0  0  0  0  0  0  0
   -0.6038   -0.6287    0.1810 C   0  0  0  0  0  0  0  0  0  0  0  0
    0.6664   -0.4099    0.7480 N   0  0  0  0  0  0  0  0  0  0  0  0
    1.6524   -0.3419   -0.0901 C   0  0  0  0  0  0  0  0  0  0  0  0
    3.0374   -0.0556    0.3854 C   0  0  0  0  0  0  0  0  0  0  0  0
    3.4791    1.1544   -0.3592 N   0  0  0  0  0  4  0  0  0  0  0  0
    3.9175    0.9774   -1.5042 O   0  0  0  0  0  0  0  0  0  0  0  0
    3.3873    2.2475    0.2139 O   0  0  0  0  0  1  0  0  0  0  0  0
    0.3361    2.9993   -0.6676 H   0  0  0  0  0  0  0  0  0  0  0  0
   -3.3745    0.9248   -1.0984 H   0  0  0  0  0  0  0  0  0  0  0  0
   -4.1862   -1.4145   -1.1605 H   0  0  0  0  0  0  0  0  0  0  0  0
   -2.7291   -3.2537   -0.3478 H   0  0  0  0  0  0  0  0  0  0  0  0
   -0.4736   -2.7521    0.5349 H   0  0  0  0  0  0  0  0  0  0  0  0
    1.5112   -0.5004   -1.1769 H   0  0  0  0  0  0  0  0  0  0  0  0
    3.7106   -0.8749    0.1225 H   0  0  0  0  0  0  0  0  0  0  0  0
    3.0767    0.1543    1.4566 H   0  0  0  0  0  0  0  0  0  0  0  0
  1  2  2  0
  2  3  1  0
  2  4  1  0
  4  5  2  0
  5  6  1  0
  6  7  2  0
  7  8  1  0
  8  9  2  0
  9 10  1  0
 10 11  2  3
 11 12  1  0
 12 13  1  0
 13 14  2  0
 13 15  1  0
  9  4  1  0
  3 16  1  0
  5 17  1  0
  6 18  1  0
  7 19  1  0
  8 20  1  0
 11 21  1  0
 12 22  1  0
 12 23  1  0
M  CHG  2  13   1  15  -1
M  END
$$$$
