
     RDKit          3D

 39 42  0  0  0  0  0  0  0  0999 V2000
   -4.8363   -0.3177    2.3055 O   0  0  0  0  0  0  0  0  0  0  0  0
   -5.7385    0.3531    1.8326 C   0  0  0  0  0  0  0  0  0  0  0  0
   -6.0425    1.5670    2.3230 O   0  0  0  0  0  0  0  0  0  0  0  0
   -6.5837   -0.0279    0.6567 C   0  0  0  0  0  0  0  0  0  0  0  0
   -6.0228    0.5622   -0.6317 C   0  0  0  0  0  0  0  0  0  0  0  0
   -4.7332   -0.0211   -1.0213 N   0  0  0  0  0  0  0  0  0  0  0  0
   -3.5669    0.6244   -0.6420 C   0  0  0  0  0  0  0  0  0  0  0  0
   -3.5070    1.6816   -0.0280 O   0  0  0  0  0  0  0  0  0  0  0  0
   -2.3713   -0.1411   -1.0942 C   0  0  0  0  0  0  0  0  0  0  0  0
   -1.1434    0.3049   -0.8009 C   0  0  0  0  0  0  0  0  0  0  0  0
    0.1043   -0.2919   -1.1387 C   0  0  0  0  0  0  0  0  0  0  0  0
    0.4848   -1.2368   -2.0811 C   0  0  0  0  0  0  0  0  0  0  0  0
    1.8831   -1.4369   -1.9653 C   0  0  0  0  0  0  0  0  0  0  0  0
    2.3340   -0.5994   -0.9626 C   0  0  0  0  0  0  0  0  0  0  0  0
    3.6640   -0.4021   -0.4439 C   0  0  0  0  0  0  0  0  0  0  0  0
    3.9158    0.4633    0.5151 N   0  0  0  0  0  0  0  0  0  0  0  0
    5.2643    0.4541    0.8248 C   0  0  0  0  0  0  0  0  0  0  0  0
    5.8933    1.2507    1.8028 C   0  0  0  0  0  0  0  0  0  0  0  0
    7.2717    1.1379    2.0115 C   0  0  0  0  0  0  0  0  0  0  0  0
    8.0270    0.2436    1.2595 C   0  0  0  0  0  0  0  0  0  0  0  0
    7.4269   -0.5580    0.2832 C   0  0  0  0  0  0  0  0  0  0  0  0
    6.0418   -0.4359    0.0825 C   0  0  0  0  0  0  0  0  0  0  0  0
    5.0260   -1.2711   -1.0270 S   0  0  0  0  0  0  0  0  0  0  0  0
    1.2527    0.0910   -0.4805 O   0  0  0  0  0  0  0  0  0  0  0  0
   -2.8723   -1.5503   -1.9322 S   0  0  0  0  0  0  0  0  0  0  0  0
   -4.5812   -1.2023   -1.7157 C   0  0  0  0  0  0  0  0  0  0  0  0
   -5.7720   -2.2088   -2.3092 S   0  0  0  0  0  0  0  0  0  0  0  0
   -5.3656    1.7263    3.0156 H   0  0  0  0  0  0  0  0  0  0  0  0
   -7.6045    0.3315    0.8303 H   0  0  0  0  0  0  0  0  0  0  0  0
   -6.6406   -1.1208    0.6190 H   0  0  0  0  0  0  0  0  0  0  0  0
   -6.7402    0.4006   -1.4432 H   0  0  0  0  0  0  0  0  0  0  0  0
   -5.9066    1.6476   -0.5272 H   0  0  0  0  0  0  0  0  0  0  0  0
   -1.0553    1.2168   -0.2105 H   0  0  0  0  0  0  0  0  0  0  0  0
   -0.1593   -1.7330   -2.7924 H   0  0  0  0  0  0  0  0  0  0  0  0
    2.4856   -2.1128   -2.5563 H   0  0  0  0  0  0  0  0  0  0  0  0
    5.2990    1.9467    2.3868 H   0  0  0  0  0  0  0  0  0  0  0  0
    7.7524    1.7546    2.7674 H   0  0  0  0  0  0  0  0  0  0  0  0
    9.0986    0.1656    1.4322 H   0  0  0  0  0  0  0  0  0  0  0  0
    8.0178   -1.2555   -0.3027 H   0  0  0  0  0  0  0  0  0  0  0  0
  1  2  2  0
  2  3  1  0
  2  4  1  0
  4  5  1  0
  5  6  1  0
  6  7  1  0
  7  8  2  0
  7  9  1  0
  9 10  2  3
 10 11  1  0
 11 12  2  0
 12 13  1  0
 13 14  2  0
 14 15  1  0
 15 16  2  0
 16 17  1  0
 17 18  2  0
 18 19  1  0
 19 20  2  0
 20 21  1  0
 21 22  2  0
 22 23  1  0
 14 24  1  0
  9 25  1  0
 25 26  1  0
 26 27  2  0
 26  6  1  0
 24 11  1  0
 23 15  1  0
 22 17  1  0
  3 28  1  0
  4 29  1  0
  4 30  1  0
  5 31  1  0
  5 32  1  0
 10 33  1  0
 12 34  1  0
 13 35  1  0
 18 36  1  0
 19 37  1  0
 20 38  1  0
 21 39  1  0
M  END
$$$$
