
     RDKit          3D

 57 62  0  0  0  0  0  0  0  0999 V2000
    8.1402   -3.0685    0.2560 C   0  0  0  0  0  0  0  0  0  0  0  0
    6.8245   -3.5680    0.0462 O   0  0  0  0  0  0  0  0  0  0  0  0
    5.8128   -2.6549   -0.0014 C   0  0  0  0  0  0  0  0  0  0  0  0
    5.9242   -1.2866    0.2397 C   0  0  0  0  0  0  0  0  0  0  0  0
    4.7973   -0.4583    0.1536 C   0  0  0  0  0  0  0  0  0  0  0  0
    3.5513   -0.9912   -0.1842 C   0  0  0  0  0  0  0  0  0  0  0  0
    2.2836   -0.0716   -0.3079 C   0  0  0  0  0  0  0  0  0  0  0  0
    1.0082   -0.4788   -0.6857 C   0  0  0  0  0  0  0  0  0  0  0  0
    0.1599    0.6271   -0.6827 N   0  0  0  0  0  4  0  0  0  0  0  0
   -1.2693    0.6475   -1.0313 C   0  0  0  0  0  0  0  0  0  0  0  0
   -2.1500    0.8839    0.2041 C   0  0  0  0  0  0  0  0  0  0  0  0
   -1.7238    1.4345    1.2172 O   0  0  0  0  0  0  0  0  0  0  0  0
   -3.4518    0.4062    0.0352 N   0  0  0  0  0  0  0  0  0  0  0  0
   -3.8611   -0.7933    0.7133 C   0  0  0  0  0  0  0  0  0  0  0  0
   -3.0693   -1.3042    1.7661 C   0  0  0  0  0  0  0  0  0  0  0  0
   -3.4044   -2.4846    2.4367 C   0  0  0  0  0  0  0  0  0  0  0  0
   -4.5357   -3.1925    2.0650 C   0  0  0  0  0  0  0  0  0  0  0  0
   -5.3347   -2.7101    1.0307 C   0  0  0  0  0  0  0  0  0  0  0  0
   -5.0055   -1.5215    0.3539 C   0  0  0  0  0  0  0  0  0  0  0  0
   -6.0558   -1.0903   -1.0061 S   0  0  0  0  0  0  0  0  0  0  0  0
   -5.5470    0.5726   -1.3171 C   0  0  0  0  0  0  0  0  0  0  0  0
   -6.3829    1.3355   -2.1511 C   0  0  0  0  0  0  0  0  0  0  0  0
   -6.0636    2.6494   -2.4835 C   0  0  0  0  0  0  0  0  0  0  0  0
   -4.9061    3.2178   -1.9788 C   0  0  0  0  0  0  0  0  0  0  0  0
   -4.0667    2.4653   -1.1539 C   0  0  0  0  0  0  0  0  0  0  0  0
   -4.3593    1.1233   -0.8171 C   0  0  0  0  0  0  0  0  0  0  0  0
    0.8699    1.6708   -0.2640 C   0  0  0  0  0  0  0  0  0  0  0  0
    2.1325    1.2873   -0.0916 N   0  0  0  0  0  0  0  0  0  0  0  0
    2.9797    2.3933    0.3333 C   0  0  0  0  0  0  0  0  0  0  0  0
    2.1004    3.6447    0.0618 C   0  0  0  0  0  0  0  0  0  0  0  0
    0.6551    3.1109    0.0107 C   0  0  0  0  0  0  0  0  0  0  0  0
    3.4384   -2.3659   -0.4211 C   0  0  0  0  0  0  0  0  0  0  0  0
    4.5637   -3.1878   -0.3247 C   0  0  0  0  0  0  0  0  0  0  0  0
    8.4313   -2.3726   -0.5396 H   0  0  0  0  0  0  0  0  0  0  0  0
    8.8275   -3.9198    0.2208 H   0  0  0  0  0  0  0  0  0  0  0  0
    8.2351   -2.6033    1.2443 H   0  0  0  0  0  0  0  0  0  0  0  0
    6.8774   -0.8324    0.4983 H   0  0  0  0  0  0  0  0  0  0  0  0
    4.9381    0.5982    0.3508 H   0  0  0  0  0  0  0  0  0  0  0  0
    0.5938   -1.4327   -0.9650 H   0  0  0  0  0  0  0  0  0  0  0  0
   -1.4241    1.4511   -1.7581 H   0  0  0  0  0  0  0  0  0  0  0  0
   -1.5284   -0.3077   -1.5000 H   0  0  0  0  0  0  0  0  0  0  0  0
   -2.1882   -0.7783    2.1259 H   0  0  0  0  0  0  0  0  0  0  0  0
   -2.7824   -2.8483    3.2519 H   0  0  0  0  0  0  0  0  0  0  0  0
   -4.8044   -4.1130    2.5771 H   0  0  0  0  0  0  0  0  0  0  0  0
   -6.2136   -3.2840    0.7412 H   0  0  0  0  0  0  0  0  0  0  0  0
   -7.3031    0.9070   -2.5491 H   0  0  0  0  0  0  0  0  0  0  0  0
   -6.7281    3.2256   -3.1223 H   0  0  0  0  0  0  0  0  0  0  0  0
   -4.6637    4.2528   -2.2113 H   0  0  0  0  0  0  0  0  0  0  0  0
   -3.2032    2.9820   -0.7403 H   0  0  0  0  0  0  0  0  0  0  0  0
    3.8995    2.4351   -0.2532 H   0  0  0  0  0  0  0  0  0  0  0  0
    3.1980    2.2811    1.3983 H   0  0  0  0  0  0  0  0  0  0  0  0
    2.3637    4.0567   -0.9199 H   0  0  0  0  0  0  0  0  0  0  0  0
    2.2403    4.4332    0.8059 H   0  0  0  0  0  0  0  0  0  0  0  0
    0.1596    3.1824    0.9794 H   0  0  0  0  0  0  0  0  0  0  0  0
    0.0567    3.5412   -0.7920 H   0  0  0  0  0  0  0  0  0  0  0  0
    2.4938   -2.8382   -0.6773 H   0  0  0  0  0  0  0  0  0  0  0  0
    4.4697   -4.2579   -0.5056 H   0  0  0  0  0  0  0  0  0  0  0  0
  1  2  1  0
  2  3  1  0
  3  4  2  0
  4  5  1  0
  5  6  2  0
  6  7  1  0
  7  8  2  0
  8  9  1  0
  9 10  1  0
 10 11  1  0
 11 12  2  0
 11 13  1  0
 13 14  1  0
 14 15  2  0
 15 16  1  0
 16 17  2  0
 17 18  1  0
 18 19  2  0
 19 20  1  0
 20 21  1  0
 21 22  2  0
 22 23  1  0
 23 24  2  0
 24 25  1  0
 25 26  2  0
  9 27  2  0
 27 28  1  0
 28 29  1  0
 29 30  1  0
 30 31  1  0
  6 32  1  0
 32 33  2  0
 33  3  1  0
 28  7  1  0
 26 13  1  0
 31 27  1  0
 19 14  1  0
 26 21  1  0
  1 34  1  0
  1 35  1  0
  1 36  1  0
  4 37  1  0
  5 38  1  0
  8 39  1  0
 10 40  1  0
 10 41  1  0
 15 42  1  0
 16 43  1  0
 17 44  1  0
 18 45  1  0
 22 46  1  0
 23 47  1  0
 24 48  1  0
 25 49  1  0
 29 50  1  0
 29 51  1  0
 30 52  1  0
 30 53  1  0
 31 54  1  0
 31 55  1  0
 32 56  1  0
 33 57  1  0
M  CHG  1   9   1
M  END
$$$$
