
     RDKit          3D

 33 33  0  0  0  0  0  0  0  0999 V2000
   -3.9547    0.7894   -0.6733 C   0  0  0  0  0  0  0  0  0  0  0  0
   -3.5415   -0.5772   -0.1238 C   0  0  0  0  0  0  0  0  0  0  0  0
   -4.7756   -1.3268    0.3824 C   0  0  0  0  0  0  0  0  0  0  0  0
   -2.5935   -0.4719    0.9911 N   0  0  0  0  0  0  0  0  0  0  0  0
   -1.2567   -0.0469    0.5729 C   0  0  0  0  0  0  0  0  0  0  0  0
   -0.3013   -0.1287    1.7667 C   0  0  0  0  0  0  0  0  0  0  0  0
    1.0939    0.3886    1.4189 C   0  0  0  0  0  0  0  0  0  0  0  0
    1.6379   -0.4059    0.3676 O   0  0  0  0  0  0  0  0  0  0  0  0
    2.8587   -0.0545   -0.1416 C   0  0  0  0  0  0  0  0  0  0  0  0
    3.6809    0.9440    0.3915 C   0  0  0  0  0  0  0  0  0  0  0  0
    4.9187    1.2300   -0.1949 C   0  0  0  0  0  0  0  0  0  0  0  0
    5.3410    0.5182   -1.3150 C   0  0  0  0  0  0  0  0  0  0  0  0
    6.8641    0.8771   -2.0294 Cl  0  0  0  0  0  0  0  0  0  0  0  0
    4.5398   -0.4804   -1.8579 C   0  0  0  0  0  0  0  0  0  0  0  0
    3.3037   -0.7644   -1.2703 C   0  0  0  0  0  0  0  0  0  0  0  0
    2.2474   -2.1361   -2.0575 Br  0  0  0  0  0  0  0  0  0  0  0  0
   -4.7191    0.6767   -1.4501 H   0  0  0  0  0  0  0  0  0  0  0  0
   -4.3704    1.4291    0.1133 H   0  0  0  0  0  0  0  0  0  0  0  0
   -3.1078    1.3141   -1.1262 H   0  0  0  0  0  0  0  0  0  0  0  0
   -3.1007   -1.1738   -0.9320 H   0  0  0  0  0  0  0  0  0  0  0  0
   -5.5007   -1.4682   -0.4266 H   0  0  0  0  0  0  0  0  0  0  0  0
   -4.5048   -2.3194    0.7597 H   0  0  0  0  0  0  0  0  0  0  0  0
   -5.2764   -0.7819    1.1908 H   0  0  0  0  0  0  0  0  0  0  0  0
   -2.9580    0.1628    1.7005 H   0  0  0  0  0  0  0  0  0  0  0  0
   -1.2796    0.9821    0.1981 H   0  0  0  0  0  0  0  0  0  0  0  0
   -0.8924   -0.6956   -0.2319 H   0  0  0  0  0  0  0  0  0  0  0  0
   -0.6943    0.4548    2.6081 H   0  0  0  0  0  0  0  0  0  0  0  0
   -0.2272   -1.1739    2.0930 H   0  0  0  0  0  0  0  0  0  0  0  0
    1.0252    1.4381    1.1075 H   0  0  0  0  0  0  0  0  0  0  0  0
    1.7269    0.3089    2.3105 H   0  0  0  0  0  0  0  0  0  0  0  0
    3.3931    1.5164    1.2675 H   0  0  0  0  0  0  0  0  0  0  0  0
    5.5481    2.0082    0.2302 H   0  0  0  0  0  0  0  0  0  0  0  0
    4.8753   -1.0328   -2.7312 H   0  0  0  0  0  0  0  0  0  0  0  0
  1  2  1  0
  2  3  1  0
  2  4  1  0
  4  5  1  0
  5  6  1  0
  6  7  1  0
  7  8  1  0
  8  9  1  0
  9 10  2  0
 10 11  1  0
 11 12  2  0
 12 13  1  0
 12 14  1  0
 14 15  2  0
 15 16  1  0
 15  9  1  0
  1 17  1  0
  1 18  1  0
  1 19  1  0
  2 20  1  0
  3 21  1  0
  3 22  1  0
  3 23  1  0
  4 24  1  0
  5 25  1  0
  5 26  1  0
  6 27  1  0
  6 28  1  0
  7 29  1  0
  7 30  1  0
 10 31  1  0
 11 32  1  0
 14 33  1  0
M  END
$$$$
