
     RDKit          3D

 52 53  0  0  0  0  0  0  0  0999 V2000
    4.7816   -3.7108   -1.9715 C   0  0  0  0  0  0  0  0  0  0  0  0
    4.3346   -2.6755   -2.9954 C   0  0  0  0  0  0  0  0  0  0  0  0
    3.3905   -1.6171   -2.4245 C   0  0  0  0  0  0  0  0  0  0  0  0
    4.0760   -0.7572   -1.4570 N   0  0  0  0  0  0  0  0  0  0  0  0
    3.1628    0.2443   -0.8728 C   0  0  0  0  0  0  0  0  0  0  0  0
    2.3466   -0.3268    0.3090 C   0  0  0  0  0  0  0  0  0  0  0  0
    3.2312   -0.9989    1.2218 O   0  0  0  0  0  0  0  0  0  0  0  0
    1.5735    0.7674    1.0596 C   0  0  0  0  0  0  0  0  0  0  0  0
    0.6486    1.4162    0.1729 O   0  0  0  0  0  0  0  0  0  0  0  0
    0.2049    2.5897    0.7261 C   0  0  0  0  0  0  0  0  0  0  0  0
    0.7373    3.7759    0.2176 C   0  0  0  0  0  0  0  0  0  0  0  0
    0.3729    5.0009    0.7797 C   0  0  0  0  0  0  0  0  0  0  0  0
   -0.5130    5.0422    1.8568 C   0  0  0  0  0  0  0  0  0  0  0  0
   -1.0739    3.8605    2.3425 C   0  0  0  0  0  0  0  0  0  0  0  0
   -0.7425    2.6374    1.7528 C   0  0  0  0  0  0  0  0  0  0  0  0
   -1.4357    1.4258    2.2374 C   0  0  0  0  0  0  0  0  0  0  0  0
   -1.3714    1.1439    3.4286 O   0  0  0  0  0  0  0  0  0  0  0  0
   -2.2271    0.6345    1.2097 C   0  0  0  0  0  0  0  0  0  0  0  0
   -3.1985   -0.3331    1.8799 C   0  0  0  0  0  0  0  0  0  0  0  0
   -4.1137   -0.9847    0.8711 C   0  0  0  0  0  0  0  0  0  0  0  0
   -5.2843   -0.3319    0.4564 C   0  0  0  0  0  0  0  0  0  0  0  0
   -6.1316   -0.9219   -0.4853 C   0  0  0  0  0  0  0  0  0  0  0  0
   -5.8179   -2.1710   -1.0197 C   0  0  0  0  0  0  0  0  0  0  0  0
   -4.6551   -2.8278   -0.6169 C   0  0  0  0  0  0  0  0  0  0  0  0
   -3.8030   -2.2368    0.3210 C   0  0  0  0  0  0  0  0  0  0  0  0
    5.3963   -4.4741   -2.4559 H   0  0  0  0  0  0  0  0  0  0  0  0
    5.3808   -3.2626   -1.1742 H   0  0  0  0  0  0  0  0  0  0  0  0
    3.9202   -4.2089   -1.5179 H   0  0  0  0  0  0  0  0  0  0  0  0
    3.8163   -3.1939   -3.8118 H   0  0  0  0  0  0  0  0  0  0  0  0
    5.2155   -2.1987   -3.4364 H   0  0  0  0  0  0  0  0  0  0  0  0
    2.5288   -2.1130   -1.9681 H   0  0  0  0  0  0  0  0  0  0  0  0
    3.0209   -1.0078   -3.2577 H   0  0  0  0  0  0  0  0  0  0  0  0
    4.4207   -1.3452   -0.6923 H   0  0  0  0  0  0  0  0  0  0  0  0
    3.8019    1.0567   -0.4955 H   0  0  0  0  0  0  0  0  0  0  0  0
    2.5102    0.6865   -1.6356 H   0  0  0  0  0  0  0  0  0  0  0  0
    1.6361   -1.0730   -0.0683 H   0  0  0  0  0  0  0  0  0  0  0  0
    3.9784   -0.4018    1.4097 H   0  0  0  0  0  0  0  0  0  0  0  0
    2.2845    1.4875    1.4964 H   0  0  0  0  0  0  0  0  0  0  0  0
    1.0330    0.2999    1.8920 H   0  0  0  0  0  0  0  0  0  0  0  0
    1.4443    3.7487   -0.6058 H   0  0  0  0  0  0  0  0  0  0  0  0
    0.7943    5.9246    0.3891 H   0  0  0  0  0  0  0  0  0  0  0  0
   -0.7775    5.9977    2.3057 H   0  0  0  0  0  0  0  0  0  0  0  0
   -1.7662    3.8955    3.1809 H   0  0  0  0  0  0  0  0  0  0  0  0
   -1.5322    0.0742    0.5709 H   0  0  0  0  0  0  0  0  0  0  0  0
   -2.7805    1.3426    0.5818 H   0  0  0  0  0  0  0  0  0  0  0  0
   -2.6428   -1.1031    2.4312 H   0  0  0  0  0  0  0  0  0  0  0  0
   -3.8045    0.1843    2.6298 H   0  0  0  0  0  0  0  0  0  0  0  0
   -5.5457    0.6399    0.8715 H   0  0  0  0  0  0  0  0  0  0  0  0
   -7.0380   -0.4067   -0.7989 H   0  0  0  0  0  0  0  0  0  0  0  0
   -6.4781   -2.6319   -1.7488 H   0  0  0  0  0  0  0  0  0  0  0  0
   -4.4100   -3.8008   -1.0354 H   0  0  0  0  0  0  0  0  0  0  0  0
   -2.8993   -2.7618    0.6243 H   0  0  0  0  0  0  0  0  0  0  0  0
  1  2  1  0
  2  3  1  0
  3  4  1  0
  4  5  1  0
  5  6  1  0
  6  7  1  0
  6  8  1  0
  8  9  1  0
  9 10  1  0
 10 11  2  0
 11 12  1  0
 12 13  2  0
 13 14  1  0
 14 15  2  0
 15 16  1  0
 16 17  2  0
 16 18  1  0
 18 19  1  0
 19 20  1  0
 20 21  2  0
 21 22  1  0
 22 23  2  0
 23 24  1  0
 24 25  2  0
 15 10  1  0
 25 20  1  0
  1 26  1  0
  1 27  1  0
  1 28  1  0
  2 29  1  0
  2 30  1  0
  3 31  1  0
  3 32  1  0
  4 33  1  0
  5 34  1  0
  5 35  1  0
  6 36  1  0
  7 37  1  0
  8 38  1  0
  8 39  1  0
 11 40  1  0
 12 41  1  0
 13 42  1  0
 14 43  1  0
 18 44  1  0
 18 45  1  0
 19 46  1  0
 19 47  1  0
 21 48  1  0
 22 49  1  0
 23 50  1  0
 24 51  1  0
 25 52  1  0
M  END
$$$$
