
     RDKit          3D

 36 38  0  0  0  0  0  0  0  0999 V2000
   -0.2059    3.0227    1.1901 C   0  0  0  0  0  0  0  0  0  0  0  0
   -0.3111    1.7329    0.5874 O   0  0  0  0  0  0  0  0  0  0  0  0
   -1.5826    1.3822    0.2282 C   0  0  0  0  0  0  0  0  0  0  0  0
   -2.5589    2.1046    0.3972 O   0  0  0  0  0  0  0  0  0  0  0  0
   -1.6679    0.0545   -0.3793 C   0  0  0  0  0  0  0  0  0  0  0  0
   -0.6098   -0.8394   -0.5762 C   0  0  0  0  0  0  0  0  0  0  0  0
    0.7176   -0.6411   -0.2429 N   0  0  0  0  0  0  0  0  0  0  0  0
    1.7883   -1.4987   -0.3999 C   0  0  0  0  0  0  0  0  0  0  0  0
    1.7878   -2.6284   -0.8723 O   0  0  0  0  0  0  0  0  0  0  0  0
    3.0359   -0.8869    0.1016 C   0  0  0  0  0  0  0  0  0  0  0  0
    4.3287   -1.4710    0.1144 C   0  0  0  0  0  0  0  0  0  0  0  0
    5.1516   -0.5268    0.6791 C   0  0  0  0  0  0  0  0  0  0  0  0
    4.3547    0.5389    0.9676 N   0  0  0  0  0  0  0  0  0  0  0  0
    4.7599    1.7780    1.5873 C   0  0  0  0  0  0  0  0  0  0  0  0
    3.0628    0.3563    0.6323 N   0  0  0  0  0  0  0  0  0  0  0  0
   -1.1098   -2.3096   -1.3137 S   0  0  0  0  0  0  0  0  0  0  0  0
   -2.6874   -1.7842   -1.3759 C   0  0  0  0  0  0  0  0  0  0  0  0
   -2.8729   -0.5332   -0.8635 C   0  0  0  0  0  0  0  0  0  0  0  0
   -4.3015   -0.1309   -0.9479 C   0  0  0  0  0  0  0  0  0  0  0  0
   -4.8931   -1.2057   -1.9135 C   0  0  0  0  0  0  0  0  0  0  0  0
   -3.9221   -2.4254   -1.8811 C   0  0  0  0  0  0  0  0  0  0  0  0
   -0.7419    3.0410    2.1437 H   0  0  0  0  0  0  0  0  0  0  0  0
    0.8521    3.2191    1.3841 H   0  0  0  0  0  0  0  0  0  0  0  0
   -0.5824    3.7981    0.5160 H   0  0  0  0  0  0  0  0  0  0  0  0
    0.9623    0.2521    0.1864 H   0  0  0  0  0  0  0  0  0  0  0  0
    4.6025   -2.4547   -0.2418 H   0  0  0  0  0  0  0  0  0  0  0  0
    6.2109   -0.5310    0.8943 H   0  0  0  0  0  0  0  0  0  0  0  0
    4.4392    2.6062    0.9503 H   0  0  0  0  0  0  0  0  0  0  0  0
    5.8470    1.7909    1.6968 H   0  0  0  0  0  0  0  0  0  0  0  0
    4.2837    1.8406    2.5692 H   0  0  0  0  0  0  0  0  0  0  0  0
   -4.4377    0.8761   -1.3511 H   0  0  0  0  0  0  0  0  0  0  0  0
   -4.7763   -0.1977    0.0365 H   0  0  0  0  0  0  0  0  0  0  0  0
   -5.9183   -1.4827   -1.6490 H   0  0  0  0  0  0  0  0  0  0  0  0
   -4.9154   -0.7952   -2.9318 H   0  0  0  0  0  0  0  0  0  0  0  0
   -3.8073   -2.8672   -2.8745 H   0  0  0  0  0  0  0  0  0  0  0  0
   -4.2824   -3.1844   -1.1793 H   0  0  0  0  0  0  0  0  0  0  0  0
  1  2  1  0
  2  3  1  0
  3  4  2  0
  3  5  1  0
  5  6  2  0
  6  7  1  0
  7  8  1  0
  8  9  2  0
  8 10  1  0
 10 11  1  0
 11 12  2  0
 12 13  1  0
 13 14  1  0
 13 15  1  0
  6 16  1  0
 16 17  1  0
 17 18  2  0
 18 19  1  0
 19 20  1  0
 20 21  1  0
 18  5  1  0
 15 10  2  0
 21 17  1  0
  1 22  1  0
  1 23  1  0
  1 24  1  0
  7 25  1  0
 11 26  1  0
 12 27  1  0
 14 28  1  0
 14 29  1  0
 14 30  1  0
 19 31  1  0
 19 32  1  0
 20 33  1  0
 20 34  1  0
 21 35  1  0
 21 36  1  0
M  END
$$$$
