
     RDKit          3D

 57 61  0  0  0  0  0  0  0  0999 V2000
    0.2508    2.5030   -0.8576 O   0  0  0  0  0  0  0  0  0  0  0  0
    0.0049    1.5268    0.1643 C   0  0  0  0  0  0  0  0  0  0  0  0
    1.3311    1.1726    0.8681 C   0  0  0  0  0  0  0  0  0  0  0  0
    2.3705    0.8484   -0.1090 N   0  0  0  0  0  0  0  0  0  0  0  0
    3.6842    0.6785    0.2801 C   0  0  0  0  0  0  0  0  0  0  0  0
    4.0663    1.0672    1.4664 N   0  0  0  0  0  0  0  0  0  0  0  0
    5.4034    0.8880    1.8764 C   0  0  0  0  0  0  0  0  0  0  0  0
    5.7699    1.3213    3.1518 C   0  0  0  0  0  0  0  0  0  0  0  0
    7.0804    1.1622    3.6098 C   0  0  0  0  0  0  0  0  0  0  0  0
    8.0410    0.5655    2.7921 C   0  0  0  0  0  0  0  0  0  0  0  0
    7.6983    0.1257    1.5131 C   0  0  0  0  0  0  0  0  0  0  0  0
    6.3836    0.2916    1.0685 C   0  0  0  0  0  0  0  0  0  0  0  0
    5.9542   -0.1181   -0.2045 N   0  0  0  0  0  0  0  0  0  0  0  0
    6.6591   -0.7228   -1.2176 C   0  0  0  0  0  0  0  0  0  0  0  0
    5.8048   -0.9142   -2.2823 C   0  0  0  0  0  0  0  0  0  0  0  0
    4.5373   -0.4135   -1.9011 C   0  0  0  0  0  0  0  0  0  0  0  0
    4.6507    0.0648   -0.6082 C   0  0  0  0  0  0  0  0  0  0  0  0
   -0.6868    0.2682   -0.4235 C   0  0  0  0  0  0  0  0  0  0  0  0
   -1.9716    0.5080   -1.1067 N   0  0  0  0  0  0  0  0  0  0  0  0
   -2.5297   -0.7267   -1.6960 C   0  0  0  0  0  0  0  0  0  0  0  0
   -3.6275   -1.4342   -0.8659 C   0  0  0  0  0  0  0  0  0  0  0  0
   -4.7350   -0.5184   -0.5438 N   0  0  0  0  0  0  0  0  0  0  0  0
   -6.0314   -0.9891   -0.4076 C   0  0  0  0  0  0  0  0  0  0  0  0
   -7.1516   -0.1703   -0.6249 C   0  0  0  0  0  0  0  0  0  0  0  0
   -8.4610   -0.6474   -0.4818 C   0  0  0  0  0  0  0  0  0  0  0  0
   -8.6859   -1.9662   -0.1084 C   0  0  0  0  0  0  0  0  0  0  0  0
   -7.6010   -2.8020    0.1223 C   0  0  0  0  0  0  0  0  0  0  0  0
   -6.2959   -2.3153   -0.0253 C   0  0  0  0  0  0  0  0  0  0  0  0
   -4.4343    0.9202   -0.6247 C   0  0  0  0  0  0  0  0  0  0  0  0
   -2.9596    1.1823   -0.2381 C   0  0  0  0  0  0  0  0  0  0  0  0
    1.1822    2.3952   -1.1293 H   0  0  0  0  0  0  0  0  0  0  0  0
   -0.6534    1.9922    0.9059 H   0  0  0  0  0  0  0  0  0  0  0  0
    1.6507    2.0529    1.4387 H   0  0  0  0  0  0  0  0  0  0  0  0
    1.1900    0.3424    1.5689 H   0  0  0  0  0  0  0  0  0  0  0  0
    2.0848    0.2252   -0.8547 H   0  0  0  0  0  0  0  0  0  0  0  0
    5.0249    1.7873    3.7911 H   0  0  0  0  0  0  0  0  0  0  0  0
    7.3499    1.5057    4.6053 H   0  0  0  0  0  0  0  0  0  0  0  0
    9.0594    0.4449    3.1534 H   0  0  0  0  0  0  0  0  0  0  0  0
    8.4627   -0.3330    0.8949 H   0  0  0  0  0  0  0  0  0  0  0  0
    7.7067   -0.9666   -1.1163 H   0  0  0  0  0  0  0  0  0  0  0  0
    6.0699   -1.3618   -3.2319 H   0  0  0  0  0  0  0  0  0  0  0  0
    3.6449   -0.4020   -2.5121 H   0  0  0  0  0  0  0  0  0  0  0  0
   -0.0094   -0.1700   -1.1661 H   0  0  0  0  0  0  0  0  0  0  0  0
   -0.8216   -0.4731    0.3749 H   0  0  0  0  0  0  0  0  0  0  0  0
   -2.9708   -0.4434   -2.6610 H   0  0  0  0  0  0  0  0  0  0  0  0
   -1.7373   -1.4448   -1.9408 H   0  0  0  0  0  0  0  0  0  0  0  0
   -3.1973   -1.8215    0.0654 H   0  0  0  0  0  0  0  0  0  0  0  0
   -3.9817   -2.2867   -1.4581 H   0  0  0  0  0  0  0  0  0  0  0  0
   -7.0294    0.8629   -0.9362 H   0  0  0  0  0  0  0  0  0  0  0  0
   -9.3004    0.0171   -0.6675 H   0  0  0  0  0  0  0  0  0  0  0  0
   -9.6999   -2.3389    0.0039 H   0  0  0  0  0  0  0  0  0  0  0  0
   -7.7623   -3.8334    0.4234 H   0  0  0  0  0  0  0  0  0  0  0  0
   -5.4789   -2.9976    0.1914 H   0  0  0  0  0  0  0  0  0  0  0  0
   -4.6326    1.2898   -1.6382 H   0  0  0  0  0  0  0  0  0  0  0  0
   -5.0607    1.4855    0.0758 H   0  0  0  0  0  0  0  0  0  0  0  0
   -2.7770    2.2625   -0.2658 H   0  0  0  0  0  0  0  0  0  0  0  0
   -2.8326    0.8529    0.8024 H   0  0  0  0  0  0  0  0  0  0  0  0
  1  2  1  0
  2  3  1  0
  3  4  1  0
  4  5  1  0
  5  6  2  0
  6  7  1  0
  7  8  2  0
  8  9  1  0
  9 10  2  0
 10 11  1  0
 11 12  2  0
 12 13  1  0
 13 14  1  0
 14 15  2  0
 15 16  1  0
 16 17  2  0
  2 18  1  0
 18 19  1  0
 19 20  1  0
 20 21  1  0
 21 22  1  0
 22 23  1  0
 23 24  2  0
 24 25  1  0
 25 26  2  0
 26 27  1  0
 27 28  2  0
 22 29  1  0
 29 30  1  0
 17  5  1  0
 30 19  1  0
 12  7  1  0
 17 13  1  0
 28 23  1  0
  1 31  1  0
  2 32  1  0
  3 33  1  0
  3 34  1  0
  4 35  1  0
  8 36  1  0
  9 37  1  0
 10 38  1  0
 11 39  1  0
 14 40  1  0
 15 41  1  0
 16 42  1  0
 18 43  1  0
 18 44  1  0
 20 45  1  0
 20 46  1  0
 21 47  1  0
 21 48  1  0
 24 49  1  0
 25 50  1  0
 26 51  1  0
 27 52  1  0
 28 53  1  0
 29 54  1  0
 29 55  1  0
 30 56  1  0
 30 57  1  0
M  END
$$$$
