
     RDKit          3D

 58 63  0  0  0  0  0  0  0  0999 V2000
    6.6834   -1.0460    3.8684 C   0  0  0  0  0  0  0  0  0  0  0  0
    5.8709   -0.7523    2.6523 C   0  0  0  0  0  0  0  0  0  0  0  0
    5.8170    0.4186    1.9247 C   0  0  0  0  0  0  0  0  0  0  0  0
    4.9227    0.3228    0.8185 C   0  0  0  0  0  0  0  0  0  0  0  0
    4.3029   -0.9110    0.7485 C   0  0  0  0  0  0  0  0  0  0  0  0
    3.3410   -1.4008   -0.2286 C   0  0  0  0  0  0  0  0  0  0  0  0
    3.4186   -2.5240   -0.7268 O   0  0  0  0  0  0  0  0  0  0  0  0
    2.3122   -0.5100   -0.6206 N   0  0  0  0  0  0  0  0  0  0  0  0
    1.4908   -0.9610   -1.7374 C   0  0  0  0  0  0  0  0  0  0  0  0
    0.6381    0.1471   -2.3402 C   0  0  0  0  0  0  0  0  0  0  0  0
   -0.1033    1.0682   -1.3353 C   0  0  0  0  0  0  0  0  0  0  0  0
    0.8851    1.4638   -0.2143 C   0  0  0  0  0  0  0  0  0  0  0  0
    1.6356    0.2918    0.3949 C   0  0  0  0  0  0  0  0  0  0  0  0
   -0.3276    2.2728   -2.1411 O   0  0  0  0  0  0  0  0  0  0  0  0
   -1.2393    3.1845   -1.7038 C   0  0  0  0  0  0  0  0  0  0  0  0
   -1.2198    4.4285   -2.3340 C   0  0  0  0  0  0  0  0  0  0  0  0
   -2.1053    5.4326   -1.9317 C   0  0  0  0  0  0  0  0  0  0  0  0
   -3.0129    5.1862   -0.9013 C   0  0  0  0  0  0  0  0  0  0  0  0
   -4.0944    6.4273   -0.4035 Cl  0  0  0  0  0  0  0  0  0  0  0  0
   -3.0482    3.9436   -0.2751 C   0  0  0  0  0  0  0  0  0  0  0  0
   -2.1627    2.9457   -0.6941 C   0  0  0  0  0  0  0  0  0  0  0  0
   -2.1765    1.6201   -0.0671 C   0  0  0  0  0  0  0  0  0  0  0  0
   -2.7016    1.4786    1.0333 O   0  0  0  0  0  0  0  0  0  0  0  0
   -1.4724    0.5042   -0.8407 C   0  0  0  0  0  0  0  0  0  0  0  0
   -1.4823   -0.7784   -0.0268 C   0  0  0  0  0  0  0  0  0  0  0  0
   -2.7437   -1.3789   -0.5526 C   0  0  0  0  0  0  0  0  0  0  0  0
   -3.4056   -2.5285    0.1077 C   0  0  0  0  0  0  0  0  0  0  0  0
   -2.8229   -3.1809    1.2000 C   0  0  0  0  0  0  0  0  0  0  0  0
   -3.4678   -4.2722    1.7878 C   0  0  0  0  0  0  0  0  0  0  0  0
   -4.6918   -4.7156    1.2889 C   0  0  0  0  0  0  0  0  0  0  0  0
   -5.2759   -4.0698    0.2010 C   0  0  0  0  0  0  0  0  0  0  0  0
   -4.6353   -2.9790   -0.3895 C   0  0  0  0  0  0  0  0  0  0  0  0
   -3.1797   -0.8415   -1.6474 N   0  0  0  0  0  0  0  0  0  0  0  0
   -2.2965    0.2065   -1.9842 O   0  0  0  0  0  0  0  0  0  0  0  0
    4.8390   -1.9499    1.9975 S   0  0  0  0  0  0  0  0  0  0  0  0
    7.5626   -0.3934    3.9141 H   0  0  0  0  0  0  0  0  0  0  0  0
    7.0385   -2.0819    3.8753 H   0  0  0  0  0  0  0  0  0  0  0  0
    6.0879   -0.8765    4.7724 H   0  0  0  0  0  0  0  0  0  0  0  0
    6.3985    1.3014    2.1662 H   0  0  0  0  0  0  0  0  0  0  0  0
    4.7470    1.1190    0.1053 H   0  0  0  0  0  0  0  0  0  0  0  0
    0.8918   -1.8147   -1.4122 H   0  0  0  0  0  0  0  0  0  0  0  0
    2.1547   -1.3500   -2.5204 H   0  0  0  0  0  0  0  0  0  0  0  0
    1.3138    0.7758   -2.9398 H   0  0  0  0  0  0  0  0  0  0  0  0
   -0.0595   -0.2773   -3.0717 H   0  0  0  0  0  0  0  0  0  0  0  0
    0.3810    2.0250    0.5801 H   0  0  0  0  0  0  0  0  0  0  0  0
    1.6230    2.1639   -0.6313 H   0  0  0  0  0  0  0  0  0  0  0  0
    0.9680   -0.3711    0.9535 H   0  0  0  0  0  0  0  0  0  0  0  0
    2.3447    0.6795    1.1289 H   0  0  0  0  0  0  0  0  0  0  0  0
   -0.5103    4.6216   -3.1354 H   0  0  0  0  0  0  0  0  0  0  0  0
   -2.0807    6.4019   -2.4244 H   0  0  0  0  0  0  0  0  0  0  0  0
   -3.7604    3.7469    0.5225 H   0  0  0  0  0  0  0  0  0  0  0  0
   -0.6848   -1.4730   -0.2729 H   0  0  0  0  0  0  0  0  0  0  0  0
   -1.5038   -0.6277    1.0547 H   0  0  0  0  0  0  0  0  0  0  0  0
   -1.8679   -2.8668    1.6084 H   0  0  0  0  0  0  0  0  0  0  0  0
   -3.0140   -4.7804    2.6356 H   0  0  0  0  0  0  0  0  0  0  0  0
   -5.1901   -5.5660    1.7470 H   0  0  0  0  0  0  0  0  0  0  0  0
   -6.2300   -4.4143   -0.1903 H   0  0  0  0  0  0  0  0  0  0  0  0
   -5.1016   -2.4850   -1.2399 H   0  0  0  0  0  0  0  0  0  0  0  0
  1  2  1  0
  2  3  2  0
  3  4  1  0
  4  5  2  0
  5  6  1  0
  6  7  2  0
  6  8  1  0
  8  9  1  0
  9 10  1  0
 10 11  1  0
 11 12  1  0
 12 13  1  0
 11 14  1  0
 14 15  1  0
 15 16  2  0
 16 17  1  0
 17 18  2  0
 18 19  1  0
 18 20  1  0
 20 21  2  0
 21 22  1  0
 22 23  2  0
 22 24  1  0
 24 25  1  0
 25 26  1  0
 26 27  1  0
 27 28  2  0
 28 29  1  0
 29 30  2  0
 30 31  1  0
 31 32  2  0
 26 33  2  0
 33 34  1  0
  5 35  1  0
 35  2  1  0
 13  8  1  0
 21 15  1  0
 34 24  1  0
 24 11  1  0
 32 27  1  0
  1 36  1  0
  1 37  1  0
  1 38  1  0
  3 39  1  0
  4 40  1  0
  9 41  1  0
  9 42  1  0
 10 43  1  0
 10 44  1  0
 12 45  1  0
 12 46  1  0
 13 47  1  0
 13 48  1  0
 16 49  1  0
 17 50  1  0
 20 51  1  0
 25 52  1  0
 25 53  1  0
 28 54  1  0
 29 55  1  0
 30 56  1  0
 31 57  1  0
 32 58  1  0
M  END
$$$$
