
     RDKit          3D

 47 50  0  0  0  0  0  0  0  0999 V2000
   -3.9123    3.2083   -1.1088 C   0  0  0  0  0  0  0  0  0  0  0  0
   -4.0971    1.9571   -0.2501 C   0  0  0  0  0  0  0  0  0  0  0  0
   -2.7898    1.5141    0.3890 C   0  0  0  0  0  0  0  0  0  0  0  0
   -1.8738    0.7670   -0.5569 C   0  0  0  0  0  0  0  0  0  0  0  0
   -0.9644    1.3555   -1.1488 O   0  0  0  0  0  0  0  0  0  0  0  0
   -2.0443   -0.6140   -0.6473 N   0  0  0  0  0  0  0  0  0  0  0  0
   -0.9554   -1.3559   -1.2833 C   0  0  0  0  0  0  0  0  0  0  0  0
    0.2515   -1.4355   -0.3349 C   0  0  0  0  0  0  0  0  0  0  0  0
    0.2314   -2.1700    0.6536 O   0  0  0  0  0  0  0  0  0  0  0  0
    1.2687   -0.5602   -0.6830 N   0  0  0  0  0  0  0  0  0  0  0  0
    2.5237   -0.4019   -0.0611 C   0  0  0  0  0  0  0  0  0  0  0  0
    2.9645   -1.1766    1.0159 C   0  0  0  0  0  0  0  0  0  0  0  0
    4.2307   -0.9596    1.5754 C   0  0  0  0  0  0  0  0  0  0  0  0
    5.0680    0.0169    1.0517 C   0  0  0  0  0  0  0  0  0  0  0  0
    4.6499    0.7709   -0.0475 C   0  0  0  0  0  0  0  0  0  0  0  0
    3.3758    0.5815   -0.5843 C   0  0  0  0  0  0  0  0  0  0  0  0
    5.4437    1.7152   -0.6552 O   0  0  0  0  0  0  0  0  0  0  0  0
    6.8181    1.5410   -0.2859 C   0  0  0  0  0  0  0  0  0  0  0  0
    6.9458    1.3707    1.2196 C   0  0  0  0  0  0  0  0  0  0  0  0
    6.2901    0.1725    1.6543 O   0  0  0  0  0  0  0  0  0  0  0  0
   -3.2090   -1.3210   -0.2011 C   0  0  0  0  0  0  0  0  0  0  0  0
   -3.0634   -2.5951    0.3724 C   0  0  0  0  0  0  0  0  0  0  0  0
   -4.1693   -3.3224    0.8256 C   0  0  0  0  0  0  0  0  0  0  0  0
   -5.4462   -2.7920    0.7019 C   0  0  0  0  0  0  0  0  0  0  0  0
   -5.6194   -1.5385    0.1112 C   0  0  0  0  0  0  0  0  0  0  0  0
   -4.5166   -0.7999   -0.3431 C   0  0  0  0  0  0  0  0  0  0  0  0
   -4.9012    0.6783   -1.2793 S   0  0  0  0  0  0  0  0  0  0  0  0
   -3.2117    3.0362   -1.9328 H   0  0  0  0  0  0  0  0  0  0  0  0
   -3.5186    4.0326   -0.5041 H   0  0  0  0  0  0  0  0  0  0  0  0
   -4.8648    3.5484   -1.5317 H   0  0  0  0  0  0  0  0  0  0  0  0
   -4.8000    2.2023    0.5580 H   0  0  0  0  0  0  0  0  0  0  0  0
   -2.2391    2.3660    0.7951 H   0  0  0  0  0  0  0  0  0  0  0  0
   -2.9899    0.8797    1.2643 H   0  0  0  0  0  0  0  0  0  0  0  0
   -1.2578   -2.3692   -1.5663 H   0  0  0  0  0  0  0  0  0  0  0  0
   -0.6765   -0.8530   -2.2195 H   0  0  0  0  0  0  0  0  0  0  0  0
    1.0397    0.1306   -1.3956 H   0  0  0  0  0  0  0  0  0  0  0  0
    2.3454   -1.9562    1.4529 H   0  0  0  0  0  0  0  0  0  0  0  0
    4.5552   -1.5624    2.4215 H   0  0  0  0  0  0  0  0  0  0  0  0
    3.0706    1.1928   -1.4287 H   0  0  0  0  0  0  0  0  0  0  0  0
    7.3679    2.4288   -0.6173 H   0  0  0  0  0  0  0  0  0  0  0  0
    7.2150    0.6716   -0.8197 H   0  0  0  0  0  0  0  0  0  0  0  0
    8.0012    1.2907    1.5023 H   0  0  0  0  0  0  0  0  0  0  0  0
    6.5088    2.2221    1.7575 H   0  0  0  0  0  0  0  0  0  0  0  0
   -2.0830   -3.0423    0.5160 H   0  0  0  0  0  0  0  0  0  0  0  0
   -4.0217   -4.3075    1.2665 H   0  0  0  0  0  0  0  0  0  0  0  0
   -6.3098   -3.3603    1.0446 H   0  0  0  0  0  0  0  0  0  0  0  0
   -6.6308   -1.1573   -0.0174 H   0  0  0  0  0  0  0  0  0  0  0  0
  1  2  1  0
  2  3  1  0
  3  4  1  0
  4  5  2  0
  4  6  1  0
  6  7  1  0
  7  8  1  0
  8  9  2  0
  8 10  1  0
 10 11  1  0
 11 12  2  0
 12 13  1  0
 13 14  2  0
 14 15  1  0
 15 16  2  0
 15 17  1  0
 17 18  1  0
 18 19  1  0
 19 20  1  0
  6 21  1  0
 21 22  2  0
 22 23  1  0
 23 24  2  0
 24 25  1  0
 25 26  2  0
 26 27  1  0
 27  2  1  0
 16 11  1  0
 26 21  1  0
 20 14  1  0
  1 28  1  0
  1 29  1  0
  1 30  1  0
  2 31  1  0
  3 32  1  0
  3 33  1  0
  7 34  1  0
  7 35  1  0
 10 36  1  0
 12 37  1  0
 13 38  1  0
 16 39  1  0
 18 40  1  0
 18 41  1  0
 19 42  1  0
 19 43  1  0
 22 44  1  0
 23 45  1  0
 24 46  1  0
 25 47  1  0
M  END
$$$$
