
     RDKit          3D

 45 47  0  0  0  0  0  0  0  0999 V2000
   -7.9405   -1.1143   -1.0116 C   0  0  0  0  0  0  0  0  0  0  0  0
   -6.4693   -0.8074   -1.2272 C   0  0  0  0  0  0  0  0  0  0  0  0
   -5.8889   -0.5267    0.0431 O   0  0  0  0  0  0  0  0  0  0  0  0
   -4.5462   -0.2445    0.0872 C   0  0  0  0  0  0  0  0  0  0  0  0
   -3.7159   -0.1728   -1.0355 C   0  0  0  0  0  0  0  0  0  0  0  0
   -2.3575    0.1225   -0.8926 C   0  0  0  0  0  0  0  0  0  0  0  0
   -1.8121    0.3419    0.3741 C   0  0  0  0  0  0  0  0  0  0  0  0
   -0.3919    0.6680    0.5427 C   0  0  0  0  0  0  0  0  0  0  0  0
    0.6403   -0.1414    0.2688 C   0  0  0  0  0  0  0  0  0  0  0  0
    0.5942   -1.7607   -0.3265 S   0  0  0  0  0  0  0  0  0  0  0  0
    2.3498   -1.9154   -0.3436 C   0  0  0  0  0  0  0  0  0  0  0  0
    3.1457   -3.3107   -0.7933 S   0  0  0  0  0  0  0  0  0  0  0  0
    2.8965   -0.7309    0.1046 N   0  0  0  0  0  0  0  0  0  0  0  0
    4.2859   -0.5011    0.1320 N   0  0  0  0  0  0  0  0  0  0  0  0
    4.8245    0.0846   -1.0024 C   0  0  0  0  0  0  0  0  0  0  0  0
    4.2036    0.2306   -2.0506 O   0  0  0  0  0  0  0  0  0  0  0  0
    6.2185    0.5823   -0.8808 C   0  0  0  0  0  0  0  0  0  0  0  0
    7.1305    0.0141    0.0098 C   0  0  0  0  0  0  0  0  0  0  0  0
    8.4086    0.5428    0.0473 C   0  0  0  0  0  0  0  0  0  0  0  0
    8.8174    1.5709   -0.7253 N   0  0  0  0  0  0  0  0  0  0  0  0
    7.9192    2.0883   -1.5907 C   0  0  0  0  0  0  0  0  0  0  0  0
    6.6208    1.6308   -1.7084 C   0  0  0  0  0  0  0  0  0  0  0  0
    2.0472    0.2907    0.4902 C   0  0  0  0  0  0  0  0  0  0  0  0
    2.3807    1.3631    0.9776 O   0  0  0  0  0  0  0  0  0  0  0  0
   -2.6415    0.2833    1.5009 C   0  0  0  0  0  0  0  0  0  0  0  0
   -4.0045   -0.0115    1.3678 C   0  0  0  0  0  0  0  0  0  0  0  0
   -4.8864   -0.0941    2.4177 O   0  0  0  0  0  0  0  0  0  0  0  0
   -4.3810    0.1258    3.7262 C   0  0  0  0  0  0  0  0  0  0  0  0
   -8.4355   -1.3373   -1.9609 H   0  0  0  0  0  0  0  0  0  0  0  0
   -8.0612   -1.9708   -0.3400 H   0  0  0  0  0  0  0  0  0  0  0  0
   -8.4464   -0.2654   -0.5397 H   0  0  0  0  0  0  0  0  0  0  0  0
   -5.9862   -1.6789   -1.6836 H   0  0  0  0  0  0  0  0  0  0  0  0
   -6.3796    0.0632   -1.8869 H   0  0  0  0  0  0  0  0  0  0  0  0
   -4.0938   -0.3386   -2.0386 H   0  0  0  0  0  0  0  0  0  0  0  0
   -1.7344    0.1804   -1.7826 H   0  0  0  0  0  0  0  0  0  0  0  0
   -0.2036    1.6638    0.9429 H   0  0  0  0  0  0  0  0  0  0  0  0
    4.6485   -0.2225    1.0384 H   0  0  0  0  0  0  0  0  0  0  0  0
    6.8826   -0.8321    0.6391 H   0  0  0  0  0  0  0  0  0  0  0  0
    9.1653    0.1387    0.7147 H   0  0  0  0  0  0  0  0  0  0  0  0
    8.2846    2.9054   -2.2068 H   0  0  0  0  0  0  0  0  0  0  0  0
    5.9404    2.0811   -2.4242 H   0  0  0  0  0  0  0  0  0  0  0  0
   -2.2027    0.4669    2.4761 H   0  0  0  0  0  0  0  0  0  0  0  0
   -3.6252   -0.6217    3.9888 H   0  0  0  0  0  0  0  0  0  0  0  0
   -3.9876    1.1421    3.8321 H   0  0  0  0  0  0  0  0  0  0  0  0
   -5.2129    0.0173    4.4288 H   0  0  0  0  0  0  0  0  0  0  0  0
  1  2  1  0
  2  3  1  0
  3  4  1  0
  4  5  2  0
  5  6  1  0
  6  7  2  0
  7  8  1  0
  8  9  2  3
  9 10  1  0
 10 11  1  0
 11 12  2  0
 11 13  1  0
 13 14  1  0
 14 15  1  0
 15 16  2  0
 15 17  1  0
 17 18  2  0
 18 19  1  0
 19 20  2  0
 20 21  1  0
 21 22  2  0
 13 23  1  0
 23 24  2  0
  7 25  1  0
 25 26  2  0
 26 27  1  0
 27 28  1  0
 26  4  1  0
 23  9  1  0
 22 17  1  0
  1 29  1  0
  1 30  1  0
  1 31  1  0
  2 32  1  0
  2 33  1  0
  5 34  1  0
  6 35  1  0
  8 36  1  0
 14 37  1  0
 18 38  1  0
 19 39  1  0
 21 40  1  0
 22 41  1  0
 25 42  1  0
 28 43  1  0
 28 44  1  0
 28 45  1  0
M  END
$$$$
