
     RDKit          3D

 34 35  0  0  0  0  0  0  0  0999 V2000
   -3.5646   -2.7034    0.7057 O   0  0  0  0  0  0  0  0  0  0  0  0
   -3.5565   -1.4684    0.7301 C   0  0  0  0  0  0  0  0  0  0  0  0
   -4.6066   -0.6687    1.5152 C   0  0  0  0  0  0  0  0  0  0  0  0
   -6.1867   -1.4828    1.4504 Cl  0  0  0  0  0  0  0  0  0  0  0  0
   -4.0550   -0.5045    3.1960 Cl  0  0  0  0  0  0  0  0  0  0  0  0
   -2.5648   -0.7529    0.0558 N   0  0  0  0  0  0  0  0  0  0  0  0
   -2.5026    0.7091   -0.0346 C   0  0  0  0  0  0  0  0  0  0  0  0
   -1.3017    1.2246   -0.8524 C   0  0  0  0  0  0  0  0  0  0  0  0
   -0.0547    0.6104   -0.3878 N   0  0  0  0  0  0  0  0  0  0  0  0
    1.1173    1.1574   -1.0844 C   0  0  0  0  0  0  0  0  0  0  0  0
    2.4343    0.7555   -0.4537 C   0  0  0  0  0  0  0  0  0  0  0  0
    2.6883    1.0215    0.9005 C   0  0  0  0  0  0  0  0  0  0  0  0
    3.9074    0.6649    1.4785 C   0  0  0  0  0  0  0  0  0  0  0  0
    4.8885    0.0439    0.7085 C   0  0  0  0  0  0  0  0  0  0  0  0
    4.6518   -0.2205   -0.6393 C   0  0  0  0  0  0  0  0  0  0  0  0
    3.4322    0.1350   -1.2190 C   0  0  0  0  0  0  0  0  0  0  0  0
   -0.1111   -0.8682   -0.4425 C   0  0  0  0  0  0  0  0  0  0  0  0
   -1.5147   -1.4785   -0.6588 C   0  0  0  0  0  0  0  0  0  0  0  0
   -4.7596    0.3292    1.1051 H   0  0  0  0  0  0  0  0  0  0  0  0
   -3.4319    1.0634   -0.4936 H   0  0  0  0  0  0  0  0  0  0  0  0
   -2.4571    1.1037    0.9868 H   0  0  0  0  0  0  0  0  0  0  0  0
   -1.2567    2.3144   -0.7393 H   0  0  0  0  0  0  0  0  0  0  0  0
   -1.4599    1.0148   -1.9185 H   0  0  0  0  0  0  0  0  0  0  0  0
    1.0853    2.2550   -1.0609 H   0  0  0  0  0  0  0  0  0  0  0  0
    1.0962    0.8719   -2.1445 H   0  0  0  0  0  0  0  0  0  0  0  0
    1.9261    1.5011    1.5113 H   0  0  0  0  0  0  0  0  0  0  0  0
    4.0891    0.8701    2.5301 H   0  0  0  0  0  0  0  0  0  0  0  0
    5.8373   -0.2347    1.1593 H   0  0  0  0  0  0  0  0  0  0  0  0
    5.4181   -0.7041   -1.2394 H   0  0  0  0  0  0  0  0  0  0  0  0
    3.2666   -0.0784   -2.2723 H   0  0  0  0  0  0  0  0  0  0  0  0
    0.5394   -1.2732   -1.2280 H   0  0  0  0  0  0  0  0  0  0  0  0
    0.2797   -1.2379    0.5135 H   0  0  0  0  0  0  0  0  0  0  0  0
   -1.7768   -1.4337   -1.7233 H   0  0  0  0  0  0  0  0  0  0  0  0
   -1.4967   -2.5361   -0.3767 H   0  0  0  0  0  0  0  0  0  0  0  0
  1  2  2  0
  2  3  1  0
  3  4  1  0
  3  5  1  0
  2  6  1  0
  6  7  1  0
  7  8  1  0
  8  9  1  0
  9 10  1  0
 10 11  1  0
 11 12  2  0
 12 13  1  0
 13 14  2  0
 14 15  1  0
 15 16  2  0
  9 17  1  0
 17 18  1  0
 18  6  1  0
 16 11  1  0
  3 19  1  0
  7 20  1  0
  7 21  1  0
  8 22  1  0
  8 23  1  0
 10 24  1  0
 10 25  1  0
 12 26  1  0
 13 27  1  0
 14 28  1  0
 15 29  1  0
 16 30  1  0
 17 31  1  0
 17 32  1  0
 18 33  1  0
 18 34  1  0
M  END
$$$$
