
     RDKit          3D

 32 32  0  0  0  0  0  0  0  0999 V2000
   -2.0111   -0.8261   -4.6176 C   0  0  0  0  0  0  0  0  0  0  0  0
   -2.3853   -1.0736   -3.5032 C   0  0  0  0  0  0  0  0  0  0  0  0
   -2.8498   -1.3817   -2.1395 C   0  0  0  0  0  0  0  0  0  0  0  0
   -2.5694   -0.2779   -1.2001 N   0  0  0  0  0  0  0  0  0  0  0  0
   -3.3652   -0.4666    0.0137 C   0  0  0  0  0  0  0  0  0  0  0  0
   -1.1223   -0.1997   -0.9043 C   0  0  0  0  0  0  0  0  0  0  0  0
   -0.7060    1.0643   -0.1304 C   0  0  0  0  0  0  0  0  0  0  0  0
   -0.5014    0.8381    1.3677 C   0  0  0  0  0  0  0  0  0  0  0  0
    0.4776   -0.1694    1.6203 O   0  0  0  0  0  0  0  0  0  0  0  0
    1.8043    0.1588    1.6817 C   0  0  0  0  0  0  0  0  0  0  0  0
    2.3249    1.4384    1.4661 C   0  0  0  0  0  0  0  0  0  0  0  0
    3.7034    1.6660    1.5504 C   0  0  0  0  0  0  0  0  0  0  0  0
    4.5682    0.6161    1.8492 C   0  0  0  0  0  0  0  0  0  0  0  0
    6.2604    0.9066    1.9504 Cl  0  0  0  0  0  0  0  0  0  0  0  0
    4.0715   -0.6641    2.0636 C   0  0  0  0  0  0  0  0  0  0  0  0
    2.6953   -0.8893    1.9785 C   0  0  0  0  0  0  0  0  0  0  0  0
    2.1261   -2.5018    2.2485 Cl  0  0  0  0  0  0  0  0  0  0  0  0
   -1.6798   -0.5995   -5.6044 H   0  0  0  0  0  0  0  0  0  0  0  0
   -3.9333   -1.5461   -2.2052 H   0  0  0  0  0  0  0  0  0  0  0  0
   -2.4091   -2.3225   -1.7864 H   0  0  0  0  0  0  0  0  0  0  0  0
   -3.3103    0.4158    0.6576 H   0  0  0  0  0  0  0  0  0  0  0  0
   -4.4281   -0.5813   -0.2298 H   0  0  0  0  0  0  0  0  0  0  0  0
   -3.0487   -1.3464    0.5851 H   0  0  0  0  0  0  0  0  0  0  0  0
   -0.5769   -0.1542   -1.8552 H   0  0  0  0  0  0  0  0  0  0  0  0
   -0.7764   -1.1106   -0.3999 H   0  0  0  0  0  0  0  0  0  0  0  0
    0.2389    1.4146   -0.5632 H   0  0  0  0  0  0  0  0  0  0  0  0
   -1.4301    1.8724   -0.2883 H   0  0  0  0  0  0  0  0  0  0  0  0
   -1.4291    0.4779    1.8214 H   0  0  0  0  0  0  0  0  0  0  0  0
   -0.2716    1.7725    1.8917 H   0  0  0  0  0  0  0  0  0  0  0  0
    1.6919    2.2853    1.2232 H   0  0  0  0  0  0  0  0  0  0  0  0
    4.0939    2.6667    1.3795 H   0  0  0  0  0  0  0  0  0  0  0  0
    4.7474   -1.4827    2.2945 H   0  0  0  0  0  0  0  0  0  0  0  0
  1  2  3  0
  2  3  1  0
  3  4  1  0
  4  5  1  0
  4  6  1  0
  6  7  1  0
  7  8  1  0
  8  9  1  0
  9 10  1  0
 10 11  2  0
 11 12  1  0
 12 13  2  0
 13 14  1  0
 13 15  1  0
 15 16  2  0
 16 17  1  0
 16 10  1  0
  1 18  1  0
  3 19  1  0
  3 20  1  0
  5 21  1  0
  5 22  1  0
  5 23  1  0
  6 24  1  0
  6 25  1  0
  7 26  1  0
  7 27  1  0
  8 28  1  0
  8 29  1  0
 11 30  1  0
 12 31  1  0
 15 32  1  0
M  END
$$$$
