
     RDKit          3D

 72 74  0  0  0  0  0  0  0  0999 V2000
   -4.7475    3.1819    5.2750 C   0  0  0  0  0  0  0  0  0  0  0  0
   -3.5156    2.4960    5.4580 O   0  0  0  0  0  0  0  0  0  0  0  0
   -3.0317    1.7965    4.3874 C   0  0  0  0  0  0  0  0  0  0  0  0
   -1.8426    1.1088    4.6302 C   0  0  0  0  0  0  0  0  0  0  0  0
   -1.2397    0.3499    3.6248 C   0  0  0  0  0  0  0  0  0  0  0  0
   -1.8206    0.2595    2.3499 C   0  0  0  0  0  0  0  0  0  0  0  0
   -1.1245   -0.5793    1.2803 C   0  0  0  0  0  0  0  0  0  0  0  0
   -2.0829   -1.0957    0.1647 C   0  0  0  0  0  0  0  0  0  0  0  0
   -2.0690   -0.6676   -0.9874 O   0  0  0  0  0  0  0  0  0  0  0  0
   -2.9861   -2.0539    0.6027 N   0  0  0  0  0  0  0  0  0  0  0  0
   -3.9615   -2.7460   -0.2520 C   0  0  0  0  0  0  0  0  0  0  0  0
   -4.7756   -3.7031    0.6386 C   0  0  0  0  0  0  0  0  0  0  0  0
   -3.2482   -3.5718   -1.3339 C   0  0  0  0  0  0  0  0  0  0  0  0
   -4.9368   -1.7508   -0.9012 C   0  0  0  0  0  0  0  0  0  0  0  0
    0.1037    0.0452    0.7382 N   0  0  0  0  0  0  0  0  0  0  0  0
    0.1332    1.4887    0.4292 C   0  0  0  0  0  0  0  0  0  0  0  0
   -0.3024    1.8507   -0.9997 C   0  0  0  0  0  0  0  0  0  0  0  0
   -1.6546    2.5396   -1.0906 C   0  0  0  0  0  0  0  0  0  0  0  0
   -1.5447    3.2346   -2.4250 C   0  0  0  0  0  0  0  0  0  0  0  0
   -0.0969    3.6798   -2.4403 C   0  0  0  0  0  0  0  0  0  0  0  0
    0.6278    2.8032   -1.5655 O   0  0  0  0  0  0  0  0  0  0  0  0
    1.0927   -0.8378    0.3069 C   0  0  0  0  0  0  0  0  0  0  0  0
    0.9601   -2.0589    0.4180 O   0  0  0  0  0  0  0  0  0  0  0  0
    2.3663   -0.2442   -0.2703 C   0  0  0  0  0  0  0  0  0  0  0  0
    3.3215   -1.3371   -0.7423 C   0  0  0  0  0  0  0  0  0  0  0  0
    4.6544   -0.7754   -1.1944 C   0  0  0  0  0  0  0  0  0  0  0  0
    4.9484    0.4085   -1.0691 O   0  0  0  0  0  0  0  0  0  0  0  0
    5.4637   -1.7534   -1.7264 N   0  0  0  0  0  0  0  0  0  0  0  0
    6.7440   -1.5577   -2.1941 C   0  0  0  0  0  0  0  0  0  0  0  0
    7.5171   -0.3765   -2.2301 C   0  0  0  0  0  0  0  0  0  0  0  0
    8.7102   -0.7614   -2.7875 C   0  0  0  0  0  0  0  0  0  0  0  0
    9.9633   -0.0636   -3.1201 C   0  0  0  0  0  0  0  0  0  0  0  0
    8.6588   -2.0887   -3.0769 O   0  0  0  0  0  0  0  0  0  0  0  0
    7.4266   -2.5916   -2.6996 N   0  0  0  0  0  0  0  0  0  0  0  0
   -3.0089    0.9663    2.1099 C   0  0  0  0  0  0  0  0  0  0  0  0
   -3.6108    1.7256    3.1212 C   0  0  0  0  0  0  0  0  0  0  0  0
   -5.5564    2.4840    5.0331 H   0  0  0  0  0  0  0  0  0  0  0  0
   -5.0022    3.6709    6.2202 H   0  0  0  0  0  0  0  0  0  0  0  0
   -4.6545    3.9611    4.5113 H   0  0  0  0  0  0  0  0  0  0  0  0
   -1.3787    1.1666    5.6126 H   0  0  0  0  0  0  0  0  0  0  0  0
   -0.3067   -0.1683    3.8414 H   0  0  0  0  0  0  0  0  0  0  0  0
   -0.8080   -1.4965    1.8003 H   0  0  0  0  0  0  0  0  0  0  0  0
   -2.8298   -2.4380    1.5275 H   0  0  0  0  0  0  0  0  0  0  0  0
   -5.2976   -3.1546    1.4316 H   0  0  0  0  0  0  0  0  0  0  0  0
   -4.1252   -4.4390    1.1264 H   0  0  0  0  0  0  0  0  0  0  0  0
   -5.5260   -4.2511    0.0582 H   0  0  0  0  0  0  0  0  0  0  0  0
   -2.5218   -4.2598   -0.8869 H   0  0  0  0  0  0  0  0  0  0  0  0
   -2.7052   -2.9361   -2.0411 H   0  0  0  0  0  0  0  0  0  0  0  0
   -3.9640   -4.1664   -1.9122 H   0  0  0  0  0  0  0  0  0  0  0  0
   -5.4092   -1.1140   -0.1439 H   0  0  0  0  0  0  0  0  0  0  0  0
   -5.7320   -2.2735   -1.4453 H   0  0  0  0  0  0  0  0  0  0  0  0
   -4.4363   -1.0903   -1.6168 H   0  0  0  0  0  0  0  0  0  0  0  0
   -0.4507    2.0384    1.1721 H   0  0  0  0  0  0  0  0  0  0  0  0
    1.1614    1.8330    0.5858 H   0  0  0  0  0  0  0  0  0  0  0  0
   -0.2693    0.9746   -1.6575 H   0  0  0  0  0  0  0  0  0  0  0  0
   -2.5023    1.8544   -1.0369 H   0  0  0  0  0  0  0  0  0  0  0  0
   -1.7676    3.2909   -0.2999 H   0  0  0  0  0  0  0  0  0  0  0  0
   -2.2470    4.0633   -2.5503 H   0  0  0  0  0  0  0  0  0  0  0  0
   -1.7217    2.5166   -3.2354 H   0  0  0  0  0  0  0  0  0  0  0  0
    0.0107    4.6986   -2.0551 H   0  0  0  0  0  0  0  0  0  0  0  0
    0.3394    3.6382   -3.4419 H   0  0  0  0  0  0  0  0  0  0  0  0
    2.1219    0.4048   -1.1159 H   0  0  0  0  0  0  0  0  0  0  0  0
    2.8483    0.3552    0.5103 H   0  0  0  0  0  0  0  0  0  0  0  0
    3.5200   -2.0470    0.0700 H   0  0  0  0  0  0  0  0  0  0  0  0
    2.8697   -1.8923   -1.5731 H   0  0  0  0  0  0  0  0  0  0  0  0
    5.1378   -2.7067   -1.8065 H   0  0  0  0  0  0  0  0  0  0  0  0
    7.2486    0.6156   -1.9013 H   0  0  0  0  0  0  0  0  0  0  0  0
   10.7603   -0.3639   -2.4327 H   0  0  0  0  0  0  0  0  0  0  0  0
   10.2817   -0.3003   -4.1405 H   0  0  0  0  0  0  0  0  0  0  0  0
    9.8397    1.0213   -3.0467 H   0  0  0  0  0  0  0  0  0  0  0  0
   -3.4885    0.9389    1.1327 H   0  0  0  0  0  0  0  0  0  0  0  0
   -4.5298    2.2514    2.8839 H   0  0  0  0  0  0  0  0  0  0  0  0
  1  2  1  0
  2  3  1  0
  3  4  2  0
  4  5  1  0
  5  6  2  0
  6  7  1  0
  7  8  1  0
  8  9  2  0
  8 10  1  0
 10 11  1  0
 11 12  1  0
 11 13  1  0
 11 14  1  0
  7 15  1  0
 15 16  1  0
 16 17  1  0
 17 18  1  0
 18 19  1  0
 19 20  1  0
 20 21  1  0
 15 22  1  0
 22 23  2  0
 22 24  1  0
 24 25  1  0
 25 26  1  0
 26 27  2  0
 26 28  1  0
 28 29  1  0
 29 30  1  0
 30 31  2  0
 31 32  1  0
 31 33  1  0
 33 34  1  0
  6 35  1  0
 35 36  2  0
 36  3  1  0
 21 17  1  0
 34 29  2  0
  1 37  1  0
  1 38  1  0
  1 39  1  0
  4 40  1  0
  5 41  1  0
  7 42  1  0
 10 43  1  0
 12 44  1  0
 12 45  1  0
 12 46  1  0
 13 47  1  0
 13 48  1  0
 13 49  1  0
 14 50  1  0
 14 51  1  0
 14 52  1  0
 16 53  1  0
 16 54  1  0
 17 55  1  0
 18 56  1  0
 18 57  1  0
 19 58  1  0
 19 59  1  0
 20 60  1  0
 20 61  1  0
 24 62  1  0
 24 63  1  0
 25 64  1  0
 25 65  1  0
 28 66  1  0
 30 67  1  0
 32 68  1  0
 32 69  1  0
 32 70  1  0
 35 71  1  0
 36 72  1  0
M  END
$$$$
