
     RDKit          3D

 64 67  0  0  0  0  0  0  0  0999 V2000
    7.1748   -1.5513   -6.7880 C   0  0  0  0  0  0  0  0  0  0  0  0
    5.8128   -1.3062   -6.2820 C   0  0  0  0  0  0  0  0  0  0  0  0
    5.2735   -1.1220   -5.0338 C   0  0  0  0  0  0  0  0  0  0  0  0
    3.8952   -0.9159   -5.2671 C   0  0  0  0  0  0  0  0  0  0  0  0
    2.8827   -0.6582   -4.3686 N   0  0  0  0  0  0  0  0  0  0  0  0
    3.0425   -0.5343   -3.0064 C   0  0  0  0  0  0  0  0  0  0  0  0
    4.0954   -0.6773   -2.3920 O   0  0  0  0  0  0  0  0  0  0  0  0
    1.7432   -0.1679   -2.3186 C   0  0  0  0  0  0  0  0  0  0  0  0
    1.9103   -0.0738   -0.8043 C   0  0  0  0  0  0  0  0  0  0  0  0
    0.6159    0.3852   -0.1489 C   0  0  0  0  0  0  0  0  0  0  0  0
   -0.1794    1.0749   -0.7922 O   0  0  0  0  0  0  0  0  0  0  0  0
    0.3504   -0.0560    1.1488 N   0  0  0  0  0  0  0  0  0  0  0  0
    1.3411   -0.5511    2.0478 C   0  0  0  0  0  0  0  0  0  0  0  0
    2.5744    0.0853    2.2041 C   0  0  0  0  0  0  0  0  0  0  0  0
    3.4950   -0.4004    3.1316 C   0  0  0  0  0  0  0  0  0  0  0  0
    3.1493   -1.5083    3.8883 C   0  0  0  0  0  0  0  0  0  0  0  0
    1.9653   -2.1471    3.7789 N   0  0  0  0  0  0  0  0  0  0  0  0
    1.0974   -1.6606    2.8601 C   0  0  0  0  0  0  0  0  0  0  0  0
   -0.9983    0.2003    1.7106 C   0  0  0  0  0  0  0  0  0  0  0  0
   -2.1153   -0.4694    0.8614 C   0  0  0  0  0  0  0  0  0  0  0  0
   -1.8898   -1.4208    0.1100 O   0  0  0  0  0  0  0  0  0  0  0  0
   -3.4044   -0.0284    1.1029 N   0  0  0  0  0  0  0  0  0  0  0  0
   -4.5579   -0.6397    0.4647 C   0  0  0  0  0  0  0  0  0  0  0  0
   -5.7678    0.2887    0.4949 C   0  0  0  0  0  0  0  0  0  0  0  0
   -6.3635    0.1051    1.8891 C   0  0  0  0  0  0  0  0  0  0  0  0
   -5.9007   -1.2690    2.3728 C   0  0  0  0  0  0  0  0  0  0  0  0
   -5.0546   -1.8551    1.2454 C   0  0  0  0  0  0  0  0  0  0  0  0
   -1.1985    1.6606    2.1240 C   0  0  0  0  0  0  0  0  0  0  0  0
   -1.7298    2.6304    1.2599 C   0  0  0  0  0  0  0  0  0  0  0  0
   -1.8959    3.9513    1.6825 C   0  0  0  0  0  0  0  0  0  0  0  0
   -1.5256    4.3271    2.9705 C   0  0  0  0  0  0  0  0  0  0  0  0
   -0.9807    3.3836    3.8378 C   0  0  0  0  0  0  0  0  0  0  0  0
   -0.8129    2.0632    3.4169 C   0  0  0  0  0  0  0  0  0  0  0  0
    3.6177   -0.9791   -6.5747 N   0  0  0  0  0  0  0  0  0  0  0  0
    4.8248   -1.2132   -7.2090 O   0  0  0  0  0  0  0  0  0  0  0  0
    7.4922   -0.7363   -7.4481 H   0  0  0  0  0  0  0  0  0  0  0  0
    7.8905   -1.6201   -5.9629 H   0  0  0  0  0  0  0  0  0  0  0  0
    7.2113   -2.4897   -7.3531 H   0  0  0  0  0  0  0  0  0  0  0  0
    5.8068   -1.1226   -4.0943 H   0  0  0  0  0  0  0  0  0  0  0  0
    1.9759   -0.5222   -4.7959 H   0  0  0  0  0  0  0  0  0  0  0  0
    0.9850   -0.9226   -2.5618 H   0  0  0  0  0  0  0  0  0  0  0  0
    1.4083    0.7933   -2.7294 H   0  0  0  0  0  0  0  0  0  0  0  0
    2.2091   -1.0540   -0.4217 H   0  0  0  0  0  0  0  0  0  0  0  0
    2.6918    0.6546   -0.5707 H   0  0  0  0  0  0  0  0  0  0  0  0
    2.8187    0.9856    1.6494 H   0  0  0  0  0  0  0  0  0  0  0  0
    4.4564    0.0853    3.2703 H   0  0  0  0  0  0  0  0  0  0  0  0
    3.8321   -1.9180    4.6258 H   0  0  0  0  0  0  0  0  0  0  0  0
    0.1753   -2.2324    2.7774 H   0  0  0  0  0  0  0  0  0  0  0  0
   -1.0899   -0.3666    2.6481 H   0  0  0  0  0  0  0  0  0  0  0  0
   -3.5606    0.6637    1.8271 H   0  0  0  0  0  0  0  0  0  0  0  0
   -4.2862   -0.9116   -0.5616 H   0  0  0  0  0  0  0  0  0  0  0  0
   -5.5192    1.3359    0.2913 H   0  0  0  0  0  0  0  0  0  0  0  0
   -6.4979   -0.0366   -0.2567 H   0  0  0  0  0  0  0  0  0  0  0  0
   -7.4582    0.1770    1.8689 H   0  0  0  0  0  0  0  0  0  0  0  0
   -5.9971    0.8844    2.5694 H   0  0  0  0  0  0  0  0  0  0  0  0
   -6.7488   -1.9165    2.6127 H   0  0  0  0  0  0  0  0  0  0  0  0
   -5.3013   -1.1578    3.2858 H   0  0  0  0  0  0  0  0  0  0  0  0
   -4.2511   -2.4928    1.6273 H   0  0  0  0  0  0  0  0  0  0  0  0
   -5.6935   -2.4702    0.5999 H   0  0  0  0  0  0  0  0  0  0  0  0
   -2.0186    2.3710    0.2412 H   0  0  0  0  0  0  0  0  0  0  0  0
   -2.3093    4.6909    1.0002 H   0  0  0  0  0  0  0  0  0  0  0  0
   -1.6570    5.3568    3.2895 H   0  0  0  0  0  0  0  0  0  0  0  0
   -0.6798    3.6706    4.8422 H   0  0  0  0  0  0  0  0  0  0  0  0
   -0.3715    1.3505    4.1120 H   0  0  0  0  0  0  0  0  0  0  0  0
  1  2  1  0
  2  3  2  0
  3  4  1  0
  4  5  1  0
  5  6  1  0
  6  7  2  0
  6  8  1  0
  8  9  1  0
  9 10  1  0
 10 11  2  0
 10 12  1  0
 12 13  1  0
 13 14  2  0
 14 15  1  0
 15 16  2  0
 16 17  1  0
 17 18  2  0
 12 19  1  0
 19 20  1  0
 20 21  2  0
 20 22  1  0
 22 23  1  0
 23 24  1  0
 24 25  1  0
 25 26  1  0
 26 27  1  0
 19 28  1  0
 28 29  2  0
 29 30  1  0
 30 31  2  0
 31 32  1  0
 32 33  2  0
  4 34  2  0
 34 35  1  0
 35  2  1  0
 18 13  1  0
 27 23  1  0
 33 28  1  0
  1 36  1  0
  1 37  1  0
  1 38  1  0
  3 39  1  0
  5 40  1  0
  8 41  1  0
  8 42  1  0
  9 43  1  0
  9 44  1  0
 14 45  1  0
 15 46  1  0
 16 47  1  0
 18 48  1  0
 19 49  1  0
 22 50  1  0
 23 51  1  0
 24 52  1  0
 24 53  1  0
 25 54  1  0
 25 55  1  0
 26 56  1  0
 26 57  1  0
 27 58  1  0
 27 59  1  0
 29 60  1  0
 30 61  1  0
 31 62  1  0
 32 63  1  0
 33 64  1  0
M  END
$$$$
