
     RDKit          3D

 40 42  0  0  0  0  0  0  0  0999 V2000
   -7.1474    1.0790    0.5388 C   0  0  0  0  0  0  0  0  0  0  0  0
   -6.4886   -0.0486   -0.6683 S   0  0  0  0  0  6  0  0  0  0  0  0
   -7.5703   -0.9074   -1.1014 O   0  0  0  0  0  0  0  0  0  0  0  0
   -5.6850    0.6980   -1.6086 O   0  0  0  0  0  0  0  0  0  0  0  0
   -5.5083   -1.0229    0.3159 N   0  0  0  0  0  0  0  0  0  0  0  0
   -4.0978   -0.9244    0.1277 C   0  0  0  0  0  0  0  0  0  0  0  0
   -3.4350   -1.8965   -0.6218 C   0  0  0  0  0  0  0  0  0  0  0  0
   -2.0582   -1.7904   -0.8354 C   0  0  0  0  0  0  0  0  0  0  0  0
   -1.3411   -0.7118   -0.3011 C   0  0  0  0  0  0  0  0  0  0  0  0
    0.1277   -0.6397   -0.5545 C   0  0  0  0  0  0  0  0  0  0  0  0
    0.5561   -1.0999   -1.6052 O   0  0  0  0  0  0  0  0  0  0  0  0
    0.8705   -0.0862    0.4732 N   0  0  0  0  0  0  0  0  0  0  0  0
    2.2628    0.1466    0.4935 C   0  0  0  0  0  0  0  0  0  0  0  0
    2.8083    0.6354    1.6902 C   0  0  0  0  0  0  0  0  0  0  0  0
    4.1754    0.9066    1.7953 C   0  0  0  0  0  0  0  0  0  0  0  0
    5.0075    0.6967    0.7013 C   0  0  0  0  0  0  0  0  0  0  0  0
    4.4776    0.1887   -0.4876 C   0  0  0  0  0  0  0  0  0  0  0  0
    3.1087   -0.0703   -0.5967 C   0  0  0  0  0  0  0  0  0  0  0  0
    5.2442   -0.0706   -1.5966 O   0  0  0  0  0  0  0  0  0  0  0  0
    6.6376   -0.1081   -1.2714 C   0  0  0  0  0  0  0  0  0  0  0  0
    7.0127    1.0735   -0.3930 C   0  0  0  0  0  0  0  0  0  0  0  0
    6.3332    1.0045    0.8663 O   0  0  0  0  0  0  0  0  0  0  0  0
   -2.0190    0.2795    0.4217 C   0  0  0  0  0  0  0  0  0  0  0  0
   -3.3969    0.1700    0.6356 C   0  0  0  0  0  0  0  0  0  0  0  0
   -7.8583    1.7355    0.0321 H   0  0  0  0  0  0  0  0  0  0  0  0
   -7.6598    0.5089    1.3159 H   0  0  0  0  0  0  0  0  0  0  0  0
   -6.3325    1.6710    0.9580 H   0  0  0  0  0  0  0  0  0  0  0  0
   -5.8768   -1.9765    0.2851 H   0  0  0  0  0  0  0  0  0  0  0  0
   -3.9760   -2.7320   -1.0574 H   0  0  0  0  0  0  0  0  0  0  0  0
   -1.5449   -2.5467   -1.4271 H   0  0  0  0  0  0  0  0  0  0  0  0
    0.3833    0.1148    1.3358 H   0  0  0  0  0  0  0  0  0  0  0  0
    2.1791    0.8142    2.5581 H   0  0  0  0  0  0  0  0  0  0  0  0
    4.5870    1.2906    2.7244 H   0  0  0  0  0  0  0  0  0  0  0  0
    2.7360   -0.4454   -1.5442 H   0  0  0  0  0  0  0  0  0  0  0  0
    6.8556   -1.0626   -0.7764 H   0  0  0  0  0  0  0  0  0  0  0  0
    7.1986   -0.0748   -2.2106 H   0  0  0  0  0  0  0  0  0  0  0  0
    8.0881    1.0679   -0.1898 H   0  0  0  0  0  0  0  0  0  0  0  0
    6.7603    2.0272   -0.8730 H   0  0  0  0  0  0  0  0  0  0  0  0
   -1.5004    1.1595    0.7920 H   0  0  0  0  0  0  0  0  0  0  0  0
   -3.9142    0.9465    1.1909 H   0  0  0  0  0  0  0  0  0  0  0  0
  1  2  1  0
  2  3  2  0
  2  4  2  0
  2  5  1  0
  5  6  1  0
  6  7  2  0
  7  8  1  0
  8  9  2  0
  9 10  1  0
 10 11  2  0
 10 12  1  0
 12 13  1  0
 13 14  2  0
 14 15  1  0
 15 16  2  0
 16 17  1  0
 17 18  2  0
 17 19  1  0
 19 20  1  0
 20 21  1  0
 21 22  1  0
  9 23  1  0
 23 24  2  0
 24  6  1  0
 18 13  1  0
 22 16  1  0
  1 25  1  0
  1 26  1  0
  1 27  1  0
  5 28  1  0
  7 29  1  0
  8 30  1  0
 12 31  1  0
 14 32  1  0
 15 33  1  0
 18 34  1  0
 20 35  1  0
 20 36  1  0
 21 37  1  0
 21 38  1  0
 23 39  1  0
 24 40  1  0
M  END
$$$$
