
     RDKit          3D

 46 48  0  0  0  0  0  0  0  0999 V2000
    3.8999    2.8665   -2.0812 C   0  0  0  0  0  0  0  0  0  0  0  0
    2.6041    2.2327   -2.5622 C   0  0  0  0  0  0  0  0  0  0  0  0
    2.0535    1.1257   -1.6231 N   0  0  0  0  0  4  0  0  0  0  0  0
    3.0600   -0.0192   -1.5211 C   0  0  0  0  0  0  0  0  0  0  0  0
    0.7802    0.5974   -2.2898 C   0  0  0  0  0  0  0  0  0  0  0  0
    1.7485    1.7301   -0.2317 C   0  0  0  0  0  0  0  0  0  0  0  0
    1.0561    0.7921    0.7786 C   0  0  0  0  0  0  0  0  0  0  0  0
   -0.4433    0.6915    0.6284 C   0  0  0  0  0  0  0  0  0  0  0  0
   -1.2562   -0.3643    0.8709 C   0  0  0  0  0  0  0  0  0  0  0  0
   -2.7220   -0.0936    0.8908 C   0  0  0  0  0  0  0  0  0  0  0  0
   -3.3784    0.5482   -0.1708 C   0  0  0  0  0  0  0  0  0  0  0  0
   -4.7532    0.7843   -0.1105 C   0  0  0  0  0  0  0  0  0  0  0  0
   -5.4840    0.3778    1.0039 C   0  0  0  0  0  0  0  0  0  0  0  0
   -4.8461   -0.2762    2.0586 C   0  0  0  0  0  0  0  0  0  0  0  0
   -3.4700   -0.5255    2.0054 C   0  0  0  0  0  0  0  0  0  0  0  0
   -2.7025   -1.3867    3.3803 S   0  0  0  0  0  0  0  0  0  0  0  0
   -1.3492   -2.2102    2.5415 C   0  0  0  0  0  0  0  0  0  0  0  0
   -0.8963   -3.4342    3.0523 C   0  0  0  0  0  0  0  0  0  0  0  0
    0.1116   -4.1425    2.3955 C   0  0  0  0  0  0  0  0  0  0  0  0
    0.6502   -3.6357    1.2176 C   0  0  0  0  0  0  0  0  0  0  0  0
    1.8757   -4.5070    0.3821 Cl  0  0  0  0  0  0  0  0  0  0  0  0
    0.2089   -2.4177    0.7007 C   0  0  0  0  0  0  0  0  0  0  0  0
   -0.7612   -1.6704    1.3791 C   0  0  0  0  0  0  0  0  0  0  0  0
    4.7033    2.1338   -1.9697 H   0  0  0  0  0  0  0  0  0  0  0  0
    4.2366    3.6042   -2.8178 H   0  0  0  0  0  0  0  0  0  0  0  0
    3.7733    3.3983   -1.1346 H   0  0  0  0  0  0  0  0  0  0  0  0
    1.8196    2.9930   -2.6537 H   0  0  0  0  0  0  0  0  0  0  0  0
    2.7584    1.7722   -3.5451 H   0  0  0  0  0  0  0  0  0  0  0  0
    3.9112    0.3095   -0.9201 H   0  0  0  0  0  0  0  0  0  0  0  0
    2.5770   -0.8752   -1.0450 H   0  0  0  0  0  0  0  0  0  0  0  0
    3.3784   -0.2905   -2.5319 H   0  0  0  0  0  0  0  0  0  0  0  0
    0.0313    1.3945   -2.2876 H   0  0  0  0  0  0  0  0  0  0  0  0
    0.4273   -0.2790   -1.7455 H   0  0  0  0  0  0  0  0  0  0  0  0
    1.0234    0.3056   -3.3164 H   0  0  0  0  0  0  0  0  0  0  0  0
    2.7141    2.0263    0.1916 H   0  0  0  0  0  0  0  0  0  0  0  0
    1.1541    2.6361   -0.4004 H   0  0  0  0  0  0  0  0  0  0  0  0
    1.2213    1.2343    1.7708 H   0  0  0  0  0  0  0  0  0  0  0  0
    1.5549   -0.1762    0.8047 H   0  0  0  0  0  0  0  0  0  0  0  0
   -0.9188    1.6513    0.4132 H   0  0  0  0  0  0  0  0  0  0  0  0
   -2.8336    0.8619   -1.0560 H   0  0  0  0  0  0  0  0  0  0  0  0
   -5.2598    1.2826   -0.9341 H   0  0  0  0  0  0  0  0  0  0  0  0
   -6.5553    0.5624    1.0506 H   0  0  0  0  0  0  0  0  0  0  0  0
   -5.4332   -0.5954    2.9174 H   0  0  0  0  0  0  0  0  0  0  0  0
   -1.3362   -3.8519    3.9563 H   0  0  0  0  0  0  0  0  0  0  0  0
    0.4523   -5.0935    2.7983 H   0  0  0  0  0  0  0  0  0  0  0  0
    0.6143   -2.0676   -0.2401 H   0  0  0  0  0  0  0  0  0  0  0  0
  1  2  1  0
  2  3  1  0
  3  4  1  0
  3  5  1  0
  3  6  1  0
  6  7  1  0
  7  8  1  0
  8  9  2  3
  9 10  1  0
 10 11  2  0
 11 12  1  0
 12 13  2  0
 13 14  1  0
 14 15  2  0
 15 16  1  0
 16 17  1  0
 17 18  2  0
 18 19  1  0
 19 20  2  0
 20 21  1  0
 20 22  1  0
 22 23  2  0
 23  9  1  0
 15 10  1  0
 23 17  1  0
  1 24  1  0
  1 25  1  0
  1 26  1  0
  2 27  1  0
  2 28  1  0
  4 29  1  0
  4 30  1  0
  4 31  1  0
  5 32  1  0
  5 33  1  0
  5 34  1  0
  6 35  1  0
  6 36  1  0
  7 37  1  0
  7 38  1  0
  8 39  1  0
 11 40  1  0
 12 41  1  0
 13 42  1  0
 14 43  1  0
 18 44  1  0
 19 45  1  0
 22 46  1  0
M  CHG  1   3   1
M  END
$$$$
