
     RDKit          3D

 42 45  0  0  0  0  0  0  0  0999 V2000
    4.3651    0.1490   -1.8343 O   0  0  0  0  0  0  0  0  0  0  0  0
    3.5691   -0.0655   -0.9236 C   0  0  0  0  0  0  0  0  0  0  0  0
    4.0552    0.0873    0.4654 C   0  0  0  0  0  0  0  0  0  0  0  0
    4.7184    1.2691    0.8207 C   0  0  0  0  0  0  0  0  0  0  0  0
    5.2072    1.4306    2.1186 C   0  0  0  0  0  0  0  0  0  0  0  0
    5.0450    0.4064    3.0516 C   0  0  0  0  0  0  0  0  0  0  0  0
    4.4069   -0.7731    2.6775 C   0  0  0  0  0  0  0  0  0  0  0  0
    4.2663   -1.7575    3.5746 F   0  0  0  0  0  0  0  0  0  0  0  0
    3.9155   -0.9498    1.3903 C   0  0  0  0  0  0  0  0  0  0  0  0
    2.2474   -0.4408   -1.1419 N   0  0  0  0  0  0  0  0  0  0  0  0
    1.8338   -0.7021   -2.5236 C   0  0  0  0  0  0  0  0  0  0  0  0
    0.5192   -1.4823   -2.6079 C   0  0  0  0  0  0  0  0  0  0  0  0
   -0.5672   -0.8316   -1.8720 N   0  0  0  0  0  0  0  0  0  0  0  0
   -1.8786   -1.2242   -2.1609 C   0  0  0  0  0  0  0  0  0  0  0  0
   -2.1122   -2.1443   -2.9443 O   0  0  0  0  0  0  0  0  0  0  0  0
   -2.9706   -0.4757   -1.5141 C   0  0  0  0  0  0  0  0  0  0  0  0
   -3.1472    0.9301   -1.4793 C   0  0  0  0  0  0  0  0  0  0  0  0
   -4.3136    1.1435   -0.7866 C   0  0  0  0  0  0  0  0  0  0  0  0
   -4.9709    2.2924   -0.4434 N   0  0  0  0  0  0  0  0  0  0  0  0
   -6.0904    2.1270    0.2008 C   0  0  0  0  0  0  0  0  0  0  0  0
   -6.6981    0.8181    0.5935 C   0  0  0  0  0  0  0  0  0  0  0  0
   -8.3007    0.7923    1.5126 Br  0  0  0  0  0  0  0  0  0  0  0  0
   -5.9969   -0.2646    0.2347 C   0  0  0  0  0  0  0  0  0  0  0  0
   -4.8006   -0.1233   -0.4565 N   0  0  0  0  0  0  0  0  0  0  0  0
   -3.9751   -1.1053   -0.8797 N   0  0  0  0  0  0  0  0  0  0  0  0
   -0.1828    0.0002   -0.7245 C   0  0  0  0  0  0  0  0  0  0  0  0
    1.1810   -0.3931   -0.1320 C   0  0  0  0  0  0  0  0  0  0  0  0
    4.8580    2.0578    0.0838 H   0  0  0  0  0  0  0  0  0  0  0  0
    5.7206    2.3476    2.3975 H   0  0  0  0  0  0  0  0  0  0  0  0
    5.4231    0.5139    4.0638 H   0  0  0  0  0  0  0  0  0  0  0  0
    3.4490   -1.8907    1.1194 H   0  0  0  0  0  0  0  0  0  0  0  0
    2.6304   -1.2445   -3.0450 H   0  0  0  0  0  0  0  0  0  0  0  0
    1.7224    0.2742   -3.0116 H   0  0  0  0  0  0  0  0  0  0  0  0
    0.2246   -1.6119   -3.6552 H   0  0  0  0  0  0  0  0  0  0  0  0
    0.6461   -2.4809   -2.1720 H   0  0  0  0  0  0  0  0  0  0  0  0
   -2.5161    1.6907   -1.9153 H   0  0  0  0  0  0  0  0  0  0  0  0
   -6.6583    3.0257    0.4959 H   0  0  0  0  0  0  0  0  0  0  0  0
   -6.3017   -1.2804    0.4469 H   0  0  0  0  0  0  0  0  0  0  0  0
   -0.9433   -0.0557    0.0600 H   0  0  0  0  0  0  0  0  0  0  0  0
   -0.1369    1.0330   -1.0890 H   0  0  0  0  0  0  0  0  0  0  0  0
    1.1134   -1.3987    0.2993 H   0  0  0  0  0  0  0  0  0  0  0  0
    1.4436    0.3070    0.6666 H   0  0  0  0  0  0  0  0  0  0  0  0
  1  2  2  0
  2  3  1  0
  3  4  2  0
  4  5  1  0
  5  6  2  0
  6  7  1  0
  7  8  1  0
  7  9  2  0
  2 10  1  0
 10 11  1  0
 11 12  1  0
 12 13  1  0
 13 14  1  0
 14 15  2  0
 14 16  1  0
 16 17  1  0
 17 18  2  0
 18 19  1  0
 19 20  2  0
 20 21  1  0
 21 22  1  0
 21 23  2  0
 23 24  1  0
 24 25  1  0
 13 26  1  0
 26 27  1  0
  9  3  1  0
 27 10  1  0
 25 16  2  0
 24 18  1  0
  4 28  1  0
  5 29  1  0
  6 30  1  0
  9 31  1  0
 11 32  1  0
 11 33  1  0
 12 34  1  0
 12 35  1  0
 17 36  1  0
 20 37  1  0
 23 38  1  0
 26 39  1  0
 26 40  1  0
 27 41  1  0
 27 42  1  0
M  END
$$$$
