
     RDKit          3D

114117  0  0  0  0  0  0  0  0999 V2000
   -0.5129   -4.9856   -3.1903 C   0  0  0  0  0  0  0  0  0  0  0  0
    0.3941   -5.2272   -1.9763 C   0  0  0  0  0  0  0  0  0  0  0  0
    1.7093   -5.8521   -2.4434 C   0  0  0  0  0  0  0  0  0  0  0  0
    0.6329   -3.9120   -1.1948 C   0  0  0  0  0  0  0  0  0  0  0  0
   -0.6629   -3.4280   -0.7620 O   0  0  0  0  0  0  0  0  0  0  0  0
   -0.9763   -2.1217   -0.9595 C   0  0  0  0  0  0  0  0  0  0  0  0
   -0.2301   -1.3044   -1.4827 O   0  0  0  0  0  0  0  0  0  0  0  0
   -2.3918   -1.8273   -0.4207 C   0  0  0  0  0  0  0  0  0  0  0  0
   -3.3975   -2.8836   -0.9363 C   0  0  0  0  0  0  0  0  0  0  0  0
   -4.8131   -2.6957   -0.4426 C   0  0  0  0  0  0  0  0  0  0  0  0
   -5.8507   -2.4129   -1.3424 C   0  0  0  0  0  0  0  0  0  0  0  0
   -7.1610   -2.2584   -0.8877 C   0  0  0  0  0  0  0  0  0  0  0  0
   -7.4456   -2.3787    0.4710 C   0  0  0  0  0  0  0  0  0  0  0  0
   -6.4236   -2.6649    1.3745 C   0  0  0  0  0  0  0  0  0  0  0  0
   -5.1136   -2.8271    0.9201 C   0  0  0  0  0  0  0  0  0  0  0  0
   -2.8201   -0.4308   -0.7116 N   0  0  0  0  0  0  0  0  0  0  0  0
   -2.9669   -0.0339   -2.1070 C   0  0  0  0  0  0  0  0  0  0  0  0
   -2.6056    0.5206    0.2876 C   0  0  0  0  0  0  0  0  0  0  0  0
   -2.0824    0.2221    1.3653 O   0  0  0  0  0  0  0  0  0  0  0  0
   -3.0745    1.9770    0.0442 C   0  0  0  0  0  0  0  0  0  0  0  0
   -4.4188    2.2437    0.7631 C   0  0  0  0  0  0  0  0  0  0  0  0
   -5.5590    1.3884    0.2140 C   0  0  0  0  0  0  0  0  0  0  0  0
   -4.8113    3.7222    0.6657 C   0  0  0  0  0  0  0  0  0  0  0  0
   -2.0841    2.8478    0.6403 O   0  0  0  0  0  0  0  0  0  0  0  0
   -0.9535    3.0267   -0.0991 C   0  0  0  0  0  0  0  0  0  0  0  0
   -0.8063    2.5953   -1.2340 O   0  0  0  0  0  0  0  0  0  0  0  0
    0.1024    3.8034    0.7100 C   0  0  0  0  0  0  0  0  0  0  0  0
   -0.4712    5.1779    1.1321 C   0  0  0  0  0  0  0  0  0  0  0  0
    0.2772    5.7939    2.2907 C   0  0  0  0  0  0  0  0  0  0  0  0
    1.3027    6.7220    2.0771 C   0  0  0  0  0  0  0  0  0  0  0  0
    1.9953    7.2685    3.1577 C   0  0  0  0  0  0  0  0  0  0  0  0
    1.6708    6.8915    4.4606 C   0  0  0  0  0  0  0  0  0  0  0  0
    0.6509    5.9704    4.6859 C   0  0  0  0  0  0  0  0  0  0  0  0
   -0.0431    5.4237    3.6060 C   0  0  0  0  0  0  0  0  0  0  0  0
    1.3963    3.8572   -0.0418 N   0  0  0  0  0  0  0  0  0  0  0  0
    1.4879    4.7777   -1.1746 C   0  0  0  0  0  0  0  0  0  0  0  0
    2.3073    2.7902   -0.0824 C   0  0  0  0  0  0  0  0  0  0  0  0
    3.1805    2.7410   -0.9585 O   0  0  0  0  0  0  0  0  0  0  0  0
    2.2507    1.6728    0.9834 C   0  0  0  0  0  0  0  0  0  0  0  0
    3.2385    1.9144    2.1506 C   0  0  0  0  0  0  0  0  0  0  0  0
    4.7026    2.0234    1.6972 C   0  0  0  0  0  0  0  0  0  0  0  0
    2.8664    3.1257    3.0001 C   0  0  0  0  0  0  0  0  0  0  0  0
    2.6245    0.4567    0.2911 O   0  0  0  0  0  0  0  0  0  0  0  0
    2.1868   -0.7147    0.8251 C   0  0  0  0  0  0  0  0  0  0  0  0
    1.5008   -0.7955    1.8379 O   0  0  0  0  0  0  0  0  0  0  0  0
    2.6424   -1.9098   -0.0342 C   0  0  0  0  0  0  0  0  0  0  0  0
    4.1480   -1.8153   -0.3719 C   0  0  0  0  0  0  0  0  0  0  0  0
    4.5847   -2.8339   -1.4032 C   0  0  0  0  0  0  0  0  0  0  0  0
    4.4748   -2.5497   -2.7713 C   0  0  0  0  0  0  0  0  0  0  0  0
    4.8728   -3.4891   -3.7243 C   0  0  0  0  0  0  0  0  0  0  0  0
    5.3751   -4.7242   -3.3180 C   0  0  0  0  0  0  0  0  0  0  0  0
    5.4805   -5.0206   -1.9605 C   0  0  0  0  0  0  0  0  0  0  0  0
    5.0924   -4.0781   -1.0071 C   0  0  0  0  0  0  0  0  0  0  0  0
    2.2986   -3.2182    0.6020 N   0  0  0  0  0  0  0  0  0  0  0  0
    2.8140   -3.4709    1.9452 C   0  0  0  0  0  0  0  0  0  0  0  0
    1.3965   -4.1630    0.1194 C   0  0  0  0  0  0  0  0  0  0  0  0
    1.1697   -5.1944    0.7649 O   0  0  0  0  0  0  0  0  0  0  0  0
   -1.5008   -4.6319   -2.8844 H   0  0  0  0  0  0  0  0  0  0  0  0
   -0.0791   -4.2422   -3.8675 H   0  0  0  0  0  0  0  0  0  0  0  0
   -0.6573   -5.9125   -3.7561 H   0  0  0  0  0  0  0  0  0  0  0  0
   -0.1235   -5.9484   -1.3320 H   0  0  0  0  0  0  0  0  0  0  0  0
    1.5244   -6.7828   -2.9895 H   0  0  0  0  0  0  0  0  0  0  0  0
    2.3592   -6.0980   -1.5981 H   0  0  0  0  0  0  0  0  0  0  0  0
    2.2536   -5.1756   -3.1094 H   0  0  0  0  0  0  0  0  0  0  0  0
    1.1355   -3.2125   -1.8609 H   0  0  0  0  0  0  0  0  0  0  0  0
   -2.3149   -1.9432    0.6679 H   0  0  0  0  0  0  0  0  0  0  0  0
   -3.0792   -3.8875   -0.6243 H   0  0  0  0  0  0  0  0  0  0  0  0
   -3.3859   -2.9205   -2.0324 H   0  0  0  0  0  0  0  0  0  0  0  0
   -5.6477   -2.3105   -2.4050 H   0  0  0  0  0  0  0  0  0  0  0  0
   -7.9600   -2.0429   -1.5912 H   0  0  0  0  0  0  0  0  0  0  0  0
   -8.4650   -2.2528    0.8276 H   0  0  0  0  0  0  0  0  0  0  0  0
   -6.6451   -2.7608    2.4352 H   0  0  0  0  0  0  0  0  0  0  0  0
   -4.3317   -3.0593    1.6418 H   0  0  0  0  0  0  0  0  0  0  0  0
   -3.0867   -0.9007   -2.7587 H   0  0  0  0  0  0  0  0  0  0  0  0
   -2.0813    0.5264   -2.4197 H   0  0  0  0  0  0  0  0  0  0  0  0
   -3.8531    0.5942   -2.2159 H   0  0  0  0  0  0  0  0  0  0  0  0
   -3.1758    2.2229   -1.0164 H   0  0  0  0  0  0  0  0  0  0  0  0
   -4.3059    2.0121    1.8294 H   0  0  0  0  0  0  0  0  0  0  0  0
   -6.4998    1.6140    0.7281 H   0  0  0  0  0  0  0  0  0  0  0  0
   -5.7114    1.5663   -0.8543 H   0  0  0  0  0  0  0  0  0  0  0  0
   -5.3636    0.3255    0.3587 H   0  0  0  0  0  0  0  0  0  0  0  0
   -4.0691    4.3689    1.1384 H   0  0  0  0  0  0  0  0  0  0  0  0
   -4.9124    4.0350   -0.3767 H   0  0  0  0  0  0  0  0  0  0  0  0
   -5.7661    3.9076    1.1652 H   0  0  0  0  0  0  0  0  0  0  0  0
    0.2634    3.2192    1.6190 H   0  0  0  0  0  0  0  0  0  0  0  0
   -0.5142    5.8825    0.2932 H   0  0  0  0  0  0  0  0  0  0  0  0
   -1.5212    5.0792    1.4451 H   0  0  0  0  0  0  0  0  0  0  0  0
    1.5736    7.0246    1.0691 H   0  0  0  0  0  0  0  0  0  0  0  0
    2.7917    7.9868    2.9811 H   0  0  0  0  0  0  0  0  0  0  0  0
    2.2126    7.3200    5.2991 H   0  0  0  0  0  0  0  0  0  0  0  0
    0.3971    5.6778    5.7025 H   0  0  0  0  0  0  0  0  0  0  0  0
   -0.8290    4.6980    3.8007 H   0  0  0  0  0  0  0  0  0  0  0  0
    1.1655    5.7800   -0.8895 H   0  0  0  0  0  0  0  0  0  0  0  0
    2.5159    4.8674   -1.5378 H   0  0  0  0  0  0  0  0  0  0  0  0
    0.8611    4.4064   -1.9925 H   0  0  0  0  0  0  0  0  0  0  0  0
    1.2306    1.5456    1.3486 H   0  0  0  0  0  0  0  0  0  0  0  0
    3.1927    1.0348    2.8058 H   0  0  0  0  0  0  0  0  0  0  0  0
    5.0011    1.1604    1.0905 H   0  0  0  0  0  0  0  0  0  0  0  0
    4.8792    2.9355    1.1151 H   0  0  0  0  0  0  0  0  0  0  0  0
    5.3679    2.0561    2.5698 H   0  0  0  0  0  0  0  0  0  0  0  0
    1.8444    3.0362    3.3771 H   0  0  0  0  0  0  0  0  0  0  0  0
    2.9558    4.0583    2.4343 H   0  0  0  0  0  0  0  0  0  0  0  0
    3.5308    3.2055    3.8671 H   0  0  0  0  0  0  0  0  0  0  0  0
    2.0909   -1.8093   -0.9648 H   0  0  0  0  0  0  0  0  0  0  0  0
    4.3991   -0.8189   -0.7591 H   0  0  0  0  0  0  0  0  0  0  0  0
    4.7607   -1.9232    0.5309 H   0  0  0  0  0  0  0  0  0  0  0  0
    4.0874   -1.5881   -3.1045 H   0  0  0  0  0  0  0  0  0  0  0  0
    4.7887   -3.2563   -4.7828 H   0  0  0  0  0  0  0  0  0  0  0  0
    5.6848   -5.4547   -4.0600 H   0  0  0  0  0  0  0  0  0  0  0  0
    5.8648   -5.9875   -1.6421 H   0  0  0  0  0  0  0  0  0  0  0  0
    5.1880   -4.3229    0.0489 H   0  0  0  0  0  0  0  0  0  0  0  0
    3.6405   -2.8037    2.1979 H   0  0  0  0  0  0  0  0  0  0  0  0
    2.0015   -3.3297    2.6650 H   0  0  0  0  0  0  0  0  0  0  0  0
    3.1667   -4.5036    2.0211 H   0  0  0  0  0  0  0  0  0  0  0  0
  1  2  1  0
  2  3  1  0
  2  4  1  0
  4  5  1  0
  5  6  1  0
  6  7  2  0
  6  8  1  0
  8  9  1  0
  9 10  1  0
 10 11  2  0
 11 12  1  0
 12 13  2  0
 13 14  1  0
 14 15  2  0
  8 16  1  0
 16 17  1  0
 16 18  1  0
 18 19  2  0
 18 20  1  0
 20 21  1  0
 21 22  1  0
 21 23  1  0
 20 24  1  0
 24 25  1  0
 25 26  2  0
 25 27  1  0
 27 28  1  0
 28 29  1  0
 29 30  2  0
 30 31  1  0
 31 32  2  0
 32 33  1  0
 33 34  2  0
 27 35  1  0
 35 36  1  0
 35 37  1  0
 37 38  2  0
 37 39  1  0
 39 40  1  0
 40 41  1  0
 40 42  1  0
 39 43  1  0
 43 44  1  0
 44 45  2  0
 44 46  1  0
 46 47  1  0
 47 48  1  0
 48 49  2  0
 49 50  1  0
 50 51  2  0
 51 52  1  0
 52 53  2  0
 46 54  1  0
 54 55  1  0
 54 56  1  0
 56 57  2  0
 56  4  1  0
 15 10  1  0
 34 29  1  0
 53 48  1  0
  1 58  1  0
  1 59  1  0
  1 60  1  0
  2 61  1  0
  3 62  1  0
  3 63  1  0
  3 64  1  0
  4 65  1  0
  8 66  1  0
  9 67  1  0
  9 68  1  0
 11 69  1  0
 12 70  1  0
 13 71  1  0
 14 72  1  0
 15 73  1  0
 17 74  1  0
 17 75  1  0
 17 76  1  0
 20 77  1  0
 21 78  1  0
 22 79  1  0
 22 80  1  0
 22 81  1  0
 23 82  1  0
 23 83  1  0
 23 84  1  0
 27 85  1  0
 28 86  1  0
 28 87  1  0
 30 88  1  0
 31 89  1  0
 32 90  1  0
 33 91  1  0
 34 92  1  0
 36 93  1  0
 36 94  1  0
 36 95  1  0
 39 96  1  0
 40 97  1  0
 41 98  1  0
 41 99  1  0
 41100  1  0
 42101  1  0
 42102  1  0
 42103  1  0
 46104  1  0
 47105  1  0
 47106  1  0
 49107  1  0
 50108  1  0
 51109  1  0
 52110  1  0
 53111  1  0
 55112  1  0
 55113  1  0
 55114  1  0
M  END
$$$$
