
     RDKit          3D

 35 35  0  0  0  0  0  0  0  0999 V2000
   -3.5721    1.1890   -0.2884 C   0  0  0  0  0  0  0  0  0  0  0  0
   -3.2762   -0.3013   -0.4997 C   0  0  0  0  0  0  0  0  0  0  0  0
   -4.5623   -1.0221   -0.9256 C   0  0  0  0  0  0  0  0  0  0  0  0
   -2.2189   -0.6208   -1.4743 N   0  0  0  0  0  0  0  0  0  0  0  0
   -2.1727    0.2351   -2.6540 C   0  0  0  0  0  0  0  0  0  0  0  0
   -0.8931   -0.8390   -0.8786 C   0  0  0  0  0  0  0  0  0  0  0  0
   -0.2197    0.3455   -0.1729 C   0  0  0  0  0  0  0  0  0  0  0  0
    1.0940   -0.0653    0.2431 O   0  0  0  0  0  0  0  0  0  0  0  0
    1.7907    0.9006    0.8925 C   0  0  0  0  0  0  0  0  0  0  0  0
    1.4200    2.0376    1.1219 O   0  0  0  0  0  0  0  0  0  0  0  0
    3.1001    0.3445    1.2840 C   0  0  0  0  0  0  0  0  0  0  0  0
    3.9106   -0.2157    0.2831 C   0  0  0  0  0  0  0  0  0  0  0  0
    5.1687   -0.7268    0.6034 C   0  0  0  0  0  0  0  0  0  0  0  0
    5.6226   -0.6796    1.9201 C   0  0  0  0  0  0  0  0  0  0  0  0
    4.8192   -0.1251    2.9190 C   0  0  0  0  0  0  0  0  0  0  0  0
    3.5557    0.3894    2.6058 C   0  0  0  0  0  0  0  0  0  0  0  0
    2.5144    1.0726    4.0383 Br  0  0  0  0  0  0  0  0  0  0  0  0
   -4.0004    1.6529   -1.1835 H   0  0  0  0  0  0  0  0  0  0  0  0
   -4.2983    1.3178    0.5222 H   0  0  0  0  0  0  0  0  0  0  0  0
   -2.6747    1.7486   -0.0116 H   0  0  0  0  0  0  0  0  0  0  0  0
   -3.0032   -0.7264    0.4755 H   0  0  0  0  0  0  0  0  0  0  0  0
   -4.3905   -2.0991   -1.0340 H   0  0  0  0  0  0  0  0  0  0  0  0
   -4.9497   -0.6422   -1.8770 H   0  0  0  0  0  0  0  0  0  0  0  0
   -5.3451   -0.8895   -0.1705 H   0  0  0  0  0  0  0  0  0  0  0  0
   -1.8650    1.2602   -2.4242 H   0  0  0  0  0  0  0  0  0  0  0  0
   -3.1472    0.2722   -3.1522 H   0  0  0  0  0  0  0  0  0  0  0  0
   -1.4695   -0.1688   -3.3913 H   0  0  0  0  0  0  0  0  0  0  0  0
   -0.9578   -1.6742   -0.1678 H   0  0  0  0  0  0  0  0  0  0  0  0
   -0.2126   -1.2174   -1.6540 H   0  0  0  0  0  0  0  0  0  0  0  0
   -0.1256    1.1980   -0.8543 H   0  0  0  0  0  0  0  0  0  0  0  0
   -0.7939    0.6368    0.7130 H   0  0  0  0  0  0  0  0  0  0  0  0
    3.5664   -0.2487   -0.7484 H   0  0  0  0  0  0  0  0  0  0  0  0
    5.7953   -1.1588   -0.1736 H   0  0  0  0  0  0  0  0  0  0  0  0
    6.6035   -1.0772    2.1716 H   0  0  0  0  0  0  0  0  0  0  0  0
    5.1873   -0.1028    3.9425 H   0  0  0  0  0  0  0  0  0  0  0  0
  1  2  1  0
  2  3  1  0
  2  4  1  0
  4  5  1  0
  4  6  1  0
  6  7  1  0
  7  8  1  0
  8  9  1  0
  9 10  2  0
  9 11  1  0
 11 12  2  0
 12 13  1  0
 13 14  2  0
 14 15  1  0
 15 16  2  0
 16 17  1  0
 16 11  1  0
  1 18  1  0
  1 19  1  0
  1 20  1  0
  2 21  1  0
  3 22  1  0
  3 23  1  0
  3 24  1  0
  5 25  1  0
  5 26  1  0
  5 27  1  0
  6 28  1  0
  6 29  1  0
  7 30  1  0
  7 31  1  0
 12 32  1  0
 13 33  1  0
 14 34  1  0
 15 35  1  0
M  END
$$$$
