
     RDKit          3D

 43 45  0  0  0  0  0  0  0  0999 V2000
    7.9621    0.7081    0.4167 C   0  0  0  0  0  0  0  0  0  0  0  0
    6.6944    0.1123    0.6949 O   0  0  0  0  0  0  0  0  0  0  0  0
    5.6954    0.5394   -0.1174 C   0  0  0  0  0  0  0  0  0  0  0  0
    5.8095    1.3500   -1.0235 O   0  0  0  0  0  0  0  0  0  0  0  0
    4.4092   -0.1197    0.2382 C   0  0  0  0  0  0  0  0  0  0  0  0
    4.3078   -1.0752    1.2550 C   0  0  0  0  0  0  0  0  0  0  0  0
    3.0710   -1.6609    1.5423 C   0  0  0  0  0  0  0  0  0  0  0  0
    1.9258   -1.3096    0.8218 C   0  0  0  0  0  0  0  0  0  0  0  0
    0.7897   -1.9618    1.2111 O   0  0  0  0  0  0  0  0  0  0  0  0
   -0.3703   -1.8349    0.3989 C   0  0  0  0  0  0  0  0  0  0  0  0
   -1.2230   -0.5644    0.6198 C   0  0  0  0  0  0  0  0  0  0  0  0
   -0.8751    0.2517    1.4749 O   0  0  0  0  0  0  0  0  0  0  0  0
   -2.3708   -0.4370   -0.2028 N   0  0  0  0  0  0  0  0  0  0  0  0
   -2.9090   -1.6237   -0.8842 C   0  0  0  0  0  0  0  0  0  0  0  0
   -3.9588   -1.3373   -1.9412 C   0  0  0  0  0  0  0  0  0  0  0  0
   -5.0777   -0.5318   -1.3211 C   0  0  0  0  0  0  0  0  0  0  0  0
   -4.5074    0.7204   -0.7170 C   0  0  0  0  0  0  0  0  0  0  0  0
   -5.3296    1.8620   -0.6674 C   0  0  0  0  0  0  0  0  0  0  0  0
   -4.8570    3.0541   -0.1320 C   0  0  0  0  0  0  0  0  0  0  0  0
   -3.5595    3.1138    0.3547 C   0  0  0  0  0  0  0  0  0  0  0  0
   -2.7424    1.9774    0.3246 C   0  0  0  0  0  0  0  0  0  0  0  0
   -3.2000    0.7508   -0.1820 C   0  0  0  0  0  0  0  0  0  0  0  0
    2.0234   -0.3499   -0.1853 C   0  0  0  0  0  0  0  0  0  0  0  0
    3.2598    0.2398   -0.4774 C   0  0  0  0  0  0  0  0  0  0  0  0
    8.6899    0.3017    1.1245 H   0  0  0  0  0  0  0  0  0  0  0  0
    7.9146    1.7930    0.5536 H   0  0  0  0  0  0  0  0  0  0  0  0
    8.2888    0.4584   -0.5977 H   0  0  0  0  0  0  0  0  0  0  0  0
    5.1770   -1.3733    1.8353 H   0  0  0  0  0  0  0  0  0  0  0  0
    2.9988   -2.3984    2.3387 H   0  0  0  0  0  0  0  0  0  0  0  0
   -0.1034   -1.9377   -0.6590 H   0  0  0  0  0  0  0  0  0  0  0  0
   -1.0002   -2.6919    0.6627 H   0  0  0  0  0  0  0  0  0  0  0  0
   -3.3158   -2.2845   -0.1079 H   0  0  0  0  0  0  0  0  0  0  0  0
   -2.0956   -2.1662   -1.3738 H   0  0  0  0  0  0  0  0  0  0  0  0
   -4.3489   -2.2763   -2.3491 H   0  0  0  0  0  0  0  0  0  0  0  0
   -3.5065   -0.7828   -2.7738 H   0  0  0  0  0  0  0  0  0  0  0  0
   -5.8123   -0.2877   -2.0975 H   0  0  0  0  0  0  0  0  0  0  0  0
   -5.5909   -1.1070   -0.5414 H   0  0  0  0  0  0  0  0  0  0  0  0
   -6.3450    1.8248   -1.0564 H   0  0  0  0  0  0  0  0  0  0  0  0
   -5.4939    3.9337   -0.1021 H   0  0  0  0  0  0  0  0  0  0  0  0
   -3.1711    4.0435    0.7630 H   0  0  0  0  0  0  0  0  0  0  0  0
   -1.7310    2.1032    0.6977 H   0  0  0  0  0  0  0  0  0  0  0  0
    1.1601   -0.0171   -0.7513 H   0  0  0  0  0  0  0  0  0  0  0  0
    3.3180    0.9913   -1.2631 H   0  0  0  0  0  0  0  0  0  0  0  0
  1  2  1  0
  2  3  1  0
  3  4  2  0
  3  5  1  0
  5  6  2  0
  6  7  1  0
  7  8  2  0
  8  9  1  0
  9 10  1  0
 10 11  1  0
 11 12  2  0
 11 13  1  0
 13 14  1  0
 14 15  1  0
 15 16  1  0
 16 17  1  0
 17 18  2  0
 18 19  1  0
 19 20  2  0
 20 21  1  0
 21 22  2  0
  8 23  1  0
 23 24  2  0
 24  5  1  0
 22 13  1  0
 22 17  1  0
  1 25  1  0
  1 26  1  0
  1 27  1  0
  6 28  1  0
  7 29  1  0
 10 30  1  0
 10 31  1  0
 14 32  1  0
 14 33  1  0
 15 34  1  0
 15 35  1  0
 16 36  1  0
 16 37  1  0
 18 38  1  0
 19 39  1  0
 20 40  1  0
 21 41  1  0
 23 42  1  0
 24 43  1  0
M  END
$$$$
