
     RDKit          3D

 56 60  0  0  0  0  0  0  0  0999 V2000
   -3.7643   -0.5949   -1.5930 C   0  0  0  0  0  0  0  0  0  0  0  0
   -3.2310    0.7573   -1.9863 C   0  0  0  0  0  0  0  0  0  0  0  0
   -3.6603    1.3235   -3.1958 C   0  0  0  0  0  0  0  0  0  0  0  0
   -3.2511    2.6021   -3.5677 C   0  0  0  0  0  0  0  0  0  0  0  0
   -2.4111    3.3363   -2.7345 C   0  0  0  0  0  0  0  0  0  0  0  0
   -1.9375    2.7913   -1.5312 C   0  0  0  0  0  0  0  0  0  0  0  0
   -1.0723    3.6591   -0.6553 C   0  0  0  0  0  0  0  0  0  0  0  0
   -2.3337    1.4834   -1.1676 C   0  0  0  0  0  0  0  0  0  0  0  0
   -1.8474    0.9034    0.0424 N   0  0  0  0  0  0  0  0  0  0  0  0
   -0.8627   -0.0788    0.0567 C   0  0  0  0  0  0  0  0  0  0  0  0
   -0.0982   -0.5874   -1.4443 S   0  0  0  0  0  0  0  0  0  0  0  0
    1.2388    0.6315   -1.5318 C   0  0  0  0  0  0  0  0  0  0  0  0
    2.0879    0.6695   -0.2684 C   0  0  0  0  0  0  0  0  0  0  0  0
    2.0673    1.7022    0.4148 O   0  0  0  0  0  0  0  0  0  0  0  0
    2.7926   -0.4541    0.1476 N   0  0  0  0  0  0  0  0  0  0  0  0
    3.0716   -0.5479    1.5837 C   0  0  0  0  0  0  0  0  0  0  0  0
    2.9600   -1.9477    2.1723 C   0  0  0  0  0  0  0  0  0  0  0  0
    2.8478   -2.1563    3.3806 O   0  0  0  0  0  0  0  0  0  0  0  0
    3.1419   -2.9922    1.3086 N   0  0  0  0  0  0  0  0  0  0  0  0
    3.3681   -2.8165   -0.0595 C   0  0  0  0  0  0  0  0  0  0  0  0
    3.7249   -3.9339   -0.8194 C   0  0  0  0  0  0  0  0  0  0  0  0
    4.0066   -3.7882   -2.1750 C   0  0  0  0  0  0  0  0  0  0  0  0
    3.9490   -2.5269   -2.7603 C   0  0  0  0  0  0  0  0  0  0  0  0
    3.5736   -1.4127   -2.0011 C   0  0  0  0  0  0  0  0  0  0  0  0
    3.2313   -1.5481   -0.6527 C   0  0  0  0  0  0  0  0  0  0  0  0
   -0.4400   -0.6745    1.1241 N   0  0  0  0  0  0  0  0  0  0  0  0
   -0.9919   -0.3030    2.3535 C   0  0  0  0  0  0  0  0  0  0  0  0
   -0.5532   -0.9489    3.5119 C   0  0  0  0  0  0  0  0  0  0  0  0
   -1.0659   -0.5980    4.7630 C   0  0  0  0  0  0  0  0  0  0  0  0
   -2.0307    0.4025    4.8662 C   0  0  0  0  0  0  0  0  0  0  0  0
   -2.4820    1.0500    3.7170 C   0  0  0  0  0  0  0  0  0  0  0  0
   -1.9582    0.6924    2.4680 C   0  0  0  0  0  0  0  0  0  0  0  0
   -2.4273    1.3470    1.2336 C   0  0  0  0  0  0  0  0  0  0  0  0
   -3.2952    2.2147    1.3239 O   0  0  0  0  0  0  0  0  0  0  0  0
   -3.0061   -1.3714   -1.7300 H   0  0  0  0  0  0  0  0  0  0  0  0
   -4.6342   -0.8689   -2.2014 H   0  0  0  0  0  0  0  0  0  0  0  0
   -4.0990   -0.5889   -0.5502 H   0  0  0  0  0  0  0  0  0  0  0  0
   -4.3390    0.7778   -3.8484 H   0  0  0  0  0  0  0  0  0  0  0  0
   -3.6071    3.0360   -4.4990 H   0  0  0  0  0  0  0  0  0  0  0  0
   -2.1289    4.3454   -3.0269 H   0  0  0  0  0  0  0  0  0  0  0  0
   -1.7018    4.3005   -0.0291 H   0  0  0  0  0  0  0  0  0  0  0  0
   -0.4150    3.0714   -0.0084 H   0  0  0  0  0  0  0  0  0  0  0  0
   -0.4203    4.2949   -1.2666 H   0  0  0  0  0  0  0  0  0  0  0  0
    0.7880    1.6204   -1.6588 H   0  0  0  0  0  0  0  0  0  0  0  0
    1.8332    0.4802   -2.4279 H   0  0  0  0  0  0  0  0  0  0  0  0
    4.0921   -0.1823    1.7478 H   0  0  0  0  0  0  0  0  0  0  0  0
    2.3800    0.0920    2.1454 H   0  0  0  0  0  0  0  0  0  0  0  0
    3.1673   -3.9136    1.7228 H   0  0  0  0  0  0  0  0  0  0  0  0
    3.8009   -4.9170   -0.3641 H   0  0  0  0  0  0  0  0  0  0  0  0
    4.2944   -4.6520   -2.7686 H   0  0  0  0  0  0  0  0  0  0  0  0
    4.2077   -2.4041   -3.8093 H   0  0  0  0  0  0  0  0  0  0  0  0
    3.6182   -0.4417   -2.4818 H   0  0  0  0  0  0  0  0  0  0  0  0
    0.1975   -1.7322    3.4429 H   0  0  0  0  0  0  0  0  0  0  0  0
   -0.7072   -1.1076    5.6546 H   0  0  0  0  0  0  0  0  0  0  0  0
   -2.4302    0.6768    5.8389 H   0  0  0  0  0  0  0  0  0  0  0  0
   -3.2378    1.8281    3.7944 H   0  0  0  0  0  0  0  0  0  0  0  0
  1  2  1  0
  2  3  2  0
  3  4  1  0
  4  5  2  0
  5  6  1  0
  6  7  1  0
  6  8  2  0
  8  9  1  0
  9 10  1  0
 10 11  1  0
 11 12  1  0
 12 13  1  0
 13 14  2  0
 13 15  1  0
 15 16  1  0
 16 17  1  0
 17 18  2  0
 17 19  1  0
 19 20  1  0
 20 21  2  0
 21 22  1  0
 22 23  2  0
 23 24  1  0
 24 25  2  0
 10 26  2  0
 26 27  1  0
 27 28  2  0
 28 29  1  0
 29 30  2  0
 30 31  1  0
 31 32  2  0
 32 33  1  0
 33 34  2  0
  8  2  1  0
 33  9  1  0
 25 15  1  0
 32 27  1  0
 25 20  1  0
  1 35  1  0
  1 36  1  0
  1 37  1  0
  3 38  1  0
  4 39  1  0
  5 40  1  0
  7 41  1  0
  7 42  1  0
  7 43  1  0
 12 44  1  0
 12 45  1  0
 16 46  1  0
 16 47  1  0
 19 48  1  0
 21 49  1  0
 22 50  1  0
 23 51  1  0
 24 52  1  0
 28 53  1  0
 29 54  1  0
 30 55  1  0
 31 56  1  0
M  END
$$$$
