
     RDKit          3D

 36 37  0  0  0  0  0  0  0  0999 V2000
   -4.0482   -1.5416    1.0084 C   0  0  0  0  0  0  0  0  0  0  0  0
   -2.5354   -1.6626    0.8412 C   0  0  0  0  0  0  0  0  0  0  0  0
   -2.0519   -0.9659   -0.3569 N   0  0  0  0  0  0  0  0  0  0  0  0
   -2.0372    0.4958   -0.2052 C   0  0  0  0  0  0  0  0  0  0  0  0
   -2.1522    1.2367   -1.5472 C   0  0  0  0  0  0  0  0  0  0  0  0
   -2.1309    2.6480   -1.3448 O   0  0  0  0  0  0  0  0  0  0  0  0
   -0.7855   -1.5222   -0.8775 C   0  0  0  0  0  0  0  0  0  0  0  0
    0.3834   -1.4324    0.0757 C   0  0  0  0  0  0  0  0  0  0  0  0
    0.6389   -2.3665    1.0639 C   0  0  0  0  0  0  0  0  0  0  0  0
    2.0184   -2.0110    1.9895 S   0  0  0  0  0  0  0  0  0  0  0  0
    2.3751   -0.6167    1.0509 C   0  0  0  0  0  0  0  0  0  0  0  0
    3.4726    0.2527    1.2263 C   0  0  0  0  0  0  0  0  0  0  0  0
    3.6404    1.3395    0.3592 C   0  0  0  0  0  0  0  0  0  0  0  0
    4.7838    2.2915    0.5538 C   0  0  0  0  0  0  0  0  0  0  0  0
    2.7070    1.5585   -0.6486 C   0  0  0  0  0  0  0  0  0  0  0  0
    1.6188    0.6939   -0.8158 C   0  0  0  0  0  0  0  0  0  0  0  0
    1.4265   -0.4190    0.0427 C   0  0  0  0  0  0  0  0  0  0  0  0
   -4.5713   -1.8770    0.1063 H   0  0  0  0  0  0  0  0  0  0  0  0
   -4.3809   -2.1715    1.8403 H   0  0  0  0  0  0  0  0  0  0  0  0
   -4.3626   -0.5176    1.2283 H   0  0  0  0  0  0  0  0  0  0  0  0
   -2.0328   -1.3039    1.7476 H   0  0  0  0  0  0  0  0  0  0  0  0
   -2.3271   -2.7364    0.7552 H   0  0  0  0  0  0  0  0  0  0  0  0
   -2.8912    0.8312    0.3951 H   0  0  0  0  0  0  0  0  0  0  0  0
   -1.1647    0.8493    0.3556 H   0  0  0  0  0  0  0  0  0  0  0  0
   -3.0868    0.9785   -2.0566 H   0  0  0  0  0  0  0  0  0  0  0  0
   -1.3265    0.9951   -2.2200 H   0  0  0  0  0  0  0  0  0  0  0  0
   -2.9094    2.8745   -0.8076 H   0  0  0  0  0  0  0  0  0  0  0  0
   -0.5286   -1.0523   -1.8332 H   0  0  0  0  0  0  0  0  0  0  0  0
   -0.9490   -2.5781   -1.1341 H   0  0  0  0  0  0  0  0  0  0  0  0
    0.0595   -3.2488    1.2980 H   0  0  0  0  0  0  0  0  0  0  0  0
    4.1835    0.0713    2.0286 H   0  0  0  0  0  0  0  0  0  0  0  0
    5.1181    2.7002   -0.4056 H   0  0  0  0  0  0  0  0  0  0  0  0
    4.4770    3.1172    1.2035 H   0  0  0  0  0  0  0  0  0  0  0  0
    5.6425    1.7855    1.0072 H   0  0  0  0  0  0  0  0  0  0  0  0
    2.8114    2.4081   -1.3208 H   0  0  0  0  0  0  0  0  0  0  0  0
    0.9154    0.8960   -1.6181 H   0  0  0  0  0  0  0  0  0  0  0  0
  1  2  1  0
  2  3  1  0
  3  4  1  0
  4  5  1  0
  5  6  1  0
  3  7  1  0
  7  8  1  0
  8  9  2  0
  9 10  1  0
 10 11  1  0
 11 12  2  0
 12 13  1  0
 13 14  1  0
 13 15  2  0
 15 16  1  0
 16 17  2  0
 17  8  1  0
 17 11  1  0
  1 18  1  0
  1 19  1  0
  1 20  1  0
  2 21  1  0
  2 22  1  0
  4 23  1  0
  4 24  1  0
  5 25  1  0
  5 26  1  0
  6 27  1  0
  7 28  1  0
  7 29  1  0
  9 30  1  0
 12 31  1  0
 14 32  1  0
 14 33  1  0
 14 34  1  0
 15 35  1  0
 16 36  1  0
M  END
$$$$
