
     RDKit          3D

 63 67  0  0  0  0  0  0  0  0999 V2000
   -5.6845   -4.8167   -2.0182 C   0  0  0  0  0  0  0  0  0  0  0  0
   -4.8061   -5.0019   -0.9084 O   0  0  0  0  0  0  0  0  0  0  0  0
   -4.0342   -3.9227   -0.6207 C   0  0  0  0  0  0  0  0  0  0  0  0
   -4.0385   -2.8667   -1.2362 O   0  0  0  0  0  0  0  0  0  0  0  0
   -3.2034   -4.1627    0.5981 C   0  0  0  0  0  0  0  0  0  0  0  0
   -3.0939   -5.4613    1.1286 C   0  0  0  0  0  0  0  0  0  0  0  0
   -2.3366   -5.6993    2.2767 C   0  0  0  0  0  0  0  0  0  0  0  0
   -1.6551   -4.6509    2.8816 C   0  0  0  0  0  0  0  0  0  0  0  0
   -1.7380   -3.3602    2.3513 C   0  0  0  0  0  0  0  0  0  0  0  0
   -2.5361   -3.0869    1.2305 C   0  0  0  0  0  0  0  0  0  0  0  0
   -2.6222   -1.7762    0.6836 N   0  0  0  0  0  0  0  0  0  0  0  0
   -2.4721   -0.5291    1.2748 C   0  0  0  0  0  0  0  0  0  0  0  0
   -2.7778   -0.2546    2.9117 S   0  0  0  0  0  0  0  0  0  0  0  0
   -2.1131    0.4840    0.3487 N   0  0  0  0  0  0  0  0  0  0  0  0
   -2.2263    1.9229    0.6915 C   0  0  0  0  0  0  0  0  0  0  0  0
   -0.9107    2.6217    0.9830 C   0  0  0  0  0  0  0  0  0  0  0  0
   -0.6749    3.9096    0.4400 C   0  0  0  0  0  0  0  0  0  0  0  0
    0.5403    4.5748    0.6426 C   0  0  0  0  0  0  0  0  0  0  0  0
    1.4983    3.9397    1.4012 C   0  0  0  0  0  0  0  0  0  0  0  0
    1.2738    2.7035    1.9585 C   0  0  0  0  0  0  0  0  0  0  0  0
    0.0819    2.0307    1.7837 C   0  0  0  0  0  0  0  0  0  0  0  0
    2.3423    2.2514    2.6678 O   0  0  0  0  0  0  0  0  0  0  0  0
    3.2727    3.3388    2.4745 C   0  0  0  0  0  0  0  0  0  0  0  0
    2.7385    4.4211    1.6862 O   0  0  0  0  0  0  0  0  0  0  0  0
   -1.7289    0.1914   -1.0599 C   0  0  0  0  0  0  0  0  0  0  0  0
   -0.3418    0.6644   -1.3803 C   0  0  0  0  0  0  0  0  0  0  0  0
    0.7653    0.0174   -0.9694 C   0  0  0  0  0  0  0  0  0  0  0  0
    2.0966    0.5533   -1.2515 C   0  0  0  0  0  0  0  0  0  0  0  0
    3.2547   -0.0787   -0.7944 C   0  0  0  0  0  0  0  0  0  0  0  0
    4.5104    0.4877   -1.0485 C   0  0  0  0  0  0  0  0  0  0  0  0
    4.6143    1.6940   -1.7437 C   0  0  0  0  0  0  0  0  0  0  0  0
    5.7752    2.3581   -2.0315 O   0  0  0  0  0  0  0  0  0  0  0  0
    6.9825    1.7923   -1.5330 C   0  0  0  0  0  0  0  0  0  0  0  0
    3.4553    2.3164   -2.2170 C   0  0  0  0  0  0  0  0  0  0  0  0
    2.2072    1.7457   -1.9719 C   0  0  0  0  0  0  0  0  0  0  0  0
    1.0466    2.3675   -2.4486 N   0  0  0  0  0  0  0  0  0  0  0  0
   -0.2189    1.8945   -2.2207 C   0  0  0  0  0  0  0  0  0  0  0  0
   -1.2038    2.4705   -2.6753 O   0  0  0  0  0  0  0  0  0  0  0  0
   -5.1157   -4.7975   -2.9521 H   0  0  0  0  0  0  0  0  0  0  0  0
   -6.2771   -3.9032   -1.9049 H   0  0  0  0  0  0  0  0  0  0  0  0
   -6.3788   -5.6627   -2.0463 H   0  0  0  0  0  0  0  0  0  0  0  0
   -3.5966   -6.3034    0.6614 H   0  0  0  0  0  0  0  0  0  0  0  0
   -2.2738   -6.7024    2.6902 H   0  0  0  0  0  0  0  0  0  0  0  0
   -1.0517   -4.8330    3.7699 H   0  0  0  0  0  0  0  0  0  0  0  0
   -1.1506   -2.5806    2.8292 H   0  0  0  0  0  0  0  0  0  0  0  0
   -3.1499   -1.7355   -0.1905 H   0  0  0  0  0  0  0  0  0  0  0  0
   -2.7316    2.4058   -0.1549 H   0  0  0  0  0  0  0  0  0  0  0  0
   -2.8901    2.0773    1.5464 H   0  0  0  0  0  0  0  0  0  0  0  0
   -1.4381    4.3889   -0.1718 H   0  0  0  0  0  0  0  0  0  0  0  0
    0.7269    5.5502    0.2073 H   0  0  0  0  0  0  0  0  0  0  0  0
   -0.0581    1.0598    2.2416 H   0  0  0  0  0  0  0  0  0  0  0  0
    3.5609    3.7280    3.4596 H   0  0  0  0  0  0  0  0  0  0  0  0
    4.1656    2.9475    1.9737 H   0  0  0  0  0  0  0  0  0  0  0  0
   -2.4998    0.6198   -1.7125 H   0  0  0  0  0  0  0  0  0  0  0  0
   -1.7427   -0.8838   -1.2636 H   0  0  0  0  0  0  0  0  0  0  0  0
    0.6897   -0.8819   -0.3677 H   0  0  0  0  0  0  0  0  0  0  0  0
    3.1909   -1.0119   -0.2414 H   0  0  0  0  0  0  0  0  0  0  0  0
    5.3856   -0.0356   -0.6798 H   0  0  0  0  0  0  0  0  0  0  0  0
    6.9633    1.7140   -0.4418 H   0  0  0  0  0  0  0  0  0  0  0  0
    7.8026    2.4619   -1.8060 H   0  0  0  0  0  0  0  0  0  0  0  0
    7.1787    0.8176   -1.9946 H   0  0  0  0  0  0  0  0  0  0  0  0
    3.5387    3.2510   -2.7613 H   0  0  0  0  0  0  0  0  0  0  0  0
    1.1126    3.2260   -2.9758 H   0  0  0  0  0  0  0  0  0  0  0  0
  1  2  1  0
  2  3  1  0
  3  4  2  0
  3  5  1  0
  5  6  2  0
  6  7  1  0
  7  8  2  0
  8  9  1  0
  9 10  2  0
 10 11  1  0
 11 12  1  0
 12 13  2  0
 12 14  1  0
 14 15  1  0
 15 16  1  0
 16 17  2  0
 17 18  1  0
 18 19  2  0
 19 20  1  0
 20 21  2  0
 20 22  1  0
 22 23  1  0
 23 24  1  0
 14 25  1  0
 25 26  1  0
 26 27  2  0
 27 28  1  0
 28 29  2  0
 29 30  1  0
 30 31  2  0
 31 32  1  0
 32 33  1  0
 31 34  1  0
 34 35  2  0
 35 36  1  0
 36 37  1  0
 37 38  2  0
 10  5  1  0
 21 16  1  0
 37 26  1  0
 24 19  1  0
 35 28  1  0
  1 39  1  0
  1 40  1  0
  1 41  1  0
  6 42  1  0
  7 43  1  0
  8 44  1  0
  9 45  1  0
 11 46  1  0
 15 47  1  0
 15 48  1  0
 17 49  1  0
 18 50  1  0
 21 51  1  0
 23 52  1  0
 23 53  1  0
 25 54  1  0
 25 55  1  0
 27 56  1  0
 29 57  1  0
 30 58  1  0
 33 59  1  0
 33 60  1  0
 33 61  1  0
 34 62  1  0
 36 63  1  0
M  END
$$$$
