
     RDKit          3D

 36 37  0  0  0  0  0  0  0  0999 V2000
   -4.1085   -2.4531   -0.6784 C   0  0  0  0  0  0  0  0  0  0  0  0
   -3.5048   -1.8972    0.5975 C   0  0  0  0  0  0  0  0  0  0  0  0
   -3.1880   -0.5076    0.4293 O   0  0  0  0  0  0  0  0  0  0  0  0
   -1.9663   -0.2389   -0.0921 C   0  0  0  0  0  0  0  0  0  0  0  0
   -1.1376   -1.0643   -0.4529 O   0  0  0  0  0  0  0  0  0  0  0  0
   -1.7338    1.2276   -0.1797 C   0  0  0  0  0  0  0  0  0  0  0  0
   -2.7996    2.1362   -0.0737 C   0  0  0  0  0  0  0  0  0  0  0  0
   -2.5695    3.5097   -0.1815 C   0  0  0  0  0  0  0  0  0  0  0  0
   -1.2783    3.9865   -0.3968 C   0  0  0  0  0  0  0  0  0  0  0  0
   -0.2125    3.0929   -0.5053 C   0  0  0  0  0  0  0  0  0  0  0  0
   -0.4320    1.7153   -0.4056 C   0  0  0  0  0  0  0  0  0  0  0  0
    0.7149    0.8399   -0.4628 N   0  0  0  0  0  0  0  0  0  0  0  0
    1.6084    0.7890    0.9910 S   0  0  0  0  0  6  0  0  0  0  0  0
    2.2417    2.0681    1.2261 O   0  0  0  0  0  0  0  0  0  0  0  0
    0.7441    0.1944    1.9917 O   0  0  0  0  0  0  0  0  0  0  0  0
    2.8637   -0.3820    0.6018 C   0  0  0  0  0  0  0  0  0  0  0  0
    2.9166   -1.6131    1.2638 C   0  0  0  0  0  0  0  0  0  0  0  0
    3.9281   -2.5215    0.9451 C   0  0  0  0  0  0  0  0  0  0  0  0
    4.8788   -2.1990   -0.0255 C   0  0  0  0  0  0  0  0  0  0  0  0
    4.8192   -0.9674   -0.6796 C   0  0  0  0  0  0  0  0  0  0  0  0
    3.8105   -0.0613   -0.3619 C   0  0  0  0  0  0  0  0  0  0  0  0
    3.7711    1.1057   -1.0179 F   0  0  0  0  0  0  0  0  0  0  0  0
   -4.4076   -3.4963   -0.5436 H   0  0  0  0  0  0  0  0  0  0  0  0
   -4.9861   -1.8691   -0.9745 H   0  0  0  0  0  0  0  0  0  0  0  0
   -3.3953   -2.3981   -1.5069 H   0  0  0  0  0  0  0  0  0  0  0  0
   -4.2355   -1.9628    1.4102 H   0  0  0  0  0  0  0  0  0  0  0  0
   -2.6245   -2.4717    0.9083 H   0  0  0  0  0  0  0  0  0  0  0  0
   -3.8167    1.7883    0.0912 H   0  0  0  0  0  0  0  0  0  0  0  0
   -3.3985    4.2086   -0.0944 H   0  0  0  0  0  0  0  0  0  0  0  0
   -1.0964    5.0561   -0.4730 H   0  0  0  0  0  0  0  0  0  0  0  0
    0.7941    3.4762   -0.6618 H   0  0  0  0  0  0  0  0  0  0  0  0
    0.4219   -0.1240   -0.6872 H   0  0  0  0  0  0  0  0  0  0  0  0
    2.1821   -1.8713    2.0242 H   0  0  0  0  0  0  0  0  0  0  0  0
    3.9767   -3.4812    1.4556 H   0  0  0  0  0  0  0  0  0  0  0  0
    5.6666   -2.9073   -0.2717 H   0  0  0  0  0  0  0  0  0  0  0  0
    5.5532   -0.7072   -1.4366 H   0  0  0  0  0  0  0  0  0  0  0  0
  1  2  1  0
  2  3  1  0
  3  4  1  0
  4  5  2  0
  4  6  1  0
  6  7  2  0
  7  8  1  0
  8  9  2  0
  9 10  1  0
 10 11  2  0
 11 12  1  0
 12 13  1  0
 13 14  2  0
 13 15  2  0
 13 16  1  0
 16 17  2  0
 17 18  1  0
 18 19  2  0
 19 20  1  0
 20 21  2  0
 21 22  1  0
 11  6  1  0
 21 16  1  0
  1 23  1  0
  1 24  1  0
  1 25  1  0
  2 26  1  0
  2 27  1  0
  7 28  1  0
  8 29  1  0
  9 30  1  0
 10 31  1  0
 12 32  1  0
 17 33  1  0
 18 34  1  0
 19 35  1  0
 20 36  1  0
M  END
$$$$
