
     RDKit          3D

 64 69  0  0  0  0  0  0  0  0999 V2000
   -9.3986    2.0328   -0.8296 C   0  0  0  0  0  0  0  0  0  0  0  0
   -8.8147    1.0501    0.0173 O   0  0  0  0  0  0  0  0  0  0  0  0
   -7.4479    0.9875    0.0405 C   0  0  0  0  0  0  0  0  0  0  0  0
   -6.9217   -0.0660    0.7902 C   0  0  0  0  0  0  0  0  0  0  0  0
   -5.5387   -0.2511    0.8984 C   0  0  0  0  0  0  0  0  0  0  0  0
   -4.6565    0.6297    0.2611 C   0  0  0  0  0  0  0  0  0  0  0  0
   -3.2389    0.4340    0.3472 N   0  0  0  0  0  0  0  0  0  0  0  0
   -2.2412    1.4233    0.2959 C   0  0  0  0  0  0  0  0  0  0  0  0
   -2.5128    2.7584    0.3152 N   0  0  0  0  0  0  0  0  0  0  0  0
   -0.9916    0.8136    0.2840 C   0  0  0  0  0  0  0  0  0  0  0  0
    0.3034    1.4958    0.2313 C   0  0  0  0  0  0  0  0  0  0  0  0
    0.3745    2.7207    0.2429 O   0  0  0  0  0  0  0  0  0  0  0  0
    1.3806    0.6391    0.1684 N   0  0  0  0  0  0  0  0  0  0  0  0
    2.7236    0.8915    0.1046 C   0  0  0  0  0  0  0  0  0  0  0  0
    3.5079    1.9811    0.1840 C   0  0  0  0  0  0  0  0  0  0  0  0
    3.0927    3.3927    0.4578 C   0  0  0  0  0  0  0  0  0  0  0  0
    4.8776    1.6677    0.0467 N   0  0  0  0  0  0  0  0  0  0  0  0
    5.8165    2.1361    1.0834 C   0  0  0  0  0  0  0  0  0  0  0  0
    4.9454    0.2646   -0.1863 N   0  0  0  0  0  0  0  0  0  0  0  0
    6.0157   -0.3062   -0.9326 C   0  0  0  0  0  0  0  0  0  0  0  0
    7.0121    0.4988   -1.5089 C   0  0  0  0  0  0  0  0  0  0  0  0
    8.0607   -0.0656   -2.2450 C   0  0  0  0  0  0  0  0  0  0  0  0
    8.1303   -1.4457   -2.4201 C   0  0  0  0  0  0  0  0  0  0  0  0
    7.1491   -2.2585   -1.8614 C   0  0  0  0  0  0  0  0  0  0  0  0
    6.1018   -1.6931   -1.1242 C   0  0  0  0  0  0  0  0  0  0  0  0
    3.6542   -0.2655   -0.1217 C   0  0  0  0  0  0  0  0  0  0  0  0
    3.2474   -1.4095   -0.2798 O   0  0  0  0  0  0  0  0  0  0  0  0
   -1.2326   -0.5754    0.3803 C   0  0  0  0  0  0  0  0  0  0  0  0
   -0.3324   -1.5934    0.4090 N   0  0  0  0  0  0  0  0  0  0  0  0
   -0.8702   -2.8173    0.5111 C   0  0  0  0  0  0  0  0  0  0  0  0
   -0.0172   -3.9139    0.5383 C   0  0  0  0  0  0  0  0  0  0  0  0
   -0.5072   -5.2171    0.6536 C   0  0  0  0  0  0  0  0  0  0  0  0
   -1.8765   -5.4258    0.7403 C   0  0  0  0  0  0  0  0  0  0  0  0
   -2.7433   -4.3310    0.7072 C   0  0  0  0  0  0  0  0  0  0  0  0
   -2.2695   -3.0300    0.5944 C   0  0  0  0  0  0  0  0  0  0  0  0
   -3.1619   -2.0267    0.5703 N   0  0  0  0  0  0  0  0  0  0  0  0
   -2.5988   -0.7979    0.4637 C   0  0  0  0  0  0  0  0  0  0  0  0
   -5.1884    1.6865   -0.4925 C   0  0  0  0  0  0  0  0  0  0  0  0
   -6.5758    1.8637   -0.6007 C   0  0  0  0  0  0  0  0  0  0  0  0
   -9.1332    1.8523   -1.8793 H   0  0  0  0  0  0  0  0  0  0  0  0
   -9.1187    3.0458   -0.5163 H   0  0  0  0  0  0  0  0  0  0  0  0
  -10.4883    1.9486   -0.7423 H   0  0  0  0  0  0  0  0  0  0  0  0
   -7.5917   -0.7593    1.2895 H   0  0  0  0  0  0  0  0  0  0  0  0
   -5.1820   -1.0772    1.5104 H   0  0  0  0  0  0  0  0  0  0  0  0
   -1.7144    3.3886    0.4470 H   0  0  0  0  0  0  0  0  0  0  0  0
   -3.3321    3.0938    0.8198 H   0  0  0  0  0  0  0  0  0  0  0  0
    1.1590   -0.3596    0.1182 H   0  0  0  0  0  0  0  0  0  0  0  0
    2.5986    3.8288   -0.4183 H   0  0  0  0  0  0  0  0  0  0  0  0
    2.4326    3.4442    1.3299 H   0  0  0  0  0  0  0  0  0  0  0  0
    3.9489    4.0373    0.6886 H   0  0  0  0  0  0  0  0  0  0  0  0
    6.0419    3.1962    0.9291 H   0  0  0  0  0  0  0  0  0  0  0  0
    6.7681    1.5963    1.0569 H   0  0  0  0  0  0  0  0  0  0  0  0
    5.3894    2.0104    2.0863 H   0  0  0  0  0  0  0  0  0  0  0  0
    6.9739    1.5818   -1.4221 H   0  0  0  0  0  0  0  0  0  0  0  0
    8.8160    0.5773   -2.6912 H   0  0  0  0  0  0  0  0  0  0  0  0
    8.9407   -1.8879   -2.9943 H   0  0  0  0  0  0  0  0  0  0  0  0
    7.2017   -3.3391   -1.9960 H   0  0  0  0  0  0  0  0  0  0  0  0
    5.3684   -2.3684   -0.6879 H   0  0  0  0  0  0  0  0  0  0  0  0
    1.0572   -3.7498    0.4679 H   0  0  0  0  0  0  0  0  0  0  0  0
    0.1809   -6.0598    0.6760 H   0  0  0  0  0  0  0  0  0  0  0  0
   -2.2748   -6.4337    0.8342 H   0  0  0  0  0  0  0  0  0  0  0  0
   -3.8165   -4.4946    0.7722 H   0  0  0  0  0  0  0  0  0  0  0  0
   -4.5457    2.3615   -1.0540 H   0  0  0  0  0  0  0  0  0  0  0  0
   -6.9371    2.6883   -1.2066 H   0  0  0  0  0  0  0  0  0  0  0  0
  1  2  1  0
  2  3  1  0
  3  4  2  0
  4  5  1  0
  5  6  2  0
  6  7  1  0
  7  8  1  0
  8  9  1  0
  8 10  2  0
 10 11  1  0
 11 12  2  0
 11 13  1  0
 13 14  1  0
 14 15  2  0
 15 16  1  0
 15 17  1  0
 17 18  1  0
 17 19  1  0
 19 20  1  0
 20 21  2  0
 21 22  1  0
 22 23  2  0
 23 24  1  0
 24 25  2  0
 19 26  1  0
 26 27  2  0
 10 28  1  0
 28 29  2  0
 29 30  1  0
 30 31  2  0
 31 32  1  0
 32 33  2  0
 33 34  1  0
 34 35  2  0
 35 36  1  0
 36 37  2  0
  6 38  1  0
 38 39  2  0
 39  3  1  0
 37  7  1  0
 26 14  1  0
 37 28  1  0
 25 20  1  0
 35 30  1  0
  1 40  1  0
  1 41  1  0
  1 42  1  0
  4 43  1  0
  5 44  1  0
  9 45  1  0
  9 46  1  0
 13 47  1  0
 16 48  1  0
 16 49  1  0
 16 50  1  0
 18 51  1  0
 18 52  1  0
 18 53  1  0
 21 54  1  0
 22 55  1  0
 23 56  1  0
 24 57  1  0
 25 58  1  0
 31 59  1  0
 32 60  1  0
 33 61  1  0
 34 62  1  0
 38 63  1  0
 39 64  1  0
M  END
$$$$
