
     RDKit          3D

 50 53  0  0  0  0  0  0  0  0999 V2000
    8.3176    0.3876    2.7090 C   0  0  0  0  0  0  0  0  0  0  0  0
    6.9013    0.0784    2.2597 C   0  0  0  0  0  0  0  0  0  0  0  0
    6.6248    0.8725    1.1039 O   0  0  0  0  0  0  0  0  0  0  0  0
    5.4620    0.6305    0.4294 C   0  0  0  0  0  0  0  0  0  0  0  0
    4.3862   -0.1011    0.9401 C   0  0  0  0  0  0  0  0  0  0  0  0
    3.2118   -0.2638    0.1886 C   0  0  0  0  0  0  0  0  0  0  0  0
    3.0925    0.3160   -1.0823 C   0  0  0  0  0  0  0  0  0  0  0  0
    1.8659    0.1531   -1.9128 C   0  0  0  0  0  0  0  0  0  0  0  0
    2.0087    0.0738   -3.1264 O   0  0  0  0  0  0  0  0  0  0  0  0
    0.6778    0.1360   -1.2074 N   0  0  0  0  0  0  0  0  0  0  0  0
   -0.6260   -0.0071   -1.7306 C   0  0  0  0  0  0  0  0  0  0  0  0
   -0.9098   -0.1763   -3.0848 C   0  0  0  0  0  0  0  0  0  0  0  0
   -2.2318   -0.2891   -3.5213 C   0  0  0  0  0  0  0  0  0  0  0  0
   -3.2821   -0.2407   -2.6050 C   0  0  0  0  0  0  0  0  0  0  0  0
   -3.0233   -0.0889   -1.2360 C   0  0  0  0  0  0  0  0  0  0  0  0
   -4.1312   -0.0444   -0.2536 C   0  0  0  0  0  0  0  0  0  0  0  0
   -5.0465   -1.0293   -0.2625 C   0  0  0  0  0  0  0  0  0  0  0  0
   -6.1532   -1.0317    0.6796 C   0  0  0  0  0  0  0  0  0  0  0  0
   -7.1221   -2.0378    0.6869 C   0  0  0  0  0  0  0  0  0  0  0  0
   -8.1716   -1.9920    1.6103 C   0  0  0  0  0  0  0  0  0  0  0  0
   -8.2567   -0.9428    2.5282 C   0  0  0  0  0  0  0  0  0  0  0  0
   -7.2929    0.0636    2.5256 C   0  0  0  0  0  0  0  0  0  0  0  0
   -6.2538    0.0040    1.6003 C   0  0  0  0  0  0  0  0  0  0  0  0
   -5.2981    1.0329    1.6309 O   0  0  0  0  0  0  0  0  0  0  0  0
   -4.2172    1.0572    0.7544 C   0  0  0  0  0  0  0  0  0  0  0  0
   -3.3752    1.9472    0.8269 O   0  0  0  0  0  0  0  0  0  0  0  0
   -1.6884    0.0296   -0.8147 C   0  0  0  0  0  0  0  0  0  0  0  0
    4.1618    1.0397   -1.6137 C   0  0  0  0  0  0  0  0  0  0  0  0
    5.3247    1.1861   -0.8493 C   0  0  0  0  0  0  0  0  0  0  0  0
    6.4193    1.9363   -1.4283 N   0  0  0  0  0  4  0  0  0  0  0  0
    7.4434    1.3074   -1.7296 O   0  0  0  0  0  0  0  0  0  0  0  0
    6.2265    3.1456   -1.6187 O   0  0  0  0  0  1  0  0  0  0  0  0
    9.0326    0.1621    1.9089 H   0  0  0  0  0  0  0  0  0  0  0  0
    8.5833   -0.1983    3.5954 H   0  0  0  0  0  0  0  0  0  0  0  0
    8.4242    1.4530    2.9424 H   0  0  0  0  0  0  0  0  0  0  0  0
    6.2052    0.3318    3.0686 H   0  0  0  0  0  0  0  0  0  0  0  0
    6.8261   -0.9900    2.0202 H   0  0  0  0  0  0  0  0  0  0  0  0
    4.4248   -0.5578    1.9253 H   0  0  0  0  0  0  0  0  0  0  0  0
    2.4099   -0.8710    0.6030 H   0  0  0  0  0  0  0  0  0  0  0  0
    0.7232    0.3227   -0.2142 H   0  0  0  0  0  0  0  0  0  0  0  0
   -0.1256   -0.2096   -3.8341 H   0  0  0  0  0  0  0  0  0  0  0  0
   -2.4392   -0.4041   -4.5826 H   0  0  0  0  0  0  0  0  0  0  0  0
   -4.3026   -0.3122   -2.9754 H   0  0  0  0  0  0  0  0  0  0  0  0
   -4.9898   -1.8560   -0.9652 H   0  0  0  0  0  0  0  0  0  0  0  0
   -7.0744   -2.8619   -0.0205 H   0  0  0  0  0  0  0  0  0  0  0  0
   -8.9249   -2.7764    1.6136 H   0  0  0  0  0  0  0  0  0  0  0  0
   -9.0751   -0.9101    3.2435 H   0  0  0  0  0  0  0  0  0  0  0  0
   -7.3507    0.8836    3.2354 H   0  0  0  0  0  0  0  0  0  0  0  0
   -1.4798    0.1610    0.2450 H   0  0  0  0  0  0  0  0  0  0  0  0
    4.0884    1.4808   -2.6061 H   0  0  0  0  0  0  0  0  0  0  0  0
  1  2  1  0
  2  3  1  0
  3  4  1  0
  4  5  2  0
  5  6  1  0
  6  7  2  0
  7  8  1  0
  8  9  2  0
  8 10  1  0
 10 11  1  0
 11 12  2  0
 12 13  1  0
 13 14  2  0
 14 15  1  0
 15 16  1  0
 16 17  2  0
 17 18  1  0
 18 19  2  0
 19 20  1  0
 20 21  2  0
 21 22  1  0
 22 23  2  0
 23 24  1  0
 24 25  1  0
 25 26  2  0
 15 27  2  0
  7 28  1  0
 28 29  2  0
 29 30  1  0
 30 31  2  0
 30 32  1  0
 29  4  1  0
 27 11  1  0
 25 16  1  0
 23 18  1  0
  1 33  1  0
  1 34  1  0
  1 35  1  0
  2 36  1  0
  2 37  1  0
  5 38  1  0
  6 39  1  0
 10 40  1  0
 12 41  1  0
 13 42  1  0
 14 43  1  0
 17 44  1  0
 19 45  1  0
 20 46  1  0
 21 47  1  0
 22 48  1  0
 27 49  1  0
 28 50  1  0
M  CHG  2  30   1  32  -1
M  END
$$$$
