
     RDKit          3D

 37 37  0  0  0  0  0  0  0  0999 V2000
   -1.7372   -3.2961   -1.1304 C   0  0  0  0  0  0  0  0  0  0  0  0
   -1.2198   -2.0771   -0.5956 O   0  0  0  0  0  0  0  0  0  0  0  0
   -2.0733   -1.0155   -0.7051 C   0  0  0  0  0  0  0  0  0  0  0  0
   -3.2135   -1.0896   -1.1490 O   0  0  0  0  0  0  0  0  0  0  0  0
   -1.4659    0.2705   -0.1120 C   0  0  0  0  0  0  0  0  0  0  0  0
   -2.1460    0.6153    1.2201 C   0  0  0  0  0  0  0  0  0  0  0  0
   -3.5732    1.1314    1.0332 C   0  0  0  0  0  0  0  0  0  0  0  0
   -4.2563    1.6409    2.6448 S   0  0  0  0  0  0  0  0  0  0  0  0
   -5.8938    2.1698    2.0860 C   0  0  0  0  0  0  0  0  0  0  0  0
   -0.0211    0.1271    0.1129 N   0  0  0  0  0  0  0  0  0  0  0  0
    0.8462    0.3460   -0.9259 C   0  0  0  0  0  0  0  0  0  0  0  0
    0.5064    0.7783   -2.0184 O   0  0  0  0  0  0  0  0  0  0  0  0
    2.1377    0.0656   -0.5828 N   0  0  0  0  0  0  0  0  0  0  0  0
    3.1798    0.1376   -1.5792 C   0  0  0  0  0  0  0  0  0  0  0  0
    4.4978   -0.0171   -0.8934 C   0  0  0  0  0  0  0  0  0  0  0  0
    5.2768    0.9631   -0.3090 C   0  0  0  0  0  0  0  0  0  0  0  0
    6.4753    0.4392    0.2554 C   0  0  0  0  0  0  0  0  0  0  0  0
    6.5717   -0.9235    0.0853 C   0  0  0  0  0  0  0  0  0  0  0  0
    5.2228   -1.5637   -0.7476 S   0  0  0  0  0  0  0  0  0  0  0  0
   -1.9737   -3.1810   -2.1929 H   0  0  0  0  0  0  0  0  0  0  0  0
   -2.6198   -3.6155   -0.5675 H   0  0  0  0  0  0  0  0  0  0  0  0
   -0.9655   -4.0642   -1.0295 H   0  0  0  0  0  0  0  0  0  0  0  0
   -1.6179    1.0732   -0.8430 H   0  0  0  0  0  0  0  0  0  0  0  0
   -1.5488    1.3849    1.7285 H   0  0  0  0  0  0  0  0  0  0  0  0
   -2.1476   -0.2675    1.8737 H   0  0  0  0  0  0  0  0  0  0  0  0
   -4.2221    0.3543    0.6224 H   0  0  0  0  0  0  0  0  0  0  0  0
   -3.5805    1.9932    0.3583 H   0  0  0  0  0  0  0  0  0  0  0  0
   -5.8046    2.9878    1.3664 H   0  0  0  0  0  0  0  0  0  0  0  0
   -6.4286    1.3332    1.6290 H   0  0  0  0  0  0  0  0  0  0  0  0
   -6.4704    2.5235    2.9448 H   0  0  0  0  0  0  0  0  0  0  0  0
    0.2468   -0.6196    0.7368 H   0  0  0  0  0  0  0  0  0  0  0  0
    2.3014   -0.5244    0.2173 H   0  0  0  0  0  0  0  0  0  0  0  0
    3.1183    1.1029   -2.0946 H   0  0  0  0  0  0  0  0  0  0  0  0
    3.0041   -0.6486   -2.3221 H   0  0  0  0  0  0  0  0  0  0  0  0
    4.9963    2.0100   -0.2871 H   0  0  0  0  0  0  0  0  0  0  0  0
    7.2284    1.0321    0.7600 H   0  0  0  0  0  0  0  0  0  0  0  0
    7.3702   -1.5765    0.4101 H   0  0  0  0  0  0  0  0  0  0  0  0
  1  2  1  0
  2  3  1  0
  3  4  2  0
  3  5  1  0
  5  6  1  0
  6  7  1  0
  7  8  1  0
  8  9  1  0
  5 10  1  0
 10 11  1  0
 11 12  2  0
 11 13  1  0
 13 14  1  0
 14 15  1  0
 15 16  2  0
 16 17  1  0
 17 18  2  0
 18 19  1  0
 19 15  1  0
  1 20  1  0
  1 21  1  0
  1 22  1  0
  5 23  1  0
  6 24  1  0
  6 25  1  0
  7 26  1  0
  7 27  1  0
  9 28  1  0
  9 29  1  0
  9 30  1  0
 10 31  1  0
 13 32  1  0
 14 33  1  0
 14 34  1  0
 16 35  1  0
 17 36  1  0
 18 37  1  0
M  END
$$$$
