
     RDKit          3D

 48 49  0  0  0  0  0  0  0  0999 V2000
   -3.5137    2.4480    0.9321 C   0  0  0  0  0  0  0  0  0  0  0  0
   -3.4309    1.5675   -0.3053 C   0  0  0  0  0  0  0  0  0  0  0  0
   -4.3104    0.3959   -0.2186 N   0  0  0  0  0  0  0  0  0  0  0  0
   -5.7294    0.5980   -0.5121 C   0  0  0  0  0  0  0  0  0  0  0  0
   -6.0289    0.5133   -2.0020 C   0  0  0  0  0  0  0  0  0  0  0  0
   -3.8624   -0.9231   -0.1039 C   0  0  0  0  0  0  0  0  0  0  0  0
   -4.5822   -1.9065   -0.2623 O   0  0  0  0  0  0  0  0  0  0  0  0
   -2.4423   -1.1744    0.2098 C   0  0  0  0  0  0  0  0  0  0  0  0
   -1.9147   -0.8180    1.4516 C   0  0  0  0  0  0  0  0  0  0  0  0
   -0.5689   -1.0751    1.7350 C   0  0  0  0  0  0  0  0  0  0  0  0
    0.2473   -1.7008    0.7884 C   0  0  0  0  0  0  0  0  0  0  0  0
    1.6089   -1.9887    0.9949 N   0  0  0  0  0  0  0  0  0  0  0  0
    2.3930   -1.6596    2.0884 C   0  0  0  0  0  0  0  0  0  0  0  0
    2.0397   -1.0582    3.0974 O   0  0  0  0  0  0  0  0  0  0  0  0
    3.8334   -2.1587    1.9349 C   0  0  0  0  0  0  0  0  0  0  0  0
    4.3390   -2.0496    0.6093 O   0  0  0  0  0  0  0  0  0  0  0  0
    4.6012   -0.8005    0.1067 C   0  0  0  0  0  0  0  0  0  0  0  0
    4.6829    0.3660    0.8753 C   0  0  0  0  0  0  0  0  0  0  0  0
    4.9608    1.5970    0.2685 C   0  0  0  0  0  0  0  0  0  0  0  0
    5.1604    1.6630   -1.1156 C   0  0  0  0  0  0  0  0  0  0  0  0
    5.4505    2.9553   -1.7496 N   0  0  0  0  0  4  0  0  0  0  0  0
    5.5097    3.9539   -1.0187 O   0  0  0  0  0  0  0  0  0  0  0  0
    5.6171    2.9690   -2.9770 O   0  0  0  0  0  1  0  0  0  0  0  0
    5.0843    0.5082   -1.8992 C   0  0  0  0  0  0  0  0  0  0  0  0
    4.8062   -0.7144   -1.2833 C   0  0  0  0  0  0  0  0  0  0  0  0
    4.6901   -2.1179   -2.2886 Cl  0  0  0  0  0  0  0  0  0  0  0  0
   -0.3036   -2.0811   -0.4441 C   0  0  0  0  0  0  0  0  0  0  0  0
   -1.6466   -1.8254   -0.7334 C   0  0  0  0  0  0  0  0  0  0  0  0
   -2.8227    3.2919    0.8419 H   0  0  0  0  0  0  0  0  0  0  0  0
   -3.2556    1.8914    1.8375 H   0  0  0  0  0  0  0  0  0  0  0  0
   -4.5215    2.8523    1.0689 H   0  0  0  0  0  0  0  0  0  0  0  0
   -2.3934    1.2604   -0.4627 H   0  0  0  0  0  0  0  0  0  0  0  0
   -3.7168    2.1446   -1.1917 H   0  0  0  0  0  0  0  0  0  0  0  0
   -6.3142   -0.1664    0.0127 H   0  0  0  0  0  0  0  0  0  0  0  0
   -6.0430    1.5696   -0.1165 H   0  0  0  0  0  0  0  0  0  0  0  0
   -5.7384   -0.4598   -2.4107 H   0  0  0  0  0  0  0  0  0  0  0  0
   -5.4873    1.2837   -2.5600 H   0  0  0  0  0  0  0  0  0  0  0  0
   -7.0990    0.6530   -2.1818 H   0  0  0  0  0  0  0  0  0  0  0  0
   -2.5462   -0.3561    2.2056 H   0  0  0  0  0  0  0  0  0  0  0  0
   -0.1928   -0.7848    2.7113 H   0  0  0  0  0  0  0  0  0  0  0  0
    2.0971   -2.4455    0.2297 H   0  0  0  0  0  0  0  0  0  0  0  0
    3.8256   -3.2252    2.1895 H   0  0  0  0  0  0  0  0  0  0  0  0
    4.4951   -1.6730    2.6602 H   0  0  0  0  0  0  0  0  0  0  0  0
    4.5409    0.3630    1.9524 H   0  0  0  0  0  0  0  0  0  0  0  0
    5.0174    2.4896    0.8905 H   0  0  0  0  0  0  0  0  0  0  0  0
    5.2347    0.5479   -2.9761 H   0  0  0  0  0  0  0  0  0  0  0  0
    0.3010   -2.5851   -1.1942 H   0  0  0  0  0  0  0  0  0  0  0  0
   -2.0714   -2.1346   -1.6853 H   0  0  0  0  0  0  0  0  0  0  0  0
  1  2  1  0
  2  3  1  0
  3  4  1  0
  4  5  1  0
  3  6  1  0
  6  7  2  0
  6  8  1  0
  8  9  2  0
  9 10  1  0
 10 11  2  0
 11 12  1  0
 12 13  1  0
 13 14  2  0
 13 15  1  0
 15 16  1  0
 16 17  1  0
 17 18  2  0
 18 19  1  0
 19 20  2  0
 20 21  1  0
 21 22  2  0
 21 23  1  0
 20 24  1  0
 24 25  2  0
 25 26  1  0
 11 27  1  0
 27 28  2  0
 28  8  1  0
 25 17  1  0
  1 29  1  0
  1 30  1  0
  1 31  1  0
  2 32  1  0
  2 33  1  0
  4 34  1  0
  4 35  1  0
  5 36  1  0
  5 37  1  0
  5 38  1  0
  9 39  1  0
 10 40  1  0
 12 41  1  0
 15 42  1  0
 15 43  1  0
 18 44  1  0
 19 45  1  0
 24 46  1  0
 27 47  1  0
 28 48  1  0
M  CHG  2  21   1  23  -1
M  END
$$$$
