
     RDKit          3D

 57 62  0  0  0  0  0  0  0  0999 V2000
    7.9726    2.7149   -0.3469 C   0  0  0  0  0  0  0  0  0  0  0  0
    6.6851    3.2111   -0.0006 O   0  0  0  0  0  0  0  0  0  0  0  0
    5.6708    2.3021    0.0946 C   0  0  0  0  0  0  0  0  0  0  0  0
    4.4375    2.8423    0.4609 C   0  0  0  0  0  0  0  0  0  0  0  0
    3.3095    2.0276    0.5975 C   0  0  0  0  0  0  0  0  0  0  0  0
    3.4083    0.6517    0.3691 C   0  0  0  0  0  0  0  0  0  0  0  0
    2.1394   -0.2612    0.5266 C   0  0  0  0  0  0  0  0  0  0  0  0
    0.8489    0.1650    0.8188 C   0  0  0  0  0  0  0  0  0  0  0  0
    0.0020   -0.9423    0.8524 N   0  0  0  0  0  4  0  0  0  0  0  0
   -1.4574   -0.9301    1.0725 C   0  0  0  0  0  0  0  0  0  0  0  0
   -2.2092   -1.1380   -0.2604 C   0  0  0  0  0  0  0  0  0  0  0  0
   -1.7462   -1.9580   -1.0598 O   0  0  0  0  0  0  0  0  0  0  0  0
   -3.2915   -0.2722   -0.4995 N   0  0  0  0  0  0  0  0  0  0  0  0
   -3.6561    0.1260   -1.8404 C   0  0  0  0  0  0  0  0  0  0  0  0
   -3.4740   -0.7393   -2.9341 C   0  0  0  0  0  0  0  0  0  0  0  0
   -3.8136   -0.3569   -4.2370 C   0  0  0  0  0  0  0  0  0  0  0  0
   -4.3375    0.9047   -4.4792 C   0  0  0  0  0  0  0  0  0  0  0  0
   -4.5251    1.7832   -3.4172 C   0  0  0  0  0  0  0  0  0  0  0  0
   -4.1936    1.4014   -2.1075 C   0  0  0  0  0  0  0  0  0  0  0  0
   -4.3920    2.6256   -0.8318 S   0  0  0  0  0  0  0  0  0  0  0  0
   -4.6631    1.5335    0.5357 C   0  0  0  0  0  0  0  0  0  0  0  0
   -5.4311    2.0011    1.6116 C   0  0  0  0  0  0  0  0  0  0  0  0
   -5.6831    1.1846    2.7115 C   0  0  0  0  0  0  0  0  0  0  0  0
   -5.1790   -0.1095    2.7378 C   0  0  0  0  0  0  0  0  0  0  0  0
   -4.4030   -0.5767    1.6741 C   0  0  0  0  0  0  0  0  0  0  0  0
   -4.1049    0.2465    0.5692 C   0  0  0  0  0  0  0  0  0  0  0  0
    0.7356   -2.0135    0.5634 C   0  0  0  0  0  0  0  0  0  0  0  0
    2.0026   -1.6331    0.4155 N   0  0  0  0  0  0  0  0  0  0  0  0
    2.8785   -2.7649    0.1483 C   0  0  0  0  0  0  0  0  0  0  0  0
    1.9953   -3.9949    0.4949 C   0  0  0  0  0  0  0  0  0  0  0  0
    0.5461   -3.4758    0.4147 C   0  0  0  0  0  0  0  0  0  0  0  0
    4.6391    0.1096   -0.0046 C   0  0  0  0  0  0  0  0  0  0  0  0
    5.7665    0.9322   -0.1408 C   0  0  0  0  0  0  0  0  0  0  0  0
    7.9665    2.2694   -1.3471 H   0  0  0  0  0  0  0  0  0  0  0  0
    8.3351    2.0019    0.4012 H   0  0  0  0  0  0  0  0  0  0  0  0
    8.6642    3.5625   -0.3627 H   0  0  0  0  0  0  0  0  0  0  0  0
    4.3579    3.9131    0.6430 H   0  0  0  0  0  0  0  0  0  0  0  0
    2.3778    2.5038    0.8866 H   0  0  0  0  0  0  0  0  0  0  0  0
    0.4169    1.1354    0.9964 H   0  0  0  0  0  0  0  0  0  0  0  0
   -1.7023   -1.7479    1.7570 H   0  0  0  0  0  0  0  0  0  0  0  0
   -1.7018    0.0264    1.5418 H   0  0  0  0  0  0  0  0  0  0  0  0
   -3.1101   -1.7547   -2.8073 H   0  0  0  0  0  0  0  0  0  0  0  0
   -3.6749   -1.0543   -5.0606 H   0  0  0  0  0  0  0  0  0  0  0  0
   -4.6023    1.2042   -5.4905 H   0  0  0  0  0  0  0  0  0  0  0  0
   -4.9300    2.7735   -3.6195 H   0  0  0  0  0  0  0  0  0  0  0  0
   -5.8538    3.0049    1.5930 H   0  0  0  0  0  0  0  0  0  0  0  0
   -6.2961    1.5520    3.5325 H   0  0  0  0  0  0  0  0  0  0  0  0
   -5.4143   -0.7631    3.5755 H   0  0  0  0  0  0  0  0  0  0  0  0
   -4.0982   -1.6200    1.7006 H   0  0  0  0  0  0  0  0  0  0  0  0
    3.7682   -2.7314    0.7809 H   0  0  0  0  0  0  0  0  0  0  0  0
    3.1499   -2.7583   -0.9116 H   0  0  0  0  0  0  0  0  0  0  0  0
    2.2082   -4.3064    1.5246 H   0  0  0  0  0  0  0  0  0  0  0  0
    2.1800   -4.8495   -0.1618 H   0  0  0  0  0  0  0  0  0  0  0  0
    0.1078   -3.6461   -0.5696 H   0  0  0  0  0  0  0  0  0  0  0  0
   -0.0933   -3.8386    1.2200 H   0  0  0  0  0  0  0  0  0  0  0  0
    4.7622   -0.9453   -0.2131 H   0  0  0  0  0  0  0  0  0  0  0  0
    6.7047    0.4722   -0.4371 H   0  0  0  0  0  0  0  0  0  0  0  0
  1  2  1  0
  2  3  1  0
  3  4  2  0
  4  5  1  0
  5  6  2  0
  6  7  1  0
  7  8  2  0
  8  9  1  0
  9 10  1  0
 10 11  1  0
 11 12  2  0
 11 13  1  0
 13 14  1  0
 14 15  2  0
 15 16  1  0
 16 17  2  0
 17 18  1  0
 18 19  2  0
 19 20  1  0
 20 21  1  0
 21 22  2  0
 22 23  1  0
 23 24  2  0
 24 25  1  0
 25 26  2  0
  9 27  2  0
 27 28  1  0
 28 29  1  0
 29 30  1  0
 30 31  1  0
  6 32  1  0
 32 33  2  0
 33  3  1  0
 28  7  1  0
 26 13  1  0
 31 27  1  0
 19 14  1  0
 26 21  1  0
  1 34  1  0
  1 35  1  0
  1 36  1  0
  4 37  1  0
  5 38  1  0
  8 39  1  0
 10 40  1  0
 10 41  1  0
 15 42  1  0
 16 43  1  0
 17 44  1  0
 18 45  1  0
 22 46  1  0
 23 47  1  0
 24 48  1  0
 25 49  1  0
 29 50  1  0
 29 51  1  0
 30 52  1  0
 30 53  1  0
 31 54  1  0
 31 55  1  0
 32 56  1  0
 33 57  1  0
M  CHG  1   9   1
M  END
$$$$
