
     RDKit          3D

 36 38  0  0  0  0  0  0  0  0999 V2000
   -2.7040    0.8393   -2.2664 C   0  0  0  0  0  0  0  0  0  0  0  0
   -2.2788    0.2815   -0.9438 C   0  0  0  0  0  0  0  0  0  0  0  0
   -0.9555    0.2536   -0.6706 N   0  0  0  0  0  0  0  0  0  0  0  0
   -0.6134   -0.2468    0.5460 C   0  0  0  0  0  0  0  0  0  0  0  0
    1.1376   -0.2847    0.9187 S   0  0  0  0  0  6  0  0  0  0  0  0
    1.5352   -1.6823    1.0132 O   0  0  0  0  0  0  0  0  0  0  0  0
    1.3734    0.6469    2.0126 O   0  0  0  0  0  0  0  0  0  0  0  0
    1.8739    0.4004   -0.5595 C   0  0  0  0  0  0  0  0  0  0  0  0
    3.3757    0.4397   -0.4071 C   0  0  0  0  0  0  0  0  0  0  0  0
    4.0064    1.5651    0.1450 C   0  0  0  0  0  0  0  0  0  0  0  0
    5.3954    1.5998    0.2884 C   0  0  0  0  0  0  0  0  0  0  0  0
    6.1614    0.5092   -0.1161 C   0  0  0  0  0  0  0  0  0  0  0  0
    7.8725    0.5534    0.0587 Cl  0  0  0  0  0  0  0  0  0  0  0  0
    5.5499   -0.6177   -0.6600 C   0  0  0  0  0  0  0  0  0  0  0  0
    4.1609   -0.6535   -0.8040 C   0  0  0  0  0  0  0  0  0  0  0  0
   -1.4270   -0.7158    1.5141 N   0  0  0  0  0  0  0  0  0  0  0  0
   -2.7156   -0.6695    1.1740 C   0  0  0  0  0  0  0  0  0  0  0  0
   -3.1956   -0.1890   -0.0328 C   0  0  0  0  0  0  0  0  0  0  0  0
   -4.6848   -0.2377   -0.0794 C   0  0  0  0  0  0  0  0  0  0  0  0
   -4.9864   -1.2259    1.0588 C   0  0  0  0  0  0  0  0  0  0  0  0
   -3.8441   -1.0867    2.0743 C   0  0  0  0  0  0  0  0  0  0  0  0
   -1.8371    1.1854   -2.8387 H   0  0  0  0  0  0  0  0  0  0  0  0
   -3.3763    1.6907   -2.1220 H   0  0  0  0  0  0  0  0  0  0  0  0
   -3.2150    0.0714   -2.8555 H   0  0  0  0  0  0  0  0  0  0  0  0
    1.5938   -0.2256   -1.4128 H   0  0  0  0  0  0  0  0  0  0  0  0
    1.4799    1.4102   -0.7119 H   0  0  0  0  0  0  0  0  0  0  0  0
    3.4206    2.4195    0.4806 H   0  0  0  0  0  0  0  0  0  0  0  0
    5.8705    2.4754    0.7225 H   0  0  0  0  0  0  0  0  0  0  0  0
    6.1456   -1.4731   -0.9670 H   0  0  0  0  0  0  0  0  0  0  0  0
    3.6970   -1.5480   -1.2166 H   0  0  0  0  0  0  0  0  0  0  0  0
   -5.0672   -0.6076   -1.0346 H   0  0  0  0  0  0  0  0  0  0  0  0
   -5.1030    0.7511    0.1352 H   0  0  0  0  0  0  0  0  0  0  0  0
   -4.9863   -2.2484    0.6560 H   0  0  0  0  0  0  0  0  0  0  0  0
   -5.9696   -1.0576    1.5091 H   0  0  0  0  0  0  0  0  0  0  0  0
   -4.0519   -0.2950    2.8010 H   0  0  0  0  0  0  0  0  0  0  0  0
   -3.6379   -2.0278    2.5904 H   0  0  0  0  0  0  0  0  0  0  0  0
  1  2  1  0
  2  3  2  0
  3  4  1  0
  4  5  1  0
  5  6  2  0
  5  7  2  0
  5  8  1  0
  8  9  1  0
  9 10  2  0
 10 11  1  0
 11 12  2  0
 12 13  1  0
 12 14  1  0
 14 15  2  0
  4 16  2  0
 16 17  1  0
 17 18  2  0
 18 19  1  0
 19 20  1  0
 20 21  1  0
 18  2  1  0
 15  9  1  0
 21 17  1  0
  1 22  1  0
  1 23  1  0
  1 24  1  0
  8 25  1  0
  8 26  1  0
 10 27  1  0
 11 28  1  0
 14 29  1  0
 15 30  1  0
 19 31  1  0
 19 32  1  0
 20 33  1  0
 20 34  1  0
 21 35  1  0
 21 36  1  0
M  END
$$$$
