
     RDKit          3D

 35 37  0  0  0  0  0  0  0  0999 V2000
    6.4359   -1.2030    1.2365 C   0  0  0  0  0  0  0  0  0  0  0  0
    5.0995   -0.5414    1.0619 C   0  0  0  0  0  0  0  0  0  0  0  0
    4.8241    0.6748    1.7055 C   0  0  0  0  0  0  0  0  0  0  0  0
    3.5790    1.3068    1.5884 C   0  0  0  0  0  0  0  0  0  0  0  0
    2.6204    0.6584    0.8096 C   0  0  0  0  0  0  0  0  0  0  0  0
    1.3283    0.9757    0.4782 N   0  0  0  0  0  0  0  0  0  0  0  0
    0.8197   -0.0303   -0.3152 C   0  0  0  0  0  0  0  0  0  0  0  0
   -0.5097    0.0719   -0.8093 C   0  0  0  0  0  0  0  0  0  0  0  0
   -0.7192   -0.0279   -2.2201 C   0  0  0  0  0  0  0  0  0  0  0  0
   -0.9263   -0.0987   -3.3608 N   0  0  0  0  0  0  0  0  0  0  0  0
   -1.5230    0.2283    0.0693 C   0  0  0  0  0  0  0  0  0  0  0  0
   -2.9551    0.3414   -0.2524 C   0  0  0  0  0  0  0  0  0  0  0  0
   -3.6775    1.4273    0.2697 C   0  0  0  0  0  0  0  0  0  0  0  0
   -5.0448    1.5601    0.0155 C   0  0  0  0  0  0  0  0  0  0  0  0
   -5.6853    0.6031   -0.7552 C   0  0  0  0  0  0  0  0  0  0  0  0
   -7.0205    0.7339   -1.0058 O   0  0  0  0  0  0  0  0  0  0  0  0
   -4.9833   -0.4824   -1.2705 C   0  0  0  0  0  0  0  0  0  0  0  0
   -5.6783   -1.3870   -2.0253 O   0  0  0  0  0  0  0  0  0  0  0  0
   -3.6233   -0.6288   -1.0153 C   0  0  0  0  0  0  0  0  0  0  0  0
    1.7344   -0.9563   -0.5240 N   0  0  0  0  0  0  0  0  0  0  0  0
    2.8495   -0.5513    0.1683 C   0  0  0  0  0  0  0  0  0  0  0  0
    4.1018   -1.1695    0.2953 C   0  0  0  0  0  0  0  0  0  0  0  0
    6.4195   -1.8516    2.1176 H   0  0  0  0  0  0  0  0  0  0  0  0
    6.6919   -1.8049    0.3582 H   0  0  0  0  0  0  0  0  0  0  0  0
    7.2276   -0.4565    1.3599 H   0  0  0  0  0  0  0  0  0  0  0  0
    5.5942    1.1495    2.3123 H   0  0  0  0  0  0  0  0  0  0  0  0
    3.3804    2.2506    2.0841 H   0  0  0  0  0  0  0  0  0  0  0  0
    0.8408    1.8138    0.7594 H   0  0  0  0  0  0  0  0  0  0  0  0
   -1.3190    0.2777    1.1387 H   0  0  0  0  0  0  0  0  0  0  0  0
   -3.1848    2.1839    0.8761 H   0  0  0  0  0  0  0  0  0  0  0  0
   -5.6043    2.4013    0.4136 H   0  0  0  0  0  0  0  0  0  0  0  0
   -7.2426   -0.0408   -1.5605 H   0  0  0  0  0  0  0  0  0  0  0  0
   -5.0427   -2.0203   -2.4031 H   0  0  0  0  0  0  0  0  0  0  0  0
   -3.0880   -1.4923   -1.3997 H   0  0  0  0  0  0  0  0  0  0  0  0
    4.2809   -2.1175   -0.2009 H   0  0  0  0  0  0  0  0  0  0  0  0
  1  2  1  0
  2  3  2  0
  3  4  1  0
  4  5  2  0
  5  6  1  0
  6  7  1  0
  7  8  1  0
  8  9  1  0
  9 10  3  0
  8 11  2  3
 11 12  1  0
 12 13  2  0
 13 14  1  0
 14 15  2  0
 15 16  1  0
 15 17  1  0
 17 18  1  0
 17 19  2  0
  7 20  2  0
 20 21  1  0
 21 22  2  0
 22  2  1  0
 21  5  1  0
 19 12  1  0
  1 23  1  0
  1 24  1  0
  1 25  1  0
  3 26  1  0
  4 27  1  0
  6 28  1  0
 11 29  1  0
 13 30  1  0
 14 31  1  0
 16 32  1  0
 18 33  1  0
 19 34  1  0
 22 35  1  0
M  END
$$$$
