
     RDKit          3D

 56 61  0  0  0  0  0  0  0  0999 V2000
    9.1544    1.4712   -2.6621 C   0  0  0  0  0  0  0  0  0  0  0  0
    7.8079    1.0138   -2.6536 O   0  0  0  0  0  0  0  0  0  0  0  0
    7.2180    0.8395   -1.4323 C   0  0  0  0  0  0  0  0  0  0  0  0
    7.8153    1.0635   -0.1966 C   0  0  0  0  0  0  0  0  0  0  0  0
    7.0874    0.8435    0.9735 C   0  0  0  0  0  0  0  0  0  0  0  0
    5.7575    0.3989    0.9146 C   0  0  0  0  0  0  0  0  0  0  0  0
    5.0202    0.1778    2.0890 C   0  0  0  0  0  0  0  0  0  0  0  0
    3.6987   -0.2635    1.9521 C   0  0  0  0  0  0  0  0  0  0  0  0
    2.6326   -0.6001    2.8203 C   0  0  0  0  0  0  0  0  0  0  0  0
    1.5575   -0.9671    2.0243 C   0  0  0  0  0  0  0  0  0  0  0  0
    0.2280   -1.4071    2.4307 C   0  0  0  0  0  0  0  0  0  0  0  0
   -0.0101   -1.5916    3.6277 O   0  0  0  0  0  0  0  0  0  0  0  0
   -0.7778   -1.6153    1.4810 N   0  0  0  0  0  0  0  0  0  0  0  0
   -0.6250   -1.4614    0.0302 C   0  0  0  0  0  0  0  0  0  0  0  0
   -1.9137   -1.7640   -0.7609 C   0  0  0  0  0  0  0  0  0  0  0  0
   -3.0573   -1.0268   -0.2105 N   0  0  0  0  0  0  0  0  0  0  0  0
   -4.2738   -1.2316   -1.0039 C   0  0  0  0  0  0  0  0  0  0  0  0
   -5.3898   -0.2714   -0.6426 C   0  0  0  0  0  0  0  0  0  0  0  0
   -6.6628   -0.7631   -0.2703 C   0  0  0  0  0  0  0  0  0  0  0  0
   -7.7058    0.1108    0.0546 C   0  0  0  0  0  0  0  0  0  0  0  0
   -7.4512    1.4633   -0.0039 C   0  0  0  0  0  0  0  0  0  0  0  0
   -6.2202    1.9533   -0.3692 C   0  0  0  0  0  0  0  0  0  0  0  0
   -5.1741    1.1173   -0.6961 C   0  0  0  0  0  0  0  0  0  0  0  0
   -6.1804    3.3127   -0.3642 O   0  0  0  0  0  0  0  0  0  0  0  0
   -7.5245    3.6210    0.0578 C   0  0  0  0  0  0  0  0  0  0  0  0
   -8.3413    2.4521    0.2779 O   0  0  0  0  0  0  0  0  0  0  0  0
   -3.2518   -1.3062    1.2286 C   0  0  0  0  0  0  0  0  0  0  0  0
   -2.0969   -2.0573    1.9285 C   0  0  0  0  0  0  0  0  0  0  0  0
    1.9269   -0.8772    0.7110 O   0  0  0  0  0  0  0  0  0  0  0  0
    3.2164   -0.4507    0.6644 C   0  0  0  0  0  0  0  0  0  0  0  0
    3.8779   -0.2570   -0.4865 N   0  0  0  0  0  0  0  0  0  0  0  0
    5.1403    0.1673   -0.3383 C   0  0  0  0  0  0  0  0  0  0  0  0
    5.8917    0.3949   -1.4818 C   0  0  0  0  0  0  0  0  0  0  0  0
    9.4699    1.5622   -3.7060 H   0  0  0  0  0  0  0  0  0  0  0  0
    9.2381    2.4610   -2.2013 H   0  0  0  0  0  0  0  0  0  0  0  0
    9.8188    0.7500   -2.1750 H   0  0  0  0  0  0  0  0  0  0  0  0
    8.8405    1.4073   -0.1068 H   0  0  0  0  0  0  0  0  0  0  0  0
    7.5681    1.0223    1.9332 H   0  0  0  0  0  0  0  0  0  0  0  0
    5.4492    0.3425    3.0723 H   0  0  0  0  0  0  0  0  0  0  0  0
    2.6258   -0.5812    3.9022 H   0  0  0  0  0  0  0  0  0  0  0  0
   -0.3148   -0.4283   -0.1646 H   0  0  0  0  0  0  0  0  0  0  0  0
    0.1632   -2.1415   -0.3092 H   0  0  0  0  0  0  0  0  0  0  0  0
   -2.1125   -2.8435   -0.7458 H   0  0  0  0  0  0  0  0  0  0  0  0
   -1.7451   -1.4804   -1.8066 H   0  0  0  0  0  0  0  0  0  0  0  0
   -4.6168   -2.2708   -0.9151 H   0  0  0  0  0  0  0  0  0  0  0  0
   -4.0583   -1.0684   -2.0686 H   0  0  0  0  0  0  0  0  0  0  0  0
   -6.8434   -1.8354   -0.2307 H   0  0  0  0  0  0  0  0  0  0  0  0
   -8.6823   -0.2608    0.3431 H   0  0  0  0  0  0  0  0  0  0  0  0
   -4.2079    1.5246   -0.9771 H   0  0  0  0  0  0  0  0  0  0  0  0
   -7.4764    4.1952    0.9906 H   0  0  0  0  0  0  0  0  0  0  0  0
   -8.0001    4.2408   -0.7113 H   0  0  0  0  0  0  0  0  0  0  0  0
   -4.1678   -1.8822    1.4123 H   0  0  0  0  0  0  0  0  0  0  0  0
   -3.3826   -0.3379    1.7271 H   0  0  0  0  0  0  0  0  0  0  0  0
   -2.1600   -3.1285    1.6986 H   0  0  0  0  0  0  0  0  0  0  0  0
   -2.2102   -1.9574    3.0129 H   0  0  0  0  0  0  0  0  0  0  0  0
    5.4305    0.2210   -2.4524 H   0  0  0  0  0  0  0  0  0  0  0  0
  1  2  1  0
  2  3  1  0
  3  4  2  0
  4  5  1  0
  5  6  2  0
  6  7  1  0
  7  8  2  0
  8  9  1  0
  9 10  2  0
 10 11  1  0
 11 12  2  0
 11 13  1  0
 13 14  1  0
 14 15  1  0
 15 16  1  0
 16 17  1  0
 17 18  1  0
 18 19  2  0
 19 20  1  0
 20 21  2  0
 21 22  1  0
 22 23  2  0
 22 24  1  0
 24 25  1  0
 25 26  1  0
 16 27  1  0
 27 28  1  0
 10 29  1  0
 29 30  1  0
 30 31  2  0
 31 32  1  0
 32 33  2  0
 33  3  1  0
 32  6  1  0
 30  8  1  0
 28 13  1  0
 23 18  1  0
 26 21  1  0
  1 34  1  0
  1 35  1  0
  1 36  1  0
  4 37  1  0
  5 38  1  0
  7 39  1  0
  9 40  1  0
 14 41  1  0
 14 42  1  0
 15 43  1  0
 15 44  1  0
 17 45  1  0
 17 46  1  0
 19 47  1  0
 20 48  1  0
 23 49  1  0
 25 50  1  0
 25 51  1  0
 27 52  1  0
 27 53  1  0
 28 54  1  0
 28 55  1  0
 33 56  1  0
M  END
$$$$
