
     RDKit          3D

 48 49  0  0  0  0  0  0  0  0999 V2000
   -4.0418    1.9200    1.6491 C   0  0  0  0  0  0  0  0  0  0  0  0
   -4.2580    0.4347    1.4097 C   0  0  0  0  0  0  0  0  0  0  0  0
   -4.9737    0.1563    0.1594 N   0  0  0  0  0  0  0  0  0  0  0  0
   -6.3962    0.4966    0.1068 C   0  0  0  0  0  0  0  0  0  0  0  0
   -6.6649    1.7088   -0.7728 C   0  0  0  0  0  0  0  0  0  0  0  0
   -4.4429   -0.5473   -0.9246 C   0  0  0  0  0  0  0  0  0  0  0  0
   -5.1195   -0.9622   -1.8635 O   0  0  0  0  0  0  0  0  0  0  0  0
   -2.9927   -0.8260   -0.9698 C   0  0  0  0  0  0  0  0  0  0  0  0
   -2.5619   -2.1508   -1.0456 C   0  0  0  0  0  0  0  0  0  0  0  0
   -1.1944   -2.4311   -1.1201 C   0  0  0  0  0  0  0  0  0  0  0  0
   -0.2497   -1.3939   -1.1311 C   0  0  0  0  0  0  0  0  0  0  0  0
    1.1091   -1.7667   -1.2065 N   0  0  0  0  0  0  0  0  0  0  0  0
    2.2173   -0.9276   -1.2018 C   0  0  0  0  0  0  0  0  0  0  0  0
    2.1966    0.2942   -1.0983 O   0  0  0  0  0  0  0  0  0  0  0  0
    3.5337   -1.7192   -1.3043 C   0  0  0  0  0  0  0  0  0  0  0  0
    4.7135   -0.9623   -1.5087 O   0  0  0  0  0  0  0  0  0  0  0  0
    5.3418   -0.3933   -0.4340 C   0  0  0  0  0  0  0  0  0  0  0  0
    4.7799   -0.2668    0.8412 C   0  0  0  0  0  0  0  0  0  0  0  0
    5.4959    0.3465    1.8762 C   0  0  0  0  0  0  0  0  0  0  0  0
    6.7831    0.8409    1.6345 C   0  0  0  0  0  0  0  0  0  0  0  0
    7.5326    1.4821    2.7214 N   0  0  0  0  0  4  0  0  0  0  0  0
    6.9994    1.5271    3.8389 O   0  0  0  0  0  0  0  0  0  0  0  0
    8.6555    1.9340    2.4584 O   0  0  0  0  0  1  0  0  0  0  0  0
    7.3595    0.7295    0.3666 C   0  0  0  0  0  0  0  0  0  0  0  0
    6.6348    0.1164   -0.6589 C   0  0  0  0  0  0  0  0  0  0  0  0
    7.3892   -0.0080   -2.2116 Cl  0  0  0  0  0  0  0  0  0  0  0  0
   -0.6967   -0.0704   -1.0815 C   0  0  0  0  0  0  0  0  0  0  0  0
   -2.0650    0.2160   -1.0116 C   0  0  0  0  0  0  0  0  0  0  0  0
   -3.4530    2.0744    2.5587 H   0  0  0  0  0  0  0  0  0  0  0  0
   -3.5119    2.3862    0.8134 H   0  0  0  0  0  0  0  0  0  0  0  0
   -4.9941    2.4442    1.7757 H   0  0  0  0  0  0  0  0  0  0  0  0
   -4.8459    0.0058    2.2299 H   0  0  0  0  0  0  0  0  0  0  0  0
   -3.2948   -0.0810    1.4294 H   0  0  0  0  0  0  0  0  0  0  0  0
   -6.7641    0.6816    1.1220 H   0  0  0  0  0  0  0  0  0  0  0  0
   -6.9513   -0.3643   -0.2837 H   0  0  0  0  0  0  0  0  0  0  0  0
   -6.3475    1.5310   -1.8052 H   0  0  0  0  0  0  0  0  0  0  0  0
   -6.1279    2.5900   -0.4088 H   0  0  0  0  0  0  0  0  0  0  0  0
   -7.7344    1.9403   -0.7817 H   0  0  0  0  0  0  0  0  0  0  0  0
   -3.2888   -2.9598   -1.0543 H   0  0  0  0  0  0  0  0  0  0  0  0
   -0.8850   -3.4716   -1.1759 H   0  0  0  0  0  0  0  0  0  0  0  0
    1.2855   -2.7613   -1.2814 H   0  0  0  0  0  0  0  0  0  0  0  0
    3.6326   -2.3841   -0.4369 H   0  0  0  0  0  0  0  0  0  0  0  0
    3.4407   -2.3706   -2.1820 H   0  0  0  0  0  0  0  0  0  0  0  0
    3.7740   -0.6094    1.0627 H   0  0  0  0  0  0  0  0  0  0  0  0
    5.0304    0.4392    2.8563 H   0  0  0  0  0  0  0  0  0  0  0  0
    8.3577    1.1125    0.1659 H   0  0  0  0  0  0  0  0  0  0  0  0
   -0.0088    0.7690   -1.1140 H   0  0  0  0  0  0  0  0  0  0  0  0
   -2.3979    1.2503   -1.0076 H   0  0  0  0  0  0  0  0  0  0  0  0
  1  2  1  0
  2  3  1  0
  3  4  1  0
  4  5  1  0
  3  6  1  0
  6  7  2  0
  6  8  1  0
  8  9  2  0
  9 10  1  0
 10 11  2  0
 11 12  1  0
 12 13  1  0
 13 14  2  0
 13 15  1  0
 15 16  1  0
 16 17  1  0
 17 18  2  0
 18 19  1  0
 19 20  2  0
 20 21  1  0
 21 22  2  0
 21 23  1  0
 20 24  1  0
 24 25  2  0
 25 26  1  0
 11 27  1  0
 27 28  2  0
 28  8  1  0
 25 17  1  0
  1 29  1  0
  1 30  1  0
  1 31  1  0
  2 32  1  0
  2 33  1  0
  4 34  1  0
  4 35  1  0
  5 36  1  0
  5 37  1  0
  5 38  1  0
  9 39  1  0
 10 40  1  0
 12 41  1  0
 15 42  1  0
 15 43  1  0
 18 44  1  0
 19 45  1  0
 24 46  1  0
 27 47  1  0
 28 48  1  0
M  CHG  2  21   1  23  -1
M  END
$$$$
