
     RDKit          3D

 33 34  0  0  0  0  0  0  0  0999 V2000
   -6.5481    1.1754    0.1017 N   0  0  0  0  0  0  0  0  0  0  0  0
   -5.2296    0.7509    0.2924 C   0  0  0  0  0  0  0  0  0  0  0  0
   -4.2165    1.6844    0.5253 C   0  0  0  0  0  0  0  0  0  0  0  0
   -2.8764    1.2868    0.5978 C   0  0  0  0  0  0  0  0  0  0  0  0
   -2.5293   -0.0538    0.3949 C   0  0  0  0  0  0  0  0  0  0  0  0
   -1.1229   -0.5363    0.4560 C   0  0  0  0  0  0  0  0  0  0  0  0
   -0.8016   -1.7011    0.2815 O   0  0  0  0  0  0  0  0  0  0  0  0
   -0.2765    0.4897    0.7226 O   0  0  0  0  0  0  0  0  0  0  0  0
    1.1140    0.1353    0.8180 C   0  0  0  0  0  0  0  0  0  0  0  0
    1.7496    0.0846   -0.5704 C   0  0  0  0  0  0  0  0  0  0  0  0
    3.2228   -0.2221   -0.5041 C   0  0  0  0  0  0  0  0  0  0  0  0
    4.1676    0.8121   -0.4903 C   0  0  0  0  0  0  0  0  0  0  0  0
    5.5305    0.5219   -0.4085 C   0  0  0  0  0  0  0  0  0  0  0  0
    5.9598   -0.8021   -0.3358 C   0  0  0  0  0  0  0  0  0  0  0  0
    5.0272   -1.8376   -0.3440 C   0  0  0  0  0  0  0  0  0  0  0  0
    3.6642   -1.5499   -0.4260 C   0  0  0  0  0  0  0  0  0  0  0  0
   -3.5360   -0.9815    0.1033 C   0  0  0  0  0  0  0  0  0  0  0  0
   -4.8724   -0.5740    0.0322 C   0  0  0  0  0  0  0  0  0  0  0  0
   -6.7834    2.0315    0.5940 H   0  0  0  0  0  0  0  0  0  0  0  0
   -7.2416    0.4474    0.2432 H   0  0  0  0  0  0  0  0  0  0  0  0
   -4.4619    2.7357    0.6534 H   0  0  0  0  0  0  0  0  0  0  0  0
   -2.1176    2.0382    0.8001 H   0  0  0  0  0  0  0  0  0  0  0  0
    1.2369   -0.8085    1.3642 H   0  0  0  0  0  0  0  0  0  0  0  0
    1.5946    0.9106    1.4258 H   0  0  0  0  0  0  0  0  0  0  0  0
    1.2463   -0.6612   -1.1982 H   0  0  0  0  0  0  0  0  0  0  0  0
    1.5843    1.0390   -1.0870 H   0  0  0  0  0  0  0  0  0  0  0  0
    3.8487    1.8504   -0.5447 H   0  0  0  0  0  0  0  0  0  0  0  0
    6.2579    1.3293   -0.4015 H   0  0  0  0  0  0  0  0  0  0  0  0
    7.0211   -1.0272   -0.2726 H   0  0  0  0  0  0  0  0  0  0  0  0
    5.3606   -2.8705   -0.2863 H   0  0  0  0  0  0  0  0  0  0  0  0
    2.9462   -2.3680   -0.4291 H   0  0  0  0  0  0  0  0  0  0  0  0
   -3.2857   -2.0239   -0.0842 H   0  0  0  0  0  0  0  0  0  0  0  0
   -5.6329   -1.3056   -0.2286 H   0  0  0  0  0  0  0  0  0  0  0  0
  1  2  1  0
  2  3  2  0
  3  4  1  0
  4  5  2  0
  5  6  1  0
  6  7  2  0
  6  8  1  0
  8  9  1  0
  9 10  1  0
 10 11  1  0
 11 12  2  0
 12 13  1  0
 13 14  2  0
 14 15  1  0
 15 16  2  0
  5 17  1  0
 17 18  2  0
 18  2  1  0
 16 11  1  0
  1 19  1  0
  1 20  1  0
  3 21  1  0
  4 22  1  0
  9 23  1  0
  9 24  1  0
 10 25  1  0
 10 26  1  0
 12 27  1  0
 13 28  1  0
 14 29  1  0
 15 30  1  0
 16 31  1  0
 17 32  1  0
 18 33  1  0
M  END
$$$$
