
     RDKit          3D

 47 49  0  0  0  0  0  0  0  0999 V2000
   -3.4034   -0.5861   -2.5238 C   0  0  0  0  0  0  0  0  0  0  0  0
   -2.9036   -0.9837   -1.1448 C   0  0  0  0  0  0  0  0  0  0  0  0
   -3.4438   -0.1041   -0.0991 N   0  0  0  0  0  4  0  0  0  0  0  0
   -2.8152    0.9851    0.3229 C   0  0  0  0  0  0  0  0  0  0  0  0
   -1.5631    1.4773   -0.1127 C   0  0  0  0  0  0  0  0  0  0  0  0
   -0.3844    0.9701    0.2835 C   0  0  0  0  0  0  0  0  0  0  0  0
   -0.1603   -0.1118    1.2253 C   0  0  0  0  0  0  0  0  0  0  0  0
    1.0311   -0.6657    1.5061 C   0  0  0  0  0  0  0  0  0  0  0  0
    2.3082   -0.2899    0.8976 C   0  0  0  0  0  0  0  0  0  0  0  0
    3.0216    0.8115    1.3621 C   0  0  0  0  0  0  0  0  0  0  0  0
    4.2304    1.1798    0.7532 C   0  0  0  0  0  0  0  0  0  0  0  0
    4.7795    0.4629   -0.3252 C   0  0  0  0  0  0  0  0  0  0  0  0
    5.9731    0.8466   -0.9477 N   0  0  0  0  0  0  0  0  0  0  0  0
    6.8131    1.8650   -0.3163 C   0  0  0  0  0  0  0  0  0  0  0  0
    6.6933   -0.1399   -1.7546 C   0  0  0  0  0  0  0  0  0  0  0  0
    4.0289   -0.6400   -0.7720 C   0  0  0  0  0  0  0  0  0  0  0  0
    2.8179   -1.0179   -0.1732 C   0  0  0  0  0  0  0  0  0  0  0  0
   -3.7442    1.8217    1.4948 S   0  0  0  0  0  0  0  0  0  0  0  0
   -4.9982    0.6460    1.4392 C   0  0  0  0  0  0  0  0  0  0  0  0
   -6.1952    0.6065    2.1709 C   0  0  0  0  0  0  0  0  0  0  0  0
   -7.0731   -0.4550    1.9401 C   0  0  0  0  0  0  0  0  0  0  0  0
   -6.7706   -1.4430    1.0089 C   0  0  0  0  0  0  0  0  0  0  0  0
   -5.5747   -1.3988    0.2815 C   0  0  0  0  0  0  0  0  0  0  0  0
   -4.6740   -0.3374    0.5071 C   0  0  0  0  0  0  0  0  0  0  0  0
   -3.1077    0.4394   -2.7662 H   0  0  0  0  0  0  0  0  0  0  0  0
   -4.4950   -0.6391   -2.5782 H   0  0  0  0  0  0  0  0  0  0  0  0
   -2.9894   -1.2527   -3.2862 H   0  0  0  0  0  0  0  0  0  0  0  0
   -1.8100   -0.9701   -1.1336 H   0  0  0  0  0  0  0  0  0  0  0  0
   -3.1801   -2.0208   -0.9256 H   0  0  0  0  0  0  0  0  0  0  0  0
   -1.5632    2.3313   -0.7883 H   0  0  0  0  0  0  0  0  0  0  0  0
    0.5122    1.4372   -0.1306 H   0  0  0  0  0  0  0  0  0  0  0  0
   -1.0152   -0.5009    1.7742 H   0  0  0  0  0  0  0  0  0  0  0  0
    1.0999   -1.4670    2.2400 H   0  0  0  0  0  0  0  0  0  0  0  0
    2.6514    1.4003    2.1980 H   0  0  0  0  0  0  0  0  0  0  0  0
    4.7346    2.0521    1.1584 H   0  0  0  0  0  0  0  0  0  0  0  0
    6.2746    2.8128   -0.2093 H   0  0  0  0  0  0  0  0  0  0  0  0
    7.1690    1.5292    0.6639 H   0  0  0  0  0  0  0  0  0  0  0  0
    7.6924    2.0891   -0.9307 H   0  0  0  0  0  0  0  0  0  0  0  0
    6.1112   -0.4328   -2.6346 H   0  0  0  0  0  0  0  0  0  0  0  0
    6.9400   -1.0285   -1.1629 H   0  0  0  0  0  0  0  0  0  0  0  0
    7.6334    0.2704   -2.1404 H   0  0  0  0  0  0  0  0  0  0  0  0
    4.3676   -1.2385   -1.6125 H   0  0  0  0  0  0  0  0  0  0  0  0
    2.2870   -1.8833   -0.5605 H   0  0  0  0  0  0  0  0  0  0  0  0
   -6.4406    1.3785    2.8972 H   0  0  0  0  0  0  0  0  0  0  0  0
   -8.0095   -0.5063    2.4964 H   0  0  0  0  0  0  0  0  0  0  0  0
   -7.4755   -2.2584    0.8460 H   0  0  0  0  0  0  0  0  0  0  0  0
   -5.3804   -2.1887   -0.4383 H   0  0  0  0  0  0  0  0  0  0  0  0
  1  2  1  0
  2  3  1  0
  3  4  2  0
  4  5  1  0
  5  6  2  3
  6  7  1  0
  7  8  2  3
  8  9  1  0
  9 10  2  0
 10 11  1  0
 11 12  2  0
 12 13  1  0
 13 14  1  0
 13 15  1  0
 12 16  1  0
 16 17  2  0
  4 18  1  0
 18 19  1  0
 19 20  2  0
 20 21  1  0
 21 22  2  0
 22 23  1  0
 23 24  2  0
 24  3  1  0
 17  9  1  0
 24 19  1  0
  1 25  1  0
  1 26  1  0
  1 27  1  0
  2 28  1  0
  2 29  1  0
  5 30  1  0
  6 31  1  0
  7 32  1  0
  8 33  1  0
 10 34  1  0
 11 35  1  0
 14 36  1  0
 14 37  1  0
 14 38  1  0
 15 39  1  0
 15 40  1  0
 15 41  1  0
 16 42  1  0
 17 43  1  0
 20 44  1  0
 21 45  1  0
 22 46  1  0
 23 47  1  0
M  CHG  1   3   1
M  END
$$$$
