
     RDKit          3D

 39 41  0  0  0  0  0  0  0  0999 V2000
    3.3730   -2.3167   -0.4719 C   0  0  0  0  0  0  0  0  0  0  0  0
    3.6447   -0.9668   -0.9746 N   0  0  0  0  0  0  0  0  0  0  0  0
    4.9466   -0.5131   -0.4761 C   0  0  0  0  0  0  0  0  0  0  0  0
    2.5940   -0.0103   -0.5789 C   0  0  0  0  0  0  0  0  0  0  0  0
    1.2519   -0.2463   -1.2942 C   0  0  0  0  0  0  0  0  0  0  0  0
    0.2285    0.7945   -0.9069 C   0  0  0  0  0  0  0  0  0  0  0  0
   -0.9095    0.6522   -0.1881 C   0  0  0  0  0  0  0  0  0  0  0  0
   -1.8369    1.8183   -0.1353 C   0  0  0  0  0  0  0  0  0  0  0  0
   -1.3868    3.1163    0.1558 C   0  0  0  0  0  0  0  0  0  0  0  0
   -2.2835    4.1856    0.2000 C   0  0  0  0  0  0  0  0  0  0  0  0
   -3.6387    3.9698   -0.0372 C   0  0  0  0  0  0  0  0  0  0  0  0
   -4.1032    2.6820   -0.3075 C   0  0  0  0  0  0  0  0  0  0  0  0
   -3.2129    1.6011   -0.3462 C   0  0  0  0  0  0  0  0  0  0  0  0
   -3.8762   -0.0333   -0.6739 S   0  0  0  0  0  0  0  0  0  0  0  0
   -2.6858   -1.0572    0.1911 C   0  0  0  0  0  0  0  0  0  0  0  0
   -3.1234   -2.2841    0.7090 C   0  0  0  0  0  0  0  0  0  0  0  0
   -2.2509   -3.0927    1.4391 C   0  0  0  0  0  0  0  0  0  0  0  0
   -0.9455   -2.6671    1.6660 C   0  0  0  0  0  0  0  0  0  0  0  0
    0.1260   -3.6480    2.5884 Cl  0  0  0  0  0  0  0  0  0  0  0  0
   -0.4971   -1.4506    1.1535 C   0  0  0  0  0  0  0  0  0  0  0  0
   -1.3488   -0.6514    0.3765 C   0  0  0  0  0  0  0  0  0  0  0  0
    2.4669   -2.7348   -0.9204 H   0  0  0  0  0  0  0  0  0  0  0  0
    4.1856   -2.9992   -0.7468 H   0  0  0  0  0  0  0  0  0  0  0  0
    3.2635   -2.3375    0.6184 H   0  0  0  0  0  0  0  0  0  0  0  0
    4.9702   -0.4467    0.6178 H   0  0  0  0  0  0  0  0  0  0  0  0
    5.7421   -1.1944   -0.7986 H   0  0  0  0  0  0  0  0  0  0  0  0
    5.1958    0.4713   -0.8880 H   0  0  0  0  0  0  0  0  0  0  0  0
    2.9262    1.0043   -0.8390 H   0  0  0  0  0  0  0  0  0  0  0  0
    2.4549   -0.0202    0.5101 H   0  0  0  0  0  0  0  0  0  0  0  0
    1.4048   -0.1766   -2.3791 H   0  0  0  0  0  0  0  0  0  0  0  0
    0.8748   -1.2558   -1.1167 H   0  0  0  0  0  0  0  0  0  0  0  0
    0.4447    1.7645   -1.3568 H   0  0  0  0  0  0  0  0  0  0  0  0
   -0.3353    3.3041    0.3592 H   0  0  0  0  0  0  0  0  0  0  0  0
   -1.9233    5.1871    0.4223 H   0  0  0  0  0  0  0  0  0  0  0  0
   -4.3368    4.8026   -0.0046 H   0  0  0  0  0  0  0  0  0  0  0  0
   -5.1656    2.5270   -0.4808 H   0  0  0  0  0  0  0  0  0  0  0  0
   -4.1496   -2.6117    0.5575 H   0  0  0  0  0  0  0  0  0  0  0  0
   -2.6008   -4.0409    1.8387 H   0  0  0  0  0  0  0  0  0  0  0  0
    0.5164   -1.1256    1.3668 H   0  0  0  0  0  0  0  0  0  0  0  0
  1  2  1  0
  2  3  1  0
  2  4  1  0
  4  5  1  0
  5  6  1  0
  6  7  2  3
  7  8  1  0
  8  9  2  0
  9 10  1  0
 10 11  2  0
 11 12  1  0
 12 13  2  0
 13 14  1  0
 14 15  1  0
 15 16  2  0
 16 17  1  0
 17 18  2  0
 18 19  1  0
 18 20  1  0
 20 21  2  0
 21  7  1  0
 13  8  1  0
 21 15  1  0
  1 22  1  0
  1 23  1  0
  1 24  1  0
  3 25  1  0
  3 26  1  0
  3 27  1  0
  4 28  1  0
  4 29  1  0
  5 30  1  0
  5 31  1  0
  6 32  1  0
  9 33  1  0
 10 34  1  0
 11 35  1  0
 12 36  1  0
 16 37  1  0
 17 38  1  0
 20 39  1  0
M  END
$$$$
