
     RDKit          3D

 19 19  0  0  0  0  0  0  0  0999 V2000
   -3.0111    0.5907   -0.7945 C   0  0  0  0  0  0  0  0  0  0  0  0
   -2.1218   -0.5470   -0.3113 C   0  0  0  0  0  0  0  0  0  0  0  0
   -1.2179   -1.1322   -1.3984 C   0  0  0  0  0  0  0  0  0  0  0  0
    0.0150    0.0376   -2.0500 S   0  0  0  0  0  0  0  0  0  0  0  0
    1.1736    0.0939   -0.7411 C   0  0  0  0  0  0  0  0  0  0  0  0
    1.1649   -0.7521    0.2648 N   0  0  0  0  0  0  0  0  0  0  0  0
    2.1809   -0.4939    1.1650 N   0  0  0  0  0  0  0  0  0  0  0  0
    2.9225    0.5287    0.8031 C   0  0  0  0  0  0  0  0  0  0  0  0
    3.9844    0.9849    1.4955 N   0  0  0  0  0  0  0  0  0  0  0  0
    2.4347    1.2518   -0.6765 S   0  0  0  0  0  0  0  0  0  0  0  0
   -2.4264    1.4722   -1.0732 H   0  0  0  0  0  0  0  0  0  0  0  0
   -3.7007    0.8902    0.0015 H   0  0  0  0  0  0  0  0  0  0  0  0
   -3.6077    0.2826   -1.6590 H   0  0  0  0  0  0  0  0  0  0  0  0
   -1.5317   -0.2089    0.5479 H   0  0  0  0  0  0  0  0  0  0  0  0
   -2.7700   -1.3510    0.0588 H   0  0  0  0  0  0  0  0  0  0  0  0
   -1.8351   -1.4553   -2.2442 H   0  0  0  0  0  0  0  0  0  0  0  0
   -0.7116   -2.0290   -1.0254 H   0  0  0  0  0  0  0  0  0  0  0  0
    4.6920    1.4977    0.9828 H   0  0  0  0  0  0  0  0  0  0  0  0
    4.3659    0.3391    2.1793 H   0  0  0  0  0  0  0  0  0  0  0  0
  1  2  1  0
  2  3  1  0
  3  4  1  0
  4  5  1  0
  5  6  2  0
  6  7  1  0
  7  8  2  0
  8  9  1  0
  8 10  1  0
 10  5  1  0
  1 11  1  0
  1 12  1  0
  1 13  1  0
  2 14  1  0
  2 15  1  0
  3 16  1  0
  3 17  1  0
  9 18  1  0
  9 19  1  0
M  END
$$$$
