
     RDKit          3D

 41 44  0  0  0  0  0  0  0  0999 V2000
    5.5062    2.3663    0.5121 C   0  0  0  0  0  0  0  0  0  0  0  0
    4.4265    1.3351    0.3851 C   0  0  0  0  0  0  0  0  0  0  0  0
    3.0830    1.7044    0.3845 C   0  0  0  0  0  0  0  0  0  0  0  0
    2.0718    0.7348    0.2973 C   0  0  0  0  0  0  0  0  0  0  0  0
    2.3631   -0.6358    0.2181 C   0  0  0  0  0  0  0  0  0  0  0  0
    1.3600   -1.6420    0.1273 N   0  0  0  0  0  0  0  0  0  0  0  0
    1.5621   -3.0559    0.0564 C   0  0  0  0  0  0  0  0  0  0  0  0
    2.5898   -3.7133    0.0583 O   0  0  0  0  0  0  0  0  0  0  0  0
    0.2897   -3.6379   -0.0225 N   0  0  0  0  0  0  0  0  0  0  0  0
   -0.6607   -2.6311   -0.0024 C   0  0  0  0  0  0  0  0  0  0  0  0
   -2.0246   -2.6486   -0.0549 C   0  0  0  0  0  0  0  0  0  0  0  0
   -2.7700   -3.9346   -0.1536 C   0  0  0  0  0  0  0  0  0  0  0  0
   -4.1337   -3.8281   -0.1994 N   0  0  0  0  0  0  0  0  0  0  0  0
   -2.2051   -5.0204   -0.1917 O   0  0  0  0  0  0  0  0  0  0  0  0
   -2.7625   -1.5109   -0.0207 N   0  0  0  0  0  0  0  0  0  0  0  0
   -2.0554   -0.3621    0.0683 C   0  0  0  0  0  0  0  0  0  0  0  0
   -2.8319    0.8685    0.1062 C   0  0  0  0  0  0  0  0  0  0  0  0
   -4.1858    1.1466    0.0693 C   0  0  0  0  0  0  0  0  0  0  0  0
   -4.3178    2.5549    0.1419 C   0  0  0  0  0  0  0  0  0  0  0  0
   -3.0382    3.0582    0.2192 C   0  0  0  0  0  0  0  0  0  0  0  0
   -2.4834    4.4225    0.3159 C   0  0  0  0  0  0  0  0  0  0  0  0
   -2.1323    2.0419    0.1982 O   0  0  0  0  0  0  0  0  0  0  0  0
   -0.7124   -0.2558    0.1247 N   0  0  0  0  0  0  0  0  0  0  0  0
   -0.0396   -1.4078    0.0880 C   0  0  0  0  0  0  0  0  0  0  0  0
    3.7237   -0.9851    0.2365 C   0  0  0  0  0  0  0  0  0  0  0  0
    4.7389   -0.0210    0.3234 C   0  0  0  0  0  0  0  0  0  0  0  0
    5.7315    2.5447    1.5680 H   0  0  0  0  0  0  0  0  0  0  0  0
    5.2002    3.3112    0.0509 H   0  0  0  0  0  0  0  0  0  0  0  0
    6.4204    2.0393    0.0055 H   0  0  0  0  0  0  0  0  0  0  0  0
    2.8009    2.7531    0.4510 H   0  0  0  0  0  0  0  0  0  0  0  0
    1.0559    1.1128    0.2995 H   0  0  0  0  0  0  0  0  0  0  0  0
    0.1034   -4.6322   -0.0846 H   0  0  0  0  0  0  0  0  0  0  0  0
   -4.5822   -2.9202   -0.1668 H   0  0  0  0  0  0  0  0  0  0  0  0
   -4.6943   -4.6663   -0.2667 H   0  0  0  0  0  0  0  0  0  0  0  0
   -4.9785    0.4152   -0.0018 H   0  0  0  0  0  0  0  0  0  0  0  0
   -5.2320    3.1324    0.1384 H   0  0  0  0  0  0  0  0  0  0  0  0
   -1.8307    4.6315   -0.5372 H   0  0  0  0  0  0  0  0  0  0  0  0
   -3.2814    5.1712    0.3265 H   0  0  0  0  0  0  0  0  0  0  0  0
   -1.8990    4.5337    1.2344 H   0  0  0  0  0  0  0  0  0  0  0  0
    4.0484   -2.0199    0.1856 H   0  0  0  0  0  0  0  0  0  0  0  0
    5.7761   -0.3492    0.3407 H   0  0  0  0  0  0  0  0  0  0  0  0
  1  2  1  0
  2  3  2  0
  3  4  1  0
  4  5  2  0
  5  6  1  0
  6  7  1  0
  7  8  2  0
  7  9  1  0
  9 10  1  0
 10 11  2  0
 11 12  1  0
 12 13  1  0
 12 14  2  0
 11 15  1  0
 15 16  2  0
 16 17  1  0
 17 18  2  0
 18 19  1  0
 19 20  2  0
 20 21  1  0
 20 22  1  0
 16 23  1  0
 23 24  2  0
  5 25  1  0
 25 26  2  0
 26  2  1  0
 24  6  1  0
 24 10  1  0
 22 17  1  0
  1 27  1  0
  1 28  1  0
  1 29  1  0
  3 30  1  0
  4 31  1  0
  9 32  1  0
 13 33  1  0
 13 34  1  0
 18 35  1  0
 19 36  1  0
 21 37  1  0
 21 38  1  0
 21 39  1  0
 25 40  1  0
 26 41  1  0
M  END
$$$$
