
     RDKit          3D

 35 36  0  0  0  0  0  0  0  0999 V2000
    1.6807   -1.3769    1.4671 C   0  0  0  0  0  0  0  0  0  0  0  0
    2.1953   -0.3473    0.5563 N   0  0  0  0  0  0  0  0  0  0  0  0
    1.0934    0.2908   -0.1973 C   0  0  0  0  0  0  0  0  0  0  0  0
    0.2339    1.2069    0.6870 C   0  0  0  0  0  0  0  0  0  0  0  0
   -0.8094    1.9641   -0.1360 C   0  0  0  0  0  0  0  0  0  0  0  0
   -1.6886    1.0758   -0.8238 O   0  0  0  0  0  0  0  0  0  0  0  0
   -2.7759    0.5501   -0.1806 C   0  0  0  0  0  0  0  0  0  0  0  0
   -3.1458    0.8397    1.1364 C   0  0  0  0  0  0  0  0  0  0  0  0
   -4.2803    0.2456    1.7010 C   0  0  0  0  0  0  0  0  0  0  0  0
   -5.0508   -0.6406    0.9525 C   0  0  0  0  0  0  0  0  0  0  0  0
   -6.4424   -1.3662    1.6562 Cl  0  0  0  0  0  0  0  0  0  0  0  0
   -4.7002   -0.9427   -0.3580 C   0  0  0  0  0  0  0  0  0  0  0  0
   -3.5671   -0.3489   -0.9196 C   0  0  0  0  0  0  0  0  0  0  0  0
   -3.1685   -0.7637   -2.5522 Cl  0  0  0  0  0  0  0  0  0  0  0  0
    3.1656   -0.9657   -0.3681 C   0  0  0  0  0  0  0  0  0  0  0  0
    3.9918    0.0725   -1.0651 C   0  0  0  0  0  0  0  0  0  0  0  0
    4.8919   -0.3126   -2.2110 C   0  0  0  0  0  0  0  0  0  0  0  0
    3.6319    0.3366   -2.4280 O   0  0  0  0  0  0  0  0  0  0  0  0
    1.0325   -0.9442    2.2349 H   0  0  0  0  0  0  0  0  0  0  0  0
    1.1219   -2.1564    0.9367 H   0  0  0  0  0  0  0  0  0  0  0  0
    2.5036   -1.8557    2.0107 H   0  0  0  0  0  0  0  0  0  0  0  0
    0.4707   -0.4686   -0.6875 H   0  0  0  0  0  0  0  0  0  0  0  0
    1.5069    0.9211   -0.9928 H   0  0  0  0  0  0  0  0  0  0  0  0
   -0.2729    0.6151    1.4548 H   0  0  0  0  0  0  0  0  0  0  0  0
    0.8747    1.9341    1.1999 H   0  0  0  0  0  0  0  0  0  0  0  0
   -0.2960    2.5503   -0.9076 H   0  0  0  0  0  0  0  0  0  0  0  0
   -1.3564    2.6964    0.4678 H   0  0  0  0  0  0  0  0  0  0  0  0
   -2.5752    1.5206    1.7591 H   0  0  0  0  0  0  0  0  0  0  0  0
   -4.5553    0.4804    2.7268 H   0  0  0  0  0  0  0  0  0  0  0  0
   -5.3015   -1.6350   -0.9406 H   0  0  0  0  0  0  0  0  0  0  0  0
    2.6661   -1.6327   -1.0831 H   0  0  0  0  0  0  0  0  0  0  0  0
    3.8707   -1.5823    0.2040 H   0  0  0  0  0  0  0  0  0  0  0  0
    4.2954    0.8954   -0.4319 H   0  0  0  0  0  0  0  0  0  0  0  0
    5.7880    0.2717   -2.3776 H   0  0  0  0  0  0  0  0  0  0  0  0
    4.9714   -1.3554   -2.4904 H   0  0  0  0  0  0  0  0  0  0  0  0
  1  2  1  0
  2  3  1  0
  3  4  1  0
  4  5  1  0
  5  6  1  0
  6  7  1  0
  7  8  2  0
  8  9  1  0
  9 10  2  0
 10 11  1  0
 10 12  1  0
 12 13  2  0
 13 14  1  0
  2 15  1  0
 15 16  1  0
 16 17  1  0
 17 18  1  0
 13  7  1  0
 18 16  1  0
  1 19  1  0
  1 20  1  0
  1 21  1  0
  3 22  1  0
  3 23  1  0
  4 24  1  0
  4 25  1  0
  5 26  1  0
  5 27  1  0
  8 28  1  0
  9 29  1  0
 12 30  1  0
 15 31  1  0
 15 32  1  0
 16 33  1  0
 17 34  1  0
 17 35  1  0
M  END
$$$$
