
     RDKit          3D

 43 45  0  0  0  0  0  0  0  0999 V2000
   -5.5808   -1.0064   -1.9603 C   0  0  0  0  0  0  0  0  0  0  0  0
   -4.8798    0.1844   -1.6232 O   0  0  0  0  0  0  0  0  0  0  0  0
   -3.7565    0.0479   -0.8581 C   0  0  0  0  0  0  0  0  0  0  0  0
   -3.1943   -1.1511   -0.4312 C   0  0  0  0  0  0  0  0  0  0  0  0
   -2.0311   -1.1491    0.3513 C   0  0  0  0  0  0  0  0  0  0  0  0
   -1.4078    0.0494    0.7184 C   0  0  0  0  0  0  0  0  0  0  0  0
   -0.2688    0.1119    1.4634 O   0  0  0  0  0  0  0  0  0  0  0  0
    0.3090   -1.0970    1.9330 C   0  0  0  0  0  0  0  0  0  0  0  0
   -1.9721    1.2516    0.2747 C   0  0  0  0  0  0  0  0  0  0  0  0
   -1.2695    2.8401    0.6779 S   0  0  0  0  0  6  0  0  0  0  0  0
   -2.3254    3.8237    0.5238 O   0  0  0  0  0  0  0  0  0  0  0  0
   -0.5285    2.7693    1.9174 O   0  0  0  0  0  0  0  0  0  0  0  0
   -0.2104    3.1365   -0.6096 N   0  0  0  0  0  0  0  0  0  0  0  0
    0.8092    2.1922   -0.9067 C   0  0  0  0  0  0  0  0  0  0  0  0
    0.7192    1.4502   -2.0831 C   0  0  0  0  0  0  0  0  0  0  0  0
    1.6942    0.4987   -2.3739 C   0  0  0  0  0  0  0  0  0  0  0  0
    2.7507    0.2899   -1.4878 C   0  0  0  0  0  0  0  0  0  0  0  0
    3.6501   -0.6723   -1.8572 O   0  0  0  0  0  0  0  0  0  0  0  0
    2.8628    1.0351   -0.3047 C   0  0  0  0  0  0  0  0  0  0  0  0
    4.2498    0.9383    0.8172 S   0  0  0  0  0  0  0  0  0  0  0  0
    4.1901   -0.6941    1.4120 C   0  0  0  0  0  0  0  0  0  0  0  0
    4.0464   -1.7831    0.5880 N   0  0  0  0  0  0  0  0  0  0  0  0
    4.1322   -2.7954    1.4202 C   0  0  0  0  0  0  0  0  0  0  0  0
    4.3312   -2.3305    2.6816 N   0  0  0  0  0  0  0  0  0  0  0  0
    4.3755   -0.9910    2.7009 N   0  0  0  0  0  0  0  0  0  0  0  0
    1.8747    1.9916   -0.0261 C   0  0  0  0  0  0  0  0  0  0  0  0
   -3.1444    1.2474   -0.5002 C   0  0  0  0  0  0  0  0  0  0  0  0
   -6.4633   -0.7218   -2.5414 H   0  0  0  0  0  0  0  0  0  0  0  0
   -5.9269   -1.5293   -1.0625 H   0  0  0  0  0  0  0  0  0  0  0  0
   -4.9659   -1.6607   -2.5870 H   0  0  0  0  0  0  0  0  0  0  0  0
   -3.6322   -2.1105   -0.6877 H   0  0  0  0  0  0  0  0  0  0  0  0
   -1.6336   -2.1127    0.6554 H   0  0  0  0  0  0  0  0  0  0  0  0
    0.6545   -1.7165    1.0991 H   0  0  0  0  0  0  0  0  0  0  0  0
   -0.3874   -1.6470    2.5743 H   0  0  0  0  0  0  0  0  0  0  0  0
    1.1804   -0.8363    2.5404 H   0  0  0  0  0  0  0  0  0  0  0  0
   -0.6860    3.5890   -1.3880 H   0  0  0  0  0  0  0  0  0  0  0  0
   -0.1050    1.5949   -2.7752 H   0  0  0  0  0  0  0  0  0  0  0  0
    1.6326   -0.0864   -3.2877 H   0  0  0  0  0  0  0  0  0  0  0  0
    4.0458   -1.0334   -1.0359 H   0  0  0  0  0  0  0  0  0  0  0  0
    4.0681   -3.8466    1.1761 H   0  0  0  0  0  0  0  0  0  0  0  0
    4.4500   -2.8454    3.5475 H   0  0  0  0  0  0  0  0  0  0  0  0
    1.9360    2.5919    0.8801 H   0  0  0  0  0  0  0  0  0  0  0  0
   -3.5929    2.1826   -0.8308 H   0  0  0  0  0  0  0  0  0  0  0  0
  1  2  1  0
  2  3  1  0
  3  4  2  0
  4  5  1  0
  5  6  2  0
  6  7  1  0
  7  8  1  0
  6  9  1  0
  9 10  1  0
 10 11  2  0
 10 12  2  0
 10 13  1  0
 13 14  1  0
 14 15  2  0
 15 16  1  0
 16 17  2  0
 17 18  1  0
 17 19  1  0
 19 20  1  0
 20 21  1  0
 21 22  1  0
 22 23  2  0
 23 24  1  0
 24 25  1  0
 19 26  2  0
  9 27  2  0
 27  3  1  0
 26 14  1  0
 25 21  2  0
  1 28  1  0
  1 29  1  0
  1 30  1  0
  4 31  1  0
  5 32  1  0
  8 33  1  0
  8 34  1  0
  8 35  1  0
 13 36  1  0
 15 37  1  0
 16 38  1  0
 18 39  1  0
 23 40  1  0
 24 41  1  0
 26 42  1  0
 27 43  1  0
M  END
$$$$
