
     RDKit          3D

 33 34  0  0  0  0  0  0  0  0999 V2000
   -1.7525    4.1920    0.5074 C   0  0  0  0  0  0  0  0  0  0  0  0
   -0.9789    3.0212    0.2448 O   0  0  0  0  0  0  0  0  0  0  0  0
   -0.5490    2.3975    1.3674 C   0  0  0  0  0  0  0  0  0  0  0  0
   -0.6462    2.7780    2.5203 O   0  0  0  0  0  0  0  0  0  0  0  0
    0.2205    1.2147    0.9648 C   0  0  0  0  0  0  0  0  0  0  0  0
    1.5720    1.2133    1.3044 C   0  0  0  0  0  0  0  0  0  0  0  0
    2.3313    0.1482    0.8803 C   0  0  0  0  0  0  0  0  0  0  0  0
    3.6675    0.1727    1.2159 O   0  0  0  0  0  0  0  0  0  0  0  0
    4.3855   -0.9707    0.7621 C   0  0  0  0  0  0  0  0  0  0  0  0
    1.8339   -0.8749    0.1569 N   0  0  0  0  0  0  0  0  0  0  0  0
    0.5109   -0.8680   -0.1501 C   0  0  0  0  0  0  0  0  0  0  0  0
   -0.3347    0.1481    0.2531 C   0  0  0  0  0  0  0  0  0  0  0  0
   -1.7665    0.0213   -0.0430 C   0  0  0  0  0  0  0  0  0  0  0  0
   -2.5778    0.7391    0.5330 O   0  0  0  0  0  0  0  0  0  0  0  0
   -2.1304   -0.9690   -0.9426 N   0  0  0  0  0  0  0  0  0  0  0  0
   -3.5326   -1.0589   -1.3096 C   0  0  0  0  0  0  0  0  0  0  0  0
   -1.3059   -2.0200   -1.3209 C   0  0  0  0  0  0  0  0  0  0  0  0
   -1.7322   -2.9718   -1.9776 O   0  0  0  0  0  0  0  0  0  0  0  0
    0.0093   -1.9475   -0.9050 N   0  0  0  0  0  0  0  0  0  0  0  0
    0.9443   -3.0021   -1.2712 C   0  0  0  0  0  0  0  0  0  0  0  0
   -2.6191    3.9512    1.1316 H   0  0  0  0  0  0  0  0  0  0  0  0
   -2.1131    4.5813   -0.4486 H   0  0  0  0  0  0  0  0  0  0  0  0
   -1.1329    4.9584    0.9832 H   0  0  0  0  0  0  0  0  0  0  0  0
    2.0179    2.0239    1.8716 H   0  0  0  0  0  0  0  0  0  0  0  0
    3.9912   -1.8899    1.2092 H   0  0  0  0  0  0  0  0  0  0  0  0
    5.4250   -0.8618    1.0861 H   0  0  0  0  0  0  0  0  0  0  0  0
    4.3816   -1.0323   -0.3317 H   0  0  0  0  0  0  0  0  0  0  0  0
   -4.0124   -0.0762   -1.2760 H   0  0  0  0  0  0  0  0  0  0  0  0
   -3.6411   -1.4679   -2.3188 H   0  0  0  0  0  0  0  0  0  0  0  0
   -4.0339   -1.7259   -0.6009 H   0  0  0  0  0  0  0  0  0  0  0  0
    1.7374   -2.5818   -1.8985 H   0  0  0  0  0  0  0  0  0  0  0  0
    1.3749   -3.4391   -0.3643 H   0  0  0  0  0  0  0  0  0  0  0  0
    0.4561   -3.8029   -1.8335 H   0  0  0  0  0  0  0  0  0  0  0  0
  1  2  1  0
  2  3  1  0
  3  4  2  0
  3  5  1  0
  5  6  2  0
  6  7  1  0
  7  8  1  0
  8  9  1  0
  7 10  2  0
 10 11  1  0
 11 12  2  0
 12 13  1  0
 13 14  2  0
 13 15  1  0
 15 16  1  0
 15 17  1  0
 17 18  2  0
 17 19  1  0
 19 20  1  0
 12  5  1  0
 19 11  1  0
  1 21  1  0
  1 22  1  0
  1 23  1  0
  6 24  1  0
  9 25  1  0
  9 26  1  0
  9 27  1  0
 16 28  1  0
 16 29  1  0
 16 30  1  0
 20 31  1  0
 20 32  1  0
 20 33  1  0
M  END
$$$$
