
     RDKit          3D

 55 60  0  0  0  0  0  0  0  0999 V2000
    4.3604    1.6130   -1.1268 O   0  0  0  0  0  0  0  0  0  0  0  0
    3.8112    1.4208   -0.0432 C   0  0  0  0  0  0  0  0  0  0  0  0
    4.5767    0.8598    1.0617 C   0  0  0  0  0  0  0  0  0  0  0  0
    5.6821   -0.0390    0.9685 C   0  0  0  0  0  0  0  0  0  0  0  0
    6.1156   -0.2698    2.2516 C   0  0  0  0  0  0  0  0  0  0  0  0
    5.3734    0.4448    3.1342 O   0  0  0  0  0  0  0  0  0  0  0  0
    4.4631    1.1439    2.4082 C   0  0  0  0  0  0  0  0  0  0  0  0
    2.4575    1.7168    0.1555 N   0  0  0  0  0  0  0  0  0  0  0  0
    1.7339    2.3855   -0.9125 C   0  0  0  0  0  0  0  0  0  0  0  0
    0.8800    1.3842   -1.6877 C   0  0  0  0  0  0  0  0  0  0  0  0
    0.0787    0.4024   -0.7635 C   0  0  0  0  0  0  0  0  0  0  0  0
    0.1703    0.9005    0.7042 C   0  0  0  0  0  0  0  0  0  0  0  0
    1.6267    1.0580    1.1591 C   0  0  0  0  0  0  0  0  0  0  0  0
    0.7306   -0.8964   -0.7514 O   0  0  0  0  0  0  0  0  0  0  0  0
    0.5913   -1.6461   -1.8864 C   0  0  0  0  0  0  0  0  0  0  0  0
    1.5041   -2.6869   -2.0517 C   0  0  0  0  0  0  0  0  0  0  0  0
    1.4496   -3.4877   -3.1950 C   0  0  0  0  0  0  0  0  0  0  0  0
    0.4784   -3.2471   -4.1676 C   0  0  0  0  0  0  0  0  0  0  0  0
    0.4172   -4.2365   -5.5727 Cl  0  0  0  0  0  0  0  0  0  0  0  0
   -0.4461   -2.2185   -4.0044 C   0  0  0  0  0  0  0  0  0  0  0  0
   -0.3893   -1.4261   -2.8536 C   0  0  0  0  0  0  0  0  0  0  0  0
   -1.3853   -0.3610   -2.6292 C   0  0  0  0  0  0  0  0  0  0  0  0
   -2.1657   -0.0585   -3.5253 O   0  0  0  0  0  0  0  0  0  0  0  0
   -1.3960    0.2423   -1.2289 C   0  0  0  0  0  0  0  0  0  0  0  0
   -2.2850   -0.6386   -0.3575 C   0  0  0  0  0  0  0  0  0  0  0  0
   -3.0579    0.4210    0.3470 C   0  0  0  0  0  0  0  0  0  0  0  0
   -3.9235    0.1218    1.5117 C   0  0  0  0  0  0  0  0  0  0  0  0
   -4.1395   -1.1919    1.9454 C   0  0  0  0  0  0  0  0  0  0  0  0
   -4.9596   -1.4374    3.0521 C   0  0  0  0  0  0  0  0  0  0  0  0
   -5.5637   -0.3741    3.7218 C   0  0  0  0  0  0  0  0  0  0  0  0
   -6.5692   -0.6825    5.0822 Cl  0  0  0  0  0  0  0  0  0  0  0  0
   -5.3579    0.9354    3.2943 C   0  0  0  0  0  0  0  0  0  0  0  0
   -4.5390    1.1834    2.1891 C   0  0  0  0  0  0  0  0  0  0  0  0
   -2.9104    1.6121   -0.1366 N   0  0  0  0  0  0  0  0  0  0  0  0
   -2.0478    1.5166   -1.2519 O   0  0  0  0  0  0  0  0  0  0  0  0
    6.1015   -0.4582    0.0638 H   0  0  0  0  0  0  0  0  0  0  0  0
    6.9052   -0.8711    2.6809 H   0  0  0  0  0  0  0  0  0  0  0  0
    3.8264    1.8000    2.9848 H   0  0  0  0  0  0  0  0  0  0  0  0
    1.1073    3.1627   -0.4585 H   0  0  0  0  0  0  0  0  0  0  0  0
    2.4192    2.9003   -1.5945 H   0  0  0  0  0  0  0  0  0  0  0  0
    0.2085    1.9613   -2.3337 H   0  0  0  0  0  0  0  0  0  0  0  0
    1.5443    0.8207   -2.3541 H   0  0  0  0  0  0  0  0  0  0  0  0
   -0.3109    0.1985    1.3946 H   0  0  0  0  0  0  0  0  0  0  0  0
   -0.3451    1.8623    0.8128 H   0  0  0  0  0  0  0  0  0  0  0  0
    1.6516    1.6654    2.0696 H   0  0  0  0  0  0  0  0  0  0  0  0
    2.0452    0.0729    1.3924 H   0  0  0  0  0  0  0  0  0  0  0  0
    2.2704   -2.8664   -1.3009 H   0  0  0  0  0  0  0  0  0  0  0  0
    2.1703   -4.2919   -3.3245 H   0  0  0  0  0  0  0  0  0  0  0  0
   -1.2081   -2.0384   -4.7598 H   0  0  0  0  0  0  0  0  0  0  0  0
   -2.9843   -1.2519   -0.9369 H   0  0  0  0  0  0  0  0  0  0  0  0
   -1.7282   -1.2809    0.3285 H   0  0  0  0  0  0  0  0  0  0  0  0
   -3.6916   -2.0415    1.4383 H   0  0  0  0  0  0  0  0  0  0  0  0
   -5.1265   -2.4592    3.3846 H   0  0  0  0  0  0  0  0  0  0  0  0
   -5.8310    1.7665    3.8112 H   0  0  0  0  0  0  0  0  0  0  0  0
   -4.3888    2.2107    1.8606 H   0  0  0  0  0  0  0  0  0  0  0  0
  1  2  2  0
  2  3  1  0
  3  4  1  0
  4  5  2  0
  5  6  1  0
  6  7  1  0
  2  8  1  0
  8  9  1  0
  9 10  1  0
 10 11  1  0
 11 12  1  0
 12 13  1  0
 11 14  1  0
 14 15  1  0
 15 16  2  0
 16 17  1  0
 17 18  2  0
 18 19  1  0
 18 20  1  0
 20 21  2  0
 21 22  1  0
 22 23  2  0
 22 24  1  0
 24 25  1  0
 25 26  1  0
 26 27  1  0
 27 28  2  0
 28 29  1  0
 29 30  2  0
 30 31  1  0
 30 32  1  0
 32 33  2  0
 26 34  2  0
 34 35  1  0
  7  3  2  0
 13  8  1  0
 21 15  1  0
 35 24  1  0
 24 11  1  0
 33 27  1  0
  4 36  1  0
  5 37  1  0
  7 38  1  0
  9 39  1  0
  9 40  1  0
 10 41  1  0
 10 42  1  0
 12 43  1  0
 12 44  1  0
 13 45  1  0
 13 46  1  0
 16 47  1  0
 17 48  1  0
 20 49  1  0
 25 50  1  0
 25 51  1  0
 28 52  1  0
 29 53  1  0
 32 54  1  0
 33 55  1  0
M  END
$$$$
