
     RDKit          3D

 60 63  0  0  0  0  0  0  0  0999 V2000
   -6.9291    3.5392   -1.8625 C   0  0  0  0  0  0  0  0  0  0  0  0
   -6.6160    3.1860   -0.5201 O   0  0  0  0  0  0  0  0  0  0  0  0
   -5.3969    2.6060   -0.3013 C   0  0  0  0  0  0  0  0  0  0  0  0
   -5.1666    2.2124    1.0188 C   0  0  0  0  0  0  0  0  0  0  0  0
   -3.9702    1.5901    1.3836 C   0  0  0  0  0  0  0  0  0  0  0  0
   -2.9827    1.3632    0.4195 C   0  0  0  0  0  0  0  0  0  0  0  0
   -1.7731    0.7198    0.7886 N   0  0  0  0  0  0  0  0  0  0  0  0
   -1.6262   -0.4301    1.5612 C   0  0  0  0  0  0  0  0  0  0  0  0
   -2.7182   -1.3683    1.9660 C   0  0  0  0  0  0  0  0  0  0  0  0
   -3.4536   -1.9659    0.8000 C   0  0  0  0  0  0  0  0  0  0  0  0
   -4.7679   -1.7661    0.4050 C   0  0  0  0  0  0  0  0  0  0  0  0
   -4.9926   -2.5247   -0.7658 C   0  0  0  0  0  0  0  0  0  0  0  0
   -3.8216   -3.1903   -1.0501 C   0  0  0  0  0  0  0  0  0  0  0  0
   -2.8959   -2.8602   -0.0931 N   0  0  0  0  0  0  0  0  0  0  0  0
   -1.5445   -3.3845   -0.0590 C   0  0  0  0  0  0  0  0  0  0  0  0
   -0.3422   -0.6571    1.7744 N   0  0  0  0  0  0  0  0  0  0  0  0
    0.3763    0.2940    1.1141 N   0  0  0  0  0  0  0  0  0  0  0  0
   -0.4693    1.0906    0.5005 C   0  0  0  0  0  0  0  0  0  0  0  0
    0.0018    2.4969   -0.3990 S   0  0  0  0  0  0  0  0  0  0  0  0
    1.6233    2.8583    0.3183 C   0  0  0  0  0  0  0  0  0  0  0  0
    2.7028    1.9556   -0.2544 C   0  0  0  0  0  0  0  0  0  0  0  0
    3.2231    2.1613   -1.3497 O   0  0  0  0  0  0  0  0  0  0  0  0
    3.0647    0.9151    0.5797 N   0  0  0  0  0  0  0  0  0  0  0  0
    4.0526   -0.0745    0.1819 C   0  0  0  0  0  0  0  0  0  0  0  0
    5.4565    0.5058   -0.0162 C   0  0  0  0  0  0  0  0  0  0  0  0
    6.5093   -0.5746   -0.1025 C   0  0  0  0  0  0  0  0  0  0  0  0
    7.4036   -0.7751    0.9540 C   0  0  0  0  0  0  0  0  0  0  0  0
    8.3659   -1.7820    0.8901 C   0  0  0  0  0  0  0  0  0  0  0  0
    8.4447   -2.5978   -0.2353 C   0  0  0  0  0  0  0  0  0  0  0  0
    7.5630   -2.4047   -1.2983 C   0  0  0  0  0  0  0  0  0  0  0  0
    6.5995   -1.3980   -1.2336 C   0  0  0  0  0  0  0  0  0  0  0  0
   -3.1976    1.7720   -0.9005 C   0  0  0  0  0  0  0  0  0  0  0  0
   -4.4066    2.3863   -1.2588 C   0  0  0  0  0  0  0  0  0  0  0  0
   -6.9302    2.6579   -2.5140 H   0  0  0  0  0  0  0  0  0  0  0  0
   -7.9394    3.9582   -1.8714 H   0  0  0  0  0  0  0  0  0  0  0  0
   -6.2443    4.3069   -2.2394 H   0  0  0  0  0  0  0  0  0  0  0  0
   -5.9309    2.3921    1.7715 H   0  0  0  0  0  0  0  0  0  0  0  0
   -3.8227    1.3268    2.4274 H   0  0  0  0  0  0  0  0  0  0  0  0
   -2.2835   -2.1845    2.5609 H   0  0  0  0  0  0  0  0  0  0  0  0
   -3.4186   -0.8643    2.6405 H   0  0  0  0  0  0  0  0  0  0  0  0
   -5.4912   -1.1248    0.8979 H   0  0  0  0  0  0  0  0  0  0  0  0
   -5.9100   -2.5809   -1.3384 H   0  0  0  0  0  0  0  0  0  0  0  0
   -3.5783   -3.8718   -1.8552 H   0  0  0  0  0  0  0  0  0  0  0  0
   -1.3355   -3.7661    0.9459 H   0  0  0  0  0  0  0  0  0  0  0  0
   -0.8586   -2.5775   -0.3290 H   0  0  0  0  0  0  0  0  0  0  0  0
   -1.4545   -4.2002   -0.7812 H   0  0  0  0  0  0  0  0  0  0  0  0
    1.8925    3.8915    0.0780 H   0  0  0  0  0  0  0  0  0  0  0  0
    1.5953    2.7875    1.4090 H   0  0  0  0  0  0  0  0  0  0  0  0
    2.2906    0.5435    1.1388 H   0  0  0  0  0  0  0  0  0  0  0  0
    4.0668   -0.8215    0.9875 H   0  0  0  0  0  0  0  0  0  0  0  0
    3.6982   -0.5733   -0.7273 H   0  0  0  0  0  0  0  0  0  0  0  0
    5.6915    1.1869    0.8123 H   0  0  0  0  0  0  0  0  0  0  0  0
    5.5023    1.1168   -0.9257 H   0  0  0  0  0  0  0  0  0  0  0  0
    7.3591   -0.1481    1.8415 H   0  0  0  0  0  0  0  0  0  0  0  0
    9.0531   -1.9293    1.7197 H   0  0  0  0  0  0  0  0  0  0  0  0
    9.1933   -3.3838   -0.2888 H   0  0  0  0  0  0  0  0  0  0  0  0
    7.6292   -3.0400   -2.1765 H   0  0  0  0  0  0  0  0  0  0  0  0
    5.9205   -1.2580   -2.0689 H   0  0  0  0  0  0  0  0  0  0  0  0
   -2.4656    1.5846   -1.6832 H   0  0  0  0  0  0  0  0  0  0  0  0
   -4.5455    2.6728   -2.2978 H   0  0  0  0  0  0  0  0  0  0  0  0
  1  2  1  0
  2  3  1  0
  3  4  2  0
  4  5  1  0
  5  6  2  0
  6  7  1  0
  7  8  1  0
  8  9  1  0
  9 10  1  0
 10 11  2  0
 11 12  1  0
 12 13  2  0
 13 14  1  0
 14 15  1  0
  8 16  2  0
 16 17  1  0
 17 18  2  0
 18 19  1  0
 19 20  1  0
 20 21  1  0
 21 22  2  0
 21 23  1  0
 23 24  1  0
 24 25  1  0
 25 26  1  0
 26 27  2  0
 27 28  1  0
 28 29  2  0
 29 30  1  0
 30 31  2  0
  6 32  1  0
 32 33  2  0
 33  3  1  0
 18  7  1  0
 31 26  1  0
 14 10  1  0
  1 34  1  0
  1 35  1  0
  1 36  1  0
  4 37  1  0
  5 38  1  0
  9 39  1  0
  9 40  1  0
 11 41  1  0
 12 42  1  0
 13 43  1  0
 15 44  1  0
 15 45  1  0
 15 46  1  0
 20 47  1  0
 20 48  1  0
 23 49  1  0
 24 50  1  0
 24 51  1  0
 25 52  1  0
 25 53  1  0
 27 54  1  0
 28 55  1  0
 29 56  1  0
 30 57  1  0
 31 58  1  0
 32 59  1  0
 33 60  1  0
M  END
$$$$
