
     RDKit          3D

 52 54  0  0  0  0  0  0  0  0999 V2000
    6.1248   -2.2161    0.4695 C   0  0  0  0  0  0  0  0  0  0  0  0
    4.8248   -1.4673    0.5160 C   0  0  0  0  0  0  0  0  0  0  0  0
    4.7443   -0.1636    0.0107 C   0  0  0  0  0  0  0  0  0  0  0  0
    3.5311    0.5396    0.0145 C   0  0  0  0  0  0  0  0  0  0  0  0
    3.4873    1.9365   -0.5356 C   0  0  0  0  0  0  0  0  0  0  0  0
    2.3988   -0.0769    0.5672 C   0  0  0  0  0  0  0  0  0  0  0  0
    1.2041    0.5963    0.5905 O   0  0  0  0  0  0  0  0  0  0  0  0
    1.0685    1.3385    1.8097 C   0  0  0  0  0  0  0  0  0  0  0  0
   -0.3565    1.8801    1.9492 C   0  0  0  0  0  0  0  0  0  0  0  0
   -0.6169    2.7743    2.7493 O   0  0  0  0  0  0  0  0  0  0  0  0
   -1.2448    1.2430    1.1135 N   0  0  0  0  0  0  0  0  0  0  0  0
   -2.6193    1.4655    0.9181 C   0  0  0  0  0  0  0  0  0  0  0  0
   -3.3682    2.3858    1.6518 C   0  0  0  0  0  0  0  0  0  0  0  0
   -4.7333    2.5265    1.4025 C   0  0  0  0  0  0  0  0  0  0  0  0
   -5.3510    1.7515    0.4226 C   0  0  0  0  0  0  0  0  0  0  0  0
   -4.6053    0.8341   -0.3204 C   0  0  0  0  0  0  0  0  0  0  0  0
   -3.2327    0.6741   -0.0874 C   0  0  0  0  0  0  0  0  0  0  0  0
   -2.4240   -0.2120   -0.8409 N   0  0  0  0  0  0  0  0  0  0  0  0
   -2.9767   -1.5613   -1.1047 C   0  0  0  0  0  0  0  0  0  0  0  0
   -3.3108   -1.7560   -2.5920 C   0  0  0  0  0  0  0  0  0  0  0  0
   -2.1831   -1.5695   -3.4631 O   0  0  0  0  0  0  0  0  0  0  0  0
   -1.2395   -0.6021   -2.9723 C   0  0  0  0  0  0  0  0  0  0  0  0
   -1.8734    0.4522   -2.0512 C   0  0  0  0  0  0  0  0  0  0  0  0
    2.4393   -1.4060    1.0167 C   0  0  0  0  0  0  0  0  0  0  0  0
    1.2147   -2.0987    1.5441 C   0  0  0  0  0  0  0  0  0  0  0  0
    3.6660   -2.0848    1.0013 C   0  0  0  0  0  0  0  0  0  0  0  0
    6.9670   -1.5418    0.6556 H   0  0  0  0  0  0  0  0  0  0  0  0
    6.1581   -2.9967    1.2374 H   0  0  0  0  0  0  0  0  0  0  0  0
    6.2533   -2.6822   -0.5119 H   0  0  0  0  0  0  0  0  0  0  0  0
    5.6376    0.3060   -0.3993 H   0  0  0  0  0  0  0  0  0  0  0  0
    3.6643    2.6616    0.2641 H   0  0  0  0  0  0  0  0  0  0  0  0
    2.5209    2.1481   -1.0052 H   0  0  0  0  0  0  0  0  0  0  0  0
    4.2517    2.0760   -1.3077 H   0  0  0  0  0  0  0  0  0  0  0  0
    1.7459    2.1977    1.7934 H   0  0  0  0  0  0  0  0  0  0  0  0
    1.2702    0.7137    2.6859 H   0  0  0  0  0  0  0  0  0  0  0  0
   -0.8652    0.5167    0.5067 H   0  0  0  0  0  0  0  0  0  0  0  0
   -2.9145    2.9994    2.4236 H   0  0  0  0  0  0  0  0  0  0  0  0
   -5.3133    3.2461    1.9752 H   0  0  0  0  0  0  0  0  0  0  0  0
   -6.4135    1.8694    0.2297 H   0  0  0  0  0  0  0  0  0  0  0  0
   -5.1079    0.2643   -1.0947 H   0  0  0  0  0  0  0  0  0  0  0  0
   -2.1963   -2.2803   -0.8258 H   0  0  0  0  0  0  0  0  0  0  0  0
   -3.8480   -1.7884   -0.4792 H   0  0  0  0  0  0  0  0  0  0  0  0
   -3.6869   -2.7694   -2.7618 H   0  0  0  0  0  0  0  0  0  0  0  0
   -4.0959   -1.0602   -2.9088 H   0  0  0  0  0  0  0  0  0  0  0  0
   -0.4491   -1.1480   -2.4434 H   0  0  0  0  0  0  0  0  0  0  0  0
   -0.7822   -0.1197   -3.8429 H   0  0  0  0  0  0  0  0  0  0  0  0
   -1.1143    1.1881   -1.7647 H   0  0  0  0  0  0  0  0  0  0  0  0
   -2.6685    0.9745   -2.6005 H   0  0  0  0  0  0  0  0  0  0  0  0
    1.3181   -3.1874    1.4721 H   0  0  0  0  0  0  0  0  0  0  0  0
    0.3272   -1.8263    0.9636 H   0  0  0  0  0  0  0  0  0  0  0  0
    1.0542   -1.8351    2.5943 H   0  0  0  0  0  0  0  0  0  0  0  0
    3.7186   -3.1101    1.3648 H   0  0  0  0  0  0  0  0  0  0  0  0
  1  2  1  0
  2  3  2  0
  3  4  1  0
  4  5  1  0
  4  6  2  0
  6  7  1  0
  7  8  1  0
  8  9  1  0
  9 10  2  0
  9 11  1  0
 11 12  1  0
 12 13  2  0
 13 14  1  0
 14 15  2  0
 15 16  1  0
 16 17  2  0
 17 18  1  0
 18 19  1  0
 19 20  1  0
 20 21  1  0
 21 22  1  0
 22 23  1  0
  6 24  1  0
 24 25  1  0
 24 26  2  0
 26  2  1  0
 17 12  1  0
 23 18  1  0
  1 27  1  0
  1 28  1  0
  1 29  1  0
  3 30  1  0
  5 31  1  0
  5 32  1  0
  5 33  1  0
  8 34  1  0
  8 35  1  0
 11 36  1  0
 13 37  1  0
 14 38  1  0
 15 39  1  0
 16 40  1  0
 19 41  1  0
 19 42  1  0
 20 43  1  0
 20 44  1  0
 22 45  1  0
 22 46  1  0
 23 47  1  0
 23 48  1  0
 25 49  1  0
 25 50  1  0
 25 51  1  0
 26 52  1  0
M  END
$$$$
