
     RDKit          3D

 37 39  0  0  0  0  0  0  0  0999 V2000
    4.9623    1.2816   -1.3835 C   0  0  0  0  0  0  0  0  0  0  0  0
    5.0579    0.7356   -0.0743 O   0  0  0  0  0  0  0  0  0  0  0  0
    3.9237    0.1977    0.4701 C   0  0  0  0  0  0  0  0  0  0  0  0
    4.1171   -0.3929    1.7290 C   0  0  0  0  0  0  0  0  0  0  0  0
    3.0568   -0.9785    2.4201 C   0  0  0  0  0  0  0  0  0  0  0  0
    1.8035   -0.9623    1.8319 C   0  0  0  0  0  0  0  0  0  0  0  0
    1.5818   -0.3815    0.5653 C   0  0  0  0  0  0  0  0  0  0  0  0
    2.6505    0.2076   -0.1129 C   0  0  0  0  0  0  0  0  0  0  0  0
    0.2207   -0.4405    0.1179 N   0  0  0  0  0  0  0  0  0  0  0  0
    0.1142   -0.7333   -1.3156 C   0  0  0  0  0  0  0  0  0  0  0  0
   -0.5718   -1.0701    1.0926 C   0  0  0  0  0  0  0  0  0  0  0  0
   -1.9120   -1.1779    1.1472 C   0  0  0  0  0  0  0  0  0  0  0  0
   -2.8574   -0.5844    0.2038 C   0  0  0  0  0  0  0  0  0  0  0  0
   -3.6536   -1.4321   -0.5772 C   0  0  0  0  0  0  0  0  0  0  0  0
   -4.5498   -0.8981   -1.4935 C   0  0  0  0  0  0  0  0  0  0  0  0
   -4.6460    0.4781   -1.6188 C   0  0  0  0  0  0  0  0  0  0  0  0
   -3.8558    1.2927   -0.8181 C   0  0  0  0  0  0  0  0  0  0  0  0
   -2.9912    0.7669    0.0833 N   0  0  0  0  0  4  0  0  0  0  0  0
   -2.2173    1.7019    0.9301 C   0  0  0  0  0  0  0  0  0  0  0  0
    0.3183   -1.6647    2.5181 S   0  0  0  0  0  0  0  0  0  0  0  0
    4.6423    0.5234   -2.1059 H   0  0  0  0  0  0  0  0  0  0  0  0
    4.2940    2.1487   -1.3989 H   0  0  0  0  0  0  0  0  0  0  0  0
    5.9592    1.6234   -1.6776 H   0  0  0  0  0  0  0  0  0  0  0  0
    5.1118   -0.3942    2.1717 H   0  0  0  0  0  0  0  0  0  0  0  0
    3.2196   -1.4359    3.3909 H   0  0  0  0  0  0  0  0  0  0  0  0
    2.4881    0.6838   -1.0705 H   0  0  0  0  0  0  0  0  0  0  0  0
    0.5178    0.0866   -1.9189 H   0  0  0  0  0  0  0  0  0  0  0  0
    0.6391   -1.6615   -1.5713 H   0  0  0  0  0  0  0  0  0  0  0  0
   -0.9259   -0.8508   -1.6290 H   0  0  0  0  0  0  0  0  0  0  0  0
   -2.3855   -1.7042    1.9752 H   0  0  0  0  0  0  0  0  0  0  0  0
   -3.5687   -2.5139   -0.4811 H   0  0  0  0  0  0  0  0  0  0  0  0
   -5.1667   -1.5534   -2.1073 H   0  0  0  0  0  0  0  0  0  0  0  0
   -5.3398    0.9166   -2.3335 H   0  0  0  0  0  0  0  0  0  0  0  0
   -3.9140    2.3759   -0.8894 H   0  0  0  0  0  0  0  0  0  0  0  0
   -1.2408    1.8491    0.4649 H   0  0  0  0  0  0  0  0  0  0  0  0
   -2.7469    2.6575    0.9853 H   0  0  0  0  0  0  0  0  0  0  0  0
   -2.1357    1.3031    1.9434 H   0  0  0  0  0  0  0  0  0  0  0  0
  1  2  1  0
  2  3  1  0
  3  4  2  0
  4  5  1  0
  5  6  2  0
  6  7  1  0
  7  8  2  0
  7  9  1  0
  9 10  1  0
  9 11  1  0
 11 12  2  3
 12 13  1  0
 13 14  2  0
 14 15  1  0
 15 16  2  0
 16 17  1  0
 17 18  2  0
 18 19  1  0
 11 20  1  0
  8  3  1  0
 18 13  1  0
 20  6  1  0
  1 21  1  0
  1 22  1  0
  1 23  1  0
  4 24  1  0
  5 25  1  0
  8 26  1  0
 10 27  1  0
 10 28  1  0
 10 29  1  0
 12 30  1  0
 14 31  1  0
 15 32  1  0
 16 33  1  0
 17 34  1  0
 19 35  1  0
 19 36  1  0
 19 37  1  0
M  CHG  1  18   1
M  END
$$$$
