
     RDKit          3D

 58 60  0  0  0  0  0  0  0  0999 V2000
    5.4658    0.2418   -3.6357 C   0  0  0  0  0  0  0  0  0  0  0  0
    5.2757   -0.3667   -2.2804 C   0  0  0  0  0  0  0  0  0  0  0  0
    6.0299   -1.4734   -1.8725 C   0  0  0  0  0  0  0  0  0  0  0  0
    5.8322   -2.0395   -0.6078 C   0  0  0  0  0  0  0  0  0  0  0  0
    4.8718   -1.5112    0.2659 C   0  0  0  0  0  0  0  0  0  0  0  0
    4.6284   -2.1312    1.6243 C   0  0  0  0  0  0  0  0  0  0  0  0
    3.9348   -3.4958    1.5378 C   0  0  0  0  0  0  0  0  0  0  0  0
    2.6571   -3.4371    0.8487 N   0  0  0  0  0  0  0  0  0  0  0  0
    1.5170   -3.0094    1.4907 C   0  0  0  0  0  0  0  0  0  0  0  0
    1.4560   -2.7948    2.6977 O   0  0  0  0  0  0  0  0  0  0  0  0
    0.3089   -2.8831    0.5880 C   0  0  0  0  0  0  0  0  0  0  0  0
   -0.3413   -1.5135    0.7360 C   0  0  0  0  0  0  0  0  0  0  0  0
    0.2346   -0.5741   -0.2381 N   0  0  0  0  0  0  0  0  0  0  0  0
    0.3316    1.0592    0.1281 S   0  0  0  0  0  6  0  0  0  0  0  0
    1.0895    1.1988    1.3509 O   0  0  0  0  0  0  0  0  0  0  0  0
    0.7127    1.7381   -1.0906 O   0  0  0  0  0  0  0  0  0  0  0  0
   -1.3560    1.4813    0.4780 C   0  0  0  0  0  0  0  0  0  0  0  0
   -1.7428    1.7944    1.7792 C   0  0  0  0  0  0  0  0  0  0  0  0
   -3.0774    2.1215    2.0452 C   0  0  0  0  0  0  0  0  0  0  0  0
   -4.0367    2.1376    1.0185 C   0  0  0  0  0  0  0  0  0  0  0  0
   -3.6227    1.8284   -0.2775 C   0  0  0  0  0  0  0  0  0  0  0  0
   -2.2861    1.5075   -0.5594 C   0  0  0  0  0  0  0  0  0  0  0  0
   -4.6096    1.8286   -1.3669 C   0  0  0  0  0  0  0  0  0  0  0  0
   -4.2439    1.5081   -2.4978 O   0  0  0  0  0  0  0  0  0  0  0  0
   -5.9090    2.1813   -1.0331 N   0  0  0  0  0  0  0  0  0  0  0  0
   -6.8966    2.1708   -2.0990 C   0  0  0  0  0  0  0  0  0  0  0  0
   -6.3617    2.4354    0.2559 C   0  0  0  0  0  0  0  0  0  0  0  0
   -7.5565    2.6381    0.4936 O   0  0  0  0  0  0  0  0  0  0  0  0
   -5.4021    2.4424    1.2643 N   0  0  0  0  0  0  0  0  0  0  0  0
   -5.8385    2.7440    2.6211 C   0  0  0  0  0  0  0  0  0  0  0  0
    4.1145   -0.4071   -0.1462 C   0  0  0  0  0  0  0  0  0  0  0  0
    4.3115    0.1574   -1.4098 C   0  0  0  0  0  0  0  0  0  0  0  0
    5.5589    1.3302   -3.5542 H   0  0  0  0  0  0  0  0  0  0  0  0
    6.3766   -0.1327   -4.1152 H   0  0  0  0  0  0  0  0  0  0  0  0
    4.6139    0.0024   -4.2793 H   0  0  0  0  0  0  0  0  0  0  0  0
    6.7818   -1.9007   -2.5339 H   0  0  0  0  0  0  0  0  0  0  0  0
    6.4377   -2.8932   -0.3101 H   0  0  0  0  0  0  0  0  0  0  0  0
    4.0327   -1.4492    2.2398 H   0  0  0  0  0  0  0  0  0  0  0  0
    5.5887   -2.2432    2.1382 H   0  0  0  0  0  0  0  0  0  0  0  0
    3.7766   -3.8885    2.5491 H   0  0  0  0  0  0  0  0  0  0  0  0
    4.5541   -4.2145    0.9924 H   0  0  0  0  0  0  0  0  0  0  0  0
    2.7020   -3.3304   -0.1606 H   0  0  0  0  0  0  0  0  0  0  0  0
    0.5655   -3.0979   -0.4552 H   0  0  0  0  0  0  0  0  0  0  0  0
   -0.3950   -3.6603    0.9142 H   0  0  0  0  0  0  0  0  0  0  0  0
   -1.4104   -1.6044    0.5082 H   0  0  0  0  0  0  0  0  0  0  0  0
   -0.2456   -1.1304    1.7577 H   0  0  0  0  0  0  0  0  0  0  0  0
    0.1523   -0.7683   -1.2338 H   0  0  0  0  0  0  0  0  0  0  0  0
   -1.0189    1.7862    2.5928 H   0  0  0  0  0  0  0  0  0  0  0  0
   -3.3368    2.3563    3.0745 H   0  0  0  0  0  0  0  0  0  0  0  0
   -1.9801    1.2818   -1.5785 H   0  0  0  0  0  0  0  0  0  0  0  0
   -7.3280    1.1678   -2.1527 H   0  0  0  0  0  0  0  0  0  0  0  0
   -7.6980    2.8877   -1.9052 H   0  0  0  0  0  0  0  0  0  0  0  0
   -6.4425    2.4133   -3.0640 H   0  0  0  0  0  0  0  0  0  0  0  0
   -5.2712    3.5973    3.0052 H   0  0  0  0  0  0  0  0  0  0  0  0
   -5.6796    1.8668    3.2543 H   0  0  0  0  0  0  0  0  0  0  0  0
   -6.8988    3.0070    2.6674 H   0  0  0  0  0  0  0  0  0  0  0  0
    3.3644    0.0240    0.5166 H   0  0  0  0  0  0  0  0  0  0  0  0
    3.7083    1.0154   -1.7048 H   0  0  0  0  0  0  0  0  0  0  0  0
  1  2  1  0
  2  3  2  0
  3  4  1  0
  4  5  2  0
  5  6  1  0
  6  7  1  0
  7  8  1  0
  8  9  1  0
  9 10  2  0
  9 11  1  0
 11 12  1  0
 12 13  1  0
 13 14  1  0
 14 15  2  0
 14 16  2  0
 14 17  1  0
 17 18  2  0
 18 19  1  0
 19 20  2  0
 20 21  1  0
 21 22  2  0
 21 23  1  0
 23 24  2  0
 23 25  1  0
 25 26  1  0
 25 27  1  0
 27 28  2  0
 27 29  1  0
 29 30  1  0
  5 31  1  0
 31 32  2  0
 32  2  1  0
 22 17  1  0
 29 20  1  0
  1 33  1  0
  1 34  1  0
  1 35  1  0
  3 36  1  0
  4 37  1  0
  6 38  1  0
  6 39  1  0
  7 40  1  0
  7 41  1  0
  8 42  1  0
 11 43  1  0
 11 44  1  0
 12 45  1  0
 12 46  1  0
 13 47  1  0
 18 48  1  0
 19 49  1  0
 22 50  1  0
 26 51  1  0
 26 52  1  0
 26 53  1  0
 30 54  1  0
 30 55  1  0
 30 56  1  0
 31 57  1  0
 32 58  1  0
M  END
$$$$
