
     RDKit          3D

 50 53  0  0  0  0  0  0  0  0999 V2000
   -3.0580    2.0395    4.9569 C   0  0  0  0  0  0  0  0  0  0  0  0
   -2.3725    1.1398    3.9407 C   0  0  0  0  0  0  0  0  0  0  0  0
   -1.6418    1.9295    2.8644 C   0  0  0  0  0  0  0  0  0  0  0  0
   -1.7428    3.1562    2.8029 O   0  0  0  0  0  0  0  0  0  0  0  0
   -0.8663    1.2065    1.9568 N   0  0  0  0  0  0  0  0  0  0  0  0
   -1.0078   -0.2423    1.7563 C   0  0  0  0  0  0  0  0  0  0  0  0
   -1.7735   -0.6210    0.5068 C   0  0  0  0  0  0  0  0  0  0  0  0
   -1.2998   -1.6559   -0.3127 C   0  0  0  0  0  0  0  0  0  0  0  0
   -1.9963   -2.0322   -1.4637 C   0  0  0  0  0  0  0  0  0  0  0  0
   -3.1838   -1.3842   -1.8170 C   0  0  0  0  0  0  0  0  0  0  0  0
   -3.9499   -1.8124   -3.0333 C   0  0  0  0  0  0  0  0  0  0  0  0
   -3.6789   -0.3757   -0.9844 C   0  0  0  0  0  0  0  0  0  0  0  0
   -2.9817    0.0021    0.1662 C   0  0  0  0  0  0  0  0  0  0  0  0
   -0.1341    2.0037    0.9621 C   0  0  0  0  0  0  0  0  0  0  0  0
    1.0839    1.3254    0.4069 C   0  0  0  0  0  0  0  0  0  0  0  0
    1.1481    0.8564   -0.8529 C   0  0  0  0  0  0  0  0  0  0  0  0
    2.3574    0.2120   -1.3611 C   0  0  0  0  0  0  0  0  0  0  0  0
    2.4125   -0.3036   -2.6604 C   0  0  0  0  0  0  0  0  0  0  0  0
    3.5931   -0.8928   -3.0630 C   0  0  0  0  0  0  0  0  0  0  0  0
    4.6861   -0.9798   -2.2305 C   0  0  0  0  0  0  0  0  0  0  0  0
    4.6659   -0.4847   -0.9441 C   0  0  0  0  0  0  0  0  0  0  0  0
    3.4819    0.1161   -0.5131 C   0  0  0  0  0  0  0  0  0  0  0  0
    3.3985    0.6358    0.7830 N   0  0  0  0  0  0  0  0  0  0  0  0
    2.2799    1.2376    1.2976 C   0  0  0  0  0  0  0  0  0  0  0  0
    2.2746    1.6713    2.4449 O   0  0  0  0  0  0  0  0  0  0  0  0
    5.7425   -1.5954   -2.8264 O   0  0  0  0  0  0  0  0  0  0  0  0
    5.1959   -1.8748   -4.1323 C   0  0  0  0  0  0  0  0  0  0  0  0
    3.8272   -1.4430   -4.2844 O   0  0  0  0  0  0  0  0  0  0  0  0
   -3.8100    2.6746    4.4770 H   0  0  0  0  0  0  0  0  0  0  0  0
   -3.5585    1.4372    5.7215 H   0  0  0  0  0  0  0  0  0  0  0  0
   -2.3344    2.6931    5.4551 H   0  0  0  0  0  0  0  0  0  0  0  0
   -1.6503    0.5048    4.4650 H   0  0  0  0  0  0  0  0  0  0  0  0
   -3.1324    0.5113    3.4653 H   0  0  0  0  0  0  0  0  0  0  0  0
   -1.5083   -0.7177    2.6030 H   0  0  0  0  0  0  0  0  0  0  0  0
    0.0004   -0.6711    1.7370 H   0  0  0  0  0  0  0  0  0  0  0  0
   -0.3782   -2.1776   -0.0629 H   0  0  0  0  0  0  0  0  0  0  0  0
   -1.6067   -2.8386   -2.0810 H   0  0  0  0  0  0  0  0  0  0  0  0
   -4.5487   -0.9864   -3.4307 H   0  0  0  0  0  0  0  0  0  0  0  0
   -4.6166   -2.6427   -2.7823 H   0  0  0  0  0  0  0  0  0  0  0  0
   -3.2687   -2.1321   -3.8291 H   0  0  0  0  0  0  0  0  0  0  0  0
   -4.6153    0.1247   -1.2238 H   0  0  0  0  0  0  0  0  0  0  0  0
   -3.3924    0.7930    0.7900 H   0  0  0  0  0  0  0  0  0  0  0  0
   -0.8465    2.2421    0.1616 H   0  0  0  0  0  0  0  0  0  0  0  0
    0.1591    2.9675    1.3963 H   0  0  0  0  0  0  0  0  0  0  0  0
    0.2940    0.9309   -1.5200 H   0  0  0  0  0  0  0  0  0  0  0  0
    1.5671   -0.2477   -3.3371 H   0  0  0  0  0  0  0  0  0  0  0  0
    5.5388   -0.5654   -0.3082 H   0  0  0  0  0  0  0  0  0  0  0  0
    4.1936    0.5884    1.4062 H   0  0  0  0  0  0  0  0  0  0  0  0
    5.8095   -1.3670   -4.8852 H   0  0  0  0  0  0  0  0  0  0  0  0
    5.2441   -2.9553   -4.3089 H   0  0  0  0  0  0  0  0  0  0  0  0
  1  2  1  0
  2  3  1  0
  3  4  2  0
  3  5  1  0
  5  6  1  0
  6  7  1  0
  7  8  2  0
  8  9  1  0
  9 10  2  0
 10 11  1  0
 10 12  1  0
 12 13  2  0
  5 14  1  0
 14 15  1  0
 15 16  2  0
 16 17  1  0
 17 18  2  0
 18 19  1  0
 19 20  2  0
 20 21  1  0
 21 22  2  0
 22 23  1  0
 23 24  1  0
 24 25  2  0
 20 26  1  0
 26 27  1  0
 27 28  1  0
 13  7  1  0
 24 15  1  0
 22 17  1  0
 28 19  1  0
  1 29  1  0
  1 30  1  0
  1 31  1  0
  2 32  1  0
  2 33  1  0
  6 34  1  0
  6 35  1  0
  8 36  1  0
  9 37  1  0
 11 38  1  0
 11 39  1  0
 11 40  1  0
 12 41  1  0
 13 42  1  0
 14 43  1  0
 14 44  1  0
 16 45  1  0
 18 46  1  0
 21 47  1  0
 23 48  1  0
 27 49  1  0
 27 50  1  0
M  END
$$$$
