
     RDKit          3D

 51 55  0  0  0  0  0  0  0  0999 V2000
    5.3658    0.0785   -4.7873 C   0  0  0  0  0  0  0  0  0  0  0  0
    6.0035    0.1096   -3.4092 C   0  0  0  0  0  0  0  0  0  0  0  0
    5.2261    0.8991   -2.5101 O   0  0  0  0  0  0  0  0  0  0  0  0
    4.2463    0.2924   -1.7761 C   0  0  0  0  0  0  0  0  0  0  0  0
    3.6567    1.1167   -0.8105 C   0  0  0  0  0  0  0  0  0  0  0  0
    2.6361    0.6379    0.0123 C   0  0  0  0  0  0  0  0  0  0  0  0
    2.1934   -0.6767   -0.1450 C   0  0  0  0  0  0  0  0  0  0  0  0
    0.9051   -1.2880    0.9186 S   0  0  0  0  0  6  0  0  0  0  0  0
    1.2090   -0.7820    2.2437 O   0  0  0  0  0  0  0  0  0  0  0  0
    0.7600   -2.7144    0.7053 O   0  0  0  0  0  0  0  0  0  0  0  0
   -0.4879   -0.4960    0.3403 N   0  0  0  0  0  0  0  0  0  0  0  0
   -0.8101   -0.5819   -1.0497 C   0  0  0  0  0  0  0  0  0  0  0  0
   -0.2603   -1.3777   -1.8019 O   0  0  0  0  0  0  0  0  0  0  0  0
   -1.7950    0.3727   -1.5353 C   0  0  0  0  0  0  0  0  0  0  0  0
   -2.4356    0.4502   -2.7605 C   0  0  0  0  0  0  0  0  0  0  0  0
   -3.2816    1.5840   -2.7132 C   0  0  0  0  0  0  0  0  0  0  0  0
   -3.1011    2.1416   -1.4709 C   0  0  0  0  0  0  0  0  0  0  0  0
   -2.1994    1.4239   -0.7555 O   0  0  0  0  0  0  0  0  0  0  0  0
   -1.6298   -0.6846    1.2254 C   0  0  0  0  0  0  0  0  0  0  0  0
   -2.3630   -1.8808    1.1467 C   0  0  0  0  0  0  0  0  0  0  0  0
   -3.4177   -2.0739    2.0174 C   0  0  0  0  0  0  0  0  0  0  0  0
   -4.4877   -3.4582    2.1155 S   0  0  0  0  0  0  0  0  0  0  0  0
   -5.3278   -2.6573    3.4470 C   0  0  0  0  0  0  0  0  0  0  0  0
   -6.2874   -3.1693    4.0072 O   0  0  0  0  0  0  0  0  0  0  0  0
   -4.8300   -1.4080    3.8056 O   0  0  0  0  0  0  0  0  0  0  0  0
   -3.7446   -1.1160    2.9696 C   0  0  0  0  0  0  0  0  0  0  0  0
   -3.0252    0.0797    3.0964 C   0  0  0  0  0  0  0  0  0  0  0  0
   -3.3500    1.0483    4.0678 C   0  0  0  0  0  0  0  0  0  0  0  0
   -2.6183    2.2290    4.1776 C   0  0  0  0  0  0  0  0  0  0  0  0
   -1.5526    2.4613    3.3191 C   0  0  0  0  0  0  0  0  0  0  0  0
   -1.2186    1.5127    2.3502 C   0  0  0  0  0  0  0  0  0  0  0  0
   -1.9378    0.3034    2.2121 C   0  0  0  0  0  0  0  0  0  0  0  0
    2.7788   -1.5138   -1.0968 C   0  0  0  0  0  0  0  0  0  0  0  0
    3.8007   -1.0233   -1.9169 C   0  0  0  0  0  0  0  0  0  0  0  0
    5.2182    1.0963   -5.1636 H   0  0  0  0  0  0  0  0  0  0  0  0
    5.9975   -0.4685   -5.4930 H   0  0  0  0  0  0  0  0  0  0  0  0
    4.3802   -0.3955   -4.7624 H   0  0  0  0  0  0  0  0  0  0  0  0
    6.2093   -0.8936   -3.0199 H   0  0  0  0  0  0  0  0  0  0  0  0
    6.9780    0.6043   -3.4911 H   0  0  0  0  0  0  0  0  0  0  0  0
    4.0061    2.1406   -0.6952 H   0  0  0  0  0  0  0  0  0  0  0  0
    2.2046    1.2874    0.7700 H   0  0  0  0  0  0  0  0  0  0  0  0
   -2.3010   -0.2384   -3.5846 H   0  0  0  0  0  0  0  0  0  0  0  0
   -3.9374    1.9528   -3.4900 H   0  0  0  0  0  0  0  0  0  0  0  0
   -3.5141    3.0067   -0.9696 H   0  0  0  0  0  0  0  0  0  0  0  0
   -2.1030   -2.6554    0.4290 H   0  0  0  0  0  0  0  0  0  0  0  0
   -4.1797    0.8860    4.7540 H   0  0  0  0  0  0  0  0  0  0  0  0
   -2.8793    2.9634    4.9356 H   0  0  0  0  0  0  0  0  0  0  0  0
   -0.9754    3.3788    3.4017 H   0  0  0  0  0  0  0  0  0  0  0  0
   -0.3793    1.7311    1.6936 H   0  0  0  0  0  0  0  0  0  0  0  0
    2.4378   -2.5401   -1.2195 H   0  0  0  0  0  0  0  0  0  0  0  0
    4.2176   -1.6950   -2.6599 H   0  0  0  0  0  0  0  0  0  0  0  0
  1  2  1  0
  2  3  1  0
  3  4  1  0
  4  5  2  0
  5  6  1  0
  6  7  2  0
  7  8  1  0
  8  9  2  0
  8 10  2  0
  8 11  1  0
 11 12  1  0
 12 13  2  0
 12 14  1  0
 14 15  2  0
 15 16  1  0
 16 17  2  0
 17 18  1  0
 11 19  1  0
 19 20  2  0
 20 21  1  0
 21 22  1  0
 22 23  1  0
 23 24  2  0
 23 25  1  0
 25 26  1  0
 26 27  1  0
 27 28  2  0
 28 29  1  0
 29 30  2  0
 30 31  1  0
 31 32  2  0
  7 33  1  0
 33 34  2  0
 34  4  1  0
 18 14  1  0
 32 19  1  0
 26 21  2  0
 32 27  1  0
  1 35  1  0
  1 36  1  0
  1 37  1  0
  2 38  1  0
  2 39  1  0
  5 40  1  0
  6 41  1  0
 15 42  1  0
 16 43  1  0
 17 44  1  0
 20 45  1  0
 28 46  1  0
 29 47  1  0
 30 48  1  0
 31 49  1  0
 33 50  1  0
 34 51  1  0
M  END
$$$$
