
     RDKit          3D

 47 50  0  0  0  0  0  0  0  0999 V2000
   -5.1227    2.3323    0.6374 C   0  0  0  0  0  0  0  0  0  0  0  0
   -4.1456    1.9163   -0.4607 C   0  0  0  0  0  0  0  0  0  0  0  0
   -2.7754    1.6175    0.1244 C   0  0  0  0  0  0  0  0  0  0  0  0
   -1.8213    1.0670   -0.9106 C   0  0  0  0  0  0  0  0  0  0  0  0
   -1.0145    1.8165   -1.4713 O   0  0  0  0  0  0  0  0  0  0  0  0
   -1.8229   -0.3063   -1.1277 N   0  0  0  0  0  0  0  0  0  0  0  0
   -0.7881   -0.8592   -2.0096 C   0  0  0  0  0  0  0  0  0  0  0  0
    0.5642   -1.0079   -1.3011 C   0  0  0  0  0  0  0  0  0  0  0  0
    0.9811   -2.1157   -0.9730 O   0  0  0  0  0  0  0  0  0  0  0  0
    1.1985    0.2050   -1.0926 N   0  0  0  0  0  0  0  0  0  0  0  0
    2.4446    0.4410   -0.4815 C   0  0  0  0  0  0  0  0  0  0  0  0
    2.8332    1.7808   -0.3364 C   0  0  0  0  0  0  0  0  0  0  0  0
    4.0572    2.1105    0.2515 C   0  0  0  0  0  0  0  0  0  0  0  0
    4.9041    1.1006    0.6950 C   0  0  0  0  0  0  0  0  0  0  0  0
    4.5138   -0.2363    0.5774 C   0  0  0  0  0  0  0  0  0  0  0  0
    3.2956   -0.5663   -0.0224 C   0  0  0  0  0  0  0  0  0  0  0  0
    5.2843   -1.2821    1.0221 O   0  0  0  0  0  0  0  0  0  0  0  0
    6.3149   -0.8323    1.9080 C   0  0  0  0  0  0  0  0  0  0  0  0
    7.0114    0.3928    1.3400 C   0  0  0  0  0  0  0  0  0  0  0  0
    6.0990    1.4925    1.2413 O   0  0  0  0  0  0  0  0  0  0  0  0
   -2.8116   -1.1967   -0.6029 C   0  0  0  0  0  0  0  0  0  0  0  0
   -2.4046   -2.4393   -0.0881 C   0  0  0  0  0  0  0  0  0  0  0  0
   -3.3307   -3.3335    0.4538 C   0  0  0  0  0  0  0  0  0  0  0  0
   -4.6819   -3.0098    0.4733 C   0  0  0  0  0  0  0  0  0  0  0  0
   -5.1101   -1.7954   -0.0600 C   0  0  0  0  0  0  0  0  0  0  0  0
   -4.1889   -0.8818   -0.5959 C   0  0  0  0  0  0  0  0  0  0  0  0
   -4.8831    0.5468   -1.4242 S   0  0  0  0  0  0  0  0  0  0  0  0
   -5.2852    1.5287    1.3646 H   0  0  0  0  0  0  0  0  0  0  0  0
   -6.0943    2.6211    0.2209 H   0  0  0  0  0  0  0  0  0  0  0  0
   -4.7348    3.1988    1.1847 H   0  0  0  0  0  0  0  0  0  0  0  0
   -4.0505    2.7514   -1.1650 H   0  0  0  0  0  0  0  0  0  0  0  0
   -2.8247    0.9444    0.9889 H   0  0  0  0  0  0  0  0  0  0  0  0
   -2.3350    2.5438    0.5168 H   0  0  0  0  0  0  0  0  0  0  0  0
   -1.0957   -1.8315   -2.4118 H   0  0  0  0  0  0  0  0  0  0  0  0
   -0.6572   -0.1970   -2.8747 H   0  0  0  0  0  0  0  0  0  0  0  0
    0.6704    1.0345   -1.3726 H   0  0  0  0  0  0  0  0  0  0  0  0
    2.1884    2.5858   -0.6824 H   0  0  0  0  0  0  0  0  0  0  0  0
    4.3522    3.1512    0.3518 H   0  0  0  0  0  0  0  0  0  0  0  0
    3.0383   -1.6165   -0.1091 H   0  0  0  0  0  0  0  0  0  0  0  0
    5.8668   -0.6224    2.8872 H   0  0  0  0  0  0  0  0  0  0  0  0
    7.0298   -1.6522    2.0289 H   0  0  0  0  0  0  0  0  0  0  0  0
    7.8315    0.7007    1.9961 H   0  0  0  0  0  0  0  0  0  0  0  0
    7.4265    0.1934    0.3441 H   0  0  0  0  0  0  0  0  0  0  0  0
   -1.3551   -2.7237   -0.0636 H   0  0  0  0  0  0  0  0  0  0  0  0
   -2.9910   -4.2831    0.8610 H   0  0  0  0  0  0  0  0  0  0  0  0
   -5.4050   -3.7088    0.8862 H   0  0  0  0  0  0  0  0  0  0  0  0
   -6.1760   -1.5755   -0.0731 H   0  0  0  0  0  0  0  0  0  0  0  0
  1  2  1  0
  2  3  1  0
  3  4  1  0
  4  5  2  0
  4  6  1  0
  6  7  1  0
  7  8  1  0
  8  9  2  0
  8 10  1  0
 10 11  1  0
 11 12  2  0
 12 13  1  0
 13 14  2  0
 14 15  1  0
 15 16  2  0
 15 17  1  0
 17 18  1  0
 18 19  1  0
 19 20  1  0
  6 21  1  0
 21 22  2  0
 22 23  1  0
 23 24  2  0
 24 25  1  0
 25 26  2  0
 26 27  1  0
 27  2  1  0
 16 11  1  0
 26 21  1  0
 20 14  1  0
  1 28  1  0
  1 29  1  0
  1 30  1  0
  2 31  1  0
  3 32  1  0
  3 33  1  0
  7 34  1  0
  7 35  1  0
 10 36  1  0
 12 37  1  0
 13 38  1  0
 16 39  1  0
 18 40  1  0
 18 41  1  0
 19 42  1  0
 19 43  1  0
 22 44  1  0
 23 45  1  0
 24 46  1  0
 25 47  1  0
M  END
$$$$
