
     RDKit          3D

 61 66  0  0  0  0  0  0  0  0999 V2000
    8.6986    1.7278    0.8850 F   0  0  0  0  0  0  0  0  0  0  0  0
    7.9280    1.3050   -0.1562 C   0  0  0  0  0  0  0  0  0  0  0  0
    8.7964    1.0072   -1.1647 F   0  0  0  0  0  0  0  0  0  0  0  0
    7.2353    2.4009   -0.5774 F   0  0  0  0  0  0  0  0  0  0  0  0
    7.0418    0.1446    0.2210 C   0  0  0  0  0  0  0  0  0  0  0  0
    7.5192   -1.1718    0.1408 C   0  0  0  0  0  0  0  0  0  0  0  0
    6.7053   -2.2437    0.5075 C   0  0  0  0  0  0  0  0  0  0  0  0
    5.4076   -2.0132    0.9647 C   0  0  0  0  0  0  0  0  0  0  0  0
    4.9091   -0.7076    1.0610 C   0  0  0  0  0  0  0  0  0  0  0  0
    3.5050   -0.4528    1.5700 C   0  0  0  0  0  0  0  0  0  0  0  0
    2.6684    0.2828    0.6078 N   0  0  0  0  0  0  0  0  0  0  0  0
    1.4107    0.7180    1.2582 C   0  0  0  0  0  0  0  0  0  0  0  0
    0.4658    1.4551    0.2821 C   0  0  0  0  0  0  0  0  0  0  0  0
    0.1405    0.5972   -0.8745 N   0  0  0  0  0  0  0  0  0  0  0  0
   -0.9191   -0.3007   -0.7526 C   0  0  0  0  0  0  0  0  0  0  0  0
   -0.6900   -1.5853   -0.8577 N   0  0  0  0  0  0  0  0  0  0  0  0
   -1.7360   -2.5162   -0.7027 C   0  0  0  0  0  0  0  0  0  0  0  0
   -1.4350   -3.8752   -0.8114 C   0  0  0  0  0  0  0  0  0  0  0  0
   -2.4322   -4.8416   -0.6543 C   0  0  0  0  0  0  0  0  0  0  0  0
   -3.7457   -4.4552   -0.3853 C   0  0  0  0  0  0  0  0  0  0  0  0
   -4.0698   -3.1026   -0.2730 C   0  0  0  0  0  0  0  0  0  0  0  0
   -3.0616   -2.1475   -0.4322 C   0  0  0  0  0  0  0  0  0  0  0  0
   -3.3014   -0.7663   -0.3492 N   0  0  0  0  0  0  0  0  0  0  0  0
   -4.4788   -0.0937   -0.1224 C   0  0  0  0  0  0  0  0  0  0  0  0
   -4.2307    1.2652   -0.1965 C   0  0  0  0  0  0  0  0  0  0  0  0
   -5.2537    2.2904   -0.0495 C   0  0  0  0  0  0  0  0  0  0  0  0
   -6.3169    2.1298    0.8499 C   0  0  0  0  0  0  0  0  0  0  0  0
   -7.2892    3.1244    0.9863 C   0  0  0  0  0  0  0  0  0  0  0  0
   -7.2082    4.2890    0.2259 C   0  0  0  0  0  0  0  0  0  0  0  0
   -6.1549    4.4616   -0.6695 C   0  0  0  0  0  0  0  0  0  0  0  0
   -5.1814    3.4683   -0.8053 C   0  0  0  0  0  0  0  0  0  0  0  0
   -2.8438    1.4058   -0.4744 C   0  0  0  0  0  0  0  0  0  0  0  0
   -2.2837    0.1421   -0.5197 C   0  0  0  0  0  0  0  0  0  0  0  0
    1.3753    0.1483   -1.5517 C   0  0  0  0  0  0  0  0  0  0  0  0
    2.3374   -0.5593   -0.5710 C   0  0  0  0  0  0  0  0  0  0  0  0
    5.7378    0.3648    0.6924 C   0  0  0  0  0  0  0  0  0  0  0  0
    8.5309   -1.3667   -0.2123 H   0  0  0  0  0  0  0  0  0  0  0  0
    7.0828   -3.2611    0.4375 H   0  0  0  0  0  0  0  0  0  0  0  0
    4.7863   -2.8614    1.2445 H   0  0  0  0  0  0  0  0  0  0  0  0
    3.6137    0.1345    2.4921 H   0  0  0  0  0  0  0  0  0  0  0  0
    3.0253   -1.3962    1.8632 H   0  0  0  0  0  0  0  0  0  0  0  0
    0.8845   -0.1450    1.6879 H   0  0  0  0  0  0  0  0  0  0  0  0
    1.6472    1.4028    2.0813 H   0  0  0  0  0  0  0  0  0  0  0  0
   -0.4324    1.7662    0.8240 H   0  0  0  0  0  0  0  0  0  0  0  0
    0.9470    2.3723   -0.0799 H   0  0  0  0  0  0  0  0  0  0  0  0
   -0.4131   -4.1795   -1.0208 H   0  0  0  0  0  0  0  0  0  0  0  0
   -2.1819   -5.8956   -0.7435 H   0  0  0  0  0  0  0  0  0  0  0  0
   -4.5185   -5.2108   -0.2658 H   0  0  0  0  0  0  0  0  0  0  0  0
   -5.0987   -2.8268   -0.0680 H   0  0  0  0  0  0  0  0  0  0  0  0
   -5.4046   -0.6246    0.0437 H   0  0  0  0  0  0  0  0  0  0  0  0
   -6.3928    1.2359    1.4634 H   0  0  0  0  0  0  0  0  0  0  0  0
   -8.1076    2.9895    1.6886 H   0  0  0  0  0  0  0  0  0  0  0  0
   -7.9650    5.0619    0.3313 H   0  0  0  0  0  0  0  0  0  0  0  0
   -6.0908    5.3681   -1.2657 H   0  0  0  0  0  0  0  0  0  0  0  0
   -4.3745    3.6190   -1.5183 H   0  0  0  0  0  0  0  0  0  0  0  0
   -2.3043    2.3327   -0.6182 H   0  0  0  0  0  0  0  0  0  0  0  0
    1.1393   -0.5109   -2.3957 H   0  0  0  0  0  0  0  0  0  0  0  0
    1.8749    1.0266   -1.9802 H   0  0  0  0  0  0  0  0  0  0  0  0
    1.8977   -1.5096   -0.2437 H   0  0  0  0  0  0  0  0  0  0  0  0
    3.2521   -0.7991   -1.1252 H   0  0  0  0  0  0  0  0  0  0  0  0
    5.3526    1.3823    0.7648 H   0  0  0  0  0  0  0  0  0  0  0  0
  1  2  1  0
  2  3  1  0
  2  4  1  0
  2  5  1  0
  5  6  2  0
  6  7  1  0
  7  8  2  0
  8  9  1  0
  9 10  1  0
 10 11  1  0
 11 12  1  0
 12 13  1  0
 13 14  1  0
 14 15  1  0
 15 16  2  0
 16 17  1  0
 17 18  2  0
 18 19  1  0
 19 20  2  0
 20 21  1  0
 21 22  2  0
 22 23  1  0
 23 24  1  0
 24 25  2  0
 25 26  1  0
 26 27  2  0
 27 28  1  0
 28 29  2  0
 29 30  1  0
 30 31  2  0
 25 32  1  0
 32 33  2  0
 14 34  1  0
 34 35  1  0
  9 36  2  0
 36  5  1  0
 35 11  1  0
 33 15  1  0
 22 17  1  0
 33 23  1  0
 31 26  1  0
  6 37  1  0
  7 38  1  0
  8 39  1  0
 10 40  1  0
 10 41  1  0
 12 42  1  0
 12 43  1  0
 13 44  1  0
 13 45  1  0
 18 46  1  0
 19 47  1  0
 20 48  1  0
 21 49  1  0
 24 50  1  0
 27 51  1  0
 28 52  1  0
 29 53  1  0
 30 54  1  0
 31 55  1  0
 32 56  1  0
 34 57  1  0
 34 58  1  0
 35 59  1  0
 35 60  1  0
 36 61  1  0
M  END
$$$$
