
     RDKit          3D

 25 26  0  0  0  0  0  0  0  0999 V2000
   -3.1656    0.5768    2.2250 O   0  0  0  0  0  0  0  0  0  0  0  0
   -2.7032    0.1750    1.1714 C   0  0  0  0  0  0  0  0  0  0  0  0
   -3.3732    0.2161   -0.1667 C   0  0  0  0  0  0  0  0  0  0  0  0
   -2.5125   -0.7404   -0.9842 C   0  0  0  0  0  0  0  0  0  0  0  0
   -1.1856   -0.7521   -0.3426 N   0  0  0  0  0  0  0  0  0  0  0  0
   -0.2621    0.1876   -1.0112 C   0  0  0  0  0  0  0  0  0  0  0  0
    1.1283    0.1558   -0.4075 C   0  0  0  0  0  0  0  0  0  0  0  0
    1.6106    1.2448    0.3345 C   0  0  0  0  0  0  0  0  0  0  0  0
    2.8894    1.2077    0.8955 C   0  0  0  0  0  0  0  0  0  0  0  0
    3.6908    0.0815    0.7203 C   0  0  0  0  0  0  0  0  0  0  0  0
    5.2655    0.0372    1.4126 Cl  0  0  0  0  0  0  0  0  0  0  0  0
    3.2245   -1.0100   -0.0087 C   0  0  0  0  0  0  0  0  0  0  0  0
    1.9461   -0.9736   -0.5698 C   0  0  0  0  0  0  0  0  0  0  0  0
   -1.4449   -0.3522    0.9787 N   0  0  0  0  0  0  0  0  0  0  0  0
   -4.4076   -0.1280   -0.0956 H   0  0  0  0  0  0  0  0  0  0  0  0
   -3.3281    1.2382   -0.5546 H   0  0  0  0  0  0  0  0  0  0  0  0
   -2.9317   -1.7523   -0.9143 H   0  0  0  0  0  0  0  0  0  0  0  0
   -2.4938   -0.4782   -2.0478 H   0  0  0  0  0  0  0  0  0  0  0  0
   -0.1628   -0.0857   -2.0701 H   0  0  0  0  0  0  0  0  0  0  0  0
   -0.6561    1.2129   -0.9930 H   0  0  0  0  0  0  0  0  0  0  0  0
    0.9916    2.1270    0.4844 H   0  0  0  0  0  0  0  0  0  0  0  0
    3.2520    2.0572    1.4681 H   0  0  0  0  0  0  0  0  0  0  0  0
    3.8465   -1.8910   -0.1409 H   0  0  0  0  0  0  0  0  0  0  0  0
    1.5831   -1.8338   -1.1291 H   0  0  0  0  0  0  0  0  0  0  0  0
   -0.8012   -0.5205    1.7456 H   0  0  0  0  0  0  0  0  0  0  0  0
  1  2  2  0
  2  3  1  0
  3  4  1  0
  4  5  1  0
  5  6  1  0
  6  7  1  0
  7  8  2  0
  8  9  1  0
  9 10  2  0
 10 11  1  0
 10 12  1  0
 12 13  2  0
  5 14  1  0
 14  2  1  0
 13  7  1  0
  3 15  1  0
  3 16  1  0
  4 17  1  0
  4 18  1  0
  6 19  1  0
  6 20  1  0
  8 21  1  0
  9 22  1  0
 12 23  1  0
 13 24  1  0
 14 25  1  0
M  END
$$$$
