
     RDKit          3D

 61 65  0  0  0  0  0  0  0  0999 V2000
   -1.7603    1.3382   -4.4277 C   0  0  0  0  0  0  0  0  0  0  0  0
   -2.3845    0.9848   -3.1101 C   0  0  0  0  0  0  0  0  0  0  0  0
   -2.5116    1.9514   -2.1080 C   0  0  0  0  0  0  0  0  0  0  0  0
   -3.1219    1.6353   -0.8898 C   0  0  0  0  0  0  0  0  0  0  0  0
   -3.6115    0.3443   -0.6447 C   0  0  0  0  0  0  0  0  0  0  0  0
   -4.2245    0.0085    0.6100 N   0  0  0  0  0  0  0  0  0  0  0  0
   -3.6172    0.2491    1.8432 C   0  0  0  0  0  0  0  0  0  0  0  0
   -1.9528    0.8115    1.9131 S   0  0  0  0  0  0  0  0  0  0  0  0
   -1.2053   -0.6913    2.6164 C   0  0  0  0  0  0  0  0  0  0  0  0
    0.3077   -0.7243    2.4316 C   0  0  0  0  0  0  0  0  0  0  0  0
    1.0158   -1.2727    3.2722 O   0  0  0  0  0  0  0  0  0  0  0  0
    0.7416   -0.1798    1.2350 N   0  0  0  0  0  0  0  0  0  0  0  0
    2.0593   -0.0718    0.7536 C   0  0  0  0  0  0  0  0  0  0  0  0
    3.1799   -0.5638    1.4158 C   0  0  0  0  0  0  0  0  0  0  0  0
    4.4635   -0.3964    0.8704 C   0  0  0  0  0  0  0  0  0  0  0  0
    4.6667    0.2518   -0.3547 C   0  0  0  0  0  0  0  0  0  0  0  0
    5.9306    0.4595   -0.9269 N   0  0  0  0  0  0  0  0  0  0  0  0
    7.1226    0.2492   -0.0760 C   0  0  0  0  0  0  0  0  0  0  0  0
    8.3806    0.7371   -0.8116 C   0  0  0  0  0  0  0  0  0  0  0  0
    8.5420    0.0663   -2.0722 O   0  0  0  0  0  0  0  0  0  0  0  0
    7.4041    0.3219   -2.9109 C   0  0  0  0  0  0  0  0  0  0  0  0
    6.0954   -0.1630   -2.2636 C   0  0  0  0  0  0  0  0  0  0  0  0
    3.5243    0.7442   -1.0042 C   0  0  0  0  0  0  0  0  0  0  0  0
    2.2411    0.5841   -0.4649 C   0  0  0  0  0  0  0  0  0  0  0  0
   -4.1617    0.0189    2.9928 N   0  0  0  0  0  0  0  0  0  0  0  0
   -5.4514   -0.5108    3.0255 C   0  0  0  0  0  0  0  0  0  0  0  0
   -6.0594   -0.7264    4.2647 C   0  0  0  0  0  0  0  0  0  0  0  0
   -7.3417   -1.2763    4.3428 C   0  0  0  0  0  0  0  0  0  0  0  0
   -8.0263   -1.6165    3.1771 C   0  0  0  0  0  0  0  0  0  0  0  0
   -7.4275   -1.4058    1.9355 C   0  0  0  0  0  0  0  0  0  0  0  0
   -6.1412   -0.8535    1.8683 C   0  0  0  0  0  0  0  0  0  0  0  0
   -5.4860   -0.6021    0.5707 C   0  0  0  0  0  0  0  0  0  0  0  0
   -6.1008   -0.9192   -0.4473 O   0  0  0  0  0  0  0  0  0  0  0  0
   -3.5176   -0.6077   -1.6696 C   0  0  0  0  0  0  0  0  0  0  0  0
   -2.9088   -0.2919   -2.8886 C   0  0  0  0  0  0  0  0  0  0  0  0
   -2.4887    1.8518   -5.0617 H   0  0  0  0  0  0  0  0  0  0  0  0
   -1.4092    0.4430   -4.9515 H   0  0  0  0  0  0  0  0  0  0  0  0
   -0.8931    1.9894   -4.2792 H   0  0  0  0  0  0  0  0  0  0  0  0
   -2.1480    2.9637   -2.2732 H   0  0  0  0  0  0  0  0  0  0  0  0
   -3.2361    2.4257   -0.1507 H   0  0  0  0  0  0  0  0  0  0  0  0
   -1.6200   -1.5814    2.1338 H   0  0  0  0  0  0  0  0  0  0  0  0
   -1.4256   -0.7220    3.6863 H   0  0  0  0  0  0  0  0  0  0  0  0
    0.0232    0.2681    0.6751 H   0  0  0  0  0  0  0  0  0  0  0  0
    3.0999   -1.0818    2.3660 H   0  0  0  0  0  0  0  0  0  0  0  0
    5.2961   -0.8045    1.4355 H   0  0  0  0  0  0  0  0  0  0  0  0
    7.0303    0.8058    0.8637 H   0  0  0  0  0  0  0  0  0  0  0  0
    7.2348   -0.8193    0.1477 H   0  0  0  0  0  0  0  0  0  0  0  0
    9.2695    0.5268   -0.2089 H   0  0  0  0  0  0  0  0  0  0  0  0
    8.3422    1.8192   -0.9856 H   0  0  0  0  0  0  0  0  0  0  0  0
    7.3583    1.3956   -3.1298 H   0  0  0  0  0  0  0  0  0  0  0  0
    7.5663   -0.2037   -3.8572 H   0  0  0  0  0  0  0  0  0  0  0  0
    5.2695    0.0841   -2.9382 H   0  0  0  0  0  0  0  0  0  0  0  0
    6.1286   -1.2537   -2.1471 H   0  0  0  0  0  0  0  0  0  0  0  0
    3.6272    1.2947   -1.9357 H   0  0  0  0  0  0  0  0  0  0  0  0
    1.3952    0.9932   -1.0114 H   0  0  0  0  0  0  0  0  0  0  0  0
   -5.5270   -0.4650    5.1767 H   0  0  0  0  0  0  0  0  0  0  0  0
   -7.8035   -1.4381    5.3139 H   0  0  0  0  0  0  0  0  0  0  0  0
   -9.0255   -2.0421    3.2355 H   0  0  0  0  0  0  0  0  0  0  0  0
   -7.9636   -1.6665    1.0252 H   0  0  0  0  0  0  0  0  0  0  0  0
   -3.9094   -1.6134   -1.5322 H   0  0  0  0  0  0  0  0  0  0  0  0
   -2.8547   -1.0526   -3.6649 H   0  0  0  0  0  0  0  0  0  0  0  0
  1  2  1  0
  2  3  2  0
  3  4  1  0
  4  5  2  0
  5  6  1  0
  6  7  1  0
  7  8  1  0
  8  9  1  0
  9 10  1  0
 10 11  2  0
 10 12  1  0
 12 13  1  0
 13 14  2  0
 14 15  1  0
 15 16  2  0
 16 17  1  0
 17 18  1  0
 18 19  1  0
 19 20  1  0
 20 21  1  0
 21 22  1  0
 16 23  1  0
 23 24  2  0
  7 25  2  0
 25 26  1  0
 26 27  2  0
 27 28  1  0
 28 29  2  0
 29 30  1  0
 30 31  2  0
 31 32  1  0
 32 33  2  0
  5 34  1  0
 34 35  2  0
 35  2  1  0
 32  6  1  0
 24 13  1  0
 31 26  1  0
 22 17  1  0
  1 36  1  0
  1 37  1  0
  1 38  1  0
  3 39  1  0
  4 40  1  0
  9 41  1  0
  9 42  1  0
 12 43  1  0
 14 44  1  0
 15 45  1  0
 18 46  1  0
 18 47  1  0
 19 48  1  0
 19 49  1  0
 21 50  1  0
 21 51  1  0
 22 52  1  0
 22 53  1  0
 23 54  1  0
 24 55  1  0
 27 56  1  0
 28 57  1  0
 29 58  1  0
 30 59  1  0
 34 60  1  0
 35 61  1  0
M  END
$$$$
