
     RDKit          3D

 32 33  0  0  0  0  0  0  0  0999 V2000
   -5.2321   -0.3327    0.9204 C   0  0  0  0  0  0  0  0  0  0  0  0
   -3.9081   -0.3732    0.2153 C   0  0  0  0  0  0  0  0  0  0  0  0
   -3.6098    0.5574   -0.7882 C   0  0  0  0  0  0  0  0  0  0  0  0
   -2.3890    0.5016   -1.4682 C   0  0  0  0  0  0  0  0  0  0  0  0
   -2.0979    1.6634   -2.7138 Cl  0  0  0  0  0  0  0  0  0  0  0  0
   -1.4462   -0.4818   -1.1466 C   0  0  0  0  0  0  0  0  0  0  0  0
   -0.2572   -0.5579   -1.8293 O   0  0  0  0  0  0  0  0  0  0  0  0
    0.7441    0.2497   -1.1928 C   0  0  0  0  0  0  0  0  0  0  0  0
    2.0943   -0.1479   -1.7833 C   0  0  0  0  0  0  0  0  0  0  0  0
    3.2452    0.7159   -1.2775 C   0  0  0  0  0  0  0  0  0  0  0  0
    3.4664    0.6139    0.1491 N   0  0  0  0  0  0  0  0  0  0  0  0
    3.9733   -0.4664    0.8143 C   0  0  0  0  0  0  0  0  0  0  0  0
    3.9873   -0.0913    2.1375 C   0  0  0  0  0  0  0  0  0  0  0  0
    3.5138    1.1869    2.2856 N   0  0  0  0  0  0  0  0  0  0  0  0
    3.2175    1.5899    1.0707 C   0  0  0  0  0  0  0  0  0  0  0  0
   -1.7606   -1.4407   -0.1764 C   0  0  0  0  0  0  0  0  0  0  0  0
   -0.5671   -2.8554    0.2500 Br  0  0  0  0  0  0  0  0  0  0  0  0
   -2.9817   -1.3835    0.5034 C   0  0  0  0  0  0  0  0  0  0  0  0
   -5.9646   -0.9362    0.3757 H   0  0  0  0  0  0  0  0  0  0  0  0
   -5.1426   -0.7192    1.9411 H   0  0  0  0  0  0  0  0  0  0  0  0
   -5.6038    0.6948    0.9941 H   0  0  0  0  0  0  0  0  0  0  0  0
   -4.3352    1.3264   -1.0466 H   0  0  0  0  0  0  0  0  0  0  0  0
    0.7436    0.0906   -0.1076 H   0  0  0  0  0  0  0  0  0  0  0  0
    0.5471    1.3086   -1.3951 H   0  0  0  0  0  0  0  0  0  0  0  0
    2.0438   -0.0725   -2.8768 H   0  0  0  0  0  0  0  0  0  0  0  0
    2.2830   -1.2074   -1.5687 H   0  0  0  0  0  0  0  0  0  0  0  0
    4.1809    0.4176   -1.7647 H   0  0  0  0  0  0  0  0  0  0  0  0
    3.0716    1.7704   -1.5208 H   0  0  0  0  0  0  0  0  0  0  0  0
    4.2659   -1.3806    0.3171 H   0  0  0  0  0  0  0  0  0  0  0  0
    4.3141   -0.6723    2.9902 H   0  0  0  0  0  0  0  0  0  0  0  0
    2.8218    2.5635    0.8118 H   0  0  0  0  0  0  0  0  0  0  0  0
   -3.2176   -2.1317    1.2581 H   0  0  0  0  0  0  0  0  0  0  0  0
  1  2  1  0
  2  3  2  0
  3  4  1  0
  4  5  1  0
  4  6  2  0
  6  7  1  0
  7  8  1  0
  8  9  1  0
  9 10  1  0
 10 11  1  0
 11 12  1  0
 12 13  2  0
 13 14  1  0
 14 15  2  0
  6 16  1  0
 16 17  1  0
 16 18  2  0
 18  2  1  0
 15 11  1  0
  1 19  1  0
  1 20  1  0
  1 21  1  0
  3 22  1  0
  8 23  1  0
  8 24  1  0
  9 25  1  0
  9 26  1  0
 10 27  1  0
 10 28  1  0
 12 29  1  0
 13 30  1  0
 15 31  1  0
 18 32  1  0
M  END
$$$$
