
     RDKit          3D

 50 53  0  0  0  0  0  0  0  0999 V2000
    7.6152   -2.0426    1.1144 C   0  0  0  0  0  0  0  0  0  0  0  0
    7.4621   -0.6342    1.6594 C   0  0  0  0  0  0  0  0  0  0  0  0
    6.7996    0.2065    0.7159 O   0  0  0  0  0  0  0  0  0  0  0  0
    5.4366    0.2295    0.6602 C   0  0  0  0  0  0  0  0  0  0  0  0
    4.5798   -0.4925    1.4924 C   0  0  0  0  0  0  0  0  0  0  0  0
    3.1879   -0.3996    1.3346 C   0  0  0  0  0  0  0  0  0  0  0  0
    2.6242    0.4203    0.3445 C   0  0  0  0  0  0  0  0  0  0  0  0
    1.1385    0.4601    0.2137 C   0  0  0  0  0  0  0  0  0  0  0  0
    0.5079   -0.5387    0.5395 O   0  0  0  0  0  0  0  0  0  0  0  0
    0.6167    1.6589   -0.2376 N   0  0  0  0  0  0  0  0  0  0  0  0
   -0.7302    1.9382   -0.5569 C   0  0  0  0  0  0  0  0  0  0  0  0
   -1.0382    3.2535   -0.9233 C   0  0  0  0  0  0  0  0  0  0  0  0
   -2.3414    3.6072   -1.2746 C   0  0  0  0  0  0  0  0  0  0  0  0
   -3.3521    2.6475   -1.2613 C   0  0  0  0  0  0  0  0  0  0  0  0
   -3.0691    1.3262   -0.8971 C   0  0  0  0  0  0  0  0  0  0  0  0
   -4.1437    0.3099   -0.8828 C   0  0  0  0  0  0  0  0  0  0  0  0
   -4.3878   -0.3577    0.2587 C   0  0  0  0  0  0  0  0  0  0  0  0
   -5.4449   -1.3523    0.3269 C   0  0  0  0  0  0  0  0  0  0  0  0
   -5.7313   -2.0547    1.4988 C   0  0  0  0  0  0  0  0  0  0  0  0
   -6.7610   -3.0012    1.5142 C   0  0  0  0  0  0  0  0  0  0  0  0
   -7.5072   -3.2495    0.3574 C   0  0  0  0  0  0  0  0  0  0  0  0
   -7.2272   -2.5509   -0.8160 C   0  0  0  0  0  0  0  0  0  0  0  0
   -6.2007   -1.6095   -0.8139 C   0  0  0  0  0  0  0  0  0  0  0  0
   -5.9571   -0.9162   -2.0132 O   0  0  0  0  0  0  0  0  0  0  0  0
   -4.9608    0.0511   -2.1104 C   0  0  0  0  0  0  0  0  0  0  0  0
   -4.7776    0.6552   -3.1649 O   0  0  0  0  0  0  0  0  0  0  0  0
   -1.7497    0.9821   -0.5509 C   0  0  0  0  0  0  0  0  0  0  0  0
    3.4638    1.1358   -0.5106 C   0  0  0  0  0  0  0  0  0  0  0  0
    4.8499    1.0334   -0.3275 C   0  0  0  0  0  0  0  0  0  0  0  0
    5.6943    1.8000   -1.2169 N   0  0  0  0  0  4  0  0  0  0  0  0
    5.8089    1.3840   -2.3775 O   0  0  0  0  0  0  0  0  0  0  0  0
    6.1805    2.8474   -0.7669 O   0  0  0  0  0  1  0  0  0  0  0  0
    8.1511   -2.0285    0.1578 H   0  0  0  0  0  0  0  0  0  0  0  0
    6.6439   -2.5089    0.9248 H   0  0  0  0  0  0  0  0  0  0  0  0
    8.1700   -2.6693    1.8165 H   0  0  0  0  0  0  0  0  0  0  0  0
    8.4631   -0.2098    1.7999 H   0  0  0  0  0  0  0  0  0  0  0  0
    6.9857   -0.6111    2.6445 H   0  0  0  0  0  0  0  0  0  0  0  0
    4.9503   -1.1505    2.2736 H   0  0  0  0  0  0  0  0  0  0  0  0
    2.5395   -0.9797    1.9922 H   0  0  0  0  0  0  0  0  0  0  0  0
    1.2458    2.4476   -0.3082 H   0  0  0  0  0  0  0  0  0  0  0  0
   -0.2707    4.0228   -0.9471 H   0  0  0  0  0  0  0  0  0  0  0  0
   -2.5699    4.6300   -1.5652 H   0  0  0  0  0  0  0  0  0  0  0  0
   -4.3604    2.9387   -1.5489 H   0  0  0  0  0  0  0  0  0  0  0  0
   -3.8127   -0.1725    1.1615 H   0  0  0  0  0  0  0  0  0  0  0  0
   -5.1609   -1.8767    2.4076 H   0  0  0  0  0  0  0  0  0  0  0  0
   -6.9827   -3.5463    2.4310 H   0  0  0  0  0  0  0  0  0  0  0  0
   -8.3067   -3.9859    0.3737 H   0  0  0  0  0  0  0  0  0  0  0  0
   -7.8032   -2.7340   -1.7189 H   0  0  0  0  0  0  0  0  0  0  0  0
   -1.5366   -0.0511   -0.2972 H   0  0  0  0  0  0  0  0  0  0  0  0
    3.0683    1.7379   -1.3256 H   0  0  0  0  0  0  0  0  0  0  0  0
  1  2  1  0
  2  3  1  0
  3  4  1  0
  4  5  2  0
  5  6  1  0
  6  7  2  0
  7  8  1  0
  8  9  2  0
  8 10  1  0
 10 11  1  0
 11 12  2  0
 12 13  1  0
 13 14  2  0
 14 15  1  0
 15 16  1  0
 16 17  2  0
 17 18  1  0
 18 19  2  0
 19 20  1  0
 20 21  2  0
 21 22  1  0
 22 23  2  0
 23 24  1  0
 24 25  1  0
 25 26  2  0
 15 27  2  0
  7 28  1  0
 28 29  2  0
 29 30  1  0
 30 31  2  0
 30 32  1  0
 29  4  1  0
 27 11  1  0
 25 16  1  0
 23 18  1  0
  1 33  1  0
  1 34  1  0
  1 35  1  0
  2 36  1  0
  2 37  1  0
  5 38  1  0
  6 39  1  0
 10 40  1  0
 12 41  1  0
 13 42  1  0
 14 43  1  0
 17 44  1  0
 19 45  1  0
 20 46  1  0
 21 47  1  0
 22 48  1  0
 27 49  1  0
 28 50  1  0
M  CHG  2  30   1  32  -1
M  END
$$$$
