
     RDKit          3D

 58 62  0  0  0  0  0  0  0  0999 V2000
    6.5348   -1.1131    4.6200 C   0  0  0  0  0  0  0  0  0  0  0  0
    6.2926   -0.7873    3.2536 O   0  0  0  0  0  0  0  0  0  0  0  0
    5.0214   -0.3860    2.9262 C   0  0  0  0  0  0  0  0  0  0  0  0
    3.8954   -0.6194    3.7190 C   0  0  0  0  0  0  0  0  0  0  0  0
    2.6300   -0.1996    3.2946 C   0  0  0  0  0  0  0  0  0  0  0  0
    2.4690    0.4674    2.0760 C   0  0  0  0  0  0  0  0  0  0  0  0
    1.1636    0.9331    1.6191 C   0  0  0  0  0  0  0  0  0  0  0  0
    0.8713    1.7473    0.6246 N   0  0  0  0  0  0  0  0  0  0  0  0
   -0.5087    1.8179    0.6270 C   0  0  0  0  0  0  0  0  0  0  0  0
   -1.2026    2.6756   -0.3688 C   0  0  0  0  0  0  0  0  0  0  0  0
   -2.3309    2.0077   -1.0006 N   0  0  0  0  0  0  0  0  0  0  0  0
   -2.2905    1.0782   -2.0158 C   0  0  0  0  0  0  0  0  0  0  0  0
   -0.8089    0.4756   -2.6815 S   0  0  0  0  0  0  0  0  0  0  0  0
   -1.3961   -0.5272   -4.0705 C   0  0  0  0  0  0  0  0  0  0  0  0
   -1.5892   -1.9827   -3.7052 C   0  0  0  0  0  0  0  0  0  0  0  0
   -2.8491   -2.4604   -3.3033 C   0  0  0  0  0  0  0  0  0  0  0  0
   -3.0402   -3.8097   -3.0028 C   0  0  0  0  0  0  0  0  0  0  0  0
   -1.9719   -4.7004   -3.0866 C   0  0  0  0  0  0  0  0  0  0  0  0
   -0.7197   -4.2287   -3.4637 C   0  0  0  0  0  0  0  0  0  0  0  0
    0.3058   -5.0887   -3.5433 F   0  0  0  0  0  0  0  0  0  0  0  0
   -0.5169   -2.8843   -3.7674 C   0  0  0  0  0  0  0  0  0  0  0  0
   -3.4937    0.7259   -2.4017 N   0  0  0  0  0  0  0  0  0  0  0  0
   -4.3566    1.4563   -1.6243 C   0  0  0  0  0  0  0  0  0  0  0  0
   -5.7509    1.4708   -1.6268 C   0  0  0  0  0  0  0  0  0  0  0  0
   -6.3453    2.3325   -0.7231 C   0  0  0  0  0  0  0  0  0  0  0  0
   -5.6727    3.1312    0.1395 N   0  0  0  0  0  0  0  0  0  0  0  0
   -4.3197    3.1206    0.1381 C   0  0  0  0  0  0  0  0  0  0  0  0
   -3.6609    2.2762   -0.7446 C   0  0  0  0  0  0  0  0  0  0  0  0
   -0.9995    1.0416    1.6615 C   0  0  0  0  0  0  0  0  0  0  0  0
   -2.3365    0.7127    2.1923 C   0  0  0  0  0  0  0  0  0  0  0  0
    0.0668    0.4744    2.2994 O   0  0  0  0  0  0  0  0  0  0  0  0
    3.6035    0.7000    1.2814 C   0  0  0  0  0  0  0  0  0  0  0  0
    4.8705    0.2635    1.6884 C   0  0  0  0  0  0  0  0  0  0  0  0
    6.0170    0.4713    0.9615 O   0  0  0  0  0  0  0  0  0  0  0  0
    5.8497    0.6327   -0.4443 C   0  0  0  0  0  0  0  0  0  0  0  0
    7.6085   -1.2917    4.7373 H   0  0  0  0  0  0  0  0  0  0  0  0
    6.2620   -0.2785    5.2826 H   0  0  0  0  0  0  0  0  0  0  0  0
    6.0105   -2.0360    4.9084 H   0  0  0  0  0  0  0  0  0  0  0  0
    3.9641   -1.1384    4.6685 H   0  0  0  0  0  0  0  0  0  0  0  0
    1.7695   -0.3966    3.9337 H   0  0  0  0  0  0  0  0  0  0  0  0
   -1.5644    3.5884    0.1148 H   0  0  0  0  0  0  0  0  0  0  0  0
   -0.5186    2.9957   -1.1634 H   0  0  0  0  0  0  0  0  0  0  0  0
   -2.3101   -0.1136   -4.5171 H   0  0  0  0  0  0  0  0  0  0  0  0
   -0.6398   -0.4640   -4.8637 H   0  0  0  0  0  0  0  0  0  0  0  0
   -3.6931   -1.7778   -3.2298 H   0  0  0  0  0  0  0  0  0  0  0  0
   -4.0238   -4.1645   -2.7037 H   0  0  0  0  0  0  0  0  0  0  0  0
   -2.1058   -5.7546   -2.8633 H   0  0  0  0  0  0  0  0  0  0  0  0
    0.4758   -2.5549   -4.0621 H   0  0  0  0  0  0  0  0  0  0  0  0
   -6.3268    0.8511   -2.2948 H   0  0  0  0  0  0  0  0  0  0  0  0
   -7.4305    2.4066   -0.6673 H   0  0  0  0  0  0  0  0  0  0  0  0
   -3.8250    3.7750    0.8428 H   0  0  0  0  0  0  0  0  0  0  0  0
   -2.9221    0.1541    1.4520 H   0  0  0  0  0  0  0  0  0  0  0  0
   -2.2651    0.0950    3.0961 H   0  0  0  0  0  0  0  0  0  0  0  0
   -2.8790    1.6247    2.4566 H   0  0  0  0  0  0  0  0  0  0  0  0
    3.4752    1.2325    0.3449 H   0  0  0  0  0  0  0  0  0  0  0  0
    6.8359    0.5472   -0.9048 H   0  0  0  0  0  0  0  0  0  0  0  0
    5.2126   -0.1525   -0.8706 H   0  0  0  0  0  0  0  0  0  0  0  0
    5.4596    1.6278   -0.6830 H   0  0  0  0  0  0  0  0  0  0  0  0
  1  2  1  0
  2  3  1  0
  3  4  2  0
  4  5  1  0
  5  6  2  0
  6  7  1  0
  7  8  2  0
  8  9  1  0
  9 10  1  0
 10 11  1  0
 11 12  1  0
 12 13  1  0
 13 14  1  0
 14 15  1  0
 15 16  2  0
 16 17  1  0
 17 18  2  0
 18 19  1  0
 19 20  1  0
 19 21  2  0
 12 22  2  0
 22 23  1  0
 23 24  2  0
 24 25  1  0
 25 26  2  0
 26 27  1  0
 27 28  2  0
  9 29  2  0
 29 30  1  0
 29 31  1  0
  6 32  1  0
 32 33  2  0
 33 34  1  0
 34 35  1  0
 33  3  1  0
 31  7  1  0
 28 11  1  0
 21 15  1  0
 28 23  1  0
  1 36  1  0
  1 37  1  0
  1 38  1  0
  4 39  1  0
  5 40  1  0
 10 41  1  0
 10 42  1  0
 14 43  1  0
 14 44  1  0
 16 45  1  0
 17 46  1  0
 18 47  1  0
 21 48  1  0
 24 49  1  0
 25 50  1  0
 27 51  1  0
 30 52  1  0
 30 53  1  0
 30 54  1  0
 32 55  1  0
 35 56  1  0
 35 57  1  0
 35 58  1  0
M  END
$$$$
