
     RDKit          3D

 39 41  0  0  0  0  0  0  0  0999 V2000
   -4.7504   -2.1605   -0.7888 C   0  0  0  0  0  0  0  0  0  0  0  0
   -4.2041   -1.5868    0.5068 C   0  0  0  0  0  0  0  0  0  0  0  0
   -3.1216   -0.6428    0.2781 N   0  0  0  0  0  0  0  0  0  0  0  0
   -1.7899   -0.9776    0.3043 C   0  0  0  0  0  0  0  0  0  0  0  0
   -1.0564    0.1628    0.0588 C   0  0  0  0  0  0  0  0  0  0  0  0
    0.3701    0.2545   -0.0089 C   0  0  0  0  0  0  0  0  0  0  0  0
    1.2392   -0.7385    0.2473 C   0  0  0  0  0  0  0  0  0  0  0  0
    2.6953   -0.5836    0.1647 C   0  0  0  0  0  0  0  0  0  0  0  0
    3.3114    0.0705   -0.9012 C   0  0  0  0  0  0  0  0  0  0  0  0
    4.6977    0.1656   -0.9429 C   0  0  0  0  0  0  0  0  0  0  0  0
    5.4546   -0.3724    0.0392 N   0  0  0  0  0  4  0  0  0  0  0  0
    6.9219   -0.2655   -0.0308 C   0  0  0  0  0  0  0  0  0  0  0  0
    4.8806   -1.0309    1.0706 C   0  0  0  0  0  0  0  0  0  0  0  0
    3.4979   -1.1526    1.1514 C   0  0  0  0  0  0  0  0  0  0  0  0
   -1.9846    1.2368   -0.1240 C   0  0  0  0  0  0  0  0  0  0  0  0
   -1.8562    2.6175   -0.3977 C   0  0  0  0  0  0  0  0  0  0  0  0
   -2.9998    3.4135   -0.5217 C   0  0  0  0  0  0  0  0  0  0  0  0
   -4.2656    2.8573   -0.3781 C   0  0  0  0  0  0  0  0  0  0  0  0
   -4.4245    1.4962   -0.1062 C   0  0  0  0  0  0  0  0  0  0  0  0
   -3.2710    0.7038    0.0187 C   0  0  0  0  0  0  0  0  0  0  0  0
   -3.9677   -2.6820   -1.3499 H   0  0  0  0  0  0  0  0  0  0  0  0
   -5.1541   -1.3729   -1.4335 H   0  0  0  0  0  0  0  0  0  0  0  0
   -5.5533   -2.8738   -0.5790 H   0  0  0  0  0  0  0  0  0  0  0  0
   -3.8162   -2.3893    1.1444 H   0  0  0  0  0  0  0  0  0  0  0  0
   -4.9893   -1.0735    1.0715 H   0  0  0  0  0  0  0  0  0  0  0  0
   -1.4901   -2.0000    0.4905 H   0  0  0  0  0  0  0  0  0  0  0  0
    0.7593    1.2329   -0.2817 H   0  0  0  0  0  0  0  0  0  0  0  0
    0.8809   -1.7175    0.5573 H   0  0  0  0  0  0  0  0  0  0  0  0
    2.7215    0.4982   -1.7100 H   0  0  0  0  0  0  0  0  0  0  0  0
    5.2100    0.6649   -1.7606 H   0  0  0  0  0  0  0  0  0  0  0  0
    7.2873   -1.1355   -0.5818 H   0  0  0  0  0  0  0  0  0  0  0  0
    7.1894    0.6618   -0.5439 H   0  0  0  0  0  0  0  0  0  0  0  0
    7.3286   -0.2472    0.9836 H   0  0  0  0  0  0  0  0  0  0  0  0
    5.5352   -1.4590    1.8247 H   0  0  0  0  0  0  0  0  0  0  0  0
    3.0534   -1.6837    1.9915 H   0  0  0  0  0  0  0  0  0  0  0  0
   -0.8767    3.0704   -0.5121 H   0  0  0  0  0  0  0  0  0  0  0  0
   -2.8981    4.4754   -0.7319 H   0  0  0  0  0  0  0  0  0  0  0  0
   -5.1459    3.4888   -0.4782 H   0  0  0  0  0  0  0  0  0  0  0  0
   -5.4190    1.0747    0.0017 H   0  0  0  0  0  0  0  0  0  0  0  0
  1  2  1  0
  2  3  1  0
  3  4  1  0
  4  5  2  0
  5  6  1  0
  6  7  2  3
  7  8  1  0
  8  9  2  0
  9 10  1  0
 10 11  2  0
 11 12  1  0
 11 13  1  0
 13 14  2  0
  5 15  1  0
 15 16  2  0
 16 17  1  0
 17 18  2  0
 18 19  1  0
 19 20  2  0
 20  3  1  0
 14  8  1  0
 20 15  1  0
  1 21  1  0
  1 22  1  0
  1 23  1  0
  2 24  1  0
  2 25  1  0
  4 26  1  0
  6 27  1  0
  7 28  1  0
  9 29  1  0
 10 30  1  0
 12 31  1  0
 12 32  1  0
 12 33  1  0
 13 34  1  0
 14 35  1  0
 16 36  1  0
 17 37  1  0
 18 38  1  0
 19 39  1  0
M  CHG  1  11   1
M  END
$$$$
