
     RDKit          3D

 54 56  0  0  0  0  0  0  0  0999 V2000
    8.7447   -1.4846   -0.5306 C   0  0  0  0  0  0  0  0  0  0  0  0
    7.5335   -1.8820   -1.1618 O   0  0  0  0  0  0  0  0  0  0  0  0
    6.5044   -0.9815   -1.1463 C   0  0  0  0  0  0  0  0  0  0  0  0
    6.5480    0.3066   -0.6137 C   0  0  0  0  0  0  0  0  0  0  0  0
    5.4155    1.1282   -0.6632 C   0  0  0  0  0  0  0  0  0  0  0  0
    4.2250    0.6728   -1.2442 C   0  0  0  0  0  0  0  0  0  0  0  0
    3.0034    1.5568   -1.2841 C   0  0  0  0  0  0  0  0  0  0  0  0
    1.8528    1.0636   -0.4004 C   0  0  0  0  0  0  0  0  0  0  0  0
    2.2091    1.0542    1.0882 C   0  0  0  0  0  0  0  0  0  0  0  0
    1.0299    0.7050    1.9132 C   0  0  0  0  0  0  0  0  0  0  0  0
    0.6063   -0.4714    2.3200 N   0  0  0  0  0  0  0  0  0  0  0  0
   -0.5436   -0.2354    3.0442 N   0  0  0  0  0  0  0  0  0  0  0  0
   -0.7425    1.0655    3.0283 C   0  0  0  0  0  0  0  0  0  0  0  0
   -2.0747    1.8846    3.7835 S   0  0  0  0  0  0  0  0  0  0  0  0
   -3.1727    0.4825    4.1458 C   0  0  0  0  0  0  0  0  0  0  0  0
   -3.7632   -0.1903    2.9098 C   0  0  0  0  0  0  0  0  0  0  0  0
   -4.1340   -1.3608    2.9746 O   0  0  0  0  0  0  0  0  0  0  0  0
   -3.9135    0.6397    1.8153 N   0  0  0  0  0  0  0  0  0  0  0  0
   -4.4245    0.3338    0.5330 C   0  0  0  0  0  0  0  0  0  0  0  0
   -4.9114   -0.9282    0.1828 C   0  0  0  0  0  0  0  0  0  0  0  0
   -5.4123   -1.1912   -1.1081 C   0  0  0  0  0  0  0  0  0  0  0  0
   -5.9294   -2.5706   -1.4216 C   0  0  0  0  0  0  0  0  0  0  0  0
   -5.4404   -0.1613   -2.0674 C   0  0  0  0  0  0  0  0  0  0  0  0
   -5.9676   -0.3942   -3.4569 C   0  0  0  0  0  0  0  0  0  0  0  0
   -4.9423    1.1033   -1.7238 C   0  0  0  0  0  0  0  0  0  0  0  0
   -4.4415    1.3456   -0.4412 C   0  0  0  0  0  0  0  0  0  0  0  0
   -3.7772    3.0914   -0.0682 Br  0  0  0  0  0  0  0  0  0  0  0  0
    0.2258    1.7323    2.3247 O   0  0  0  0  0  0  0  0  0  0  0  0
    4.1899   -0.6177   -1.7844 C   0  0  0  0  0  0  0  0  0  0  0  0
    5.3216   -1.4351   -1.7335 C   0  0  0  0  0  0  0  0  0  0  0  0
    9.4499   -2.3180   -0.6053 H   0  0  0  0  0  0  0  0  0  0  0  0
    8.5875   -1.2763    0.5332 H   0  0  0  0  0  0  0  0  0  0  0  0
    9.1905   -0.6245   -1.0412 H   0  0  0  0  0  0  0  0  0  0  0  0
    7.4465    0.7060   -0.1556 H   0  0  0  0  0  0  0  0  0  0  0  0
    5.4748    2.1295   -0.2418 H   0  0  0  0  0  0  0  0  0  0  0  0
    2.6591    1.6203   -2.3243 H   0  0  0  0  0  0  0  0  0  0  0  0
    3.2702    2.5815   -0.9953 H   0  0  0  0  0  0  0  0  0  0  0  0
    0.9897    1.7231   -0.5650 H   0  0  0  0  0  0  0  0  0  0  0  0
    1.5343    0.0598   -0.7112 H   0  0  0  0  0  0  0  0  0  0  0  0
    3.0046    0.3270    1.2875 H   0  0  0  0  0  0  0  0  0  0  0  0
    2.5888    2.0377    1.3909 H   0  0  0  0  0  0  0  0  0  0  0  0
   -4.0084    0.8513    4.7492 H   0  0  0  0  0  0  0  0  0  0  0  0
   -2.6320   -0.2638    4.7367 H   0  0  0  0  0  0  0  0  0  0  0  0
   -3.5843    1.5944    1.9261 H   0  0  0  0  0  0  0  0  0  0  0  0
   -4.9107   -1.7418    0.9036 H   0  0  0  0  0  0  0  0  0  0  0  0
   -5.4590   -2.9595   -2.3308 H   0  0  0  0  0  0  0  0  0  0  0  0
   -5.7064   -3.2781   -0.6152 H   0  0  0  0  0  0  0  0  0  0  0  0
   -7.0160   -2.5442   -1.5542 H   0  0  0  0  0  0  0  0  0  0  0  0
   -6.0363    0.5412   -4.0234 H   0  0  0  0  0  0  0  0  0  0  0  0
   -5.3040   -1.0716   -4.0032 H   0  0  0  0  0  0  0  0  0  0  0  0
   -6.9746   -0.8225   -3.4185 H   0  0  0  0  0  0  0  0  0  0  0  0
   -4.9464    1.9031   -2.4613 H   0  0  0  0  0  0  0  0  0  0  0  0
    3.2832   -0.9991   -2.2499 H   0  0  0  0  0  0  0  0  0  0  0  0
    5.2801   -2.4368   -2.1554 H   0  0  0  0  0  0  0  0  0  0  0  0
  1  2  1  0
  2  3  1  0
  3  4  2  0
  4  5  1  0
  5  6  2  0
  6  7  1  0
  7  8  1  0
  8  9  1  0
  9 10  1  0
 10 11  2  0
 11 12  1  0
 12 13  2  0
 13 14  1  0
 14 15  1  0
 15 16  1  0
 16 17  2  0
 16 18  1  0
 18 19  1  0
 19 20  2  0
 20 21  1  0
 21 22  1  0
 21 23  2  0
 23 24  1  0
 23 25  1  0
 25 26  2  0
 26 27  1  0
 13 28  1  0
  6 29  1  0
 29 30  2  0
 30  3  1  0
 28 10  1  0
 26 19  1  0
  1 31  1  0
  1 32  1  0
  1 33  1  0
  4 34  1  0
  5 35  1  0
  7 36  1  0
  7 37  1  0
  8 38  1  0
  8 39  1  0
  9 40  1  0
  9 41  1  0
 15 42  1  0
 15 43  1  0
 18 44  1  0
 20 45  1  0
 22 46  1  0
 22 47  1  0
 22 48  1  0
 24 49  1  0
 24 50  1  0
 24 51  1  0
 25 52  1  0
 29 53  1  0
 30 54  1  0
M  END
$$$$
