
     RDKit          3D

 46 49  0  0  0  0  0  0  0  0999 V2000
    4.4221    0.7446    0.7910 O   0  0  0  0  0  0  0  0  0  0  0  0
    3.7290   -0.2122    1.1089 C   0  0  0  0  0  0  0  0  0  0  0  0
    3.9303   -1.5733    0.4514 C   0  0  0  0  0  0  0  0  0  0  0  0
    2.9205   -1.6759   -1.0659 S   0  0  0  0  0  0  0  0  0  0  0  0
    1.3465   -1.5743   -0.3667 C   0  0  0  0  0  0  0  0  0  0  0  0
    0.9767   -2.2218    0.7127 N   0  0  0  0  0  0  0  0  0  0  0  0
   -0.2449   -1.7393    1.0885 N   0  0  0  0  0  0  0  0  0  0  0  0
   -0.6023   -0.7981    0.2343 C   0  0  0  0  0  0  0  0  0  0  0  0
   -1.8528    0.0158    0.3193 C   0  0  0  0  0  0  0  0  0  0  0  0
   -2.9503   -0.4452   -0.5988 C   0  0  0  0  0  0  0  0  0  0  0  0
   -3.1334   -1.6715   -1.2187 C   0  0  0  0  0  0  0  0  0  0  0  0
   -4.3009   -1.6944   -2.0331 C   0  0  0  0  0  0  0  0  0  0  0  0
   -4.9802   -0.5020   -1.9984 C   0  0  0  0  0  0  0  0  0  0  0  0
   -4.2176    0.6408   -0.9849 S   0  0  0  0  0  0  0  0  0  0  0  0
    0.3897   -0.6617   -0.7160 N   0  0  0  0  0  0  0  0  0  0  0  0
    0.4683    0.3420   -1.7574 C   0  0  0  0  0  0  0  0  0  0  0  0
   -0.3146   -0.0402   -2.9571 C   0  0  0  0  0  0  0  0  0  0  0  0
   -1.3103    0.5937   -3.6723 C   0  0  0  0  0  0  0  0  0  0  0  0
   -1.6454   -0.2694   -4.7429 C   0  0  0  0  0  0  0  0  0  0  0  0
   -0.8213   -1.3642   -4.6239 C   0  0  0  0  0  0  0  0  0  0  0  0
   -0.0111   -1.2339   -3.5432 O   0  0  0  0  0  0  0  0  0  0  0  0
    2.6826   -0.1889    2.0176 N   0  0  0  0  0  0  0  0  0  0  0  0
    2.1308    0.9325    2.6683 C   0  0  0  0  0  0  0  0  0  0  0  0
    2.6646    2.2217    2.5971 C   0  0  0  0  0  0  0  0  0  0  0  0
    2.0290    3.2886    3.2379 C   0  0  0  0  0  0  0  0  0  0  0  0
    0.8496    3.0784    3.9513 C   0  0  0  0  0  0  0  0  0  0  0  0
    0.3197    1.7935    4.0329 C   0  0  0  0  0  0  0  0  0  0  0  0
   -1.1456    1.5276    4.8950 Cl  0  0  0  0  0  0  0  0  0  0  0  0
    0.9587    0.7232    3.4055 C   0  0  0  0  0  0  0  0  0  0  0  0
    4.9879   -1.6848    0.1928 H   0  0  0  0  0  0  0  0  0  0  0  0
    3.6748   -2.3819    1.1417 H   0  0  0  0  0  0  0  0  0  0  0  0
   -2.2258   -0.0186    1.3552 H   0  0  0  0  0  0  0  0  0  0  0  0
   -1.6118    1.0682    0.1236 H   0  0  0  0  0  0  0  0  0  0  0  0
   -2.4528   -2.5060   -1.1117 H   0  0  0  0  0  0  0  0  0  0  0  0
   -4.6230   -2.5484   -2.6147 H   0  0  0  0  0  0  0  0  0  0  0  0
   -5.8903   -0.2468   -2.5214 H   0  0  0  0  0  0  0  0  0  0  0  0
    1.5135    0.5083   -2.0307 H   0  0  0  0  0  0  0  0  0  0  0  0
    0.1118    1.2900   -1.3404 H   0  0  0  0  0  0  0  0  0  0  0  0
   -1.7452    1.5569   -3.4482 H   0  0  0  0  0  0  0  0  0  0  0  0
   -2.3821   -0.1096   -5.5173 H   0  0  0  0  0  0  0  0  0  0  0  0
   -0.6967   -2.2718   -5.1951 H   0  0  0  0  0  0  0  0  0  0  0  0
    2.1454   -1.0538    2.0998 H   0  0  0  0  0  0  0  0  0  0  0  0
    3.5726    2.4342    2.0411 H   0  0  0  0  0  0  0  0  0  0  0  0
    2.4530    4.2886    3.1702 H   0  0  0  0  0  0  0  0  0  0  0  0
    0.3579    3.9117    4.4458 H   0  0  0  0  0  0  0  0  0  0  0  0
    0.5232   -0.2719    3.4788 H   0  0  0  0  0  0  0  0  0  0  0  0
  1  2  2  0
  2  3  1  0
  3  4  1  0
  4  5  1  0
  5  6  2  0
  6  7  1  0
  7  8  2  0
  8  9  1  0
  9 10  1  0
 10 11  2  0
 11 12  1  0
 12 13  2  0
 13 14  1  0
  8 15  1  0
 15 16  1  0
 16 17  1  0
 17 18  2  0
 18 19  1  0
 19 20  2  0
 20 21  1  0
  2 22  1  0
 22 23  1  0
 23 24  2  0
 24 25  1  0
 25 26  2  0
 26 27  1  0
 27 28  1  0
 27 29  2  0
 15  5  1  0
 21 17  1  0
 29 23  1  0
 14 10  1  0
  3 30  1  0
  3 31  1  0
  9 32  1  0
  9 33  1  0
 11 34  1  0
 12 35  1  0
 13 36  1  0
 16 37  1  0
 16 38  1  0
 18 39  1  0
 19 40  1  0
 20 41  1  0
 22 42  1  0
 24 43  1  0
 25 44  1  0
 26 45  1  0
 29 46  1  0
M  END
$$$$
