
     RDKit          3D

 37 39  0  0  0  0  0  0  0  0999 V2000
   -6.6658    2.0247   -0.5780 C   0  0  0  0  0  0  0  0  0  0  0  0
   -5.3876    2.4811    0.1076 C   0  0  0  0  0  0  0  0  0  0  0  0
   -4.2239    1.6327   -0.2829 C   0  0  0  0  0  0  0  0  0  0  0  0
   -3.4834    1.8225   -1.3553 N   0  0  0  0  0  0  0  0  0  0  0  0
   -2.4779    0.8821   -1.4593 N   0  0  0  0  0  0  0  0  0  0  0  0
   -2.4952    0.0229   -0.4645 C   0  0  0  0  0  0  0  0  0  0  0  0
   -1.5897   -1.0005   -0.3679 N   0  0  0  0  0  0  0  0  0  0  0  0
   -1.4832   -1.9306    0.6405 C   0  0  0  0  0  0  0  0  0  0  0  0
   -2.1909   -2.0286    1.6383 O   0  0  0  0  0  0  0  0  0  0  0  0
   -0.3566   -2.9393    0.3868 C   0  0  0  0  0  0  0  0  0  0  0  0
    0.6806   -2.4660   -0.4633 O   0  0  0  0  0  0  0  0  0  0  0  0
    1.6480   -1.6686    0.0863 C   0  0  0  0  0  0  0  0  0  0  0  0
    1.6606   -1.1649    1.3850 C   0  0  0  0  0  0  0  0  0  0  0  0
    2.7111   -0.3426    1.8076 C   0  0  0  0  0  0  0  0  0  0  0  0
    3.7622   -0.0095    0.9402 C   0  0  0  0  0  0  0  0  0  0  0  0
    4.8217    0.8150    1.3523 C   0  0  0  0  0  0  0  0  0  0  0  0
    5.8579    1.1362    0.4741 C   0  0  0  0  0  0  0  0  0  0  0  0
    5.8477    0.6381   -0.8254 C   0  0  0  0  0  0  0  0  0  0  0  0
    4.8013   -0.1824   -1.2496 C   0  0  0  0  0  0  0  0  0  0  0  0
    3.7514   -0.5151   -0.3778 C   0  0  0  0  0  0  0  0  0  0  0  0
    2.6895   -1.3388   -0.7866 C   0  0  0  0  0  0  0  0  0  0  0  0
   -3.7374    0.2890    0.6695 S   0  0  0  0  0  0  0  0  0  0  0  0
   -6.5646    2.0582   -1.6682 H   0  0  0  0  0  0  0  0  0  0  0  0
   -7.5005    2.6736   -0.2944 H   0  0  0  0  0  0  0  0  0  0  0  0
   -6.9233    0.9980   -0.2965 H   0  0  0  0  0  0  0  0  0  0  0  0
   -5.5298    2.4726    1.1946 H   0  0  0  0  0  0  0  0  0  0  0  0
   -5.1796    3.5204   -0.1732 H   0  0  0  0  0  0  0  0  0  0  0  0
   -0.8951   -1.0127   -1.1064 H   0  0  0  0  0  0  0  0  0  0  0  0
   -0.8171   -3.7949   -0.1209 H   0  0  0  0  0  0  0  0  0  0  0  0
    0.0401   -3.3157    1.3368 H   0  0  0  0  0  0  0  0  0  0  0  0
    0.8749   -1.3795    2.1023 H   0  0  0  0  0  0  0  0  0  0  0  0
    2.7002    0.0399    2.8264 H   0  0  0  0  0  0  0  0  0  0  0  0
    4.8470    1.2146    2.3636 H   0  0  0  0  0  0  0  0  0  0  0  0
    6.6718    1.7758    0.8054 H   0  0  0  0  0  0  0  0  0  0  0  0
    6.6536    0.8880   -1.5106 H   0  0  0  0  0  0  0  0  0  0  0  0
    4.8108   -0.5613   -2.2692 H   0  0  0  0  0  0  0  0  0  0  0  0
    2.6711   -1.7341   -1.8003 H   0  0  0  0  0  0  0  0  0  0  0  0
  1  2  1  0
  2  3  1  0
  3  4  2  0
  4  5  1  0
  5  6  2  0
  6  7  1  0
  7  8  1  0
  8  9  2  0
  8 10  1  0
 10 11  1  0
 11 12  1  0
 12 13  2  0
 13 14  1  0
 14 15  2  0
 15 16  1  0
 16 17  2  0
 17 18  1  0
 18 19  2  0
 19 20  1  0
 20 21  2  0
  6 22  1  0
 22  3  1  0
 21 12  1  0
 20 15  1  0
  1 23  1  0
  1 24  1  0
  1 25  1  0
  2 26  1  0
  2 27  1  0
  7 28  1  0
 10 29  1  0
 10 30  1  0
 13 31  1  0
 14 32  1  0
 16 33  1  0
 17 34  1  0
 18 35  1  0
 19 36  1  0
 21 37  1  0
M  END
$$$$
