
     RDKit          3D

 44 47  0  0  0  0  0  0  0  0999 V2000
   -4.1469    5.2888   -2.0935 N   0  0  0  0  0  0  0  0  0  0  0  0
   -4.5568    4.0314   -1.8453 C   0  0  0  0  0  0  0  0  0  0  0  0
   -5.8279    3.6339   -1.8810 N   0  0  0  0  0  0  0  0  0  0  0  0
   -5.8057    2.2838   -1.5490 O   0  0  0  0  0  0  0  0  0  0  0  0
   -4.5042    1.8405   -1.3190 N   0  0  0  0  0  0  0  0  0  0  0  0
   -3.7528    2.9249   -1.5102 C   0  0  0  0  0  0  0  0  0  0  0  0
   -2.3424    2.8771   -1.3741 N   0  0  0  0  0  0  0  0  0  0  0  0
   -1.5742    3.9844   -1.5860 N   0  0  0  0  0  0  0  0  0  0  0  0
   -0.3038    3.6834   -1.3806 N   0  0  0  0  0  0  0  0  0  0  0  0
   -0.2300    2.3733   -1.0083 C   0  0  0  0  0  0  0  0  0  0  0  0
    1.0379    1.7182   -0.6947 C   0  0  0  0  0  0  0  0  0  0  0  0
    2.0090    1.8229   -1.4358 O   0  0  0  0  0  0  0  0  0  0  0  0
    0.9874    0.9810    0.4875 N   0  0  0  0  0  0  0  0  0  0  0  0
    1.8838    0.0308    0.9002 N   0  0  0  0  0  0  0  0  0  0  0  0
    3.1277    0.1414    0.5617 C   0  0  0  0  0  0  0  0  0  0  0  0
    4.1193   -0.8908    0.9342 C   0  0  0  0  0  0  0  0  0  0  0  0
    3.8263   -2.2632    0.8722 C   0  0  0  0  0  0  0  0  0  0  0  0
    2.3218   -2.9006    0.2984 Cl  0  0  0  0  0  0  0  0  0  0  0  0
    4.7981   -3.2055    1.2358 C   0  0  0  0  0  0  0  0  0  0  0  0
    6.0615   -2.7939    1.6546 C   0  0  0  0  0  0  0  0  0  0  0  0
    6.3612   -1.4352    1.7086 C   0  0  0  0  0  0  0  0  0  0  0  0
    5.3980   -0.4849    1.3493 C   0  0  0  0  0  0  0  0  0  0  0  0
    5.8561    1.1788    1.4865 Cl  0  0  0  0  0  0  0  0  0  0  0  0
   -1.5027    1.8149   -1.0415 C   0  0  0  0  0  0  0  0  0  0  0  0
   -1.9208    0.4011   -0.8382 C   0  0  0  0  0  0  0  0  0  0  0  0
   -2.2598    0.1051    0.9178 S   0  0  0  0  0  0  0  0  0  0  0  0
   -2.3175   -1.6263    0.9133 C   0  0  0  0  0  0  0  0  0  0  0  0
   -2.3643   -2.3374   -0.1620 N   0  0  0  0  0  0  0  0  0  0  0  0
   -2.4388   -3.7651    0.2158 C   0  0  0  0  0  0  0  0  0  0  0  0
   -1.8346   -3.9711    1.5965 C   0  0  0  0  0  0  0  0  0  0  0  0
   -2.2711   -2.4448    2.4462 S   0  0  0  0  0  0  0  0  0  0  0  0
   -3.1610    5.5153   -2.2177 H   0  0  0  0  0  0  0  0  0  0  0  0
   -4.7927    5.9556   -2.5025 H   0  0  0  0  0  0  0  0  0  0  0  0
    0.0947    0.9152    0.9708 H   0  0  0  0  0  0  0  0  0  0  0  0
    3.5262    1.0238    0.0364 H   0  0  0  0  0  0  0  0  0  0  0  0
    4.5758   -4.2699    1.1849 H   0  0  0  0  0  0  0  0  0  0  0  0
    6.8112   -3.5307    1.9345 H   0  0  0  0  0  0  0  0  0  0  0  0
    7.3494   -1.1192    2.0379 H   0  0  0  0  0  0  0  0  0  0  0  0
   -1.0954   -0.2482   -1.1546 H   0  0  0  0  0  0  0  0  0  0  0  0
   -2.7766    0.1186   -1.4552 H   0  0  0  0  0  0  0  0  0  0  0  0
   -1.8996   -4.3680   -0.5228 H   0  0  0  0  0  0  0  0  0  0  0  0
   -3.4883   -4.0845    0.1918 H   0  0  0  0  0  0  0  0  0  0  0  0
   -0.7444   -4.0483    1.5385 H   0  0  0  0  0  0  0  0  0  0  0  0
   -2.2331   -4.8563    2.0986 H   0  0  0  0  0  0  0  0  0  0  0  0
  1  2  1  0
  2  3  2  0
  3  4  1  0
  4  5  1  0
  5  6  2  0
  6  7  1  0
  7  8  1  0
  8  9  2  0
  9 10  1  0
 10 11  1  0
 11 12  2  0
 11 13  1  0
 13 14  1  0
 14 15  2  3
 15 16  1  0
 16 17  2  0
 17 18  1  0
 17 19  1  0
 19 20  2  0
 20 21  1  0
 21 22  2  0
 22 23  1  0
 10 24  2  0
 24 25  1  0
 25 26  1  0
 26 27  1  0
 27 28  2  0
 28 29  1  0
 29 30  1  0
 30 31  1  0
  6  2  1  0
 24  7  1  0
 31 27  1  0
 22 16  1  0
  1 32  1  0
  1 33  1  0
 13 34  1  0
 15 35  1  0
 19 36  1  0
 20 37  1  0
 21 38  1  0
 25 39  1  0
 25 40  1  0
 29 41  1  0
 29 42  1  0
 30 43  1  0
 30 44  1  0
M  END
$$$$
