
     RDKit          3D

 54 57  0  0  0  0  0  0  0  0999 V2000
    7.7264    1.2914    0.6201 C   0  0  0  0  0  0  0  0  0  0  0  0
    6.3506    1.5443    1.2416 C   0  0  0  0  0  0  0  0  0  0  0  0
    6.4184    1.4620    2.7685 C   0  0  0  0  0  0  0  0  0  0  0  0
    5.3021    0.6023    0.6780 C   0  0  0  0  0  0  0  0  0  0  0  0
    5.3927   -0.7861    0.8425 C   0  0  0  0  0  0  0  0  0  0  0  0
    4.4155   -1.6407    0.3170 C   0  0  0  0  0  0  0  0  0  0  0  0
    3.3278   -1.1248   -0.3845 C   0  0  0  0  0  0  0  0  0  0  0  0
    2.3035   -1.9132   -0.9425 N   0  0  0  0  0  0  0  0  0  0  0  0
    2.1807   -3.2929   -0.9185 C   0  0  0  0  0  0  0  0  0  0  0  0
    2.9817   -4.0925   -0.4439 O   0  0  0  0  0  0  0  0  0  0  0  0
    0.9256   -3.7833   -1.6501 C   0  0  0  0  0  0  0  0  0  0  0  0
   -0.1055   -2.7971   -1.7771 O   0  0  0  0  0  0  0  0  0  0  0  0
   -0.9187   -2.6901   -0.6967 C   0  0  0  0  0  0  0  0  0  0  0  0
   -0.8127   -3.3153    0.3434 O   0  0  0  0  0  0  0  0  0  0  0  0
   -1.9708   -1.6644   -0.9310 C   0  0  0  0  0  0  0  0  0  0  0  0
   -2.1501   -1.0384   -2.1698 C   0  0  0  0  0  0  0  0  0  0  0  0
   -3.1570   -0.0785   -2.3345 C   0  0  0  0  0  0  0  0  0  0  0  0
   -4.0036    0.2732   -1.2699 C   0  0  0  0  0  0  0  0  0  0  0  0
   -3.8157   -0.3569   -0.0488 C   0  0  0  0  0  0  0  0  0  0  0  0
   -2.8118   -1.3211    0.1332 C   0  0  0  0  0  0  0  0  0  0  0  0
   -4.8336    0.0367    1.3178 S   0  0  0  0  0  6  0  0  0  0  0  0
   -5.5642   -1.1724    1.6387 O   0  0  0  0  0  0  0  0  0  0  0  0
   -3.9771    0.6979    2.2810 O   0  0  0  0  0  0  0  0  0  0  0  0
   -6.0222    1.2164    0.8179 C   0  0  0  0  0  0  0  0  0  0  0  0
   -6.9670    1.6409    1.7626 C   0  0  0  0  0  0  0  0  0  0  0  0
   -7.9283    2.5818    1.4020 C   0  0  0  0  0  0  0  0  0  0  0  0
   -7.9428    3.0928    0.1065 C   0  0  0  0  0  0  0  0  0  0  0  0
   -6.9960    2.6617   -0.8274 C   0  0  0  0  0  0  0  0  0  0  0  0
   -6.0214    1.7126   -0.4783 C   0  0  0  0  0  0  0  0  0  0  0  0
   -5.0477    1.2959   -1.5143 C   0  0  0  0  0  0  0  0  0  0  0  0
   -5.1061    1.8158   -2.6256 O   0  0  0  0  0  0  0  0  0  0  0  0
    3.2307    0.2611   -0.5509 C   0  0  0  0  0  0  0  0  0  0  0  0
    4.2064    1.1156   -0.0264 C   0  0  0  0  0  0  0  0  0  0  0  0
    8.1149    0.2991    0.8738 H   0  0  0  0  0  0  0  0  0  0  0  0
    8.4509    2.0325    0.9750 H   0  0  0  0  0  0  0  0  0  0  0  0
    7.6815    1.3630   -0.4724 H   0  0  0  0  0  0  0  0  0  0  0  0
    6.0670    2.5742    0.9871 H   0  0  0  0  0  0  0  0  0  0  0  0
    5.4365    1.6550    3.2150 H   0  0  0  0  0  0  0  0  0  0  0  0
    7.1182    2.2065    3.1633 H   0  0  0  0  0  0  0  0  0  0  0  0
    6.7530    0.4769    3.1115 H   0  0  0  0  0  0  0  0  0  0  0  0
    6.2268   -1.2255    1.3856 H   0  0  0  0  0  0  0  0  0  0  0  0
    4.5368   -2.7070    0.4799 H   0  0  0  0  0  0  0  0  0  0  0  0
    1.5589   -1.4158   -1.4151 H   0  0  0  0  0  0  0  0  0  0  0  0
    1.2292   -4.0630   -2.6645 H   0  0  0  0  0  0  0  0  0  0  0  0
    0.5464   -4.6870   -1.1586 H   0  0  0  0  0  0  0  0  0  0  0  0
   -1.5231   -1.2873   -3.0235 H   0  0  0  0  0  0  0  0  0  0  0  0
   -3.2775    0.3933   -3.3106 H   0  0  0  0  0  0  0  0  0  0  0  0
   -2.6883   -1.8008    1.1054 H   0  0  0  0  0  0  0  0  0  0  0  0
   -6.9546    1.2414    2.7757 H   0  0  0  0  0  0  0  0  0  0  0  0
   -8.6649    2.9169    2.1292 H   0  0  0  0  0  0  0  0  0  0  0  0
   -8.6913    3.8286   -0.1805 H   0  0  0  0  0  0  0  0  0  0  0  0
   -7.0270    3.0753   -1.8352 H   0  0  0  0  0  0  0  0  0  0  0  0
    2.3962    0.7007   -1.0902 H   0  0  0  0  0  0  0  0  0  0  0  0
    4.1006    2.1883   -0.1731 H   0  0  0  0  0  0  0  0  0  0  0  0
  1  2  1  0
  2  3  1  0
  2  4  1  0
  4  5  2  0
  5  6  1  0
  6  7  2  0
  7  8  1  0
  8  9  1  0
  9 10  2  0
  9 11  1  0
 11 12  1  0
 12 13  1  0
 13 14  2  0
 13 15  1  0
 15 16  2  0
 16 17  1  0
 17 18  2  0
 18 19  1  0
 19 20  2  0
 19 21  1  0
 21 22  2  0
 21 23  2  0
 21 24  1  0
 24 25  2  0
 25 26  1  0
 26 27  2  0
 27 28  1  0
 28 29  2  0
 29 30  1  0
 30 31  2  0
  7 32  1  0
 32 33  2  0
 33  4  1  0
 20 15  1  0
 29 24  1  0
 30 18  1  0
  1 34  1  0
  1 35  1  0
  1 36  1  0
  2 37  1  0
  3 38  1  0
  3 39  1  0
  3 40  1  0
  5 41  1  0
  6 42  1  0
  8 43  1  0
 11 44  1  0
 11 45  1  0
 16 46  1  0
 17 47  1  0
 20 48  1  0
 25 49  1  0
 26 50  1  0
 27 51  1  0
 28 52  1  0
 32 53  1  0
 33 54  1  0
M  END
$$$$
