
     RDKit          3D

 60 63  0  0  0  0  0  0  0  0999 V2000
   -2.6896    6.1471    2.1082 C   0  0  0  0  0  0  0  0  0  0  0  0
   -3.3595    5.1789    2.7484 C   0  0  0  0  0  0  0  0  0  0  0  0
   -2.7537    3.8909    3.2194 C   0  0  0  0  0  0  0  0  0  0  0  0
   -3.3635    2.7878    2.4949 N   0  0  0  0  0  0  0  0  0  0  0  0
   -4.5584    2.2488    2.9562 C   0  0  0  0  0  0  0  0  0  0  0  0
   -5.1308    2.6414    3.9720 O   0  0  0  0  0  0  0  0  0  0  0  0
   -5.1848    1.1588    2.1551 C   0  0  0  0  0  0  0  0  0  0  0  0
   -6.4279    0.6571    2.5718 C   0  0  0  0  0  0  0  0  0  0  0  0
   -7.0711   -0.3284    1.8283 C   0  0  0  0  0  0  0  0  0  0  0  0
   -6.4800   -0.8072    0.6623 C   0  0  0  0  0  0  0  0  0  0  0  0
   -5.2394   -0.3166    0.2388 C   0  0  0  0  0  0  0  0  0  0  0  0
   -4.5761    0.6564    0.9940 C   0  0  0  0  0  0  0  0  0  0  0  0
   -3.3260    1.2097    0.6460 N   0  0  0  0  0  0  0  0  0  0  0  0
   -2.3872    0.9440   -0.3307 C   0  0  0  0  0  0  0  0  0  0  0  0
   -2.3433   -0.3939   -1.4288 S   0  0  0  0  0  0  0  0  0  0  0  0
   -1.8353   -1.7325   -0.3146 C   0  0  0  0  0  0  0  0  0  0  0  0
   -0.5186   -1.4185    0.3751 C   0  0  0  0  0  0  0  0  0  0  0  0
   -0.5195   -1.0827    1.5574 O   0  0  0  0  0  0  0  0  0  0  0  0
    0.5674   -1.5990   -0.4595 N   0  0  0  0  0  0  0  0  0  0  0  0
    1.9086   -1.3810   -0.1773 C   0  0  0  0  0  0  0  0  0  0  0  0
    2.3931   -0.6746    1.2767 S   0  0  0  0  0  0  0  0  0  0  0  0
    4.0393   -0.7258    0.8505 C   0  0  0  0  0  0  0  0  0  0  0  0
    5.0492   -0.1921    1.8155 C   0  0  0  0  0  0  0  0  0  0  0  0
    4.2455   -1.3038   -0.3958 C   0  0  0  0  0  0  0  0  0  0  0  0
    5.6194   -1.4958   -0.9937 C   0  0  0  0  0  0  0  0  0  0  0  0
    5.9854   -0.4010   -1.9848 C   0  0  0  0  0  0  0  0  0  0  0  0
    2.9770   -1.6814   -1.0166 C   0  0  0  0  0  0  0  0  0  0  0  0
    2.7405   -2.3082   -2.3259 C   0  0  0  0  0  0  0  0  0  0  0  0
    1.6137   -2.5462   -2.7497 O   0  0  0  0  0  0  0  0  0  0  0  0
    3.8782   -2.6098   -3.0121 O   0  0  0  0  0  0  0  0  0  0  0  0
    3.6601   -3.2437   -4.2770 C   0  0  0  0  0  0  0  0  0  0  0  0
    5.0129   -3.5529   -4.8889 C   0  0  0  0  0  0  0  0  0  0  0  0
   -1.4299    1.8423   -0.2900 N   0  0  0  0  0  0  0  0  0  0  0  0
   -1.6744    2.6692    0.7722 N   0  0  0  0  0  0  0  0  0  0  0  0
   -2.7823    2.2661    1.3525 C   0  0  0  0  0  0  0  0  0  0  0  0
   -3.1931    7.0575    1.8061 H   0  0  0  0  0  0  0  0  0  0  0  0
   -1.6346    6.0504    1.8664 H   0  0  0  0  0  0  0  0  0  0  0  0
   -4.4156    5.3224    2.9663 H   0  0  0  0  0  0  0  0  0  0  0  0
   -2.9446    3.7787    4.2921 H   0  0  0  0  0  0  0  0  0  0  0  0
   -1.6677    3.8730    3.0858 H   0  0  0  0  0  0  0  0  0  0  0  0
   -6.9036    1.0427    3.4743 H   0  0  0  0  0  0  0  0  0  0  0  0
   -8.0372   -0.7092    2.1528 H   0  0  0  0  0  0  0  0  0  0  0  0
   -6.9921   -1.5610    0.0688 H   0  0  0  0  0  0  0  0  0  0  0  0
   -4.8580   -0.7060   -0.6981 H   0  0  0  0  0  0  0  0  0  0  0  0
   -1.7361   -2.6578   -0.8910 H   0  0  0  0  0  0  0  0  0  0  0  0
   -2.6043   -1.9086    0.4458 H   0  0  0  0  0  0  0  0  0  0  0  0
    0.3846   -1.9448   -1.4012 H   0  0  0  0  0  0  0  0  0  0  0  0
    5.8272    0.3559    1.2885 H   0  0  0  0  0  0  0  0  0  0  0  0
    5.5230   -1.0212    2.3587 H   0  0  0  0  0  0  0  0  0  0  0  0
    4.6077    0.4889    2.5518 H   0  0  0  0  0  0  0  0  0  0  0  0
    5.6955   -2.4799   -1.4644 H   0  0  0  0  0  0  0  0  0  0  0  0
    6.3727   -1.5062   -0.1956 H   0  0  0  0  0  0  0  0  0  0  0  0
    5.2853   -0.3609   -2.8252 H   0  0  0  0  0  0  0  0  0  0  0  0
    5.9827    0.5820   -1.5031 H   0  0  0  0  0  0  0  0  0  0  0  0
    6.9869   -0.5785   -2.3876 H   0  0  0  0  0  0  0  0  0  0  0  0
    3.0979   -4.1718   -4.1315 H   0  0  0  0  0  0  0  0  0  0  0  0
    3.0966   -2.5715   -4.9396 H   0  0  0  0  0  0  0  0  0  0  0  0
    5.5735   -2.6306   -5.0642 H   0  0  0  0  0  0  0  0  0  0  0  0
    4.8990   -4.0784   -5.8402 H   0  0  0  0  0  0  0  0  0  0  0  0
    5.6149   -4.1682   -4.2109 H   0  0  0  0  0  0  0  0  0  0  0  0
  1  2  2  0
  2  3  1  0
  3  4  1  0
  4  5  1  0
  5  6  2  0
  5  7  1  0
  7  8  2  0
  8  9  1  0
  9 10  2  0
 10 11  1  0
 11 12  2  0
 12 13  1  0
 13 14  1  0
 14 15  1  0
 15 16  1  0
 16 17  1  0
 17 18  2  0
 17 19  1  0
 19 20  1  0
 20 21  1  0
 21 22  1  0
 22 23  1  0
 22 24  2  0
 24 25  1  0
 25 26  1  0
 24 27  1  0
 27 28  1  0
 28 29  2  0
 28 30  1  0
 30 31  1  0
 31 32  1  0
 14 33  2  0
 33 34  1  0
 34 35  2  0
 35  4  1  0
 12  7  1  0
 35 13  1  0
 27 20  2  0
  1 36  1  0
  1 37  1  0
  2 38  1  0
  3 39  1  0
  3 40  1  0
  8 41  1  0
  9 42  1  0
 10 43  1  0
 11 44  1  0
 16 45  1  0
 16 46  1  0
 19 47  1  0
 23 48  1  0
 23 49  1  0
 23 50  1  0
 25 51  1  0
 25 52  1  0
 26 53  1  0
 26 54  1  0
 26 55  1  0
 31 56  1  0
 31 57  1  0
 32 58  1  0
 32 59  1  0
 32 60  1  0
M  END
$$$$
