
     RDKit          3D

 54 57  0  0  0  0  0  0  0  0999 V2000
   -3.4140    3.2574    2.6539 C   0  0  0  0  0  0  0  0  0  0  0  0
   -3.9726    3.3441    1.3500 O   0  0  0  0  0  0  0  0  0  0  0  0
   -3.6249    2.3733    0.4460 C   0  0  0  0  0  0  0  0  0  0  0  0
   -2.6090    1.4309    0.6378 C   0  0  0  0  0  0  0  0  0  0  0  0
   -2.3052    0.4657   -0.3440 C   0  0  0  0  0  0  0  0  0  0  0  0
   -1.2257   -0.5267   -0.1522 C   0  0  0  0  0  0  0  0  0  0  0  0
   -0.0643   -0.2538    0.5477 C   0  0  0  0  0  0  0  0  0  0  0  0
    0.8917   -1.2628    0.6717 C   0  0  0  0  0  0  0  0  0  0  0  0
    2.1347   -0.8955    1.3878 C   0  0  0  0  0  0  0  0  0  0  0  0
    2.0303   -0.4659    2.5284 O   0  0  0  0  0  0  0  0  0  0  0  0
    3.2815   -1.0322    0.6298 N   0  0  0  0  0  0  0  0  0  0  0  0
    4.6077   -0.7749    1.0325 C   0  0  0  0  0  0  0  0  0  0  0  0
    5.6135   -0.9471    0.0704 C   0  0  0  0  0  0  0  0  0  0  0  0
    6.9559   -0.7182    0.3888 C   0  0  0  0  0  0  0  0  0  0  0  0
    7.2916   -0.3173    1.6759 C   0  0  0  0  0  0  0  0  0  0  0  0
    8.5851   -0.0828    2.0344 O   0  0  0  0  0  0  0  0  0  0  0  0
    6.3091   -0.1453    2.6414 C   0  0  0  0  0  0  0  0  0  0  0  0
    4.9671   -0.3738    2.3207 C   0  0  0  0  0  0  0  0  0  0  0  0
    0.6737   -2.5498    0.1369 C   0  0  0  0  0  0  0  0  0  0  0  0
    1.5510   -3.6559    0.2823 C   0  0  0  0  0  0  0  0  0  0  0  0
    1.2539   -4.8888   -0.2945 C   0  0  0  0  0  0  0  0  0  0  0  0
    0.0781   -5.0386   -1.0149 C   0  0  0  0  0  0  0  0  0  0  0  0
   -0.7972   -3.9578   -1.1428 C   0  0  0  0  0  0  0  0  0  0  0  0
   -0.5270   -2.7201   -0.5744 C   0  0  0  0  0  0  0  0  0  0  0  0
   -1.4320   -1.7380   -0.7266 N   0  0  0  0  0  0  0  0  0  0  0  0
   -3.0737    0.4613   -1.5263 C   0  0  0  0  0  0  0  0  0  0  0  0
   -4.0964    1.3897   -1.7404 C   0  0  0  0  0  0  0  0  0  0  0  0
   -4.8755    1.4472   -2.8674 O   0  0  0  0  0  0  0  0  0  0  0  0
   -4.8364    0.3244   -3.7383 C   0  0  0  0  0  0  0  0  0  0  0  0
   -4.3457    2.3586   -0.7578 C   0  0  0  0  0  0  0  0  0  0  0  0
   -5.3742    3.2572   -0.9397 O   0  0  0  0  0  0  0  0  0  0  0  0
   -4.8812    4.4308   -1.5828 C   0  0  0  0  0  0  0  0  0  0  0  0
   -3.8730    4.0391    3.2670 H   0  0  0  0  0  0  0  0  0  0  0  0
   -3.6395    2.2927    3.1210 H   0  0  0  0  0  0  0  0  0  0  0  0
   -2.3355    3.4442    2.6307 H   0  0  0  0  0  0  0  0  0  0  0  0
   -2.0457    1.4243    1.5656 H   0  0  0  0  0  0  0  0  0  0  0  0
    0.1231    0.7246    0.9792 H   0  0  0  0  0  0  0  0  0  0  0  0
    3.1603   -1.3260   -0.3323 H   0  0  0  0  0  0  0  0  0  0  0  0
    5.3675   -1.2608   -0.9409 H   0  0  0  0  0  0  0  0  0  0  0  0
    7.7154   -0.8576   -0.3737 H   0  0  0  0  0  0  0  0  0  0  0  0
    9.1543   -0.2181    1.2596 H   0  0  0  0  0  0  0  0  0  0  0  0
    6.5811    0.1667    3.6460 H   0  0  0  0  0  0  0  0  0  0  0  0
    4.2286   -0.2310    3.1033 H   0  0  0  0  0  0  0  0  0  0  0  0
    2.4654   -3.5725    0.8675 H   0  0  0  0  0  0  0  0  0  0  0  0
    1.9323   -5.7295   -0.1711 H   0  0  0  0  0  0  0  0  0  0  0  0
   -0.1714   -5.9955   -1.4665 H   0  0  0  0  0  0  0  0  0  0  0  0
   -1.7257   -4.0893   -1.6948 H   0  0  0  0  0  0  0  0  0  0  0  0
   -2.8422   -0.2872   -2.2795 H   0  0  0  0  0  0  0  0  0  0  0  0
   -5.6085    0.4660   -4.5008 H   0  0  0  0  0  0  0  0  0  0  0  0
   -3.8715    0.2620   -4.2517 H   0  0  0  0  0  0  0  0  0  0  0  0
   -5.0625   -0.6051   -3.2046 H   0  0  0  0  0  0  0  0  0  0  0  0
   -5.7209    5.1214   -1.7072 H   0  0  0  0  0  0  0  0  0  0  0  0
   -4.4809    4.2043   -2.5771 H   0  0  0  0  0  0  0  0  0  0  0  0
   -4.1206    4.9314   -0.9737 H   0  0  0  0  0  0  0  0  0  0  0  0
  1  2  1  0
  2  3  1  0
  3  4  2  0
  4  5  1  0
  5  6  1  0
  6  7  2  0
  7  8  1  0
  8  9  1  0
  9 10  2  0
  9 11  1  0
 11 12  1  0
 12 13  2  0
 13 14  1  0
 14 15  2  0
 15 16  1  0
 15 17  1  0
 17 18  2  0
  8 19  2  0
 19 20  1  0
 20 21  2  0
 21 22  1  0
 22 23  2  0
 23 24  1  0
 24 25  2  0
  5 26  2  0
 26 27  1  0
 27 28  1  0
 28 29  1  0
 27 30  2  0
 30 31  1  0
 31 32  1  0
 30  3  1  0
 25  6  1  0
 18 12  1  0
 24 19  1  0
  1 33  1  0
  1 34  1  0
  1 35  1  0
  4 36  1  0
  7 37  1  0
 11 38  1  0
 13 39  1  0
 14 40  1  0
 16 41  1  0
 17 42  1  0
 18 43  1  0
 20 44  1  0
 21 45  1  0
 22 46  1  0
 23 47  1  0
 26 48  1  0
 29 49  1  0
 29 50  1  0
 29 51  1  0
 32 52  1  0
 32 53  1  0
 32 54  1  0
M  END
$$$$
