
     RDKit          3D

 67 72  0  0  0  0  0  0  0  0999 V2000
   -4.7780   -4.0043   -1.7106 C   0  0  0  0  0  0  0  0  0  0  0  0
   -3.8030   -3.2736   -0.8372 C   0  0  0  0  0  0  0  0  0  0  0  0
   -3.5790   -3.6574    0.4986 C   0  0  0  0  0  0  0  0  0  0  0  0
   -4.4180   -4.9995    1.2000 Cl  0  0  0  0  0  0  0  0  0  0  0  0
   -2.6658   -2.9696    1.3212 C   0  0  0  0  0  0  0  0  0  0  0  0
   -1.9414   -1.8826    0.8321 C   0  0  0  0  0  0  0  0  0  0  0  0
   -2.1366   -1.5051   -0.4886 C   0  0  0  0  0  0  0  0  0  0  0  0
   -3.0579   -2.1926   -1.2950 C   0  0  0  0  0  0  0  0  0  0  0  0
   -3.0938   -1.6154   -2.5623 N   0  0  0  0  0  0  0  0  0  0  0  0
   -2.2355   -0.5181   -2.6630 C   0  0  0  0  0  0  0  0  0  0  0  0
   -2.1041    0.1617   -3.6707 O   0  0  0  0  0  0  0  0  0  0  0  0
   -1.5121   -0.3915   -1.2965 C   0  0  1  0  0  0  0  0  0  0  0  0
   -1.7761    0.8750   -0.5825 C   0  0  0  0  0  0  0  0  0  0  0  0
   -0.5884    1.5159   -0.2282 C   0  0  0  0  0  0  0  0  0  0  0  0
   -0.8923    2.6660    0.4526 C   0  0  0  0  0  0  0  0  0  0  0  0
   -0.0910    3.6055    0.9473 O   0  0  0  0  0  0  0  0  0  0  0  0
   -2.2979    2.7729    0.4791 N   0  0  0  0  0  0  0  0  0  0  0  0
   -3.0546    3.8813    0.9762 C   0  0  0  0  0  0  0  0  0  0  0  0
   -4.2717    4.2306    0.3704 C   0  0  0  0  0  0  0  0  0  0  0  0
   -5.0172    5.3083    0.8549 C   0  0  0  0  0  0  0  0  0  0  0  0
   -4.5532    6.0476    1.9405 C   0  0  0  0  0  0  0  0  0  0  0  0
   -3.3380    5.7172    2.5369 C   0  0  0  0  0  0  0  0  0  0  0  0
   -2.5865    4.6418    2.0548 C   0  0  0  0  0  0  0  0  0  0  0  0
   -2.8304    1.6026   -0.0997 C   0  0  0  0  0  0  0  0  0  0  0  0
   -4.1206    1.2710   -0.1017 O   0  0  0  0  0  0  0  0  0  0  0  0
    0.5914    0.7732   -0.7196 C   0  0  1  0  0  0  0  0  0  0  0  0
    1.5695    0.3169    0.3755 C   0  0  0  0  0  0  0  0  0  0  0  0
    2.6003   -0.5758   -0.1593 N   0  0  0  0  0  0  0  0  0  0  0  0
    3.8795   -0.5311    0.3549 C   0  0  0  0  0  0  0  0  0  0  0  0
    4.2021    0.1834    1.2948 O   0  0  0  0  0  0  0  0  0  0  0  0
    4.7211   -1.3619   -0.3103 O   0  0  0  0  0  0  0  0  0  0  0  0
    6.1199   -1.4656    0.0601 C   0  0  0  0  0  0  0  0  0  0  0  0
    6.7043   -2.4938   -0.9213 C   0  0  0  0  0  0  0  0  0  0  0  0
    6.8488   -0.1313   -0.1358 C   0  0  0  0  0  0  0  0  0  0  0  0
    6.2811   -2.0041    1.4859 C   0  0  0  0  0  0  0  0  0  0  0  0
    2.2224   -1.4282   -1.2927 C   0  0  0  0  0  0  0  0  0  0  0  0
    0.6970   -1.6316   -1.3847 C   0  0  0  0  0  0  0  0  0  0  0  0
   -0.0265   -0.3663   -1.4734 N   0  0  0  0  0  0  0  0  0  0  0  0
   -4.4283   -5.0253   -1.8943 H   0  0  0  0  0  0  0  0  0  0  0  0
   -4.9130   -3.5239   -2.6840 H   0  0  0  0  0  0  0  0  0  0  0  0
   -5.7652   -4.0367   -1.2381 H   0  0  0  0  0  0  0  0  0  0  0  0
   -2.5210   -3.2822    2.3533 H   0  0  0  0  0  0  0  0  0  0  0  0
   -1.2482   -1.3486    1.4740 H   0  0  0  0  0  0  0  0  0  0  0  0
   -3.6883   -1.8896   -3.3288 H   0  0  0  0  0  0  0  0  0  0  0  0
    0.8270    3.3846    0.7117 H   0  0  0  0  0  0  0  0  0  0  0  0
   -4.6341    3.7152   -0.5171 H   0  0  0  0  0  0  0  0  0  0  0  0
   -5.9529    5.5808    0.3722 H   0  0  0  0  0  0  0  0  0  0  0  0
   -5.1313    6.8889    2.3144 H   0  0  0  0  0  0  0  0  0  0  0  0
   -2.9709    6.2974    3.3800 H   0  0  0  0  0  0  0  0  0  0  0  0
   -1.6544    4.4007    2.5588 H   0  0  0  0  0  0  0  0  0  0  0  0
   -4.5757    1.7782    0.5943 H   0  0  0  0  0  0  0  0  0  0  0  0
    1.1334    1.3895   -1.4484 H   0  0  0  0  0  0  0  0  0  0  0  0
    2.0334    1.1874    0.8546 H   0  0  0  0  0  0  0  0  0  0  0  0
    1.0463   -0.2380    1.1656 H   0  0  0  0  0  0  0  0  0  0  0  0
    7.7707   -2.6652   -0.7424 H   0  0  0  0  0  0  0  0  0  0  0  0
    6.1812   -3.4543   -0.8400 H   0  0  0  0  0  0  0  0  0  0  0  0
    6.5759   -2.1603   -1.9582 H   0  0  0  0  0  0  0  0  0  0  0  0
    6.5289    0.6205    0.5913 H   0  0  0  0  0  0  0  0  0  0  0  0
    6.6395    0.2826   -1.1279 H   0  0  0  0  0  0  0  0  0  0  0  0
    7.9319   -0.2477   -0.0281 H   0  0  0  0  0  0  0  0  0  0  0  0
    7.3269   -2.2499    1.7022 H   0  0  0  0  0  0  0  0  0  0  0  0
    5.9544   -1.2783    2.2373 H   0  0  0  0  0  0  0  0  0  0  0  0
    5.6727   -2.9043    1.6333 H   0  0  0  0  0  0  0  0  0  0  0  0
    2.5995   -0.9453   -2.2022 H   0  0  0  0  0  0  0  0  0  0  0  0
    2.7203   -2.3998   -1.2009 H   0  0  0  0  0  0  0  0  0  0  0  0
    0.4678   -2.2480   -2.2610 H   0  0  0  0  0  0  0  0  0  0  0  0
    0.4052   -2.1996   -0.4958 H   0  0  0  0  0  0  0  0  0  0  0  0
  1  2  1  0
  2  3  2  0
  3  4  1  0
  3  5  1  0
  5  6  2  0
  6  7  1  0
  7  8  2  0
  8  9  1  0
  9 10  1  0
 10 11  2  0
 10 12  1  0
 12 13  1  0
 13 14  1  0
 14 15  2  0
 15 16  1  0
 15 17  1  0
 17 18  1  0
 18 19  2  0
 19 20  1  0
 20 21  2  0
 21 22  1  0
 22 23  2  0
 17 24  1  0
 24 25  1  0
 14 26  1  0
 26 27  1  0
 27 28  1  0
 28 29  1  0
 29 30  2  0
 29 31  1  0
 31 32  1  0
 32 33  1  0
 32 34  1  0
 32 35  1  0
 28 36  1  0
 36 37  1  0
 37 38  1  0
  8  2  1  0
 12 38  1  6
 12  7  1  0
 24 13  2  0
 38 26  1  0
 23 18  1  0
  1 39  1  0
  1 40  1  0
  1 41  1  0
  5 42  1  0
  6 43  1  0
  9 44  1  0
 16 45  1  0
 19 46  1  0
 20 47  1  0
 21 48  1  0
 22 49  1  0
 23 50  1  0
 25 51  1  0
 26 52  1  6
 27 53  1  0
 27 54  1  0
 33 55  1  0
 33 56  1  0
 33 57  1  0
 34 58  1  0
 34 59  1  0
 34 60  1  0
 35 61  1  0
 35 62  1  0
 35 63  1  0
 36 64  1  0
 36 65  1  0
 37 66  1  0
 37 67  1  0
M  END
$$$$
