
     RDKit          3D

 52 55  0  0  0  0  0  0  0  0999 V2000
    5.7554   -2.6311   -0.6952 C   0  0  0  0  0  0  0  0  0  0  0  0
    5.1836   -1.3498   -0.2178 C   0  0  0  0  0  0  0  0  0  0  0  0
    3.8554   -0.8879   -0.3417 C   0  0  0  0  0  0  0  0  0  0  0  0
    3.8267    0.3630    0.2553 C   0  0  0  0  0  0  0  0  0  0  0  0
    2.7499    1.3117    0.4344 C   0  0  0  0  0  0  0  0  0  0  0  0
    2.9035    2.4251    0.9278 O   0  0  0  0  0  0  0  0  0  0  0  0
    1.5138    0.8754    0.0185 N   0  0  0  0  0  0  0  0  0  0  0  0
    0.3206    1.6772    0.1946 C   0  0  0  0  0  0  0  0  0  0  0  0
   -0.1868    1.6707    1.6574 C   0  0  0  0  0  0  0  0  0  0  0  0
   -1.0394    0.4255    2.0607 C   0  0  0  0  0  0  0  0  0  0  0  0
   -0.1888   -0.8607    2.0717 C   0  0  0  0  0  0  0  0  0  0  0  0
   -1.5673    0.6448    3.4936 C   0  0  0  0  0  0  0  0  0  0  0  0
   -2.2587    0.2511    1.1024 C   0  0  0  0  0  0  0  0  0  0  0  0
   -1.8834    0.5033   -0.3208 C   0  0  0  0  0  0  0  0  0  0  0  0
   -0.7223    1.1411   -0.7223 C   0  0  0  0  0  0  0  0  0  0  0  0
   -0.7648    1.1168   -2.1194 C   0  0  0  0  0  0  0  0  0  0  0  0
   -1.8458    0.4939   -2.5790 N   0  0  0  0  0  0  0  0  0  0  0  0
   -2.5831    0.1705   -1.4758 N   0  0  0  0  0  0  0  0  0  0  0  0
   -3.8721   -0.4192   -1.6643 C   0  0  0  0  0  0  0  0  0  0  0  0
   -4.8044   -0.5628   -0.6280 C   0  0  0  0  0  0  0  0  0  0  0  0
   -6.0547   -1.1487   -0.8696 C   0  0  0  0  0  0  0  0  0  0  0  0
   -6.3880   -1.5891   -2.1472 C   0  0  0  0  0  0  0  0  0  0  0  0
   -5.4735   -1.4332   -3.1787 C   0  0  0  0  0  0  0  0  0  0  0  0
   -5.7947   -1.8501   -4.4105 F   0  0  0  0  0  0  0  0  0  0  0  0
   -4.2297   -0.8524   -2.9538 C   0  0  0  0  0  0  0  0  0  0  0  0
    5.1207    0.5679    0.6798 N   0  0  0  0  0  0  0  0  0  0  0  0
    5.6487    1.7265    1.3656 C   0  0  0  0  0  0  0  0  0  0  0  0
    5.9526   -0.4576    0.4085 N   0  0  0  0  0  0  0  0  0  0  0  0
    4.9798   -3.4003   -0.7711 H   0  0  0  0  0  0  0  0  0  0  0  0
    6.5263   -2.9988   -0.0099 H   0  0  0  0  0  0  0  0  0  0  0  0
    6.2063   -2.4997   -1.6841 H   0  0  0  0  0  0  0  0  0  0  0  0
    3.0381   -1.4120   -0.8151 H   0  0  0  0  0  0  0  0  0  0  0  0
    1.4067   -0.0715   -0.3108 H   0  0  0  0  0  0  0  0  0  0  0  0
    0.5660    2.7093   -0.0851 H   0  0  0  0  0  0  0  0  0  0  0  0
   -0.8189    2.5615    1.7873 H   0  0  0  0  0  0  0  0  0  0  0  0
    0.6522    1.7916    2.3543 H   0  0  0  0  0  0  0  0  0  0  0  0
   -0.7437   -1.6923    2.5218 H   0  0  0  0  0  0  0  0  0  0  0  0
    0.0946   -1.1828    1.0661 H   0  0  0  0  0  0  0  0  0  0  0  0
    0.7277   -0.7221    2.6559 H   0  0  0  0  0  0  0  0  0  0  0  0
   -2.1727    1.5559    3.5591 H   0  0  0  0  0  0  0  0  0  0  0  0
   -0.7422    0.7420    4.2083 H   0  0  0  0  0  0  0  0  0  0  0  0
   -2.1945   -0.1936    3.8172 H   0  0  0  0  0  0  0  0  0  0  0  0
   -2.6678   -0.7577    1.2261 H   0  0  0  0  0  0  0  0  0  0  0  0
   -3.0359    0.9750    1.3787 H   0  0  0  0  0  0  0  0  0  0  0  0
   -0.0413    1.5045   -2.8260 H   0  0  0  0  0  0  0  0  0  0  0  0
   -4.6238   -0.2028    0.3760 H   0  0  0  0  0  0  0  0  0  0  0  0
   -6.7721   -1.2509   -0.0584 H   0  0  0  0  0  0  0  0  0  0  0  0
   -7.3533   -2.0426   -2.3475 H   0  0  0  0  0  0  0  0  0  0  0  0
   -3.5512   -0.7558   -3.7980 H   0  0  0  0  0  0  0  0  0  0  0  0
    5.5402    2.5957    0.7127 H   0  0  0  0  0  0  0  0  0  0  0  0
    5.0984    1.8587    2.3002 H   0  0  0  0  0  0  0  0  0  0  0  0
    6.7077    1.5667    1.5869 H   0  0  0  0  0  0  0  0  0  0  0  0
  1  2  1  0
  2  3  1  0
  3  4  2  0
  4  5  1  0
  5  6  2  0
  5  7  1  0
  7  8  1  0
  8  9  1  0
  9 10  1  0
 10 11  1  0
 10 12  1  0
 10 13  1  0
 13 14  1  0
 14 15  2  0
 15 16  1  0
 16 17  2  0
 17 18  1  0
 18 19  1  0
 19 20  2  0
 20 21  1  0
 21 22  2  0
 22 23  1  0
 23 24  1  0
 23 25  2  0
  4 26  1  0
 26 27  1  0
 26 28  1  0
 28  2  2  0
 15  8  1  0
 25 19  1  0
 18 14  1  0
  1 29  1  0
  1 30  1  0
  1 31  1  0
  3 32  1  0
  7 33  1  0
  8 34  1  0
  9 35  1  0
  9 36  1  0
 11 37  1  0
 11 38  1  0
 11 39  1  0
 12 40  1  0
 12 41  1  0
 12 42  1  0
 13 43  1  0
 13 44  1  0
 16 45  1  0
 20 46  1  0
 21 47  1  0
 22 48  1  0
 25 49  1  0
 27 50  1  0
 27 51  1  0
 27 52  1  0
M  END
$$$$
