
     RDKit          3D

 65 68  0  0  0  0  0  0  0  0999 V2000
    7.9559    2.8171    3.8753 C   0  0  0  0  0  0  0  0  0  0  0  0
    6.9698    1.7262    3.9455 C   0  0  0  0  0  0  0  0  0  0  0  0
    5.8439    1.4044    3.2295 C   0  0  0  0  0  0  0  0  0  0  0  0
    5.3600    0.2249    3.8393 C   0  0  0  0  0  0  0  0  0  0  0  0
    4.2529   -0.5327    3.5266 N   0  0  0  0  0  0  0  0  0  0  0  0
    3.3561   -0.2526    2.5214 C   0  0  0  0  0  0  0  0  0  0  0  0
    3.3991    0.7158    1.7684 O   0  0  0  0  0  0  0  0  0  0  0  0
    2.2665   -1.3012    2.4291 C   0  0  0  0  0  0  0  0  0  0  0  0
    1.2609   -0.9654    1.3312 C   0  0  0  0  0  0  0  0  0  0  0  0
    0.2160   -2.0554    1.1707 C   0  0  0  0  0  0  0  0  0  0  0  0
    0.2648   -3.0620    1.8794 O   0  0  0  0  0  0  0  0  0  0  0  0
   -0.7567   -1.8711    0.1889 N   0  0  0  0  0  0  0  0  0  0  0  0
   -1.7868   -2.9093    0.0749 C   0  0  0  0  0  0  0  0  0  0  0  0
   -1.5263   -3.8202   -1.0967 C   0  0  0  0  0  0  0  0  0  0  0  0
   -2.3799   -4.1127   -2.1459 C   0  0  0  0  0  0  0  0  0  0  0  0
   -1.8076   -5.0193   -3.0836 C   0  0  0  0  0  0  0  0  0  0  0  0
   -0.5428   -5.4100   -2.7127 C   0  0  0  0  0  0  0  0  0  0  0  0
   -0.0564   -4.6959   -1.2386 S   0  0  0  0  0  0  0  0  0  0  0  0
   -0.9888   -0.5677   -0.4757 C   0  0  0  0  0  0  0  0  0  0  0  0
   -1.9469    0.3239    0.3695 C   0  0  0  0  0  0  0  0  0  0  0  0
   -2.6703   -0.1152    1.2629 O   0  0  0  0  0  0  0  0  0  0  0  0
   -1.9254    1.6677    0.0230 N   0  0  0  0  0  0  0  0  0  0  0  0
   -2.8558    2.6159    0.6211 C   0  0  0  0  0  0  0  0  0  0  0  0
   -4.2252    2.5569   -0.0551 C   0  0  0  0  0  0  0  0  0  0  0  0
   -4.0353    3.4017   -1.3060 C   0  0  0  0  0  0  0  0  0  0  0  0
   -3.1548    4.5580   -0.8456 C   0  0  0  0  0  0  0  0  0  0  0  0
   -2.3965    4.0563    0.3881 C   0  0  0  0  0  0  0  0  0  0  0  0
   -1.4016   -0.6753   -1.9410 C   0  0  0  0  0  0  0  0  0  0  0  0
   -2.7340   -0.5384   -2.3663 C   0  0  0  0  0  0  0  0  0  0  0  0
   -3.0630   -0.6357   -3.7199 C   0  0  0  0  0  0  0  0  0  0  0  0
   -2.0713   -0.8849   -4.6645 C   0  0  0  0  0  0  0  0  0  0  0  0
   -0.7483   -1.0397   -4.2586 C   0  0  0  0  0  0  0  0  0  0  0  0
   -0.4148   -0.9368   -2.9076 C   0  0  0  0  0  0  0  0  0  0  0  0
    6.1496   -0.1480    4.8526 N   0  0  0  0  0  0  0  0  0  0  0  0
    7.1582    0.7974    4.9191 O   0  0  0  0  0  0  0  0  0  0  0  0
    7.7957    3.5266    4.6925 H   0  0  0  0  0  0  0  0  0  0  0  0
    8.9744    2.4242    3.9514 H   0  0  0  0  0  0  0  0  0  0  0  0
    7.8738    3.3597    2.9278 H   0  0  0  0  0  0  0  0  0  0  0  0
    5.4334    1.9479    2.3910 H   0  0  0  0  0  0  0  0  0  0  0  0
    4.1260   -1.3422    4.1217 H   0  0  0  0  0  0  0  0  0  0  0  0
    1.7564   -1.3656    3.3983 H   0  0  0  0  0  0  0  0  0  0  0  0
    2.7404   -2.2704    2.2287 H   0  0  0  0  0  0  0  0  0  0  0  0
    1.7885   -0.8528    0.3771 H   0  0  0  0  0  0  0  0  0  0  0  0
    0.7631   -0.0223    1.5818 H   0  0  0  0  0  0  0  0  0  0  0  0
   -2.7689   -2.4329   -0.0198 H   0  0  0  0  0  0  0  0  0  0  0  0
   -1.8337   -3.5169    0.9861 H   0  0  0  0  0  0  0  0  0  0  0  0
   -3.3682   -3.6798   -2.2463 H   0  0  0  0  0  0  0  0  0  0  0  0
   -2.2995   -5.3641   -3.9846 H   0  0  0  0  0  0  0  0  0  0  0  0
    0.1209   -6.0881   -3.2302 H   0  0  0  0  0  0  0  0  0  0  0  0
   -0.0452   -0.0108   -0.4828 H   0  0  0  0  0  0  0  0  0  0  0  0
   -1.4976    1.9187   -0.8627 H   0  0  0  0  0  0  0  0  0  0  0  0
   -2.9337    2.3892    1.6899 H   0  0  0  0  0  0  0  0  0  0  0  0
   -4.5538    1.5410   -0.2961 H   0  0  0  0  0  0  0  0  0  0  0  0
   -4.9836    3.0167    0.5916 H   0  0  0  0  0  0  0  0  0  0  0  0
   -3.5183    2.8244   -2.0824 H   0  0  0  0  0  0  0  0  0  0  0  0
   -4.9863    3.7456   -1.7233 H   0  0  0  0  0  0  0  0  0  0  0  0
   -3.7764    5.4201   -0.5692 H   0  0  0  0  0  0  0  0  0  0  0  0
   -2.4735    4.8850   -1.6399 H   0  0  0  0  0  0  0  0  0  0  0  0
   -1.3118    4.1401    0.2576 H   0  0  0  0  0  0  0  0  0  0  0  0
   -2.6708    4.6788    1.2489 H   0  0  0  0  0  0  0  0  0  0  0  0
   -3.5372   -0.3654   -1.6526 H   0  0  0  0  0  0  0  0  0  0  0  0
   -4.0974   -0.5276   -4.0360 H   0  0  0  0  0  0  0  0  0  0  0  0
   -2.3298   -0.9686   -5.7170 H   0  0  0  0  0  0  0  0  0  0  0  0
    0.0251   -1.2483   -4.9941 H   0  0  0  0  0  0  0  0  0  0  0  0
    0.6227   -1.0789   -2.6083 H   0  0  0  0  0  0  0  0  0  0  0  0
  1  2  1  0
  2  3  2  0
  3  4  1  0
  4  5  1  0
  5  6  1  0
  6  7  2  0
  6  8  1  0
  8  9  1  0
  9 10  1  0
 10 11  2  0
 10 12  1  0
 12 13  1  0
 13 14  1  0
 14 15  2  0
 15 16  1  0
 16 17  2  0
 17 18  1  0
 12 19  1  0
 19 20  1  0
 20 21  2  0
 20 22  1  0
 22 23  1  0
 23 24  1  0
 24 25  1  0
 25 26  1  0
 26 27  1  0
 19 28  1  0
 28 29  2  0
 29 30  1  0
 30 31  2  0
 31 32  1  0
 32 33  2  0
  4 34  2  0
 34 35  1  0
 35  2  1  0
 18 14  1  0
 27 23  1  0
 33 28  1  0
  1 36  1  0
  1 37  1  0
  1 38  1  0
  3 39  1  0
  5 40  1  0
  8 41  1  0
  8 42  1  0
  9 43  1  0
  9 44  1  0
 13 45  1  0
 13 46  1  0
 15 47  1  0
 16 48  1  0
 17 49  1  0
 19 50  1  0
 22 51  1  0
 23 52  1  0
 24 53  1  0
 24 54  1  0
 25 55  1  0
 25 56  1  0
 26 57  1  0
 26 58  1  0
 27 59  1  0
 27 60  1  0
 29 61  1  0
 30 62  1  0
 31 63  1  0
 32 64  1  0
 33 65  1  0
M  END
$$$$
