
     RDKit          3D

 70 76  0  0  0  0  0  0  0  0999 V2000
   -5.4560   -4.3410   -1.3837 C   0  0  0  0  0  0  0  0  0  0  0  0
   -4.3142   -3.7300   -0.6253 C   0  0  0  0  0  0  0  0  0  0  0  0
   -3.7942   -4.3195    0.5393 C   0  0  0  0  0  0  0  0  0  0  0  0
   -4.4191   -5.8111    1.1526 Cl  0  0  0  0  0  0  0  0  0  0  0  0
   -2.7553   -3.7118    1.2659 C   0  0  0  0  0  0  0  0  0  0  0  0
   -2.2014   -2.4989    0.8501 C   0  0  0  0  0  0  0  0  0  0  0  0
   -2.6923   -1.9037   -0.3029 C   0  0  0  0  0  0  0  0  0  0  0  0
   -3.7507   -2.5117   -0.9978 C   0  0  0  0  0  0  0  0  0  0  0  0
   -4.1499   -1.7007   -2.0548 N   0  0  0  0  0  0  0  0  0  0  0  0
   -3.4089   -0.5234   -2.1142 C   0  0  0  0  0  0  0  0  0  0  0  0
   -3.6001    0.3656   -2.9329 O   0  0  0  0  0  0  0  0  0  0  0  0
   -2.3243   -0.6049   -0.9828 C   0  0  1  0  0  0  0  0  0  0  0  0
   -2.4153    0.5334   -0.0422 C   0  0  0  0  0  0  0  0  0  0  0  0
   -1.4371    1.4834   -0.3524 C   0  0  0  0  0  0  0  0  0  0  0  0
   -1.5747    2.5527    0.4871 C   0  0  0  0  0  0  0  0  0  0  0  0
   -0.9383    3.7217    0.4411 O   0  0  0  0  0  0  0  0  0  0  0  0
   -2.6203    2.2428    1.3776 N   0  0  0  0  0  0  0  0  0  0  0  0
   -3.0885    3.0811    2.4327 C   0  0  0  0  0  0  0  0  0  0  0  0
   -2.1725    3.8069    3.2064 C   0  0  0  0  0  0  0  0  0  0  0  0
   -2.6298    4.6209    4.2431 C   0  0  0  0  0  0  0  0  0  0  0  0
   -3.9953    4.7162    4.5076 C   0  0  0  0  0  0  0  0  0  0  0  0
   -4.9097    4.0004    3.7346 C   0  0  0  0  0  0  0  0  0  0  0  0
   -4.4613    3.1836    2.6953 C   0  0  0  0  0  0  0  0  0  0  0  0
   -3.1294    0.9730    1.0402 C   0  0  0  0  0  0  0  0  0  0  0  0
   -4.0839    0.3305    1.7120 O   0  0  0  0  0  0  0  0  0  0  0  0
   -0.6704    1.0738   -1.5609 C   0  0  1  0  0  0  0  0  0  0  0  0
    0.7986    1.5434   -1.6474 C   0  0  0  0  0  0  0  0  0  0  0  0
    1.8240    0.5968   -1.1930 N   0  0  0  0  0  0  0  0  0  0  0  0
    3.1303    1.0874   -1.1250 C   0  0  0  0  0  0  0  0  0  0  0  0
    3.3806    2.2887   -1.2273 O   0  0  0  0  0  0  0  0  0  0  0  0
    4.2392    0.0712   -0.9081 C   0  0  0  0  0  0  0  0  0  0  0  0
    5.6184    0.7326   -0.9111 C   0  0  0  0  0  0  0  0  0  0  0  0
    6.7276   -0.2800   -0.7531 C   0  0  0  0  0  0  0  0  0  0  0  0
    7.1331   -1.0616   -1.8439 C   0  0  0  0  0  0  0  0  0  0  0  0
    8.1493   -2.0070   -1.6978 C   0  0  0  0  0  0  0  0  0  0  0  0
    8.7690   -2.1801   -0.4609 C   0  0  0  0  0  0  0  0  0  0  0  0
    8.3730   -1.4085    0.6302 C   0  0  0  0  0  0  0  0  0  0  0  0
    7.3550   -0.4636    0.4868 C   0  0  0  0  0  0  0  0  0  0  0  0
    1.5160   -0.8119   -1.4153 C   0  0  0  0  0  0  0  0  0  0  0  0
    0.1085   -1.1608   -0.9172 C   0  0  0  0  0  0  0  0  0  0  0  0
   -0.9526   -0.4256   -1.6244 N   0  0  0  0  0  0  0  0  0  0  0  0
   -6.3998   -4.1428   -0.8646 H   0  0  0  0  0  0  0  0  0  0  0  0
   -5.3198   -5.4217   -1.4978 H   0  0  0  0  0  0  0  0  0  0  0  0
   -5.5341   -3.9416   -2.4009 H   0  0  0  0  0  0  0  0  0  0  0  0
   -2.3791   -4.1822    2.1720 H   0  0  0  0  0  0  0  0  0  0  0  0
   -1.4175   -2.0320    1.4403 H   0  0  0  0  0  0  0  0  0  0  0  0
   -4.9186   -1.8735   -2.6842 H   0  0  0  0  0  0  0  0  0  0  0  0
   -1.4996    4.4070    0.8460 H   0  0  0  0  0  0  0  0  0  0  0  0
   -1.0987    3.7194    3.0471 H   0  0  0  0  0  0  0  0  0  0  0  0
   -1.9200    5.1758    4.8535 H   0  0  0  0  0  0  0  0  0  0  0  0
   -4.3459    5.3524    5.3165 H   0  0  0  0  0  0  0  0  0  0  0  0
   -5.9742    4.0866    3.9359 H   0  0  0  0  0  0  0  0  0  0  0  0
   -5.1994    2.6760    2.0756 H   0  0  0  0  0  0  0  0  0  0  0  0
   -4.1754    0.7239    2.5990 H   0  0  0  0  0  0  0  0  0  0  0  0
   -1.1863    1.5310   -2.4171 H   0  0  0  0  0  0  0  0  0  0  0  0
    1.0314    1.7251   -2.7076 H   0  0  0  0  0  0  0  0  0  0  0  0
    0.9406    2.4981   -1.1253 H   0  0  0  0  0  0  0  0  0  0  0  0
    4.1907   -0.6775   -1.7074 H   0  0  0  0  0  0  0  0  0  0  0  0
    4.0733   -0.4263    0.0556 H   0  0  0  0  0  0  0  0  0  0  0  0
    5.6807    1.4773   -0.1068 H   0  0  0  0  0  0  0  0  0  0  0  0
    5.7755    1.2917   -1.8430 H   0  0  0  0  0  0  0  0  0  0  0  0
    6.6584   -0.9361   -2.8158 H   0  0  0  0  0  0  0  0  0  0  0  0
    8.4586   -2.6073   -2.5513 H   0  0  0  0  0  0  0  0  0  0  0  0
    9.5639   -2.9132   -0.3492 H   0  0  0  0  0  0  0  0  0  0  0  0
    8.8570   -1.5421    1.5930 H   0  0  0  0  0  0  0  0  0  0  0  0
    7.0572    0.1321    1.3475 H   0  0  0  0  0  0  0  0  0  0  0  0
    1.6210   -1.0171   -2.4874 H   0  0  0  0  0  0  0  0  0  0  0  0
    2.2345   -1.4431   -0.8830 H   0  0  0  0  0  0  0  0  0  0  0  0
    0.0869   -0.9526    0.1603 H   0  0  0  0  0  0  0  0  0  0  0  0
   -0.0384   -2.2376   -1.0629 H   0  0  0  0  0  0  0  0  0  0  0  0
  1  2  1  0
  2  3  2  0
  3  4  1  0
  3  5  1  0
  5  6  2  0
  6  7  1  0
  7  8  2  0
  8  9  1  0
  9 10  1  0
 10 11  2  0
 10 12  1  0
 12 13  1  0
 13 14  1  0
 14 15  2  0
 15 16  1  0
 15 17  1  0
 17 18  1  0
 18 19  2  0
 19 20  1  0
 20 21  2  0
 21 22  1  0
 22 23  2  0
 17 24  1  0
 24 25  1  0
 14 26  1  0
 26 27  1  0
 27 28  1  0
 28 29  1  0
 29 30  2  0
 29 31  1  0
 31 32  1  0
 32 33  1  0
 33 34  2  0
 34 35  1  0
 35 36  2  0
 36 37  1  0
 37 38  2  0
 28 39  1  0
 39 40  1  0
 40 41  1  0
  8  2  1  0
 12 41  1  6
 12  7  1  0
 24 13  2  0
 41 26  1  0
 23 18  1  0
 38 33  1  0
  1 42  1  0
  1 43  1  0
  1 44  1  0
  5 45  1  0
  6 46  1  0
  9 47  1  0
 16 48  1  0
 19 49  1  0
 20 50  1  0
 21 51  1  0
 22 52  1  0
 23 53  1  0
 25 54  1  0
 26 55  1  6
 27 56  1  0
 27 57  1  0
 31 58  1  0
 31 59  1  0
 32 60  1  0
 32 61  1  0
 34 62  1  0
 35 63  1  0
 36 64  1  0
 37 65  1  0
 38 66  1  0
 39 67  1  0
 39 68  1  0
 40 69  1  0
 40 70  1  0
M  END
$$$$
