
     RDKit          3D

 38 39  0  0  0  0  0  0  0  0999 V2000
    0.1529   -1.6537   -1.2408 C   0  0  0  0  0  0  0  0  0  0  0  0
   -0.3257   -0.3589   -0.7723 N   0  0  0  0  0  0  0  0  0  0  0  0
   -1.7733   -0.1391   -0.8172 C   0  0  0  0  0  0  0  0  0  0  0  0
   -2.4802   -0.6203    0.4504 C   0  0  0  0  0  0  0  0  0  0  0  0
   -3.9541   -0.3247    0.3820 C   0  0  0  0  0  0  0  0  0  0  0  0
   -4.4605    0.8629    0.9047 C   0  0  0  0  0  0  0  0  0  0  0  0
   -5.8260    1.1119    0.8038 C   0  0  0  0  0  0  0  0  0  0  0  0
   -6.6446    0.1763    0.1838 C   0  0  0  0  0  0  0  0  0  0  0  0
   -6.0593   -0.9748   -0.3152 C   0  0  0  0  0  0  0  0  0  0  0  0
   -4.7372   -1.2434   -0.2349 N   0  0  0  0  0  0  0  0  0  0  0  0
    0.4526    0.5840   -0.1027 C   0  0  0  0  0  0  0  0  0  0  0  0
   -0.0263    1.5099    0.5493 O   0  0  0  0  0  0  0  0  0  0  0  0
    1.9279    0.4922   -0.1808 C   0  0  0  0  0  0  0  0  0  0  0  0
    2.5782    0.4313   -1.4154 C   0  0  0  0  0  0  0  0  0  0  0  0
    3.9732    0.3773   -1.4573 C   0  0  0  0  0  0  0  0  0  0  0  0
    4.7279    0.3999   -0.2774 C   0  0  0  0  0  0  0  0  0  0  0  0
    6.0779    0.3400   -0.4736 O   0  0  0  0  0  0  0  0  0  0  0  0
    6.9145    0.3488    0.6704 C   0  0  0  0  0  0  0  0  0  0  0  0
    6.6606   -0.7114    1.4672 F   0  0  0  0  0  0  0  0  0  0  0  0
    8.2016    0.2703    0.2659 F   0  0  0  0  0  0  0  0  0  0  0  0
    6.7650    1.4901    1.3754 F   0  0  0  0  0  0  0  0  0  0  0  0
    4.0704    0.4874    0.9522 C   0  0  0  0  0  0  0  0  0  0  0  0
    2.6727    0.5416    1.0003 C   0  0  0  0  0  0  0  0  0  0  0  0
    0.0814   -1.6746   -2.3318 H   0  0  0  0  0  0  0  0  0  0  0  0
    1.1807   -1.8550   -0.9351 H   0  0  0  0  0  0  0  0  0  0  0  0
   -0.4802   -2.4423   -0.8231 H   0  0  0  0  0  0  0  0  0  0  0  0
   -1.9516    0.9351   -0.9562 H   0  0  0  0  0  0  0  0  0  0  0  0
   -2.1712   -0.6395   -1.7087 H   0  0  0  0  0  0  0  0  0  0  0  0
   -2.0469   -0.1565    1.3446 H   0  0  0  0  0  0  0  0  0  0  0  0
   -2.3384   -1.7009    0.5742 H   0  0  0  0  0  0  0  0  0  0  0  0
   -3.8041    1.5855    1.3807 H   0  0  0  0  0  0  0  0  0  0  0  0
   -6.2456    2.0298    1.2052 H   0  0  0  0  0  0  0  0  0  0  0  0
   -7.7119    0.3402    0.0903 H   0  0  0  0  0  0  0  0  0  0  0  0
   -6.6560   -1.7358   -0.8096 H   0  0  0  0  0  0  0  0  0  0  0  0
    2.0082    0.4383   -2.3407 H   0  0  0  0  0  0  0  0  0  0  0  0
    4.4766    0.3265   -2.4208 H   0  0  0  0  0  0  0  0  0  0  0  0
    4.6057    0.5246    1.8970 H   0  0  0  0  0  0  0  0  0  0  0  0
    2.1651    0.6272    1.9591 H   0  0  0  0  0  0  0  0  0  0  0  0
  1  2  1  0
  2  3  1  0
  3  4  1  0
  4  5  1  0
  5  6  2  0
  6  7  1  0
  7  8  2  0
  8  9  1  0
  9 10  2  0
  2 11  1  0
 11 12  2  0
 11 13  1  0
 13 14  2  0
 14 15  1  0
 15 16  2  0
 16 17  1  0
 17 18  1  0
 18 19  1  0
 18 20  1  0
 18 21  1  0
 16 22  1  0
 22 23  2  0
 10  5  1  0
 23 13  1  0
  1 24  1  0
  1 25  1  0
  1 26  1  0
  3 27  1  0
  3 28  1  0
  4 29  1  0
  4 30  1  0
  6 31  1  0
  7 32  1  0
  8 33  1  0
  9 34  1  0
 14 35  1  0
 15 36  1  0
 22 37  1  0
 23 38  1  0
M  END
$$$$
