
     RDKit          3D

 63 66  0  0  0  0  0  0  0  0999 V2000
   -6.3889    1.3249   -1.3794 C   0  0  0  0  0  0  0  0  0  0  0  0
   -4.9269    0.9909   -1.4934 C   0  0  0  0  0  0  0  0  0  0  0  0
   -4.1200    1.7769   -2.3277 C   0  0  0  0  0  0  0  0  0  0  0  0
   -2.7603    1.4917   -2.5008 C   0  0  0  0  0  0  0  0  0  0  0  0
   -2.1696    0.4143   -1.8415 C   0  0  0  0  0  0  0  0  0  0  0  0
   -0.8137    0.0502   -1.9822 N   0  0  0  0  0  0  0  0  0  0  0  0
    0.1189    0.6184   -2.8306 C   0  0  0  0  0  0  0  0  0  0  0  0
   -0.0461    1.5473   -3.6096 O   0  0  0  0  0  0  0  0  0  0  0  0
    1.4626   -0.0103   -2.7769 C   0  0  0  0  0  0  0  0  0  0  0  0
    2.1162   -0.2973   -3.9825 C   0  0  0  0  0  0  0  0  0  0  0  0
    3.3873   -0.8755   -3.9753 C   0  0  0  0  0  0  0  0  0  0  0  0
    4.0179   -1.1479   -2.7618 C   0  0  0  0  0  0  0  0  0  0  0  0
    3.3703   -0.8314   -1.5615 C   0  0  0  0  0  0  0  0  0  0  0  0
    4.2133   -1.1444   -0.0267 S   0  0  0  0  0  6  0  0  0  0  0  0
    3.3413   -0.7060    1.0465 O   0  0  0  0  0  0  0  0  0  0  0  0
    4.6890   -2.5094   -0.0996 O   0  0  0  0  0  0  0  0  0  0  0  0
    5.5351   -0.0604   -0.1201 N   0  0  0  0  0  0  0  0  0  0  0  0
    5.1861    1.3791   -0.0735 C   0  0  0  0  0  0  0  0  0  0  0  0
    6.6501   -0.3995    0.7277 C   0  0  0  0  0  0  0  0  0  0  0  0
    6.5071   -0.5950    2.1060 C   0  0  0  0  0  0  0  0  0  0  0  0
    7.6340   -0.8260    2.8989 C   0  0  0  0  0  0  0  0  0  0  0  0
    8.9043   -0.8274    2.3230 C   0  0  0  0  0  0  0  0  0  0  0  0
    9.0530   -0.5885    0.9558 C   0  0  0  0  0  0  0  0  0  0  0  0
    7.9269   -0.3657    0.1622 C   0  0  0  0  0  0  0  0  0  0  0  0
    2.0890   -0.2721   -1.5550 C   0  0  0  0  0  0  0  0  0  0  0  0
   -2.9590   -0.3712   -0.9966 C   0  0  0  0  0  0  0  0  0  0  0  0
   -4.3256   -0.0906   -0.8261 C   0  0  0  0  0  0  0  0  0  0  0  0
   -5.2622   -1.1785    0.2305 S   0  0  0  0  0  6  0  0  0  0  0  0
   -6.4328   -1.6044   -0.5011 O   0  0  0  0  0  0  0  0  0  0  0  0
   -4.3565   -2.1530    0.8046 O   0  0  0  0  0  0  0  0  0  0  0  0
   -5.7635   -0.1680    1.5064 N   0  0  0  0  0  0  0  0  0  0  0  0
   -6.7819   -0.7945    2.4143 C   0  0  0  0  0  0  0  0  0  0  0  0
   -6.1726   -1.1329    3.7782 C   0  0  0  0  0  0  0  0  0  0  0  0
   -5.6974    0.0301    4.4751 O   0  0  0  0  0  0  0  0  0  0  0  0
   -5.2094    1.0556    3.5981 C   0  0  0  0  0  0  0  0  0  0  0  0
   -4.6637    0.5039    2.2773 C   0  0  0  0  0  0  0  0  0  0  0  0
   -7.0030    0.5301   -1.8217 H   0  0  0  0  0  0  0  0  0  0  0  0
   -6.6756    1.4836   -0.3330 H   0  0  0  0  0  0  0  0  0  0  0  0
   -6.6302    2.2545   -1.9170 H   0  0  0  0  0  0  0  0  0  0  0  0
   -4.5443    2.6199   -2.8697 H   0  0  0  0  0  0  0  0  0  0  0  0
   -2.1939    2.1293   -3.1724 H   0  0  0  0  0  0  0  0  0  0  0  0
   -0.5233   -0.7708   -1.4662 H   0  0  0  0  0  0  0  0  0  0  0  0
    1.6311   -0.0711   -4.9309 H   0  0  0  0  0  0  0  0  0  0  0  0
    3.8874   -1.1049   -4.9154 H   0  0  0  0  0  0  0  0  0  0  0  0
    5.0119   -1.5923   -2.7553 H   0  0  0  0  0  0  0  0  0  0  0  0
    6.0250    1.9781   -0.4540 H   0  0  0  0  0  0  0  0  0  0  0  0
    4.3274    1.6029   -0.7156 H   0  0  0  0  0  0  0  0  0  0  0  0
    4.9640    1.7002    0.9489 H   0  0  0  0  0  0  0  0  0  0  0  0
    5.5272   -0.5655    2.5797 H   0  0  0  0  0  0  0  0  0  0  0  0
    7.5200   -0.9981    3.9675 H   0  0  0  0  0  0  0  0  0  0  0  0
    9.7801   -1.0063    2.9434 H   0  0  0  0  0  0  0  0  0  0  0  0
   10.0439   -0.5709    0.5110 H   0  0  0  0  0  0  0  0  0  0  0  0
    8.0492   -0.1716   -0.8998 H   0  0  0  0  0  0  0  0  0  0  0  0
    1.6074   -0.0112   -0.6162 H   0  0  0  0  0  0  0  0  0  0  0  0
   -2.5179   -1.2216   -0.4813 H   0  0  0  0  0  0  0  0  0  0  0  0
   -7.2164   -1.6914    1.9655 H   0  0  0  0  0  0  0  0  0  0  0  0
   -7.5916   -0.0692    2.5375 H   0  0  0  0  0  0  0  0  0  0  0  0
   -5.3325   -1.8304    3.6712 H   0  0  0  0  0  0  0  0  0  0  0  0
   -6.9191   -1.6162    4.4167 H   0  0  0  0  0  0  0  0  0  0  0  0
   -4.4281    1.6017    4.1390 H   0  0  0  0  0  0  0  0  0  0  0  0
   -6.0331    1.7567    3.4132 H   0  0  0  0  0  0  0  0  0  0  0  0
   -4.2578    1.3307    1.6838 H   0  0  0  0  0  0  0  0  0  0  0  0
   -3.8603   -0.2136    2.4887 H   0  0  0  0  0  0  0  0  0  0  0  0
  1  2  1  0
  2  3  2  0
  3  4  1  0
  4  5  2  0
  5  6  1  0
  6  7  1  0
  7  8  2  0
  7  9  1  0
  9 10  2  0
 10 11  1  0
 11 12  2  0
 12 13  1  0
 13 14  1  0
 14 15  2  0
 14 16  2  0
 14 17  1  0
 17 18  1  0
 17 19  1  0
 19 20  2  0
 20 21  1  0
 21 22  2  0
 22 23  1  0
 23 24  2  0
 13 25  2  0
  5 26  1  0
 26 27  2  0
 27 28  1  0
 28 29  2  0
 28 30  2  0
 28 31  1  0
 31 32  1  0
 32 33  1  0
 33 34  1  0
 34 35  1  0
 35 36  1  0
 27  2  1  0
 36 31  1  0
 25  9  1  0
 24 19  1  0
  1 37  1  0
  1 38  1  0
  1 39  1  0
  3 40  1  0
  4 41  1  0
  6 42  1  0
 10 43  1  0
 11 44  1  0
 12 45  1  0
 18 46  1  0
 18 47  1  0
 18 48  1  0
 20 49  1  0
 21 50  1  0
 22 51  1  0
 23 52  1  0
 24 53  1  0
 25 54  1  0
 26 55  1  0
 32 56  1  0
 32 57  1  0
 33 58  1  0
 33 59  1  0
 35 60  1  0
 35 61  1  0
 36 62  1  0
 36 63  1  0
M  END
$$$$
