
     RDKit          3D

100102  0  0  0  0  0  0  0  0999 V2000
    2.1380    0.9528    1.1848 C   0  0  0  0  0  0  0  0  0  0  0  0
    1.5721    0.5157    0.0416 C   0  0  0  0  0  0  0  0  0  0  0  0
    2.3895   -0.2920   -0.9788 C   0  0  1  0  0  0  0  0  0  0  0  0
    3.7368    0.2501   -1.0199 O   0  0  0  0  0  0  0  0  0  0  0  0
    3.9365    1.2846   -1.8799 C   0  0  0  0  0  0  0  0  0  0  0  0
    3.0944    1.7670   -2.6249 O   0  0  0  0  0  0  0  0  0  0  0  0
    5.3493    1.8036   -1.7715 C   0  0  0  0  0  0  0  0  0  0  0  0
    6.4164    0.7397   -2.0645 C   0  0  0  0  0  0  0  0  0  0  0  0
    6.2937    0.2001   -3.4904 C   0  0  0  0  0  0  0  0  0  0  0  0
    7.8090    1.3345   -1.8537 C   0  0  0  0  0  0  0  0  0  0  0  0
    2.4872   -1.7860   -0.5836 C   0  0  0  0  0  0  0  0  0  0  0  0
    3.4493   -2.4530   -1.4376 O   0  0  0  0  0  0  0  0  0  0  0  0
    4.6342   -2.7942   -0.8717 C   0  0  0  0  0  0  0  0  0  0  0  0
    5.5132   -3.4600   -1.8860 C   0  0  0  0  0  0  0  0  0  0  0  0
    4.9450   -2.6200    0.2998 O   0  0  0  0  0  0  0  0  0  0  0  0
    1.1813   -2.5190   -0.8810 C   0  0  0  0  0  0  0  0  0  0  0  0
    0.6525   -2.3964   -1.9919 O   0  0  0  0  0  0  0  0  0  0  0  0
    0.5468   -3.4062    0.2243 C   0  0  0  0  0  0  0  0  0  0  0  0
    1.6009   -4.3246    0.8666 C   0  0  0  0  0  0  0  0  0  0  0  0
   -0.5036   -4.3232   -0.4406 C   0  0  0  0  0  0  0  0  0  0  0  0
   -0.0411   -2.4810    1.2852 C   0  0  0  0  0  0  0  0  0  0  0  0
   -1.3435   -2.2305    1.5128 C   0  0  0  0  0  0  0  0  0  0  0  0
   -1.8534   -1.2559    2.5550 C   0  0  2  0  0  0  0  0  0  0  0  0
   -2.5456   -2.0466    3.6749 C   0  0  0  0  0  0  0  0  0  0  0  0
   -2.7789   -0.1146    2.0002 C   0  0  2  0  0  0  0  0  0  0  0  0
   -4.1000   -0.6766    1.7759 O   0  0  0  0  0  0  0  0  0  0  0  0
   -5.1491   -0.0993    2.4032 C   0  0  0  0  0  0  0  0  0  0  0  0
   -5.0948    0.8519    3.1655 O   0  0  0  0  0  0  0  0  0  0  0  0
   -6.4074   -0.8060    2.0451 C   0  0  0  0  0  0  0  0  0  0  0  0
   -6.4628   -1.7555    1.0150 C   0  0  0  0  0  0  0  0  0  0  0  0
   -7.6676   -2.3962    0.7174 C   0  0  0  0  0  0  0  0  0  0  0  0
   -8.8186   -2.0900    1.4428 C   0  0  0  0  0  0  0  0  0  0  0  0
   -8.7730   -1.1385    2.4607 C   0  0  0  0  0  0  0  0  0  0  0  0
   -7.5696   -0.4964    2.7620 C   0  0  0  0  0  0  0  0  0  0  0  0
   -2.3119    0.5954    0.6662 C   0  0  1  0  0  0  0  0  0  0  0  0
   -2.4928   -0.3507   -0.3885 O   0  0  0  0  0  0  0  0  0  0  0  0
   -3.1557    1.8409    0.3530 C   0  0  0  0  0  0  0  0  0  0  0  0
   -2.5522    2.9283    1.2338 C   0  0  2  0  0  0  0  0  0  0  0  0
   -3.0185    4.3234    0.8358 C   0  0  0  0  0  0  0  0  0  0  0  0
   -1.0311    2.6812    1.1418 C   0  0  2  0  0  0  0  0  0  0  0  0
   -0.4517    3.5726    0.1827 O   0  0  0  0  0  0  0  0  0  0  0  0
    0.6906    4.2198    0.5429 C   0  0  0  0  0  0  0  0  0  0  0  0
    1.1840    5.0543   -0.5998 C   0  0  0  0  0  0  0  0  0  0  0  0
    1.2493    4.1380    1.6291 O   0  0  0  0  0  0  0  0  0  0  0  0
   -0.8557    1.1698    0.7789 C   0  0  2  0  0  0  0  0  0  0  0  0
    0.1155    0.7656   -0.3741 C   0  0  1  0  0  0  0  0  0  0  0  0
    0.2010    1.7350   -1.4335 O   0  0  0  0  0  0  0  0  0  0  0  0
   -0.6929    1.6751   -2.4472 C   0  0  0  0  0  0  0  0  0  0  0  0
   -0.4156    2.7499   -3.4505 C   0  0  0  0  0  0  0  0  0  0  0  0
   -1.6294    0.8914   -2.5196 O   0  0  0  0  0  0  0  0  0  0  0  0
    3.1799    0.7472    1.4194 H   0  0  0  0  0  0  0  0  0  0  0  0
    1.6115    1.5508    1.9208 H   0  0  0  0  0  0  0  0  0  0  0  0
    1.9543   -0.2127   -1.9823 H   0  0  0  0  0  0  0  0  0  0  0  0
    5.4736    2.2148   -0.7614 H   0  0  0  0  0  0  0  0  0  0  0  0
    5.4515    2.6428   -2.4715 H   0  0  0  0  0  0  0  0  0  0  0  0
    6.2984   -0.0995   -1.3700 H   0  0  0  0  0  0  0  0  0  0  0  0
    6.3777    1.0051   -4.2298 H   0  0  0  0  0  0  0  0  0  0  0  0
    7.0836   -0.5325   -3.6984 H   0  0  0  0  0  0  0  0  0  0  0  0
    5.3322   -0.3013   -3.6443 H   0  0  0  0  0  0  0  0  0  0  0  0
    7.9886    2.1745   -2.5327 H   0  0  0  0  0  0  0  0  0  0  0  0
    8.5846    0.5821   -2.0339 H   0  0  0  0  0  0  0  0  0  0  0  0
    7.9270    1.6965   -0.8265 H   0  0  0  0  0  0  0  0  0  0  0  0
    2.7515   -1.8772    0.4727 H   0  0  0  0  0  0  0  0  0  0  0  0
    5.0838   -4.4244   -2.1695 H   0  0  0  0  0  0  0  0  0  0  0  0
    5.6251   -2.8193   -2.7646 H   0  0  0  0  0  0  0  0  0  0  0  0
    6.5043   -3.6247   -1.4530 H   0  0  0  0  0  0  0  0  0  0  0  0
    2.3292   -3.7741    1.4719 H   0  0  0  0  0  0  0  0  0  0  0  0
    1.1319   -5.0595    1.5295 H   0  0  0  0  0  0  0  0  0  0  0  0
    2.1633   -4.8732    0.1019 H   0  0  0  0  0  0  0  0  0  0  0  0
   -1.2674   -3.7550   -0.9829 H   0  0  0  0  0  0  0  0  0  0  0  0
   -1.0141   -4.9509    0.2983 H   0  0  0  0  0  0  0  0  0  0  0  0
   -0.0286   -4.9889   -1.1710 H   0  0  0  0  0  0  0  0  0  0  0  0
    0.6863   -1.9717    1.9188 H   0  0  0  0  0  0  0  0  0  0  0  0
   -2.1173   -2.7065    0.9113 H   0  0  0  0  0  0  0  0  0  0  0  0
   -0.9867   -0.7704    3.0236 H   0  0  0  0  0  0  0  0  0  0  0  0
   -3.3904   -2.6376    3.3042 H   0  0  0  0  0  0  0  0  0  0  0  0
   -1.8432   -2.7415    4.1495 H   0  0  0  0  0  0  0  0  0  0  0  0
   -2.9173   -1.3730    4.4536 H   0  0  0  0  0  0  0  0  0  0  0  0
   -2.8242    0.6315    2.8024 H   0  0  0  0  0  0  0  0  0  0  0  0
   -5.5777   -2.0010    0.4327 H   0  0  0  0  0  0  0  0  0  0  0  0
   -7.7081   -3.1337   -0.0807 H   0  0  0  0  0  0  0  0  0  0  0  0
   -9.7548   -2.5927    1.2107 H   0  0  0  0  0  0  0  0  0  0  0  0
   -9.6716   -0.8974    3.0229 H   0  0  0  0  0  0  0  0  0  0  0  0
   -7.5399    0.2441    3.5595 H   0  0  0  0  0  0  0  0  0  0  0  0
   -2.3783    0.0807   -1.2601 H   0  0  0  0  0  0  0  0  0  0  0  0
   -3.0716    2.1127   -0.7063 H   0  0  0  0  0  0  0  0  0  0  0  0
   -4.2233    1.6977    0.5438 H   0  0  0  0  0  0  0  0  0  0  0  0
   -2.8666    2.7577    2.2711 H   0  0  0  0  0  0  0  0  0  0  0  0
   -2.8107    4.5370   -0.2182 H   0  0  0  0  0  0  0  0  0  0  0  0
   -2.5224    5.0848    1.4478 H   0  0  0  0  0  0  0  0  0  0  0  0
   -4.0993    4.4200    0.9863 H   0  0  0  0  0  0  0  0  0  0  0  0
   -0.6108    2.8623    2.1403 H   0  0  0  0  0  0  0  0  0  0  0  0
    0.3842    5.7109   -0.9569 H   0  0  0  0  0  0  0  0  0  0  0  0
    1.5396    4.4041   -1.4048 H   0  0  0  0  0  0  0  0  0  0  0  0
    2.0139    5.6793   -0.2569 H   0  0  0  0  0  0  0  0  0  0  0  0
   -0.4447    0.7165    1.6832 H   0  0  0  0  0  0  0  0  0  0  0  0
   -0.2195   -0.1866   -0.7919 H   0  0  0  0  0  0  0  0  0  0  0  0
    0.6503    2.7775   -3.6909 H   0  0  0  0  0  0  0  0  0  0  0  0
   -0.9622    2.5331   -4.3708 H   0  0  0  0  0  0  0  0  0  0  0  0
   -0.7454    3.7134   -3.0544 H   0  0  0  0  0  0  0  0  0  0  0  0
  1  2  2  0
  2  3  1  0
  3  4  1  0
  4  5  1  0
  5  6  2  0
  5  7  1  0
  7  8  1  0
  8  9  1  0
  8 10  1  0
  3 11  1  0
 11 12  1  0
 12 13  1  0
 13 14  1  0
 13 15  2  0
 11 16  1  0
 16 17  2  0
 16 18  1  0
 18 19  1  0
 18 20  1  0
 18 21  1  0
 21 22  2  0
 22 23  1  0
 23 24  1  0
 23 25  1  0
 25 26  1  0
 26 27  1  0
 27 28  2  0
 27 29  1  0
 29 30  2  0
 30 31  1  0
 31 32  2  0
 32 33  1  0
 33 34  2  0
 25 35  1  0
 35 36  1  6
 35 37  1  0
 37 38  1  0
 38 39  1  0
 38 40  1  0
 40 41  1  0
 41 42  1  0
 42 43  1  0
 42 44  2  0
 40 45  1  0
 45 46  1  0
 46 47  1  0
 47 48  1  0
 48 49  1  0
 48 50  2  0
 46  2  1  0
 34 29  1  0
 45 35  1  0
  1 51  1  0
  1 52  1  0
  3 53  1  6
  7 54  1  0
  7 55  1  0
  8 56  1  0
  9 57  1  0
  9 58  1  0
  9 59  1  0
 10 60  1  0
 10 61  1  0
 10 62  1  0
 11 63  1  0
 14 64  1  0
 14 65  1  0
 14 66  1  0
 19 67  1  0
 19 68  1  0
 19 69  1  0
 20 70  1  0
 20 71  1  0
 20 72  1  0
 21 73  1  0
 22 74  1  0
 23 75  1  1
 24 76  1  0
 24 77  1  0
 24 78  1  0
 25 79  1  1
 30 80  1  0
 31 81  1  0
 32 82  1  0
 33 83  1  0
 34 84  1  0
 36 85  1  0
 37 86  1  0
 37 87  1  0
 38 88  1  1
 39 89  1  0
 39 90  1  0
 39 91  1  0
 40 92  1  1
 43 93  1  0
 43 94  1  0
 43 95  1  0
 45 96  1  1
 46 97  1  6
 49 98  1  0
 49 99  1  0
 49100  1  0
M  END
$$$$
