
     RDKit          3D

 33 35  0  0  0  0  0  0  0  0999 V2000
    6.0269    0.5661    0.6313 C   0  0  0  0  0  0  0  0  0  0  0  0
    4.6080    0.1789    0.5544 N   0  0  0  0  0  4  0  0  0  0  0  0
    3.8995    0.4548   -0.5631 C   0  0  0  0  0  0  0  0  0  0  0  0
    2.5609    0.0922   -0.6605 C   0  0  0  0  0  0  0  0  0  0  0  0
    1.9421   -0.5600    0.4050 C   0  0  0  0  0  0  0  0  0  0  0  0
    0.5414   -0.9913    0.3478 C   0  0  0  0  0  0  0  0  0  0  0  0
   -0.4551   -0.2229   -0.1254 C   0  0  0  0  0  0  0  0  0  0  0  0
   -1.8363   -0.5893   -0.2014 C   0  0  0  0  0  0  0  0  0  0  0  0
   -2.3737   -1.8195    0.1129 C   0  0  0  0  0  0  0  0  0  0  0  0
   -3.7269   -1.7583   -0.1010 N   0  0  0  0  0  0  0  0  0  0  0  0
   -4.0829   -0.5085   -0.5513 C   0  0  0  0  0  0  0  0  0  0  0  0
   -5.3429   -0.0035   -0.8947 C   0  0  0  0  0  0  0  0  0  0  0  0
   -5.4146    1.3229   -1.3278 C   0  0  0  0  0  0  0  0  0  0  0  0
   -4.2706    2.1112   -1.4130 C   0  0  0  0  0  0  0  0  0  0  0  0
   -3.0180    1.5906   -1.0660 C   0  0  0  0  0  0  0  0  0  0  0  0
   -2.9144    0.2526   -0.6255 C   0  0  0  0  0  0  0  0  0  0  0  0
    2.7003   -0.8564    1.5359 C   0  0  0  0  0  0  0  0  0  0  0  0
    4.0355   -0.4726    1.5911 C   0  0  0  0  0  0  0  0  0  0  0  0
    6.6148   -0.2654    0.2350 H   0  0  0  0  0  0  0  0  0  0  0  0
    6.1837    1.4716    0.0394 H   0  0  0  0  0  0  0  0  0  0  0  0
    6.2878    0.7663    1.6737 H   0  0  0  0  0  0  0  0  0  0  0  0
    4.4133    0.9605   -1.3759 H   0  0  0  0  0  0  0  0  0  0  0  0
    2.0131    0.3110   -1.5755 H   0  0  0  0  0  0  0  0  0  0  0  0
    0.3325   -1.9845    0.7386 H   0  0  0  0  0  0  0  0  0  0  0  0
   -0.2215    0.7797   -0.4767 H   0  0  0  0  0  0  0  0  0  0  0  0
   -1.9286   -2.7393    0.4659 H   0  0  0  0  0  0  0  0  0  0  0  0
   -4.3774   -2.5181    0.0463 H   0  0  0  0  0  0  0  0  0  0  0  0
   -6.2380   -0.6141   -0.8293 H   0  0  0  0  0  0  0  0  0  0  0  0
   -6.3797    1.7443   -1.6014 H   0  0  0  0  0  0  0  0  0  0  0  0
   -4.3509    3.1414   -1.7516 H   0  0  0  0  0  0  0  0  0  0  0  0
   -2.1383    2.2217   -1.1373 H   0  0  0  0  0  0  0  0  0  0  0  0
    2.2558   -1.3776    2.3822 H   0  0  0  0  0  0  0  0  0  0  0  0
    4.6539   -0.6846    2.4590 H   0  0  0  0  0  0  0  0  0  0  0  0
  1  2  1  0
  2  3  2  0
  3  4  1  0
  4  5  2  0
  5  6  1  0
  6  7  2  3
  7  8  1  0
  8  9  2  0
  9 10  1  0
 10 11  1  0
 11 12  2  0
 12 13  1  0
 13 14  2  0
 14 15  1  0
 15 16  2  0
  5 17  1  0
 17 18  2  0
 18  2  1  0
 16  8  1  0
 16 11  1  0
  1 19  1  0
  1 20  1  0
  1 21  1  0
  3 22  1  0
  4 23  1  0
  6 24  1  0
  7 25  1  0
  9 26  1  0
 10 27  1  0
 12 28  1  0
 13 29  1  0
 14 30  1  0
 15 31  1  0
 17 32  1  0
 18 33  1  0
M  CHG  1   2   1
M  END
$$$$
