
     RDKit          3D

 53 56  0  0  0  0  0  0  0  0999 V2000
   -9.2477   -1.6257    0.6610 C   0  0  0  0  0  0  0  0  0  0  0  0
   -8.3985   -1.2331   -0.4097 O   0  0  0  0  0  0  0  0  0  0  0  0
   -7.2492   -0.5696   -0.0803 C   0  0  0  0  0  0  0  0  0  0  0  0
   -6.8409   -0.2288    1.2089 C   0  0  0  0  0  0  0  0  0  0  0  0
   -5.6386    0.4554    1.4060 C   0  0  0  0  0  0  0  0  0  0  0  0
   -4.8355    0.8006    0.3172 C   0  0  0  0  0  0  0  0  0  0  0  0
   -5.2303    0.4557   -0.9794 C   0  0  0  0  0  0  0  0  0  0  0  0
   -4.4200    0.8046   -2.1851 C   0  0  0  0  0  0  0  0  0  0  0  0
   -4.9501    0.7736   -3.2969 O   0  0  0  0  0  0  0  0  0  0  0  0
   -2.9724    1.2481   -2.0227 C   0  0  0  0  0  0  0  0  0  0  0  0
   -2.2503    0.3473   -1.1955 O   0  0  0  0  0  0  0  0  0  0  0  0
   -0.9527    0.6648   -0.9123 C   0  0  0  0  0  0  0  0  0  0  0  0
   -0.2235    1.7164   -1.4630 C   0  0  0  0  0  0  0  0  0  0  0  0
    1.1117    1.9299   -1.0827 C   0  0  0  0  0  0  0  0  0  0  0  0
    1.7459    1.1008   -0.1460 C   0  0  0  0  0  0  0  0  0  0  0  0
    3.1501    1.2627    0.2855 C   0  0  0  0  0  0  0  0  0  0  0  0
    3.9251    2.3942   -0.3415 C   0  0  0  0  0  0  0  0  0  0  0  0
    3.6651    0.3952    1.1881 C   0  0  0  0  0  0  0  0  0  0  0  0
    5.0872    0.4143    1.7150 C   0  0  0  0  0  0  0  0  0  0  0  0
    6.0158   -0.5202    0.9662 C   0  0  0  0  0  0  0  0  0  0  0  0
    6.7223   -0.0829   -0.1635 C   0  0  0  0  0  0  0  0  0  0  0  0
    7.5633   -0.9547   -0.8585 C   0  0  0  0  0  0  0  0  0  0  0  0
    7.7071   -2.2737   -0.4344 C   0  0  0  0  0  0  0  0  0  0  0  0
    7.0111   -2.7218    0.6854 C   0  0  0  0  0  0  0  0  0  0  0  0
    6.1707   -1.8512    1.3815 C   0  0  0  0  0  0  0  0  0  0  0  0
    2.8204   -0.6690    1.8074 C   0  0  0  0  0  0  0  0  0  0  0  0
    3.2321   -1.3848    2.7153 O   0  0  0  0  0  0  0  0  0  0  0  0
    1.5301   -0.8185    1.3329 O   0  0  0  0  0  0  0  0  0  0  0  0
    0.9932    0.0592    0.3829 C   0  0  0  0  0  0  0  0  0  0  0  0
   -0.3344   -0.1704    0.0138 C   0  0  0  0  0  0  0  0  0  0  0  0
   -6.4431   -0.2220   -1.1682 C   0  0  0  0  0  0  0  0  0  0  0  0
   -9.6231   -0.7536    1.2067 H   0  0  0  0  0  0  0  0  0  0  0  0
  -10.1093   -2.1455    0.2312 H   0  0  0  0  0  0  0  0  0  0  0  0
   -8.7385   -2.3243    1.3332 H   0  0  0  0  0  0  0  0  0  0  0  0
   -7.4348   -0.4788    2.0820 H   0  0  0  0  0  0  0  0  0  0  0  0
   -5.3269    0.7198    2.4142 H   0  0  0  0  0  0  0  0  0  0  0  0
   -3.9117    1.3380    0.5099 H   0  0  0  0  0  0  0  0  0  0  0  0
   -2.5256    1.2585   -3.0246 H   0  0  0  0  0  0  0  0  0  0  0  0
   -2.9768    2.2639   -1.6091 H   0  0  0  0  0  0  0  0  0  0  0  0
   -0.6526    2.3878   -2.2006 H   0  0  0  0  0  0  0  0  0  0  0  0
    1.6371    2.7599   -1.5484 H   0  0  0  0  0  0  0  0  0  0  0  0
    4.9461    2.4924    0.0288 H   0  0  0  0  0  0  0  0  0  0  0  0
    3.9977    2.2558   -1.4260 H   0  0  0  0  0  0  0  0  0  0  0  0
    3.4366    3.3538   -0.1378 H   0  0  0  0  0  0  0  0  0  0  0  0
    5.5088    1.4255    1.6978 H   0  0  0  0  0  0  0  0  0  0  0  0
    5.1084    0.1646    2.7844 H   0  0  0  0  0  0  0  0  0  0  0  0
    6.6301    0.9416   -0.5125 H   0  0  0  0  0  0  0  0  0  0  0  0
    8.1068   -0.6043   -1.7321 H   0  0  0  0  0  0  0  0  0  0  0  0
    8.3606   -2.9524   -0.9759 H   0  0  0  0  0  0  0  0  0  0  0  0
    7.1192   -3.7507    1.0188 H   0  0  0  0  0  0  0  0  0  0  0  0
    5.6344   -2.2223    2.2536 H   0  0  0  0  0  0  0  0  0  0  0  0
   -0.8824   -1.0006    0.4517 H   0  0  0  0  0  0  0  0  0  0  0  0
   -6.7682   -0.4886   -2.1729 H   0  0  0  0  0  0  0  0  0  0  0  0
  1  2  1  0
  2  3  1  0
  3  4  2  0
  4  5  1  0
  5  6  2  0
  6  7  1  0
  7  8  1  0
  8  9  2  0
  8 10  1  0
 10 11  1  0
 11 12  1  0
 12 13  2  0
 13 14  1  0
 14 15  2  0
 15 16  1  0
 16 17  1  0
 16 18  2  0
 18 19  1  0
 19 20  1  0
 20 21  2  0
 21 22  1  0
 22 23  2  0
 23 24  1  0
 24 25  2  0
 18 26  1  0
 26 27  2  0
 26 28  1  0
 28 29  1  0
 29 30  2  0
  7 31  2  0
 31  3  1  0
 30 12  1  0
 29 15  1  0
 25 20  1  0
  1 32  1  0
  1 33  1  0
  1 34  1  0
  4 35  1  0
  5 36  1  0
  6 37  1  0
 10 38  1  0
 10 39  1  0
 13 40  1  0
 14 41  1  0
 17 42  1  0
 17 43  1  0
 17 44  1  0
 19 45  1  0
 19 46  1  0
 21 47  1  0
 22 48  1  0
 23 49  1  0
 24 50  1  0
 25 51  1  0
 30 52  1  0
 31 53  1  0
M  END
$$$$
