
     RDKit          3D

 43 45  0  0  0  0  0  0  0  0999 V2000
    1.5894    2.1888   -1.3795 O   0  0  0  0  0  0  0  0  0  0  0  0
    1.9476    1.2889   -0.6240 C   0  0  0  0  0  0  0  0  0  0  0  0
    3.4211    1.1050   -0.2854 C   0  0  0  0  0  0  0  0  0  0  0  0
    3.9381   -0.6268   -0.5461 S   0  0  0  0  0  0  0  0  0  0  0  0
    5.6464   -0.5020   -0.0482 C   0  0  0  0  0  0  0  0  0  0  0  0
    6.6490   -0.7883   -0.9804 C   0  0  0  0  0  0  0  0  0  0  0  0
    7.9969   -0.7112   -0.6159 C   0  0  0  0  0  0  0  0  0  0  0  0
    8.3526   -0.3622    0.6873 C   0  0  0  0  0  0  0  0  0  0  0  0
    7.3601   -0.0864    1.6262 C   0  0  0  0  0  0  0  0  0  0  0  0
    6.0196   -0.1592    1.2553 C   0  0  0  0  0  0  0  0  0  0  0  0
    5.0869    0.1098    2.1817 F   0  0  0  0  0  0  0  0  0  0  0  0
    1.1206    0.4096    0.0575 N   0  0  0  0  0  0  0  0  0  0  0  0
   -0.2841    0.3357    0.0205 C   0  0  0  0  0  0  0  0  0  0  0  0
   -0.8923   -0.6779    0.7622 C   0  0  0  0  0  0  0  0  0  0  0  0
   -2.2884   -0.8153    0.7801 C   0  0  0  0  0  0  0  0  0  0  0  0
   -3.1290    0.0419    0.0570 C   0  0  0  0  0  0  0  0  0  0  0  0
   -4.5045   -0.0941    0.0726 N   0  0  0  0  0  0  0  0  0  0  0  0
   -5.3476    0.4291   -1.0161 C   0  0  0  0  0  0  0  0  0  0  0  0
   -6.6058   -0.4421   -1.1765 C   0  0  0  0  0  0  0  0  0  0  0  0
   -7.4172   -0.5230    0.0036 O   0  0  0  0  0  0  0  0  0  0  0  0
   -6.6642   -0.3969    1.2180 C   0  0  0  0  0  0  0  0  0  0  0  0
   -5.2056   -0.8708    1.1057 C   0  0  0  0  0  0  0  0  0  0  0  0
   -2.4929    1.0533   -0.6777 C   0  0  0  0  0  0  0  0  0  0  0  0
   -1.0960    1.2049   -0.6974 C   0  0  0  0  0  0  0  0  0  0  0  0
    4.0154    1.7537   -0.9363 H   0  0  0  0  0  0  0  0  0  0  0  0
    3.5713    1.4097    0.7544 H   0  0  0  0  0  0  0  0  0  0  0  0
    6.3913   -1.0702   -1.9993 H   0  0  0  0  0  0  0  0  0  0  0  0
    8.7698   -0.9284   -1.3497 H   0  0  0  0  0  0  0  0  0  0  0  0
    9.4013   -0.3077    0.9690 H   0  0  0  0  0  0  0  0  0  0  0  0
    7.6203    0.1847    2.6441 H   0  0  0  0  0  0  0  0  0  0  0  0
    1.5945   -0.3162    0.5840 H   0  0  0  0  0  0  0  0  0  0  0  0
   -0.2976   -1.3810    1.3395 H   0  0  0  0  0  0  0  0  0  0  0  0
   -2.7038   -1.6330    1.3628 H   0  0  0  0  0  0  0  0  0  0  0  0
   -5.6349    1.4596   -0.7768 H   0  0  0  0  0  0  0  0  0  0  0  0
   -4.8134    0.4246   -1.9742 H   0  0  0  0  0  0  0  0  0  0  0  0
   -6.3247   -1.4653   -1.4531 H   0  0  0  0  0  0  0  0  0  0  0  0
   -7.2358   -0.0499   -1.9810 H   0  0  0  0  0  0  0  0  0  0  0  0
   -6.6978    0.6567    1.5183 H   0  0  0  0  0  0  0  0  0  0  0  0
   -7.1854   -0.9707    1.9892 H   0  0  0  0  0  0  0  0  0  0  0  0
   -4.7312   -0.7412    2.0847 H   0  0  0  0  0  0  0  0  0  0  0  0
   -5.1789   -1.9324    0.8358 H   0  0  0  0  0  0  0  0  0  0  0  0
   -3.0772    1.7762   -1.2400 H   0  0  0  0  0  0  0  0  0  0  0  0
   -0.6841    2.0198   -1.2847 H   0  0  0  0  0  0  0  0  0  0  0  0
  1  2  2  0
  2  3  1  0
  3  4  1  0
  4  5  1  0
  5  6  2  0
  6  7  1  0
  7  8  2  0
  8  9  1  0
  9 10  2  0
 10 11  1  0
  2 12  1  0
 12 13  1  0
 13 14  2  0
 14 15  1  0
 15 16  2  0
 16 17  1  0
 17 18  1  0
 18 19  1  0
 19 20  1  0
 20 21  1  0
 21 22  1  0
 16 23  1  0
 23 24  2  0
 10  5  1  0
 24 13  1  0
 22 17  1  0
  3 25  1  0
  3 26  1  0
  6 27  1  0
  7 28  1  0
  8 29  1  0
  9 30  1  0
 12 31  1  0
 14 32  1  0
 15 33  1  0
 18 34  1  0
 18 35  1  0
 19 36  1  0
 19 37  1  0
 21 38  1  0
 21 39  1  0
 22 40  1  0
 22 41  1  0
 23 42  1  0
 24 43  1  0
M  END
$$$$
