
     RDKit          3D

 51 55  0  0  0  0  0  0  0  0999 V2000
    5.9322    1.3856   -2.6528 C   0  0  0  0  0  0  0  0  0  0  0  0
    4.6353    1.8922   -2.5920 C   0  0  0  0  0  0  0  0  0  0  0  0
    3.8463    1.6603   -1.4645 C   0  0  0  0  0  0  0  0  0  0  0  0
    4.3506    0.9217   -0.3854 C   0  0  0  0  0  0  0  0  0  0  0  0
    3.4888    0.6523    0.8256 C   0  0  0  0  0  0  0  0  0  0  0  0
    2.6084   -0.5939    0.6248 C   0  0  0  0  0  0  0  0  0  0  0  0
    1.7992   -0.9259    1.8122 N   0  0  0  0  0  0  0  0  0  0  0  0
    1.1338   -2.2393    1.6643 C   0  0  0  0  0  0  0  0  0  0  0  0
   -0.2617   -2.2116    1.0014 C   0  0  0  0  0  0  0  0  0  0  0  0
   -1.1872   -1.2477    1.6419 N   0  0  0  0  0  0  0  0  0  0  0  0
   -2.1745   -0.6786    0.8335 C   0  0  0  0  0  0  0  0  0  0  0  0
   -2.2365    0.6262    0.7320 N   0  0  0  0  0  0  0  0  0  0  0  0
   -3.1861    1.2399   -0.1073 C   0  0  0  0  0  0  0  0  0  0  0  0
   -3.1999    2.6340   -0.1842 C   0  0  0  0  0  0  0  0  0  0  0  0
   -4.1128    3.2942   -1.0112 C   0  0  0  0  0  0  0  0  0  0  0  0
   -5.0240    2.5618   -1.7728 C   0  0  0  0  0  0  0  0  0  0  0  0
   -5.0285    1.1678   -1.7112 C   0  0  0  0  0  0  0  0  0  0  0  0
   -4.1090    0.5217   -0.8795 C   0  0  0  0  0  0  0  0  0  0  0  0
   -4.0529   -0.8749   -0.7466 N   0  0  0  0  0  0  0  0  0  0  0  0
   -4.8279   -1.8413   -1.3432 C   0  0  0  0  0  0  0  0  0  0  0  0
   -4.4437   -3.0678   -0.8470 C   0  0  0  0  0  0  0  0  0  0  0  0
   -3.3911   -2.8373    0.0692 C   0  0  0  0  0  0  0  0  0  0  0  0
   -3.1381   -1.4770    0.0896 C   0  0  0  0  0  0  0  0  0  0  0  0
   -0.5321   -0.3938    2.6555 C   0  0  0  0  0  0  0  0  0  0  0  0
    0.8086    0.1400    2.1144 C   0  0  0  0  0  0  0  0  0  0  0  0
    5.6538    0.4122   -0.4585 C   0  0  0  0  0  0  0  0  0  0  0  0
    6.4411    0.6456   -1.5871 C   0  0  0  0  0  0  0  0  0  0  0  0
    6.5461    1.5672   -3.5310 H   0  0  0  0  0  0  0  0  0  0  0  0
    4.2373    2.4682   -3.4233 H   0  0  0  0  0  0  0  0  0  0  0  0
    2.8348    2.0597   -1.4321 H   0  0  0  0  0  0  0  0  0  0  0  0
    4.1288    0.5217    1.7078 H   0  0  0  0  0  0  0  0  0  0  0  0
    2.8781    1.5414    1.0246 H   0  0  0  0  0  0  0  0  0  0  0  0
    1.9666   -0.4692   -0.2577 H   0  0  0  0  0  0  0  0  0  0  0  0
    3.2759   -1.4381    0.4058 H   0  0  0  0  0  0  0  0  0  0  0  0
    1.7788   -2.9501    1.1327 H   0  0  0  0  0  0  0  0  0  0  0  0
    1.0251   -2.6606    2.6728 H   0  0  0  0  0  0  0  0  0  0  0  0
   -0.1403   -1.9609   -0.0600 H   0  0  0  0  0  0  0  0  0  0  0  0
   -0.6885   -3.2172    1.0626 H   0  0  0  0  0  0  0  0  0  0  0  0
   -2.4907    3.2072    0.4069 H   0  0  0  0  0  0  0  0  0  0  0  0
   -4.1109    4.3801   -1.0591 H   0  0  0  0  0  0  0  0  0  0  0  0
   -5.7332    3.0798   -2.4141 H   0  0  0  0  0  0  0  0  0  0  0  0
   -5.7486    0.6202   -2.3099 H   0  0  0  0  0  0  0  0  0  0  0  0
   -5.6015   -1.5928   -2.0549 H   0  0  0  0  0  0  0  0  0  0  0  0
   -4.8837   -4.0219   -1.1075 H   0  0  0  0  0  0  0  0  0  0  0  0
   -2.8801   -3.5873    0.6565 H   0  0  0  0  0  0  0  0  0  0  0  0
   -0.3672   -0.9843    3.5656 H   0  0  0  0  0  0  0  0  0  0  0  0
   -1.1767    0.4390    2.9606 H   0  0  0  0  0  0  0  0  0  0  0  0
    1.2494    0.8164    2.8553 H   0  0  0  0  0  0  0  0  0  0  0  0
    0.5934    0.7356    1.2175 H   0  0  0  0  0  0  0  0  0  0  0  0
    6.0632   -0.1696    0.3644 H   0  0  0  0  0  0  0  0  0  0  0  0
    7.4520    0.2493   -1.6346 H   0  0  0  0  0  0  0  0  0  0  0  0
  1  2  2  0
  2  3  1  0
  3  4  2  0
  4  5  1  0
  5  6  1  0
  6  7  1  0
  7  8  1  0
  8  9  1  0
  9 10  1  0
 10 11  1  0
 11 12  2  0
 12 13  1  0
 13 14  2  0
 14 15  1  0
 15 16  2  0
 16 17  1  0
 17 18  2  0
 18 19  1  0
 19 20  1  0
 20 21  2  0
 21 22  1  0
 22 23  2  0
 10 24  1  0
 24 25  1  0
  4 26  1  0
 26 27  2  0
 27  1  1  0
 25  7  1  0
 23 11  1  0
 18 13  1  0
 23 19  1  0
  1 28  1  0
  2 29  1  0
  3 30  1  0
  5 31  1  0
  5 32  1  0
  6 33  1  0
  6 34  1  0
  8 35  1  0
  8 36  1  0
  9 37  1  0
  9 38  1  0
 14 39  1  0
 15 40  1  0
 16 41  1  0
 17 42  1  0
 20 43  1  0
 21 44  1  0
 22 45  1  0
 24 46  1  0
 24 47  1  0
 25 48  1  0
 25 49  1  0
 26 50  1  0
 27 51  1  0
M  END
$$$$
