
     RDKit          3D

 46 49  0  0  0  0  0  0  0  0999 V2000
   -6.8608    2.2765   -0.0404 C   0  0  0  0  0  0  0  0  0  0  0  0
   -6.2088    1.2132   -0.7237 O   0  0  0  0  0  0  0  0  0  0  0  0
   -4.9546    0.8794   -0.2947 C   0  0  0  0  0  0  0  0  0  0  0  0
   -4.3461   -0.1501   -1.0154 C   0  0  0  0  0  0  0  0  0  0  0  0
   -3.0629   -0.5947   -0.6849 C   0  0  0  0  0  0  0  0  0  0  0  0
   -2.3702   -0.0049    0.3784 C   0  0  0  0  0  0  0  0  0  0  0  0
   -1.0649   -0.4642    0.7197 N   0  0  0  0  0  0  0  0  0  0  0  0
    0.0506    0.2827    1.0871 C   0  0  0  0  0  0  0  0  0  0  0  0
    0.1502    2.0211    1.0157 S   0  0  0  0  0  0  0  0  0  0  0  0
    1.7914    2.3262    1.7300 C   0  0  0  0  0  0  0  0  0  0  0  0
    2.9003    2.2648    0.6899 C   0  0  0  0  0  0  0  0  0  0  0  0
    3.6671    3.2148    0.5412 O   0  0  0  0  0  0  0  0  0  0  0  0
    3.0233    1.0475    0.0603 N   0  0  0  0  0  0  0  0  0  0  0  0
    3.9886    0.6964   -0.8869 C   0  0  0  0  0  0  0  0  0  0  0  0
    4.4239   -0.5801   -0.7264 N   0  0  0  0  0  0  0  0  0  0  0  0
    5.3954   -1.0209   -1.5613 C   0  0  0  0  0  0  0  0  0  0  0  0
    5.9393   -0.2569   -2.5786 C   0  0  0  0  0  0  0  0  0  0  0  0
    7.1636   -0.8910   -3.5990 Cl  0  0  0  0  0  0  0  0  0  0  0  0
    5.4460    1.0251   -2.7754 C   0  0  0  0  0  0  0  0  0  0  0  0
    4.4429    1.5138   -1.9320 C   0  0  0  0  0  0  0  0  0  0  0  0
    3.7182    3.0144   -2.3881 Cl  0  0  0  0  0  0  0  0  0  0  0  0
    1.1017   -0.4648    1.3424 N   0  0  0  0  0  0  0  0  0  0  0  0
    0.6870   -1.7499    1.1344 C   0  0  0  0  0  0  0  0  0  0  0  0
    1.4242   -2.9371    1.2642 C   0  0  0  0  0  0  0  0  0  0  0  0
    0.7874   -4.1595    1.0324 C   0  0  0  0  0  0  0  0  0  0  0  0
   -0.5619   -4.2000    0.6890 C   0  0  0  0  0  0  0  0  0  0  0  0
   -1.3106   -3.0251    0.5512 C   0  0  0  0  0  0  0  0  0  0  0  0
   -0.6523   -1.7982    0.7516 C   0  0  0  0  0  0  0  0  0  0  0  0
   -2.9784    1.0262    1.1038 C   0  0  0  0  0  0  0  0  0  0  0  0
   -4.2658    1.4649    0.7670 C   0  0  0  0  0  0  0  0  0  0  0  0
   -6.2985    3.2113   -0.1359 H   0  0  0  0  0  0  0  0  0  0  0  0
   -7.0319    2.0229    1.0109 H   0  0  0  0  0  0  0  0  0  0  0  0
   -7.8378    2.4263   -0.5099 H   0  0  0  0  0  0  0  0  0  0  0  0
   -4.8744   -0.6039   -1.8511 H   0  0  0  0  0  0  0  0  0  0  0  0
   -2.6119   -1.3681   -1.3016 H   0  0  0  0  0  0  0  0  0  0  0  0
    2.0170    1.6456    2.5571 H   0  0  0  0  0  0  0  0  0  0  0  0
    1.7778    3.3411    2.1420 H   0  0  0  0  0  0  0  0  0  0  0  0
    2.6412    0.2462    0.5620 H   0  0  0  0  0  0  0  0  0  0  0  0
    5.7296   -2.0386   -1.3790 H   0  0  0  0  0  0  0  0  0  0  0  0
    5.8159    1.6330   -3.5966 H   0  0  0  0  0  0  0  0  0  0  0  0
    2.4715   -2.8993    1.5459 H   0  0  0  0  0  0  0  0  0  0  0  0
    1.3489   -5.0853    1.1340 H   0  0  0  0  0  0  0  0  0  0  0  0
   -1.0461   -5.1623    0.5326 H   0  0  0  0  0  0  0  0  0  0  0  0
   -2.3680   -3.0818    0.3134 H   0  0  0  0  0  0  0  0  0  0  0  0
   -2.4947    1.4821    1.9642 H   0  0  0  0  0  0  0  0  0  0  0  0
   -4.7025    2.2615    1.3606 H   0  0  0  0  0  0  0  0  0  0  0  0
  1  2  1  0
  2  3  1  0
  3  4  2  0
  4  5  1  0
  5  6  2  0
  6  7  1  0
  7  8  1  0
  8  9  1  0
  9 10  1  0
 10 11  1  0
 11 12  2  0
 11 13  1  0
 13 14  1  0
 14 15  2  0
 15 16  1  0
 16 17  2  0
 17 18  1  0
 17 19  1  0
 19 20  2  0
 20 21  1  0
  8 22  2  0
 22 23  1  0
 23 24  2  0
 24 25  1  0
 25 26  2  0
 26 27  1  0
 27 28  2  0
  6 29  1  0
 29 30  2  0
 30  3  1  0
 28  7  1  0
 20 14  1  0
 28 23  1  0
  1 31  1  0
  1 32  1  0
  1 33  1  0
  4 34  1  0
  5 35  1  0
 10 36  1  0
 10 37  1  0
 13 38  1  0
 16 39  1  0
 19 40  1  0
 24 41  1  0
 25 42  1  0
 26 43  1  0
 27 44  1  0
 29 45  1  0
 30 46  1  0
M  END
$$$$
