
     RDKit          3D

 36 38  0  0  0  0  0  0  0  0999 V2000
    4.8416    0.1601   -1.5390 C   0  0  0  0  0  0  0  0  0  0  0  0
    3.8791   -0.1360   -0.4252 C   0  0  0  0  0  0  0  0  0  0  0  0
    4.0487   -1.2763    0.3666 C   0  0  0  0  0  0  0  0  0  0  0  0
    3.1586   -1.5881    1.4001 C   0  0  0  0  0  0  0  0  0  0  0  0
    2.0776   -0.7254    1.6078 C   0  0  0  0  0  0  0  0  0  0  0  0
    1.0729   -0.7741    2.5484 N   0  0  0  0  0  0  0  0  0  0  0  0
    0.2044    0.2718    2.3700 C   0  0  0  0  0  0  0  0  0  0  0  0
    0.6735    1.0271    1.3185 C   0  0  0  0  0  0  0  0  0  0  0  0
    0.0720    2.2286    0.8445 C   0  0  0  0  0  0  0  0  0  0  0  0
   -1.1294    2.3547    0.2545 C   0  0  0  0  0  0  0  0  0  0  0  0
   -2.0479    1.2589   -0.0709 C   0  0  0  0  0  0  0  0  0  0  0  0
   -3.3785    1.3310    0.3315 C   0  0  0  0  0  0  0  0  0  0  0  0
   -4.2479    0.2941    0.0127 C   0  0  0  0  0  0  0  0  0  0  0  0
   -3.8153   -0.7788   -0.6871 N   0  0  0  0  0  4  0  0  0  0  0  0
   -4.7550   -1.8623   -1.0190 C   0  0  0  0  0  0  0  0  0  0  0  0
   -2.5332   -0.8573   -1.1075 C   0  0  0  0  0  0  0  0  0  0  0  0
   -1.6311    0.1563   -0.8153 C   0  0  0  0  0  0  0  0  0  0  0  0
    1.8631    0.4136    0.8306 C   0  0  0  0  0  0  0  0  0  0  0  0
    2.7769    0.7068   -0.2041 C   0  0  0  0  0  0  0  0  0  0  0  0
    4.9148    1.2384   -1.7158 H   0  0  0  0  0  0  0  0  0  0  0  0
    4.5085   -0.3278   -2.4601 H   0  0  0  0  0  0  0  0  0  0  0  0
    5.8470   -0.1968   -1.2919 H   0  0  0  0  0  0  0  0  0  0  0  0
    4.8967   -1.9369    0.1909 H   0  0  0  0  0  0  0  0  0  0  0  0
    3.3154   -2.4665    2.0183 H   0  0  0  0  0  0  0  0  0  0  0  0
    1.0059   -1.4746    3.2744 H   0  0  0  0  0  0  0  0  0  0  0  0
   -0.6449    0.4010    3.0272 H   0  0  0  0  0  0  0  0  0  0  0  0
    0.6671    3.1321    0.9760 H   0  0  0  0  0  0  0  0  0  0  0  0
   -1.4646    3.3515   -0.0277 H   0  0  0  0  0  0  0  0  0  0  0  0
   -3.7410    2.1839    0.9019 H   0  0  0  0  0  0  0  0  0  0  0  0
   -5.2918    0.3141    0.3129 H   0  0  0  0  0  0  0  0  0  0  0  0
   -5.1911   -1.6301   -1.9937 H   0  0  0  0  0  0  0  0  0  0  0  0
   -4.2108   -2.8098   -1.0505 H   0  0  0  0  0  0  0  0  0  0  0  0
   -5.5290   -1.9159   -0.2492 H   0  0  0  0  0  0  0  0  0  0  0  0
   -2.2391   -1.7328   -1.6796 H   0  0  0  0  0  0  0  0  0  0  0  0
   -0.6032    0.0762   -1.1653 H   0  0  0  0  0  0  0  0  0  0  0  0
    2.6299    1.5893   -0.8210 H   0  0  0  0  0  0  0  0  0  0  0  0
  1  2  1  0
  2  3  2  0
  3  4  1  0
  4  5  2  0
  5  6  1  0
  6  7  1  0
  7  8  2  0
  8  9  1  0
  9 10  2  3
 10 11  1  0
 11 12  2  0
 12 13  1  0
 13 14  2  0
 14 15  1  0
 14 16  1  0
 16 17  2  0
  8 18  1  0
 18 19  2  0
 19  2  1  0
 18  5  1  0
 17 11  1  0
  1 20  1  0
  1 21  1  0
  1 22  1  0
  3 23  1  0
  4 24  1  0
  6 25  1  0
  7 26  1  0
  9 27  1  0
 10 28  1  0
 12 29  1  0
 13 30  1  0
 15 31  1  0
 15 32  1  0
 15 33  1  0
 16 34  1  0
 17 35  1  0
 19 36  1  0
M  CHG  1  14   1
M  END
$$$$
