
     RDKit          3D

 60 65  0  0  0  0  0  0  0  0999 V2000
    1.4347   -2.7117    2.7856 O   0  0  0  0  0  0  0  0  0  0  0  0
    1.8946   -2.1685    1.7887 C   0  0  0  0  0  0  0  0  0  0  0  0
    1.2010   -1.1968    1.0769 N   0  0  0  0  0  0  0  0  0  0  0  0
    1.6895   -0.5484   -0.0508 C   0  0  0  0  0  0  0  0  0  0  0  0
    0.7806    0.4950   -0.6973 C   0  0  0  0  0  0  0  0  0  0  0  0
   -0.3805   -0.1690   -1.4434 C   0  0  0  0  0  0  0  0  0  0  0  0
   -1.4600   -0.7496   -0.5266 C   0  0  0  0  0  0  0  0  0  0  0  0
   -1.4816   -0.0502    0.7868 N   0  0  0  0  0  0  0  0  0  0  0  0
   -2.7570   -0.4886    1.8455 S   0  0  0  0  0  6  0  0  0  0  0  0
   -2.5266    0.1908    3.1017 O   0  0  0  0  0  0  0  0  0  0  0  0
   -2.8901   -1.9271    1.7802 O   0  0  0  0  0  0  0  0  0  0  0  0
   -4.1981    0.2332    1.0954 C   0  0  0  0  0  0  0  0  0  0  0  0
   -4.5794    1.5350    1.4416 C   0  0  0  0  0  0  0  0  0  0  0  0
   -5.7209    2.0949    0.8655 C   0  0  0  0  0  0  0  0  0  0  0  0
   -6.4795    1.3513   -0.0379 C   0  0  0  0  0  0  0  0  0  0  0  0
   -6.1212    0.0319   -0.3390 C   0  0  0  0  0  0  0  0  0  0  0  0
   -4.9778   -0.5307    0.2221 C   0  0  0  0  0  0  0  0  0  0  0  0
   -6.8461   -0.7665   -1.1857 O   0  0  0  0  0  0  0  0  0  0  0  0
   -8.1599   -0.2369   -1.4011 C   0  0  0  0  0  0  0  0  0  0  0  0
   -8.0916    1.2512   -1.7025 C   0  0  0  0  0  0  0  0  0  0  0  0
   -7.5737    1.9748   -0.5797 O   0  0  0  0  0  0  0  0  0  0  0  0
   -1.1723    1.3928    0.6876 C   0  0  0  0  0  0  0  0  0  0  0  0
    0.3005    1.5494    0.3129 C   0  0  0  0  0  0  0  0  0  0  0  0
    2.8548   -0.7928   -0.5871 N   0  0  0  0  0  0  0  0  0  0  0  0
    3.5562   -1.7350    0.0898 C   0  0  0  0  0  0  0  0  0  0  0  0
    3.1847   -2.4354    1.2119 C   0  0  0  0  0  0  0  0  0  0  0  0
    4.1682   -3.2998    1.5845 N   0  0  0  0  0  0  0  0  0  0  0  0
    5.1705   -3.1586    0.7166 N   0  0  0  0  0  0  0  0  0  0  0  0
    4.8118   -2.2011   -0.1742 N   0  0  0  0  0  0  0  0  0  0  0  0
    5.6963   -1.8235   -1.2558 C   0  0  0  0  0  0  0  0  0  0  0  0
    6.4854   -0.5840   -0.9152 C   0  0  0  0  0  0  0  0  0  0  0  0
    7.6445   -0.6686   -0.1262 C   0  0  0  0  0  0  0  0  0  0  0  0
    8.3665    0.4815    0.2043 C   0  0  0  0  0  0  0  0  0  0  0  0
    7.9354    1.7277   -0.2462 C   0  0  0  0  0  0  0  0  0  0  0  0
    6.7840    1.8144   -1.0189 C   0  0  0  0  0  0  0  0  0  0  0  0
    6.3644    3.0128   -1.4459 F   0  0  0  0  0  0  0  0  0  0  0  0
    6.0567    0.6768   -1.3547 C   0  0  0  0  0  0  0  0  0  0  0  0
    0.2829   -0.9670    1.4443 H   0  0  0  0  0  0  0  0  0  0  0  0
    1.4026    1.0129   -1.4412 H   0  0  0  0  0  0  0  0  0  0  0  0
   -0.0155   -0.9547   -2.1161 H   0  0  0  0  0  0  0  0  0  0  0  0
   -0.8470    0.5879   -2.0885 H   0  0  0  0  0  0  0  0  0  0  0  0
   -1.2450   -1.8097   -0.3505 H   0  0  0  0  0  0  0  0  0  0  0  0
   -2.4277   -0.6805   -1.0312 H   0  0  0  0  0  0  0  0  0  0  0  0
   -4.0015    2.1143    2.1588 H   0  0  0  0  0  0  0  0  0  0  0  0
   -6.0209    3.1085    1.1199 H   0  0  0  0  0  0  0  0  0  0  0  0
   -4.7138   -1.5592   -0.0123 H   0  0  0  0  0  0  0  0  0  0  0  0
   -8.7691   -0.4401   -0.5116 H   0  0  0  0  0  0  0  0  0  0  0  0
   -8.5998   -0.7749   -2.2467 H   0  0  0  0  0  0  0  0  0  0  0  0
   -7.4530    1.4551   -2.5709 H   0  0  0  0  0  0  0  0  0  0  0  0
   -9.0919    1.6409   -1.9152 H   0  0  0  0  0  0  0  0  0  0  0  0
   -1.8119    1.8595   -0.0710 H   0  0  0  0  0  0  0  0  0  0  0  0
   -1.3472    1.9124    1.6345 H   0  0  0  0  0  0  0  0  0  0  0  0
    0.4392    2.5525   -0.1097 H   0  0  0  0  0  0  0  0  0  0  0  0
    0.9158    1.5217    1.2211 H   0  0  0  0  0  0  0  0  0  0  0  0
    6.3675   -2.6650   -1.4636 H   0  0  0  0  0  0  0  0  0  0  0  0
    5.0865   -1.6721   -2.1540 H   0  0  0  0  0  0  0  0  0  0  0  0
    7.9867   -1.6338    0.2462 H   0  0  0  0  0  0  0  0  0  0  0  0
    9.2604    0.4036    0.8184 H   0  0  0  0  0  0  0  0  0  0  0  0
    8.4843    2.6294    0.0051 H   0  0  0  0  0  0  0  0  0  0  0  0
    5.1543    0.7881   -1.9496 H   0  0  0  0  0  0  0  0  0  0  0  0
  1  2  2  0
  2  3  1  0
  3  4  1  0
  4  5  1  0
  5  6  1  0
  6  7  1  0
  7  8  1  0
  8  9  1  0
  9 10  2  0
  9 11  2  0
  9 12  1  0
 12 13  2  0
 13 14  1  0
 14 15  2  0
 15 16  1  0
 16 17  2  0
 16 18  1  0
 18 19  1  0
 19 20  1  0
 20 21  1  0
  8 22  1  0
 22 23  1  0
  4 24  2  0
 24 25  1  0
 25 26  2  0
 26 27  1  0
 27 28  2  0
 28 29  1  0
 29 30  1  0
 30 31  1  0
 31 32  2  0
 32 33  1  0
 33 34  2  0
 34 35  1  0
 35 36  1  0
 35 37  2  0
 26  2  1  0
 37 31  1  0
 23  5  1  0
 29 25  1  0
 17 12  1  0
 21 15  1  0
  3 38  1  0
  5 39  1  0
  6 40  1  0
  6 41  1  0
  7 42  1  0
  7 43  1  0
 13 44  1  0
 14 45  1  0
 17 46  1  0
 19 47  1  0
 19 48  1  0
 20 49  1  0
 20 50  1  0
 22 51  1  0
 22 52  1  0
 23 53  1  0
 23 54  1  0
 30 55  1  0
 30 56  1  0
 32 57  1  0
 33 58  1  0
 34 59  1  0
 37 60  1  0
M  END
$$$$
