
     RDKit          3D

 52 54  0  0  0  0  0  0  0  0999 V2000
   -3.6478   -1.6478   -2.7754 C   0  0  0  0  0  0  0  0  0  0  0  0
   -3.6961   -2.0127   -1.3667 N   0  0  0  0  0  0  0  0  0  0  0  0
   -5.0204   -2.0826   -0.7485 C   0  0  0  0  0  0  0  0  0  0  0  0
   -5.6917   -0.7309   -0.6628 C   0  0  0  0  0  0  0  0  0  0  0  0
   -6.8221   -0.4424   -1.4413 C   0  0  0  0  0  0  0  0  0  0  0  0
   -7.4327    0.8109   -1.3658 C   0  0  0  0  0  0  0  0  0  0  0  0
   -6.9204    1.7876   -0.5137 C   0  0  0  0  0  0  0  0  0  0  0  0
   -5.7981    1.5125    0.2649 C   0  0  0  0  0  0  0  0  0  0  0  0
   -5.1872    0.2600    0.1924 C   0  0  0  0  0  0  0  0  0  0  0  0
   -2.5809   -2.0205   -0.5337 C   0  0  0  0  0  0  0  0  0  0  0  0
   -2.6605   -2.2625    0.6740 O   0  0  0  0  0  0  0  0  0  0  0  0
   -1.2176   -1.7299   -1.1789 C   0  0  0  0  0  0  0  0  0  0  0  0
   -0.1772   -1.5942   -0.2072 O   0  0  0  0  0  0  0  0  0  0  0  0
   -0.2215   -0.4211    0.4927 C   0  0  0  0  0  0  0  0  0  0  0  0
   -0.9928    0.5016    0.2564 O   0  0  0  0  0  0  0  0  0  0  0  0
    0.7711   -0.4201    1.6372 C   0  0  0  0  0  0  0  0  0  0  0  0
    1.9051   -1.3265    1.3988 N   0  0  0  0  0  0  0  0  0  0  0  0
    3.2046   -1.2553    2.4456 S   0  0  0  0  0  6  0  0  0  0  0  0
    2.7156   -0.8371    3.7399 O   0  0  0  0  0  0  0  0  0  0  0  0
    3.9422   -2.4854    2.2659 O   0  0  0  0  0  0  0  0  0  0  0  0
    4.1668    0.0559    1.7404 C   0  0  0  0  0  0  0  0  0  0  0  0
    4.2124    1.3020    2.3653 C   0  0  0  0  0  0  0  0  0  0  0  0
    4.9785    2.3231    1.8009 C   0  0  0  0  0  0  0  0  0  0  0  0
    5.7072    2.1058    0.6191 C   0  0  0  0  0  0  0  0  0  0  0  0
    6.4810    3.1250    0.0419 C   0  0  0  0  0  0  0  0  0  0  0  0
    7.2042    2.8954   -1.1297 C   0  0  0  0  0  0  0  0  0  0  0  0
    7.1644    1.6445   -1.7388 C   0  0  0  0  0  0  0  0  0  0  0  0
    6.4004    0.6194   -1.1789 C   0  0  0  0  0  0  0  0  0  0  0  0
    5.6657    0.8340   -0.0021 C   0  0  0  0  0  0  0  0  0  0  0  0
    4.8932   -0.1871    0.5704 C   0  0  0  0  0  0  0  0  0  0  0  0
   -3.7247   -0.5603   -2.8640 H   0  0  0  0  0  0  0  0  0  0  0  0
   -2.7131   -1.9767   -3.2346 H   0  0  0  0  0  0  0  0  0  0  0  0
   -4.4757   -2.1248   -3.3080 H   0  0  0  0  0  0  0  0  0  0  0  0
   -5.6247   -2.7790   -1.3426 H   0  0  0  0  0  0  0  0  0  0  0  0
   -4.9643   -2.5126    0.2582 H   0  0  0  0  0  0  0  0  0  0  0  0
   -7.2361   -1.1917   -2.1119 H   0  0  0  0  0  0  0  0  0  0  0  0
   -8.3094    1.0261   -1.9712 H   0  0  0  0  0  0  0  0  0  0  0  0
   -7.3956    2.7631   -0.4550 H   0  0  0  0  0  0  0  0  0  0  0  0
   -5.3954    2.2722    0.9298 H   0  0  0  0  0  0  0  0  0  0  0  0
   -4.3102    0.0597    0.8065 H   0  0  0  0  0  0  0  0  0  0  0  0
   -1.2608   -0.8352   -1.8093 H   0  0  0  0  0  0  0  0  0  0  0  0
   -0.9533   -2.5853   -1.8089 H   0  0  0  0  0  0  0  0  0  0  0  0
    1.1371    0.6043    1.7555 H   0  0  0  0  0  0  0  0  0  0  0  0
    0.2308   -0.7356    2.5349 H   0  0  0  0  0  0  0  0  0  0  0  0
    1.6812   -2.2713    1.0827 H   0  0  0  0  0  0  0  0  0  0  0  0
    3.6620    1.4881    3.2848 H   0  0  0  0  0  0  0  0  0  0  0  0
    5.0074    3.2932    2.2934 H   0  0  0  0  0  0  0  0  0  0  0  0
    6.5280    4.1091    0.5032 H   0  0  0  0  0  0  0  0  0  0  0  0
    7.8002    3.6935   -1.5647 H   0  0  0  0  0  0  0  0  0  0  0  0
    7.7298    1.4648   -2.6496 H   0  0  0  0  0  0  0  0  0  0  0  0
    6.3851   -0.3516   -1.6693 H   0  0  0  0  0  0  0  0  0  0  0  0
    4.8560   -1.1719    0.1085 H   0  0  0  0  0  0  0  0  0  0  0  0
  1  2  1  0
  2  3  1  0
  3  4  1  0
  4  5  2  0
  5  6  1  0
  6  7  2  0
  7  8  1  0
  8  9  2  0
  2 10  1  0
 10 11  2  0
 10 12  1  0
 12 13  1  0
 13 14  1  0
 14 15  2  0
 14 16  1  0
 16 17  1  0
 17 18  1  0
 18 19  2  0
 18 20  2  0
 18 21  1  0
 21 22  2  0
 22 23  1  0
 23 24  2  0
 24 25  1  0
 25 26  2  0
 26 27  1  0
 27 28  2  0
 28 29  1  0
 29 30  2  0
  9  4  1  0
 30 21  1  0
 29 24  1  0
  1 31  1  0
  1 32  1  0
  1 33  1  0
  3 34  1  0
  3 35  1  0
  5 36  1  0
  6 37  1  0
  7 38  1  0
  8 39  1  0
  9 40  1  0
 12 41  1  0
 12 42  1  0
 16 43  1  0
 16 44  1  0
 17 45  1  0
 22 46  1  0
 23 47  1  0
 25 48  1  0
 26 49  1  0
 27 50  1  0
 28 51  1  0
 30 52  1  0
M  END
$$$$
