
     RDKit          3D

 51 55  0  0  0  0  0  0  0  0999 V2000
    2.7294   -0.9929    3.1627 O   0  0  0  0  0  0  0  0  0  0  0  0
    2.2460   -0.0392    2.5466 C   0  0  0  0  0  0  0  0  0  0  0  0
    1.1767    0.8656    3.1620 C   0  0  0  0  0  0  0  0  0  0  0  0
   -0.0887    0.7623    2.4203 N   0  0  0  0  0  0  0  0  0  0  0  0
   -0.2506    1.5760    1.3051 C   0  0  0  0  0  0  0  0  0  0  0  0
    0.6508    2.3104    0.8838 O   0  0  0  0  0  0  0  0  0  0  0  0
   -1.5883    1.5460    0.6180 C   0  0  0  0  0  0  0  0  0  0  0  0
   -1.5802    0.4885   -0.4685 C   0  0  0  0  0  0  0  0  0  0  0  0
   -2.8791    0.4294   -1.2023 C   0  0  0  0  0  0  0  0  0  0  0  0
   -3.1929    0.3000   -2.5422 C   0  0  0  0  0  0  0  0  0  0  0  0
   -4.6088    0.3211   -2.6277 C   0  0  0  0  0  0  0  0  0  0  0  0
   -5.0683    0.4681   -1.3382 C   0  0  0  0  0  0  0  0  0  0  0  0
   -4.0293    0.5324   -0.4653 O   0  0  0  0  0  0  0  0  0  0  0  0
   -1.1035   -1.1909    0.0874 S   0  0  0  0  0  0  0  0  0  0  0  0
   -1.5700   -1.1590    1.8110 C   0  0  0  0  0  0  0  0  0  0  0  0
   -2.4422   -2.1739    2.2269 C   0  0  0  0  0  0  0  0  0  0  0  0
   -2.7453   -2.3468    3.5713 C   0  0  0  0  0  0  0  0  0  0  0  0
   -2.1768   -1.5049    4.5193 C   0  0  0  0  0  0  0  0  0  0  0  0
   -1.3083   -0.4887    4.1200 C   0  0  0  0  0  0  0  0  0  0  0  0
   -0.9899   -0.2968    2.7685 C   0  0  0  0  0  0  0  0  0  0  0  0
    2.6492    0.3298    1.2749 N   0  0  0  0  0  0  0  0  0  0  0  0
    3.6181   -0.4274    0.5181 C   0  0  0  0  0  0  0  0  0  0  0  0
    3.3936   -0.2409   -0.9597 C   0  0  0  0  0  0  0  0  0  0  0  0
    4.1653    0.6929   -1.6893 C   0  0  0  0  0  0  0  0  0  0  0  0
    3.9349    0.9013   -3.0541 C   0  0  0  0  0  0  0  0  0  0  0  0
    2.9180    0.1816   -3.6492 C   0  0  0  0  0  0  0  0  0  0  0  0
    2.1626   -0.7342   -2.9516 C   0  0  0  0  0  0  0  0  0  0  0  0
    2.3724   -0.9651   -1.6092 C   0  0  0  0  0  0  0  0  0  0  0  0
    1.2247   -1.3355   -3.7267 O   0  0  0  0  0  0  0  0  0  0  0  0
    1.5039   -0.7284   -5.0054 C   0  0  0  0  0  0  0  0  0  0  0  0
    2.5587    0.2626   -4.9549 O   0  0  0  0  0  0  0  0  0  0  0  0
    1.5443    1.8948    3.1600 H   0  0  0  0  0  0  0  0  0  0  0  0
    1.0497    0.5701    4.2031 H   0  0  0  0  0  0  0  0  0  0  0  0
   -2.3960    1.4204    1.3444 H   0  0  0  0  0  0  0  0  0  0  0  0
   -1.7555    2.5395    0.1818 H   0  0  0  0  0  0  0  0  0  0  0  0
   -0.8102    0.7619   -1.1933 H   0  0  0  0  0  0  0  0  0  0  0  0
   -2.4774    0.1967   -3.3519 H   0  0  0  0  0  0  0  0  0  0  0  0
   -5.2176    0.2407   -3.5162 H   0  0  0  0  0  0  0  0  0  0  0  0
   -6.0530    0.5389   -0.8998 H   0  0  0  0  0  0  0  0  0  0  0  0
   -2.8793   -2.8560    1.5052 H   0  0  0  0  0  0  0  0  0  0  0  0
   -3.4166   -3.1465    3.8759 H   0  0  0  0  0  0  0  0  0  0  0  0
   -2.4011   -1.6293    5.5729 H   0  0  0  0  0  0  0  0  0  0  0  0
   -0.9146    0.1698    4.8849 H   0  0  0  0  0  0  0  0  0  0  0  0
    2.2487    1.1807    0.8639 H   0  0  0  0  0  0  0  0  0  0  0  0
    4.6153   -0.0839    0.8136 H   0  0  0  0  0  0  0  0  0  0  0  0
    3.5549   -1.4915    0.7803 H   0  0  0  0  0  0  0  0  0  0  0  0
    4.9507    1.2601   -1.1983 H   0  0  0  0  0  0  0  0  0  0  0  0
    4.5213    1.6141   -3.6334 H   0  0  0  0  0  0  0  0  0  0  0  0
    1.7588   -1.6785   -1.0646 H   0  0  0  0  0  0  0  0  0  0  0  0
    1.8121   -1.5170   -5.7111 H   0  0  0  0  0  0  0  0  0  0  0  0
    0.5836   -0.2438   -5.3686 H   0  0  0  0  0  0  0  0  0  0  0  0
  1  2  2  0
  2  3  1  0
  3  4  1  0
  4  5  1  0
  5  6  2  0
  5  7  1  0
  7  8  1  0
  8  9  1  0
  9 10  2  0
 10 11  1  0
 11 12  2  0
 12 13  1  0
  8 14  1  0
 14 15  1  0
 15 16  2  0
 16 17  1  0
 17 18  2  0
 18 19  1  0
 19 20  2  0
  2 21  1  0
 21 22  1  0
 22 23  1  0
 23 24  2  0
 24 25  1  0
 25 26  2  0
 26 27  1  0
 27 28  2  0
 27 29  1  0
 29 30  1  0
 30 31  1  0
 20  4  1  0
 28 23  1  0
 13  9  1  0
 20 15  1  0
 31 26  1  0
  3 32  1  0
  3 33  1  0
  7 34  1  0
  7 35  1  0
  8 36  1  0
 10 37  1  0
 11 38  1  0
 12 39  1  0
 16 40  1  0
 17 41  1  0
 18 42  1  0
 19 43  1  0
 21 44  1  0
 22 45  1  0
 22 46  1  0
 24 47  1  0
 25 48  1  0
 28 49  1  0
 30 50  1  0
 30 51  1  0
M  END
$$$$
