
     RDKit          3D

 55 60  0  0  0  0  0  0  0  0999 V2000
   -5.1479   -0.6110    1.0519 O   0  0  0  0  0  0  0  0  0  0  0  0
   -4.4274    0.2696    0.5863 C   0  0  0  0  0  0  0  0  0  0  0  0
   -4.9626    1.6033    0.3550 C   0  0  0  0  0  0  0  0  0  0  0  0
   -6.3126    1.9547    0.0575 C   0  0  0  0  0  0  0  0  0  0  0  0
   -6.3538    3.3255   -0.0320 C   0  0  0  0  0  0  0  0  0  0  0  0
   -5.1277    3.8511    0.2165 O   0  0  0  0  0  0  0  0  0  0  0  0
   -4.2970    2.8080    0.4710 C   0  0  0  0  0  0  0  0  0  0  0  0
   -3.0668    0.0470    0.3068 N   0  0  0  0  0  0  0  0  0  0  0  0
   -2.4921    0.5288   -0.9499 C   0  0  0  0  0  0  0  0  0  0  0  0
   -0.9702    0.6201   -0.8638 C   0  0  0  0  0  0  0  0  0  0  0  0
   -0.3293   -0.7242   -0.4264 C   0  0  0  0  0  0  0  0  0  0  0  0
   -1.0127   -1.1931    0.8807 C   0  0  0  0  0  0  0  0  0  0  0  0
   -2.5336   -1.2340    0.7541 C   0  0  0  0  0  0  0  0  0  0  0  0
   -0.6831   -1.6417   -1.4950 O   0  0  0  0  0  0  0  0  0  0  0  0
    0.0469   -2.7848   -1.6240 C   0  0  0  0  0  0  0  0  0  0  0  0
   -0.4811   -3.7546   -2.4785 C   0  0  0  0  0  0  0  0  0  0  0  0
    0.1866   -4.9676   -2.6561 C   0  0  0  0  0  0  0  0  0  0  0  0
    1.3796   -5.2010   -1.9797 C   0  0  0  0  0  0  0  0  0  0  0  0
    2.0143   -6.3676   -2.1490 F   0  0  0  0  0  0  0  0  0  0  0  0
    1.9226   -4.2423   -1.1350 C   0  0  0  0  0  0  0  0  0  0  0  0
    1.2519   -3.0274   -0.9717 C   0  0  0  0  0  0  0  0  0  0  0  0
    1.8040   -1.9823   -0.1005 C   0  0  0  0  0  0  0  0  0  0  0  0
    2.6799   -2.2691    0.7114 O   0  0  0  0  0  0  0  0  0  0  0  0
    1.2125   -0.5877   -0.2723 C   0  0  0  0  0  0  0  0  0  0  0  0
    1.6817    0.3451    0.8358 C   0  0  0  0  0  0  0  0  0  0  0  0
    2.8206    0.9955    0.1268 C   0  0  0  0  0  0  0  0  0  0  0  0
    3.8160    1.8321    0.8384 C   0  0  0  0  0  0  0  0  0  0  0  0
    4.8919    2.3654    0.1171 C   0  0  0  0  0  0  0  0  0  0  0  0
    5.8437    3.1614    0.7570 C   0  0  0  0  0  0  0  0  0  0  0  0
    5.7253    3.4295    2.1193 C   0  0  0  0  0  0  0  0  0  0  0  0
    4.6562    2.9031    2.8430 C   0  0  0  0  0  0  0  0  0  0  0  0
    3.7010    2.1058    2.2061 C   0  0  0  0  0  0  0  0  0  0  0  0
    2.8454    0.8012   -1.1534 N   0  0  0  0  0  0  0  0  0  0  0  0
    1.7642   -0.0426   -1.4828 O   0  0  0  0  0  0  0  0  0  0  0  0
   -7.1459    1.2775   -0.0724 H   0  0  0  0  0  0  0  0  0  0  0  0
   -7.1374    4.0409   -0.2402 H   0  0  0  0  0  0  0  0  0  0  0  0
   -3.2806    3.0784    0.7214 H   0  0  0  0  0  0  0  0  0  0  0  0
   -2.8964    1.5019   -1.2347 H   0  0  0  0  0  0  0  0  0  0  0  0
   -2.8028   -0.1661   -1.7404 H   0  0  0  0  0  0  0  0  0  0  0  0
   -0.7165    1.4213   -0.1622 H   0  0  0  0  0  0  0  0  0  0  0  0
   -0.5963    0.9170   -1.8513 H   0  0  0  0  0  0  0  0  0  0  0  0
   -0.6714   -2.1945    1.1663 H   0  0  0  0  0  0  0  0  0  0  0  0
   -0.7507   -0.5161    1.7029 H   0  0  0  0  0  0  0  0  0  0  0  0
   -2.9636   -1.4885    1.7301 H   0  0  0  0  0  0  0  0  0  0  0  0
   -2.8558   -2.0077    0.0464 H   0  0  0  0  0  0  0  0  0  0  0  0
   -1.4160   -3.5698   -3.0024 H   0  0  0  0  0  0  0  0  0  0  0  0
   -0.2156   -5.7311   -3.3153 H   0  0  0  0  0  0  0  0  0  0  0  0
    2.8598   -4.4427   -0.6239 H   0  0  0  0  0  0  0  0  0  0  0  0
    0.9598    1.1233    1.0946 H   0  0  0  0  0  0  0  0  0  0  0  0
    1.9909   -0.1672    1.7498 H   0  0  0  0  0  0  0  0  0  0  0  0
    4.9981    2.1627   -0.9470 H   0  0  0  0  0  0  0  0  0  0  0  0
    6.6773    3.5698    0.1910 H   0  0  0  0  0  0  0  0  0  0  0  0
    6.4679    4.0482    2.6174 H   0  0  0  0  0  0  0  0  0  0  0  0
    4.5676    3.1132    3.9063 H   0  0  0  0  0  0  0  0  0  0  0  0
    2.8812    1.7133    2.7993 H   0  0  0  0  0  0  0  0  0  0  0  0
  1  2  2  0
  2  3  1  0
  3  4  1  0
  4  5  2  0
  5  6  1  0
  6  7  1  0
  2  8  1  0
  8  9  1  0
  9 10  1  0
 10 11  1  0
 11 12  1  0
 12 13  1  0
 11 14  1  0
 14 15  1  0
 15 16  2  0
 16 17  1  0
 17 18  2  0
 18 19  1  0
 18 20  1  0
 20 21  2  0
 21 22  1  0
 22 23  2  0
 22 24  1  0
 24 25  1  0
 25 26  1  0
 26 27  1  0
 27 28  2  0
 28 29  1  0
 29 30  2  0
 30 31  1  0
 31 32  2  0
 26 33  2  0
 33 34  1  0
  7  3  2  0
 13  8  1  0
 21 15  1  0
 34 24  1  0
 24 11  1  0
 32 27  1  0
  4 35  1  0
  5 36  1  0
  7 37  1  0
  9 38  1  0
  9 39  1  0
 10 40  1  0
 10 41  1  0
 12 42  1  0
 12 43  1  0
 13 44  1  0
 13 45  1  0
 16 46  1  0
 17 47  1  0
 20 48  1  0
 25 49  1  0
 25 50  1  0
 28 51  1  0
 29 52  1  0
 30 53  1  0
 31 54  1  0
 32 55  1  0
M  END
$$$$
