
     RDKit          3D

 37 39  0  0  0  0  0  0  0  0999 V2000
   -4.4403   -1.0716    1.9943 C   0  0  0  0  0  0  0  0  0  0  0  0
   -4.2408   -0.3669    0.6803 C   0  0  0  0  0  0  0  0  0  0  0  0
   -4.9548   -0.7937   -0.4495 C   0  0  0  0  0  0  0  0  0  0  0  0
   -4.7840   -0.1570   -1.6768 C   0  0  0  0  0  0  0  0  0  0  0  0
   -3.8987    0.9105   -1.7855 C   0  0  0  0  0  0  0  0  0  0  0  0
   -3.1812    1.3461   -0.6685 C   0  0  0  0  0  0  0  0  0  0  0  0
   -3.3473    0.7148    0.5684 C   0  0  0  0  0  0  0  0  0  0  0  0
   -2.6813    1.0473    1.7202 O   0  0  0  0  0  0  0  0  0  0  0  0
   -1.8040    2.1653    1.6989 C   0  0  0  0  0  0  0  0  0  0  0  0
   -0.4247    1.8816    1.0915 C   0  0  0  0  0  0  0  0  0  0  0  0
    0.2672    2.8002    0.6628 O   0  0  0  0  0  0  0  0  0  0  0  0
   -0.0959    0.5458    1.1381 N   0  0  0  0  0  0  0  0  0  0  0  0
    1.0597   -0.0427    0.6965 C   0  0  0  0  0  0  0  0  0  0  0  0
    1.2491   -1.3407    0.7491 N   0  0  0  0  0  0  0  0  0  0  0  0
    2.4846   -1.7039    0.2543 N   0  0  0  0  0  0  0  0  0  0  0  0
    3.1947   -0.6677   -0.1571 C   0  0  0  0  0  0  0  0  0  0  0  0
    4.5482   -0.7633   -0.7313 C   0  0  0  0  0  0  0  0  0  0  0  0
    5.2865    0.3455   -1.1613 C   0  0  0  0  0  0  0  0  0  0  0  0
    6.5538    0.1446   -1.6879 C   0  0  0  0  0  0  0  0  0  0  0  0
    7.1314   -1.0664   -1.8153 N   0  0  0  0  0  0  0  0  0  0  0  0
    6.4120   -2.1269   -1.3985 C   0  0  0  0  0  0  0  0  0  0  0  0
    5.1400   -2.0270   -0.8597 C   0  0  0  0  0  0  0  0  0  0  0  0
    2.3677    0.8290    0.0502 S   0  0  0  0  0  0  0  0  0  0  0  0
   -3.4970   -1.5108    2.3350 H   0  0  0  0  0  0  0  0  0  0  0  0
   -5.1723   -1.8817    1.9096 H   0  0  0  0  0  0  0  0  0  0  0  0
   -4.8090   -0.3693    2.7489 H   0  0  0  0  0  0  0  0  0  0  0  0
   -5.6496   -1.6279   -0.3792 H   0  0  0  0  0  0  0  0  0  0  0  0
   -5.3407   -0.4948   -2.5472 H   0  0  0  0  0  0  0  0  0  0  0  0
   -3.7635    1.4063   -2.7439 H   0  0  0  0  0  0  0  0  0  0  0  0
   -2.5008    2.1794   -0.8115 H   0  0  0  0  0  0  0  0  0  0  0  0
   -2.2657    3.0329    1.2142 H   0  0  0  0  0  0  0  0  0  0  0  0
   -1.6275    2.4484    2.7432 H   0  0  0  0  0  0  0  0  0  0  0  0
   -0.7967   -0.1064    1.4730 H   0  0  0  0  0  0  0  0  0  0  0  0
    4.9071    1.3595   -1.0997 H   0  0  0  0  0  0  0  0  0  0  0  0
    7.1552    0.9819   -2.0315 H   0  0  0  0  0  0  0  0  0  0  0  0
    6.8978   -3.0921   -1.5112 H   0  0  0  0  0  0  0  0  0  0  0  0
    4.6207   -2.9282   -0.5454 H   0  0  0  0  0  0  0  0  0  0  0  0
  1  2  1  0
  2  3  2  0
  3  4  1  0
  4  5  2  0
  5  6  1  0
  6  7  2  0
  7  8  1  0
  8  9  1  0
  9 10  1  0
 10 11  2  0
 10 12  1  0
 12 13  1  0
 13 14  2  0
 14 15  1  0
 15 16  2  0
 16 17  1  0
 17 18  2  0
 18 19  1  0
 19 20  2  0
 20 21  1  0
 21 22  2  0
 16 23  1  0
  7  2  1  0
 23 13  1  0
 22 17  1  0
  1 24  1  0
  1 25  1  0
  1 26  1  0
  3 27  1  0
  4 28  1  0
  5 29  1  0
  6 30  1  0
  9 31  1  0
  9 32  1  0
 12 33  1  0
 18 34  1  0
 19 35  1  0
 21 36  1  0
 22 37  1  0
M  END
$$$$
