
     RDKit          3D

 27 27  0  0  0  0  0  0  0  0999 V2000
    3.5067   -1.1554    0.4198 C   0  0  0  0  0  0  0  0  0  0  0  0
    2.2384   -0.4758    0.0681 C   0  0  0  0  0  0  0  0  0  0  0  0
    2.0464    0.6389   -0.7580 C   0  0  0  0  0  0  0  0  0  0  0  0
    0.6809    0.8908   -0.7703 C   0  0  0  0  0  0  0  0  0  0  0  0
    0.0080    1.9407   -1.4833 C   0  0  0  0  0  0  0  0  0  0  0  0
   -1.1800    2.2124   -1.5341 O   0  0  0  0  0  0  0  0  0  0  0  0
    0.8849    2.6997   -2.1788 O   0  0  0  0  0  0  0  0  0  0  0  0
    0.1332   -0.0858    0.0480 N   0  0  0  0  0  0  0  0  0  0  0  0
   -1.2749   -0.3427    0.4300 C   0  0  0  0  0  0  0  0  0  0  0  0
   -2.1261   -0.6911   -0.8057 C   0  0  0  0  0  0  0  0  0  0  0  0
   -1.8599    0.8492    1.2109 C   0  0  0  0  0  0  0  0  0  0  0  0
   -1.3900   -1.5702    1.3827 C   0  0  0  0  0  0  0  0  0  0  0  0
    1.0813   -0.9151    0.5563 N   0  0  0  0  0  0  0  0  0  0  0  0
    4.3614   -0.6710   -0.0629 H   0  0  0  0  0  0  0  0  0  0  0  0
    3.6696   -1.1290    1.5021 H   0  0  0  0  0  0  0  0  0  0  0  0
    3.4844   -2.2015    0.0978 H   0  0  0  0  0  0  0  0  0  0  0  0
    2.8029    1.2022   -1.2881 H   0  0  0  0  0  0  0  0  0  0  0  0
    0.3101    3.3639   -2.6103 H   0  0  0  0  0  0  0  0  0  0  0  0
   -3.1487   -0.9598   -0.5158 H   0  0  0  0  0  0  0  0  0  0  0  0
   -2.2089    0.1288   -1.5192 H   0  0  0  0  0  0  0  0  0  0  0  0
   -1.6987   -1.5442   -1.3463 H   0  0  0  0  0  0  0  0  0  0  0  0
   -1.9266    1.7628    0.6201 H   0  0  0  0  0  0  0  0  0  0  0  0
   -1.2454    1.0799    2.0894 H   0  0  0  0  0  0  0  0  0  0  0  0
   -2.8743    0.6285    1.5636 H   0  0  0  0  0  0  0  0  0  0  0  0
   -2.4337   -1.7568    1.6630 H   0  0  0  0  0  0  0  0  0  0  0  0
   -0.8280   -1.4144    2.3115 H   0  0  0  0  0  0  0  0  0  0  0  0
   -1.0130   -2.4851    0.9097 H   0  0  0  0  0  0  0  0  0  0  0  0
  1  2  1  0
  2  3  1  0
  3  4  2  0
  4  5  1  0
  5  6  2  0
  5  7  1  0
  4  8  1  0
  8  9  1  0
  9 10  1  0
  9 11  1  0
  9 12  1  0
  8 13  1  0
 13  2  2  0
  1 14  1  0
  1 15  1  0
  1 16  1  0
  3 17  1  0
  7 18  1  0
 10 19  1  0
 10 20  1  0
 10 21  1  0
 11 22  1  0
 11 23  1  0
 11 24  1  0
 12 25  1  0
 12 26  1  0
 12 27  1  0
M  END
$$$$
