
     RDKit          3D

 53 55  0  0  0  0  0  0  0  0999 V2000
   -3.8650   -5.0175   -1.2481 C   0  0  0  0  0  0  0  0  0  0  0  0
   -4.6681   -4.0004   -0.6585 O   0  0  0  0  0  0  0  0  0  0  0  0
   -4.0687   -3.2035    0.2767 C   0  0  0  0  0  0  0  0  0  0  0  0
   -2.7622   -3.3345    0.7536 C   0  0  0  0  0  0  0  0  0  0  0  0
   -2.2741   -2.4496    1.7203 C   0  0  0  0  0  0  0  0  0  0  0  0
   -3.0896   -1.4216    2.1997 C   0  0  0  0  0  0  0  0  0  0  0  0
   -2.4883   -0.3306    3.4745 S   0  0  0  0  0  6  0  0  0  0  0  0
   -1.3886   -1.0025    4.1377 O   0  0  0  0  0  0  0  0  0  0  0  0
   -3.6355    0.1407    4.2209 O   0  0  0  0  0  0  0  0  0  0  0  0
   -1.8506    0.9737    2.6483 N   0  0  0  0  0  0  0  0  0  0  0  0
   -2.7166    1.8657    1.8762 C   0  0  0  0  0  0  0  0  0  0  0  0
   -1.7304    2.5481    0.9522 C   0  0  0  0  0  0  0  0  0  0  0  0
   -0.7674    1.5259    0.6759 O   0  0  0  0  0  0  0  0  0  0  0  0
   -0.6030    0.7867    1.8994 C   0  0  0  0  0  0  0  0  0  0  0  0
    0.5906    1.3245    2.7301 C   0  0  0  0  0  0  0  0  0  0  0  0
    1.8683    1.2059    2.0531 N   0  0  0  0  0  0  0  0  0  0  0  0
    2.2975    2.1428    1.1416 C   0  0  0  0  0  0  0  0  0  0  0  0
    1.7696    3.2191    0.9017 O   0  0  0  0  0  0  0  0  0  0  0  0
    3.5624    1.7166    0.3628 C   0  0  0  0  0  0  0  0  0  0  0  0
    4.1674    0.7014    0.6797 O   0  0  0  0  0  0  0  0  0  0  0  0
    3.8621    2.5577   -0.6822 N   0  0  0  0  0  0  0  0  0  0  0  0
    4.8773    2.2499   -1.6548 C   0  0  0  0  0  0  0  0  0  0  0  0
    4.3262    1.3778   -2.7555 C   0  0  0  0  0  0  0  0  0  0  0  0
    3.5628    1.9388   -3.7923 C   0  0  0  0  0  0  0  0  0  0  0  0
    3.0235    1.1263   -4.7917 C   0  0  0  0  0  0  0  0  0  0  0  0
    3.2435   -0.2455   -4.7537 C   0  0  0  0  0  0  0  0  0  0  0  0
    2.7170   -1.0224   -5.7096 F   0  0  0  0  0  0  0  0  0  0  0  0
    3.9889   -0.8223   -3.7334 C   0  0  0  0  0  0  0  0  0  0  0  0
    4.5276   -0.0118   -2.7318 C   0  0  0  0  0  0  0  0  0  0  0  0
   -4.4064   -1.3026    1.7502 C   0  0  0  0  0  0  0  0  0  0  0  0
   -4.8852   -2.1893    0.7835 C   0  0  0  0  0  0  0  0  0  0  0  0
   -3.0189   -4.5845   -1.7913 H   0  0  0  0  0  0  0  0  0  0  0  0
   -3.5259   -5.7369   -0.4941 H   0  0  0  0  0  0  0  0  0  0  0  0
   -4.4814   -5.5602   -1.9710 H   0  0  0  0  0  0  0  0  0  0  0  0
   -2.1028   -4.1201    0.4041 H   0  0  0  0  0  0  0  0  0  0  0  0
   -1.2639   -2.5824    2.1010 H   0  0  0  0  0  0  0  0  0  0  0  0
   -3.2461    2.5804    2.5092 H   0  0  0  0  0  0  0  0  0  0  0  0
   -3.4356    1.2969    1.2813 H   0  0  0  0  0  0  0  0  0  0  0  0
   -1.2243    3.3904    1.4379 H   0  0  0  0  0  0  0  0  0  0  0  0
   -2.1916    2.8966    0.0244 H   0  0  0  0  0  0  0  0  0  0  0  0
   -0.4210   -0.2529    1.6164 H   0  0  0  0  0  0  0  0  0  0  0  0
    0.6758    0.7773    3.6728 H   0  0  0  0  0  0  0  0  0  0  0  0
    0.4358    2.3823    2.9692 H   0  0  0  0  0  0  0  0  0  0  0  0
    2.3955    0.3368    2.0940 H   0  0  0  0  0  0  0  0  0  0  0  0
    3.1867    3.2958   -0.8689 H   0  0  0  0  0  0  0  0  0  0  0  0
    5.7300    1.7660   -1.1596 H   0  0  0  0  0  0  0  0  0  0  0  0
    5.2369    3.1984   -2.0725 H   0  0  0  0  0  0  0  0  0  0  0  0
    3.3751    3.0112   -3.8219 H   0  0  0  0  0  0  0  0  0  0  0  0
    2.4307    1.5543   -5.5926 H   0  0  0  0  0  0  0  0  0  0  0  0
    4.1429   -1.8973   -3.7185 H   0  0  0  0  0  0  0  0  0  0  0  0
    5.0941   -0.4706   -1.9230 H   0  0  0  0  0  0  0  0  0  0  0  0
   -5.0670   -0.5353    2.1475 H   0  0  0  0  0  0  0  0  0  0  0  0
   -5.9100   -2.0959    0.4292 H   0  0  0  0  0  0  0  0  0  0  0  0
  1  2  1  0
  2  3  1  0
  3  4  2  0
  4  5  1  0
  5  6  2  0
  6  7  1  0
  7  8  2  0
  7  9  2  0
  7 10  1  0
 10 11  1  0
 11 12  1  0
 12 13  1  0
 13 14  1  0
 14 15  1  0
 15 16  1  0
 16 17  1  0
 17 18  2  0
 17 19  1  0
 19 20  2  0
 19 21  1  0
 21 22  1  0
 22 23  1  0
 23 24  2  0
 24 25  1  0
 25 26  2  0
 26 27  1  0
 26 28  1  0
 28 29  2  0
  6 30  1  0
 30 31  2  0
 31  3  1  0
 14 10  1  0
 29 23  1  0
  1 32  1  0
  1 33  1  0
  1 34  1  0
  4 35  1  0
  5 36  1  0
 11 37  1  0
 11 38  1  0
 12 39  1  0
 12 40  1  0
 14 41  1  0
 15 42  1  0
 15 43  1  0
 16 44  1  0
 21 45  1  0
 22 46  1  0
 22 47  1  0
 24 48  1  0
 25 49  1  0
 28 50  1  0
 29 51  1  0
 30 52  1  0
 31 53  1  0
M  END
$$$$
