
     RDKit          3D

 69 71  0  0  0  0  0  0  0  0999 V2000
   -3.6975    0.0090   -5.9872 C   0  0  0  0  0  0  0  0  0  0  0  0
   -2.8701    0.1994   -4.8481 O   0  0  0  0  0  0  0  0  0  0  0  0
   -3.3360   -0.2462   -3.6384 C   0  0  0  0  0  0  0  0  0  0  0  0
   -4.5289   -0.9552   -3.4793 C   0  0  0  0  0  0  0  0  0  0  0  0
   -4.9635   -1.3279   -2.2091 C   0  0  0  0  0  0  0  0  0  0  0  0
   -4.2151   -0.9968   -1.0813 C   0  0  0  0  0  0  0  0  0  0  0  0
   -3.0015   -0.3019   -1.1934 C   0  0  0  0  0  0  0  0  0  0  0  0
   -2.1595    0.1066    0.0204 C   0  0  0  0  0  0  0  0  0  0  0  0
   -2.7686   -0.0709    1.4413 C   0  0  0  0  0  0  0  0  0  0  0  0
   -3.3899   -1.0631    1.8141 O   0  0  0  0  0  0  0  0  0  0  0  0
   -2.4435    0.9704    2.3082 N   0  0  0  0  0  0  0  0  0  0  0  0
   -2.6628    0.9449    3.7617 C   0  0  0  0  0  0  0  0  0  0  0  0
   -1.8215   -0.1683    4.4079 C   0  0  0  0  0  0  0  0  0  0  0  0
   -2.2067    2.3028    4.3284 C   0  0  0  0  0  0  0  0  0  0  0  0
   -4.1470    0.7630    4.1091 C   0  0  0  0  0  0  0  0  0  0  0  0
   -0.7999   -0.4849    0.0726 N   0  0  0  0  0  0  0  0  0  0  0  0
    0.2323    0.3454    0.5189 C   0  0  0  0  0  0  0  0  0  0  0  0
    0.0142    1.4397    1.0485 O   0  0  0  0  0  0  0  0  0  0  0  0
    1.6451   -0.1738    0.3362 C   0  0  0  0  0  0  0  0  0  0  0  0
    2.6834    0.8715    0.7329 C   0  0  0  0  0  0  0  0  0  0  0  0
    4.0862    0.4509    0.3427 C   0  0  0  0  0  0  0  0  0  0  0  0
    4.3150   -0.5805   -0.2829 O   0  0  0  0  0  0  0  0  0  0  0  0
    5.0304    1.3582    0.7672 N   0  0  0  0  0  0  0  0  0  0  0  0
    6.3784    1.2860    0.4954 C   0  0  0  0  0  0  0  0  0  0  0  0
    7.0862    0.3609   -0.2993 C   0  0  0  0  0  0  0  0  0  0  0  0
    8.3950    0.7713   -0.2278 C   0  0  0  0  0  0  0  0  0  0  0  0
    9.6581    0.2819   -0.8028 C   0  0  0  0  0  0  0  0  0  0  0  0
    8.4707    1.8711    0.5654 O   0  0  0  0  0  0  0  0  0  0  0  0
    7.2039    2.2081    1.0071 N   0  0  0  0  0  0  0  0  0  0  0  0
   -0.5726   -1.8194   -0.4336 C   0  0  0  0  0  0  0  0  0  0  0  0
   -0.1148   -2.9223    0.4895 C   0  0  0  0  0  0  0  0  0  0  0  0
   -1.4655   -2.9980   -0.1460 C   0  0  0  0  0  0  0  0  0  0  0  0
   -2.5627    0.0571   -2.4950 C   0  0  0  0  0  0  0  0  0  0  0  0
   -1.3899    0.7813   -2.5514 O   0  0  0  0  0  0  0  0  0  0  0  0
   -0.4564    0.3390   -3.5327 C   0  0  0  0  0  0  0  0  0  0  0  0
   -4.6589    0.5215   -5.8692 H   0  0  0  0  0  0  0  0  0  0  0  0
   -3.1872    0.4522   -6.8480 H   0  0  0  0  0  0  0  0  0  0  0  0
   -3.8418   -1.0574   -6.1977 H   0  0  0  0  0  0  0  0  0  0  0  0
   -5.1572   -1.2227   -4.3223 H   0  0  0  0  0  0  0  0  0  0  0  0
   -5.9050   -1.8625   -2.0925 H   0  0  0  0  0  0  0  0  0  0  0  0
   -4.6095   -1.3011   -0.1150 H   0  0  0  0  0  0  0  0  0  0  0  0
   -2.0507    1.1956   -0.1019 H   0  0  0  0  0  0  0  0  0  0  0  0
   -1.6321    1.5102    2.0003 H   0  0  0  0  0  0  0  0  0  0  0  0
   -1.8658   -0.1192    5.4989 H   0  0  0  0  0  0  0  0  0  0  0  0
   -0.7703   -0.0850    4.1115 H   0  0  0  0  0  0  0  0  0  0  0  0
   -2.1642   -1.1636    4.1086 H   0  0  0  0  0  0  0  0  0  0  0  0
   -2.3002    2.3335    5.4184 H   0  0  0  0  0  0  0  0  0  0  0  0
   -2.8081    3.1201    3.9148 H   0  0  0  0  0  0  0  0  0  0  0  0
   -1.1621    2.5089    4.0750 H   0  0  0  0  0  0  0  0  0  0  0  0
   -4.7666    1.5123    3.6013 H   0  0  0  0  0  0  0  0  0  0  0  0
   -4.3150    0.8622    5.1885 H   0  0  0  0  0  0  0  0  0  0  0  0
   -4.5247   -0.2239    3.8201 H   0  0  0  0  0  0  0  0  0  0  0  0
    1.7767   -0.4510   -0.7167 H   0  0  0  0  0  0  0  0  0  0  0  0
    1.7871   -1.0649    0.9558 H   0  0  0  0  0  0  0  0  0  0  0  0
    2.4729    1.8291    0.2420 H   0  0  0  0  0  0  0  0  0  0  0  0
    2.6494    1.0375    1.8167 H   0  0  0  0  0  0  0  0  0  0  0  0
    4.7744    2.1292    1.3655 H   0  0  0  0  0  0  0  0  0  0  0  0
    6.7041   -0.4900   -0.8454 H   0  0  0  0  0  0  0  0  0  0  0  0
    9.4738   -0.2853   -1.7220 H   0  0  0  0  0  0  0  0  0  0  0  0
   10.3276    1.1142   -1.0491 H   0  0  0  0  0  0  0  0  0  0  0  0
   10.1740   -0.3693   -0.0919 H   0  0  0  0  0  0  0  0  0  0  0  0
   -0.1342   -1.8044   -1.4308 H   0  0  0  0  0  0  0  0  0  0  0  0
   -0.0853   -2.7368    1.5586 H   0  0  0  0  0  0  0  0  0  0  0  0
    0.6580   -3.5968    0.1349 H   0  0  0  0  0  0  0  0  0  0  0  0
   -2.3253   -2.8893    0.5023 H   0  0  0  0  0  0  0  0  0  0  0  0
   -1.6090   -3.7282   -0.9362 H   0  0  0  0  0  0  0  0  0  0  0  0
   -0.5528   -0.7282   -3.7642 H   0  0  0  0  0  0  0  0  0  0  0  0
    0.5495    0.4991   -3.1303 H   0  0  0  0  0  0  0  0  0  0  0  0
   -0.5468    0.9449   -4.4391 H   0  0  0  0  0  0  0  0  0  0  0  0
  1  2  1  0
  2  3  1  0
  3  4  2  0
  4  5  1  0
  5  6  2  0
  6  7  1  0
  7  8  1  0
  8  9  1  0
  9 10  2  0
  9 11  1  0
 11 12  1  0
 12 13  1  0
 12 14  1  0
 12 15  1  0
  8 16  1  0
 16 17  1  0
 17 18  2  0
 17 19  1  0
 19 20  1  0
 20 21  1  0
 21 22  2  0
 21 23  1  0
 23 24  1  0
 24 25  1  0
 25 26  2  0
 26 27  1  0
 26 28  1  0
 28 29  1  0
 16 30  1  0
 30 31  1  0
 31 32  1  0
  7 33  2  0
 33 34  1  0
 34 35  1  0
 33  3  1  0
 29 24  2  0
 32 30  1  0
  1 36  1  0
  1 37  1  0
  1 38  1  0
  4 39  1  0
  5 40  1  0
  6 41  1  0
  8 42  1  0
 11 43  1  0
 13 44  1  0
 13 45  1  0
 13 46  1  0
 14 47  1  0
 14 48  1  0
 14 49  1  0
 15 50  1  0
 15 51  1  0
 15 52  1  0
 19 53  1  0
 19 54  1  0
 20 55  1  0
 20 56  1  0
 23 57  1  0
 25 58  1  0
 27 59  1  0
 27 60  1  0
 27 61  1  0
 30 62  1  0
 31 63  1  0
 31 64  1  0
 32 65  1  0
 32 66  1  0
 35 67  1  0
 35 68  1  0
 35 69  1  0
M  END
$$$$
