
     RDKit          3D

 74 78  0  0  0  0  0  0  0  0999 V2000
   -4.0446    0.2986    1.6832 C   0  0  0  0  0  0  0  0  0  0  0  0
   -2.8223    1.1035    1.2013 C   0  0  0  0  0  0  0  0  0  0  0  0
   -3.2915    2.0986    0.1255 C   0  0  0  0  0  0  0  0  0  0  0  0
   -2.5462    3.3573    0.1689 N   0  0  0  0  0  0  0  0  0  0  0  0
   -2.9930    4.3944    1.1433 C   0  0  0  0  0  0  0  0  0  0  0  0
   -1.8983    4.7691    2.1450 C   0  0  0  0  0  0  0  0  0  0  0  0
   -3.5648    5.6427    0.4326 C   0  0  0  0  0  0  0  0  0  0  0  0
   -4.6231    5.2580   -0.4424 O   0  0  0  0  0  0  0  0  0  0  0  0
   -1.4386    3.6171   -0.6354 C   0  0  0  0  0  0  0  0  0  0  0  0
   -0.8960    4.7189   -0.6895 O   0  0  0  0  0  0  0  0  0  0  0  0
   -0.8602    2.5533   -1.4798 C   0  0  0  0  0  0  0  0  0  0  0  0
   -0.6381    2.8754   -2.8281 C   0  0  0  0  0  0  0  0  0  0  0  0
    0.0520    1.9939   -3.6591 C   0  0  0  0  0  0  0  0  0  0  0  0
    0.5676    0.8188   -3.1207 C   0  0  0  0  0  0  0  0  0  0  0  0
    0.3814    0.5081   -1.7717 C   0  0  0  0  0  0  0  0  0  0  0  0
    1.0033   -0.6397   -1.2214 N   0  0  0  0  0  0  0  0  0  0  0  0
    2.3672   -0.8464   -1.3845 C   0  0  0  0  0  0  0  0  0  0  0  0
    3.1490   -0.0316   -1.8616 O   0  0  0  0  0  0  0  0  0  0  0  0
    2.7243   -2.0857   -0.8953 N   0  0  0  0  0  0  0  0  0  0  0  0
    4.0442   -2.4739   -0.6053 C   0  0  0  0  0  0  0  0  0  0  0  0
    4.4189   -3.8119   -0.8398 C   0  0  0  0  0  0  0  0  0  0  0  0
    5.7053   -4.2590   -0.5207 C   0  0  0  0  0  0  0  0  0  0  0  0
    6.5509   -3.3625    0.1111 C   0  0  0  0  0  0  0  0  0  0  0  0
    6.1790   -2.0606    0.3658 C   0  0  0  0  0  0  0  0  0  0  0  0
    4.9410   -1.5821    0.0064 C   0  0  0  0  0  0  0  0  0  0  0  0
    7.1466   -1.3563    1.0134 O   0  0  0  0  0  0  0  0  0  0  0  0
    8.1651   -2.3677    1.1468 C   0  0  0  0  0  0  0  0  0  0  0  0
    7.8194   -3.6272    0.5119 O   0  0  0  0  0  0  0  0  0  0  0  0
   -0.3945    1.3422   -0.9496 C   0  0  0  0  0  0  0  0  0  0  0  0
   -0.5159    1.0631    0.3869 O   0  0  0  0  0  0  0  0  0  0  0  0
   -1.6561    0.2188    0.6893 C   0  0  0  0  0  0  0  0  0  0  0  0
   -1.1867   -0.7850    1.7732 C   0  0  0  0  0  0  0  0  0  0  0  0
   -0.0527   -1.6371    1.2507 N   0  0  0  0  0  0  0  0  0  0  0  0
    1.1257   -1.5650    2.1737 C   0  0  0  0  0  0  0  0  0  0  0  0
   -0.4484   -3.2534    0.8358 S   0  0  0  0  0  6  0  0  0  0  0  0
    0.6657   -3.7579    0.0529 O   0  0  0  0  0  0  0  0  0  0  0  0
   -0.8964   -3.9280    2.0296 O   0  0  0  0  0  0  0  0  0  0  0  0
   -1.8121   -3.2428   -0.3201 C   0  0  0  0  0  0  0  0  0  0  0  0
   -1.8404   -3.1244   -1.6967 C   0  0  0  0  0  0  0  0  0  0  0  0
   -3.1729   -3.2292   -2.2182 C   0  0  0  0  0  0  0  0  0  0  0  0
   -4.1185   -3.3485   -1.2231 C   0  0  0  0  0  0  0  0  0  0  0  0
   -3.3962   -3.4537    0.3272 S   0  0  0  0  0  0  0  0  0  0  0  0
   -3.8098   -0.2905    2.5845 H   0  0  0  0  0  0  0  0  0  0  0  0
   -4.8474    0.9855    1.9960 H   0  0  0  0  0  0  0  0  0  0  0  0
   -4.4688   -0.3833    0.9285 H   0  0  0  0  0  0  0  0  0  0  0  0
   -2.4583    1.6747    2.0670 H   0  0  0  0  0  0  0  0  0  0  0  0
   -3.2321    1.6552   -0.8831 H   0  0  0  0  0  0  0  0  0  0  0  0
   -4.3446    2.3645    0.2548 H   0  0  0  0  0  0  0  0  0  0  0  0
   -3.8161    3.9434    1.7162 H   0  0  0  0  0  0  0  0  0  0  0  0
   -2.3294    5.3041    3.0027 H   0  0  0  0  0  0  0  0  0  0  0  0
   -1.1323    5.4022    1.6967 H   0  0  0  0  0  0  0  0  0  0  0  0
   -1.4054    3.8711    2.5262 H   0  0  0  0  0  0  0  0  0  0  0  0
   -3.9804    6.3438    1.1681 H   0  0  0  0  0  0  0  0  0  0  0  0
   -2.8106    6.1838   -0.1440 H   0  0  0  0  0  0  0  0  0  0  0  0
   -4.2185    4.6090   -1.0502 H   0  0  0  0  0  0  0  0  0  0  0  0
   -0.9625    3.8390   -3.2150 H   0  0  0  0  0  0  0  0  0  0  0  0
    0.2486    2.2654   -4.7018 H   0  0  0  0  0  0  0  0  0  0  0  0
    1.1673    0.1665   -3.7549 H   0  0  0  0  0  0  0  0  0  0  0  0
    0.7353   -0.8351   -0.2563 H   0  0  0  0  0  0  0  0  0  0  0  0
    2.0389   -2.8352   -1.0541 H   0  0  0  0  0  0  0  0  0  0  0  0
    3.7228   -4.4953   -1.3269 H   0  0  0  0  0  0  0  0  0  0  0  0
    6.0431   -5.2719   -0.7612 H   0  0  0  0  0  0  0  0  0  0  0  0
    4.6628   -0.5579    0.2285 H   0  0  0  0  0  0  0  0  0  0  0  0
    8.3441   -2.5509    2.2195 H   0  0  0  0  0  0  0  0  0  0  0  0
    9.0904   -1.9921    0.6971 H   0  0  0  0  0  0  0  0  0  0  0  0
   -1.9781   -0.3374   -0.1990 H   0  0  0  0  0  0  0  0  0  0  0  0
   -2.0073   -1.4267    2.0942 H   0  0  0  0  0  0  0  0  0  0  0  0
   -0.8637   -0.2242    2.6633 H   0  0  0  0  0  0  0  0  0  0  0  0
    1.6344   -0.6111    2.0221 H   0  0  0  0  0  0  0  0  0  0  0  0
    0.8068   -1.6402    3.2176 H   0  0  0  0  0  0  0  0  0  0  0  0
    1.8446   -2.3516    1.9590 H   0  0  0  0  0  0  0  0  0  0  0  0
   -0.9543   -2.9982   -2.3035 H   0  0  0  0  0  0  0  0  0  0  0  0
   -3.4239   -3.1747   -3.2685 H   0  0  0  0  0  0  0  0  0  0  0  0
   -5.1947   -3.4340   -1.3354 H   0  0  0  0  0  0  0  0  0  0  0  0
  1  2  1  0
  2  3  1  0
  3  4  1  0
  4  5  1  0
  5  6  1  0
  5  7  1  0
  7  8  1  0
  4  9  1  0
  9 10  2  0
  9 11  1  0
 11 12  2  0
 12 13  1  0
 13 14  2  0
 14 15  1  0
 15 16  1  0
 16 17  1  0
 17 18  2  0
 17 19  1  0
 19 20  1  0
 20 21  2  0
 21 22  1  0
 22 23  2  0
 23 24  1  0
 24 25  2  0
 24 26  1  0
 26 27  1  0
 27 28  1  0
 15 29  2  0
 29 30  1  0
 30 31  1  0
 31 32  1  0
 32 33  1  0
 33 34  1  0
 33 35  1  0
 35 36  2  0
 35 37  2  0
 35 38  1  0
 38 39  2  0
 39 40  1  0
 40 41  2  0
 41 42  1  0
 31  2  1  0
 42 38  1  0
 29 11  1  0
 25 20  1  0
 28 23  1  0
  1 43  1  0
  1 44  1  0
  1 45  1  0
  2 46  1  0
  3 47  1  0
  3 48  1  0
  5 49  1  0
  6 50  1  0
  6 51  1  0
  6 52  1  0
  7 53  1  0
  7 54  1  0
  8 55  1  0
 12 56  1  0
 13 57  1  0
 14 58  1  0
 16 59  1  0
 19 60  1  0
 21 61  1  0
 22 62  1  0
 25 63  1  0
 27 64  1  0
 27 65  1  0
 31 66  1  0
 32 67  1  0
 32 68  1  0
 34 69  1  0
 34 70  1  0
 34 71  1  0
 39 72  1  0
 40 73  1  0
 41 74  1  0
M  END
$$$$
