
     RDKit          3D

 32 34  0  0  0  0  0  0  0  0999 V2000
   -0.0929   -0.4843   -1.4631 O   0  0  0  0  0  0  0  0  0  0  0  0
   -0.2400   -0.2010   -0.2795 C   0  0  0  0  0  0  0  0  0  0  0  0
   -1.6180    0.0875    0.3341 C   0  0  0  0  0  0  0  0  0  0  0  0
   -2.6494   -0.0190   -0.6340 O   0  0  0  0  0  0  0  0  0  0  0  0
   -3.9298    0.2142   -0.2183 C   0  0  0  0  0  0  0  0  0  0  0  0
   -4.3276    0.5499    1.0772 C   0  0  0  0  0  0  0  0  0  0  0  0
   -5.6813    0.7615    1.3629 C   0  0  0  0  0  0  0  0  0  0  0  0
   -6.6342    0.6372    0.3534 C   0  0  0  0  0  0  0  0  0  0  0  0
   -8.4605    0.9242    0.7452 Br  0  0  0  0  0  0  0  0  0  0  0  0
   -6.2475    0.3030   -0.9409 C   0  0  0  0  0  0  0  0  0  0  0  0
   -4.8958    0.0927   -1.2219 C   0  0  0  0  0  0  0  0  0  0  0  0
    0.7627   -0.0965    0.6662 N   0  0  0  0  0  0  0  0  0  0  0  0
    2.1077   -0.2871    0.4677 C   0  0  0  0  0  0  0  0  0  0  0  0
    2.9744   -0.1599    1.4496 N   0  0  0  0  0  0  0  0  0  0  0  0
    4.2706   -0.3953    1.0323 N   0  0  0  0  0  0  0  0  0  0  0  0
    4.3162   -0.6822   -0.2497 C   0  0  0  0  0  0  0  0  0  0  0  0
    5.6534   -1.0011   -0.9855 C   0  0  0  0  0  0  0  0  0  0  0  0
    6.8852   -0.1974   -0.6540 C   0  0  0  0  0  0  0  0  0  0  0  0
    6.2047   -0.0092   -1.9782 C   0  0  0  0  0  0  0  0  0  0  0  0
    2.7987   -0.7024   -1.0328 S   0  0  0  0  0  0  0  0  0  0  0  0
   -1.7784   -0.6442    1.1356 H   0  0  0  0  0  0  0  0  0  0  0  0
   -1.5880    1.1060    0.7404 H   0  0  0  0  0  0  0  0  0  0  0  0
   -3.6167    0.6559    1.8891 H   0  0  0  0  0  0  0  0  0  0  0  0
   -5.9810    1.0224    2.3747 H   0  0  0  0  0  0  0  0  0  0  0  0
   -6.9819    0.2035   -1.7354 H   0  0  0  0  0  0  0  0  0  0  0  0
   -4.5906   -0.1689   -2.2330 H   0  0  0  0  0  0  0  0  0  0  0  0
    0.5369    0.1440    1.6216 H   0  0  0  0  0  0  0  0  0  0  0  0
    5.7980   -2.0552   -1.1968 H   0  0  0  0  0  0  0  0  0  0  0  0
    6.8027    0.5972    0.0798 H   0  0  0  0  0  0  0  0  0  0  0  0
    7.8365   -0.7163   -0.6365 H   0  0  0  0  0  0  0  0  0  0  0  0
    5.6708    0.9202   -2.1425 H   0  0  0  0  0  0  0  0  0  0  0  0
    6.6950   -0.3992   -2.8627 H   0  0  0  0  0  0  0  0  0  0  0  0
  1  2  2  0
  2  3  1  0
  3  4  1  0
  4  5  1  0
  5  6  2  0
  6  7  1  0
  7  8  2  0
  8  9  1  0
  8 10  1  0
 10 11  2  0
  2 12  1  0
 12 13  1  0
 13 14  2  0
 14 15  1  0
 15 16  2  0
 16 17  1  0
 17 18  1  0
 18 19  1  0
 16 20  1  0
 11  5  1  0
 20 13  1  0
 19 17  1  0
  3 21  1  0
  3 22  1  0
  6 23  1  0
  7 24  1  0
 10 25  1  0
 11 26  1  0
 12 27  1  0
 17 28  1  0
 18 29  1  0
 18 30  1  0
 19 31  1  0
 19 32  1  0
M  END
$$$$
