
     RDKit          3D

 51 54  0  0  0  0  0  0  0  0999 V2000
   -6.6820   -0.9081    1.9700 C   0  0  0  0  0  0  0  0  0  0  0  0
   -6.6053   -0.8676    0.4503 C   0  0  0  0  0  0  0  0  0  0  0  0
   -5.7955    0.2699   -0.0072 N   0  0  0  0  0  0  0  0  0  0  0  0
   -6.5364    1.5105   -0.2771 C   0  0  0  0  0  0  0  0  0  0  0  0
   -6.9573    1.5887   -1.7376 C   0  0  0  0  0  0  0  0  0  0  0  0
   -4.4165    0.1831   -0.1684 C   0  0  0  0  0  0  0  0  0  0  0  0
   -3.6843   -0.9588    0.2156 C   0  0  0  0  0  0  0  0  0  0  0  0
   -2.2908   -1.0605    0.0591 C   0  0  0  0  0  0  0  0  0  0  0  0
   -1.5752   -0.0084   -0.4949 C   0  0  0  0  0  0  0  0  0  0  0  0
   -0.1385   -0.0549   -0.6940 C   0  0  0  0  0  0  0  0  0  0  0  0
    0.5151    0.9855   -1.2397 C   0  0  0  0  0  0  0  0  0  0  0  0
    1.9301    0.8722   -1.4113 C   0  0  0  0  0  0  0  0  0  0  0  0
    2.7603    0.2938   -0.5580 N   0  0  0  0  0  0  0  0  0  0  0  0
    4.0701    0.3197   -1.0176 C   0  0  0  0  0  0  0  0  0  0  0  0
    5.1581   -0.2369   -0.2151 C   0  0  0  0  0  0  0  0  0  0  0  0
    4.8567   -1.0860    0.8580 C   0  0  0  0  0  0  0  0  0  0  0  0
    5.8743   -1.6355    1.6446 C   0  0  0  0  0  0  0  0  0  0  0  0
    7.2129   -1.3454    1.3809 C   0  0  0  0  0  0  0  0  0  0  0  0
    8.1063   -1.9457    2.2236 O   0  0  0  0  0  0  0  0  0  0  0  0
    9.4831   -1.6617    2.0100 C   0  0  0  0  0  0  0  0  0  0  0  0
    7.5254   -0.4964    0.3207 C   0  0  0  0  0  0  0  0  0  0  0  0
    6.5057    0.0545   -0.4698 C   0  0  0  0  0  0  0  0  0  0  0  0
    4.2192    0.8781   -2.2696 C   0  0  0  0  0  0  0  0  0  0  0  0
    2.7032    1.3891   -2.8754 S   0  0  0  0  0  0  0  0  0  0  0  0
   -0.2110    2.2324   -1.6052 C   0  0  0  0  0  0  0  0  0  0  0  0
    0.3504    3.2394   -2.0239 O   0  0  0  0  0  0  0  0  0  0  0  0
   -1.5962    2.2213   -1.4406 O   0  0  0  0  0  0  0  0  0  0  0  0
   -2.2719    1.1223   -0.8789 C   0  0  0  0  0  0  0  0  0  0  0  0
   -3.6583    1.2271   -0.7244 C   0  0  0  0  0  0  0  0  0  0  0  0
   -7.3057   -1.7470    2.2942 H   0  0  0  0  0  0  0  0  0  0  0  0
   -7.1208    0.0136    2.3664 H   0  0  0  0  0  0  0  0  0  0  0  0
   -5.6933   -1.0256    2.4237 H   0  0  0  0  0  0  0  0  0  0  0  0
   -7.6252   -0.7765    0.0551 H   0  0  0  0  0  0  0  0  0  0  0  0
   -6.2357   -1.8184    0.0503 H   0  0  0  0  0  0  0  0  0  0  0  0
   -5.9653    2.3988    0.0154 H   0  0  0  0  0  0  0  0  0  0  0  0
   -7.4401    1.5429    0.3450 H   0  0  0  0  0  0  0  0  0  0  0  0
   -6.0941    1.5864   -2.4098 H   0  0  0  0  0  0  0  0  0  0  0  0
   -7.5252    2.5067   -1.9182 H   0  0  0  0  0  0  0  0  0  0  0  0
   -7.5917    0.7386   -2.0099 H   0  0  0  0  0  0  0  0  0  0  0  0
   -4.1810   -1.8133    0.6656 H   0  0  0  0  0  0  0  0  0  0  0  0
   -1.7895   -1.9706    0.3794 H   0  0  0  0  0  0  0  0  0  0  0  0
    0.3858   -0.9600   -0.3981 H   0  0  0  0  0  0  0  0  0  0  0  0
    3.8221   -1.3287    1.0924 H   0  0  0  0  0  0  0  0  0  0  0  0
    5.6171   -2.2930    2.4715 H   0  0  0  0  0  0  0  0  0  0  0  0
    9.8103   -2.0135    1.0260 H   0  0  0  0  0  0  0  0  0  0  0  0
    9.6908   -0.5943    2.1379 H   0  0  0  0  0  0  0  0  0  0  0  0
   10.0578   -2.2054    2.7659 H   0  0  0  0  0  0  0  0  0  0  0  0
    8.5510   -0.2364    0.0806 H   0  0  0  0  0  0  0  0  0  0  0  0
    6.7929    0.7243   -1.2759 H   0  0  0  0  0  0  0  0  0  0  0  0
    5.1109    1.0027   -2.8654 H   0  0  0  0  0  0  0  0  0  0  0  0
   -4.1230    2.1471   -1.0615 H   0  0  0  0  0  0  0  0  0  0  0  0
  1  2  1  0
  2  3  1  0
  3  4  1  0
  4  5  1  0
  3  6  1  0
  6  7  2  0
  7  8  1  0
  8  9  2  0
  9 10  1  0
 10 11  2  0
 11 12  1  0
 12 13  2  0
 13 14  1  0
 14 15  1  0
 15 16  2  0
 16 17  1  0
 17 18  2  0
 18 19  1  0
 19 20  1  0
 18 21  1  0
 21 22  2  0
 14 23  2  0
 23 24  1  0
 11 25  1  0
 25 26  2  0
 25 27  1  0
 27 28  1  0
 28 29  2  0
 29  6  1  0
 28  9  1  0
 24 12  1  0
 22 15  1  0
  1 30  1  0
  1 31  1  0
  1 32  1  0
  2 33  1  0
  2 34  1  0
  4 35  1  0
  4 36  1  0
  5 37  1  0
  5 38  1  0
  5 39  1  0
  7 40  1  0
  8 41  1  0
 10 42  1  0
 16 43  1  0
 17 44  1  0
 20 45  1  0
 20 46  1  0
 20 47  1  0
 21 48  1  0
 22 49  1  0
 23 50  1  0
 29 51  1  0
M  END
$$$$
