
     RDKit          3D

 48 50  0  0  0  0  0  0  0  0999 V2000
    9.4266   -0.3791    0.4533 C   0  0  0  0  0  0  0  0  0  0  0  0
    8.0983    0.2563    0.6440 C   0  0  0  0  0  0  0  0  0  0  0  0
    7.8263    1.3865    1.3922 C   0  0  0  0  0  0  0  0  0  0  0  0
    6.1516    1.7397    1.3296 S   0  0  0  0  0  0  0  0  0  0  0  0
    5.9139    0.3824    0.3299 C   0  0  0  0  0  0  0  0  0  0  0  0
    4.6927    0.0176   -0.1745 N   0  0  0  0  0  0  0  0  0  0  0  0
    3.4793    0.6343    0.0416 C   0  0  0  0  0  0  0  0  0  0  0  0
    3.2726    1.6383    0.7131 O   0  0  0  0  0  0  0  0  0  0  0  0
    2.3636   -0.0376   -0.7437 C   0  0  0  0  0  0  0  0  0  0  0  0
    0.9921    0.1573   -0.1049 C   0  0  0  0  0  0  0  0  0  0  0  0
    0.7047   -0.9564    0.8109 N   0  0  0  0  0  0  0  0  0  0  0  0
   -0.3588   -0.7304    2.0932 S   0  0  0  0  0  6  0  0  0  0  0  0
   -0.6078   -2.0385    2.6583 O   0  0  0  0  0  0  0  0  0  0  0  0
    0.1147    0.3762    2.8926 O   0  0  0  0  0  0  0  0  0  0  0  0
   -1.8445   -0.2149    1.2668 C   0  0  0  0  0  0  0  0  0  0  0  0
   -2.2844    1.1037    1.3672 C   0  0  0  0  0  0  0  0  0  0  0  0
   -3.4517    1.4967    0.7004 C   0  0  0  0  0  0  0  0  0  0  0  0
   -4.1899    0.5815   -0.0698 C   0  0  0  0  0  0  0  0  0  0  0  0
   -3.7343   -0.7356   -0.1435 C   0  0  0  0  0  0  0  0  0  0  0  0
   -2.5708   -1.1450    0.5257 C   0  0  0  0  0  0  0  0  0  0  0  0
   -4.4820   -1.7109   -0.9501 C   0  0  0  0  0  0  0  0  0  0  0  0
   -4.0255   -2.8456   -1.0824 O   0  0  0  0  0  0  0  0  0  0  0  0
   -5.6586   -1.2703   -1.5321 N   0  0  0  0  0  0  0  0  0  0  0  0
   -6.4158   -2.2282   -2.3166 C   0  0  0  0  0  0  0  0  0  0  0  0
   -6.1006    0.0470   -1.5340 C   0  0  0  0  0  0  0  0  0  0  0  0
   -7.0916    0.3912   -2.1816 O   0  0  0  0  0  0  0  0  0  0  0  0
   -5.3624    0.9570   -0.7781 N   0  0  0  0  0  0  0  0  0  0  0  0
   -5.8241    2.3387   -0.7267 C   0  0  0  0  0  0  0  0  0  0  0  0
    6.9881   -0.3157    0.0406 N   0  0  0  0  0  0  0  0  0  0  0  0
   10.2071    0.3771    0.3232 H   0  0  0  0  0  0  0  0  0  0  0  0
    9.4266   -1.0197   -0.4337 H   0  0  0  0  0  0  0  0  0  0  0  0
    9.6797   -0.9949    1.3227 H   0  0  0  0  0  0  0  0  0  0  0  0
    8.5081    2.0067    1.9546 H   0  0  0  0  0  0  0  0  0  0  0  0
    4.7491   -0.8115   -0.7496 H   0  0  0  0  0  0  0  0  0  0  0  0
    2.3669    0.4394   -1.7333 H   0  0  0  0  0  0  0  0  0  0  0  0
    2.5803   -1.1026   -0.8879 H   0  0  0  0  0  0  0  0  0  0  0  0
    0.9098    1.1205    0.4066 H   0  0  0  0  0  0  0  0  0  0  0  0
    0.2357    0.1320   -0.8974 H   0  0  0  0  0  0  0  0  0  0  0  0
    0.6957   -1.9102    0.4499 H   0  0  0  0  0  0  0  0  0  0  0  0
   -1.7289    1.8327    1.9558 H   0  0  0  0  0  0  0  0  0  0  0  0
   -3.7568    2.5348    0.8010 H   0  0  0  0  0  0  0  0  0  0  0  0
   -2.2397   -2.1807    0.4676 H   0  0  0  0  0  0  0  0  0  0  0  0
   -7.4859   -2.0068   -2.2757 H   0  0  0  0  0  0  0  0  0  0  0  0
   -6.0815   -2.1606   -3.3561 H   0  0  0  0  0  0  0  0  0  0  0  0
   -6.2561   -3.2495   -1.9593 H   0  0  0  0  0  0  0  0  0  0  0  0
   -6.7146    2.5031   -1.3386 H   0  0  0  0  0  0  0  0  0  0  0  0
   -5.0374    3.0024   -1.1001 H   0  0  0  0  0  0  0  0  0  0  0  0
   -6.0795    2.5916    0.3068 H   0  0  0  0  0  0  0  0  0  0  0  0
  1  2  1  0
  2  3  2  0
  3  4  1  0
  4  5  1  0
  5  6  1  0
  6  7  1  0
  7  8  2  0
  7  9  1  0
  9 10  1  0
 10 11  1  0
 11 12  1  0
 12 13  2  0
 12 14  2  0
 12 15  1  0
 15 16  2  0
 16 17  1  0
 17 18  2  0
 18 19  1  0
 19 20  2  0
 19 21  1  0
 21 22  2  0
 21 23  1  0
 23 24  1  0
 23 25  1  0
 25 26  2  0
 25 27  1  0
 27 28  1  0
  5 29  2  0
 29  2  1  0
 20 15  1  0
 27 18  1  0
  1 30  1  0
  1 31  1  0
  1 32  1  0
  3 33  1  0
  6 34  1  0
  9 35  1  0
  9 36  1  0
 10 37  1  0
 10 38  1  0
 11 39  1  0
 16 40  1  0
 17 41  1  0
 20 42  1  0
 24 43  1  0
 24 44  1  0
 24 45  1  0
 28 46  1  0
 28 47  1  0
 28 48  1  0
M  END
$$$$
