
     RDKit          3D

 46 48  0  0  0  0  0  0  0  0999 V2000
   -1.0760    0.7452    2.3819 C   0  0  0  0  0  0  0  0  0  0  0  0
   -2.1187   -0.3472    2.5338 C   0  0  0  0  0  0  0  0  0  0  0  0
   -2.7881   -0.6945    1.2723 N   0  0  0  0  0  4  0  0  0  0  0  0
   -2.4915   -1.7774    0.5656 C   0  0  0  0  0  0  0  0  0  0  0  0
   -1.4740   -2.7290    0.8248 C   0  0  0  0  0  0  0  0  0  0  0  0
   -0.1941   -2.5536    0.4535 C   0  0  0  0  0  0  0  0  0  0  0  0
    0.3347   -1.4101   -0.2622 C   0  0  0  0  0  0  0  0  0  0  0  0
    1.6442   -1.1923   -0.4590 C   0  0  0  0  0  0  0  0  0  0  0  0
    2.2154   -0.0721   -1.0829 N   0  0  0  0  0  0  0  0  0  0  0  0
    1.4607    1.1046   -1.2998 C   0  0  0  0  0  0  0  0  0  0  0  0
    1.9028    2.0115   -2.4316 C   0  0  0  0  0  0  0  0  0  0  0  0
    0.4394    1.4029   -0.6677 O   0  0  0  0  0  0  0  0  0  0  0  0
    3.6290   -0.0990   -1.3711 C   0  0  0  0  0  0  0  0  0  0  0  0
    4.2262   -1.2611   -1.8865 C   0  0  0  0  0  0  0  0  0  0  0  0
    5.5971   -1.3030   -2.1536 C   0  0  0  0  0  0  0  0  0  0  0  0
    6.3920   -0.1894   -1.8969 C   0  0  0  0  0  0  0  0  0  0  0  0
    5.8191    0.9644   -1.3686 C   0  0  0  0  0  0  0  0  0  0  0  0
    4.4474    1.0087   -1.1032 C   0  0  0  0  0  0  0  0  0  0  0  0
   -3.5383   -1.9432   -0.7832 S   0  0  0  0  0  0  0  0  0  0  0  0
   -4.3646   -0.4829   -0.4075 C   0  0  0  0  0  0  0  0  0  0  0  0
   -5.4264    0.1248   -1.0955 C   0  0  0  0  0  0  0  0  0  0  0  0
   -5.9456    1.3169   -0.5852 C   0  0  0  0  0  0  0  0  0  0  0  0
   -5.4261    1.8840    0.5737 C   0  0  0  0  0  0  0  0  0  0  0  0
   -4.3675    1.2725    1.2567 C   0  0  0  0  0  0  0  0  0  0  0  0
   -3.8277    0.0711    0.7523 C   0  0  0  0  0  0  0  0  0  0  0  0
   -0.2280    0.4002    1.7885 H   0  0  0  0  0  0  0  0  0  0  0  0
   -1.4854    1.6337    1.8934 H   0  0  0  0  0  0  0  0  0  0  0  0
   -0.6944    1.0408    3.3642 H   0  0  0  0  0  0  0  0  0  0  0  0
   -1.6578   -1.2373    2.9764 H   0  0  0  0  0  0  0  0  0  0  0  0
   -2.8849   -0.0323    3.2528 H   0  0  0  0  0  0  0  0  0  0  0  0
   -1.7583   -3.6522    1.3258 H   0  0  0  0  0  0  0  0  0  0  0  0
    0.5204   -3.3408    0.7000 H   0  0  0  0  0  0  0  0  0  0  0  0
   -0.3861   -0.7009   -0.6558 H   0  0  0  0  0  0  0  0  0  0  0  0
    2.3623   -1.9296   -0.1024 H   0  0  0  0  0  0  0  0  0  0  0  0
    2.5018    1.4837   -3.1774 H   0  0  0  0  0  0  0  0  0  0  0  0
    1.0088    2.3786   -2.9469 H   0  0  0  0  0  0  0  0  0  0  0  0
    2.4504    2.8689   -2.0342 H   0  0  0  0  0  0  0  0  0  0  0  0
    3.6296   -2.1384   -2.1243 H   0  0  0  0  0  0  0  0  0  0  0  0
    6.0444   -2.2033   -2.5687 H   0  0  0  0  0  0  0  0  0  0  0  0
    7.4594   -0.2222   -2.1043 H   0  0  0  0  0  0  0  0  0  0  0  0
    6.4438    1.8285   -1.1527 H   0  0  0  0  0  0  0  0  0  0  0  0
    4.0463    1.9086   -0.6445 H   0  0  0  0  0  0  0  0  0  0  0  0
   -5.8385   -0.3139   -2.0017 H   0  0  0  0  0  0  0  0  0  0  0  0
   -6.7687    1.8085   -1.1043 H   0  0  0  0  0  0  0  0  0  0  0  0
   -5.8477    2.8163    0.9493 H   0  0  0  0  0  0  0  0  0  0  0  0
   -3.9870    1.7512    2.1543 H   0  0  0  0  0  0  0  0  0  0  0  0
  1  2  1  0
  2  3  1  0
  3  4  2  0
  4  5  1  0
  5  6  2  3
  6  7  1  0
  7  8  2  3
  8  9  1  0
  9 10  1  0
 10 11  1  0
 10 12  2  0
  9 13  1  0
 13 14  2  0
 14 15  1  0
 15 16  2  0
 16 17  1  0
 17 18  2  0
  4 19  1  0
 19 20  1  0
 20 21  2  0
 21 22  1  0
 22 23  2  0
 23 24  1  0
 24 25  2  0
 25  3  1  0
 18 13  1  0
 25 20  1  0
  1 26  1  0
  1 27  1  0
  1 28  1  0
  2 29  1  0
  2 30  1  0
  5 31  1  0
  6 32  1  0
  7 33  1  0
  8 34  1  0
 11 35  1  0
 11 36  1  0
 11 37  1  0
 14 38  1  0
 15 39  1  0
 16 40  1  0
 17 41  1  0
 18 42  1  0
 21 43  1  0
 22 44  1  0
 23 45  1  0
 24 46  1  0
M  CHG  1   3   1
M  END
$$$$
