
     RDKit          3D

 47 48  0  0  0  0  0  0  0  0999 V2000
   -4.3011    1.2248   -0.5460 C   0  0  0  0  0  0  0  0  0  0  0  0
   -3.1543    2.0033    0.0802 C   0  0  0  0  0  0  0  0  0  0  0  0
   -2.5794    1.2896    1.2307 N   0  0  0  0  0  0  0  0  0  0  0  0
   -3.2370    1.5219    2.5288 C   0  0  0  0  0  0  0  0  0  0  0  0
   -4.0387    0.3098    2.9846 C   0  0  0  0  0  0  0  0  0  0  0  0
   -1.4922    0.4318    1.0974 C   0  0  0  0  0  0  0  0  0  0  0  0
   -0.7583   -0.0206    2.2066 C   0  0  0  0  0  0  0  0  0  0  0  0
    0.3510   -0.8693    2.0831 C   0  0  0  0  0  0  0  0  0  0  0  0
    0.7716   -1.3074    0.8288 C   0  0  0  0  0  0  0  0  0  0  0  0
    1.9609   -2.1688    0.7595 C   0  0  0  0  0  0  0  0  0  0  0  0
    3.1354   -1.8264    0.2035 C   0  0  0  0  0  0  0  0  0  0  0  0
    3.4193   -0.5310   -0.4266 C   0  0  0  0  0  0  0  0  0  0  0  0
    3.4505    0.6387    0.3452 C   0  0  0  0  0  0  0  0  0  0  0  0
    3.7214    1.8628   -0.2510 C   0  0  0  0  0  0  0  0  0  0  0  0
    3.9652    1.9081   -1.6134 C   0  0  0  0  0  0  0  0  0  0  0  0
    3.9357    0.7311   -2.3500 C   0  0  0  0  0  0  0  0  0  0  0  0
    3.6740   -0.4603   -1.7619 N   0  0  0  0  0  4  0  0  0  0  0  0
    3.6528   -1.6744   -2.5996 C   0  0  0  0  0  0  0  0  0  0  0  0
    0.0375   -0.9125   -0.2948 C   0  0  0  0  0  0  0  0  0  0  0  0
    0.4454   -1.3604   -1.5309 O   0  0  0  0  0  0  0  0  0  0  0  0
   -0.6330   -1.8933   -2.3055 C   0  0  0  0  0  0  0  0  0  0  0  0
   -1.0537   -0.0372   -0.1544 C   0  0  0  0  0  0  0  0  0  0  0  0
   -5.1355    1.1213    0.1546 H   0  0  0  0  0  0  0  0  0  0  0  0
   -3.9935    0.2198   -0.8501 H   0  0  0  0  0  0  0  0  0  0  0  0
   -4.6733    1.7498   -1.4314 H   0  0  0  0  0  0  0  0  0  0  0  0
   -3.5283    2.9838    0.4008 H   0  0  0  0  0  0  0  0  0  0  0  0
   -2.3909    2.2346   -0.6716 H   0  0  0  0  0  0  0  0  0  0  0  0
   -2.5094    1.8195    3.2919 H   0  0  0  0  0  0  0  0  0  0  0  0
   -3.9289    2.3702    2.4538 H   0  0  0  0  0  0  0  0  0  0  0  0
   -4.7963    0.0335    2.2451 H   0  0  0  0  0  0  0  0  0  0  0  0
   -3.4030   -0.5650    3.1494 H   0  0  0  0  0  0  0  0  0  0  0  0
   -4.5513    0.5319    3.9260 H   0  0  0  0  0  0  0  0  0  0  0  0
   -1.0218    0.2912    3.2134 H   0  0  0  0  0  0  0  0  0  0  0  0
    0.8792   -1.1710    2.9854 H   0  0  0  0  0  0  0  0  0  0  0  0
    1.8448   -3.1470    1.2239 H   0  0  0  0  0  0  0  0  0  0  0  0
    3.9537   -2.5419    0.2098 H   0  0  0  0  0  0  0  0  0  0  0  0
    3.2527    0.5980    1.4151 H   0  0  0  0  0  0  0  0  0  0  0  0
    3.7357    2.7736    0.3454 H   0  0  0  0  0  0  0  0  0  0  0  0
    4.1750    2.8575   -2.1014 H   0  0  0  0  0  0  0  0  0  0  0  0
    4.1226    0.7370   -3.4203 H   0  0  0  0  0  0  0  0  0  0  0  0
    3.7275   -1.4012   -3.6553 H   0  0  0  0  0  0  0  0  0  0  0  0
    2.7158   -2.2100   -2.4405 H   0  0  0  0  0  0  0  0  0  0  0  0
    4.5139   -2.2871   -2.3193 H   0  0  0  0  0  0  0  0  0  0  0  0
   -0.1991   -2.5443   -3.0707 H   0  0  0  0  0  0  0  0  0  0  0  0
   -1.1715   -1.0901   -2.8177 H   0  0  0  0  0  0  0  0  0  0  0  0
   -1.3165   -2.4977   -1.6982 H   0  0  0  0  0  0  0  0  0  0  0  0
   -1.5742    0.2733   -1.0528 H   0  0  0  0  0  0  0  0  0  0  0  0
  1  2  1  0
  2  3  1  0
  3  4  1  0
  4  5  1  0
  3  6  1  0
  6  7  2  0
  7  8  1  0
  8  9  2  0
  9 10  1  0
 10 11  2  3
 11 12  1  0
 12 13  2  0
 13 14  1  0
 14 15  2  0
 15 16  1  0
 16 17  2  0
 17 18  1  0
  9 19  1  0
 19 20  1  0
 20 21  1  0
 19 22  2  0
 22  6  1  0
 17 12  1  0
  1 23  1  0
  1 24  1  0
  1 25  1  0
  2 26  1  0
  2 27  1  0
  4 28  1  0
  4 29  1  0
  5 30  1  0
  5 31  1  0
  5 32  1  0
  7 33  1  0
  8 34  1  0
 10 35  1  0
 11 36  1  0
 13 37  1  0
 14 38  1  0
 15 39  1  0
 16 40  1  0
 18 41  1  0
 18 42  1  0
 18 43  1  0
 21 44  1  0
 21 45  1  0
 21 46  1  0
 22 47  1  0
M  CHG  1  17   1
M  END
$$$$
