
     RDKit          3D

 36 37  0  0  0  0  0  0  0  0999 V2000
    0.7157   -0.5889   -3.4151 O   0  0  0  0  0  0  0  0  0  0  0  0
   -0.2321   -0.7529   -2.6562 C   0  0  0  0  0  0  0  0  0  0  0  0
   -1.5568   -0.1791   -3.0005 C   0  0  0  0  0  0  0  0  0  0  0  0
   -2.4708    0.3685   -2.1834 C   0  0  0  0  0  0  0  0  0  0  0  0
   -2.3673    0.5710   -0.7307 C   0  0  0  0  0  0  0  0  0  0  0  0
   -1.3356    1.3740   -0.2235 C   0  0  0  0  0  0  0  0  0  0  0  0
   -1.2212    1.6042    1.1492 C   0  0  0  0  0  0  0  0  0  0  0  0
   -2.1376    1.0407    2.0330 C   0  0  0  0  0  0  0  0  0  0  0  0
   -3.1744    0.2472    1.5443 C   0  0  0  0  0  0  0  0  0  0  0  0
   -3.2923    0.0155    0.1700 C   0  0  0  0  0  0  0  0  0  0  0  0
   -4.5901   -0.9958   -0.3655 Cl  0  0  0  0  0  0  0  0  0  0  0  0
   -0.2002   -1.5133   -1.5203 N   0  0  0  0  0  0  0  0  0  0  0  0
    0.9782   -2.2515   -1.1063 C   0  0  0  0  0  0  0  0  0  0  0  0
    1.3665   -1.9808    0.3522 C   0  0  0  0  0  0  0  0  0  0  0  0
    1.8922   -0.6065    0.7101 C   0  0  0  0  0  0  0  0  0  0  0  0
    1.9422   -0.2467    2.0680 C   0  0  0  0  0  0  0  0  0  0  0  0
    2.4488    0.9923    2.4661 C   0  0  0  0  0  0  0  0  0  0  0  0
    2.9189    1.8901    1.5123 C   0  0  0  0  0  0  0  0  0  0  0  0
    2.8866    1.5452    0.1637 C   0  0  0  0  0  0  0  0  0  0  0  0
    2.3835    0.3034   -0.2347 C   0  0  0  0  0  0  0  0  0  0  0  0
   -1.7470   -0.1884   -4.0707 H   0  0  0  0  0  0  0  0  0  0  0  0
   -3.3974    0.7376   -2.6207 H   0  0  0  0  0  0  0  0  0  0  0  0
   -0.6028    1.8238   -0.8917 H   0  0  0  0  0  0  0  0  0  0  0  0
   -0.4061    2.2187    1.5252 H   0  0  0  0  0  0  0  0  0  0  0  0
   -2.0425    1.2195    3.1010 H   0  0  0  0  0  0  0  0  0  0  0  0
   -3.8876   -0.1887    2.2392 H   0  0  0  0  0  0  0  0  0  0  0  0
   -1.0626   -1.6717   -1.0169 H   0  0  0  0  0  0  0  0  0  0  0  0
    0.7170   -3.3110   -1.2095 H   0  0  0  0  0  0  0  0  0  0  0  0
    1.8161   -2.0634   -1.7852 H   0  0  0  0  0  0  0  0  0  0  0  0
    2.1423   -2.7045    0.6335 H   0  0  0  0  0  0  0  0  0  0  0  0
    0.4896   -2.1864    0.9808 H   0  0  0  0  0  0  0  0  0  0  0  0
    1.5852   -0.9378    2.8288 H   0  0  0  0  0  0  0  0  0  0  0  0
    2.4799    1.2526    3.5206 H   0  0  0  0  0  0  0  0  0  0  0  0
    3.3167    2.8537    1.8181 H   0  0  0  0  0  0  0  0  0  0  0  0
    3.2597    2.2394   -0.5852 H   0  0  0  0  0  0  0  0  0  0  0  0
    2.3855    0.0698   -1.2970 H   0  0  0  0  0  0  0  0  0  0  0  0
  1  2  2  0
  2  3  1  0
  3  4  2  3
  4  5  1  0
  5  6  2  0
  6  7  1  0
  7  8  2  0
  8  9  1  0
  9 10  2  0
 10 11  1  0
  2 12  1  0
 12 13  1  0
 13 14  1  0
 14 15  1  0
 15 16  2  0
 16 17  1  0
 17 18  2  0
 18 19  1  0
 19 20  2  0
 10  5  1  0
 20 15  1  0
  3 21  1  0
  4 22  1  0
  6 23  1  0
  7 24  1  0
  8 25  1  0
  9 26  1  0
 12 27  1  0
 13 28  1  0
 13 29  1  0
 14 30  1  0
 14 31  1  0
 16 32  1  0
 17 33  1  0
 18 34  1  0
 19 35  1  0
 20 36  1  0
M  END
$$$$
