
     RDKit          3D

 50 53  0  0  0  0  0  0  0  0999 V2000
    7.8311    2.4405    0.0216 C   0  0  0  0  0  0  0  0  0  0  0  0
    6.4840    2.8810    0.1455 O   0  0  0  0  0  0  0  0  0  0  0  0
    5.5129    1.9235    0.0713 C   0  0  0  0  0  0  0  0  0  0  0  0
    5.7124    0.5691   -0.1750 C   0  0  0  0  0  0  0  0  0  0  0  0
    4.6178   -0.3051   -0.2262 C   0  0  0  0  0  0  0  0  0  0  0  0
    3.2973    0.1431   -0.0377 C   0  0  0  0  0  0  0  0  0  0  0  0
    2.1651   -0.8078   -0.0875 C   0  0  0  0  0  0  0  0  0  0  0  0
    0.8877   -0.4478   -0.4814 C   0  0  0  0  0  0  0  0  0  0  0  0
   -0.1123   -1.4261   -0.4728 C   0  0  0  0  0  0  0  0  0  0  0  0
   -1.4802   -1.0175   -0.8755 C   0  0  0  0  0  0  0  0  0  0  0  0
   -2.0054   -1.5866   -1.8217 O   0  0  0  0  0  0  0  0  0  0  0  0
   -2.0069   -0.0051   -0.0952 N   0  0  0  0  0  0  0  0  0  0  0  0
   -3.3004    0.5536   -0.1778 C   0  0  0  0  0  0  0  0  0  0  0  0
   -4.2777    0.1229   -1.0696 C   0  0  0  0  0  0  0  0  0  0  0  0
   -5.5579    0.6833   -1.0350 C   0  0  0  0  0  0  0  0  0  0  0  0
   -5.8766    1.7034   -0.1257 C   0  0  0  0  0  0  0  0  0  0  0  0
   -7.2799    2.2411   -0.0908 C   0  0  0  0  0  0  0  0  0  0  0  0
   -4.8731    2.2047    0.7206 C   0  0  0  0  0  0  0  0  0  0  0  0
   -5.1603    3.1498    1.7203 N   0  0  0  0  0  0  0  0  0  0  0  0
   -3.6139    1.5838    0.7198 C   0  0  0  0  0  0  0  0  0  0  0  0
    0.1657   -2.7559   -0.0920 C   0  0  0  0  0  0  0  0  0  0  0  0
   -0.7848   -3.8070   -0.0488 C   0  0  0  0  0  0  0  0  0  0  0  0
   -0.4209   -5.0877    0.3572 C   0  0  0  0  0  0  0  0  0  0  0  0
    0.8927   -5.3383    0.7253 C   0  0  0  0  0  0  0  0  0  0  0  0
    1.8312   -4.3072    0.6826 C   0  0  0  0  0  0  0  0  0  0  0  0
    1.4932   -3.0216    0.2834 C   0  0  0  0  0  0  0  0  0  0  0  0
    2.4530   -2.0807    0.2852 N   0  0  0  0  0  0  0  0  0  0  0  0
    3.1213    1.5141    0.2132 C   0  0  0  0  0  0  0  0  0  0  0  0
    4.2133    2.3896    0.2639 C   0  0  0  0  0  0  0  0  0  0  0  0
    8.0102    1.9791   -0.9554 H   0  0  0  0  0  0  0  0  0  0  0  0
    8.4796    3.3186    0.0969 H   0  0  0  0  0  0  0  0  0  0  0  0
    8.0969    1.7573    0.8362 H   0  0  0  0  0  0  0  0  0  0  0  0
    6.7020    0.1519   -0.3292 H   0  0  0  0  0  0  0  0  0  0  0  0
    4.8059   -1.3617   -0.4199 H   0  0  0  0  0  0  0  0  0  0  0  0
    0.6666    0.5603   -0.8197 H   0  0  0  0  0  0  0  0  0  0  0  0
   -1.4295    0.3430    0.6604 H   0  0  0  0  0  0  0  0  0  0  0  0
   -4.0895   -0.6682   -1.7888 H   0  0  0  0  0  0  0  0  0  0  0  0
   -6.3137    0.2994   -1.7186 H   0  0  0  0  0  0  0  0  0  0  0  0
   -7.7124    2.1074    0.9055 H   0  0  0  0  0  0  0  0  0  0  0  0
   -7.2836    3.3070   -0.3456 H   0  0  0  0  0  0  0  0  0  0  0  0
   -7.9289    1.7241   -0.8056 H   0  0  0  0  0  0  0  0  0  0  0  0
   -4.3531    3.6980    2.0136 H   0  0  0  0  0  0  0  0  0  0  0  0
   -5.9578    3.7435    1.5093 H   0  0  0  0  0  0  0  0  0  0  0  0
   -2.8714    1.9168    1.4382 H   0  0  0  0  0  0  0  0  0  0  0  0
   -1.8200   -3.6334   -0.3396 H   0  0  0  0  0  0  0  0  0  0  0  0
   -1.1617   -5.8813    0.3824 H   0  0  0  0  0  0  0  0  0  0  0  0
    1.1929   -6.3310    1.0459 H   0  0  0  0  0  0  0  0  0  0  0  0
    2.8590   -4.5122    0.9745 H   0  0  0  0  0  0  0  0  0  0  0  0
    2.1324    1.9273    0.3945 H   0  0  0  0  0  0  0  0  0  0  0  0
    4.0475    3.4449    0.4678 H   0  0  0  0  0  0  0  0  0  0  0  0
  1  2  1  0
  2  3  1  0
  3  4  2  0
  4  5  1  0
  5  6  2  0
  6  7  1  0
  7  8  2  0
  8  9  1  0
  9 10  1  0
 10 11  2  0
 10 12  1  0
 12 13  1  0
 13 14  2  0
 14 15  1  0
 15 16  2  0
 16 17  1  0
 16 18  1  0
 18 19  1  0
 18 20  2  0
  9 21  2  0
 21 22  1  0
 22 23  2  0
 23 24  1  0
 24 25  2  0
 25 26  1  0
 26 27  2  0
  6 28  1  0
 28 29  2  0
 29  3  1  0
 27  7  1  0
 20 13  1  0
 26 21  1  0
  1 30  1  0
  1 31  1  0
  1 32  1  0
  4 33  1  0
  5 34  1  0
  8 35  1  0
 12 36  1  0
 14 37  1  0
 15 38  1  0
 17 39  1  0
 17 40  1  0
 17 41  1  0
 19 42  1  0
 19 43  1  0
 20 44  1  0
 22 45  1  0
 23 46  1  0
 24 47  1  0
 25 48  1  0
 28 49  1  0
 29 50  1  0
M  END
$$$$
