
     RDKit          3D

 41 43  0  0  0  0  0  0  0  0999 V2000
   -2.9222    2.4290   -0.6355 C   0  0  0  0  0  0  0  0  0  0  0  0
   -1.6909    1.6837   -0.5921 N   0  0  0  0  0  0  0  0  0  0  0  0
   -0.4204    2.1899   -0.6095 C   0  0  0  0  0  0  0  0  0  0  0  0
   -0.0499    3.8747   -0.5226 S   0  0  0  0  0  0  0  0  0  0  0  0
    1.7159    3.8294   -0.1015 C   0  0  0  0  0  0  0  0  0  0  0  0
    1.9346    3.3012    1.3090 C   0  0  0  0  0  0  0  0  0  0  0  0
    1.8518    4.0309    2.2964 O   0  0  0  0  0  0  0  0  0  0  0  0
    2.2538    1.9524    1.3376 N   0  0  0  0  0  0  0  0  0  0  0  0
    2.4489    1.3219    2.5318 N   0  0  0  0  0  0  0  0  0  0  0  0
    2.7653    0.0591    2.5556 C   0  0  0  0  0  0  0  0  0  0  0  0
    3.0826   -0.8803    1.4899 C   0  0  0  0  0  0  0  0  0  0  0  0
    3.2272   -2.2530    1.6487 C   0  0  0  0  0  0  0  0  0  0  0  0
    3.5349   -2.9283    0.4309 C   0  0  0  0  0  0  0  0  0  0  0  0
    3.6575   -2.0316   -0.6087 C   0  0  0  0  0  0  0  0  0  0  0  0
    3.9702   -2.3474   -1.9761 N   0  0  0  0  0  4  0  0  0  0  0  0
    3.7565   -1.4864   -2.8423 O   0  0  0  0  0  0  0  0  0  0  0  0
    4.4216   -3.4828   -2.1862 O   0  0  0  0  0  1  0  0  0  0  0  0
    3.4467   -0.4206   -0.1192 S   0  0  0  0  0  0  0  0  0  0  0  0
    0.4497    1.2132   -0.7042 N   0  0  0  0  0  0  0  0  0  0  0  0
   -0.2507    0.0318   -0.6781 N   0  0  0  0  0  0  0  0  0  0  0  0
   -1.5416    0.3094   -0.5631 C   0  0  0  0  0  0  0  0  0  0  0  0
   -2.6078   -0.6864   -0.4617 C   0  0  0  0  0  0  0  0  0  0  0  0
   -2.6172   -1.7798   -1.3395 C   0  0  0  0  0  0  0  0  0  0  0  0
   -3.6139   -2.7563   -1.2495 C   0  0  0  0  0  0  0  0  0  0  0  0
   -4.6154   -2.6372   -0.2889 C   0  0  0  0  0  0  0  0  0  0  0  0
   -5.8588   -3.8236   -0.1947 Cl  0  0  0  0  0  0  0  0  0  0  0  0
   -4.6176   -1.5635    0.5958 C   0  0  0  0  0  0  0  0  0  0  0  0
   -3.6064   -0.5985    0.5198 C   0  0  0  0  0  0  0  0  0  0  0  0
   -3.1422    2.8149    0.3633 H   0  0  0  0  0  0  0  0  0  0  0  0
   -2.8221    3.2546   -1.3464 H   0  0  0  0  0  0  0  0  0  0  0  0
   -3.7407    1.7928   -0.9858 H   0  0  0  0  0  0  0  0  0  0  0  0
    2.1184    4.8504   -0.1456 H   0  0  0  0  0  0  0  0  0  0  0  0
    2.2803    3.2416   -0.8317 H   0  0  0  0  0  0  0  0  0  0  0  0
    2.0331    1.3736    0.5231 H   0  0  0  0  0  0  0  0  0  0  0  0
    2.8120   -0.3752    3.5733 H   0  0  0  0  0  0  0  0  0  0  0  0
    3.1126   -2.7596    2.6036 H   0  0  0  0  0  0  0  0  0  0  0  0
    3.6872   -4.0030    0.3364 H   0  0  0  0  0  0  0  0  0  0  0  0
   -1.8383   -1.8793   -2.0924 H   0  0  0  0  0  0  0  0  0  0  0  0
   -3.6040   -3.6025   -1.9322 H   0  0  0  0  0  0  0  0  0  0  0  0
   -5.3975   -1.4727    1.3478 H   0  0  0  0  0  0  0  0  0  0  0  0
   -3.6035    0.2133    1.2430 H   0  0  0  0  0  0  0  0  0  0  0  0
  1  2  1  0
  2  3  1  0
  3  4  1  0
  4  5  1  0
  5  6  1  0
  6  7  2  0
  6  8  1  0
  8  9  1  0
  9 10  2  3
 10 11  1  0
 11 12  2  0
 12 13  1  0
 13 14  2  0
 14 15  1  0
 15 16  2  0
 15 17  1  0
 14 18  1  0
  3 19  2  0
 19 20  1  0
 20 21  2  0
 21 22  1  0
 22 23  2  0
 23 24  1  0
 24 25  2  0
 25 26  1  0
 25 27  1  0
 27 28  2  0
 21  2  1  0
 28 22  1  0
 18 11  1  0
  1 29  1  0
  1 30  1  0
  1 31  1  0
  5 32  1  0
  5 33  1  0
  8 34  1  0
 10 35  1  0
 12 36  1  0
 13 37  1  0
 23 38  1  0
 24 39  1  0
 27 40  1  0
 28 41  1  0
M  CHG  2  15   1  17  -1
M  END
$$$$
