
     RDKit          3D

 60 65  0  0  0  0  0  0  0  0999 V2000
    4.5176    0.1936   -4.2804 C   0  0  0  0  0  0  0  0  0  0  0  0
    4.8852    0.1503   -2.8459 C   0  0  0  0  0  0  0  0  0  0  0  0
    5.9254    0.8592   -2.3900 N   0  0  0  0  0  0  0  0  0  0  0  0
    6.0199    0.5622   -1.0444 O   0  0  0  0  0  0  0  0  0  0  0  0
    5.0363   -0.3110   -0.6988 C   0  0  0  0  0  0  0  0  0  0  0  0
    5.0613   -0.7793    0.6991 C   0  0  0  0  0  0  0  0  0  0  0  0
    4.2499   -0.5707   -1.8012 C   0  0  0  0  0  0  0  0  0  0  0  0
    3.1066   -1.4517   -1.8983 C   0  0  0  0  0  0  0  0  0  0  0  0
    3.0797   -2.3351   -2.7514 O   0  0  0  0  0  0  0  0  0  0  0  0
    2.0495   -1.2509   -1.0056 N   0  0  0  0  0  0  0  0  0  0  0  0
    1.8240   -0.0041   -0.2734 C   0  0  0  0  0  0  0  0  0  0  0  0
    0.3332    0.3087   -0.1600 C   0  0  0  0  0  0  0  0  0  0  0  0
   -0.4259   -0.7963    0.6270 C   0  0  0  0  0  0  0  0  0  0  0  0
    0.1792   -2.1937    0.2808 C   0  0  0  0  0  0  0  0  0  0  0  0
    0.9446   -2.2026   -1.0368 C   0  0  0  0  0  0  0  0  0  0  0  0
   -0.1399   -0.4998    2.0214 O   0  0  0  0  0  0  0  0  0  0  0  0
   -0.8769   -1.1860    2.9449 C   0  0  0  0  0  0  0  0  0  0  0  0
   -0.3590   -1.2212    4.2405 C   0  0  0  0  0  0  0  0  0  0  0  0
   -1.0381   -1.9156    5.2428 C   0  0  0  0  0  0  0  0  0  0  0  0
   -2.2322   -2.5639    4.9431 C   0  0  0  0  0  0  0  0  0  0  0  0
   -2.8791   -3.2286    5.9082 F   0  0  0  0  0  0  0  0  0  0  0  0
   -2.7675   -2.5239    3.6622 C   0  0  0  0  0  0  0  0  0  0  0  0
   -2.0863   -1.8213    2.6648 C   0  0  0  0  0  0  0  0  0  0  0  0
   -2.6519   -1.7165    1.3075 C   0  0  0  0  0  0  0  0  0  0  0  0
   -3.6493   -2.3681    1.0159 O   0  0  0  0  0  0  0  0  0  0  0  0
   -1.9589   -0.7288    0.3737 C   0  0  0  0  0  0  0  0  0  0  0  0
   -2.6125    0.6326    0.5824 C   0  0  0  0  0  0  0  0  0  0  0  0
   -2.8436    1.0133   -0.8379 C   0  0  0  0  0  0  0  0  0  0  0  0
   -3.2844    2.3740   -1.2255 C   0  0  0  0  0  0  0  0  0  0  0  0
   -3.6034    3.3418   -0.2652 C   0  0  0  0  0  0  0  0  0  0  0  0
   -4.0117    4.6182   -0.6673 C   0  0  0  0  0  0  0  0  0  0  0  0
   -4.1034    4.9260   -2.0241 C   0  0  0  0  0  0  0  0  0  0  0  0
   -4.6066    6.4968   -2.5111 Cl  0  0  0  0  0  0  0  0  0  0  0  0
   -3.7918    3.9681   -2.9858 C   0  0  0  0  0  0  0  0  0  0  0  0
   -3.3833    2.6925   -2.5870 C   0  0  0  0  0  0  0  0  0  0  0  0
   -2.6280    0.0702   -1.6968 N   0  0  0  0  0  0  0  0  0  0  0  0
   -2.2484   -1.0872   -0.9818 O   0  0  0  0  0  0  0  0  0  0  0  0
    3.4451    0.3792   -4.3980 H   0  0  0  0  0  0  0  0  0  0  0  0
    4.7584   -0.7590   -4.7629 H   0  0  0  0  0  0  0  0  0  0  0  0
    5.0546    0.9877   -4.8097 H   0  0  0  0  0  0  0  0  0  0  0  0
    4.7219    0.0130    1.3731 H   0  0  0  0  0  0  0  0  0  0  0  0
    4.4163   -1.6518    0.8397 H   0  0  0  0  0  0  0  0  0  0  0  0
    6.0768   -1.0655    0.9911 H   0  0  0  0  0  0  0  0  0  0  0  0
    2.2633   -0.1191    0.7228 H   0  0  0  0  0  0  0  0  0  0  0  0
    2.3282    0.8269   -0.7761 H   0  0  0  0  0  0  0  0  0  0  0  0
    0.2237    1.2789    0.3392 H   0  0  0  0  0  0  0  0  0  0  0  0
   -0.0625    0.4145   -1.1757 H   0  0  0  0  0  0  0  0  0  0  0  0
    0.8660   -2.5072    1.0791 H   0  0  0  0  0  0  0  0  0  0  0  0
   -0.5981   -2.9648    0.2356 H   0  0  0  0  0  0  0  0  0  0  0  0
    0.2930   -1.9402   -1.8784 H   0  0  0  0  0  0  0  0  0  0  0  0
    1.3364   -3.2079   -1.2297 H   0  0  0  0  0  0  0  0  0  0  0  0
    0.5785   -0.7199    4.4697 H   0  0  0  0  0  0  0  0  0  0  0  0
   -0.6434   -1.9590    6.2538 H   0  0  0  0  0  0  0  0  0  0  0  0
   -3.7073   -3.0290    3.4567 H   0  0  0  0  0  0  0  0  0  0  0  0
   -3.5807    0.5744    1.0921 H   0  0  0  0  0  0  0  0  0  0  0  0
   -1.9756    1.3482    1.1071 H   0  0  0  0  0  0  0  0  0  0  0  0
   -3.5513    3.1296    0.7986 H   0  0  0  0  0  0  0  0  0  0  0  0
   -4.2606    5.3667    0.0815 H   0  0  0  0  0  0  0  0  0  0  0  0
   -3.8669    4.2030   -4.0447 H   0  0  0  0  0  0  0  0  0  0  0  0
   -3.1461    1.9501   -3.3475 H   0  0  0  0  0  0  0  0  0  0  0  0
  1  2  1  0
  2  3  2  0
  3  4  1  0
  4  5  1  0
  5  6  1  0
  5  7  2  0
  7  8  1  0
  8  9  2  0
  8 10  1  0
 10 11  1  0
 11 12  1  0
 12 13  1  0
 13 14  1  0
 14 15  1  0
 13 16  1  0
 16 17  1  0
 17 18  2  0
 18 19  1  0
 19 20  2  0
 20 21  1  0
 20 22  1  0
 22 23  2  0
 23 24  1  0
 24 25  2  0
 24 26  1  0
 26 27  1  0
 27 28  1  0
 28 29  1  0
 29 30  2  0
 30 31  1  0
 31 32  2  0
 32 33  1  0
 32 34  1  0
 34 35  2  0
 28 36  2  0
 36 37  1  0
  7  2  1  0
 15 10  1  0
 23 17  1  0
 37 26  1  0
 26 13  1  0
 35 29  1  0
  1 38  1  0
  1 39  1  0
  1 40  1  0
  6 41  1  0
  6 42  1  0
  6 43  1  0
 11 44  1  0
 11 45  1  0
 12 46  1  0
 12 47  1  0
 14 48  1  0
 14 49  1  0
 15 50  1  0
 15 51  1  0
 18 52  1  0
 19 53  1  0
 22 54  1  0
 27 55  1  0
 27 56  1  0
 30 57  1  0
 31 58  1  0
 34 59  1  0
 35 60  1  0
M  END
$$$$
