
     RDKit          3D

 55 60  0  0  0  0  0  0  0  0999 V2000
    3.3939   -0.6823    3.3610 O   0  0  0  0  0  0  0  0  0  0  0  0
    3.6319   -0.4181    2.1837 C   0  0  0  0  0  0  0  0  0  0  0  0
    5.0123   -0.3333    1.7287 C   0  0  0  0  0  0  0  0  0  0  0  0
    6.1225   -1.0915    2.2071 C   0  0  0  0  0  0  0  0  0  0  0  0
    7.2292   -0.6487    1.5235 C   0  0  0  0  0  0  0  0  0  0  0  0
    6.8881    0.3532    0.6744 O   0  0  0  0  0  0  0  0  0  0  0  0
    5.5532    0.5551    0.8202 C   0  0  0  0  0  0  0  0  0  0  0  0
    2.6026   -0.1884    1.2647 N   0  0  0  0  0  0  0  0  0  0  0  0
    1.2397   -0.1191    1.7817 C   0  0  0  0  0  0  0  0  0  0  0  0
    0.3407    0.6408    0.8164 C   0  0  0  0  0  0  0  0  0  0  0  0
    0.2229   -0.0507   -0.5745 C   0  0  0  0  0  0  0  0  0  0  0  0
    1.5035   -0.9082   -0.8297 C   0  0  0  0  0  0  0  0  0  0  0  0
    2.7481   -0.3004   -0.1860 C   0  0  0  0  0  0  0  0  0  0  0  0
    0.1914    1.0533   -1.5206 O   0  0  0  0  0  0  0  0  0  0  0  0
   -0.1525    0.7435   -2.8071 C   0  0  0  0  0  0  0  0  0  0  0  0
    0.1478    1.7058   -3.7720 C   0  0  0  0  0  0  0  0  0  0  0  0
   -0.1447    1.4594   -5.1144 C   0  0  0  0  0  0  0  0  0  0  0  0
   -0.7382    0.2550   -5.4811 C   0  0  0  0  0  0  0  0  0  0  0  0
   -1.0146    0.0247   -6.7704 F   0  0  0  0  0  0  0  0  0  0  0  0
   -1.0560   -0.7064   -4.5307 C   0  0  0  0  0  0  0  0  0  0  0  0
   -0.7690   -0.4495   -3.1881 C   0  0  0  0  0  0  0  0  0  0  0  0
   -1.1350   -1.4253   -2.1445 C   0  0  0  0  0  0  0  0  0  0  0  0
   -1.5045   -2.5490   -2.4660 O   0  0  0  0  0  0  0  0  0  0  0  0
   -1.0742   -0.9017   -0.7134 C   0  0  0  0  0  0  0  0  0  0  0  0
   -2.3902   -0.1779   -0.4413 C   0  0  0  0  0  0  0  0  0  0  0  0
   -2.7311   -0.7749    0.8793 C   0  0  0  0  0  0  0  0  0  0  0  0
   -3.8474   -0.2641    1.7092 C   0  0  0  0  0  0  0  0  0  0  0  0
   -4.0466   -0.8073    2.9859 C   0  0  0  0  0  0  0  0  0  0  0  0
   -5.0877   -0.3443    3.7953 C   0  0  0  0  0  0  0  0  0  0  0  0
   -5.9317    0.6602    3.3283 C   0  0  0  0  0  0  0  0  0  0  0  0
   -7.2135    1.2327    4.3216 Cl  0  0  0  0  0  0  0  0  0  0  0  0
   -5.7443    1.2044    2.0583 C   0  0  0  0  0  0  0  0  0  0  0  0
   -4.7027    0.7431    1.2462 C   0  0  0  0  0  0  0  0  0  0  0  0
   -1.9736   -1.7580    1.2429 N   0  0  0  0  0  0  0  0  0  0  0  0
   -1.0499   -1.9987    0.2030 O   0  0  0  0  0  0  0  0  0  0  0  0
    6.1009   -1.8667    2.9612 H   0  0  0  0  0  0  0  0  0  0  0  0
    8.2761   -0.9185    1.5350 H   0  0  0  0  0  0  0  0  0  0  0  0
    5.1455    1.3621    0.2282 H   0  0  0  0  0  0  0  0  0  0  0  0
    0.8848   -1.1421    1.9481 H   0  0  0  0  0  0  0  0  0  0  0  0
    1.2478    0.3864    2.7542 H   0  0  0  0  0  0  0  0  0  0  0  0
   -0.6350    0.8023    1.2808 H   0  0  0  0  0  0  0  0  0  0  0  0
    0.7549    1.6512    0.6862 H   0  0  0  0  0  0  0  0  0  0  0  0
    1.7024   -1.0215   -1.9009 H   0  0  0  0  0  0  0  0  0  0  0  0
    1.3729   -1.9187   -0.4225 H   0  0  0  0  0  0  0  0  0  0  0  0
    2.9250    0.7060   -0.5815 H   0  0  0  0  0  0  0  0  0  0  0  0
    3.6125   -0.9255   -0.4299 H   0  0  0  0  0  0  0  0  0  0  0  0
    0.6201    2.6421   -3.4834 H   0  0  0  0  0  0  0  0  0  0  0  0
    0.0899    2.1958   -5.8778 H   0  0  0  0  0  0  0  0  0  0  0  0
   -1.5281   -1.6347   -4.8404 H   0  0  0  0  0  0  0  0  0  0  0  0
   -2.2869    0.9088   -0.3902 H   0  0  0  0  0  0  0  0  0  0  0  0
   -3.1811   -0.4317   -1.1560 H   0  0  0  0  0  0  0  0  0  0  0  0
   -3.3947   -1.5953    3.3601 H   0  0  0  0  0  0  0  0  0  0  0  0
   -5.2326   -0.7733    4.7837 H   0  0  0  0  0  0  0  0  0  0  0  0
   -6.4076    1.9855    1.6945 H   0  0  0  0  0  0  0  0  0  0  0  0
   -4.5874    1.1806    0.2589 H   0  0  0  0  0  0  0  0  0  0  0  0
  1  2  2  0
  2  3  1  0
  3  4  1  0
  4  5  2  0
  5  6  1  0
  6  7  1  0
  2  8  1  0
  8  9  1  0
  9 10  1  0
 10 11  1  0
 11 12  1  0
 12 13  1  0
 11 14  1  0
 14 15  1  0
 15 16  2  0
 16 17  1  0
 17 18  2  0
 18 19  1  0
 18 20  1  0
 20 21  2  0
 21 22  1  0
 22 23  2  0
 22 24  1  0
 24 25  1  0
 25 26  1  0
 26 27  1  0
 27 28  2  0
 28 29  1  0
 29 30  2  0
 30 31  1  0
 30 32  1  0
 32 33  2  0
 26 34  2  0
 34 35  1  0
  7  3  2  0
 13  8  1  0
 21 15  1  0
 35 24  1  0
 24 11  1  0
 33 27  1  0
  4 36  1  0
  5 37  1  0
  7 38  1  0
  9 39  1  0
  9 40  1  0
 10 41  1  0
 10 42  1  0
 12 43  1  0
 12 44  1  0
 13 45  1  0
 13 46  1  0
 16 47  1  0
 17 48  1  0
 20 49  1  0
 25 50  1  0
 25 51  1  0
 28 52  1  0
 29 53  1  0
 32 54  1  0
 33 55  1  0
M  END
$$$$
