
     RDKit          3D

 63 66  0  0  0  0  0  0  0  0999 V2000
   -1.0853    2.4621    0.7691 C   0  0  0  0  0  0  0  0  0  0  0  0
    0.1774    1.8265    1.2765 C   0  0  0  0  0  0  0  0  0  0  0  0
    0.2540    1.5291    2.5440 N   0  0  0  0  0  0  0  0  0  0  0  0
    1.4046    0.9495    3.0843 N   0  0  0  0  0  0  0  0  0  0  0  0
    1.3631    0.6720    4.5184 C   0  0  0  0  0  0  0  0  0  0  0  0
    1.0336   -0.7845    4.8137 C   0  0  0  0  0  0  0  0  0  0  0  0
   -0.4487   -1.0566    4.6644 C   0  0  0  0  0  0  0  0  0  0  0  0
   -1.3118   -0.3071    5.1097 O   0  0  0  0  0  0  0  0  0  0  0  0
   -0.7308   -2.2616    4.0590 N   0  0  0  0  0  0  0  0  0  0  0  0
   -2.0873   -2.6463    3.7393 C   0  0  0  0  0  0  0  0  0  0  0  0
   -2.3763   -2.3963    2.2818 C   0  0  0  0  0  0  0  0  0  0  0  0
   -2.6816   -1.1056    1.8307 C   0  0  0  0  0  0  0  0  0  0  0  0
   -2.9351   -0.8587    0.4757 C   0  0  0  0  0  0  0  0  0  0  0  0
   -2.8634   -1.8958   -0.4496 C   0  0  0  0  0  0  0  0  0  0  0  0
   -3.0825   -1.7986   -1.7946 O   0  0  0  0  0  0  0  0  0  0  0  0
   -3.1499   -0.5019   -2.3960 C   0  0  0  0  0  0  0  0  0  0  0  0
   -4.5980   -0.0221   -2.4376 C   0  0  0  0  0  0  0  0  0  0  0  0
   -2.6108   -0.6543   -3.8164 C   0  0  0  0  0  0  0  0  0  0  0  0
   -2.5595   -3.1841   -0.0030 C   0  0  0  0  0  0  0  0  0  0  0  0
   -2.3152   -3.4363    1.3497 C   0  0  0  0  0  0  0  0  0  0  0  0
    2.5555    0.5985    2.3479 C   0  0  0  0  0  0  0  0  0  0  0  0
    3.5353    0.0485    2.8472 O   0  0  0  0  0  0  0  0  0  0  0  0
    2.4533    0.9547    0.9394 C   0  0  0  0  0  0  0  0  0  0  0  0
    3.4025    0.8016    0.0148 N   0  0  0  0  0  0  0  0  0  0  0  0
    2.8377    1.2240   -1.1500 N   0  0  0  0  0  0  0  0  0  0  0  0
    3.5624    1.0290   -2.3669 C   0  0  0  0  0  0  0  0  0  0  0  0
    4.9423    0.7676   -2.2956 C   0  0  0  0  0  0  0  0  0  0  0  0
    5.6935    0.5780   -3.4578 C   0  0  0  0  0  0  0  0  0  0  0  0
    5.0750    0.6300   -4.7034 C   0  0  0  0  0  0  0  0  0  0  0  0
    3.7035    0.8577   -4.7854 C   0  0  0  0  0  0  0  0  0  0  0  0
    2.9457    1.0511   -3.6241 C   0  0  0  0  0  0  0  0  0  0  0  0
    1.5862    1.8095   -0.9177 C   0  0  0  0  0  0  0  0  0  0  0  0
    0.8201    2.5922   -1.9231 C   0  0  0  0  0  0  0  0  0  0  0  0
    1.3037    1.5565    0.4155 C   0  0  0  0  0  0  0  0  0  0  0  0
   -1.3972    1.9959   -0.1707 H   0  0  0  0  0  0  0  0  0  0  0  0
   -0.9132    3.5300    0.6088 H   0  0  0  0  0  0  0  0  0  0  0  0
   -1.8898    2.3461    1.5017 H   0  0  0  0  0  0  0  0  0  0  0  0
    2.3551    0.8979    4.9296 H   0  0  0  0  0  0  0  0  0  0  0  0
    0.6530    1.3620    4.9917 H   0  0  0  0  0  0  0  0  0  0  0  0
    1.6188   -1.4585    4.1770 H   0  0  0  0  0  0  0  0  0  0  0  0
    1.2895   -1.0138    5.8555 H   0  0  0  0  0  0  0  0  0  0  0  0
    0.0098   -2.7387    3.5649 H   0  0  0  0  0  0  0  0  0  0  0  0
   -2.8099   -2.1102    4.3666 H   0  0  0  0  0  0  0  0  0  0  0  0
   -2.1836   -3.7134    3.9711 H   0  0  0  0  0  0  0  0  0  0  0  0
   -2.7257   -0.2814    2.5408 H   0  0  0  0  0  0  0  0  0  0  0  0
   -3.1992    0.1515    0.1851 H   0  0  0  0  0  0  0  0  0  0  0  0
   -2.5092    0.2237   -1.8820 H   0  0  0  0  0  0  0  0  0  0  0  0
   -5.2368   -0.7543   -2.9449 H   0  0  0  0  0  0  0  0  0  0  0  0
   -4.6824    0.9376   -2.9586 H   0  0  0  0  0  0  0  0  0  0  0  0
   -5.0052    0.0978   -1.4292 H   0  0  0  0  0  0  0  0  0  0  0  0
   -2.6330    0.2968   -4.3559 H   0  0  0  0  0  0  0  0  0  0  0  0
   -1.5789   -1.0220   -3.7928 H   0  0  0  0  0  0  0  0  0  0  0  0
   -3.1911   -1.3905   -4.3810 H   0  0  0  0  0  0  0  0  0  0  0  0
   -2.5101   -4.0021   -0.7179 H   0  0  0  0  0  0  0  0  0  0  0  0
   -2.0807   -4.4498    1.6667 H   0  0  0  0  0  0  0  0  0  0  0  0
    5.4556    0.7246   -1.3344 H   0  0  0  0  0  0  0  0  0  0  0  0
    6.7609    0.3901   -3.3850 H   0  0  0  0  0  0  0  0  0  0  0  0
    5.6595    0.4791   -5.6072 H   0  0  0  0  0  0  0  0  0  0  0  0
    3.2187    0.8704   -5.7590 H   0  0  0  0  0  0  0  0  0  0  0  0
    1.8757    1.1659   -3.7456 H   0  0  0  0  0  0  0  0  0  0  0  0
    0.2122    3.3630   -1.4435 H   0  0  0  0  0  0  0  0  0  0  0  0
    1.4784    3.1312   -2.6116 H   0  0  0  0  0  0  0  0  0  0  0  0
    0.1456    1.9427   -2.4891 H   0  0  0  0  0  0  0  0  0  0  0  0
  1  2  1  0
  2  3  2  0
  3  4  1  0
  4  5  1  0
  5  6  1  0
  6  7  1  0
  7  8  2  0
  7  9  1  0
  9 10  1  0
 10 11  1  0
 11 12  2  0
 12 13  1  0
 13 14  2  0
 14 15  1  0
 15 16  1  0
 16 17  1  0
 16 18  1  0
 14 19  1  0
 19 20  2  0
  4 21  1  0
 21 22  2  0
 21 23  1  0
 23 24  2  0
 24 25  1  0
 25 26  1  0
 26 27  2  0
 27 28  1  0
 28 29  2  0
 29 30  1  0
 30 31  2  0
 25 32  1  0
 32 33  1  0
 32 34  2  0
 34  2  1  0
 20 11  1  0
 34 23  1  0
 31 26  1  0
  1 35  1  0
  1 36  1  0
  1 37  1  0
  5 38  1  0
  5 39  1  0
  6 40  1  0
  6 41  1  0
  9 42  1  0
 10 43  1  0
 10 44  1  0
 12 45  1  0
 13 46  1  0
 16 47  1  0
 17 48  1  0
 17 49  1  0
 17 50  1  0
 18 51  1  0
 18 52  1  0
 18 53  1  0
 19 54  1  0
 20 55  1  0
 27 56  1  0
 28 57  1  0
 29 58  1  0
 30 59  1  0
 31 60  1  0
 33 61  1  0
 33 62  1  0
 33 63  1  0
M  END
$$$$
