
     RDKit          3D

 51 53  0  0  0  0  0  0  0  0999 V2000
    4.2779   -4.2372    1.7850 C   0  0  0  0  0  0  0  0  0  0  0  0
    4.1508   -2.9145    1.2803 O   0  0  0  0  0  0  0  0  0  0  0  0
    2.8881   -2.4622    0.9973 C   0  0  0  0  0  0  0  0  0  0  0  0
    1.7155   -3.1919    1.2257 C   0  0  0  0  0  0  0  0  0  0  0  0
    0.4657   -2.6377    0.9340 C   0  0  0  0  0  0  0  0  0  0  0  0
    0.3803   -1.3468    0.4166 C   0  0  0  0  0  0  0  0  0  0  0  0
   -0.9281   -0.7256    0.1275 C   0  0  0  0  0  0  0  0  0  0  0  0
   -2.0404   -1.3661    0.3117 N   0  0  0  0  0  0  0  0  0  0  0  0
   -3.2077   -0.6809    0.0797 N   0  0  0  0  0  0  0  0  0  0  0  0
   -3.4453    0.6407    0.4455 C   0  0  0  0  0  0  0  0  0  0  0  0
   -2.5861    1.4186    0.8601 O   0  0  0  0  0  0  0  0  0  0  0  0
   -4.8596    1.1332    0.3069 C   0  0  0  0  0  0  0  0  0  0  0  0
   -5.0382    2.5295    0.3755 C   0  0  0  0  0  0  0  0  0  0  0  0
   -6.3044    3.1009    0.2581 C   0  0  0  0  0  0  0  0  0  0  0  0
   -7.4111    2.2829    0.0729 C   0  0  0  0  0  0  0  0  0  0  0  0
   -7.2558    0.8940    0.0088 C   0  0  0  0  0  0  0  0  0  0  0  0
   -5.9875    0.3037    0.1274 C   0  0  0  0  0  0  0  0  0  0  0  0
   -5.7825   -1.0526    0.0785 O   0  0  0  0  0  0  0  0  0  0  0  0
   -6.9264   -1.9002    0.0409 C   0  0  0  0  0  0  0  0  0  0  0  0
    1.5425   -0.6105    0.1811 C   0  0  0  0  0  0  0  0  0  0  0  0
    2.8089   -1.1644    0.4530 C   0  0  0  0  0  0  0  0  0  0  0  0
    4.0625   -0.3366    0.2407 C   0  0  0  0  0  0  0  0  0  0  0  0
    3.8795    0.5349   -0.8808 O   0  0  0  0  0  0  0  0  0  0  0  0
    4.8182    1.5054   -1.0985 C   0  0  0  0  0  0  0  0  0  0  0  0
    6.0389    1.6518   -0.4357 C   0  0  0  0  0  0  0  0  0  0  0  0
    6.4223    0.7841    0.5095 F   0  0  0  0  0  0  0  0  0  0  0  0
    6.8961    2.7049   -0.7507 C   0  0  0  0  0  0  0  0  0  0  0  0
    8.0595    2.8328   -0.0971 F   0  0  0  0  0  0  0  0  0  0  0  0
    6.5519    3.6193   -1.7371 C   0  0  0  0  0  0  0  0  0  0  0  0
    7.3806    4.6287   -2.0364 F   0  0  0  0  0  0  0  0  0  0  0  0
    5.3514    3.4801   -2.4169 C   0  0  0  0  0  0  0  0  0  0  0  0
    5.0136    4.3607   -3.3692 F   0  0  0  0  0  0  0  0  0  0  0  0
    4.4940    2.4319   -2.0992 C   0  0  0  0  0  0  0  0  0  0  0  0
    3.3344    2.3180   -2.7631 F   0  0  0  0  0  0  0  0  0  0  0  0
    3.8813   -4.9720    1.0770 H   0  0  0  0  0  0  0  0  0  0  0  0
    5.3440   -4.4433    1.9154 H   0  0  0  0  0  0  0  0  0  0  0  0
    3.7996   -4.3294    2.7645 H   0  0  0  0  0  0  0  0  0  0  0  0
    1.7341   -4.1939    1.6416 H   0  0  0  0  0  0  0  0  0  0  0  0
   -0.4364   -3.2138    1.1245 H   0  0  0  0  0  0  0  0  0  0  0  0
   -0.8930    0.3017   -0.2776 H   0  0  0  0  0  0  0  0  0  0  0  0
   -4.0246   -1.2810   -0.0080 H   0  0  0  0  0  0  0  0  0  0  0  0
   -4.1806    3.1834    0.5233 H   0  0  0  0  0  0  0  0  0  0  0  0
   -6.4225    4.1793    0.3154 H   0  0  0  0  0  0  0  0  0  0  0  0
   -8.4016    2.7227   -0.0194 H   0  0  0  0  0  0  0  0  0  0  0  0
   -8.1544    0.3009   -0.1362 H   0  0  0  0  0  0  0  0  0  0  0  0
   -7.5505   -1.7574    0.9269 H   0  0  0  0  0  0  0  0  0  0  0  0
   -7.4982   -1.7455   -0.8806 H   0  0  0  0  0  0  0  0  0  0  0  0
   -6.5735   -2.9368    0.0419 H   0  0  0  0  0  0  0  0  0  0  0  0
    1.4679    0.4020   -0.2125 H   0  0  0  0  0  0  0  0  0  0  0  0
    4.9145   -0.9887    0.0240 H   0  0  0  0  0  0  0  0  0  0  0  0
    4.2347    0.2428    1.1564 H   0  0  0  0  0  0  0  0  0  0  0  0
  1  2  1  0
  2  3  1  0
  3  4  2  0
  4  5  1  0
  5  6  2  0
  6  7  1  0
  7  8  2  3
  8  9  1  0
  9 10  1  0
 10 11  2  0
 10 12  1  0
 12 13  2  0
 13 14  1  0
 14 15  2  0
 15 16  1  0
 16 17  2  0
 17 18  1  0
 18 19  1  0
  6 20  1  0
 20 21  2  0
 21 22  1  0
 22 23  1  0
 23 24  1  0
 24 25  2  0
 25 26  1  0
 25 27  1  0
 27 28  1  0
 27 29  2  0
 29 30  1  0
 29 31  1  0
 31 32  1  0
 31 33  2  0
 33 34  1  0
 21  3  1  0
 33 24  1  0
 17 12  1  0
  1 35  1  0
  1 36  1  0
  1 37  1  0
  4 38  1  0
  5 39  1  0
  7 40  1  0
  9 41  1  0
 13 42  1  0
 14 43  1  0
 15 44  1  0
 16 45  1  0
 19 46  1  0
 19 47  1  0
 19 48  1  0
 20 49  1  0
 22 50  1  0
 22 51  1  0
M  END
$$$$
