
     RDKit          3D

 52 55  0  0  0  0  0  0  0  0999 V2000
    5.8560    0.5014   -2.3513 C   0  0  0  0  0  0  0  0  0  0  0  0
    5.2320    0.2115   -1.0389 C   0  0  0  0  0  0  0  0  0  0  0  0
    3.8805   -0.0851   -0.7602 C   0  0  0  0  0  0  0  0  0  0  0  0
    3.8054   -0.2837    0.6098 C   0  0  0  0  0  0  0  0  0  0  0  0
    2.6885   -0.6121    1.4678 C   0  0  0  0  0  0  0  0  0  0  0  0
    2.7998   -0.8291    2.6708 O   0  0  0  0  0  0  0  0  0  0  0  0
    1.4655   -0.6568    0.8407 N   0  0  0  0  0  0  0  0  0  0  0  0
    0.2393   -0.9007    1.5718 C   0  0  0  0  0  0  0  0  0  0  0  0
   -0.2324    0.3412    2.3672 C   0  0  0  0  0  0  0  0  0  0  0  0
   -1.0150    1.4067    1.5352 C   0  0  0  0  0  0  0  0  0  0  0  0
   -0.1044    2.0901    0.4950 C   0  0  0  0  0  0  0  0  0  0  0  0
   -1.5178    2.4998    2.5006 C   0  0  0  0  0  0  0  0  0  0  0  0
   -2.2472    0.7639    0.8254 C   0  0  0  0  0  0  0  0  0  0  0  0
   -1.9172   -0.5745    0.2510 C   0  0  0  0  0  0  0  0  0  0  0  0
   -0.7975   -1.3155    0.5876 C   0  0  0  0  0  0  0  0  0  0  0  0
   -0.8705   -2.4588   -0.2137 C   0  0  0  0  0  0  0  0  0  0  0  0
   -1.9298   -2.4433   -1.0171 N   0  0  0  0  0  0  0  0  0  0  0  0
   -2.6253   -1.3146   -0.6898 N   0  0  0  0  0  0  0  0  0  0  0  0
   -3.8873   -1.0825   -1.3205 C   0  0  0  0  0  0  0  0  0  0  0  0
   -4.7894   -0.1030   -0.8844 C   0  0  0  0  0  0  0  0  0  0  0  0
   -6.0139    0.0818   -1.5411 C   0  0  0  0  0  0  0  0  0  0  0  0
   -6.3517   -0.7130   -2.6325 C   0  0  0  0  0  0  0  0  0  0  0  0
   -5.4679   -1.6950   -3.0561 C   0  0  0  0  0  0  0  0  0  0  0  0
   -5.7939   -2.4658   -4.1018 F   0  0  0  0  0  0  0  0  0  0  0  0
   -4.2501   -1.8906   -2.4130 C   0  0  0  0  0  0  0  0  0  0  0  0
    5.0975   -0.1053    1.0513 N   0  0  0  0  0  0  0  0  0  0  0  0
    5.5847   -0.2032    2.4093 C   0  0  0  0  0  0  0  0  0  0  0  0
    5.9713    0.2012    0.0715 N   0  0  0  0  0  0  0  0  0  0  0  0
    6.4187   -0.3684   -2.7053 H   0  0  0  0  0  0  0  0  0  0  0  0
    5.0967    0.7455   -3.1014 H   0  0  0  0  0  0  0  0  0  0  0  0
    6.5418    1.3520   -2.2785 H   0  0  0  0  0  0  0  0  0  0  0  0
    3.0783   -0.1487   -1.4809 H   0  0  0  0  0  0  0  0  0  0  0  0
    1.3967   -0.3996   -0.1318 H   0  0  0  0  0  0  0  0  0  0  0  0
    0.4277   -1.7177    2.2795 H   0  0  0  0  0  0  0  0  0  0  0  0
   -0.9030   -0.0163    3.1625 H   0  0  0  0  0  0  0  0  0  0  0  0
    0.6161    0.8141    2.8775 H   0  0  0  0  0  0  0  0  0  0  0  0
    0.8184    2.4559    0.9586 H   0  0  0  0  0  0  0  0  0  0  0  0
   -0.6083    2.9512    0.0403 H   0  0  0  0  0  0  0  0  0  0  0  0
    0.1696    1.4205   -0.3246 H   0  0  0  0  0  0  0  0  0  0  0  0
   -2.0979    3.2621    1.9683 H   0  0  0  0  0  0  0  0  0  0  0  0
   -0.6810    3.0022    2.9988 H   0  0  0  0  0  0  0  0  0  0  0  0
   -2.1626    2.0766    3.2791 H   0  0  0  0  0  0  0  0  0  0  0  0
   -2.6058    1.4461    0.0466 H   0  0  0  0  0  0  0  0  0  0  0  0
   -3.0505    0.6260    1.5601 H   0  0  0  0  0  0  0  0  0  0  0  0
   -0.1827   -3.2938   -0.2666 H   0  0  0  0  0  0  0  0  0  0  0  0
   -4.6058    0.5173   -0.0174 H   0  0  0  0  0  0  0  0  0  0  0  0
   -6.7085    0.8422   -1.1910 H   0  0  0  0  0  0  0  0  0  0  0  0
   -7.2973   -0.5810   -3.1483 H   0  0  0  0  0  0  0  0  0  0  0  0
   -3.5949   -2.6736   -2.7874 H   0  0  0  0  0  0  0  0  0  0  0  0
    5.0503    0.5246    3.0246 H   0  0  0  0  0  0  0  0  0  0  0  0
    6.6550    0.0210    2.4285 H   0  0  0  0  0  0  0  0  0  0  0  0
    5.4200   -1.2232    2.7647 H   0  0  0  0  0  0  0  0  0  0  0  0
  1  2  1  0
  2  3  1  0
  3  4  2  0
  4  5  1  0
  5  6  2  0
  5  7  1  0
  7  8  1  0
  8  9  1  0
  9 10  1  0
 10 11  1  0
 10 12  1  0
 10 13  1  0
 13 14  1  0
 14 15  2  0
 15 16  1  0
 16 17  2  0
 17 18  1  0
 18 19  1  0
 19 20  2  0
 20 21  1  0
 21 22  2  0
 22 23  1  0
 23 24  1  0
 23 25  2  0
  4 26  1  0
 26 27  1  0
 26 28  1  0
 28  2  2  0
 15  8  1  0
 25 19  1  0
 18 14  1  0
  1 29  1  0
  1 30  1  0
  1 31  1  0
  3 32  1  0
  7 33  1  0
  8 34  1  0
  9 35  1  0
  9 36  1  0
 11 37  1  0
 11 38  1  0
 11 39  1  0
 12 40  1  0
 12 41  1  0
 12 42  1  0
 13 43  1  0
 13 44  1  0
 16 45  1  0
 20 46  1  0
 21 47  1  0
 22 48  1  0
 25 49  1  0
 27 50  1  0
 27 51  1  0
 27 52  1  0
M  END
$$$$
