
     RDKit          3D

 46 48  0  0  0  0  0  0  0  0999 V2000
   -1.7787    1.3888   -1.5486 C   0  0  0  0  0  0  0  0  0  0  0  0
   -2.0391   -0.1058   -1.5194 C   0  0  0  0  0  0  0  0  0  0  0  0
   -2.5908   -0.5016   -0.1872 N   0  0  0  0  0  4  0  0  0  0  0  0
   -1.7338   -0.9234    0.7921 C   0  0  0  0  0  0  0  0  0  0  0  0
   -0.2873   -0.9999    0.5560 C   0  0  0  0  0  0  0  0  0  0  0  0
    0.5763   -0.1468    1.1298 C   0  0  0  0  0  0  0  0  0  0  0  0
    2.0246   -0.1884    0.8828 C   0  0  0  0  0  0  0  0  0  0  0  0
    2.7368   -1.3910    0.8434 C   0  0  0  0  0  0  0  0  0  0  0  0
    4.1155   -1.3939    0.6096 C   0  0  0  0  0  0  0  0  0  0  0  0
    4.8041   -0.1925    0.4238 C   0  0  0  0  0  0  0  0  0  0  0  0
    6.1510   -0.0979    0.1830 O   0  0  0  0  0  0  0  0  0  0  0  0
    6.9064   -1.3004    0.1462 C   0  0  0  0  0  0  0  0  0  0  0  0
    4.1002    1.0257    0.4890 C   0  0  0  0  0  0  0  0  0  0  0  0
    4.8449    2.1623    0.2951 O   0  0  0  0  0  0  0  0  0  0  0  0
    4.2428    3.4120    0.5990 C   0  0  0  0  0  0  0  0  0  0  0  0
    2.7183    1.0188    0.7199 C   0  0  0  0  0  0  0  0  0  0  0  0
   -2.2123   -1.3065    2.0451 C   0  0  0  0  0  0  0  0  0  0  0  0
   -3.5668   -1.2625    2.3137 C   0  0  0  0  0  0  0  0  0  0  0  0
   -4.4431   -0.8246    1.3292 C   0  0  0  0  0  0  0  0  0  0  0  0
   -5.8177   -0.7705    1.6042 C   0  0  0  0  0  0  0  0  0  0  0  0
   -6.7175   -0.3239    0.6412 C   0  0  0  0  0  0  0  0  0  0  0  0
   -6.2525    0.0769   -0.6034 C   0  0  0  0  0  0  0  0  0  0  0  0
   -4.8843    0.0266   -0.8927 C   0  0  0  0  0  0  0  0  0  0  0  0
   -3.9457   -0.4298    0.0553 C   0  0  0  0  0  0  0  0  0  0  0  0
   -1.3725    1.6823   -2.5214 H   0  0  0  0  0  0  0  0  0  0  0  0
   -1.0599    1.6831   -0.7781 H   0  0  0  0  0  0  0  0  0  0  0  0
   -2.6951    1.9613   -1.3775 H   0  0  0  0  0  0  0  0  0  0  0  0
   -1.1231   -0.6658   -1.7235 H   0  0  0  0  0  0  0  0  0  0  0  0
   -2.7351   -0.4207   -2.3013 H   0  0  0  0  0  0  0  0  0  0  0  0
    0.0492   -1.7857   -0.1163 H   0  0  0  0  0  0  0  0  0  0  0  0
    0.2387    0.6510    1.7903 H   0  0  0  0  0  0  0  0  0  0  0  0
    2.2395   -2.3447    1.0042 H   0  0  0  0  0  0  0  0  0  0  0  0
    4.6258   -2.3516    0.5836 H   0  0  0  0  0  0  0  0  0  0  0  0
    6.8655   -1.8222    1.1079 H   0  0  0  0  0  0  0  0  0  0  0  0
    6.5749   -1.9493   -0.6710 H   0  0  0  0  0  0  0  0  0  0  0  0
    7.9507   -1.0340   -0.0436 H   0  0  0  0  0  0  0  0  0  0  0  0
    5.0115    4.1855    0.5079 H   0  0  0  0  0  0  0  0  0  0  0  0
    3.8672    3.4345    1.6275 H   0  0  0  0  0  0  0  0  0  0  0  0
    3.4486    3.6469   -0.1169 H   0  0  0  0  0  0  0  0  0  0  0  0
    2.1650    1.9515    0.7593 H   0  0  0  0  0  0  0  0  0  0  0  0
   -1.5271   -1.6492    2.8199 H   0  0  0  0  0  0  0  0  0  0  0  0
   -3.9269   -1.5685    3.2959 H   0  0  0  0  0  0  0  0  0  0  0  0
   -6.2074   -1.0737    2.5762 H   0  0  0  0  0  0  0  0  0  0  0  0
   -7.7826   -0.2846    0.8660 H   0  0  0  0  0  0  0  0  0  0  0  0
   -6.9587    0.4330   -1.3528 H   0  0  0  0  0  0  0  0  0  0  0  0
   -4.5994    0.3690   -1.8825 H   0  0  0  0  0  0  0  0  0  0  0  0
  1  2  1  0
  2  3  1  0
  3  4  2  0
  4  5  1  0
  5  6  2  3
  6  7  1  0
  7  8  2  0
  8  9  1  0
  9 10  2  0
 10 11  1  0
 11 12  1  0
 10 13  1  0
 13 14  1  0
 14 15  1  0
 13 16  2  0
  4 17  1  0
 17 18  2  0
 18 19  1  0
 19 20  2  0
 20 21  1  0
 21 22  2  0
 22 23  1  0
 23 24  2  0
 24  3  1  0
 16  7  1  0
 24 19  1  0
  1 25  1  0
  1 26  1  0
  1 27  1  0
  2 28  1  0
  2 29  1  0
  5 30  1  0
  6 31  1  0
  8 32  1  0
  9 33  1  0
 12 34  1  0
 12 35  1  0
 12 36  1  0
 15 37  1  0
 15 38  1  0
 15 39  1  0
 16 40  1  0
 17 41  1  0
 18 42  1  0
 20 43  1  0
 21 44  1  0
 22 45  1  0
 23 46  1  0
M  CHG  1   3   1
M  END
$$$$
