
     RDKit          3D

 56 58  0  0  0  0  0  0  0  0999 V2000
    9.6114    1.5969    0.8251 C   0  0  0  0  0  0  0  0  0  0  0  0
    8.8437    0.4212    1.0474 O   0  0  0  0  0  0  0  0  0  0  0  0
    7.8561    0.1471    0.1419 C   0  0  0  0  0  0  0  0  0  0  0  0
    7.1240   -1.0114    0.4092 C   0  0  0  0  0  0  0  0  0  0  0  0
    6.0853   -1.4097   -0.4353 C   0  0  0  0  0  0  0  0  0  0  0  0
    5.7665   -0.6545   -1.5704 C   0  0  0  0  0  0  0  0  0  0  0  0
    4.6305   -1.0705   -2.4674 C   0  0  0  0  0  0  0  0  0  0  0  0
    3.3786   -0.5520   -1.9830 N   0  0  0  0  0  0  0  0  0  0  0  0
    2.5297   -1.2919   -1.1959 C   0  0  0  0  0  0  0  0  0  0  0  0
    2.6394   -2.4791   -0.9221 O   0  0  0  0  0  0  0  0  0  0  0  0
    1.3457   -0.4743   -0.6302 C   0  0  0  0  0  0  0  0  0  0  0  0
    1.2243    0.7084   -0.9182 O   0  0  0  0  0  0  0  0  0  0  0  0
    0.5142   -1.2076    0.1854 N   0  0  0  0  0  0  0  0  0  0  0  0
   -0.7542   -0.6877    0.6689 C   0  0  0  0  0  0  0  0  0  0  0  0
   -1.9398   -0.9901   -0.2893 C   0  0  0  0  0  0  0  0  0  0  0  0
   -1.6720   -0.4680   -1.6045 O   0  0  0  0  0  0  0  0  0  0  0  0
   -2.1576    0.8776   -1.5931 C   0  0  0  0  0  0  0  0  0  0  0  0
   -3.3971    0.8339   -0.7217 C   0  0  0  0  0  0  0  0  0  0  0  0
   -3.2274   -0.3833    0.0872 N   0  0  0  0  0  0  0  0  0  0  0  0
   -3.6529   -0.3632    1.7037 S   0  0  0  0  0  6  0  0  0  0  0  0
   -2.9829    0.7659    2.3128 O   0  0  0  0  0  0  0  0  0  0  0  0
   -3.4805   -1.7027    2.2224 O   0  0  0  0  0  0  0  0  0  0  0  0
   -5.3919   -0.0260    1.6399 C   0  0  0  0  0  0  0  0  0  0  0  0
   -6.2523   -1.0008    1.1288 C   0  0  0  0  0  0  0  0  0  0  0  0
   -7.6230   -0.7456    1.0725 C   0  0  0  0  0  0  0  0  0  0  0  0
   -8.1381    0.4717    1.5394 C   0  0  0  0  0  0  0  0  0  0  0  0
   -9.6096    0.7549    1.4504 C   0  0  0  0  0  0  0  0  0  0  0  0
   -7.2608    1.4419    2.0443 C   0  0  0  0  0  0  0  0  0  0  0  0
   -5.8884    1.1938    2.1035 C   0  0  0  0  0  0  0  0  0  0  0  0
    6.4961    0.5131   -1.8302 C   0  0  0  0  0  0  0  0  0  0  0  0
    7.5368    0.9096   -0.9816 C   0  0  0  0  0  0  0  0  0  0  0  0
   10.3485    1.6721    1.6304 H   0  0  0  0  0  0  0  0  0  0  0  0
   10.1581    1.5383   -0.1219 H   0  0  0  0  0  0  0  0  0  0  0  0
    8.9828    2.4926    0.8647 H   0  0  0  0  0  0  0  0  0  0  0  0
    7.3619   -1.6084    1.2862 H   0  0  0  0  0  0  0  0  0  0  0  0
    5.5225   -2.3114   -0.1995 H   0  0  0  0  0  0  0  0  0  0  0  0
    4.7801   -0.6782   -3.4792 H   0  0  0  0  0  0  0  0  0  0  0  0
    4.5878   -2.1629   -2.5454 H   0  0  0  0  0  0  0  0  0  0  0  0
    3.2008    0.4474   -2.0160 H   0  0  0  0  0  0  0  0  0  0  0  0
    0.7240   -2.2000    0.2627 H   0  0  0  0  0  0  0  0  0  0  0  0
   -0.9165   -1.1478    1.6477 H   0  0  0  0  0  0  0  0  0  0  0  0
   -0.6441    0.3924    0.8149 H   0  0  0  0  0  0  0  0  0  0  0  0
   -2.0603   -2.0736   -0.3960 H   0  0  0  0  0  0  0  0  0  0  0  0
   -1.3909    1.5338   -1.1686 H   0  0  0  0  0  0  0  0  0  0  0  0
   -2.3708    1.2078   -2.6135 H   0  0  0  0  0  0  0  0  0  0  0  0
   -4.2953    0.7156   -1.3368 H   0  0  0  0  0  0  0  0  0  0  0  0
   -3.4971    1.7508   -0.1353 H   0  0  0  0  0  0  0  0  0  0  0  0
   -5.8620   -1.9524    0.7747 H   0  0  0  0  0  0  0  0  0  0  0  0
   -8.2894   -1.5046    0.6672 H   0  0  0  0  0  0  0  0  0  0  0  0
   -9.8418    1.2268    0.4907 H   0  0  0  0  0  0  0  0  0  0  0  0
  -10.1914   -0.1684    1.5413 H   0  0  0  0  0  0  0  0  0  0  0  0
   -9.9286    1.4204    2.2594 H   0  0  0  0  0  0  0  0  0  0  0  0
   -7.6450    2.3957    2.4009 H   0  0  0  0  0  0  0  0  0  0  0  0
   -5.2222    1.9512    2.5103 H   0  0  0  0  0  0  0  0  0  0  0  0
    6.2600    1.1261   -2.6974 H   0  0  0  0  0  0  0  0  0  0  0  0
    8.0748    1.8191   -1.2262 H   0  0  0  0  0  0  0  0  0  0  0  0
  1  2  1  0
  2  3  1  0
  3  4  2  0
  4  5  1  0
  5  6  2  0
  6  7  1  0
  7  8  1  0
  8  9  1  0
  9 10  2  0
  9 11  1  0
 11 12  2  0
 11 13  1  0
 13 14  1  0
 14 15  1  0
 15 16  1  0
 16 17  1  0
 17 18  1  0
 18 19  1  0
 19 20  1  0
 20 21  2  0
 20 22  2  0
 20 23  1  0
 23 24  2  0
 24 25  1  0
 25 26  2  0
 26 27  1  0
 26 28  1  0
 28 29  2  0
  6 30  1  0
 30 31  2  0
 31  3  1  0
 19 15  1  0
 29 23  1  0
  1 32  1  0
  1 33  1  0
  1 34  1  0
  4 35  1  0
  5 36  1  0
  7 37  1  0
  7 38  1  0
  8 39  1  0
 13 40  1  0
 14 41  1  0
 14 42  1  0
 15 43  1  0
 17 44  1  0
 17 45  1  0
 18 46  1  0
 18 47  1  0
 24 48  1  0
 25 49  1  0
 27 50  1  0
 27 51  1  0
 27 52  1  0
 28 53  1  0
 29 54  1  0
 30 55  1  0
 31 56  1  0
M  END
$$$$
