
     RDKit          3D

 41 44  0  0  0  0  0  0  0  0999 V2000
   -2.7250    1.7546    1.7907 O   0  0  0  0  0  0  0  0  0  0  0  0
   -3.1148    0.8992    0.6906 S   0  0  0  0  0  6  0  0  0  0  0  0
   -4.4944    0.4961    0.5096 O   0  0  0  0  0  0  0  0  0  0  0  0
   -2.2212   -0.5309    0.7484 N   0  0  0  0  0  0  0  0  0  0  0  0
   -0.7947   -0.4765    0.6662 C   0  0  0  0  0  0  0  0  0  0  0  0
   -0.0988    0.0453    1.7608 C   0  0  0  0  0  0  0  0  0  0  0  0
    1.2898    0.1505    1.7290 C   0  0  0  0  0  0  0  0  0  0  0  0
    2.1522    0.8257    3.1385 S   0  0  0  0  0  0  0  0  0  0  0  0
    2.6141   -0.6317    3.9797 C   0  0  0  0  0  0  0  0  0  0  0  0
    1.8607   -1.7738    4.0032 N   0  0  0  0  0  0  0  0  0  0  0  0
    2.5786   -2.5881    4.7409 C   0  0  0  0  0  0  0  0  0  0  0  0
    3.7172   -1.9591    5.1327 N   0  0  0  0  0  0  0  0  0  0  0  0
    3.7688   -0.7068    4.6512 N   0  0  0  0  0  0  0  0  0  0  0  0
    1.9776   -0.2578    0.5781 C   0  0  0  0  0  0  0  0  0  0  0  0
    3.3495   -0.1444    0.5187 O   0  0  0  0  0  0  0  0  0  0  0  0
    1.3001   -0.7839   -0.5431 C   0  0  0  0  0  0  0  0  0  0  0  0
    1.9923   -1.1928   -1.7030 C   0  0  0  0  0  0  0  0  0  0  0  0
    1.3209   -1.7038   -2.8124 C   0  0  0  0  0  0  0  0  0  0  0  0
   -0.0606   -1.8174   -2.7856 C   0  0  0  0  0  0  0  0  0  0  0  0
   -0.7676   -1.4219   -1.6486 C   0  0  0  0  0  0  0  0  0  0  0  0
   -0.1125   -0.8992   -0.5060 C   0  0  0  0  0  0  0  0  0  0  0  0
   -2.5776    1.6664   -0.8208 C   0  0  0  0  0  0  0  0  0  0  0  0
   -3.2536    1.3900   -2.0137 C   0  0  0  0  0  0  0  0  0  0  0  0
   -2.8330    1.9980   -3.1965 C   0  0  0  0  0  0  0  0  0  0  0  0
   -1.7534    2.8831   -3.1815 C   0  0  0  0  0  0  0  0  0  0  0  0
   -1.0960    3.1725   -1.9843 C   0  0  0  0  0  0  0  0  0  0  0  0
   -1.5118    2.5715   -0.7968 C   0  0  0  0  0  0  0  0  0  0  0  0
   -2.7026   -1.3190    0.3225 H   0  0  0  0  0  0  0  0  0  0  0  0
   -0.6457    0.3549    2.6496 H   0  0  0  0  0  0  0  0  0  0  0  0
    2.3339   -3.6049    5.0131 H   0  0  0  0  0  0  0  0  0  0  0  0
    4.4787   -2.3063    5.7065 H   0  0  0  0  0  0  0  0  0  0  0  0
    3.6500    0.2316    1.3670 H   0  0  0  0  0  0  0  0  0  0  0  0
    3.0775   -1.1092   -1.7446 H   0  0  0  0  0  0  0  0  0  0  0  0
    1.8803   -2.0079   -3.6930 H   0  0  0  0  0  0  0  0  0  0  0  0
   -0.5915   -2.2104   -3.6487 H   0  0  0  0  0  0  0  0  0  0  0  0
   -1.8490   -1.5218   -1.6754 H   0  0  0  0  0  0  0  0  0  0  0  0
   -4.1023    0.7103   -2.0305 H   0  0  0  0  0  0  0  0  0  0  0  0
   -3.3481    1.7871   -4.1305 H   0  0  0  0  0  0  0  0  0  0  0  0
   -1.4271    3.3557   -4.1051 H   0  0  0  0  0  0  0  0  0  0  0  0
   -0.2606    3.8684   -1.9775 H   0  0  0  0  0  0  0  0  0  0  0  0
   -1.0002    2.8065    0.1342 H   0  0  0  0  0  0  0  0  0  0  0  0
  1  2  2  0
  2  3  2  0
  2  4  1  0
  4  5  1  0
  5  6  2  0
  6  7  1  0
  7  8  1  0
  8  9  1  0
  9 10  1  0
 10 11  2  0
 11 12  1  0
 12 13  1  0
  7 14  2  0
 14 15  1  0
 14 16  1  0
 16 17  2  0
 17 18  1  0
 18 19  2  0
 19 20  1  0
 20 21  2  0
  2 22  1  0
 22 23  2  0
 23 24  1  0
 24 25  2  0
 25 26  1  0
 26 27  2  0
 21  5  1  0
 27 22  1  0
 13  9  2  0
 21 16  1  0
  4 28  1  0
  6 29  1  0
 11 30  1  0
 12 31  1  0
 15 32  1  0
 17 33  1  0
 18 34  1  0
 19 35  1  0
 20 36  1  0
 23 37  1  0
 24 38  1  0
 25 39  1  0
 26 40  1  0
 27 41  1  0
M  END
$$$$
