
     RDKit          3D

 32 34  0  0  0  0  0  0  0  0999 V2000
   -0.5009   -1.4591    0.9845 O   0  0  0  0  0  0  0  0  0  0  0  0
   -0.3826   -0.4784    0.2672 C   0  0  0  0  0  0  0  0  0  0  0  0
   -1.5337    0.3095   -0.2910 C   0  0  0  0  0  0  0  0  0  0  0  0
   -2.9654    0.0423   -0.1461 C   0  0  0  0  0  0  0  0  0  0  0  0
   -3.9023    1.0866   -0.2188 C   0  0  0  0  0  0  0  0  0  0  0  0
   -5.2712    0.8371   -0.0814 C   0  0  0  0  0  0  0  0  0  0  0  0
   -5.7252   -0.4607    0.1343 C   0  0  0  0  0  0  0  0  0  0  0  0
   -4.8113   -1.5073    0.2159 C   0  0  0  0  0  0  0  0  0  0  0  0
   -3.4425   -1.2567    0.0784 C   0  0  0  0  0  0  0  0  0  0  0  0
   -0.9413    1.2728   -1.0130 C   0  0  0  0  0  0  0  0  0  0  0  0
    0.4345    1.2626   -0.9737 N   0  0  0  0  0  0  0  0  0  0  0  0
    0.7841    0.1435   -0.2022 N   0  0  0  0  0  0  0  0  0  0  0  0
    2.1368   -0.1371    0.0916 C   0  0  0  0  0  0  0  0  0  0  0  0
    2.5005   -1.2654    0.8417 C   0  0  0  0  0  0  0  0  0  0  0  0
    3.8410   -1.5472    1.1322 C   0  0  0  0  0  0  0  0  0  0  0  0
    4.8487   -0.7025    0.6764 C   0  0  0  0  0  0  0  0  0  0  0  0
    4.5010    0.4269   -0.0703 C   0  0  0  0  0  0  0  0  0  0  0  0
    5.5536    1.3253   -0.5584 N   0  0  0  0  0  4  0  0  0  0  0  0
    5.2238    2.2240   -1.3457 O   0  0  0  0  0  0  0  0  0  0  0  0
    6.7105    1.1289   -0.1606 O   0  0  0  0  0  1  0  0  0  0  0  0
    3.1576    0.7129   -0.3621 C   0  0  0  0  0  0  0  0  0  0  0  0
   -3.5801    2.1145   -0.3691 H   0  0  0  0  0  0  0  0  0  0  0  0
   -5.9811    1.6585   -0.1367 H   0  0  0  0  0  0  0  0  0  0  0  0
   -6.7886   -0.6562    0.2447 H   0  0  0  0  0  0  0  0  0  0  0  0
   -5.1594   -2.5223    0.3905 H   0  0  0  0  0  0  0  0  0  0  0  0
   -2.7563   -2.0988    0.1480 H   0  0  0  0  0  0  0  0  0  0  0  0
   -1.4244    2.0153   -1.6347 H   0  0  0  0  0  0  0  0  0  0  0  0
    0.8352    1.2429   -1.9139 H   0  0  0  0  0  0  0  0  0  0  0  0
    1.7501   -1.9572    1.2179 H   0  0  0  0  0  0  0  0  0  0  0  0
    4.0909   -2.4302    1.7170 H   0  0  0  0  0  0  0  0  0  0  0  0
    5.8857   -0.9345    0.9098 H   0  0  0  0  0  0  0  0  0  0  0  0
    2.9121    1.6099   -0.9247 H   0  0  0  0  0  0  0  0  0  0  0  0
  1  2  2  0
  2  3  1  0
  3  4  1  0
  4  5  2  0
  5  6  1  0
  6  7  2  0
  7  8  1  0
  8  9  2  0
  3 10  2  0
 10 11  1  0
 11 12  1  0
 12 13  1  0
 13 14  2  0
 14 15  1  0
 15 16  2  0
 16 17  1  0
 17 18  1  0
 18 19  2  0
 18 20  1  0
 17 21  2  0
 12  2  1  0
 21 13  1  0
  9  4  1  0
  5 22  1  0
  6 23  1  0
  7 24  1  0
  8 25  1  0
  9 26  1  0
 10 27  1  0
 11 28  1  0
 14 29  1  0
 15 30  1  0
 16 31  1  0
 21 32  1  0
M  CHG  2  18   1  20  -1
M  END
$$$$
