
     RDKit          3D

 49 53  0  0  0  0  0  0  0  0999 V2000
   -3.0202   -2.7633   -2.7571 C   0  0  0  0  0  0  0  0  0  0  0  0
   -2.3041   -2.8027   -1.4407 C   0  0  0  0  0  0  0  0  0  0  0  0
   -1.6362   -3.9619   -1.0258 C   0  0  0  0  0  0  0  0  0  0  0  0
   -0.9316   -3.9845    0.1803 C   0  0  0  0  0  0  0  0  0  0  0  0
   -0.8795   -2.8461    0.9804 C   0  0  0  0  0  0  0  0  0  0  0  0
   -1.5375   -1.6850    0.5674 C   0  0  0  0  0  0  0  0  0  0  0  0
   -1.4408   -0.2367    1.5934 S   0  0  0  0  0  6  0  0  0  0  0  0
   -2.6728   -0.2053    2.3522 O   0  0  0  0  0  0  0  0  0  0  0  0
   -0.1437   -0.2436    2.2356 O   0  0  0  0  0  0  0  0  0  0  0  0
   -1.5411    1.0334    0.4769 N   0  0  0  0  0  0  0  0  0  0  0  0
   -0.6272    2.0855    0.7547 C   0  0  0  0  0  0  0  0  0  0  0  0
   -1.0507    2.8781    1.7576 N   0  0  0  0  0  0  0  0  0  0  0  0
   -0.2492    3.9109    2.0668 C   0  0  0  0  0  0  0  0  0  0  0  0
   -0.5968    4.7471    3.1200 C   0  0  0  0  0  0  0  0  0  0  0  0
    0.2022    5.8322    3.4791 C   0  0  0  0  0  0  0  0  0  0  0  0
    1.3682    6.0887    2.7702 C   0  0  0  0  0  0  0  0  0  0  0  0
    1.7273    5.2568    1.7087 C   0  0  0  0  0  0  0  0  0  0  0  0
    0.9432    4.1693    1.3437 C   0  0  0  0  0  0  0  0  0  0  0  0
    1.3283    3.3888    0.3135 N   0  0  0  0  0  0  0  0  0  0  0  0
    0.5483    2.3226    0.0224 C   0  0  0  0  0  0  0  0  0  0  0  0
    0.9351    1.5718   -1.1090 N   0  0  0  0  0  0  0  0  0  0  0  0
    1.3005    0.2007   -1.0797 C   0  0  0  0  0  0  0  0  0  0  0  0
    2.0372   -0.3512   -0.0084 C   0  0  0  0  0  0  0  0  0  0  0  0
    2.4799   -1.6788   -0.0429 C   0  0  0  0  0  0  0  0  0  0  0  0
    2.1923   -2.4201   -1.1669 C   0  0  0  0  0  0  0  0  0  0  0  0
    1.5050   -1.8836   -2.2293 C   0  0  0  0  0  0  0  0  0  0  0  0
    1.0638   -0.5751   -2.2235 C   0  0  0  0  0  0  0  0  0  0  0  0
    1.3339   -2.7762   -3.2409 O   0  0  0  0  0  0  0  0  0  0  0  0
    1.9713   -3.9423   -2.6800 C   0  0  0  0  0  0  0  0  0  0  0  0
    2.5373   -3.7180   -1.3728 O   0  0  0  0  0  0  0  0  0  0  0  0
   -2.2452   -1.6564   -0.6388 C   0  0  0  0  0  0  0  0  0  0  0  0
   -3.9284   -2.1565   -2.6829 H   0  0  0  0  0  0  0  0  0  0  0  0
   -2.3662   -2.3382   -3.5266 H   0  0  0  0  0  0  0  0  0  0  0  0
   -3.3244   -3.7667   -3.0711 H   0  0  0  0  0  0  0  0  0  0  0  0
   -1.6569   -4.8569   -1.6438 H   0  0  0  0  0  0  0  0  0  0  0  0
   -0.4138   -4.8882    0.4899 H   0  0  0  0  0  0  0  0  0  0  0  0
   -0.3210   -2.8654    1.9145 H   0  0  0  0  0  0  0  0  0  0  0  0
   -2.4757    1.4209    0.6124 H   0  0  0  0  0  0  0  0  0  0  0  0
   -1.5088    4.5433    3.6771 H   0  0  0  0  0  0  0  0  0  0  0  0
   -0.0876    6.4677    4.3122 H   0  0  0  0  0  0  0  0  0  0  0  0
    2.0004    6.9301    3.0404 H   0  0  0  0  0  0  0  0  0  0  0  0
    2.6423    5.4583    1.1559 H   0  0  0  0  0  0  0  0  0  0  0  0
    1.7593    2.0782   -1.4370 H   0  0  0  0  0  0  0  0  0  0  0  0
    2.2689    0.2515    0.8687 H   0  0  0  0  0  0  0  0  0  0  0  0
    3.0294   -2.1068    0.7883 H   0  0  0  0  0  0  0  0  0  0  0  0
    0.5326   -0.1675   -3.0778 H   0  0  0  0  0  0  0  0  0  0  0  0
    2.7717   -4.2622   -3.3569 H   0  0  0  0  0  0  0  0  0  0  0  0
    1.2307   -4.7468   -2.6078 H   0  0  0  0  0  0  0  0  0  0  0  0
   -2.7495   -0.7497   -0.9633 H   0  0  0  0  0  0  0  0  0  0  0  0
  1  2  1  0
  2  3  2  0
  3  4  1  0
  4  5  2  0
  5  6  1  0
  6  7  1  0
  7  8  2  0
  7  9  2  0
  7 10  1  0
 10 11  1  0
 11 12  2  0
 12 13  1  0
 13 14  2  0
 14 15  1  0
 15 16  2  0
 16 17  1  0
 17 18  2  0
 18 19  1  0
 19 20  2  0
 20 21  1  0
 21 22  1  0
 22 23  2  0
 23 24  1  0
 24 25  2  0
 25 26  1  0
 26 27  2  0
 26 28  1  0
 28 29  1  0
 29 30  1  0
  6 31  2  0
 31  2  1  0
 20 11  1  0
 27 22  1  0
 18 13  1  0
 30 25  1  0
  1 32  1  0
  1 33  1  0
  1 34  1  0
  3 35  1  0
  4 36  1  0
  5 37  1  0
 10 38  1  0
 14 39  1  0
 15 40  1  0
 16 41  1  0
 17 42  1  0
 21 43  1  0
 23 44  1  0
 24 45  1  0
 27 46  1  0
 29 47  1  0
 29 48  1  0
 31 49  1  0
M  END
$$$$
