
     RDKit          3D

 50 53  0  0  0  0  0  0  0  0999 V2000
   -3.8516   -0.9768    5.6283 C   0  0  0  0  0  0  0  0  0  0  0  0
   -3.2556   -0.8549    4.2571 C   0  0  0  0  0  0  0  0  0  0  0  0
   -3.3140    0.3586    3.5635 C   0  0  0  0  0  0  0  0  0  0  0  0
   -2.7424    0.4860    2.2914 C   0  0  0  0  0  0  0  0  0  0  0  0
   -2.1050   -0.6040    1.6906 C   0  0  0  0  0  0  0  0  0  0  0  0
   -1.5114   -0.5236    0.3936 N   0  0  0  0  0  0  0  0  0  0  0  0
   -0.5931   -1.4617    0.0391 N   0  0  0  0  0  0  0  0  0  0  0  0
   -0.0426   -0.9996   -1.0854 C   0  0  0  0  0  0  0  0  0  0  0  0
    1.0820   -1.5860   -1.8009 C   0  0  0  0  0  0  0  0  0  0  0  0
    1.6924   -2.5798   -1.4161 O   0  0  0  0  0  0  0  0  0  0  0  0
    1.4089   -0.8768   -2.9786 N   0  0  0  0  0  0  0  0  0  0  0  0
    2.6239   -1.2697   -3.6982 C   0  0  0  0  0  0  0  0  0  0  0  0
    3.8176   -0.5459   -3.0731 C   0  0  0  0  0  0  0  0  0  0  0  0
    4.9255   -1.0604   -2.9523 O   0  0  0  0  0  0  0  0  0  0  0  0
    3.5628    0.7767   -2.7642 N   0  0  0  0  0  0  0  0  0  0  0  0
    4.3091    1.4548   -1.7326 C   0  0  0  0  0  0  0  0  0  0  0  0
    3.5243    1.2871   -0.4647 C   0  0  0  0  0  0  0  0  0  0  0  0
    3.5617    0.2282    0.4236 C   0  0  0  0  0  0  0  0  0  0  0  0
    2.6007    0.3625    1.4659 C   0  0  0  0  0  0  0  0  0  0  0  0
    1.8802    1.5315    1.3576 C   0  0  0  0  0  0  0  0  0  0  0  0
    2.3546    2.4524   -0.0001 S   0  0  0  0  0  0  0  0  0  0  0  0
    0.7648    0.2905   -3.4221 N   0  0  0  0  0  0  0  0  0  0  0  0
   -0.2442    0.7921   -2.7612 C   0  0  0  0  0  0  0  0  0  0  0  0
   -0.8934    2.0395   -3.2912 C   0  0  0  0  0  0  0  0  0  0  0  0
   -0.6857    0.1529   -1.5469 C   0  0  0  0  0  0  0  0  0  0  0  0
   -1.7041    0.4004   -0.6415 C   0  0  0  0  0  0  0  0  0  0  0  0
   -2.8229    1.3758   -0.7075 C   0  0  0  0  0  0  0  0  0  0  0  0
   -2.0050   -1.8068    2.4098 C   0  0  0  0  0  0  0  0  0  0  0  0
   -2.5776   -1.9306    3.6790 C   0  0  0  0  0  0  0  0  0  0  0  0
   -4.1382   -2.0126    5.8402 H   0  0  0  0  0  0  0  0  0  0  0  0
   -3.1304   -0.6486    6.3829 H   0  0  0  0  0  0  0  0  0  0  0  0
   -4.7562   -0.3655    5.7116 H   0  0  0  0  0  0  0  0  0  0  0  0
   -3.8023    1.2200    4.0141 H   0  0  0  0  0  0  0  0  0  0  0  0
   -2.7819    1.4648    1.8289 H   0  0  0  0  0  0  0  0  0  0  0  0
    2.5347   -0.9915   -4.7540 H   0  0  0  0  0  0  0  0  0  0  0  0
    2.7769   -2.3501   -3.6138 H   0  0  0  0  0  0  0  0  0  0  0  0
    2.5892    1.0525   -2.8739 H   0  0  0  0  0  0  0  0  0  0  0  0
    5.3125    1.0286   -1.6311 H   0  0  0  0  0  0  0  0  0  0  0  0
    4.4001    2.5060   -2.0201 H   0  0  0  0  0  0  0  0  0  0  0  0
    4.2204   -0.6268    0.3039 H   0  0  0  0  0  0  0  0  0  0  0  0
    2.4410   -0.3698    2.2495 H   0  0  0  0  0  0  0  0  0  0  0  0
    1.0920    1.8829    2.0083 H   0  0  0  0  0  0  0  0  0  0  0  0
   -0.2989    2.4601   -4.1084 H   0  0  0  0  0  0  0  0  0  0  0  0
   -0.9741    2.7895   -2.4998 H   0  0  0  0  0  0  0  0  0  0  0  0
   -1.8874    1.7997   -3.6761 H   0  0  0  0  0  0  0  0  0  0  0  0
   -3.1138    1.5658   -1.7440 H   0  0  0  0  0  0  0  0  0  0  0  0
   -3.7252    1.0002   -0.2156 H   0  0  0  0  0  0  0  0  0  0  0  0
   -2.5318    2.3312   -0.2618 H   0  0  0  0  0  0  0  0  0  0  0  0
   -1.4933   -2.6709    1.9878 H   0  0  0  0  0  0  0  0  0  0  0  0
   -2.4932   -2.8781    4.2082 H   0  0  0  0  0  0  0  0  0  0  0  0
  1  2  1  0
  2  3  2  0
  3  4  1  0
  4  5  2  0
  5  6  1  0
  6  7  1  0
  7  8  2  0
  8  9  1  0
  9 10  2  0
  9 11  1  0
 11 12  1  0
 12 13  1  0
 13 14  2  0
 13 15  1  0
 15 16  1  0
 16 17  1  0
 17 18  2  0
 18 19  1  0
 19 20  2  0
 20 21  1  0
 11 22  1  0
 22 23  2  0
 23 24  1  0
 23 25  1  0
 25 26  2  0
 26 27  1  0
  5 28  1  0
 28 29  2  0
 29  2  1  0
 26  6  1  0
 25  8  1  0
 21 17  1  0
  1 30  1  0
  1 31  1  0
  1 32  1  0
  3 33  1  0
  4 34  1  0
 12 35  1  0
 12 36  1  0
 15 37  1  0
 16 38  1  0
 16 39  1  0
 18 40  1  0
 19 41  1  0
 20 42  1  0
 24 43  1  0
 24 44  1  0
 24 45  1  0
 27 46  1  0
 27 47  1  0
 27 48  1  0
 28 49  1  0
 29 50  1  0
M  END
$$$$
