
     RDKit          3D

 59 61  0  0  0  0  0  0  0  0999 V2000
   -6.4354    1.0672   -5.9573 C   0  0  0  0  0  0  0  0  0  0  0  0
   -5.3160    0.5793   -5.0552 C   0  0  0  0  0  0  0  0  0  0  0  0
   -5.4237    1.2653   -3.8112 O   0  0  0  0  0  0  0  0  0  0  0  0
   -4.5256    0.9561   -2.8197 C   0  0  0  0  0  0  0  0  0  0  0  0
   -3.4768    0.0393   -2.9625 C   0  0  0  0  0  0  0  0  0  0  0  0
   -2.6182   -0.2052   -1.8902 C   0  0  0  0  0  0  0  0  0  0  0  0
   -1.5722   -1.1143   -2.0300 N   0  0  0  0  0  0  0  0  0  0  0  0
   -0.6942   -1.4369   -1.0306 C   0  0  0  0  0  0  0  0  0  0  0  0
    0.4983   -2.5473   -1.4310 S   0  0  0  0  0  0  0  0  0  0  0  0
   -0.8823   -0.8103    0.2001 N   0  0  0  0  0  0  0  0  0  0  0  0
   -0.0050   -1.0843    1.3528 C   0  0  0  0  0  0  0  0  0  0  0  0
    1.1670   -0.1077    1.4174 C   0  0  0  0  0  0  0  0  0  0  0  0
    2.0848   -0.4356    2.5731 C   0  0  0  0  0  0  0  0  0  0  0  0
    1.9059   -1.3815    3.3318 O   0  0  0  0  0  0  0  0  0  0  0  0
    3.1438    0.4393    2.6790 N   0  0  0  0  0  0  0  0  0  0  0  0
    4.2160    0.2243    3.6249 C   0  0  0  0  0  0  0  0  0  0  0  0
    5.3974   -0.4203    2.9472 C   0  0  0  0  0  0  0  0  0  0  0  0
    6.4754    0.3495    2.4953 C   0  0  0  0  0  0  0  0  0  0  0  0
    7.5498   -0.2590    1.8413 C   0  0  0  0  0  0  0  0  0  0  0  0
    7.5648   -1.6384    1.6213 C   0  0  0  0  0  0  0  0  0  0  0  0
    8.6732   -2.1009    0.9669 O   0  0  0  0  0  0  0  0  0  0  0  0
    8.7314   -3.4995    0.7158 C   0  0  0  0  0  0  0  0  0  0  0  0
    6.4907   -2.4095    2.0640 C   0  0  0  0  0  0  0  0  0  0  0  0
    5.4138   -1.8035    2.7204 C   0  0  0  0  0  0  0  0  0  0  0  0
   -1.8639    0.1687    0.4201 C   0  0  0  0  0  0  0  0  0  0  0  0
   -1.9729    0.8092    1.4640 O   0  0  0  0  0  0  0  0  0  0  0  0
   -2.7963    0.4540   -0.6855 C   0  0  0  0  0  0  0  0  0  0  0  0
   -3.8382    1.3749   -0.5290 C   0  0  0  0  0  0  0  0  0  0  0  0
   -4.7044    1.6356   -1.5938 C   0  0  0  0  0  0  0  0  0  0  0  0
   -5.7608    2.5083   -1.5435 O   0  0  0  0  0  0  0  0  0  0  0  0
   -5.9002    3.3834   -0.4264 C   0  0  0  0  0  0  0  0  0  0  0  0
   -6.7687    2.7498    0.6462 C   0  0  0  0  0  0  0  0  0  0  0  0
   -7.4113    0.8710   -5.5006 H   0  0  0  0  0  0  0  0  0  0  0  0
   -6.3657    2.1496   -6.1078 H   0  0  0  0  0  0  0  0  0  0  0  0
   -6.3953    0.5714   -6.9312 H   0  0  0  0  0  0  0  0  0  0  0  0
   -4.3529    0.8017   -5.5286 H   0  0  0  0  0  0  0  0  0  0  0  0
   -5.4230   -0.5013   -4.9060 H   0  0  0  0  0  0  0  0  0  0  0  0
   -3.3162   -0.4888   -3.8953 H   0  0  0  0  0  0  0  0  0  0  0  0
   -1.4337   -1.5894   -2.9157 H   0  0  0  0  0  0  0  0  0  0  0  0
    0.3534   -2.1182    1.3161 H   0  0  0  0  0  0  0  0  0  0  0  0
   -0.5968   -1.0109    2.2746 H   0  0  0  0  0  0  0  0  0  0  0  0
    1.7504   -0.1464    0.4906 H   0  0  0  0  0  0  0  0  0  0  0  0
    0.8031    0.9188    1.5404 H   0  0  0  0  0  0  0  0  0  0  0  0
    3.3206    1.0832    1.9200 H   0  0  0  0  0  0  0  0  0  0  0  0
    4.4940    1.2043    4.0284 H   0  0  0  0  0  0  0  0  0  0  0  0
    3.8779   -0.3902    4.4668 H   0  0  0  0  0  0  0  0  0  0  0  0
    6.4905    1.4260    2.6476 H   0  0  0  0  0  0  0  0  0  0  0  0
    8.3839    0.3476    1.4968 H   0  0  0  0  0  0  0  0  0  0  0  0
    7.9086   -3.8193    0.0677 H   0  0  0  0  0  0  0  0  0  0  0  0
    8.7431   -4.0686    1.6514 H   0  0  0  0  0  0  0  0  0  0  0  0
    9.6683   -3.7057    0.1894 H   0  0  0  0  0  0  0  0  0  0  0  0
    6.4537   -3.4831    1.9133 H   0  0  0  0  0  0  0  0  0  0  0  0
    4.5774   -2.4183    3.0519 H   0  0  0  0  0  0  0  0  0  0  0  0
   -3.9544    1.8610    0.4341 H   0  0  0  0  0  0  0  0  0  0  0  0
   -6.4100    4.2797   -0.7978 H   0  0  0  0  0  0  0  0  0  0  0  0
   -4.9364    3.7286   -0.0366 H   0  0  0  0  0  0  0  0  0  0  0  0
   -6.9297    3.4458    1.4744 H   0  0  0  0  0  0  0  0  0  0  0  0
   -7.7417    2.4654    0.2318 H   0  0  0  0  0  0  0  0  0  0  0  0
   -6.3151    1.8362    1.0417 H   0  0  0  0  0  0  0  0  0  0  0  0
  1  2  1  0
  2  3  1  0
  3  4  1  0
  4  5  2  0
  5  6  1  0
  6  7  1  0
  7  8  1  0
  8  9  2  0
  8 10  1  0
 10 11  1  0
 11 12  1  0
 12 13  1  0
 13 14  2  0
 13 15  1  0
 15 16  1  0
 16 17  1  0
 17 18  2  0
 18 19  1  0
 19 20  2  0
 20 21  1  0
 21 22  1  0
 20 23  1  0
 23 24  2  0
 10 25  1  0
 25 26  2  0
 25 27  1  0
 27 28  1  0
 28 29  2  0
 29 30  1  0
 30 31  1  0
 31 32  1  0
 29  4  1  0
 27  6  2  0
 24 17  1  0
  1 33  1  0
  1 34  1  0
  1 35  1  0
  2 36  1  0
  2 37  1  0
  5 38  1  0
  7 39  1  0
 11 40  1  0
 11 41  1  0
 12 42  1  0
 12 43  1  0
 15 44  1  0
 16 45  1  0
 16 46  1  0
 18 47  1  0
 19 48  1  0
 22 49  1  0
 22 50  1  0
 22 51  1  0
 23 52  1  0
 24 53  1  0
 28 54  1  0
 31 55  1  0
 31 56  1  0
 32 57  1  0
 32 58  1  0
 32 59  1  0
M  END
$$$$
