
     RDKit          3D

 46 49  0  0  0  0  0  0  0  0999 V2000
   -4.2650   -3.5217   -1.7049 C   0  0  0  0  0  0  0  0  0  0  0  0
   -3.6530   -2.2385   -1.6941 O   0  0  0  0  0  0  0  0  0  0  0  0
   -3.0738   -1.8396   -0.5204 C   0  0  0  0  0  0  0  0  0  0  0  0
   -3.0437   -2.5683    0.6690 C   0  0  0  0  0  0  0  0  0  0  0  0
   -2.4139   -2.0407    1.7997 C   0  0  0  0  0  0  0  0  0  0  0  0
   -1.8150   -0.7819    1.7488 C   0  0  0  0  0  0  0  0  0  0  0  0
   -1.8470   -0.0404    0.5643 C   0  0  0  0  0  0  0  0  0  0  0  0
   -1.2206    1.2732    0.5011 C   0  0  0  0  0  0  0  0  0  0  0  0
    0.0847    1.6235    0.1837 C   0  0  0  0  0  0  0  0  0  0  0  0
    1.2038    0.7554   -0.1725 C   0  0  0  0  0  0  0  0  0  0  0  0
    1.1053   -0.4652   -0.2569 O   0  0  0  0  0  0  0  0  0  0  0  0
    2.3839    1.4704   -0.3987 N   0  0  0  0  0  0  0  0  0  0  0  0
    3.4235    0.9197   -1.1056 N   0  0  0  0  0  0  0  0  0  0  0  0
    4.0658   -0.1093   -0.6240 C   0  0  0  0  0  0  0  0  0  0  0  0
    3.8635   -0.6742    0.7709 C   0  0  0  0  0  0  0  0  0  0  0  0
    5.0752   -0.7647   -1.4569 C   0  0  0  0  0  0  0  0  0  0  0  0
    5.7496   -1.9569   -1.2348 C   0  0  0  0  0  0  0  0  0  0  0  0
    6.6709   -2.2745   -2.2789 C   0  0  0  0  0  0  0  0  0  0  0  0
    6.6608   -1.3119   -3.2521 C   0  0  0  0  0  0  0  0  0  0  0  0
    7.6126   -1.2911   -4.6810 Cl  0  0  0  0  0  0  0  0  0  0  0  0
    5.5768   -0.0545   -2.9450 S   0  0  0  0  0  0  0  0  0  0  0  0
    0.2152    2.9865    0.2392 N   0  0  0  0  0  0  0  0  0  0  0  0
   -0.9509    3.5021    0.5815 N   0  0  0  0  0  0  0  0  0  0  0  0
   -1.8545    2.4915    0.7610 N   0  0  0  0  0  0  0  0  0  0  0  0
   -3.1941    2.7585    1.1434 C   0  0  0  0  0  0  0  0  0  0  0  0
   -4.0804    1.7752    1.3008 N   0  0  0  0  0  0  0  0  0  0  0  0
   -5.2575    2.4297    1.6562 O   0  0  0  0  0  0  0  0  0  0  0  0
   -5.0711    3.8067    1.7146 N   0  0  0  0  0  0  0  0  0  0  0  0
   -3.7909    4.0065    1.4043 C   0  0  0  0  0  0  0  0  0  0  0  0
   -3.2027    5.2167    1.3585 N   0  0  0  0  0  0  0  0  0  0  0  0
   -2.4715   -0.5787   -0.5675 C   0  0  0  0  0  0  0  0  0  0  0  0
   -5.0985   -3.5676   -0.9962 H   0  0  0  0  0  0  0  0  0  0  0  0
   -4.6716   -3.6902   -2.7067 H   0  0  0  0  0  0  0  0  0  0  0  0
   -3.5322   -4.3109   -1.5061 H   0  0  0  0  0  0  0  0  0  0  0  0
   -3.4977   -3.5500    0.7504 H   0  0  0  0  0  0  0  0  0  0  0  0
   -2.3897   -2.6146    2.7225 H   0  0  0  0  0  0  0  0  0  0  0  0
   -1.3272   -0.3904    2.6379 H   0  0  0  0  0  0  0  0  0  0  0  0
    2.2352    2.4582   -0.6006 H   0  0  0  0  0  0  0  0  0  0  0  0
    4.8339   -0.8763    1.2356 H   0  0  0  0  0  0  0  0  0  0  0  0
    3.3365    0.0217    1.4268 H   0  0  0  0  0  0  0  0  0  0  0  0
    3.3030   -1.6112    0.7088 H   0  0  0  0  0  0  0  0  0  0  0  0
    5.5913   -2.5870   -0.3675 H   0  0  0  0  0  0  0  0  0  0  0  0
    7.2965   -3.1578   -2.3065 H   0  0  0  0  0  0  0  0  0  0  0  0
   -3.7841    6.0485    1.3694 H   0  0  0  0  0  0  0  0  0  0  0  0
   -2.2859    5.3457    0.9343 H   0  0  0  0  0  0  0  0  0  0  0  0
   -2.4956   -0.0216   -1.5010 H   0  0  0  0  0  0  0  0  0  0  0  0
  1  2  1  0
  2  3  1  0
  3  4  2  0
  4  5  1  0
  5  6  2  0
  6  7  1  0
  7  8  1  0
  8  9  2  0
  9 10  1  0
 10 11  2  0
 10 12  1  0
 12 13  1  0
 13 14  2  3
 14 15  1  0
 14 16  1  0
 16 17  2  0
 17 18  1  0
 18 19  2  0
 19 20  1  0
 19 21  1  0
  9 22  1  0
 22 23  2  0
 23 24  1  0
 24 25  1  0
 25 26  2  0
 26 27  1  0
 27 28  1  0
 28 29  2  0
 29 30  1  0
  7 31  2  0
 31  3  1  0
 24  8  1  0
 29 25  1  0
 21 16  1  0
  1 32  1  0
  1 33  1  0
  1 34  1  0
  4 35  1  0
  5 36  1  0
  6 37  1  0
 12 38  1  0
 15 39  1  0
 15 40  1  0
 15 41  1  0
 17 42  1  0
 18 43  1  0
 30 44  1  0
 30 45  1  0
 31 46  1  0
M  END
$$$$
