
     RDKit          3D

 31 32  0  0  0  0  0  0  0  0999 V2000
   -2.0429    1.4686   -2.2120 C   0  0  0  0  0  0  0  0  0  0  0  0
   -2.8082    0.8058   -1.1369 N   0  0  0  0  0  4  0  0  0  0  0  0
   -4.1425    1.0288   -1.0570 C   0  0  0  0  0  0  0  0  0  0  0  0
   -4.9093    0.4534   -0.0521 C   0  0  0  0  0  0  0  0  0  0  0  0
   -4.2994   -0.3640    0.8850 C   0  0  0  0  0  0  0  0  0  0  0  0
   -2.9322   -0.5906    0.7961 C   0  0  0  0  0  0  0  0  0  0  0  0
   -2.1837    0.0064   -0.2276 C   0  0  0  0  0  0  0  0  0  0  0  0
   -0.7446   -0.2592   -0.3387 C   0  0  0  0  0  0  0  0  0  0  0  0
    0.1230    0.0675    0.6334 C   0  0  0  0  0  0  0  0  0  0  0  0
    1.5668   -0.2112    0.5770 C   0  0  0  0  0  0  0  0  0  0  0  0
    2.2377   -0.5151    1.7717 C   0  0  0  0  0  0  0  0  0  0  0  0
    3.6148   -0.7637    1.7790 C   0  0  0  0  0  0  0  0  0  0  0  0
    4.3339   -0.6973    0.5810 C   0  0  0  0  0  0  0  0  0  0  0  0
    5.7798   -0.9560    0.5800 N   0  0  0  0  0  4  0  0  0  0  0  0
    6.3149   -1.2298    1.6626 O   0  0  0  0  0  0  0  0  0  0  0  0
    6.3732   -0.8841   -0.5050 O   0  0  0  0  0  1  0  0  0  0  0  0
    3.6831   -0.3797   -0.6172 C   0  0  0  0  0  0  0  0  0  0  0  0
    2.3051   -0.1332   -0.6134 C   0  0  0  0  0  0  0  0  0  0  0  0
   -1.6406    0.6936   -2.8693 H   0  0  0  0  0  0  0  0  0  0  0  0
   -1.2482    2.0633   -1.7539 H   0  0  0  0  0  0  0  0  0  0  0  0
   -2.6975    2.1287   -2.7867 H   0  0  0  0  0  0  0  0  0  0  0  0
   -4.5953    1.6752   -1.8044 H   0  0  0  0  0  0  0  0  0  0  0  0
   -5.9800    0.6421   -0.0010 H   0  0  0  0  0  0  0  0  0  0  0  0
   -4.8844   -0.8274    1.6785 H   0  0  0  0  0  0  0  0  0  0  0  0
   -2.4524   -1.2441    1.5236 H   0  0  0  0  0  0  0  0  0  0  0  0
   -0.4206   -0.7635   -1.2452 H   0  0  0  0  0  0  0  0  0  0  0  0
   -0.2171    0.5466    1.5516 H   0  0  0  0  0  0  0  0  0  0  0  0
    1.6968   -0.5711    2.7155 H   0  0  0  0  0  0  0  0  0  0  0  0
    4.1067   -1.0043    2.7203 H   0  0  0  0  0  0  0  0  0  0  0  0
    4.2327   -0.3154   -1.5551 H   0  0  0  0  0  0  0  0  0  0  0  0
    1.8303    0.1300   -1.5550 H   0  0  0  0  0  0  0  0  0  0  0  0
  1  2  1  0
  2  3  2  0
  3  4  1  0
  4  5  2  0
  5  6  1  0
  6  7  2  0
  7  8  1  0
  8  9  2  3
  9 10  1  0
 10 11  2  0
 11 12  1  0
 12 13  2  0
 13 14  1  0
 14 15  2  0
 14 16  1  0
 13 17  1  0
 17 18  2  0
  7  2  1  0
 18 10  1  0
  1 19  1  0
  1 20  1  0
  1 21  1  0
  3 22  1  0
  4 23  1  0
  5 24  1  0
  6 25  1  0
  8 26  1  0
  9 27  1  0
 11 28  1  0
 12 29  1  0
 17 30  1  0
 18 31  1  0
M  CHG  3   2   1  14   1  16  -1
M  END
$$$$
