
     RDKit          3D

 38 39  0  0  0  0  0  0  0  0999 V2000
   -4.5814   -1.5029   -0.2936 C   0  0  0  0  0  0  0  0  0  0  0  0
   -3.3795   -1.0302    0.3177 O   0  0  0  0  0  0  0  0  0  0  0  0
   -3.4706    0.2988    0.6263 C   0  0  0  0  0  0  0  0  0  0  0  0
   -4.2540    0.6763    1.7232 C   0  0  0  0  0  0  0  0  0  0  0  0
   -4.3700    2.0217    2.0782 C   0  0  0  0  0  0  0  0  0  0  0  0
   -3.7230    2.9952    1.3240 C   0  0  0  0  0  0  0  0  0  0  0  0
   -2.9250    2.6204    0.2415 C   0  0  0  0  0  0  0  0  0  0  0  0
   -2.7705    1.2664   -0.1020 C   0  0  0  0  0  0  0  0  0  0  0  0
   -1.8710    0.9511   -1.2452 C   0  0  0  0  0  0  0  0  0  0  0  0
   -1.7115    1.8015   -2.1251 O   0  0  0  0  0  0  0  0  0  0  0  0
   -1.1685   -0.3987   -1.2881 C   0  0  0  0  0  0  0  0  0  0  0  0
    0.0163   -0.3004   -2.0908 O   0  0  0  0  0  0  0  0  0  0  0  0
    1.1745   -0.1829   -1.3861 C   0  0  0  0  0  0  0  0  0  0  0  0
    1.2976   -0.2691   -0.1747 O   0  0  0  0  0  0  0  0  0  0  0  0
    2.2602    0.0883   -2.3526 C   0  0  0  0  0  0  0  0  0  0  0  0
    3.5726   -0.0571   -2.1125 C   0  0  0  0  0  0  0  0  0  0  0  0
    4.1716   -0.5606   -0.8760 C   0  0  0  0  0  0  0  0  0  0  0  0
    4.3650   -1.9368   -0.7047 C   0  0  0  0  0  0  0  0  0  0  0  0
    4.9289   -2.4254    0.4746 C   0  0  0  0  0  0  0  0  0  0  0  0
    5.2924   -1.5418    1.4907 C   0  0  0  0  0  0  0  0  0  0  0  0
    5.1057   -0.1704    1.3229 C   0  0  0  0  0  0  0  0  0  0  0  0
    4.5564    0.3211    0.1377 C   0  0  0  0  0  0  0  0  0  0  0  0
   -4.8555   -0.8731   -1.1499 H   0  0  0  0  0  0  0  0  0  0  0  0
   -5.4033   -1.5397    0.4304 H   0  0  0  0  0  0  0  0  0  0  0  0
   -4.3976   -2.5193   -0.6548 H   0  0  0  0  0  0  0  0  0  0  0  0
   -4.7574   -0.0789    2.3200 H   0  0  0  0  0  0  0  0  0  0  0  0
   -4.9708    2.3087    2.9365 H   0  0  0  0  0  0  0  0  0  0  0  0
   -3.8243    4.0462    1.5834 H   0  0  0  0  0  0  0  0  0  0  0  0
   -2.4166    3.3920   -0.3342 H   0  0  0  0  0  0  0  0  0  0  0  0
   -0.9492   -0.7666   -0.2796 H   0  0  0  0  0  0  0  0  0  0  0  0
   -1.8312   -1.1289   -1.7708 H   0  0  0  0  0  0  0  0  0  0  0  0
    1.9341    0.4501   -3.3219 H   0  0  0  0  0  0  0  0  0  0  0  0
    4.2873    0.1966   -2.8891 H   0  0  0  0  0  0  0  0  0  0  0  0
    4.0779   -2.6387   -1.4846 H   0  0  0  0  0  0  0  0  0  0  0  0
    5.0815   -3.4930    0.6032 H   0  0  0  0  0  0  0  0  0  0  0  0
    5.7151   -1.9267    2.4150 H   0  0  0  0  0  0  0  0  0  0  0  0
    5.3918    0.5148    2.1145 H   0  0  0  0  0  0  0  0  0  0  0  0
    4.4021    1.3923    0.0248 H   0  0  0  0  0  0  0  0  0  0  0  0
  1  2  1  0
  2  3  1  0
  3  4  2  0
  4  5  1  0
  5  6  2  0
  6  7  1  0
  7  8  2  0
  8  9  1  0
  9 10  2  0
  9 11  1  0
 11 12  1  0
 12 13  1  0
 13 14  2  0
 13 15  1  0
 15 16  2  3
 16 17  1  0
 17 18  2  0
 18 19  1  0
 19 20  2  0
 20 21  1  0
 21 22  2  0
  8  3  1  0
 22 17  1  0
  1 23  1  0
  1 24  1  0
  1 25  1  0
  4 26  1  0
  5 27  1  0
  6 28  1  0
  7 29  1  0
 11 30  1  0
 11 31  1  0
 15 32  1  0
 16 33  1  0
 18 34  1  0
 19 35  1  0
 20 36  1  0
 21 37  1  0
 22 38  1  0
M  END
$$$$
