
     RDKit          3D

 67 69  0  0  0  0  0  0  0  0999 V2000
    6.7154   -2.5509    0.2228 C   0  0  0  0  0  0  0  0  0  0  0  0
    6.5880   -1.7292   -1.0472 C   0  0  0  0  0  0  0  0  0  0  0  0
    5.4832   -0.8335   -0.9488 O   0  0  0  0  0  0  0  0  0  0  0  0
    4.2937   -1.1845   -1.5364 C   0  0  0  0  0  0  0  0  0  0  0  0
    3.9427   -2.4895   -1.8893 C   0  0  0  0  0  0  0  0  0  0  0  0
    2.7009   -2.7579   -2.4700 C   0  0  0  0  0  0  0  0  0  0  0  0
    1.7831   -1.7284   -2.6961 C   0  0  0  0  0  0  0  0  0  0  0  0
    0.4299   -2.0230   -3.3019 C   0  0  0  0  0  0  0  0  0  0  0  0
   -0.4812   -2.8910   -2.4223 C   0  0  0  0  0  0  0  0  0  0  0  0
   -0.7417   -2.2877   -1.1305 N   0  0  0  0  0  0  0  0  0  0  0  0
   -0.1055   -2.7049    0.0223 C   0  0  0  0  0  0  0  0  0  0  0  0
    0.6103   -3.7009    0.0832 O   0  0  0  0  0  0  0  0  0  0  0  0
   -0.3245   -1.7832    1.2194 C   0  0  0  0  0  0  0  0  0  0  0  0
   -1.4622   -0.9343    1.0169 O   0  0  0  0  0  0  0  0  0  0  0  0
   -2.5168   -1.1456    1.8341 C   0  0  0  0  0  0  0  0  0  0  0  0
   -2.6129   -1.9916    2.7082 O   0  0  0  0  0  0  0  0  0  0  0  0
   -3.6406   -0.2597    1.4503 C   0  0  0  0  0  0  0  0  0  0  0  0
   -4.8745   -0.9175    1.2813 C   0  0  0  0  0  0  0  0  0  0  0  0
   -5.9809   -0.1989    0.8326 C   0  0  0  0  0  0  0  0  0  0  0  0
   -7.2676   -0.8778    0.6352 N   0  0  0  0  0  4  0  0  0  0  0  0
   -8.2369   -0.1845    0.2973 O   0  0  0  0  0  0  0  0  0  0  0  0
   -7.3047   -2.1028    0.8111 O   0  0  0  0  0  1  0  0  0  0  0  0
   -5.8622    1.1618    0.5507 C   0  0  0  0  0  0  0  0  0  0  0  0
   -4.6329    1.8080    0.7419 C   0  0  0  0  0  0  0  0  0  0  0  0
   -3.4933    1.1335    1.2207 C   0  0  0  0  0  0  0  0  0  0  0  0
   -2.2931    1.8091    1.4466 N   0  0  0  0  0  0  0  0  0  0  0  0
   -1.9711    3.0801    0.7590 C   0  0  0  0  0  0  0  0  0  0  0  0
   -2.3402    4.2973    1.6222 C   0  0  0  0  0  0  0  0  0  0  0  0
   -1.7287    4.2287    2.9201 O   0  0  0  0  0  0  0  0  0  0  0  0
   -2.1428    3.0366    3.6061 C   0  0  0  0  0  0  0  0  0  0  0  0
   -1.7431    1.7731    2.8275 C   0  0  0  0  0  0  0  0  0  0  0  0
    2.1308   -0.4178   -2.3332 C   0  0  0  0  0  0  0  0  0  0  0  0
    3.3724   -0.1400   -1.7465 C   0  0  0  0  0  0  0  0  0  0  0  0
    3.7818    1.1101   -1.3511 O   0  0  0  0  0  0  0  0  0  0  0  0
    2.8472    2.1802   -1.4492 C   0  0  0  0  0  0  0  0  0  0  0  0
    3.4922    3.4196   -0.8547 C   0  0  0  0  0  0  0  0  0  0  0  0
    6.8325   -1.8940    1.0922 H   0  0  0  0  0  0  0  0  0  0  0  0
    7.5820   -3.2155    0.1708 H   0  0  0  0  0  0  0  0  0  0  0  0
    5.8180   -3.1517    0.4027 H   0  0  0  0  0  0  0  0  0  0  0  0
    7.4841   -1.1070   -1.1501 H   0  0  0  0  0  0  0  0  0  0  0  0
    6.5544   -2.3543   -1.9463 H   0  0  0  0  0  0  0  0  0  0  0  0
    4.6022   -3.3289   -1.7023 H   0  0  0  0  0  0  0  0  0  0  0  0
    2.4485   -3.7865   -2.7187 H   0  0  0  0  0  0  0  0  0  0  0  0
    0.5808   -2.5186   -4.2689 H   0  0  0  0  0  0  0  0  0  0  0  0
   -0.0854   -1.0792   -3.5225 H   0  0  0  0  0  0  0  0  0  0  0  0
   -0.0518   -3.8888   -2.2859 H   0  0  0  0  0  0  0  0  0  0  0  0
   -1.4512   -3.0112   -2.9153 H   0  0  0  0  0  0  0  0  0  0  0  0
   -1.2577   -1.4158   -1.0798 H   0  0  0  0  0  0  0  0  0  0  0  0
    0.5562   -1.1389    1.3111 H   0  0  0  0  0  0  0  0  0  0  0  0
   -0.4004   -2.3960    2.1233 H   0  0  0  0  0  0  0  0  0  0  0  0
   -4.9464   -1.9857    1.4872 H   0  0  0  0  0  0  0  0  0  0  0  0
   -6.7107    1.7407    0.1892 H   0  0  0  0  0  0  0  0  0  0  0  0
   -4.6019    2.8716    0.5238 H   0  0  0  0  0  0  0  0  0  0  0  0
   -2.4322    3.1399   -0.2335 H   0  0  0  0  0  0  0  0  0  0  0  0
   -0.8858    3.0885    0.5952 H   0  0  0  0  0  0  0  0  0  0  0  0
   -1.9855    5.2135    1.1400 H   0  0  0  0  0  0  0  0  0  0  0  0
   -3.4227    4.3917    1.7523 H   0  0  0  0  0  0  0  0  0  0  0  0
   -3.2259    3.0751    3.7700 H   0  0  0  0  0  0  0  0  0  0  0  0
   -1.6558    3.0373    4.5864 H   0  0  0  0  0  0  0  0  0  0  0  0
   -2.0538    0.8891    3.3911 H   0  0  0  0  0  0  0  0  0  0  0  0
   -0.6502    1.7373    2.7435 H   0  0  0  0  0  0  0  0  0  0  0  0
    1.4120    0.3743   -2.5128 H   0  0  0  0  0  0  0  0  0  0  0  0
    1.9362    1.9494   -0.8827 H   0  0  0  0  0  0  0  0  0  0  0  0
    2.6015    2.3726   -2.5006 H   0  0  0  0  0  0  0  0  0  0  0  0
    2.8099    4.2723   -0.8965 H   0  0  0  0  0  0  0  0  0  0  0  0
    3.7746    3.2429    0.1884 H   0  0  0  0  0  0  0  0  0  0  0  0
    4.4102    3.6735   -1.3945 H   0  0  0  0  0  0  0  0  0  0  0  0
  1  2  1  0
  2  3  1  0
  3  4  1  0
  4  5  2  0
  5  6  1  0
  6  7  2  0
  7  8  1  0
  8  9  1  0
  9 10  1  0
 10 11  1  0
 11 12  2  0
 11 13  1  0
 13 14  1  0
 14 15  1  0
 15 16  2  0
 15 17  1  0
 17 18  2  0
 18 19  1  0
 19 20  1  0
 20 21  2  0
 20 22  1  0
 19 23  2  0
 23 24  1  0
 24 25  2  0
 25 26  1  0
 26 27  1  0
 27 28  1  0
 28 29  1  0
 29 30  1  0
 30 31  1  0
  7 32  1  0
 32 33  2  0
 33 34  1  0
 34 35  1  0
 35 36  1  0
 33  4  1  0
 25 17  1  0
 31 26  1  0
  1 37  1  0
  1 38  1  0
  1 39  1  0
  2 40  1  0
  2 41  1  0
  5 42  1  0
  6 43  1  0
  8 44  1  0
  8 45  1  0
  9 46  1  0
  9 47  1  0
 10 48  1  0
 13 49  1  0
 13 50  1  0
 18 51  1  0
 23 52  1  0
 24 53  1  0
 27 54  1  0
 27 55  1  0
 28 56  1  0
 28 57  1  0
 30 58  1  0
 30 59  1  0
 31 60  1  0
 31 61  1  0
 32 62  1  0
 35 63  1  0
 35 64  1  0
 36 65  1  0
 36 66  1  0
 36 67  1  0
M  CHG  2  20   1  22  -1
M  END
$$$$
