
     RDKit          3D

 58 63  0  0  0  0  0  0  0  0999 V2000
    7.8883    0.5020   -2.2319 C   0  0  0  0  0  0  0  0  0  0  0  0
    6.6859    0.4374   -1.3541 C   0  0  0  0  0  0  0  0  0  0  0  0
    6.3441   -0.5309   -0.4336 C   0  0  0  0  0  0  0  0  0  0  0  0
    5.1131   -0.2380    0.2222 C   0  0  0  0  0  0  0  0  0  0  0  0
    4.5400    0.9353   -0.2325 C   0  0  0  0  0  0  0  0  0  0  0  0
    3.3060    1.5831    0.1894 C   0  0  0  0  0  0  0  0  0  0  0  0
    3.2557    2.7887    0.4379 O   0  0  0  0  0  0  0  0  0  0  0  0
    2.1695    0.7628    0.3685 N   0  0  0  0  0  0  0  0  0  0  0  0
    1.9055   -0.3598   -0.5265 C   0  0  0  0  0  0  0  0  0  0  0  0
    0.9938   -1.3860    0.1338 C   0  0  0  0  0  0  0  0  0  0  0  0
   -0.3432   -0.8019    0.6744 C   0  0  0  0  0  0  0  0  0  0  0  0
    0.0175    0.4391    1.5329 C   0  0  0  0  0  0  0  0  0  0  0  0
    0.9776    1.4254    0.8788 C   0  0  0  0  0  0  0  0  0  0  0  0
   -0.8931   -1.7463    1.6416 O   0  0  0  0  0  0  0  0  0  0  0  0
   -1.4538   -2.8811    1.1270 C   0  0  0  0  0  0  0  0  0  0  0  0
   -1.6157   -3.9461    2.0117 C   0  0  0  0  0  0  0  0  0  0  0  0
   -2.1656   -5.1492    1.5624 C   0  0  0  0  0  0  0  0  0  0  0  0
   -2.5571   -5.2807    0.2295 C   0  0  0  0  0  0  0  0  0  0  0  0
   -3.2310   -6.7650   -0.3175 Cl  0  0  0  0  0  0  0  0  0  0  0  0
   -2.4137   -4.2167   -0.6573 C   0  0  0  0  0  0  0  0  0  0  0  0
   -1.8700   -3.0138   -0.1965 C   0  0  0  0  0  0  0  0  0  0  0  0
   -1.7450   -1.8526   -1.0973 C   0  0  0  0  0  0  0  0  0  0  0  0
   -1.9410   -1.9964   -2.2992 O   0  0  0  0  0  0  0  0  0  0  0  0
   -1.4182   -0.5241   -0.4185 C   0  0  0  0  0  0  0  0  0  0  0  0
   -2.7378    0.0561    0.0869 C   0  0  0  0  0  0  0  0  0  0  0  0
   -2.6154    1.4406   -0.4409 C   0  0  0  0  0  0  0  0  0  0  0  0
   -3.5559    2.5178   -0.0538 C   0  0  0  0  0  0  0  0  0  0  0  0
   -4.6771    2.2594    0.7439 C   0  0  0  0  0  0  0  0  0  0  0  0
   -5.5416    3.3022    1.0941 C   0  0  0  0  0  0  0  0  0  0  0  0
   -5.2872    4.5986    0.6481 C   0  0  0  0  0  0  0  0  0  0  0  0
   -6.3537    5.8756    1.0833 Cl  0  0  0  0  0  0  0  0  0  0  0  0
   -4.1758    4.8637   -0.1482 C   0  0  0  0  0  0  0  0  0  0  0  0
   -3.3109    3.8238   -0.5001 C   0  0  0  0  0  0  0  0  0  0  0  0
   -1.6313    1.6236   -1.2586 N   0  0  0  0  0  0  0  0  0  0  0  0
   -0.9537    0.3938   -1.4061 O   0  0  0  0  0  0  0  0  0  0  0  0
    5.5237    1.6923   -1.4106 S   0  0  0  0  0  0  0  0  0  0  0  0
    8.5270   -0.3753   -2.0848 H   0  0  0  0  0  0  0  0  0  0  0  0
    7.5980    0.5312   -3.2873 H   0  0  0  0  0  0  0  0  0  0  0  0
    8.4853    1.3922   -2.0080 H   0  0  0  0  0  0  0  0  0  0  0  0
    6.9525   -1.4042   -0.2308 H   0  0  0  0  0  0  0  0  0  0  0  0
    4.6700   -0.8548    0.9948 H   0  0  0  0  0  0  0  0  0  0  0  0
    2.8283   -0.8575   -0.8299 H   0  0  0  0  0  0  0  0  0  0  0  0
    1.4707    0.0414   -1.4476 H   0  0  0  0  0  0  0  0  0  0  0  0
    1.5365   -1.8416    0.9748 H   0  0  0  0  0  0  0  0  0  0  0  0
    0.8199   -2.2090   -0.5679 H   0  0  0  0  0  0  0  0  0  0  0  0
    0.4893    0.0828    2.4612 H   0  0  0  0  0  0  0  0  0  0  0  0
   -0.8814    0.9655    1.8714 H   0  0  0  0  0  0  0  0  0  0  0  0
    1.2682    2.1707    1.6291 H   0  0  0  0  0  0  0  0  0  0  0  0
    0.5175    1.9773    0.0561 H   0  0  0  0  0  0  0  0  0  0  0  0
   -1.3035   -3.8473    3.0490 H   0  0  0  0  0  0  0  0  0  0  0  0
   -2.2823   -5.9801    2.2545 H   0  0  0  0  0  0  0  0  0  0  0  0
   -2.7288   -4.3173   -1.6938 H   0  0  0  0  0  0  0  0  0  0  0  0
   -3.6189   -0.4136   -0.3647 H   0  0  0  0  0  0  0  0  0  0  0  0
   -2.8411    0.0353    1.1741 H   0  0  0  0  0  0  0  0  0  0  0  0
   -4.9063    1.2593    1.0995 H   0  0  0  0  0  0  0  0  0  0  0  0
   -6.4125    3.0974    1.7122 H   0  0  0  0  0  0  0  0  0  0  0  0
   -3.9753    5.8727   -0.5000 H   0  0  0  0  0  0  0  0  0  0  0  0
   -2.4461    4.0424   -1.1250 H   0  0  0  0  0  0  0  0  0  0  0  0
  1  2  1  0
  2  3  2  0
  3  4  1  0
  4  5  2  0
  5  6  1  0
  6  7  2  0
  6  8  1  0
  8  9  1  0
  9 10  1  0
 10 11  1  0
 11 12  1  0
 12 13  1  0
 11 14  1  0
 14 15  1  0
 15 16  2  0
 16 17  1  0
 17 18  2  0
 18 19  1  0
 18 20  1  0
 20 21  2  0
 21 22  1  0
 22 23  2  0
 22 24  1  0
 24 25  1  0
 25 26  1  0
 26 27  1  0
 27 28  2  0
 28 29  1  0
 29 30  2  0
 30 31  1  0
 30 32  1  0
 32 33  2  0
 26 34  2  0
 34 35  1  0
  5 36  1  0
 36  2  1  0
 13  8  1  0
 21 15  1  0
 35 24  1  0
 24 11  1  0
 33 27  1  0
  1 37  1  0
  1 38  1  0
  1 39  1  0
  3 40  1  0
  4 41  1  0
  9 42  1  0
  9 43  1  0
 10 44  1  0
 10 45  1  0
 12 46  1  0
 12 47  1  0
 13 48  1  0
 13 49  1  0
 16 50  1  0
 17 51  1  0
 20 52  1  0
 25 53  1  0
 25 54  1  0
 28 55  1  0
 29 56  1  0
 32 57  1  0
 33 58  1  0
M  END
$$$$
