
     RDKit          3D

 52 55  0  0  0  0  0  0  0  0999 V2000
    7.8203   -2.3120    3.5459 C   0  0  0  0  0  0  0  0  0  0  0  0
    6.5010   -2.8320    3.4376 O   0  0  0  0  0  0  0  0  0  0  0  0
    5.5618   -2.0160    2.8714 C   0  0  0  0  0  0  0  0  0  0  0  0
    4.2839   -2.5676    2.7825 C   0  0  0  0  0  0  0  0  0  0  0  0
    3.2297   -1.8382    2.2241 C   0  0  0  0  0  0  0  0  0  0  0  0
    3.4391   -0.5419    1.7426 C   0  0  0  0  0  0  0  0  0  0  0  0
    2.3276    0.1289    1.1988 N   0  0  0  0  0  0  0  0  0  0  0  0
    2.2894    1.3763    0.6003 C   0  0  0  0  0  0  0  0  0  0  0  0
    3.2469    2.1317    0.4470 O   0  0  0  0  0  0  0  0  0  0  0  0
    0.8907    1.8265    0.1956 C   0  0  0  0  0  0  0  0  0  0  0  0
   -0.0913    0.4664   -0.5072 S   0  0  0  0  0  0  0  0  0  0  0  0
   -1.5790    1.3148   -0.9293 C   0  0  0  0  0  0  0  0  0  0  0  0
   -1.7066    2.5312   -0.4927 N   0  0  0  0  0  0  0  0  0  0  0  0
   -2.8901    3.1533   -0.7549 C   0  0  0  0  0  0  0  0  0  0  0  0
   -3.9109    2.6152   -1.4182 C   0  0  0  0  0  0  0  0  0  0  0  0
   -3.7853    1.2467   -1.9569 C   0  0  0  0  0  0  0  0  0  0  0  0
   -4.6807    0.7581   -2.6452 O   0  0  0  0  0  0  0  0  0  0  0  0
   -2.5598    0.6337   -1.6579 N   0  0  0  0  0  0  0  0  0  0  0  0
   -2.3764   -0.6956   -2.1463 C   0  0  0  0  0  0  0  0  0  0  0  0
   -1.4188   -0.9522   -3.1389 C   0  0  0  0  0  0  0  0  0  0  0  0
   -1.2567   -2.2445   -3.6407 C   0  0  0  0  0  0  0  0  0  0  0  0
   -2.0460   -3.2862   -3.1555 C   0  0  0  0  0  0  0  0  0  0  0  0
   -3.0063   -3.0405   -2.1724 C   0  0  0  0  0  0  0  0  0  0  0  0
   -3.1873   -1.7450   -1.6795 C   0  0  0  0  0  0  0  0  0  0  0  0
   -4.0692   -1.4766   -0.6615 O   0  0  0  0  0  0  0  0  0  0  0  0
   -5.3818   -1.9739   -0.9220 C   0  0  0  0  0  0  0  0  0  0  0  0
   -5.2936    3.6167   -1.5932 S   0  0  0  0  0  0  0  0  0  0  0  0
   -4.3862    5.0769   -0.9727 C   0  0  0  0  0  0  0  0  0  0  0  0
   -3.1388    4.5462   -0.2578 C   0  0  0  0  0  0  0  0  0  0  0  0
    4.7174    0.0086    1.8343 C   0  0  0  0  0  0  0  0  0  0  0  0
    5.7740   -0.7238    2.3955 C   0  0  0  0  0  0  0  0  0  0  0  0
    8.4456   -3.0813    4.0091 H   0  0  0  0  0  0  0  0  0  0  0  0
    7.8443   -1.4293    4.1935 H   0  0  0  0  0  0  0  0  0  0  0  0
    8.2405   -2.0916    2.5588 H   0  0  0  0  0  0  0  0  0  0  0  0
    4.1062   -3.5749    3.1511 H   0  0  0  0  0  0  0  0  0  0  0  0
    2.2490   -2.3031    2.1714 H   0  0  0  0  0  0  0  0  0  0  0  0
    1.4554   -0.3901    1.1754 H   0  0  0  0  0  0  0  0  0  0  0  0
    0.9954    2.6156   -0.5562 H   0  0  0  0  0  0  0  0  0  0  0  0
    0.4014    2.2325    1.0867 H   0  0  0  0  0  0  0  0  0  0  0  0
   -0.8068   -0.1489   -3.5412 H   0  0  0  0  0  0  0  0  0  0  0  0
   -0.5144   -2.4388   -4.4112 H   0  0  0  0  0  0  0  0  0  0  0  0
   -1.9102   -4.2943   -3.5405 H   0  0  0  0  0  0  0  0  0  0  0  0
   -3.5901   -3.8703   -1.7863 H   0  0  0  0  0  0  0  0  0  0  0  0
   -5.6808   -1.8264   -1.9661 H   0  0  0  0  0  0  0  0  0  0  0  0
   -5.4510   -3.0310   -0.6473 H   0  0  0  0  0  0  0  0  0  0  0  0
   -6.0801   -1.4169   -0.2900 H   0  0  0  0  0  0  0  0  0  0  0  0
   -5.0151    5.6722   -0.3045 H   0  0  0  0  0  0  0  0  0  0  0  0
   -4.1029    5.6979   -1.8292 H   0  0  0  0  0  0  0  0  0  0  0  0
   -2.2846    5.2029   -0.4558 H   0  0  0  0  0  0  0  0  0  0  0  0
   -3.2986    4.5267    0.8270 H   0  0  0  0  0  0  0  0  0  0  0  0
    4.9321    1.0119    1.4800 H   0  0  0  0  0  0  0  0  0  0  0  0
    6.7477   -0.2477    2.4424 H   0  0  0  0  0  0  0  0  0  0  0  0
  1  2  1  0
  2  3  1  0
  3  4  2  0
  4  5  1  0
  5  6  2  0
  6  7  1  0
  7  8  1  0
  8  9  2  0
  8 10  1  0
 10 11  1  0
 11 12  1  0
 12 13  2  0
 13 14  1  0
 14 15  2  0
 15 16  1  0
 16 17  2  0
 16 18  1  0
 18 19  1  0
 19 20  2  0
 20 21  1  0
 21 22  2  0
 22 23  1  0
 23 24  2  0
 24 25  1  0
 25 26  1  0
 15 27  1  0
 27 28  1  0
 28 29  1  0
  6 30  1  0
 30 31  2  0
 31  3  1  0
 18 12  1  0
 24 19  1  0
 29 14  1  0
  1 32  1  0
  1 33  1  0
  1 34  1  0
  4 35  1  0
  5 36  1  0
  7 37  1  0
 10 38  1  0
 10 39  1  0
 20 40  1  0
 21 41  1  0
 22 42  1  0
 23 43  1  0
 26 44  1  0
 26 45  1  0
 26 46  1  0
 28 47  1  0
 28 48  1  0
 29 49  1  0
 29 50  1  0
 30 51  1  0
 31 52  1  0
M  END
$$$$
