
     RDKit          3D

 34 35  0  0  0  0  0  0  0  0999 V2000
    2.6017    3.2866    1.8605 C   0  0  0  0  0  0  0  0  0  0  0  0
    2.1374    1.9840    1.2428 C   0  0  0  0  0  0  0  0  0  0  0  0
    0.9106    1.9519    0.8093 N   0  0  0  0  0  0  0  0  0  0  0  0
    0.4432    0.8428    0.1727 N   0  0  0  0  0  0  0  0  0  0  0  0
   -0.8728    0.7982   -0.2799 C   0  0  0  0  0  0  0  0  0  0  0  0
   -1.6696    1.7245   -0.1893 O   0  0  0  0  0  0  0  0  0  0  0  0
   -1.1738   -0.5307   -0.9403 C   0  0  0  0  0  0  0  0  0  0  0  0
   -2.6314   -0.7685   -1.3298 C   0  0  0  0  0  0  0  0  0  0  0  0
   -3.2024    0.2550   -2.3083 C   0  0  0  0  0  0  0  0  0  0  0  0
   -3.4675   -0.8408   -0.1633 O   0  0  0  0  0  0  0  0  0  0  0  0
   -3.7963   -2.2188   -0.0086 C   0  0  0  0  0  0  0  0  0  0  0  0
   -3.7715   -2.7442   -1.4152 C   0  0  0  0  0  0  0  0  0  0  0  0
   -2.6619   -2.0594   -1.9960 O   0  0  0  0  0  0  0  0  0  0  0  0
    3.1307    0.9220    1.1545 C   0  0  0  0  0  0  0  0  0  0  0  0
    4.4597    1.0353    0.7876 C   0  0  0  0  0  0  0  0  0  0  0  0
    5.1522   -0.2092    0.8464 C   0  0  0  0  0  0  0  0  0  0  0  0
    4.3372   -1.2309    1.2771 C   0  0  0  0  0  0  0  0  0  0  0  0
    2.7527   -0.6870    1.6115 S   0  0  0  0  0  0  0  0  0  0  0  0
    3.2281    3.0920    2.7358 H   0  0  0  0  0  0  0  0  0  0  0  0
    3.1779    3.8525    1.1225 H   0  0  0  0  0  0  0  0  0  0  0  0
    1.7423    3.8883    2.1711 H   0  0  0  0  0  0  0  0  0  0  0  0
    1.0476    0.0316    0.0905 H   0  0  0  0  0  0  0  0  0  0  0  0
   -0.5351   -0.6178   -1.8290 H   0  0  0  0  0  0  0  0  0  0  0  0
   -0.8592   -1.3228   -0.2473 H   0  0  0  0  0  0  0  0  0  0  0  0
   -4.1807   -0.0744   -2.6783 H   0  0  0  0  0  0  0  0  0  0  0  0
   -2.5545    0.3688   -3.1837 H   0  0  0  0  0  0  0  0  0  0  0  0
   -3.3640    1.2325   -1.8474 H   0  0  0  0  0  0  0  0  0  0  0  0
   -3.0217   -2.6856    0.6092 H   0  0  0  0  0  0  0  0  0  0  0  0
   -4.7663   -2.3336    0.4812 H   0  0  0  0  0  0  0  0  0  0  0  0
   -3.6308   -3.8262   -1.4720 H   0  0  0  0  0  0  0  0  0  0  0  0
   -4.6751   -2.4668   -1.9684 H   0  0  0  0  0  0  0  0  0  0  0  0
    4.9182    1.9674    0.4775 H   0  0  0  0  0  0  0  0  0  0  0  0
    6.1964   -0.3461    0.5912 H   0  0  0  0  0  0  0  0  0  0  0  0
    4.5988   -2.2709    1.4206 H   0  0  0  0  0  0  0  0  0  0  0  0
  1  2  1  0
  2  3  2  3
  3  4  1  0
  4  5  1  0
  5  6  2  0
  5  7  1  0
  7  8  1  0
  8  9  1  0
  8 10  1  0
 10 11  1  0
 11 12  1  0
 12 13  1  0
  2 14  1  0
 14 15  2  0
 15 16  1  0
 16 17  2  0
 17 18  1  0
 13  8  1  0
 18 14  1  0
  1 19  1  0
  1 20  1  0
  1 21  1  0
  4 22  1  0
  7 23  1  0
  7 24  1  0
  9 25  1  0
  9 26  1  0
  9 27  1  0
 11 28  1  0
 11 29  1  0
 12 30  1  0
 12 31  1  0
 15 32  1  0
 16 33  1  0
 17 34  1  0
M  END
$$$$
