
     RDKit          3D

 48 50  0  0  0  0  0  0  0  0999 V2000
    7.0239    3.3193   -0.2421 C   0  0  0  0  0  0  0  0  0  0  0  0
    6.9023    1.9184    0.2339 C   0  0  0  0  0  0  0  0  0  0  0  0
    7.9243    1.1109    0.6994 C   0  0  0  0  0  0  0  0  0  0  0  0
    7.3006   -0.4250    1.1410 S   0  0  0  0  0  0  0  0  0  0  0  0
    5.7417    0.1022    0.6865 C   0  0  0  0  0  0  0  0  0  0  0  0
    4.7666   -0.8399    0.8561 N   0  0  0  0  0  0  0  0  0  0  0  0
    3.4475   -0.6073    0.5326 C   0  0  0  0  0  0  0  0  0  0  0  0
    2.9658    0.4232    0.0772 O   0  0  0  0  0  0  0  0  0  0  0  0
    2.5844   -1.8170    0.8322 C   0  0  0  0  0  0  0  0  0  0  0  0
    1.1623   -1.6082    0.3312 C   0  0  0  0  0  0  0  0  0  0  0  0
    0.3573   -2.7893    0.6632 N   0  0  0  0  0  0  0  0  0  0  0  0
   -0.7381   -3.3953   -0.4510 S   0  0  0  0  0  6  0  0  0  0  0  0
   -0.0209   -3.6579   -1.6783 O   0  0  0  0  0  0  0  0  0  0  0  0
   -1.4964   -4.4208    0.2278 O   0  0  0  0  0  0  0  0  0  0  0  0
   -1.8195   -2.0143   -0.7203 C   0  0  0  0  0  0  0  0  0  0  0  0
   -1.7807   -1.3136   -1.9244 C   0  0  0  0  0  0  0  0  0  0  0  0
   -2.6435   -0.2292   -2.1218 C   0  0  0  0  0  0  0  0  0  0  0  0
   -3.5547    0.1627   -1.1257 C   0  0  0  0  0  0  0  0  0  0  0  0
   -3.5791   -0.5602    0.0671 C   0  0  0  0  0  0  0  0  0  0  0  0
   -2.7228   -1.6516    0.2770 C   0  0  0  0  0  0  0  0  0  0  0  0
   -4.5149   -0.1642    1.1295 C   0  0  0  0  0  0  0  0  0  0  0  0
   -4.4613   -0.7410    2.2135 O   0  0  0  0  0  0  0  0  0  0  0  0
   -5.3959    0.8628    0.8337 N   0  0  0  0  0  0  0  0  0  0  0  0
   -6.3435    1.2557    1.8605 C   0  0  0  0  0  0  0  0  0  0  0  0
   -5.3555    1.6386   -0.3190 C   0  0  0  0  0  0  0  0  0  0  0  0
   -6.0968    2.6140   -0.4619 O   0  0  0  0  0  0  0  0  0  0  0  0
   -4.4347    1.2644   -1.2946 N   0  0  0  0  0  0  0  0  0  0  0  0
   -4.3818    2.0465   -2.5239 C   0  0  0  0  0  0  0  0  0  0  0  0
    5.6508    1.3251    0.2369 N   0  0  0  0  0  0  0  0  0  0  0  0
    8.0000    3.4930   -0.7062 H   0  0  0  0  0  0  0  0  0  0  0  0
    6.2520    3.5445   -0.9846 H   0  0  0  0  0  0  0  0  0  0  0  0
    6.9097    4.0135    0.5961 H   0  0  0  0  0  0  0  0  0  0  0  0
    8.9750    1.3433    0.7968 H   0  0  0  0  0  0  0  0  0  0  0  0
    5.0653   -1.7328    1.2182 H   0  0  0  0  0  0  0  0  0  0  0  0
    3.0248   -2.6988    0.3512 H   0  0  0  0  0  0  0  0  0  0  0  0
    2.5856   -1.9854    1.9157 H   0  0  0  0  0  0  0  0  0  0  0  0
    0.7067   -0.7315    0.8051 H   0  0  0  0  0  0  0  0  0  0  0  0
    1.1794   -1.4335   -0.7500 H   0  0  0  0  0  0  0  0  0  0  0  0
    0.1038   -2.9622    1.6352 H   0  0  0  0  0  0  0  0  0  0  0  0
   -1.0861   -1.5981   -2.7133 H   0  0  0  0  0  0  0  0  0  0  0  0
   -2.5784    0.2920   -3.0733 H   0  0  0  0  0  0  0  0  0  0  0  0
   -2.7668   -2.2110    1.2102 H   0  0  0  0  0  0  0  0  0  0  0  0
   -6.5193    0.4504    2.5793 H   0  0  0  0  0  0  0  0  0  0  0  0
   -5.9382    2.1242    2.3895 H   0  0  0  0  0  0  0  0  0  0  0  0
   -7.3003    1.5351    1.4081 H   0  0  0  0  0  0  0  0  0  0  0  0
   -5.0968    2.8739   -2.5213 H   0  0  0  0  0  0  0  0  0  0  0  0
   -4.6238    1.4013   -3.3746 H   0  0  0  0  0  0  0  0  0  0  0  0
   -3.3803    2.4730   -2.6406 H   0  0  0  0  0  0  0  0  0  0  0  0
  1  2  1  0
  2  3  2  0
  3  4  1  0
  4  5  1  0
  5  6  1  0
  6  7  1  0
  7  8  2  0
  7  9  1  0
  9 10  1  0
 10 11  1  0
 11 12  1  0
 12 13  2  0
 12 14  2  0
 12 15  1  0
 15 16  2  0
 16 17  1  0
 17 18  2  0
 18 19  1  0
 19 20  2  0
 19 21  1  0
 21 22  2  0
 21 23  1  0
 23 24  1  0
 23 25  1  0
 25 26  2  0
 25 27  1  0
 27 28  1  0
  5 29  2  0
 29  2  1  0
 20 15  1  0
 27 18  1  0
  1 30  1  0
  1 31  1  0
  1 32  1  0
  3 33  1  0
  6 34  1  0
  9 35  1  0
  9 36  1  0
 10 37  1  0
 10 38  1  0
 11 39  1  0
 16 40  1  0
 17 41  1  0
 20 42  1  0
 24 43  1  0
 24 44  1  0
 24 45  1  0
 28 46  1  0
 28 47  1  0
 28 48  1  0
M  END
$$$$
