
     RDKit          3D

 49 52  0  0  0  0  0  0  0  0999 V2000
    5.6393    1.6512    2.2838 C   0  0  0  0  0  0  0  0  0  0  0  0
    4.8319    0.8054    1.4094 N   0  0  0  0  0  0  0  0  0  0  0  0
    3.7512    1.5927    0.7827 C   0  0  0  0  0  0  0  0  0  0  0  0
    2.6045    0.6987    0.2633 C   0  0  0  0  0  0  0  0  0  0  0  0
    1.8939   -0.0270    1.3449 N   0  0  0  0  0  0  0  0  0  0  0  0
    1.2863   -1.2715    0.8529 C   0  0  0  0  0  0  0  0  0  0  0  0
    0.1465   -1.0520   -0.1501 C   0  0  0  0  0  0  0  0  0  0  0  0
   -1.0124   -0.2457    0.4569 C   0  0  0  0  0  0  0  0  0  0  0  0
   -2.2011   -0.2455   -0.4344 N   0  0  0  0  0  0  0  0  0  0  0  0
   -3.1707   -1.2706   -0.2229 C   0  0  0  0  0  0  0  0  0  0  0  0
   -2.8907   -2.4291    0.5389 C   0  0  0  0  0  0  0  0  0  0  0  0
   -3.8314   -3.4465    0.7428 C   0  0  0  0  0  0  0  0  0  0  0  0
   -5.0937   -3.3433    0.1852 C   0  0  0  0  0  0  0  0  0  0  0  0
   -5.4056   -2.2236   -0.5762 C   0  0  0  0  0  0  0  0  0  0  0  0
   -4.4611   -1.1982   -0.7860 C   0  0  0  0  0  0  0  0  0  0  0  0
   -5.0332    0.1710   -1.7624 S   0  0  0  0  0  0  0  0  0  0  0  0
   -3.5418    1.0980   -2.0268 C   0  0  0  0  0  0  0  0  0  0  0  0
   -3.6509    2.1614   -2.9466 C   0  0  0  0  0  0  0  0  0  0  0  0
   -2.5635    2.9799   -3.2292 C   0  0  0  0  0  0  0  0  0  0  0  0
   -1.3616    2.7346   -2.5896 C   0  0  0  0  0  0  0  0  0  0  0  0
    0.0043    3.7274   -2.9263 Cl  0  0  0  0  0  0  0  0  0  0  0  0
   -1.2454    1.6837   -1.6742 C   0  0  0  0  0  0  0  0  0  0  0  0
   -2.3284    0.8337   -1.3571 C   0  0  0  0  0  0  0  0  0  0  0  0
    2.8022   -0.2803    2.4873 C   0  0  0  0  0  0  0  0  0  0  0  0
    4.2999   -0.3748    2.1180 C   0  0  0  0  0  0  0  0  0  0  0  0
    6.0416    2.5061    1.7288 H   0  0  0  0  0  0  0  0  0  0  0  0
    5.0657    2.0310    3.1369 H   0  0  0  0  0  0  0  0  0  0  0  0
    6.5007    1.0938    2.6680 H   0  0  0  0  0  0  0  0  0  0  0  0
    3.3303    2.3228    1.4879 H   0  0  0  0  0  0  0  0  0  0  0  0
    4.1703    2.1609   -0.0560 H   0  0  0  0  0  0  0  0  0  0  0  0
    3.0251   -0.0011   -0.4717 H   0  0  0  0  0  0  0  0  0  0  0  0
    1.8848    1.3305   -0.2673 H   0  0  0  0  0  0  0  0  0  0  0  0
    0.8644   -1.8289    1.6996 H   0  0  0  0  0  0  0  0  0  0  0  0
    2.0468   -1.9225    0.4026 H   0  0  0  0  0  0  0  0  0  0  0  0
   -0.2088   -2.0365   -0.4769 H   0  0  0  0  0  0  0  0  0  0  0  0
    0.5239   -0.5693   -1.0577 H   0  0  0  0  0  0  0  0  0  0  0  0
   -1.2732   -0.6346    1.4497 H   0  0  0  0  0  0  0  0  0  0  0  0
   -0.6944    0.7785    0.6888 H   0  0  0  0  0  0  0  0  0  0  0  0
   -1.9180   -2.5912    0.9909 H   0  0  0  0  0  0  0  0  0  0  0  0
   -3.5670   -4.3184    1.3358 H   0  0  0  0  0  0  0  0  0  0  0  0
   -5.8310   -4.1262    0.3373 H   0  0  0  0  0  0  0  0  0  0  0  0
   -6.4006   -2.1493   -1.0112 H   0  0  0  0  0  0  0  0  0  0  0  0
   -4.5965    2.3568   -3.4495 H   0  0  0  0  0  0  0  0  0  0  0  0
   -2.6636    3.7939   -3.9409 H   0  0  0  0  0  0  0  0  0  0  0  0
   -0.2701    1.5418   -1.2251 H   0  0  0  0  0  0  0  0  0  0  0  0
    2.6744    0.5497    3.1949 H   0  0  0  0  0  0  0  0  0  0  0  0
    2.5057   -1.1785    3.0430 H   0  0  0  0  0  0  0  0  0  0  0  0
    4.4373   -1.2417    1.4587 H   0  0  0  0  0  0  0  0  0  0  0  0
    4.8839   -0.5970    3.0200 H   0  0  0  0  0  0  0  0  0  0  0  0
  1  2  1  0
  2  3  1  0
  3  4  1  0
  4  5  1  0
  5  6  1  0
  6  7  1  0
  7  8  1  0
  8  9  1  0
  9 10  1  0
 10 11  2  0
 11 12  1  0
 12 13  2  0
 13 14  1  0
 14 15  2  0
 15 16  1  0
 16 17  1  0
 17 18  2  0
 18 19  1  0
 19 20  2  0
 20 21  1  0
 20 22  1  0
 22 23  2  0
  5 24  1  0
 24 25  1  0
 25  2  1  0
 23  9  1  0
 15 10  1  0
 23 17  1  0
  1 26  1  0
  1 27  1  0
  1 28  1  0
  3 29  1  0
  3 30  1  0
  4 31  1  0
  4 32  1  0
  6 33  1  0
  6 34  1  0
  7 35  1  0
  7 36  1  0
  8 37  1  0
  8 38  1  0
 11 39  1  0
 12 40  1  0
 13 41  1  0
 14 42  1  0
 18 43  1  0
 19 44  1  0
 22 45  1  0
 24 46  1  0
 24 47  1  0
 25 48  1  0
 25 49  1  0
M  END
$$$$
