
     RDKit          3D

 61 65  0  0  0  0  0  0  0  0999 V2000
    6.3818   -4.2271    2.2666 C   0  0  0  0  0  0  0  0  0  0  0  0
    5.1675   -3.4438    1.8616 C   0  0  0  0  0  0  0  0  0  0  0  0
    4.9177   -2.1853    2.4148 C   0  0  0  0  0  0  0  0  0  0  0  0
    3.8024   -1.4424    2.0144 C   0  0  0  0  0  0  0  0  0  0  0  0
    2.9142   -1.9340    1.0442 C   0  0  0  0  0  0  0  0  0  0  0  0
    1.7407   -1.1540    0.6249 C   0  0  0  0  0  0  0  0  0  0  0  0
    1.8582    0.1694    0.2082 C   0  0  0  0  0  0  0  0  0  0  0  0
    0.7356    0.9108   -0.1877 C   0  0  0  0  0  0  0  0  0  0  0  0
    0.8809    2.3132   -0.5919 C   0  0  0  0  0  0  0  0  0  0  0  0
    0.5700    3.3578    0.2937 C   0  0  0  0  0  0  0  0  0  0  0  0
    0.7160    4.6915   -0.0962 C   0  0  0  0  0  0  0  0  0  0  0  0
    1.1973    5.0100   -1.3697 C   0  0  0  0  0  0  0  0  0  0  0  0
    1.3263    6.4451   -1.7923 C   0  0  0  0  0  0  0  0  0  0  0  0
    1.5148    3.9760   -2.2551 C   0  0  0  0  0  0  0  0  0  0  0  0
    1.3691    2.6417   -1.8673 C   0  0  0  0  0  0  0  0  0  0  0  0
   -0.5086    0.3397   -0.1779 N   0  0  0  0  0  4  0  0  0  0  0  0
   -1.6624    1.1058   -0.5875 C   0  0  0  0  0  0  0  0  0  0  0  0
   -2.5258    1.6004    0.3922 C   0  0  0  0  0  0  0  0  0  0  0  0
   -3.6384    2.3354   -0.0105 C   0  0  0  0  0  0  0  0  0  0  0  0
   -3.8696    2.5659   -1.3698 C   0  0  0  0  0  0  0  0  0  0  0  0
   -2.9935    2.0640   -2.3366 C   0  0  0  0  0  0  0  0  0  0  0  0
   -1.8779    1.3251   -1.9496 C   0  0  0  0  0  0  0  0  0  0  0  0
   -0.6541   -0.9612    0.2232 C   0  0  0  0  0  0  0  0  0  0  0  0
   -1.9854   -1.5764    0.1993 C   0  0  0  0  0  0  0  0  0  0  0  0
   -2.5469   -2.0384   -1.0021 C   0  0  0  0  0  0  0  0  0  0  0  0
   -3.8150   -2.6248   -1.0186 C   0  0  0  0  0  0  0  0  0  0  0  0
   -4.5473   -2.7648    0.1640 C   0  0  0  0  0  0  0  0  0  0  0  0
   -5.8949   -3.4271    0.1500 C   0  0  0  0  0  0  0  0  0  0  0  0
   -3.9799   -2.3407    1.3692 C   0  0  0  0  0  0  0  0  0  0  0  0
   -2.7123   -1.7535    1.3879 C   0  0  0  0  0  0  0  0  0  0  0  0
    0.4627   -1.7069    0.6269 C   0  0  0  0  0  0  0  0  0  0  0  0
    3.1843   -3.1933    0.4846 C   0  0  0  0  0  0  0  0  0  0  0  0
    4.2997   -3.9366    0.8837 C   0  0  0  0  0  0  0  0  0  0  0  0
    7.2255   -3.9713    1.6181 H   0  0  0  0  0  0  0  0  0  0  0  0
    6.1933   -5.3035    2.1950 H   0  0  0  0  0  0  0  0  0  0  0  0
    6.6556   -4.0141    3.3052 H   0  0  0  0  0  0  0  0  0  0  0  0
    5.5902   -1.7756    3.1665 H   0  0  0  0  0  0  0  0  0  0  0  0
    3.6359   -0.4749    2.4836 H   0  0  0  0  0  0  0  0  0  0  0  0
    2.8409    0.6437    0.1857 H   0  0  0  0  0  0  0  0  0  0  0  0
    0.2132    3.1524    1.3015 H   0  0  0  0  0  0  0  0  0  0  0  0
    0.4594    5.4862    0.6031 H   0  0  0  0  0  0  0  0  0  0  0  0
    1.6707    7.0646   -0.9573 H   0  0  0  0  0  0  0  0  0  0  0  0
    2.0570    6.5538   -2.6008 H   0  0  0  0  0  0  0  0  0  0  0  0
    0.3590    6.8206   -2.1403 H   0  0  0  0  0  0  0  0  0  0  0  0
    1.8862    4.2063   -3.2527 H   0  0  0  0  0  0  0  0  0  0  0  0
    1.6425    1.8647   -2.5800 H   0  0  0  0  0  0  0  0  0  0  0  0
   -2.3488    1.4296    1.4492 H   0  0  0  0  0  0  0  0  0  0  0  0
   -4.3321    2.7331    0.7285 H   0  0  0  0  0  0  0  0  0  0  0  0
   -4.7414    3.1422   -1.6787 H   0  0  0  0  0  0  0  0  0  0  0  0
   -3.1893    2.2540   -3.3907 H   0  0  0  0  0  0  0  0  0  0  0  0
   -1.2053    0.9327   -2.7053 H   0  0  0  0  0  0  0  0  0  0  0  0
   -2.0052   -1.9572   -1.9429 H   0  0  0  0  0  0  0  0  0  0  0  0
   -4.2297   -2.9789   -1.9615 H   0  0  0  0  0  0  0  0  0  0  0  0
   -6.4076   -3.2482   -0.8009 H   0  0  0  0  0  0  0  0  0  0  0  0
   -5.7829   -4.5060    0.2946 H   0  0  0  0  0  0  0  0  0  0  0  0
   -6.5342   -3.0267    0.9436 H   0  0  0  0  0  0  0  0  0  0  0  0
   -4.5242   -2.4712    2.3036 H   0  0  0  0  0  0  0  0  0  0  0  0
   -2.3029   -1.4402    2.3473 H   0  0  0  0  0  0  0  0  0  0  0  0
    0.3214   -2.7401    0.9488 H   0  0  0  0  0  0  0  0  0  0  0  0
    2.5376   -3.6121   -0.2839 H   0  0  0  0  0  0  0  0  0  0  0  0
    4.4880   -4.9053    0.4241 H   0  0  0  0  0  0  0  0  0  0  0  0
  1  2  1  0
  2  3  2  0
  3  4  1  0
  4  5  2  0
  5  6  1  0
  6  7  2  0
  7  8  1  0
  8  9  1  0
  9 10  2  0
 10 11  1  0
 11 12  2  0
 12 13  1  0
 12 14  1  0
 14 15  2  0
  8 16  2  0
 16 17  1  0
 17 18  2  0
 18 19  1  0
 19 20  2  0
 20 21  1  0
 21 22  2  0
 16 23  1  0
 23 24  1  0
 24 25  2  0
 25 26  1  0
 26 27  2  0
 27 28  1  0
 27 29  1  0
 29 30  2  0
 23 31  2  0
  5 32  1  0
 32 33  2  0
 33  2  1  0
 31  6  1  0
 15  9  1  0
 22 17  1  0
 30 24  1  0
  1 34  1  0
  1 35  1  0
  1 36  1  0
  3 37  1  0
  4 38  1  0
  7 39  1  0
 10 40  1  0
 11 41  1  0
 13 42  1  0
 13 43  1  0
 13 44  1  0
 14 45  1  0
 15 46  1  0
 18 47  1  0
 19 48  1  0
 20 49  1  0
 21 50  1  0
 22 51  1  0
 25 52  1  0
 26 53  1  0
 28 54  1  0
 28 55  1  0
 28 56  1  0
 29 57  1  0
 30 58  1  0
 31 59  1  0
 32 60  1  0
 33 61  1  0
M  CHG  1  16   1
M  END
$$$$
