
     RDKit          3D

 51 55  0  0  0  0  0  0  0  0999 V2000
    8.8875   -1.4845    0.6137 F   0  0  0  0  0  0  0  0  0  0  0  0
    7.5728   -1.2309    0.5741 C   0  0  0  0  0  0  0  0  0  0  0  0
    6.7281   -1.8532    1.4852 C   0  0  0  0  0  0  0  0  0  0  0  0
    5.3584   -1.5896    1.4456 C   0  0  0  0  0  0  0  0  0  0  0  0
    4.8349   -0.7052    0.4898 C   0  0  0  0  0  0  0  0  0  0  0  0
    3.3538   -0.4043    0.4567 C   0  0  0  0  0  0  0  0  0  0  0  0
    2.9925    0.7649    1.3914 C   0  0  0  0  0  0  0  0  0  0  0  0
    1.5816    1.1648    1.4329 N   0  0  0  0  0  0  0  0  0  0  0  0
    0.6452    0.1078    1.8471 C   0  0  0  0  0  0  0  0  0  0  0  0
   -0.2269   -0.4890    0.7184 C   0  0  0  0  0  0  0  0  0  0  0  0
   -0.9479    0.5432   -0.0415 N   0  0  0  0  0  0  0  0  0  0  0  0
   -2.2763    0.3764   -0.4241 C   0  0  0  0  0  0  0  0  0  0  0  0
   -3.0634    1.4242   -0.3786 N   0  0  0  0  0  0  0  0  0  0  0  0
   -4.4270    1.3223   -0.7102 C   0  0  0  0  0  0  0  0  0  0  0  0
   -5.2179    2.4699   -0.6240 C   0  0  0  0  0  0  0  0  0  0  0  0
   -6.5806    2.4225   -0.9297 C   0  0  0  0  0  0  0  0  0  0  0  0
   -7.1673    1.2203   -1.3258 C   0  0  0  0  0  0  0  0  0  0  0  0
   -6.3957    0.0614   -1.4190 C   0  0  0  0  0  0  0  0  0  0  0  0
   -5.0335    0.1248   -1.1092 C   0  0  0  0  0  0  0  0  0  0  0  0
   -4.1809   -0.9878   -1.1901 N   0  0  0  0  0  0  0  0  0  0  0  0
   -4.4668   -2.2768   -1.5738 C   0  0  0  0  0  0  0  0  0  0  0  0
   -3.2931   -2.9967   -1.5727 C   0  0  0  0  0  0  0  0  0  0  0  0
   -2.2653   -2.1182   -1.1585 C   0  0  0  0  0  0  0  0  0  0  0  0
   -2.8392   -0.8880   -0.8843 C   0  0  0  0  0  0  0  0  0  0  0  0
   -0.4034    1.9083    0.0824 C   0  0  0  0  0  0  0  0  0  0  0  0
    1.1319    1.8716    0.2213 C   0  0  0  0  0  0  0  0  0  0  0  0
    5.7052   -0.0821   -0.4178 C   0  0  0  0  0  0  0  0  0  0  0  0
    7.0745   -0.3477   -0.3758 C   0  0  0  0  0  0  0  0  0  0  0  0
    7.1413   -2.5368    2.2197 H   0  0  0  0  0  0  0  0  0  0  0  0
    4.7029   -2.0767    2.1642 H   0  0  0  0  0  0  0  0  0  0  0  0
    3.0612   -0.1869   -0.5769 H   0  0  0  0  0  0  0  0  0  0  0  0
    2.8063   -1.3112    0.7401 H   0  0  0  0  0  0  0  0  0  0  0  0
    3.5974    1.6438    1.1303 H   0  0  0  0  0  0  0  0  0  0  0  0
    3.2993    0.5099    2.4148 H   0  0  0  0  0  0  0  0  0  0  0  0
    1.1607   -0.6989    2.3823 H   0  0  0  0  0  0  0  0  0  0  0  0
   -0.0305    0.5575    2.5870 H   0  0  0  0  0  0  0  0  0  0  0  0
    0.4077   -1.0540    0.0271 H   0  0  0  0  0  0  0  0  0  0  0  0
   -0.9294   -1.1904    1.1827 H   0  0  0  0  0  0  0  0  0  0  0  0
   -4.7636    3.4069   -0.3131 H   0  0  0  0  0  0  0  0  0  0  0  0
   -7.1820    3.3250   -0.8572 H   0  0  0  0  0  0  0  0  0  0  0  0
   -8.2279    1.1878   -1.5632 H   0  0  0  0  0  0  0  0  0  0  0  0
   -6.8737   -0.8607   -1.7319 H   0  0  0  0  0  0  0  0  0  0  0  0
   -5.4681   -2.5843   -1.8377 H   0  0  0  0  0  0  0  0  0  0  0  0
   -3.1886   -4.0371   -1.8526 H   0  0  0  0  0  0  0  0  0  0  0  0
   -1.2169   -2.3663   -1.0759 H   0  0  0  0  0  0  0  0  0  0  0  0
   -0.8494    2.4149    0.9476 H   0  0  0  0  0  0  0  0  0  0  0  0
   -0.6537    2.4886   -0.8139 H   0  0  0  0  0  0  0  0  0  0  0  0
    1.5135    2.8986    0.2500 H   0  0  0  0  0  0  0  0  0  0  0  0
    1.5365    1.4006   -0.6824 H   0  0  0  0  0  0  0  0  0  0  0  0
    5.3215    0.6130   -1.1616 H   0  0  0  0  0  0  0  0  0  0  0  0
    7.7542    0.1282   -1.0752 H   0  0  0  0  0  0  0  0  0  0  0  0
  1  2  1  0
  2  3  2  0
  3  4  1  0
  4  5  2  0
  5  6  1  0
  6  7  1  0
  7  8  1  0
  8  9  1  0
  9 10  1  0
 10 11  1  0
 11 12  1  0
 12 13  2  0
 13 14  1  0
 14 15  2  0
 15 16  1  0
 16 17  2  0
 17 18  1  0
 18 19  2  0
 19 20  1  0
 20 21  1  0
 21 22  2  0
 22 23  1  0
 23 24  2  0
 11 25  1  0
 25 26  1  0
  5 27  1  0
 27 28  2  0
 28  2  1  0
 26  8  1  0
 24 12  1  0
 19 14  1  0
 24 20  1  0
  3 29  1  0
  4 30  1  0
  6 31  1  0
  6 32  1  0
  7 33  1  0
  7 34  1  0
  9 35  1  0
  9 36  1  0
 10 37  1  0
 10 38  1  0
 15 39  1  0
 16 40  1  0
 17 41  1  0
 18 42  1  0
 21 43  1  0
 22 44  1  0
 23 45  1  0
 25 46  1  0
 25 47  1  0
 26 48  1  0
 26 49  1  0
 27 50  1  0
 28 51  1  0
M  END
$$$$
