
     RDKit          3D

 54 57  0  0  0  0  0  0  0  0999 V2000
   -6.9160   -1.3717   -0.1491 C   0  0  0  0  0  0  0  0  0  0  0  0
   -5.6794   -0.6416    0.2822 C   0  0  0  0  0  0  0  0  0  0  0  0
   -5.6456    0.0512    1.4917 C   0  0  0  0  0  0  0  0  0  0  0  0
   -4.5070    0.7680    1.8606 C   0  0  0  0  0  0  0  0  0  0  0  0
   -3.3787    0.8180    1.0237 C   0  0  0  0  0  0  0  0  0  0  0  0
   -2.1941    1.6329    1.4732 C   0  0  0  0  0  0  0  0  0  0  0  0
   -3.3860    0.1029   -0.1965 C   0  0  0  0  0  0  0  0  0  0  0  0
   -2.2324    0.0553   -1.1090 C   0  0  0  0  0  0  0  0  0  0  0  0
   -1.0062   -0.4505   -0.7188 C   0  0  0  0  0  0  0  0  0  0  0  0
    0.0359   -0.4573   -1.6483 C   0  0  0  0  0  0  0  0  0  0  0  0
    1.3526   -0.9813   -1.1985 C   0  0  0  0  0  0  0  0  0  0  0  0
    1.8731   -1.8780   -1.8468 O   0  0  0  0  0  0  0  0  0  0  0  0
    1.8183   -0.3644   -0.0543 N   0  0  0  0  0  0  0  0  0  0  0  0
    3.0088   -0.6059    0.6164 C   0  0  0  0  0  0  0  0  0  0  0  0
    4.1376   -1.7220    0.0420 S   0  0  0  0  0  0  0  0  0  0  0  0
    5.2438   -1.3701    1.2878 C   0  0  0  0  0  0  0  0  0  0  0  0
    6.5629   -2.0737    1.3140 C   0  0  0  0  0  0  0  0  0  0  0  0
    4.7616   -0.4040    2.1611 C   0  0  0  0  0  0  0  0  0  0  0  0
    5.5609    0.1408    3.3060 C   0  0  0  0  0  0  0  0  0  0  0  0
    3.4082    0.0029    1.8004 C   0  0  0  0  0  0  0  0  0  0  0  0
    2.5151    0.9354    2.4956 C   0  0  0  0  0  0  0  0  0  0  0  0
    2.7069    1.0896    3.8385 N   0  0  0  0  0  0  0  0  0  0  0  0
    1.5715    1.4991    1.9439 O   0  0  0  0  0  0  0  0  0  0  0  0
   -0.1647    0.0089   -2.9665 C   0  0  0  0  0  0  0  0  0  0  0  0
    0.8275    0.0424   -3.9796 C   0  0  0  0  0  0  0  0  0  0  0  0
    0.5403    0.5252   -5.2548 C   0  0  0  0  0  0  0  0  0  0  0  0
   -0.7375    0.9832   -5.5389 C   0  0  0  0  0  0  0  0  0  0  0  0
   -1.7170    0.9577   -4.5440 C   0  0  0  0  0  0  0  0  0  0  0  0
   -1.4565    0.4826   -3.2653 C   0  0  0  0  0  0  0  0  0  0  0  0
   -2.4555    0.5042   -2.3665 N   0  0  0  0  0  0  0  0  0  0  0  0
   -4.5564   -0.5980   -0.5541 C   0  0  0  0  0  0  0  0  0  0  0  0
   -6.6574   -2.2681   -0.7224 H   0  0  0  0  0  0  0  0  0  0  0  0
   -7.5382   -0.7196   -0.7701 H   0  0  0  0  0  0  0  0  0  0  0  0
   -7.5017   -1.6987    0.7163 H   0  0  0  0  0  0  0  0  0  0  0  0
   -6.5086    0.0459    2.1532 H   0  0  0  0  0  0  0  0  0  0  0  0
   -4.5115    1.3050    2.8070 H   0  0  0  0  0  0  0  0  0  0  0  0
   -1.7606    2.1931    0.6387 H   0  0  0  0  0  0  0  0  0  0  0  0
   -2.4873    2.3727    2.2262 H   0  0  0  0  0  0  0  0  0  0  0  0
   -1.4331    0.9826    1.9152 H   0  0  0  0  0  0  0  0  0  0  0  0
   -0.8695   -0.8508    0.2806 H   0  0  0  0  0  0  0  0  0  0  0  0
    1.2649    0.3951    0.3434 H   0  0  0  0  0  0  0  0  0  0  0  0
    7.3756   -1.3568    1.1544 H   0  0  0  0  0  0  0  0  0  0  0  0
    6.7136   -2.5545    2.2860 H   0  0  0  0  0  0  0  0  0  0  0  0
    6.6424   -2.8471    0.5427 H   0  0  0  0  0  0  0  0  0  0  0  0
    5.3917    1.2152    3.4258 H   0  0  0  0  0  0  0  0  0  0  0  0
    6.6362    0.0086    3.1471 H   0  0  0  0  0  0  0  0  0  0  0  0
    5.2933   -0.3708    4.2352 H   0  0  0  0  0  0  0  0  0  0  0  0
    1.9817    1.5983    4.3265 H   0  0  0  0  0  0  0  0  0  0  0  0
    3.2059    0.3862    4.3629 H   0  0  0  0  0  0  0  0  0  0  0  0
    1.8358   -0.3186   -3.7821 H   0  0  0  0  0  0  0  0  0  0  0  0
    1.3123    0.5357   -6.0204 H   0  0  0  0  0  0  0  0  0  0  0  0
   -0.9785    1.3598   -6.5297 H   0  0  0  0  0  0  0  0  0  0  0  0
   -2.7166    1.3213   -4.7730 H   0  0  0  0  0  0  0  0  0  0  0  0
   -4.5830   -1.1222   -1.5094 H   0  0  0  0  0  0  0  0  0  0  0  0
  1  2  1  0
  2  3  2  0
  3  4  1  0
  4  5  2  0
  5  6  1  0
  5  7  1  0
  7  8  1  0
  8  9  2  0
  9 10  1  0
 10 11  1  0
 11 12  2  0
 11 13  1  0
 13 14  1  0
 14 15  1  0
 15 16  1  0
 16 17  1  0
 16 18  2  0
 18 19  1  0
 18 20  1  0
 20 21  1  0
 21 22  1  0
 21 23  2  0
 10 24  2  0
 24 25  1  0
 25 26  2  0
 26 27  1  0
 27 28  2  0
 28 29  1  0
 29 30  2  0
  7 31  2  0
 31  2  1  0
 30  8  1  0
 20 14  2  0
 29 24  1  0
  1 32  1  0
  1 33  1  0
  1 34  1  0
  3 35  1  0
  4 36  1  0
  6 37  1  0
  6 38  1  0
  6 39  1  0
  9 40  1  0
 13 41  1  0
 17 42  1  0
 17 43  1  0
 17 44  1  0
 19 45  1  0
 19 46  1  0
 19 47  1  0
 22 48  1  0
 22 49  1  0
 25 50  1  0
 26 51  1  0
 27 52  1  0
 28 53  1  0
 31 54  1  0
M  END
$$$$
