
     RDKit          3D

 35 36  0  0  0  0  0  0  0  0999 V2000
    2.6800   -0.8926    1.6689 C   0  0  0  0  0  0  0  0  0  0  0  0
    2.3189   -0.1324    0.4675 N   0  0  0  0  0  0  0  0  0  0  0  0
    1.8229    1.2089    0.8172 C   0  0  0  0  0  0  0  0  0  0  0  0
    0.4306    1.1993    1.4571 C   0  0  0  0  0  0  0  0  0  0  0  0
   -0.6106    0.5014    0.5846 C   0  0  0  0  0  0  0  0  0  0  0  0
   -1.8854    0.6691    1.2092 O   0  0  0  0  0  0  0  0  0  0  0  0
   -2.9764    0.1198    0.5880 C   0  0  0  0  0  0  0  0  0  0  0  0
   -2.9252   -0.6160   -0.6013 C   0  0  0  0  0  0  0  0  0  0  0  0
   -4.0961   -1.1396   -1.1605 C   0  0  0  0  0  0  0  0  0  0  0  0
   -5.3223   -0.9306   -0.5341 C   0  0  0  0  0  0  0  0  0  0  0  0
   -6.7568   -1.5777   -1.2288 Cl  0  0  0  0  0  0  0  0  0  0  0  0
   -5.3938   -0.2028    0.6486 C   0  0  0  0  0  0  0  0  0  0  0  0
   -4.2238    0.3193    1.2059 C   0  0  0  0  0  0  0  0  0  0  0  0
   -4.3646    1.2186    2.6780 Cl  0  0  0  0  0  0  0  0  0  0  0  0
    3.4732   -0.0763   -0.4467 C   0  0  0  0  0  0  0  0  0  0  0  0
    3.0658    0.3094   -1.8398 C   0  0  0  0  0  0  0  0  0  0  0  0
    3.6242   -0.4127   -3.0408 C   0  0  0  0  0  0  0  0  0  0  0  0
    2.3000   -0.6715   -2.5546 O   0  0  0  0  0  0  0  0  0  0  0  0
    3.4790   -0.4049    2.2390 H   0  0  0  0  0  0  0  0  0  0  0  0
    3.0159   -1.9009    1.4006 H   0  0  0  0  0  0  0  0  0  0  0  0
    1.8177   -1.0321    2.3281 H   0  0  0  0  0  0  0  0  0  0  0  0
    1.7436    1.8302   -0.0820 H   0  0  0  0  0  0  0  0  0  0  0  0
    2.5287    1.7236    1.4820 H   0  0  0  0  0  0  0  0  0  0  0  0
    0.4506    0.7361    2.4505 H   0  0  0  0  0  0  0  0  0  0  0  0
    0.1141    2.2357    1.6328 H   0  0  0  0  0  0  0  0  0  0  0  0
   -0.3756   -0.5663    0.5070 H   0  0  0  0  0  0  0  0  0  0  0  0
   -0.6212    0.9607   -0.4112 H   0  0  0  0  0  0  0  0  0  0  0  0
   -1.9896   -0.8039   -1.1201 H   0  0  0  0  0  0  0  0  0  0  0  0
   -4.0404   -1.7099   -2.0847 H   0  0  0  0  0  0  0  0  0  0  0  0
   -6.3514   -0.0415    1.1354 H   0  0  0  0  0  0  0  0  0  0  0  0
    3.9493   -1.0644   -0.4953 H   0  0  0  0  0  0  0  0  0  0  0  0
    4.2365    0.6201   -0.0775 H   0  0  0  0  0  0  0  0  0  0  0  0
    2.8013    1.3508   -1.9546 H   0  0  0  0  0  0  0  0  0  0  0  0
    3.7136    0.1320   -3.9722 H   0  0  0  0  0  0  0  0  0  0  0  0
    4.3676   -1.1862   -2.8964 H   0  0  0  0  0  0  0  0  0  0  0  0
  1  2  1  0
  2  3  1  0
  3  4  1  0
  4  5  1  0
  5  6  1  0
  6  7  1  0
  7  8  2  0
  8  9  1  0
  9 10  2  0
 10 11  1  0
 10 12  1  0
 12 13  2  0
 13 14  1  0
  2 15  1  0
 15 16  1  0
 16 17  1  0
 17 18  1  0
 13  7  1  0
 18 16  1  0
  1 19  1  0
  1 20  1  0
  1 21  1  0
  3 22  1  0
  3 23  1  0
  4 24  1  0
  4 25  1  0
  5 26  1  0
  5 27  1  0
  8 28  1  0
  9 29  1  0
 12 30  1  0
 15 31  1  0
 15 32  1  0
 16 33  1  0
 17 34  1  0
 17 35  1  0
M  END
$$$$
