
     RDKit          3D

 62 65  0  0  0  0  0  0  0  0999 V2000
   -3.6786   -1.0328    3.5900 C   0  0  0  0  0  0  0  0  0  0  0  0
   -3.7311   -1.7949    2.2745 C   0  0  0  0  0  0  0  0  0  0  0  0
   -3.5797   -0.8892    1.1409 N   0  0  0  0  0  0  0  0  0  0  0  0
   -2.3935   -0.4387    0.5295 C   0  0  0  0  0  0  0  0  0  0  0  0
   -1.1513   -0.7919    0.9215 C   0  0  0  0  0  0  0  0  0  0  0  0
    0.1194   -0.3922    0.3558 C   0  0  0  0  0  0  0  0  0  0  0  0
    1.2881   -0.7431    0.9110 C   0  0  0  0  0  0  0  0  0  0  0  0
    2.5956   -0.3775    0.3200 C   0  0  0  0  0  0  0  0  0  0  0  0
    2.9931    0.7983   -0.0749 N   0  0  0  0  0  4  0  0  0  0  0  0
    2.3218    2.1129    0.0053 C   0  0  0  0  0  0  0  0  0  0  0  0
    1.8119    2.5379   -1.3608 C   0  0  0  0  0  0  0  0  0  0  0  0
    4.3826    0.7053   -0.5671 C   0  0  0  0  0  0  0  0  0  0  0  0
    5.2030    1.7073   -1.0553 C   0  0  0  0  0  0  0  0  0  0  0  0
    6.4912    1.3487   -1.4618 C   0  0  0  0  0  0  0  0  0  0  0  0
    6.9274    0.0168   -1.3690 C   0  0  0  0  0  0  0  0  0  0  0  0
    6.0860   -0.9782   -0.8675 C   0  0  0  0  0  0  0  0  0  0  0  0
    4.8103   -0.6141   -0.4675 C   0  0  0  0  0  0  0  0  0  0  0  0
    3.7041   -1.4459    0.1185 C   0  0  0  0  0  0  0  0  0  0  0  0
    4.1303   -2.0608    1.4549 C   0  0  0  0  0  0  0  0  0  0  0  0
    3.2369   -2.5242   -0.8630 C   0  0  0  0  0  0  0  0  0  0  0  0
   -2.7914    0.5403   -0.6284 C   0  0  0  0  0  0  0  0  0  0  0  0
   -2.2423    1.9599   -0.4189 C   0  0  0  0  0  0  0  0  0  0  0  0
   -2.4301   -0.0136   -2.0145 C   0  0  0  0  0  0  0  0  0  0  0  0
   -4.3096    0.5730   -0.4865 C   0  0  0  0  0  0  0  0  0  0  0  0
   -5.2419    1.2951   -1.2243 C   0  0  0  0  0  0  0  0  0  0  0  0
   -6.5902    1.1662   -0.8961 C   0  0  0  0  0  0  0  0  0  0  0  0
   -6.9859    0.3277    0.1538 C   0  0  0  0  0  0  0  0  0  0  0  0
   -6.0387   -0.3958    0.8875 C   0  0  0  0  0  0  0  0  0  0  0  0
   -4.6965   -0.2745    0.5637 C   0  0  0  0  0  0  0  0  0  0  0  0
   -4.4908   -0.3019    3.6598 H   0  0  0  0  0  0  0  0  0  0  0  0
   -3.7730   -1.7259    4.4319 H   0  0  0  0  0  0  0  0  0  0  0  0
   -2.7326   -0.4931    3.6981 H   0  0  0  0  0  0  0  0  0  0  0  0
   -2.9399   -2.5536    2.2616 H   0  0  0  0  0  0  0  0  0  0  0  0
   -4.6647   -2.3661    2.2115 H   0  0  0  0  0  0  0  0  0  0  0  0
   -1.0744   -1.4657    1.7732 H   0  0  0  0  0  0  0  0  0  0  0  0
    0.0935    0.1839   -0.5588 H   0  0  0  0  0  0  0  0  0  0  0  0
    1.3180   -1.3829    1.7898 H   0  0  0  0  0  0  0  0  0  0  0  0
    1.4934    2.0398    0.7162 H   0  0  0  0  0  0  0  0  0  0  0  0
    3.0287    2.8425    0.4144 H   0  0  0  0  0  0  0  0  0  0  0  0
    1.1485    1.7884   -1.8034 H   0  0  0  0  0  0  0  0  0  0  0  0
    1.2511    3.4746   -1.2747 H   0  0  0  0  0  0  0  0  0  0  0  0
    2.6288    2.7076   -2.0686 H   0  0  0  0  0  0  0  0  0  0  0  0
    4.8934    2.7436   -1.1354 H   0  0  0  0  0  0  0  0  0  0  0  0
    7.1699    2.1052   -1.8550 H   0  0  0  0  0  0  0  0  0  0  0  0
    7.9369   -0.2405   -1.6905 H   0  0  0  0  0  0  0  0  0  0  0  0
    6.4379   -2.0045   -0.7964 H   0  0  0  0  0  0  0  0  0  0  0  0
    3.3265   -2.6627    1.8934 H   0  0  0  0  0  0  0  0  0  0  0  0
    5.0014   -2.7150    1.3362 H   0  0  0  0  0  0  0  0  0  0  0  0
    4.3939   -1.2879    2.1867 H   0  0  0  0  0  0  0  0  0  0  0  0
    2.4028   -3.1026   -0.4503 H   0  0  0  0  0  0  0  0  0  0  0  0
    4.0434   -3.2270   -1.1005 H   0  0  0  0  0  0  0  0  0  0  0  0
    2.8911   -2.0860   -1.8072 H   0  0  0  0  0  0  0  0  0  0  0  0
   -2.6484    2.6599   -1.1588 H   0  0  0  0  0  0  0  0  0  0  0  0
   -1.1545    2.0021   -0.5103 H   0  0  0  0  0  0  0  0  0  0  0  0
   -2.5040    2.3486    0.5729 H   0  0  0  0  0  0  0  0  0  0  0  0
   -1.3493   -0.0488   -2.1776 H   0  0  0  0  0  0  0  0  0  0  0  0
   -2.8518    0.6071   -2.8145 H   0  0  0  0  0  0  0  0  0  0  0  0
   -2.8183   -1.0301   -2.1544 H   0  0  0  0  0  0  0  0  0  0  0  0
   -4.9386    1.9459   -2.0379 H   0  0  0  0  0  0  0  0  0  0  0  0
   -7.3414    1.7188   -1.4559 H   0  0  0  0  0  0  0  0  0  0  0  0
   -8.0413    0.2381    0.4011 H   0  0  0  0  0  0  0  0  0  0  0  0
   -6.3772   -1.0336    1.6958 H   0  0  0  0  0  0  0  0  0  0  0  0
  1  2  1  0
  2  3  1  0
  3  4  1  0
  4  5  2  3
  5  6  1  0
  6  7  2  3
  7  8  1  0
  8  9  2  0
  9 10  1  0
 10 11  1  0
  9 12  1  0
 12 13  2  0
 13 14  1  0
 14 15  2  0
 15 16  1  0
 16 17  2  0
 17 18  1  0
 18 19  1  0
 18 20  1  0
  4 21  1  0
 21 22  1  0
 21 23  1  0
 21 24  1  0
 24 25  2  0
 25 26  1  0
 26 27  2  0
 27 28  1  0
 28 29  2  0
 29  3  1  0
 18  8  1  0
 29 24  1  0
 17 12  1  0
  1 30  1  0
  1 31  1  0
  1 32  1  0
  2 33  1  0
  2 34  1  0
  5 35  1  0
  6 36  1  0
  7 37  1  0
 10 38  1  0
 10 39  1  0
 11 40  1  0
 11 41  1  0
 11 42  1  0
 13 43  1  0
 14 44  1  0
 15 45  1  0
 16 46  1  0
 19 47  1  0
 19 48  1  0
 19 49  1  0
 20 50  1  0
 20 51  1  0
 20 52  1  0
 22 53  1  0
 22 54  1  0
 22 55  1  0
 23 56  1  0
 23 57  1  0
 23 58  1  0
 25 59  1  0
 26 60  1  0
 27 61  1  0
 28 62  1  0
M  CHG  1   9   1
M  END
$$$$
