
     RDKit          3D

 61 65  0  0  0  0  0  0  0  0999 V2000
    2.4790   -5.0085   -2.5667 C   0  0  0  0  0  0  0  0  0  0  0  0
    2.8128   -3.6375   -2.0581 C   0  0  0  0  0  0  0  0  0  0  0  0
    3.8484   -2.9000   -2.6265 C   0  0  0  0  0  0  0  0  0  0  0  0
    4.1809   -1.6440   -2.1100 C   0  0  0  0  0  0  0  0  0  0  0  0
    3.5107   -1.0913   -1.0280 C   0  0  0  0  0  0  0  0  0  0  0  0
    3.8972    0.1177   -0.5839 N   0  0  0  0  0  0  0  0  0  0  0  0
    3.2837    0.6814    0.4880 C   0  0  0  0  0  0  0  0  0  0  0  0
    3.8057    2.0001    0.9075 C   0  0  0  0  0  0  0  0  0  0  0  0
    2.9897    2.9744    1.5132 C   0  0  0  0  0  0  0  0  0  0  0  0
    3.5046    4.2150    1.9060 C   0  0  0  0  0  0  0  0  0  0  0  0
    4.8482    4.5112    1.6993 C   0  0  0  0  0  0  0  0  0  0  0  0
    5.6768    3.5702    1.0977 C   0  0  0  0  0  0  0  0  0  0  0  0
    5.1587    2.3324    0.7046 C   0  0  0  0  0  0  0  0  0  0  0  0
    2.2389    0.0424    1.1310 C   0  0  0  0  0  0  0  0  0  0  0  0
    1.8162   -1.1946    0.6426 C   0  0  0  0  0  0  0  0  0  0  0  0
    0.6712   -1.8135    1.3382 C   0  0  0  0  0  0  0  0  0  0  0  0
    0.8195   -2.1248    2.5162 O   0  0  0  0  0  0  0  0  0  0  0  0
   -0.5281   -1.9753    0.6435 N   0  0  0  0  0  0  0  0  0  0  0  0
   -0.9073   -1.1528   -0.5134 C   0  0  0  0  0  0  0  0  0  0  0  0
   -1.7461    0.0536   -0.0540 C   0  0  0  0  0  0  0  0  0  0  0  0
   -2.9419   -0.4122    0.7338 N   0  0  0  0  0  0  0  0  0  0  0  0
   -4.0055    0.8432    1.1884 S   0  0  0  0  0  6  0  0  0  0  0  0
   -5.1145    0.2616    1.9096 O   0  0  0  0  0  0  0  0  0  0  0  0
   -3.2093    1.9186    1.7365 O   0  0  0  0  0  0  0  0  0  0  0  0
   -4.7236    1.4734   -0.2201 C   0  0  0  0  0  0  0  0  0  0  0  0
   -4.9455    2.8230   -0.5628 C   0  0  0  0  0  0  0  0  0  0  0  0
   -4.6385    4.0560    0.2010 C   0  0  0  0  0  0  0  0  0  0  0  0
   -5.5135    2.9146   -1.7747 N   0  0  0  0  0  0  0  0  0  0  0  0
   -5.6987    1.6144   -2.2101 O   0  0  0  0  0  0  0  0  0  0  0  0
   -5.2333    0.7493   -1.2694 C   0  0  0  0  0  0  0  0  0  0  0  0
   -5.3681   -0.6883   -1.5695 C   0  0  0  0  0  0  0  0  0  0  0  0
   -2.5255   -1.2708    1.9021 C   0  0  0  0  0  0  0  0  0  0  0  0
   -1.6841   -2.4566    1.4032 C   0  0  0  0  0  0  0  0  0  0  0  0
    2.4618   -1.8184   -0.4440 C   0  0  0  0  0  0  0  0  0  0  0  0
    2.1333   -3.0991   -0.9603 C   0  0  0  0  0  0  0  0  0  0  0  0
    2.7245   -5.1027   -3.6295 H   0  0  0  0  0  0  0  0  0  0  0  0
    3.0413   -5.7621   -2.0065 H   0  0  0  0  0  0  0  0  0  0  0  0
    1.4084   -5.2126   -2.4616 H   0  0  0  0  0  0  0  0  0  0  0  0
    4.4132   -3.2937   -3.4691 H   0  0  0  0  0  0  0  0  0  0  0  0
    4.9953   -1.0827   -2.5637 H   0  0  0  0  0  0  0  0  0  0  0  0
    1.9306    2.7899    1.6770 H   0  0  0  0  0  0  0  0  0  0  0  0
    2.8520    4.9508    2.3686 H   0  0  0  0  0  0  0  0  0  0  0  0
    5.2483    5.4749    2.0029 H   0  0  0  0  0  0  0  0  0  0  0  0
    6.7267    3.7945    0.9291 H   0  0  0  0  0  0  0  0  0  0  0  0
    5.8271    1.6121    0.2342 H   0  0  0  0  0  0  0  0  0  0  0  0
    1.7604    0.4733    2.0047 H   0  0  0  0  0  0  0  0  0  0  0  0
   -1.4945   -1.7882   -1.1863 H   0  0  0  0  0  0  0  0  0  0  0  0
   -0.0352   -0.8000   -1.0666 H   0  0  0  0  0  0  0  0  0  0  0  0
   -1.1311    0.7135    0.5687 H   0  0  0  0  0  0  0  0  0  0  0  0
   -2.0756    0.6079   -0.9380 H   0  0  0  0  0  0  0  0  0  0  0  0
   -5.1161    4.9330   -0.2475 H   0  0  0  0  0  0  0  0  0  0  0  0
   -3.5599    4.2374    0.2198 H   0  0  0  0  0  0  0  0  0  0  0  0
   -5.0004    3.9755    1.2303 H   0  0  0  0  0  0  0  0  0  0  0  0
   -4.3915   -1.1220   -1.8191 H   0  0  0  0  0  0  0  0  0  0  0  0
   -6.0394   -0.8541   -2.4210 H   0  0  0  0  0  0  0  0  0  0  0  0
   -5.7765   -1.2279   -0.7064 H   0  0  0  0  0  0  0  0  0  0  0  0
   -1.9483   -0.6658    2.6109 H   0  0  0  0  0  0  0  0  0  0  0  0
   -3.4132   -1.6634    2.4080 H   0  0  0  0  0  0  0  0  0  0  0  0
   -2.2778   -3.0870    0.7309 H   0  0  0  0  0  0  0  0  0  0  0  0
   -1.3663   -3.0780    2.2467 H   0  0  0  0  0  0  0  0  0  0  0  0
    1.3440   -3.6874   -0.4943 H   0  0  0  0  0  0  0  0  0  0  0  0
  1  2  1  0
  2  3  2  0
  3  4  1  0
  4  5  2  0
  5  6  1  0
  6  7  2  0
  7  8  1  0
  8  9  2  0
  9 10  1  0
 10 11  2  0
 11 12  1  0
 12 13  2  0
  7 14  1  0
 14 15  2  0
 15 16  1  0
 16 17  2  0
 16 18  1  0
 18 19  1  0
 19 20  1  0
 20 21  1  0
 21 22  1  0
 22 23  2  0
 22 24  2  0
 22 25  1  0
 25 26  1  0
 26 27  1  0
 26 28  2  0
 28 29  1  0
 29 30  1  0
 30 31  1  0
 21 32  1  0
 32 33  1  0
 15 34  1  0
 34 35  2  0
 35  2  1  0
 34  5  1  0
 13  8  1  0
 33 18  1  0
 30 25  2  0
  1 36  1  0
  1 37  1  0
  1 38  1  0
  3 39  1  0
  4 40  1  0
  9 41  1  0
 10 42  1  0
 11 43  1  0
 12 44  1  0
 13 45  1  0
 14 46  1  0
 19 47  1  0
 19 48  1  0
 20 49  1  0
 20 50  1  0
 27 51  1  0
 27 52  1  0
 27 53  1  0
 31 54  1  0
 31 55  1  0
 31 56  1  0
 32 57  1  0
 32 58  1  0
 33 59  1  0
 33 60  1  0
 35 61  1  0
M  END
$$$$
