
     RDKit          3D

 48 50  0  0  0  0  0  0  0  0999 V2000
    9.2736    0.7512   -0.2943 C   0  0  0  0  0  0  0  0  0  0  0  0
    8.2658    1.3274    0.5295 O   0  0  0  0  0  0  0  0  0  0  0  0
    6.9910    0.8597    0.3688 C   0  0  0  0  0  0  0  0  0  0  0  0
    6.5859   -0.1300   -0.5258 C   0  0  0  0  0  0  0  0  0  0  0  0
    5.2401   -0.5201   -0.5942 C   0  0  0  0  0  0  0  0  0  0  0  0
    4.2835    0.0756    0.2326 C   0  0  0  0  0  0  0  0  0  0  0  0
    2.9529   -0.2514    0.2413 O   0  0  0  0  0  0  0  0  0  0  0  0
    2.4616   -1.0565   -0.8262 C   0  0  0  0  0  0  0  0  0  0  0  0
    0.9931   -1.1352   -0.6583 C   0  0  0  0  0  0  0  0  0  0  0  0
    0.1610   -1.5025    0.3704 C   0  0  0  0  0  0  0  0  0  0  0  0
   -1.1483   -1.3605   -0.1558 C   0  0  0  0  0  0  0  0  0  0  0  0
   -2.4141   -1.6278    0.5336 C   0  0  0  0  0  0  0  0  0  0  0  0
   -2.4561   -2.0505    1.6871 O   0  0  0  0  0  0  0  0  0  0  0  0
   -3.5399   -1.3519   -0.2141 N   0  0  0  0  0  0  0  0  0  0  0  0
   -4.8858   -1.3708    0.3458 C   0  0  0  0  0  0  0  0  0  0  0  0
   -5.3730   -2.8112    0.5156 C   0  0  0  0  0  0  0  0  0  0  0  0
   -5.8760   -0.5919   -0.5399 C   0  0  0  0  0  0  0  0  0  0  0  0
   -5.4897    0.8612   -0.6615 C   0  0  0  0  0  0  0  0  0  0  0  0
   -5.9863    1.8064    0.2309 C   0  0  0  0  0  0  0  0  0  0  0  0
   -5.5557    3.1251    0.1169 C   0  0  0  0  0  0  0  0  0  0  0  0
   -4.6371    3.4602   -0.8725 C   0  0  0  0  0  0  0  0  0  0  0  0
   -4.1874    2.4576   -1.7141 C   0  0  0  0  0  0  0  0  0  0  0  0
   -4.5886    1.1702   -1.6288 N   0  0  0  0  0  0  0  0  0  0  0  0
   -1.1010   -0.9329   -1.4314 N   0  0  0  0  0  0  0  0  0  0  0  0
    0.2397   -0.7953   -1.7379 O   0  0  0  0  0  0  0  0  0  0  0  0
    4.7010    1.0652    1.1358 C   0  0  0  0  0  0  0  0  0  0  0  0
    3.5790    1.8435    2.1976 Cl  0  0  0  0  0  0  0  0  0  0  0  0
    6.0416    1.4552    1.1992 C   0  0  0  0  0  0  0  0  0  0  0  0
   10.2195    1.2483   -0.0583 H   0  0  0  0  0  0  0  0  0  0  0  0
    9.3931   -0.3181   -0.0786 H   0  0  0  0  0  0  0  0  0  0  0  0
    9.0632    0.9193   -1.3583 H   0  0  0  0  0  0  0  0  0  0  0  0
    7.2929   -0.6266   -1.1837 H   0  0  0  0  0  0  0  0  0  0  0  0
    4.9814   -1.3030   -1.3009 H   0  0  0  0  0  0  0  0  0  0  0  0
    2.7090   -0.6045   -1.7942 H   0  0  0  0  0  0  0  0  0  0  0  0
    2.8819   -2.0679   -0.7658 H   0  0  0  0  0  0  0  0  0  0  0  0
    0.4427   -1.8228    1.3628 H   0  0  0  0  0  0  0  0  0  0  0  0
   -3.3809   -0.8246   -1.0748 H   0  0  0  0  0  0  0  0  0  0  0  0
   -4.8343   -0.9031    1.3377 H   0  0  0  0  0  0  0  0  0  0  0  0
   -6.3806   -2.8346    0.9418 H   0  0  0  0  0  0  0  0  0  0  0  0
   -4.7176   -3.3787    1.1824 H   0  0  0  0  0  0  0  0  0  0  0  0
   -5.3972   -3.3346   -0.4456 H   0  0  0  0  0  0  0  0  0  0  0  0
   -6.8927   -0.6664   -0.1353 H   0  0  0  0  0  0  0  0  0  0  0  0
   -5.9078   -1.0291   -1.5466 H   0  0  0  0  0  0  0  0  0  0  0  0
   -6.6866    1.5272    1.0120 H   0  0  0  0  0  0  0  0  0  0  0  0
   -5.9222    3.8828    0.8059 H   0  0  0  0  0  0  0  0  0  0  0  0
   -4.2789    4.4771   -0.9827 H   0  0  0  0  0  0  0  0  0  0  0  0
   -3.4690    2.6667   -2.5007 H   0  0  0  0  0  0  0  0  0  0  0  0
    6.3537    2.2228    1.9012 H   0  0  0  0  0  0  0  0  0  0  0  0
  1  2  1  0
  2  3  1  0
  3  4  2  0
  4  5  1  0
  5  6  2  0
  6  7  1  0
  7  8  1  0
  8  9  1  0
  9 10  2  0
 10 11  1  0
 11 12  1  0
 12 13  2  0
 12 14  1  0
 14 15  1  0
 15 16  1  0
 15 17  1  0
 17 18  1  0
 18 19  2  0
 19 20  1  0
 20 21  2  0
 21 22  1  0
 22 23  2  0
 11 24  2  0
 24 25  1  0
  6 26  1  0
 26 27  1  0
 26 28  2  0
 28  3  1  0
 25  9  1  0
 23 18  1  0
  1 29  1  0
  1 30  1  0
  1 31  1  0
  4 32  1  0
  5 33  1  0
  8 34  1  0
  8 35  1  0
 10 36  1  0
 14 37  1  0
 15 38  1  0
 16 39  1  0
 16 40  1  0
 16 41  1  0
 17 42  1  0
 17 43  1  0
 19 44  1  0
 20 45  1  0
 21 46  1  0
 22 47  1  0
 28 48  1  0
M  END
$$$$
