
     RDKit          3D

 47 49  0  0  0  0  0  0  0  0999 V2000
   -3.6686   -2.8410    2.2003 C   0  0  0  0  0  0  0  0  0  0  0  0
   -3.6839   -1.3218    2.2139 C   0  0  0  0  0  0  0  0  0  0  0  0
   -4.1205   -0.7687    0.9246 N   0  0  0  0  0  4  0  0  0  0  0  0
   -3.2703   -0.3969   -0.0263 C   0  0  0  0  0  0  0  0  0  0  0  0
   -1.8562   -0.5395    0.0072 C   0  0  0  0  0  0  0  0  0  0  0  0
   -1.0241    0.4276   -0.4121 C   0  0  0  0  0  0  0  0  0  0  0  0
    0.4160    0.2842   -0.3758 C   0  0  0  0  0  0  0  0  0  0  0  0
    1.2498    1.2440   -0.8063 C   0  0  0  0  0  0  0  0  0  0  0  0
    2.7113    1.1049   -0.7949 C   0  0  0  0  0  0  0  0  0  0  0  0
    3.4058    0.5952    0.3010 C   0  0  0  0  0  0  0  0  0  0  0  0
    4.8065    0.4988    0.2784 C   0  0  0  0  0  0  0  0  0  0  0  0
    5.5739    0.9194   -0.8217 C   0  0  0  0  0  0  0  0  0  0  0  0
    6.9669    0.7968   -0.8450 N   0  0  0  0  0  0  0  0  0  0  0  0
    7.6852    0.6190    0.4166 C   0  0  0  0  0  0  0  0  0  0  0  0
    7.7262    1.4447   -1.9141 C   0  0  0  0  0  0  0  0  0  0  0  0
    4.8466    1.4308   -1.9101 C   0  0  0  0  0  0  0  0  0  0  0  0
    3.4464    1.5345   -1.8977 C   0  0  0  0  0  0  0  0  0  0  0  0
   -4.1189    0.2464   -1.3769 S   0  0  0  0  0  0  0  0  0  0  0  0
   -5.6467    0.0019   -0.6317 C   0  0  0  0  0  0  0  0  0  0  0  0
   -6.9239    0.2944   -1.1345 C   0  0  0  0  0  0  0  0  0  0  0  0
   -8.0302   -0.0023   -0.3352 C   0  0  0  0  0  0  0  0  0  0  0  0
   -7.8696   -0.5729    0.9230 C   0  0  0  0  0  0  0  0  0  0  0  0
   -6.5925   -0.8621    1.4196 C   0  0  0  0  0  0  0  0  0  0  0  0
   -5.4645   -0.5660    0.6259 C   0  0  0  0  0  0  0  0  0  0  0  0
   -3.3359   -3.2273    3.1684 H   0  0  0  0  0  0  0  0  0  0  0  0
   -4.6650   -3.2440    1.9949 H   0  0  0  0  0  0  0  0  0  0  0  0
   -2.9924   -3.2205    1.4281 H   0  0  0  0  0  0  0  0  0  0  0  0
   -4.3440   -0.9561    3.0084 H   0  0  0  0  0  0  0  0  0  0  0  0
   -2.6887   -0.9397    2.4681 H   0  0  0  0  0  0  0  0  0  0  0  0
   -1.4419   -1.4650    0.3998 H   0  0  0  0  0  0  0  0  0  0  0  0
   -1.4000    1.3741   -0.8011 H   0  0  0  0  0  0  0  0  0  0  0  0
    0.8258   -0.6525   -0.0010 H   0  0  0  0  0  0  0  0  0  0  0  0
    0.8753    2.1775   -1.2204 H   0  0  0  0  0  0  0  0  0  0  0  0
    2.8790    0.2702    1.1939 H   0  0  0  0  0  0  0  0  0  0  0  0
    5.2821    0.0767    1.1585 H   0  0  0  0  0  0  0  0  0  0  0  0
    7.4875    1.4502    1.1025 H   0  0  0  0  0  0  0  0  0  0  0  0
    8.7685    0.5745    0.2568 H   0  0  0  0  0  0  0  0  0  0  0  0
    7.4138   -0.3273    0.8966 H   0  0  0  0  0  0  0  0  0  0  0  0
    7.4319    1.0624   -2.8975 H   0  0  0  0  0  0  0  0  0  0  0  0
    7.5950    2.5320   -1.8861 H   0  0  0  0  0  0  0  0  0  0  0  0
    8.7983    1.2374   -1.8215 H   0  0  0  0  0  0  0  0  0  0  0  0
    5.3520    1.7687   -2.8099 H   0  0  0  0  0  0  0  0  0  0  0  0
    2.9473    1.9442   -2.7729 H   0  0  0  0  0  0  0  0  0  0  0  0
   -7.0570    0.7386   -2.1188 H   0  0  0  0  0  0  0  0  0  0  0  0
   -9.0325    0.2155   -0.7052 H   0  0  0  0  0  0  0  0  0  0  0  0
   -8.7503   -0.7967    1.5253 H   0  0  0  0  0  0  0  0  0  0  0  0
   -6.5134   -1.3119    2.4051 H   0  0  0  0  0  0  0  0  0  0  0  0
  1  2  1  0
  2  3  1  0
  3  4  2  0
  4  5  1  0
  5  6  2  3
  6  7  1  0
  7  8  2  3
  8  9  1  0
  9 10  2  0
 10 11  1  0
 11 12  2  0
 12 13  1  0
 13 14  1  0
 13 15  1  0
 12 16  1  0
 16 17  2  0
  4 18  1  0
 18 19  1  0
 19 20  2  0
 20 21  1  0
 21 22  2  0
 22 23  1  0
 23 24  2  0
 24  3  1  0
 17  9  1  0
 24 19  1  0
  1 25  1  0
  1 26  1  0
  1 27  1  0
  2 28  1  0
  2 29  1  0
  5 30  1  0
  6 31  1  0
  7 32  1  0
  8 33  1  0
 10 34  1  0
 11 35  1  0
 14 36  1  0
 14 37  1  0
 14 38  1  0
 15 39  1  0
 15 40  1  0
 15 41  1  0
 16 42  1  0
 17 43  1  0
 20 44  1  0
 21 45  1  0
 22 46  1  0
 23 47  1  0
M  CHG  1   3   1
M  END
$$$$
