
     RDKit          3D

 59 64  0  0  0  0  0  0  0  0999 V2000
   -5.2734   -1.2391    2.8301 C   0  0  0  0  0  0  0  0  0  0  0  0
   -5.3320   -0.4299    1.5836 C   0  0  0  0  0  0  0  0  0  0  0  0
   -6.2302   -0.5924    0.6273 N   0  0  0  0  0  0  0  0  0  0  0  0
   -5.9360    0.3434   -0.3306 C   0  0  0  0  0  0  0  0  0  0  0  0
   -6.5856    0.6073   -1.5492 C   0  0  0  0  0  0  0  0  0  0  0  0
   -6.0954    1.6323   -2.3680 C   0  0  0  0  0  0  0  0  0  0  0  0
   -4.9786    2.3783   -1.9830 C   0  0  0  0  0  0  0  0  0  0  0  0
   -4.3218    2.1294   -0.7705 C   0  0  0  0  0  0  0  0  0  0  0  0
   -4.8260    1.1013    0.0386 C   0  0  0  0  0  0  0  0  0  0  0  0
   -4.4529    0.5881    1.2650 N   0  0  0  0  0  0  0  0  0  0  0  0
   -3.3834    1.1015    2.1091 C   0  0  0  0  0  0  0  0  0  0  0  0
   -2.1455    0.2096    2.1804 C   0  0  0  0  0  0  0  0  0  0  0  0
   -1.3680    0.1462    0.9161 C   0  0  0  0  0  0  0  0  0  0  0  0
   -1.2599    1.2132    0.0588 N   0  0  0  0  0  0  0  0  0  0  0  0
   -0.5058    0.7349   -0.9079 C   0  0  0  0  0  0  0  0  0  0  0  0
   -0.0462    1.3109   -2.1536 C   0  0  0  0  0  0  0  0  0  0  0  0
   -0.3917    2.6022   -2.5617 C   0  0  0  0  0  0  0  0  0  0  0  0
    0.0808    3.0886   -3.7824 C   0  0  0  0  0  0  0  0  0  0  0  0
    0.8907    2.2862   -4.5885 C   0  0  0  0  0  0  0  0  0  0  0  0
    1.2360    0.9938   -4.1770 C   0  0  0  0  0  0  0  0  0  0  0  0
    0.7747    0.4913   -2.9590 C   0  0  0  0  0  0  0  0  0  0  0  0
    1.1573   -0.8212   -2.5702 N   0  0  0  0  0  0  0  0  0  0  0  0
    0.7251   -1.2959   -1.4302 C   0  0  0  0  0  0  0  0  0  0  0  0
    1.2531   -2.9043   -0.9462 S   0  0  0  0  0  0  0  0  0  0  0  0
    3.0465   -2.6248   -1.0136 C   0  0  0  0  0  0  0  0  0  0  0  0
    3.4983   -1.5366   -0.0446 C   0  0  0  0  0  0  0  0  0  0  0  0
    2.8557   -0.5143    0.1869 O   0  0  0  0  0  0  0  0  0  0  0  0
    4.7233   -1.7780    0.5428 N   0  0  0  0  0  0  0  0  0  0  0  0
    5.3374   -0.7680    1.3738 C   0  0  0  0  0  0  0  0  0  0  0  0
    6.5754   -1.3184    1.9745 C   0  0  0  0  0  0  0  0  0  0  0  0
    7.0331   -1.4076    3.2750 C   0  0  0  0  0  0  0  0  0  0  0  0
    8.3021   -2.0447    3.1989 C   0  0  0  0  0  0  0  0  0  0  0  0
    8.5356   -2.3028    1.8641 C   0  0  0  0  0  0  0  0  0  0  0  0
    7.4925   -1.8699    1.1099 O   0  0  0  0  0  0  0  0  0  0  0  0
   -0.1234   -0.5442   -0.6066 N   0  0  0  0  0  0  0  0  0  0  0  0
   -0.6817   -0.9486    0.5605 N   0  0  0  0  0  0  0  0  0  0  0  0
   -4.5654   -2.0681    2.7110 H   0  0  0  0  0  0  0  0  0  0  0  0
   -6.2606   -1.6682    3.0451 H   0  0  0  0  0  0  0  0  0  0  0  0
   -4.9771   -0.6412    3.6996 H   0  0  0  0  0  0  0  0  0  0  0  0
   -7.4528    0.0238   -1.8397 H   0  0  0  0  0  0  0  0  0  0  0  0
   -6.5897    1.8467   -3.3135 H   0  0  0  0  0  0  0  0  0  0  0  0
   -4.6114    3.1660   -2.6381 H   0  0  0  0  0  0  0  0  0  0  0  0
   -3.4487    2.7064   -0.4845 H   0  0  0  0  0  0  0  0  0  0  0  0
   -3.1252    2.1106    1.7677 H   0  0  0  0  0  0  0  0  0  0  0  0
   -3.8069    1.2260    3.1121 H   0  0  0  0  0  0  0  0  0  0  0  0
   -1.4797    0.6027    2.9602 H   0  0  0  0  0  0  0  0  0  0  0  0
   -2.4266   -0.8039    2.4916 H   0  0  0  0  0  0  0  0  0  0  0  0
   -1.0239    3.2263   -1.9352 H   0  0  0  0  0  0  0  0  0  0  0  0
   -0.1814    4.0959   -4.1067 H   0  0  0  0  0  0  0  0  0  0  0  0
    1.2562    2.6667   -5.5405 H   0  0  0  0  0  0  0  0  0  0  0  0
    1.8686    0.3759   -4.8072 H   0  0  0  0  0  0  0  0  0  0  0  0
    3.3599   -2.3477   -2.0253 H   0  0  0  0  0  0  0  0  0  0  0  0
    3.5345   -3.5718   -0.7572 H   0  0  0  0  0  0  0  0  0  0  0  0
    5.3395   -2.4816    0.1538 H   0  0  0  0  0  0  0  0  0  0  0  0
    4.6240   -0.4671    2.1489 H   0  0  0  0  0  0  0  0  0  0  0  0
    5.5587    0.1069    0.7524 H   0  0  0  0  0  0  0  0  0  0  0  0
    6.5148   -1.0602    4.1641 H   0  0  0  0  0  0  0  0  0  0  0  0
    8.9639   -2.2936    4.0126 H   0  0  0  0  0  0  0  0  0  0  0  0
    9.3490   -2.7678    1.3136 H   0  0  0  0  0  0  0  0  0  0  0  0
  1  2  1  0
  2  3  2  0
  3  4  1  0
  4  5  2  0
  5  6  1  0
  6  7  2  0
  7  8  1  0
  8  9  2  0
  9 10  1  0
 10 11  1  0
 11 12  1  0
 12 13  1  0
 13 14  1  0
 14 15  2  0
 15 16  1  0
 16 17  2  0
 17 18  1  0
 18 19  2  0
 19 20  1  0
 20 21  2  0
 21 22  1  0
 22 23  2  0
 23 24  1  0
 24 25  1  0
 25 26  1  0
 26 27  2  0
 26 28  1  0
 28 29  1  0
 29 30  1  0
 30 31  2  0
 31 32  1  0
 32 33  2  0
 33 34  1  0
 23 35  1  0
 35 36  1  0
 10  2  1  0
 36 13  2  0
  9  4  1  0
 35 15  1  0
 21 16  1  0
 34 30  1  0
  1 37  1  0
  1 38  1  0
  1 39  1  0
  5 40  1  0
  6 41  1  0
  7 42  1  0
  8 43  1  0
 11 44  1  0
 11 45  1  0
 12 46  1  0
 12 47  1  0
 17 48  1  0
 18 49  1  0
 19 50  1  0
 20 51  1  0
 25 52  1  0
 25 53  1  0
 28 54  1  0
 29 55  1  0
 29 56  1  0
 31 57  1  0
 32 58  1  0
 33 59  1  0
M  END
$$$$
