
     RDKit          3D

 49 53  0  0  0  0  0  0  0  0999 V2000
    6.6956   -0.5694    1.6999 C   0  0  0  0  0  0  0  0  0  0  0  0
    5.3170   -0.0544    1.9683 C   0  0  0  0  0  0  0  0  0  0  0  0
    5.0870    1.0988    3.2032 S   0  0  0  0  0  0  0  0  0  0  0  0
    3.4161    1.1750    2.9193 C   0  0  0  0  0  0  0  0  0  0  0  0
    2.6565    1.9955    3.6643 N   0  0  0  0  0  0  0  0  0  0  0  0
    1.3705    1.9539    3.3282 C   0  0  0  0  0  0  0  0  0  0  0  0
    0.8082    1.2029    2.3759 N   0  0  0  0  0  0  0  0  0  0  0  0
    1.6047    0.3885    1.6499 C   0  0  0  0  0  0  0  0  0  0  0  0
    0.8552   -0.5753    0.3688 S   0  0  0  0  0  0  0  0  0  0  0  0
   -0.8413   -0.8139    1.0492 C   0  0  0  0  0  0  0  0  0  0  0  0
   -0.8051   -1.8167    2.1997 C   0  0  0  0  0  0  0  0  0  0  0  0
   -1.7240   -1.3428   -0.0994 C   0  0  0  0  0  0  0  0  0  0  0  0
   -1.9000   -2.5479   -0.2910 O   0  0  0  0  0  0  0  0  0  0  0  0
   -2.2403   -0.3307   -0.9265 N   0  0  0  0  0  0  0  0  0  0  0  0
   -3.2522    0.5563   -0.4066 C   0  0  0  0  0  0  0  0  0  0  0  0
   -3.9068    0.2261    0.8032 C   0  0  0  0  0  0  0  0  0  0  0  0
   -4.8913    1.0456    1.3630 C   0  0  0  0  0  0  0  0  0  0  0  0
   -5.2584    2.2171    0.7214 C   0  0  0  0  0  0  0  0  0  0  0  0
   -4.6487    2.5533   -0.4835 C   0  0  0  0  0  0  0  0  0  0  0  0
   -3.6609    1.7291   -1.0557 C   0  0  0  0  0  0  0  0  0  0  0  0
   -2.9793    2.2828   -2.5887 S   0  0  0  0  0  0  0  0  0  0  0  0
   -2.2068    0.7952   -3.1616 C   0  0  0  0  0  0  0  0  0  0  0  0
   -1.8380    0.7857   -4.5214 C   0  0  0  0  0  0  0  0  0  0  0  0
   -1.1444   -0.2870   -5.0708 C   0  0  0  0  0  0  0  0  0  0  0  0
   -0.7998   -1.3545   -4.2592 C   0  0  0  0  0  0  0  0  0  0  0  0
   -1.1620   -1.3498   -2.9076 C   0  0  0  0  0  0  0  0  0  0  0  0
   -1.8927   -0.2899   -2.3266 C   0  0  0  0  0  0  0  0  0  0  0  0
    2.9920    0.3386    1.8946 C   0  0  0  0  0  0  0  0  0  0  0  0
    4.1272   -0.3912    1.3324 C   0  0  0  0  0  0  0  0  0  0  0  0
    4.0440   -1.3845    0.2123 C   0  0  0  0  0  0  0  0  0  0  0  0
    7.4485   -0.1145    2.3522 H   0  0  0  0  0  0  0  0  0  0  0  0
    6.7305   -1.6529    1.8563 H   0  0  0  0  0  0  0  0  0  0  0  0
    6.9825   -0.3592    0.6640 H   0  0  0  0  0  0  0  0  0  0  0  0
    0.7036    2.6007    3.8898 H   0  0  0  0  0  0  0  0  0  0  0  0
   -1.2342    0.1422    1.4027 H   0  0  0  0  0  0  0  0  0  0  0  0
   -0.3789   -2.7795    1.8948 H   0  0  0  0  0  0  0  0  0  0  0  0
   -1.8203   -2.0159    2.5608 H   0  0  0  0  0  0  0  0  0  0  0  0
   -0.2261   -1.4401    3.0493 H   0  0  0  0  0  0  0  0  0  0  0  0
   -3.6931   -0.7026    1.3278 H   0  0  0  0  0  0  0  0  0  0  0  0
   -5.3755    0.7576    2.2932 H   0  0  0  0  0  0  0  0  0  0  0  0
   -6.0235    2.8616    1.1461 H   0  0  0  0  0  0  0  0  0  0  0  0
   -4.9547    3.4709   -0.9838 H   0  0  0  0  0  0  0  0  0  0  0  0
   -2.0816    1.6312   -5.1626 H   0  0  0  0  0  0  0  0  0  0  0  0
   -0.8662   -0.2809   -6.1211 H   0  0  0  0  0  0  0  0  0  0  0  0
   -0.2493   -2.1983   -4.6681 H   0  0  0  0  0  0  0  0  0  0  0  0
   -0.8622   -2.2205   -2.3300 H   0  0  0  0  0  0  0  0  0  0  0  0
    3.3896   -2.2176    0.4864 H   0  0  0  0  0  0  0  0  0  0  0  0
    5.0215   -1.8123   -0.0307 H   0  0  0  0  0  0  0  0  0  0  0  0
    3.6678   -0.9063   -0.6973 H   0  0  0  0  0  0  0  0  0  0  0  0
  1  2  1  0
  2  3  1  0
  3  4  1  0
  4  5  2  0
  5  6  1  0
  6  7  2  0
  7  8  1  0
  8  9  1  0
  9 10  1  0
 10 11  1  0
 10 12  1  0
 12 13  2  0
 12 14  1  0
 14 15  1  0
 15 16  2  0
 16 17  1  0
 17 18  2  0
 18 19  1  0
 19 20  2  0
 20 21  1  0
 21 22  1  0
 22 23  2  0
 23 24  1  0
 24 25  2  0
 25 26  1  0
 26 27  2  0
  8 28  2  0
 28 29  1  0
 29 30  1  0
 29  2  2  0
 28  4  1  0
 27 14  1  0
 20 15  1  0
 27 22  1  0
  1 31  1  0
  1 32  1  0
  1 33  1  0
  6 34  1  0
 10 35  1  0
 11 36  1  0
 11 37  1  0
 11 38  1  0
 16 39  1  0
 17 40  1  0
 18 41  1  0
 19 42  1  0
 23 43  1  0
 24 44  1  0
 25 45  1  0
 26 46  1  0
 30 47  1  0
 30 48  1  0
 30 49  1  0
M  END
$$$$
