
     RDKit          3D

 35 37  0  0  0  0  0  0  0  0999 V2000
    7.2828    0.0942   -1.9715 C   0  0  0  0  0  0  0  0  0  0  0  0
    5.8933   -0.0810   -1.6913 O   0  0  0  0  0  0  0  0  0  0  0  0
    5.4100    0.7693   -0.7515 C   0  0  0  0  0  0  0  0  0  0  0  0
    6.0540    1.6216   -0.1602 O   0  0  0  0  0  0  0  0  0  0  0  0
    3.9590    0.5293   -0.5205 C   0  0  0  0  0  0  0  0  0  0  0  0
    3.2423   -0.4655   -1.1980 C   0  0  0  0  0  0  0  0  0  0  0  0
    1.8790   -0.6501   -0.9426 C   0  0  0  0  0  0  0  0  0  0  0  0
    1.2159    0.1622   -0.0153 C   0  0  0  0  0  0  0  0  0  0  0  0
   -0.2114   -0.0187    0.2790 C   0  0  0  0  0  0  0  0  0  0  0  0
   -1.2326    0.1718   -0.5859 C   0  0  0  0  0  0  0  0  0  0  0  0
   -0.9899    0.5935   -1.9310 C   0  0  0  0  0  0  0  0  0  0  0  0
   -0.7959    0.9247   -3.0269 N   0  0  0  0  0  0  0  0  0  0  0  0
   -2.5720   -0.0489   -0.1018 C   0  0  0  0  0  0  0  0  0  0  0  0
   -2.8961   -0.4214    1.1261 N   0  0  0  0  0  0  0  0  0  0  0  0
   -4.2661   -0.5484    1.2756 C   0  0  0  0  0  0  0  0  0  0  0  0
   -4.9375   -0.9278    2.4555 C   0  0  0  0  0  0  0  0  0  0  0  0
   -6.3334   -1.0158    2.4632 C   0  0  0  0  0  0  0  0  0  0  0  0
   -7.0628   -0.7310    1.3134 C   0  0  0  0  0  0  0  0  0  0  0  0
   -6.4183   -0.3528    0.1314 C   0  0  0  0  0  0  0  0  0  0  0  0
   -5.0160   -0.2683    0.1369 C   0  0  0  0  0  0  0  0  0  0  0  0
   -3.9518    0.1622   -1.1382 S   0  0  0  0  0  0  0  0  0  0  0  0
    1.9337    1.1482    0.6696 C   0  0  0  0  0  0  0  0  0  0  0  0
    3.2963    1.3331    0.4164 C   0  0  0  0  0  0  0  0  0  0  0  0
    7.5677   -0.6316   -2.7382 H   0  0  0  0  0  0  0  0  0  0  0  0
    7.4722    1.1000   -2.3594 H   0  0  0  0  0  0  0  0  0  0  0  0
    7.8816   -0.0957   -1.0752 H   0  0  0  0  0  0  0  0  0  0  0  0
    3.7300   -1.1066   -1.9286 H   0  0  0  0  0  0  0  0  0  0  0  0
    1.3473   -1.4356   -1.4761 H   0  0  0  0  0  0  0  0  0  0  0  0
   -0.4102   -0.3142    1.3096 H   0  0  0  0  0  0  0  0  0  0  0  0
   -4.3649   -1.1492    3.3508 H   0  0  0  0  0  0  0  0  0  0  0  0
   -6.8488   -1.3087    3.3751 H   0  0  0  0  0  0  0  0  0  0  0  0
   -8.1486   -0.8029    1.3320 H   0  0  0  0  0  0  0  0  0  0  0  0
   -6.9889   -0.1307   -0.7655 H   0  0  0  0  0  0  0  0  0  0  0  0
    1.4415    1.7856    1.4018 H   0  0  0  0  0  0  0  0  0  0  0  0
    3.8390    2.1091    0.9539 H   0  0  0  0  0  0  0  0  0  0  0  0
  1  2  1  0
  2  3  1  0
  3  4  2  0
  3  5  1  0
  5  6  2  0
  6  7  1  0
  7  8  2  0
  8  9  1  0
  9 10  2  3
 10 11  1  0
 11 12  3  0
 10 13  1  0
 13 14  2  0
 14 15  1  0
 15 16  2  0
 16 17  1  0
 17 18  2  0
 18 19  1  0
 19 20  2  0
 20 21  1  0
  8 22  1  0
 22 23  2  0
 23  5  1  0
 21 13  1  0
 20 15  1  0
  1 24  1  0
  1 25  1  0
  1 26  1  0
  6 27  1  0
  7 28  1  0
  9 29  1  0
 16 30  1  0
 17 31  1  0
 18 32  1  0
 19 33  1  0
 22 34  1  0
 23 35  1  0
M  END
$$$$
