
     RDKit          3D

 61 66  0  0  0  0  0  0  0  0999 V2000
    7.1947   -1.1194    5.3094 F   0  0  0  0  0  0  0  0  0  0  0  0
    6.8071   -0.6926    4.1003 C   0  0  0  0  0  0  0  0  0  0  0  0
    7.5496   -1.0461    2.9801 C   0  0  0  0  0  0  0  0  0  0  0  0
    7.1466   -0.6037    1.7191 C   0  0  0  0  0  0  0  0  0  0  0  0
    6.0019    0.1971    1.5808 C   0  0  0  0  0  0  0  0  0  0  0  0
    5.5588    0.6717    0.2149 C   0  0  0  0  0  0  0  0  0  0  0  0
    4.4431   -0.1926   -0.4064 C   0  0  0  0  0  0  0  0  0  0  0  0
    3.1243   -0.0113    0.2227 N   0  0  0  0  0  0  0  0  0  0  0  0
    2.2453   -1.1671   -0.0708 C   0  0  0  0  0  0  0  0  0  0  0  0
    0.7477   -0.8557    0.1274 C   0  0  0  0  0  0  0  0  0  0  0  0
    0.2930    0.1922   -0.8276 N   0  0  0  0  0  0  0  0  0  0  0  0
   -0.9627    0.6857   -0.5824 C   0  0  0  0  0  0  0  0  0  0  0  0
   -1.3285    1.8381    0.0874 C   0  0  0  0  0  0  0  0  0  0  0  0
   -2.7325    1.8424    0.2211 C   0  0  0  0  0  0  0  0  0  0  0  0
   -3.2097    0.6892   -0.3700 C   0  0  0  0  0  0  0  0  0  0  0  0
   -4.5465    0.1502   -0.5007 C   0  0  0  0  0  0  0  0  0  0  0  0
   -5.6885    0.7642    0.2250 C   0  0  0  0  0  0  0  0  0  0  0  0
   -6.8788    1.0068   -0.4711 C   0  0  0  0  0  0  0  0  0  0  0  0
   -7.9704    1.5703    0.1909 C   0  0  0  0  0  0  0  0  0  0  0  0
   -7.8787    1.8788    1.5492 C   0  0  0  0  0  0  0  0  0  0  0  0
   -6.7002    1.6171    2.2509 C   0  0  0  0  0  0  0  0  0  0  0  0
   -5.6052    1.0544    1.5923 C   0  0  0  0  0  0  0  0  0  0  0  0
   -4.7781   -0.8803   -1.2590 N   0  0  0  0  0  0  0  0  0  0  0  0
   -3.7065   -1.4852   -1.9448 C   0  0  0  0  0  0  0  0  0  0  0  0
   -4.0029   -2.5625   -2.7855 C   0  0  0  0  0  0  0  0  0  0  0  0
   -2.9967   -3.2007   -3.5119 C   0  0  0  0  0  0  0  0  0  0  0  0
   -1.6802   -2.7569   -3.4097 C   0  0  0  0  0  0  0  0  0  0  0  0
   -1.3641   -1.6824   -2.5751 C   0  0  0  0  0  0  0  0  0  0  0  0
   -2.3709   -1.0605   -1.8297 C   0  0  0  0  0  0  0  0  0  0  0  0
   -2.1393    0.0421   -0.9686 N   0  0  0  0  0  0  0  0  0  0  0  0
    1.3573    1.1463   -1.2188 C   0  0  0  0  0  0  0  0  0  0  0  0
    2.4663    1.2631   -0.1484 C   0  0  0  0  0  0  0  0  0  0  0  0
    5.2651    0.5392    2.7254 C   0  0  0  0  0  0  0  0  0  0  0  0
    5.6684    0.0946    3.9848 C   0  0  0  0  0  0  0  0  0  0  0  0
    8.4343   -1.6643    3.0957 H   0  0  0  0  0  0  0  0  0  0  0  0
    7.7301   -0.8875    0.8464 H   0  0  0  0  0  0  0  0  0  0  0  0
    5.2684    1.7271    0.2759 H   0  0  0  0  0  0  0  0  0  0  0  0
    6.4238    0.6521   -0.4617 H   0  0  0  0  0  0  0  0  0  0  0  0
    4.7507   -1.2439   -0.3212 H   0  0  0  0  0  0  0  0  0  0  0  0
    4.3739    0.0250   -1.4803 H   0  0  0  0  0  0  0  0  0  0  0  0
    2.3890   -1.5061   -1.1057 H   0  0  0  0  0  0  0  0  0  0  0  0
    2.5281   -1.9964    0.5873 H   0  0  0  0  0  0  0  0  0  0  0  0
    0.1696   -1.7732   -0.0287 H   0  0  0  0  0  0  0  0  0  0  0  0
    0.5760   -0.5290    1.1618 H   0  0  0  0  0  0  0  0  0  0  0  0
   -0.6467    2.5732    0.4904 H   0  0  0  0  0  0  0  0  0  0  0  0
   -3.3237    2.5995    0.7195 H   0  0  0  0  0  0  0  0  0  0  0  0
   -6.9556    0.7579   -1.5274 H   0  0  0  0  0  0  0  0  0  0  0  0
   -8.8931    1.7632   -0.3518 H   0  0  0  0  0  0  0  0  0  0  0  0
   -8.7318    2.3141    2.0639 H   0  0  0  0  0  0  0  0  0  0  0  0
   -6.6374    1.8435    3.3129 H   0  0  0  0  0  0  0  0  0  0  0  0
   -4.7026    0.8288    2.1547 H   0  0  0  0  0  0  0  0  0  0  0  0
   -5.0323   -2.9000   -2.8750 H   0  0  0  0  0  0  0  0  0  0  0  0
   -3.2445   -4.0349   -4.1631 H   0  0  0  0  0  0  0  0  0  0  0  0
   -0.8973   -3.2416   -3.9876 H   0  0  0  0  0  0  0  0  0  0  0  0
   -0.3351   -1.3426   -2.5446 H   0  0  0  0  0  0  0  0  0  0  0  0
    0.9514    2.1415   -1.4376 H   0  0  0  0  0  0  0  0  0  0  0  0
    1.8000    0.7869   -2.1568 H   0  0  0  0  0  0  0  0  0  0  0  0
    2.0157    1.6674    0.7679 H   0  0  0  0  0  0  0  0  0  0  0  0
    3.1947    2.0138   -0.4749 H   0  0  0  0  0  0  0  0  0  0  0  0
    4.3662    1.1454    2.6365 H   0  0  0  0  0  0  0  0  0  0  0  0
    5.0997    0.3535    4.8718 H   0  0  0  0  0  0  0  0  0  0  0  0
  1  2  1  0
  2  3  2  0
  3  4  1  0
  4  5  2  0
  5  6  1  0
  6  7  1  0
  7  8  1  0
  8  9  1  0
  9 10  1  0
 10 11  1  0
 11 12  1  0
 12 13  2  0
 13 14  1  0
 14 15  2  0
 15 16  1  0
 16 17  1  0
 17 18  2  0
 18 19  1  0
 19 20  2  0
 20 21  1  0
 21 22  2  0
 16 23  2  0
 23 24  1  0
 24 25  2  0
 25 26  1  0
 26 27  2  0
 27 28  1  0
 28 29  2  0
 29 30  1  0
 11 31  1  0
 31 32  1  0
  5 33  1  0
 33 34  2  0
 34  2  1  0
 32  8  1  0
 30 12  1  0
 30 15  1  0
 22 17  1  0
 29 24  1  0
  3 35  1  0
  4 36  1  0
  6 37  1  0
  6 38  1  0
  7 39  1  0
  7 40  1  0
  9 41  1  0
  9 42  1  0
 10 43  1  0
 10 44  1  0
 13 45  1  0
 14 46  1  0
 18 47  1  0
 19 48  1  0
 20 49  1  0
 21 50  1  0
 22 51  1  0
 25 52  1  0
 26 53  1  0
 27 54  1  0
 28 55  1  0
 31 56  1  0
 31 57  1  0
 32 58  1  0
 32 59  1  0
 33 60  1  0
 34 61  1  0
M  END
$$$$
