
     RDKit          3D

 30 32  0  0  0  0  0  0  0  0999 V2000
   -0.2915    2.0804   -0.1776 C   0  0  0  0  0  0  0  0  0  0  0  0
   -0.6752    0.7151    0.1159 N   0  0  0  0  0  0  0  0  0  0  0  0
    0.1922   -0.3430    0.3157 C   0  0  0  0  0  0  0  0  0  0  0  0
    1.6546   -0.2716    0.2182 C   0  0  0  0  0  0  0  0  0  0  0  0
    2.4243   -0.6039    1.3426 C   0  0  0  0  0  0  0  0  0  0  0  0
    3.8198   -0.5678    1.2898 C   0  0  0  0  0  0  0  0  0  0  0  0
    4.4636   -0.2042    0.1088 C   0  0  0  0  0  0  0  0  0  0  0  0
    3.7149    0.1217   -1.0221 C   0  0  0  0  0  0  0  0  0  0  0  0
    2.3195    0.0848   -0.9657 C   0  0  0  0  0  0  0  0  0  0  0  0
    1.5966    0.3998   -2.0856 O   0  0  0  0  0  0  0  0  0  0  0  0
   -0.5904   -1.4379    0.6426 C   0  0  0  0  0  0  0  0  0  0  0  0
   -1.9544   -1.0518    0.6038 C   0  0  0  0  0  0  0  0  0  0  0  0
   -3.1664   -1.7353    0.8251 C   0  0  0  0  0  0  0  0  0  0  0  0
   -4.3778   -1.0486    0.6962 C   0  0  0  0  0  0  0  0  0  0  0  0
   -4.3923    0.2992    0.3508 C   0  0  0  0  0  0  0  0  0  0  0  0
   -3.2015    0.9977    0.1276 C   0  0  0  0  0  0  0  0  0  0  0  0
   -1.9887    0.3004    0.2627 C   0  0  0  0  0  0  0  0  0  0  0  0
   -0.3594    2.2294   -1.2578 H   0  0  0  0  0  0  0  0  0  0  0  0
   -0.9683    2.7628    0.3431 H   0  0  0  0  0  0  0  0  0  0  0  0
    0.7232    2.2721    0.1770 H   0  0  0  0  0  0  0  0  0  0  0  0
    1.9352   -0.8893    2.2716 H   0  0  0  0  0  0  0  0  0  0  0  0
    4.4014   -0.8250    2.1715 H   0  0  0  0  0  0  0  0  0  0  0  0
    5.5496   -0.1766    0.0695 H   0  0  0  0  0  0  0  0  0  0  0  0
    4.2323    0.4040   -1.9337 H   0  0  0  0  0  0  0  0  0  0  0  0
    2.1949    0.4116   -2.8495 H   0  0  0  0  0  0  0  0  0  0  0  0
   -0.2135   -2.4271    0.8665 H   0  0  0  0  0  0  0  0  0  0  0  0
   -3.1609   -2.7881    1.0906 H   0  0  0  0  0  0  0  0  0  0  0  0
   -5.3137   -1.5747    0.8648 H   0  0  0  0  0  0  0  0  0  0  0  0
   -5.3426    0.8183    0.2513 H   0  0  0  0  0  0  0  0  0  0  0  0
   -3.2256    2.0475   -0.1448 H   0  0  0  0  0  0  0  0  0  0  0  0
  1  2  1  0
  2  3  1  0
  3  4  1  0
  4  5  2  0
  5  6  1  0
  6  7  2  0
  7  8  1  0
  8  9  2  0
  9 10  1  0
  3 11  2  0
 11 12  1  0
 12 13  2  0
 13 14  1  0
 14 15  2  0
 15 16  1  0
 16 17  2  0
 17  2  1  0
  9  4  1  0
 17 12  1  0
  1 18  1  0
  1 19  1  0
  1 20  1  0
  5 21  1  0
  6 22  1  0
  7 23  1  0
  8 24  1  0
 10 25  1  0
 11 26  1  0
 13 27  1  0
 14 28  1  0
 15 29  1  0
 16 30  1  0
M  END
$$$$
