
     RDKit          3D

 38 41  0  0  0  0  0  0  0  0999 V2000
   -4.8075    3.0200    0.7777 O   0  0  0  0  0  0  0  0  0  0  0  0
   -4.0197    2.4718    1.5407 C   0  0  0  0  0  0  0  0  0  0  0  0
   -3.3149    1.2349    1.2439 C   0  0  0  0  0  0  0  0  0  0  0  0
   -2.3888    0.6377    2.0764 C   0  0  0  0  0  0  0  0  0  0  0  0
   -1.9347   -0.5092    1.4629 N   0  0  0  0  0  0  0  0  0  0  0  0
   -0.9500   -1.4194    2.0285 C   0  0  0  0  0  0  0  0  0  0  0  0
    0.3511   -1.4394    1.2457 C   0  0  0  0  0  0  0  0  0  0  0  0
    0.7971   -2.5027    0.8162 O   0  0  0  0  0  0  0  0  0  0  0  0
    0.9664   -0.1993    1.1549 N   0  0  0  0  0  0  0  0  0  0  0  0
    2.1505    0.1178    0.4580 C   0  0  0  0  0  0  0  0  0  0  0  0
    2.6422    1.4363    0.6113 C   0  0  0  0  0  0  0  0  0  0  0  0
    3.8104    1.8504   -0.0331 C   0  0  0  0  0  0  0  0  0  0  0  0
    4.4565    0.9338   -0.8322 C   0  0  0  0  0  0  0  0  0  0  0  0
    3.9796   -0.3448   -0.9965 C   0  0  0  0  0  0  0  0  0  0  0  0
    2.8341   -0.7844   -0.3652 C   0  0  0  0  0  0  0  0  0  0  0  0
    4.7587   -1.0845   -1.8326 O   0  0  0  0  0  0  0  0  0  0  0  0
    5.7905   -0.1313   -2.1573 C   0  0  0  0  0  0  0  0  0  0  0  0
    5.5987    1.1580   -1.5337 O   0  0  0  0  0  0  0  0  0  0  0  0
   -2.5724   -0.6913    0.2573 C   0  0  0  0  0  0  0  0  0  0  0  0
   -2.4633   -1.7201   -0.6942 C   0  0  0  0  0  0  0  0  0  0  0  0
   -3.2555   -1.6421   -1.8407 C   0  0  0  0  0  0  0  0  0  0  0  0
   -4.1154   -0.5698   -2.0428 C   0  0  0  0  0  0  0  0  0  0  0  0
   -4.2097    0.4560   -1.0936 C   0  0  0  0  0  0  0  0  0  0  0  0
   -3.4339    0.3968    0.0849 C   0  0  0  0  0  0  0  0  0  0  0  0
   -3.8021    2.9114    2.5311 H   0  0  0  0  0  0  0  0  0  0  0  0
   -2.0261    0.9366    3.0511 H   0  0  0  0  0  0  0  0  0  0  0  0
   -1.3984   -2.4162    2.0290 H   0  0  0  0  0  0  0  0  0  0  0  0
   -0.7508   -1.1296    3.0615 H   0  0  0  0  0  0  0  0  0  0  0  0
    0.5129    0.5793    1.6205 H   0  0  0  0  0  0  0  0  0  0  0  0
    2.1263    2.1540    1.2478 H   0  0  0  0  0  0  0  0  0  0  0  0
    4.1989    2.8567    0.0940 H   0  0  0  0  0  0  0  0  0  0  0  0
    2.4990   -1.7994   -0.5401 H   0  0  0  0  0  0  0  0  0  0  0  0
    5.8156    0.0051   -3.2466 H   0  0  0  0  0  0  0  0  0  0  0  0
    6.7546   -0.5398   -1.8308 H   0  0  0  0  0  0  0  0  0  0  0  0
   -1.7919   -2.5638   -0.5562 H   0  0  0  0  0  0  0  0  0  0  0  0
   -3.1949   -2.4343   -2.5852 H   0  0  0  0  0  0  0  0  0  0  0  0
   -4.7232   -0.5255   -2.9405 H   0  0  0  0  0  0  0  0  0  0  0  0
   -4.8902    1.2904   -1.2564 H   0  0  0  0  0  0  0  0  0  0  0  0
  1  2  2  0
  2  3  1  0
  3  4  2  0
  4  5  1  0
  5  6  1  0
  6  7  1  0
  7  8  2  0
  7  9  1  0
  9 10  1  0
 10 11  2  0
 11 12  1  0
 12 13  2  0
 13 14  1  0
 14 15  2  0
 14 16  1  0
 16 17  1  0
 17 18  1  0
  5 19  1  0
 19 20  2  0
 20 21  1  0
 21 22  2  0
 22 23  1  0
 23 24  2  0
 24  3  1  0
 15 10  1  0
 24 19  1  0
 18 13  1  0
  2 25  1  0
  4 26  1  0
  6 27  1  0
  6 28  1  0
  9 29  1  0
 11 30  1  0
 12 31  1  0
 15 32  1  0
 17 33  1  0
 17 34  1  0
 20 35  1  0
 21 36  1  0
 22 37  1  0
 23 38  1  0
M  END
$$$$
