
     RDKit          3D

 64 67  0  0  0  0  0  0  0  0999 V2000
    8.5440   -2.4811   -1.8678 C   0  0  0  0  0  0  0  0  0  0  0  0
    7.6212   -1.4577   -2.2088 O   0  0  0  0  0  0  0  0  0  0  0  0
    6.6419   -1.1612   -1.3021 C   0  0  0  0  0  0  0  0  0  0  0  0
    5.6948   -0.2401   -1.7563 C   0  0  0  0  0  0  0  0  0  0  0  0
    4.6342    0.1616   -0.9391 C   0  0  0  0  0  0  0  0  0  0  0  0
    4.5147   -0.3554    0.3506 C   0  0  0  0  0  0  0  0  0  0  0  0
    3.4839    0.0039    1.2477 N   0  0  0  0  0  0  0  0  0  0  0  0
    2.4963    0.9634    1.0866 C   0  0  0  0  0  0  0  0  0  0  0  0
    2.3602    1.6960    0.1097 O   0  0  0  0  0  0  0  0  0  0  0  0
    1.6258    1.0940    2.3330 C   0  0  0  0  0  0  0  0  0  0  0  0
   -0.0835    1.5652    1.9543 S   0  0  0  0  0  0  0  0  0  0  0  0
   -0.6799    0.0917    1.2754 C   0  0  0  0  0  0  0  0  0  0  0  0
    0.0400   -0.9597    0.9555 N   0  0  0  0  0  0  0  0  0  0  0  0
   -0.8151   -1.9225    0.4886 N   0  0  0  0  0  0  0  0  0  0  0  0
   -2.0477   -1.4453    0.5372 C   0  0  0  0  0  0  0  0  0  0  0  0
   -3.2714   -2.2109    0.1606 C   0  0  0  0  0  0  0  0  0  0  0  0
   -4.0382   -1.6593   -1.0052 C   0  0  0  0  0  0  0  0  0  0  0  0
   -5.3863   -1.3510   -1.0768 C   0  0  0  0  0  0  0  0  0  0  0  0
   -5.6608   -0.8972   -2.3866 C   0  0  0  0  0  0  0  0  0  0  0  0
   -4.4788   -0.9409   -3.0875 C   0  0  0  0  0  0  0  0  0  0  0  0
   -3.5032   -1.4315   -2.2570 N   0  0  0  0  0  0  0  0  0  0  0  0
   -2.1355   -1.6632   -2.6714 C   0  0  0  0  0  0  0  0  0  0  0  0
   -2.0027   -0.1478    1.0032 N   0  0  0  0  0  0  0  0  0  0  0  0
   -3.1110    0.7736    1.1679 C   0  0  0  0  0  0  0  0  0  0  0  0
   -3.2149    1.7765    0.0174 C   0  0  0  0  0  0  0  0  0  0  0  0
   -4.2576    2.8300    0.3012 C   0  0  0  0  0  0  0  0  0  0  0  0
   -5.5747    2.6729   -0.1506 C   0  0  0  0  0  0  0  0  0  0  0  0
   -6.5383    3.6453    0.1293 C   0  0  0  0  0  0  0  0  0  0  0  0
   -6.1960    4.7804    0.8626 C   0  0  0  0  0  0  0  0  0  0  0  0
   -4.8892    4.9441    1.3184 C   0  0  0  0  0  0  0  0  0  0  0  0
   -3.9242    3.9717    1.0435 C   0  0  0  0  0  0  0  0  0  0  0  0
    5.4731   -1.2828    0.8182 C   0  0  0  0  0  0  0  0  0  0  0  0
    5.2784   -1.7260    2.1102 O   0  0  0  0  0  0  0  0  0  0  0  0
    6.3501   -2.4393    2.7177 C   0  0  0  0  0  0  0  0  0  0  0  0
    6.5308   -1.6825   -0.0115 C   0  0  0  0  0  0  0  0  0  0  0  0
    9.1595   -2.6765   -2.7501 H   0  0  0  0  0  0  0  0  0  0  0  0
    9.2046   -2.1550   -1.0589 H   0  0  0  0  0  0  0  0  0  0  0  0
    8.0348   -3.4160   -1.5972 H   0  0  0  0  0  0  0  0  0  0  0  0
    5.7798    0.1748   -2.7584 H   0  0  0  0  0  0  0  0  0  0  0  0
    3.9176    0.8738   -1.3393 H   0  0  0  0  0  0  0  0  0  0  0  0
    3.5116   -0.5234    2.1151 H   0  0  0  0  0  0  0  0  0  0  0  0
    2.0678    1.8773    2.9563 H   0  0  0  0  0  0  0  0  0  0  0  0
    1.6223    0.1679    2.9184 H   0  0  0  0  0  0  0  0  0  0  0  0
   -2.9885   -3.2460   -0.0745 H   0  0  0  0  0  0  0  0  0  0  0  0
   -3.9284   -2.2694    1.0375 H   0  0  0  0  0  0  0  0  0  0  0  0
   -6.0991   -1.4438   -0.2668 H   0  0  0  0  0  0  0  0  0  0  0  0
   -6.6163   -0.5784   -2.7803 H   0  0  0  0  0  0  0  0  0  0  0  0
   -4.2588   -0.6852   -4.1173 H   0  0  0  0  0  0  0  0  0  0  0  0
   -1.4859   -0.9451   -2.1640 H   0  0  0  0  0  0  0  0  0  0  0  0
   -2.0548   -1.5220   -3.7508 H   0  0  0  0  0  0  0  0  0  0  0  0
   -1.8601   -2.6885   -2.4190 H   0  0  0  0  0  0  0  0  0  0  0  0
   -2.9743    1.2787    2.1326 H   0  0  0  0  0  0  0  0  0  0  0  0
   -4.0343    0.1922    1.2705 H   0  0  0  0  0  0  0  0  0  0  0  0
   -2.2528    2.2685   -0.1728 H   0  0  0  0  0  0  0  0  0  0  0  0
   -3.4625    1.2640   -0.9210 H   0  0  0  0  0  0  0  0  0  0  0  0
   -5.8572    1.7974   -0.7325 H   0  0  0  0  0  0  0  0  0  0  0  0
   -7.5579    3.5202   -0.2291 H   0  0  0  0  0  0  0  0  0  0  0  0
   -6.9443    5.5421    1.0717 H   0  0  0  0  0  0  0  0  0  0  0  0
   -4.6219    5.8325    1.8866 H   0  0  0  0  0  0  0  0  0  0  0  0
   -2.9060    4.1145    1.4047 H   0  0  0  0  0  0  0  0  0  0  0  0
    6.0782   -2.6267    3.7609 H   0  0  0  0  0  0  0  0  0  0  0  0
    7.2710   -1.8453    2.7150 H   0  0  0  0  0  0  0  0  0  0  0  0
    6.5051   -3.4129    2.2390 H   0  0  0  0  0  0  0  0  0  0  0  0
    7.2706   -2.3845    0.3555 H   0  0  0  0  0  0  0  0  0  0  0  0
  1  2  1  0
  2  3  1  0
  3  4  2  0
  4  5  1  0
  5  6  2  0
  6  7  1  0
  7  8  1  0
  8  9  2  0
  8 10  1  0
 10 11  1  0
 11 12  1  0
 12 13  2  0
 13 14  1  0
 14 15  2  0
 15 16  1  0
 16 17  1  0
 17 18  2  0
 18 19  1  0
 19 20  2  0
 20 21  1  0
 21 22  1  0
 15 23  1  0
 23 24  1  0
 24 25  1  0
 25 26  1  0
 26 27  2  0
 27 28  1  0
 28 29  2  0
 29 30  1  0
 30 31  2  0
  6 32  1  0
 32 33  1  0
 33 34  1  0
 32 35  2  0
 35  3  1  0
 23 12  1  0
 31 26  1  0
 21 17  1  0
  1 36  1  0
  1 37  1  0
  1 38  1  0
  4 39  1  0
  5 40  1  0
  7 41  1  0
 10 42  1  0
 10 43  1  0
 16 44  1  0
 16 45  1  0
 18 46  1  0
 19 47  1  0
 20 48  1  0
 22 49  1  0
 22 50  1  0
 22 51  1  0
 24 52  1  0
 24 53  1  0
 25 54  1  0
 25 55  1  0
 27 56  1  0
 28 57  1  0
 29 58  1  0
 30 59  1  0
 31 60  1  0
 34 61  1  0
 34 62  1  0
 34 63  1  0
 35 64  1  0
M  END
$$$$
