
     RDKit          3D

 78 81  0  0  0  0  0  0  0  0999 V2000
    0.8664    4.0027   -1.5967 C   0  0  0  0  0  0  0  0  0  0  0  0
    0.2657    3.5469   -0.2602 C   0  0  0  0  0  0  0  0  0  0  0  0
   -0.8209    4.5381    0.1865 C   0  0  0  0  0  0  0  0  0  0  0  0
   -1.7436    4.1310    1.2556 N   0  0  0  0  0  0  0  0  0  0  0  0
   -3.1115    4.7040    1.1509 C   0  0  0  0  0  0  0  0  0  0  0  0
   -4.1349    3.9441    2.0070 C   0  0  0  0  0  0  0  0  0  0  0  0
   -3.1709    6.2231    1.4293 C   0  0  0  0  0  0  0  0  0  0  0  0
   -2.6821    6.9609    0.3040 O   0  0  0  0  0  0  0  0  0  0  0  0
   -1.2293    3.9517    2.5565 C   0  0  0  0  0  0  0  0  0  0  0  0
   -1.7320    4.4769    3.5511 O   0  0  0  0  0  0  0  0  0  0  0  0
   -0.0916    3.0165    2.7827 C   0  0  0  0  0  0  0  0  0  0  0  0
    0.7439    3.2475    3.8814 C   0  0  0  0  0  0  0  0  0  0  0  0
    1.7537    2.3382    4.2022 C   0  0  0  0  0  0  0  0  0  0  0  0
    1.9219    1.1709    3.4492 C   0  0  0  0  0  0  0  0  0  0  0  0
    1.0839    0.9109    2.3647 C   0  0  0  0  0  0  0  0  0  0  0  0
    1.1554   -0.2620    1.5829 N   0  0  0  0  0  0  0  0  0  0  0  0
    1.7725   -1.4540    1.9209 C   0  0  0  0  0  0  0  0  0  0  0  0
    2.3204   -1.6837    2.9909 O   0  0  0  0  0  0  0  0  0  0  0  0
    1.6613   -2.3567    0.8736 N   0  0  0  0  0  0  0  0  0  0  0  0
    1.9246   -3.7403    0.9347 C   0  0  0  0  0  0  0  0  0  0  0  0
    2.0206   -4.4492    2.1370 C   0  0  0  0  0  0  0  0  0  0  0  0
    2.2524   -5.8282    2.1313 C   0  0  0  0  0  0  0  0  0  0  0  0
    2.3909   -6.5265    0.9220 C   0  0  0  0  0  0  0  0  0  0  0  0
    2.6348   -8.0141    0.9101 C   0  0  0  0  0  0  0  0  0  0  0  0
    3.5438   -8.3922   -0.0333 F   0  0  0  0  0  0  0  0  0  0  0  0
    3.1014   -8.4947    2.0971 F   0  0  0  0  0  0  0  0  0  0  0  0
    1.5029   -8.7221    0.6381 F   0  0  0  0  0  0  0  0  0  0  0  0
    2.2666   -5.8183   -0.2801 C   0  0  0  0  0  0  0  0  0  0  0  0
    2.0372   -4.4362   -0.2725 C   0  0  0  0  0  0  0  0  0  0  0  0
    0.1025    1.8582    2.0184 C   0  0  0  0  0  0  0  0  0  0  0  0
   -0.7239    1.5921    0.9580 O   0  0  0  0  0  0  0  0  0  0  0  0
   -0.1734    2.0592   -0.2973 C   0  0  0  0  0  0  0  0  0  0  0  0
   -1.2488    1.7352   -1.3569 C   0  0  0  0  0  0  0  0  0  0  0  0
   -1.4104    0.2752   -1.5273 N   0  0  0  0  0  0  0  0  0  0  0  0
   -2.5465   -0.3393   -0.8566 C   0  0  0  0  0  0  0  0  0  0  0  0
   -0.5004   -0.3674   -2.3643 C   0  0  0  0  0  0  0  0  0  0  0  0
    0.4388    0.2615   -2.8495 O   0  0  0  0  0  0  0  0  0  0  0  0
   -0.7228   -1.7101   -2.5616 N   0  0  0  0  0  0  0  0  0  0  0  0
    0.0092   -2.5929   -3.3901 C   0  0  0  0  0  0  0  0  0  0  0  0
    1.0493   -2.1930   -4.2367 C   0  0  0  0  0  0  0  0  0  0  0  0
    1.7136   -3.1275   -5.0399 C   0  0  0  0  0  0  0  0  0  0  0  0
    1.3349   -4.4622   -4.9962 C   0  0  0  0  0  0  0  0  0  0  0  0
    1.9703   -5.3512   -5.7759 F   0  0  0  0  0  0  0  0  0  0  0  0
    0.3080   -4.8838   -4.1617 C   0  0  0  0  0  0  0  0  0  0  0  0
   -0.3569   -3.9498   -3.3611 C   0  0  0  0  0  0  0  0  0  0  0  0
    0.0947    4.1729   -2.3513 H   0  0  0  0  0  0  0  0  0  0  0  0
    1.4115    4.9430   -1.4688 H   0  0  0  0  0  0  0  0  0  0  0  0
    1.5666    3.2613   -1.9851 H   0  0  0  0  0  0  0  0  0  0  0  0
    1.0923    3.6277    0.4583 H   0  0  0  0  0  0  0  0  0  0  0  0
   -0.3209    5.4505    0.5356 H   0  0  0  0  0  0  0  0  0  0  0  0
   -1.4190    4.8146   -0.6896 H   0  0  0  0  0  0  0  0  0  0  0  0
   -3.4167    4.5269    0.1110 H   0  0  0  0  0  0  0  0  0  0  0  0
   -5.1502    4.1391    1.6482 H   0  0  0  0  0  0  0  0  0  0  0  0
   -4.1106    4.2532    3.0569 H   0  0  0  0  0  0  0  0  0  0  0  0
   -3.9687    2.8653    1.9622 H   0  0  0  0  0  0  0  0  0  0  0  0
   -4.2013    6.5550    1.6072 H   0  0  0  0  0  0  0  0  0  0  0  0
   -2.5752    6.5114    2.2952 H   0  0  0  0  0  0  0  0  0  0  0  0
   -3.3172    6.8265   -0.4187 H   0  0  0  0  0  0  0  0  0  0  0  0
    0.5976    4.1276    4.5061 H   0  0  0  0  0  0  0  0  0  0  0  0
    2.4019    2.5251    5.0574 H   0  0  0  0  0  0  0  0  0  0  0  0
    2.7110    0.4810    3.7378 H   0  0  0  0  0  0  0  0  0  0  0  0
    0.4576   -0.3259    0.8499 H   0  0  0  0  0  0  0  0  0  0  0  0
    1.5600   -1.9475   -0.0471 H   0  0  0  0  0  0  0  0  0  0  0  0
    1.9100   -3.9533    3.0976 H   0  0  0  0  0  0  0  0  0  0  0  0
    2.3363   -6.3493    3.0837 H   0  0  0  0  0  0  0  0  0  0  0  0
    2.3707   -6.3381   -1.2324 H   0  0  0  0  0  0  0  0  0  0  0  0
    1.9677   -3.9116   -1.2232 H   0  0  0  0  0  0  0  0  0  0  0  0
    0.7191    1.4589   -0.5191 H   0  0  0  0  0  0  0  0  0  0  0  0
   -0.9801    2.1549   -2.3308 H   0  0  0  0  0  0  0  0  0  0  0  0
   -2.2210    2.1554   -1.0744 H   0  0  0  0  0  0  0  0  0  0  0  0
   -2.3051   -1.3448   -0.5002 H   0  0  0  0  0  0  0  0  0  0  0  0
   -2.8419    0.2565    0.0097 H   0  0  0  0  0  0  0  0  0  0  0  0
   -3.3791   -0.3844   -1.5657 H   0  0  0  0  0  0  0  0  0  0  0  0
   -1.4882   -2.1337   -2.0628 H   0  0  0  0  0  0  0  0  0  0  0  0
    1.3632   -1.1563   -4.3188 H   0  0  0  0  0  0  0  0  0  0  0  0
    2.5143   -2.8158   -5.7047 H   0  0  0  0  0  0  0  0  0  0  0  0
    0.0308   -5.9328   -4.1459 H   0  0  0  0  0  0  0  0  0  0  0  0
   -1.1574   -4.3027   -2.7143 H   0  0  0  0  0  0  0  0  0  0  0  0
  1  2  1  0
  2  3  1  0
  3  4  1  0
  4  5  1  0
  5  6  1  0
  5  7  1  0
  7  8  1  0
  4  9  1  0
  9 10  2  0
  9 11  1  0
 11 12  2  0
 12 13  1  0
 13 14  2  0
 14 15  1  0
 15 16  1  0
 16 17  1  0
 17 18  2  0
 17 19  1  0
 19 20  1  0
 20 21  2  0
 21 22  1  0
 22 23  2  0
 23 24  1  0
 24 25  1  0
 24 26  1  0
 24 27  1  0
 23 28  1  0
 28 29  2  0
 15 30  2  0
 30 31  1  0
 31 32  1  0
 32 33  1  0
 33 34  1  0
 34 35  1  0
 34 36  1  0
 36 37  2  0
 36 38  1  0
 38 39  1  0
 39 40  2  0
 40 41  1  0
 41 42  2  0
 42 43  1  0
 42 44  1  0
 44 45  2  0
 32  2  1  0
 45 39  1  0
 30 11  1  0
 29 20  1  0
  1 46  1  0
  1 47  1  0
  1 48  1  0
  2 49  1  0
  3 50  1  0
  3 51  1  0
  5 52  1  0
  6 53  1  0
  6 54  1  0
  6 55  1  0
  7 56  1  0
  7 57  1  0
  8 58  1  0
 12 59  1  0
 13 60  1  0
 14 61  1  0
 16 62  1  0
 19 63  1  0
 21 64  1  0
 22 65  1  0
 28 66  1  0
 29 67  1  0
 32 68  1  0
 33 69  1  0
 33 70  1  0
 35 71  1  0
 35 72  1  0
 35 73  1  0
 38 74  1  0
 40 75  1  0
 41 76  1  0
 44 77  1  0
 45 78  1  0
M  END
$$$$
