
     RDKit          3D

 36 39  0  0  0  0  0  0  0  0999 V2000
   -6.3224    2.4480   -2.3031 C   0  0  0  0  0  0  0  0  0  0  0  0
   -5.3476    1.9952   -1.2568 C   0  0  0  0  0  0  0  0  0  0  0  0
   -4.9147    2.7100   -0.3642 O   0  0  0  0  0  0  0  0  0  0  0  0
   -5.0345    0.6590   -1.4900 O   0  0  0  0  0  0  0  0  0  0  0  0
   -4.1428    0.0546   -0.5921 C   0  0  0  0  0  0  0  0  0  0  0  0
   -4.4165   -0.0167    0.7719 C   0  0  0  0  0  0  0  0  0  0  0  0
   -3.5278   -0.6883    1.6091 C   0  0  0  0  0  0  0  0  0  0  0  0
   -2.3851   -1.2955    1.0789 C   0  0  0  0  0  0  0  0  0  0  0  0
   -2.1154   -1.2277   -0.2940 C   0  0  0  0  0  0  0  0  0  0  0  0
   -0.9532   -1.8985   -0.8855 C   0  0  0  0  0  0  0  0  0  0  0  0
    0.3400   -1.6613   -0.6172 C   0  0  0  0  0  0  0  0  0  0  0  0
    1.6188   -2.5610   -1.4415 S   0  0  0  0  0  0  0  0  0  0  0  0
    2.7985   -1.6638   -0.5844 C   0  0  0  0  0  0  0  0  0  0  0  0
    4.0984   -1.6464   -0.5447 N   0  0  0  0  0  0  0  0  0  0  0  0
    4.3330   -0.6520    0.3930 C   0  0  0  0  0  0  0  0  0  0  0  0
    5.7785   -0.2288    0.8147 C   0  0  0  0  0  0  0  0  0  0  0  0
    6.0979    0.7490    1.7379 C   0  0  0  0  0  0  0  0  0  0  0  0
    7.5114    0.7983    1.8079 C   0  0  0  0  0  0  0  0  0  0  0  0
    7.9687   -0.1505    0.9250 C   0  0  0  0  0  0  0  0  0  0  0  0
    6.9289   -0.7778    0.3187 O   0  0  0  0  0  0  0  0  0  0  0  0
    3.2263   -0.0799    0.9132 N   0  0  0  0  0  0  0  0  0  0  0  0
    2.2672   -0.7571    0.2570 N   0  0  0  0  0  0  0  0  0  0  0  0
    0.8947   -0.6470    0.3412 C   0  0  0  0  0  0  0  0  0  0  0  0
    0.3355    0.1410    1.0788 O   0  0  0  0  0  0  0  0  0  0  0  0
   -3.0143   -0.5613   -1.1345 C   0  0  0  0  0  0  0  0  0  0  0  0
   -6.5868    3.4940   -2.1230 H   0  0  0  0  0  0  0  0  0  0  0  0
   -5.8667    2.3688   -3.2932 H   0  0  0  0  0  0  0  0  0  0  0  0
   -7.2324    1.8453   -2.2476 H   0  0  0  0  0  0  0  0  0  0  0  0
   -5.3046    0.4493    1.1884 H   0  0  0  0  0  0  0  0  0  0  0  0
   -3.7215   -0.7379    2.6777 H   0  0  0  0  0  0  0  0  0  0  0  0
   -1.7095   -1.8154    1.7543 H   0  0  0  0  0  0  0  0  0  0  0  0
   -1.2195   -2.6476   -1.6307 H   0  0  0  0  0  0  0  0  0  0  0  0
    5.3875    1.3499    2.2895 H   0  0  0  0  0  0  0  0  0  0  0  0
    8.1202    1.4445    2.4244 H   0  0  0  0  0  0  0  0  0  0  0  0
    8.9526   -0.4854    0.6270 H   0  0  0  0  0  0  0  0  0  0  0  0
   -2.8429   -0.5130   -2.2063 H   0  0  0  0  0  0  0  0  0  0  0  0
  1  2  1  0
  2  3  2  0
  2  4  1  0
  4  5  1  0
  5  6  2  0
  6  7  1  0
  7  8  2  0
  8  9  1  0
  9 10  1  0
 10 11  2  3
 11 12  1  0
 12 13  1  0
 13 14  2  0
 14 15  1  0
 15 16  1  0
 16 17  2  0
 17 18  1  0
 18 19  2  0
 19 20  1  0
 15 21  2  0
 21 22  1  0
 22 23  1  0
 23 24  2  0
  9 25  2  0
 25  5  1  0
 23 11  1  0
 22 13  1  0
 20 16  1  0
  1 26  1  0
  1 27  1  0
  1 28  1  0
  6 29  1  0
  7 30  1  0
  8 31  1  0
 10 32  1  0
 17 33  1  0
 18 34  1  0
 19 35  1  0
 25 36  1  0
M  END
$$$$
