
     RDKit          3D

 51 54  0  0  0  0  0  0  0  0999 V2000
    4.8064    1.5734   -1.3426 O   0  0  0  0  0  0  0  0  0  0  0  0
    3.7548    1.3972   -0.7312 C   0  0  0  0  0  0  0  0  0  0  0  0
    2.4088    1.7694   -1.3745 C   0  0  0  0  0  0  0  0  0  0  0  0
    1.3852    0.7422   -1.2623 N   0  0  0  0  0  0  0  0  0  0  0  0
    0.6151    0.6116   -0.1306 C   0  0  0  0  0  0  0  0  0  0  0  0
    0.8642    1.1608    0.9305 O   0  0  0  0  0  0  0  0  0  0  0  0
   -0.5962   -0.3002   -0.3105 C   0  0  0  0  0  0  0  0  0  0  0  0
   -1.2204   -0.1710   -1.4451 N   0  0  0  0  0  0  0  0  0  0  0  0
   -2.3323   -0.9491   -1.6834 N   0  0  0  0  0  0  0  0  0  0  0  0
   -3.0515   -0.6923   -2.9290 C   0  0  0  0  0  0  0  0  0  0  0  0
   -4.0371    0.4452   -2.7932 C   0  0  0  0  0  0  0  0  0  0  0  0
   -5.3611    0.1965   -2.4037 C   0  0  0  0  0  0  0  0  0  0  0  0
   -6.2675    1.2484   -2.2629 C   0  0  0  0  0  0  0  0  0  0  0  0
   -5.8586    2.5589   -2.5030 C   0  0  0  0  0  0  0  0  0  0  0  0
   -4.5421    2.8198   -2.8786 C   0  0  0  0  0  0  0  0  0  0  0  0
   -3.6343    1.7691   -3.0197 C   0  0  0  0  0  0  0  0  0  0  0  0
   -2.8441   -1.8792   -0.7824 C   0  0  0  0  0  0  0  0  0  0  0  0
   -3.8419   -2.5657   -0.9898 O   0  0  0  0  0  0  0  0  0  0  0  0
   -2.1084   -2.0387    0.4866 C   0  0  0  0  0  0  0  0  0  0  0  0
   -2.5403   -2.9810    1.4309 C   0  0  0  0  0  0  0  0  0  0  0  0
   -1.8364   -3.1472    2.6227 C   0  0  0  0  0  0  0  0  0  0  0  0
   -0.7019   -2.3775    2.8697 C   0  0  0  0  0  0  0  0  0  0  0  0
   -0.2705   -1.4373    1.9292 C   0  0  0  0  0  0  0  0  0  0  0  0
   -0.9817   -1.2605    0.7354 C   0  0  0  0  0  0  0  0  0  0  0  0
    3.6485    0.9670    0.5778 N   0  0  0  0  0  0  0  0  0  0  0  0
    4.6782    0.5355    1.4403 C   0  0  0  0  0  0  0  0  0  0  0  0
    6.0282    0.4706    1.0811 C   0  0  0  0  0  0  0  0  0  0  0  0
    6.9838    0.0271    2.0040 C   0  0  0  0  0  0  0  0  0  0  0  0
    6.5893   -0.3547    3.2822 C   0  0  0  0  0  0  0  0  0  0  0  0
    7.5127   -0.7785    4.1552 F   0  0  0  0  0  0  0  0  0  0  0  0
    5.2537   -0.3017    3.6494 C   0  0  0  0  0  0  0  0  0  0  0  0
    4.8757   -0.6794    4.8791 F   0  0  0  0  0  0  0  0  0  0  0  0
    4.3070    0.1396    2.7340 C   0  0  0  0  0  0  0  0  0  0  0  0
    3.0119    0.1745    3.0892 F   0  0  0  0  0  0  0  0  0  0  0  0
    2.0477    2.6986   -0.9208 H   0  0  0  0  0  0  0  0  0  0  0  0
    2.5733    1.9387   -2.4437 H   0  0  0  0  0  0  0  0  0  0  0  0
    0.9569    0.3977   -2.1175 H   0  0  0  0  0  0  0  0  0  0  0  0
   -3.5747   -1.6008   -3.2508 H   0  0  0  0  0  0  0  0  0  0  0  0
   -2.3184   -0.4668   -3.7136 H   0  0  0  0  0  0  0  0  0  0  0  0
   -5.6902   -0.8215   -2.2006 H   0  0  0  0  0  0  0  0  0  0  0  0
   -7.2915    1.0441   -1.9612 H   0  0  0  0  0  0  0  0  0  0  0  0
   -6.5647    3.3771   -2.3904 H   0  0  0  0  0  0  0  0  0  0  0  0
   -4.2211    3.8426   -3.0568 H   0  0  0  0  0  0  0  0  0  0  0  0
   -2.6063    1.9867   -3.3001 H   0  0  0  0  0  0  0  0  0  0  0  0
   -3.4239   -3.5870    1.2385 H   0  0  0  0  0  0  0  0  0  0  0  0
   -2.1724   -3.8767    3.3565 H   0  0  0  0  0  0  0  0  0  0  0  0
   -0.1506   -2.5058    3.7996 H   0  0  0  0  0  0  0  0  0  0  0  0
    0.6191   -0.8588    2.1637 H   0  0  0  0  0  0  0  0  0  0  0  0
    2.7135    1.0003    0.9922 H   0  0  0  0  0  0  0  0  0  0  0  0
    6.3721    0.7595    0.0921 H   0  0  0  0  0  0  0  0  0  0  0  0
    8.0336   -0.0209    1.7280 H   0  0  0  0  0  0  0  0  0  0  0  0
  1  2  2  0
  2  3  1  0
  3  4  1  0
  4  5  1  0
  5  6  2  0
  5  7  1  0
  7  8  2  0
  8  9  1  0
  9 10  1  0
 10 11  1  0
 11 12  2  0
 12 13  1  0
 13 14  2  0
 14 15  1  0
 15 16  2  0
  9 17  1  0
 17 18  2  0
 17 19  1  0
 19 20  2  0
 20 21  1  0
 21 22  2  0
 22 23  1  0
 23 24  2  0
  2 25  1  0
 25 26  1  0
 26 27  2  0
 27 28  1  0
 28 29  2  0
 29 30  1  0
 29 31  1  0
 31 32  1  0
 31 33  2  0
 33 34  1  0
 24  7  1  0
 33 26  1  0
 16 11  1  0
 24 19  1  0
  3 35  1  0
  3 36  1  0
  4 37  1  0
 10 38  1  0
 10 39  1  0
 12 40  1  0
 13 41  1  0
 14 42  1  0
 15 43  1  0
 16 44  1  0
 20 45  1  0
 21 46  1  0
 22 47  1  0
 23 48  1  0
 25 49  1  0
 27 50  1  0
 28 51  1  0
M  END
$$$$
