
     RDKit          3D

 57 62  0  0  0  0  0  0  0  0999 V2000
    6.1629   -1.4628    1.4450 C   0  0  0  0  0  0  0  0  0  0  0  0
    4.7789   -1.1468    1.5137 O   0  0  0  0  0  0  0  0  0  0  0  0
    4.0366   -1.3532    0.3815 C   0  0  0  0  0  0  0  0  0  0  0  0
    4.5313   -1.8322   -0.8473 C   0  0  0  0  0  0  0  0  0  0  0  0
    3.6807   -2.0114   -1.9458 C   0  0  0  0  0  0  0  0  0  0  0  0
    2.3492   -1.6972   -1.7801 C   0  0  0  0  0  0  0  0  0  0  0  0
    1.8397   -1.2119   -0.5743 C   0  0  0  0  0  0  0  0  0  0  0  0
    2.6776   -1.0438    0.5182 C   0  0  0  0  0  0  0  0  0  0  0  0
    0.3693   -0.9722   -0.7320 C   0  0  0  0  0  0  0  0  0  0  0  0
   -0.4877   -1.7048    0.2539 N   0  0  0  0  0  0  0  0  0  0  0  0
   -1.5214   -0.7625    0.8170 C   0  0  2  0  0  0  0  0  0  0  0  0
   -2.9454   -1.0171    0.2786 C   0  0  0  0  0  0  0  0  0  0  0  0
   -3.4860   -2.3941    0.5886 C   0  0  0  0  0  0  0  0  0  0  0  0
   -3.6555   -3.3343   -0.4377 C   0  0  0  0  0  0  0  0  0  0  0  0
   -4.1458   -4.6096   -0.1540 C   0  0  0  0  0  0  0  0  0  0  0  0
   -4.4726   -4.9563    1.1556 C   0  0  0  0  0  0  0  0  0  0  0  0
   -4.3109   -4.0279    2.1824 C   0  0  0  0  0  0  0  0  0  0  0  0
   -3.8207   -2.7517    1.9013 C   0  0  0  0  0  0  0  0  0  0  0  0
   -1.0070    0.5598    0.3974 C   0  0  0  0  0  0  0  0  0  0  0  0
    0.0655    0.4425   -0.4815 C   0  0  0  0  0  0  0  0  0  0  0  0
    0.4478    1.6955   -0.8797 C   0  0  0  0  0  0  0  0  0  0  0  0
    1.3387    2.0268   -1.8135 O   0  0  0  0  0  0  0  0  0  0  0  0
   -0.3465    2.6117   -0.1639 N   0  0  0  0  0  0  0  0  0  0  0  0
   -0.2545    4.0318   -0.2413 C   0  0  0  0  0  0  0  0  0  0  0  0
   -1.4175    4.8131   -0.2443 C   0  0  0  0  0  0  0  0  0  0  0  0
   -1.3205    6.2035   -0.3218 C   0  0  0  0  0  0  0  0  0  0  0  0
   -0.0693    6.8152   -0.3924 C   0  0  0  0  0  0  0  0  0  0  0  0
    1.0896    6.0399   -0.3880 C   0  0  0  0  0  0  0  0  0  0  0  0
    1.0016    4.6488   -0.3146 C   0  0  0  0  0  0  0  0  0  0  0  0
   -1.2508    1.8845    0.6328 C   0  0  0  0  0  0  0  0  0  0  0  0
   -2.1182    2.4207    1.4899 O   0  0  0  0  0  0  0  0  0  0  0  0
    0.1046   -1.4304   -2.1941 C   0  0  0  0  0  0  0  0  0  0  0  0
   -0.9657   -1.4992   -2.7820 O   0  0  0  0  0  0  0  0  0  0  0  0
    1.3368   -1.8197   -2.7240 N   0  0  0  0  0  0  0  0  0  0  0  0
    6.6749   -0.8350    0.7084 H   0  0  0  0  0  0  0  0  0  0  0  0
    6.6030   -1.2520    2.4244 H   0  0  0  0  0  0  0  0  0  0  0  0
    6.3155   -2.5264    1.2338 H   0  0  0  0  0  0  0  0  0  0  0  0
    5.5805   -2.0777   -0.9761 H   0  0  0  0  0  0  0  0  0  0  0  0
    4.0644   -2.3863   -2.8875 H   0  0  0  0  0  0  0  0  0  0  0  0
    2.2849   -0.6784    1.4624 H   0  0  0  0  0  0  0  0  0  0  0  0
   -0.9633   -2.4632   -0.2321 H   0  0  0  0  0  0  0  0  0  0  0  0
   -1.4992   -0.8538    1.9088 H   0  0  0  0  0  0  0  0  0  0  0  0
   -3.6373   -0.2755    0.7013 H   0  0  0  0  0  0  0  0  0  0  0  0
   -2.9754   -0.8478   -0.8067 H   0  0  0  0  0  0  0  0  0  0  0  0
   -3.4046   -3.0782   -1.4660 H   0  0  0  0  0  0  0  0  0  0  0  0
   -4.2731   -5.3318   -0.9560 H   0  0  0  0  0  0  0  0  0  0  0  0
   -4.8542   -5.9496    1.3758 H   0  0  0  0  0  0  0  0  0  0  0  0
   -4.5665   -4.2975    3.2037 H   0  0  0  0  0  0  0  0  0  0  0  0
   -3.7018   -2.0379    2.7134 H   0  0  0  0  0  0  0  0  0  0  0  0
    1.1499    2.9289   -2.1275 H   0  0  0  0  0  0  0  0  0  0  0  0
   -2.4068    4.3587   -0.2357 H   0  0  0  0  0  0  0  0  0  0  0  0
   -2.2225    6.8110   -0.3380 H   0  0  0  0  0  0  0  0  0  0  0  0
    0.0026    7.8988   -0.4512 H   0  0  0  0  0  0  0  0  0  0  0  0
    2.0640    6.5211   -0.4315 H   0  0  0  0  0  0  0  0  0  0  0  0
    1.9219    4.0685   -0.2690 H   0  0  0  0  0  0  0  0  0  0  0  0
   -1.8156    3.3160    1.7250 H   0  0  0  0  0  0  0  0  0  0  0  0
    1.4439   -2.1664   -3.6642 H   0  0  0  0  0  0  0  0  0  0  0  0
  1  2  1  0
  2  3  1  0
  3  4  2  0
  4  5  1  0
  5  6  2  0
  6  7  1  0
  7  8  2  0
  7  9  1  0
  9 10  1  0
 10 11  1  0
 11 12  1  0
 12 13  1  0
 13 14  2  0
 14 15  1  0
 15 16  2  0
 16 17  1  0
 17 18  2  0
 11 19  1  0
 19 20  1  0
 20 21  2  0
 21 22  1  0
 21 23  1  0
 23 24  1  0
 24 25  2  0
 25 26  1  0
 26 27  2  0
 27 28  1  0
 28 29  2  0
 23 30  1  0
 30 31  1  0
  9 32  1  0
 32 33  2  0
 32 34  1  0
  8  3  1  0
 20  9  1  0
 29 24  1  0
 34  6  1  0
 18 13  1  0
 30 19  2  0
  1 35  1  0
  1 36  1  0
  1 37  1  0
  4 38  1  0
  5 39  1  0
  8 40  1  0
 10 41  1  0
 11 42  1  1
 12 43  1  0
 12 44  1  0
 14 45  1  0
 15 46  1  0
 16 47  1  0
 17 48  1  0
 18 49  1  0
 22 50  1  0
 25 51  1  0
 26 52  1  0
 27 53  1  0
 28 54  1  0
 29 55  1  0
 31 56  1  0
 34 57  1  0
M  END
$$$$
