
     RDKit          3D

 56 58  0  0  0  0  0  0  0  0999 V2000
   -6.7999    2.4955   -1.3578 C   0  0  0  0  0  0  0  0  0  0  0  0
   -6.4051    1.9814    0.0194 C   0  0  0  0  0  0  0  0  0  0  0  0
   -5.8079    0.6403   -0.0674 N   0  0  0  0  0  0  0  0  0  0  0  0
   -6.7517   -0.4798    0.0631 C   0  0  0  0  0  0  0  0  0  0  0  0
   -6.8505   -0.9435    1.5094 C   0  0  0  0  0  0  0  0  0  0  0  0
   -4.4493    0.4450   -0.2826 C   0  0  0  0  0  0  0  0  0  0  0  0
   -3.5691    1.5066   -0.5503 C   0  0  0  0  0  0  0  0  0  0  0  0
   -2.1942    1.3167   -0.7653 C   0  0  0  0  0  0  0  0  0  0  0  0
   -1.6344    0.0425   -0.7067 C   0  0  0  0  0  0  0  0  0  0  0  0
   -0.1958   -0.1195   -0.9502 C   0  0  0  0  0  0  0  0  0  0  0  0
    0.5696   -0.9904   -0.2735 C   0  0  0  0  0  0  0  0  0  0  0  0
    2.0114   -1.1097   -0.5150 C   0  0  0  0  0  0  0  0  0  0  0  0
    2.4283   -1.7144   -1.7010 C   0  0  0  0  0  0  0  0  0  0  0  0
    3.7760   -1.8573   -1.9703 C   0  0  0  0  0  0  0  0  0  0  0  0
    4.7079   -1.3854   -1.0546 C   0  0  0  0  0  0  0  0  0  0  0  0
    6.0765   -1.5196   -1.3279 C   0  0  0  0  0  0  0  0  0  0  0  0
    7.0351   -1.0440   -0.4332 C   0  0  0  0  0  0  0  0  0  0  0  0
    6.6332   -0.4254    0.7424 C   0  0  0  0  0  0  0  0  0  0  0  0
    7.4559    0.0927    1.7023 O   0  0  0  0  0  0  0  0  0  0  0  0
    8.8603   -0.0110    1.4825 C   0  0  0  0  0  0  0  0  0  0  0  0
    5.2672   -0.2895    1.0233 C   0  0  0  0  0  0  0  0  0  0  0  0
    4.2735   -0.7657    0.1485 C   0  0  0  0  0  0  0  0  0  0  0  0
    2.9225   -0.6523    0.3966 N   0  0  0  0  0  4  0  0  0  0  0  0
    2.4355   -0.0149    1.6595 C   0  0  0  0  0  0  0  0  0  0  0  0
    2.3471    1.4892    1.4801 C   0  0  0  0  0  0  0  0  0  0  0  0
   -2.4838   -1.0344   -0.4622 C   0  0  0  0  0  0  0  0  0  0  0  0
   -3.8575   -0.8290   -0.2512 C   0  0  0  0  0  0  0  0  0  0  0  0
   -5.9355    2.5792   -2.0234 H   0  0  0  0  0  0  0  0  0  0  0  0
   -7.2600    3.4850   -1.2735 H   0  0  0  0  0  0  0  0  0  0  0  0
   -7.5222    1.8255   -1.8357 H   0  0  0  0  0  0  0  0  0  0  0  0
   -5.7414    2.6900    0.5274 H   0  0  0  0  0  0  0  0  0  0  0  0
   -7.3052    1.9441    0.6464 H   0  0  0  0  0  0  0  0  0  0  0  0
   -7.7495   -0.1633   -0.2670 H   0  0  0  0  0  0  0  0  0  0  0  0
   -6.4903   -1.3123   -0.5995 H   0  0  0  0  0  0  0  0  0  0  0  0
   -5.8878   -1.2994    1.8884 H   0  0  0  0  0  0  0  0  0  0  0  0
   -7.5721   -1.7620    1.5951 H   0  0  0  0  0  0  0  0  0  0  0  0
   -7.1827   -0.1289    2.1616 H   0  0  0  0  0  0  0  0  0  0  0  0
   -3.9327    2.5278   -0.6163 H   0  0  0  0  0  0  0  0  0  0  0  0
   -1.5803    2.1896   -0.9752 H   0  0  0  0  0  0  0  0  0  0  0  0
    0.2256    0.5451   -1.7035 H   0  0  0  0  0  0  0  0  0  0  0  0
    0.1539   -1.6417    0.4914 H   0  0  0  0  0  0  0  0  0  0  0  0
    1.6986   -2.0829   -2.4215 H   0  0  0  0  0  0  0  0  0  0  0  0
    4.0869   -2.3339   -2.8997 H   0  0  0  0  0  0  0  0  0  0  0  0
    6.4187   -1.9960   -2.2472 H   0  0  0  0  0  0  0  0  0  0  0  0
    8.0840   -1.1696   -0.6886 H   0  0  0  0  0  0  0  0  0  0  0  0
    9.3666    0.4467    2.3376 H   0  0  0  0  0  0  0  0  0  0  0  0
    9.1733   -1.0589    1.4294 H   0  0  0  0  0  0  0  0  0  0  0  0
    9.1586    0.5379    0.5833 H   0  0  0  0  0  0  0  0  0  0  0  0
    5.0282    0.2157    1.9541 H   0  0  0  0  0  0  0  0  0  0  0  0
    1.4643   -0.4329    1.9357 H   0  0  0  0  0  0  0  0  0  0  0  0
    3.1005   -0.2969    2.4801 H   0  0  0  0  0  0  0  0  0  0  0  0
    1.9889    1.9586    2.4014 H   0  0  0  0  0  0  0  0  0  0  0  0
    3.3201    1.9245    1.2343 H   0  0  0  0  0  0  0  0  0  0  0  0
    1.6567    1.7541    0.6738 H   0  0  0  0  0  0  0  0  0  0  0  0
   -2.1109   -2.0549   -0.4419 H   0  0  0  0  0  0  0  0  0  0  0  0
   -4.4550   -1.7145   -0.0552 H   0  0  0  0  0  0  0  0  0  0  0  0
  1  2  1  0
  2  3  1  0
  3  4  1  0
  4  5  1  0
  3  6  1  0
  6  7  2  0
  7  8  1  0
  8  9  2  0
  9 10  1  0
 10 11  2  3
 11 12  1  0
 12 13  2  0
 13 14  1  0
 14 15  2  0
 15 16  1  0
 16 17  2  0
 17 18  1  0
 18 19  1  0
 19 20  1  0
 18 21  2  0
 21 22  1  0
 22 23  2  0
 23 24  1  0
 24 25  1  0
  9 26  1  0
 26 27  2  0
 27  6  1  0
 23 12  1  0
 22 15  1  0
  1 28  1  0
  1 29  1  0
  1 30  1  0
  2 31  1  0
  2 32  1  0
  4 33  1  0
  4 34  1  0
  5 35  1  0
  5 36  1  0
  5 37  1  0
  7 38  1  0
  8 39  1  0
 10 40  1  0
 11 41  1  0
 13 42  1  0
 14 43  1  0
 16 44  1  0
 17 45  1  0
 20 46  1  0
 20 47  1  0
 20 48  1  0
 21 49  1  0
 24 50  1  0
 24 51  1  0
 25 52  1  0
 25 53  1  0
 25 54  1  0
 26 55  1  0
 27 56  1  0
M  CHG  1  23   1
M  END
$$$$
