
     RDKit          3D

 43 45  0  0  0  0  0  0  0  0999 V2000
    7.2680   -2.2371    1.6022 O   0  0  0  0  0  0  0  0  0  0  0  0
    7.9128   -1.4909    0.8856 C   0  0  0  0  0  0  0  0  0  0  0  0
    9.2344   -1.7079    0.7066 O   0  0  0  0  0  0  0  0  0  0  0  0
    7.4430   -0.2562    0.1558 C   0  0  0  0  0  0  0  0  0  0  0  0
    5.9415   -0.1465    0.0419 C   0  0  0  0  0  0  0  0  0  0  0  0
    5.1732    0.2909    1.1265 C   0  0  0  0  0  0  0  0  0  0  0  0
    3.7809    0.3705    1.0231 C   0  0  0  0  0  0  0  0  0  0  0  0
    3.1298    0.0179   -0.1645 C   0  0  0  0  0  0  0  0  0  0  0  0
    1.7221    0.1060   -0.1793 N   0  0  0  0  0  0  0  0  0  0  0  0
    0.8802   -0.1055   -1.2560 C   0  0  0  0  0  0  0  0  0  0  0  0
    1.2071   -0.2969   -2.4208 O   0  0  0  0  0  0  0  0  0  0  0  0
   -0.5746   -0.0397   -0.9369 C   0  0  0  0  0  0  0  0  0  0  0  0
   -1.4513    0.4627   -1.9026 C   0  0  0  0  0  0  0  0  0  0  0  0
   -2.8235    0.5304   -1.6392 C   0  0  0  0  0  0  0  0  0  0  0  0
   -3.3419    0.0886   -0.4140 C   0  0  0  0  0  0  0  0  0  0  0  0
   -4.7372    0.1967   -0.2332 N   0  0  0  0  0  0  0  0  0  0  0  0
   -5.4879   -0.1910    0.8708 C   0  0  0  0  0  0  0  0  0  0  0  0
   -5.0128   -0.7141    1.8751 O   0  0  0  0  0  0  0  0  0  0  0  0
   -6.9168    0.0736    0.7389 C   0  0  0  0  0  0  0  0  0  0  0  0
   -7.6906    0.7289   -0.2076 C   0  0  0  0  0  0  0  0  0  0  0  0
   -9.0373    0.6512    0.2298 C   0  0  0  0  0  0  0  0  0  0  0  0
   -9.0131   -0.0442    1.4130 C   0  0  0  0  0  0  0  0  0  0  0  0
   -7.7429   -0.3941    1.7303 O   0  0  0  0  0  0  0  0  0  0  0  0
   -2.4623   -0.4263    0.5399 C   0  0  0  0  0  0  0  0  0  0  0  0
   -1.0870   -0.4989    0.2808 C   0  0  0  0  0  0  0  0  0  0  0  0
    3.8945   -0.4215   -1.2447 C   0  0  0  0  0  0  0  0  0  0  0  0
    5.2884   -0.5056   -1.1426 C   0  0  0  0  0  0  0  0  0  0  0  0
    9.4071   -2.5213    1.2273 H   0  0  0  0  0  0  0  0  0  0  0  0
    7.8329    0.6226    0.6820 H   0  0  0  0  0  0  0  0  0  0  0  0
    7.8826   -0.2583   -0.8488 H   0  0  0  0  0  0  0  0  0  0  0  0
    5.6508    0.5588    2.0666 H   0  0  0  0  0  0  0  0  0  0  0  0
    3.2173    0.7068    1.8891 H   0  0  0  0  0  0  0  0  0  0  0  0
    1.2959    0.4100    0.6861 H   0  0  0  0  0  0  0  0  0  0  0  0
   -1.0678    0.8015   -2.8629 H   0  0  0  0  0  0  0  0  0  0  0  0
   -3.4756    0.9326   -2.4111 H   0  0  0  0  0  0  0  0  0  0  0  0
   -5.2470    0.5863   -1.0127 H   0  0  0  0  0  0  0  0  0  0  0  0
   -7.3429    1.2162   -1.1069 H   0  0  0  0  0  0  0  0  0  0  0  0
   -9.9157    1.0542   -0.2547 H   0  0  0  0  0  0  0  0  0  0  0  0
   -9.7720   -0.3557    2.1169 H   0  0  0  0  0  0  0  0  0  0  0  0
   -2.8100   -0.7946    1.5003 H   0  0  0  0  0  0  0  0  0  0  0  0
   -0.4410   -0.9442    1.0327 H   0  0  0  0  0  0  0  0  0  0  0  0
    3.4352   -0.7247   -2.1811 H   0  0  0  0  0  0  0  0  0  0  0  0
    5.8535   -0.8627   -2.0014 H   0  0  0  0  0  0  0  0  0  0  0  0
  1  2  2  0
  2  3  1  0
  2  4  1  0
  4  5  1  0
  5  6  2  0
  6  7  1  0
  7  8  2  0
  8  9  1  0
  9 10  1  0
 10 11  2  0
 10 12  1  0
 12 13  2  0
 13 14  1  0
 14 15  2  0
 15 16  1  0
 16 17  1  0
 17 18  2  0
 17 19  1  0
 19 20  2  0
 20 21  1  0
 21 22  2  0
 22 23  1  0
 15 24  1  0
 24 25  2  0
  8 26  1  0
 26 27  2  0
 27  5  1  0
 25 12  1  0
 23 19  1  0
  3 28  1  0
  4 29  1  0
  4 30  1  0
  6 31  1  0
  7 32  1  0
  9 33  1  0
 13 34  1  0
 14 35  1  0
 16 36  1  0
 20 37  1  0
 21 38  1  0
 22 39  1  0
 24 40  1  0
 25 41  1  0
 26 42  1  0
 27 43  1  0
M  END
$$$$
