
     RDKit          3D

 33 34  0  0  0  0  0  0  0  0999 V2000
   -6.4686    1.3137    1.0175 N   0  0  0  0  0  0  0  0  0  0  0  0
   -5.1481    0.9987    0.6824 C   0  0  0  0  0  0  0  0  0  0  0  0
   -4.8550    0.4198   -0.5543 C   0  0  0  0  0  0  0  0  0  0  0  0
   -3.5296    0.2107   -0.9498 C   0  0  0  0  0  0  0  0  0  0  0  0
   -2.4740    0.6195   -0.1266 C   0  0  0  0  0  0  0  0  0  0  0  0
   -1.0819    0.3761   -0.5928 C   0  0  0  0  0  0  0  0  0  0  0  0
   -0.8109   -0.1619   -1.6547 O   0  0  0  0  0  0  0  0  0  0  0  0
   -0.1860    0.8211    0.3236 O   0  0  0  0  0  0  0  0  0  0  0  0
    1.1973    0.6488   -0.0300 C   0  0  0  0  0  0  0  0  0  0  0  0
    1.6680   -0.7609    0.3241 C   0  0  0  0  0  0  0  0  0  0  0  0
    3.1311   -0.9577    0.0253 C   0  0  0  0  0  0  0  0  0  0  0  0
    3.5461   -1.3127   -1.2654 C   0  0  0  0  0  0  0  0  0  0  0  0
    4.9021   -1.4762   -1.5515 C   0  0  0  0  0  0  0  0  0  0  0  0
    5.8544   -1.2833   -0.5526 C   0  0  0  0  0  0  0  0  0  0  0  0
    5.4519   -0.9255    0.7330 C   0  0  0  0  0  0  0  0  0  0  0  0
    4.0962   -0.7612    1.0215 C   0  0  0  0  0  0  0  0  0  0  0  0
   -2.7629    1.2544    1.0868 C   0  0  0  0  0  0  0  0  0  0  0  0
   -4.0925    1.4584    1.4739 C   0  0  0  0  0  0  0  0  0  0  0  0
   -6.6269    1.4325    2.0132 H   0  0  0  0  0  0  0  0  0  0  0  0
   -7.1605    0.7077    0.5874 H   0  0  0  0  0  0  0  0  0  0  0  0
   -5.6577    0.1241   -1.2251 H   0  0  0  0  0  0  0  0  0  0  0  0
   -3.3275   -0.2601   -1.9100 H   0  0  0  0  0  0  0  0  0  0  0  0
    1.7629    1.3917    0.5442 H   0  0  0  0  0  0  0  0  0  0  0  0
    1.3592    0.8855   -1.0892 H   0  0  0  0  0  0  0  0  0  0  0  0
    1.0779   -1.5117   -0.2160 H   0  0  0  0  0  0  0  0  0  0  0  0
    1.4678   -0.9612    1.3847 H   0  0  0  0  0  0  0  0  0  0  0  0
    2.8128   -1.4638   -2.0555 H   0  0  0  0  0  0  0  0  0  0  0  0
    5.2146   -1.7539   -2.5547 H   0  0  0  0  0  0  0  0  0  0  0  0
    6.9101   -1.4113   -0.7762 H   0  0  0  0  0  0  0  0  0  0  0  0
    6.1949   -0.7742    1.5117 H   0  0  0  0  0  0  0  0  0  0  0  0
    3.7986   -0.4799    2.0291 H   0  0  0  0  0  0  0  0  0  0  0  0
   -1.9679    1.6101    1.7370 H   0  0  0  0  0  0  0  0  0  0  0  0
   -4.2959    1.9831    2.4041 H   0  0  0  0  0  0  0  0  0  0  0  0
  1  2  1  0
  2  3  2  0
  3  4  1  0
  4  5  2  0
  5  6  1  0
  6  7  2  0
  6  8  1  0
  8  9  1  0
  9 10  1  0
 10 11  1  0
 11 12  2  0
 12 13  1  0
 13 14  2  0
 14 15  1  0
 15 16  2  0
  5 17  1  0
 17 18  2  0
 18  2  1  0
 16 11  1  0
  1 19  1  0
  1 20  1  0
  3 21  1  0
  4 22  1  0
  9 23  1  0
  9 24  1  0
 10 25  1  0
 10 26  1  0
 12 27  1  0
 13 28  1  0
 14 29  1  0
 15 30  1  0
 16 31  1  0
 17 32  1  0
 18 33  1  0
M  END
$$$$
