
     RDKit          3D

 44 46  0  0  0  0  0  0  0  0999 V2000
    5.6808   -1.9601   -2.1608 C   0  0  0  0  0  0  0  0  0  0  0  0
    6.4065   -0.8045   -1.7531 O   0  0  0  0  0  0  0  0  0  0  0  0
    5.6780    0.3411   -1.5570 C   0  0  0  0  0  0  0  0  0  0  0  0
    4.2926    0.4664   -1.6647 C   0  0  0  0  0  0  0  0  0  0  0  0
    3.6785    1.7091   -1.4364 C   0  0  0  0  0  0  0  0  0  0  0  0
    2.2235    1.8441   -1.5429 C   0  0  0  0  0  0  0  0  0  0  0  0
    1.3476    1.4944   -0.5912 C   0  0  0  0  0  0  0  0  0  0  0  0
    1.6892    0.8230    0.9629 S   0  0  0  0  0  0  0  0  0  0  0  0
   -0.0082    0.7250    1.3997 C   0  0  0  0  0  0  0  0  0  0  0  0
   -0.5722    0.1377    2.8553 S   0  0  0  0  0  0  0  0  0  0  0  0
   -0.7676    1.2302    0.3663 N   0  0  0  0  0  0  0  0  0  0  0  0
   -2.2826    1.1441    0.3858 N   0  0  0  0  0  0  0  0  0  0  0  0
   -2.8945   -0.1520   -0.5485 S   0  0  0  0  0  6  0  0  0  0  0  0
   -1.8452   -1.1459   -0.6566 O   0  0  0  0  0  0  0  0  0  0  0  0
   -3.5634    0.3845   -1.7108 O   0  0  0  0  0  0  0  0  0  0  0  0
   -4.1399   -0.7870    0.5473 C   0  0  0  0  0  0  0  0  0  0  0  0
   -3.8424   -1.8578    1.3942 C   0  0  0  0  0  0  0  0  0  0  0  0
   -4.8274   -2.3449    2.2547 C   0  0  0  0  0  0  0  0  0  0  0  0
   -6.1115   -1.7816    2.2567 C   0  0  0  0  0  0  0  0  0  0  0  0
   -7.1624   -2.2893    3.2009 C   0  0  0  0  0  0  0  0  0  0  0  0
   -6.3946   -0.7081    1.3993 C   0  0  0  0  0  0  0  0  0  0  0  0
   -5.4146   -0.2138    0.5377 C   0  0  0  0  0  0  0  0  0  0  0  0
   -0.1211    1.6577   -0.7834 C   0  0  0  0  0  0  0  0  0  0  0  0
   -0.6327    2.0992   -1.8021 O   0  0  0  0  0  0  0  0  0  0  0  0
    4.4545    2.8262   -1.1034 C   0  0  0  0  0  0  0  0  0  0  0  0
    5.8384    2.7056   -0.9911 C   0  0  0  0  0  0  0  0  0  0  0  0
    6.4327    1.4702   -1.2163 C   0  0  0  0  0  0  0  0  0  0  0  0
    7.7933    1.3788   -1.1000 O   0  0  0  0  0  0  0  0  0  0  0  0
    5.1722   -1.7912   -3.1162 H   0  0  0  0  0  0  0  0  0  0  0  0
    4.9748   -2.2757   -1.3853 H   0  0  0  0  0  0  0  0  0  0  0  0
    6.4002   -2.7712   -2.3065 H   0  0  0  0  0  0  0  0  0  0  0  0
    3.6689   -0.3829   -1.9236 H   0  0  0  0  0  0  0  0  0  0  0  0
    1.8713    2.2688   -2.4830 H   0  0  0  0  0  0  0  0  0  0  0  0
   -2.6794    1.1632    1.3295 H   0  0  0  0  0  0  0  0  0  0  0  0
   -2.8562   -2.3183    1.3952 H   0  0  0  0  0  0  0  0  0  0  0  0
   -4.5896   -3.1735    2.9206 H   0  0  0  0  0  0  0  0  0  0  0  0
   -8.1522   -2.2593    2.7317 H   0  0  0  0  0  0  0  0  0  0  0  0
   -7.1777   -1.6761    4.1076 H   0  0  0  0  0  0  0  0  0  0  0  0
   -6.9683   -3.3299    3.4836 H   0  0  0  0  0  0  0  0  0  0  0  0
   -7.3860   -0.2572    1.3937 H   0  0  0  0  0  0  0  0  0  0  0  0
   -5.6534    0.6086   -0.1354 H   0  0  0  0  0  0  0  0  0  0  0  0
    3.9902    3.7939   -0.9273 H   0  0  0  0  0  0  0  0  0  0  0  0
    6.4497    3.5650   -0.7313 H   0  0  0  0  0  0  0  0  0  0  0  0
    8.0004    0.4438   -1.2957 H   0  0  0  0  0  0  0  0  0  0  0  0
  1  2  1  0
  2  3  1  0
  3  4  2  0
  4  5  1  0
  5  6  1  0
  6  7  2  3
  7  8  1  0
  8  9  1  0
  9 10  2  0
  9 11  1  0
 11 12  1  0
 12 13  1  0
 13 14  2  0
 13 15  2  0
 13 16  1  0
 16 17  2  0
 17 18  1  0
 18 19  2  0
 19 20  1  0
 19 21  1  0
 21 22  2  0
 11 23  1  0
 23 24  2  0
  5 25  2  0
 25 26  1  0
 26 27  2  0
 27 28  1  0
 27  3  1  0
 23  7  1  0
 22 16  1  0
  1 29  1  0
  1 30  1  0
  1 31  1  0
  4 32  1  0
  6 33  1  0
 12 34  1  0
 17 35  1  0
 18 36  1  0
 20 37  1  0
 20 38  1  0
 20 39  1  0
 21 40  1  0
 22 41  1  0
 25 42  1  0
 26 43  1  0
 28 44  1  0
M  END
$$$$
