
     RDKit          3D

 43 45  0  0  0  0  0  0  0  0999 V2000
    7.3399    2.0750    1.1563 C   0  0  0  0  0  0  0  0  0  0  0  0
    6.0196    1.5496    1.0122 O   0  0  0  0  0  0  0  0  0  0  0  0
    5.9840    0.2667    0.5713 C   0  0  0  0  0  0  0  0  0  0  0  0
    6.9555   -0.4235    0.3061 O   0  0  0  0  0  0  0  0  0  0  0  0
    4.5783   -0.2075    0.4482 C   0  0  0  0  0  0  0  0  0  0  0  0
    3.4783    0.6062    0.7508 C   0  0  0  0  0  0  0  0  0  0  0  0
    2.1728    0.1142    0.6186 C   0  0  0  0  0  0  0  0  0  0  0  0
    1.9563   -1.1939    0.1838 C   0  0  0  0  0  0  0  0  0  0  0  0
    0.7414   -1.7947    0.0098 O   0  0  0  0  0  0  0  0  0  0  0  0
   -0.4177   -1.0369    0.3553 C   0  0  0  0  0  0  0  0  0  0  0  0
   -1.6779   -1.8848    0.1308 C   0  0  0  0  0  0  0  0  0  0  0  0
   -1.6376   -3.1125    0.2689 O   0  0  0  0  0  0  0  0  0  0  0  0
   -2.8317   -1.2417   -0.3326 N   0  0  0  0  0  0  0  0  0  0  0  0
   -3.8000   -2.0642   -1.0616 C   0  0  0  0  0  0  0  0  0  0  0  0
   -4.1651   -1.4016   -2.3785 C   0  0  0  0  0  0  0  0  0  0  0  0
   -4.8268   -0.0612   -2.1065 C   0  0  0  0  0  0  0  0  0  0  0  0
   -4.1316    0.7237   -1.0208 C   0  0  0  0  0  0  0  0  0  0  0  0
   -4.4915    2.0732   -0.8553 C   0  0  0  0  0  0  0  0  0  0  0  0
   -3.9407    2.8347    0.1704 C   0  0  0  0  0  0  0  0  0  0  0  0
   -3.0493    2.2467    1.0582 C   0  0  0  0  0  0  0  0  0  0  0  0
   -2.6881    0.9044    0.9050 C   0  0  0  0  0  0  0  0  0  0  0  0
   -3.1890    0.1324   -0.1524 C   0  0  0  0  0  0  0  0  0  0  0  0
    3.0533   -2.0041   -0.1190 C   0  0  0  0  0  0  0  0  0  0  0  0
    4.3570   -1.5182    0.0114 C   0  0  0  0  0  0  0  0  0  0  0  0
    7.9045    1.4967    1.8945 H   0  0  0  0  0  0  0  0  0  0  0  0
    7.2571    3.1051    1.5137 H   0  0  0  0  0  0  0  0  0  0  0  0
    7.8567    2.0837    0.1915 H   0  0  0  0  0  0  0  0  0  0  0  0
    3.6197    1.6294    1.0908 H   0  0  0  0  0  0  0  0  0  0  0  0
    1.3527    0.7818    0.8612 H   0  0  0  0  0  0  0  0  0  0  0  0
   -0.3730   -0.7840    1.4191 H   0  0  0  0  0  0  0  0  0  0  0  0
   -0.4574   -0.1478   -0.2815 H   0  0  0  0  0  0  0  0  0  0  0  0
   -3.3891   -3.0572   -1.2727 H   0  0  0  0  0  0  0  0  0  0  0  0
   -4.6798   -2.2047   -0.4213 H   0  0  0  0  0  0  0  0  0  0  0  0
   -4.8383   -2.0403   -2.9605 H   0  0  0  0  0  0  0  0  0  0  0  0
   -3.2580   -1.2515   -2.9781 H   0  0  0  0  0  0  0  0  0  0  0  0
   -4.8517    0.5205   -3.0356 H   0  0  0  0  0  0  0  0  0  0  0  0
   -5.8646   -0.2283   -1.7911 H   0  0  0  0  0  0  0  0  0  0  0  0
   -5.2163    2.5319   -1.5252 H   0  0  0  0  0  0  0  0  0  0  0  0
   -4.2289    3.8757    0.2926 H   0  0  0  0  0  0  0  0  0  0  0  0
   -2.6501    2.8251    1.8880 H   0  0  0  0  0  0  0  0  0  0  0  0
   -2.0592    0.4756    1.6761 H   0  0  0  0  0  0  0  0  0  0  0  0
    2.8907   -3.0252   -0.4582 H   0  0  0  0  0  0  0  0  0  0  0  0
    5.1957   -2.1688   -0.2295 H   0  0  0  0  0  0  0  0  0  0  0  0
  1  2  1  0
  2  3  1  0
  3  4  2  0
  3  5  1  0
  5  6  2  0
  6  7  1  0
  7  8  2  0
  8  9  1  0
  9 10  1  0
 10 11  1  0
 11 12  2  0
 11 13  1  0
 13 14  1  0
 14 15  1  0
 15 16  1  0
 16 17  1  0
 17 18  2  0
 18 19  1  0
 19 20  2  0
 20 21  1  0
 21 22  2  0
  8 23  1  0
 23 24  2  0
 24  5  1  0
 22 13  1  0
 22 17  1  0
  1 25  1  0
  1 26  1  0
  1 27  1  0
  6 28  1  0
  7 29  1  0
 10 30  1  0
 10 31  1  0
 14 32  1  0
 14 33  1  0
 15 34  1  0
 15 35  1  0
 16 36  1  0
 16 37  1  0
 18 38  1  0
 19 39  1  0
 20 40  1  0
 21 41  1  0
 23 42  1  0
 24 43  1  0
M  END
$$$$
