
     RDKit          3D

 71 73  0  0  0  0  0  0  0  0999 V2000
   -4.9711    5.1657    0.6235 C   0  0  0  0  0  0  0  0  0  0  0  0
   -5.8638    4.0612    0.6135 O   0  0  0  0  0  0  0  0  0  0  0  0
   -5.3211    2.8014    0.6991 C   0  0  0  0  0  0  0  0  0  0  0  0
   -3.9507    2.5264    0.6108 C   0  0  0  0  0  0  0  0  0  0  0  0
   -3.4900    1.2115    0.7155 C   0  0  0  0  0  0  0  0  0  0  0  0
   -2.0663    0.8930    0.6258 C   0  0  0  0  0  0  0  0  0  0  0  0
   -1.6303   -0.3774    0.7146 C   0  0  0  0  0  0  0  0  0  0  0  0
   -0.1764   -0.7499    0.6335 C   0  0  0  0  0  0  0  0  0  0  0  0
    0.1671   -1.4057   -0.6446 N   0  0  0  0  0  0  0  0  0  0  0  0
   -0.0837   -0.6362   -1.8846 C   0  0  0  0  0  0  0  0  0  0  0  0
    1.1946   -0.0733   -2.5245 C   0  0  0  0  0  0  0  0  0  0  0  0
    1.8150    1.0663   -1.7395 C   0  0  0  0  0  0  0  0  0  0  0  0
    2.9509    0.7878   -0.9578 C   0  0  0  0  0  0  0  0  0  0  0  0
    3.5519    1.7770   -0.1828 C   0  0  0  0  0  0  0  0  0  0  0  0
    3.0277    3.0638   -0.1776 C   0  0  0  0  0  0  0  0  0  0  0  0
    1.9140    3.3638   -0.9609 C   0  0  0  0  0  0  0  0  0  0  0  0
    1.3042    2.3818   -1.7598 C   0  0  0  0  0  0  0  0  0  0  0  0
    0.1196    2.7764   -2.5986 C   0  0  0  0  0  0  0  0  0  0  0  0
    0.5947   -2.7257   -0.6862 C   0  0  0  0  0  0  0  0  0  0  0  0
    0.4139   -3.7849   -1.9760 S   0  0  0  0  0  0  0  0  0  0  0  0
    1.2216   -3.2357    0.4177 N   0  0  0  0  0  0  0  0  0  0  0  0
    2.3469   -2.5973    1.0930 C   0  0  0  0  0  0  0  0  0  0  0  0
    3.6821   -3.0365    0.4883 C   0  0  0  0  0  0  0  0  0  0  0  0
    4.8498   -2.3335    1.1934 C   0  0  0  0  0  0  0  0  0  0  0  0
    6.1994   -2.6592    0.7168 N   0  0  0  0  0  0  0  0  0  0  0  0
    6.5623   -4.0534    0.9544 C   0  0  0  0  0  0  0  0  0  0  0  0
    6.4180   -2.2957   -0.6803 C   0  0  0  0  0  0  0  0  0  0  0  0
   -2.6038   -1.4784    0.9859 C   0  0  0  0  0  0  0  0  0  0  0  0
   -2.2511   -2.6356    1.1849 O   0  0  0  0  0  0  0  0  0  0  0  0
   -3.9308   -1.1374    1.0253 N   0  0  0  0  0  0  0  0  0  0  0  0
   -4.4047    0.1730    0.9034 C   0  0  0  0  0  0  0  0  0  0  0  0
   -5.7733    0.4289    0.9829 C   0  0  0  0  0  0  0  0  0  0  0  0
   -6.2393    1.7444    0.8832 C   0  0  0  0  0  0  0  0  0  0  0  0
   -7.5643    2.1007    0.9451 O   0  0  0  0  0  0  0  0  0  0  0  0
   -8.4972    1.1044    1.3371 C   0  0  0  0  0  0  0  0  0  0  0  0
   -4.3328    5.1544    1.5143 H   0  0  0  0  0  0  0  0  0  0  0  0
   -4.3716    5.1916   -0.2920 H   0  0  0  0  0  0  0  0  0  0  0  0
   -5.5708    6.0810    0.6580 H   0  0  0  0  0  0  0  0  0  0  0  0
   -3.2304    3.3222    0.4586 H   0  0  0  0  0  0  0  0  0  0  0  0
   -1.3697    1.7096    0.4612 H   0  0  0  0  0  0  0  0  0  0  0  0
    0.4592    0.1377    0.7235 H   0  0  0  0  0  0  0  0  0  0  0  0
    0.0525   -1.3872    1.4922 H   0  0  0  0  0  0  0  0  0  0  0  0
   -0.5823   -1.2842   -2.6123 H   0  0  0  0  0  0  0  0  0  0  0  0
   -0.7934    0.1688   -1.6838 H   0  0  0  0  0  0  0  0  0  0  0  0
    1.9325   -0.8742   -2.6579 H   0  0  0  0  0  0  0  0  0  0  0  0
    0.9709    0.2770   -3.5380 H   0  0  0  0  0  0  0  0  0  0  0  0
    3.3751   -0.2136   -0.9521 H   0  0  0  0  0  0  0  0  0  0  0  0
    4.4375    1.5426    0.4030 H   0  0  0  0  0  0  0  0  0  0  0  0
    3.4991    3.8420    0.4176 H   0  0  0  0  0  0  0  0  0  0  0  0
    1.5314    4.3825   -0.9551 H   0  0  0  0  0  0  0  0  0  0  0  0
    0.0286    3.8661   -2.6713 H   0  0  0  0  0  0  0  0  0  0  0  0
    0.2222    2.4039   -3.6222 H   0  0  0  0  0  0  0  0  0  0  0  0
   -0.8059    2.3956   -2.1601 H   0  0  0  0  0  0  0  0  0  0  0  0
    1.3156   -4.2430    0.3440 H   0  0  0  0  0  0  0  0  0  0  0  0
    2.2907   -2.8888    2.1470 H   0  0  0  0  0  0  0  0  0  0  0  0
    2.2671   -1.5103    1.0243 H   0  0  0  0  0  0  0  0  0  0  0  0
    3.6883   -2.8019   -0.5824 H   0  0  0  0  0  0  0  0  0  0  0  0
    3.7750   -4.1247    0.5771 H   0  0  0  0  0  0  0  0  0  0  0  0
    4.8013   -2.5452    2.2706 H   0  0  0  0  0  0  0  0  0  0  0  0
    4.7115   -1.2479    1.1126 H   0  0  0  0  0  0  0  0  0  0  0  0
    5.9867   -4.7517    0.3376 H   0  0  0  0  0  0  0  0  0  0  0  0
    7.6266   -4.2117    0.7415 H   0  0  0  0  0  0  0  0  0  0  0  0
    6.4133   -4.3185    2.0074 H   0  0  0  0  0  0  0  0  0  0  0  0
    6.1562   -1.2466   -0.8576 H   0  0  0  0  0  0  0  0  0  0  0  0
    7.4782   -2.4015   -0.9346 H   0  0  0  0  0  0  0  0  0  0  0  0
    5.8425   -2.9178   -1.3747 H   0  0  0  0  0  0  0  0  0  0  0  0
   -4.5695   -1.9038    1.1932 H   0  0  0  0  0  0  0  0  0  0  0  0
   -6.4558   -0.4020    1.1168 H   0  0  0  0  0  0  0  0  0  0  0  0
   -9.4804    1.5794    1.4143 H   0  0  0  0  0  0  0  0  0  0  0  0
   -8.2471    0.6950    2.3204 H   0  0  0  0  0  0  0  0  0  0  0  0
   -8.5682    0.3136    0.5846 H   0  0  0  0  0  0  0  0  0  0  0  0
  1  2  1  0
  2  3  1  0
  3  4  2  0
  4  5  1  0
  5  6  1  0
  6  7  2  0
  7  8  1  0
  8  9  1  0
  9 10  1  0
 10 11  1  0
 11 12  1  0
 12 13  2  0
 13 14  1  0
 14 15  2  0
 15 16  1  0
 16 17  2  0
 17 18  1  0
  9 19  1  0
 19 20  2  0
 19 21  1  0
 21 22  1  0
 22 23  1  0
 23 24  1  0
 24 25  1  0
 25 26  1  0
 25 27  1  0
  7 28  1  0
 28 29  2  0
 28 30  1  0
 30 31  1  0
 31 32  1  0
 32 33  2  0
 33 34  1  0
 34 35  1  0
 33  3  1  0
 31  5  2  0
 17 12  1  0
  1 36  1  0
  1 37  1  0
  1 38  1  0
  4 39  1  0
  6 40  1  0
  8 41  1  0
  8 42  1  0
 10 43  1  0
 10 44  1  0
 11 45  1  0
 11 46  1  0
 13 47  1  0
 14 48  1  0
 15 49  1  0
 16 50  1  0
 18 51  1  0
 18 52  1  0
 18 53  1  0
 21 54  1  0
 22 55  1  0
 22 56  1  0
 23 57  1  0
 23 58  1  0
 24 59  1  0
 24 60  1  0
 26 61  1  0
 26 62  1  0
 26 63  1  0
 27 64  1  0
 27 65  1  0
 27 66  1  0
 30 67  1  0
 32 68  1  0
 35 69  1  0
 35 70  1  0
 35 71  1  0
M  END
$$$$
