
     RDKit          3D

 61 65  0  0  0  0  0  0  0  0999 V2000
    0.8516   -0.9643    5.4312 C   0  0  0  0  0  0  0  0  0  0  0  0
    1.6781   -0.7181    4.2044 C   0  0  0  0  0  0  0  0  0  0  0  0
    2.9165   -1.3365    4.0460 C   0  0  0  0  0  0  0  0  0  0  0  0
    3.6978   -1.0662    2.9182 C   0  0  0  0  0  0  0  0  0  0  0  0
    3.2854   -0.1820    1.9315 C   0  0  0  0  0  0  0  0  0  0  0  0
    4.0890    0.0265    0.8726 N   0  0  0  0  0  0  0  0  0  0  0  0
    3.7214    0.8935   -0.1060 C   0  0  0  0  0  0  0  0  0  0  0  0
    4.6894    1.0609   -1.2120 C   0  0  0  0  0  0  0  0  0  0  0  0
    4.2878    1.3866   -2.5213 C   0  0  0  0  0  0  0  0  0  0  0  0
    5.2210    1.5482   -3.5518 C   0  0  0  0  0  0  0  0  0  0  0  0
    6.5788    1.3838   -3.2968 C   0  0  0  0  0  0  0  0  0  0  0  0
    7.0043    1.0520   -2.0150 C   0  0  0  0  0  0  0  0  0  0  0  0
    6.0694    0.8909   -0.9879 C   0  0  0  0  0  0  0  0  0  0  0  0
    2.5150    1.5692   -0.0479 C   0  0  0  0  0  0  0  0  0  0  0  0
    1.6785    1.3302    1.0415 C   0  0  0  0  0  0  0  0  0  0  0  0
    0.3853    2.0349    1.0662 C   0  0  0  0  0  0  0  0  0  0  0  0
    0.2967    3.0561    1.7391 O   0  0  0  0  0  0  0  0  0  0  0  0
   -0.6573    1.5077    0.3158 N   0  0  0  0  0  0  0  0  0  0  0  0
   -0.6089    0.2443   -0.4309 C   0  0  0  0  0  0  0  0  0  0  0  0
   -1.9871   -0.4243   -0.5161 C   0  0  0  0  0  0  0  0  0  0  0  0
   -3.0065    0.4646   -1.1653 N   0  0  0  0  0  0  0  0  0  0  0  0
   -4.6249    0.0181   -0.8731 S   0  0  0  0  0  6  0  0  0  0  0  0
   -5.4739    0.8108   -1.7332 O   0  0  0  0  0  0  0  0  0  0  0  0
   -4.8167   -0.0204    0.5596 O   0  0  0  0  0  0  0  0  0  0  0  0
   -4.8479   -1.5801   -1.4152 C   0  0  0  0  0  0  0  0  0  0  0  0
   -4.6986   -2.0397   -2.7405 C   0  0  0  0  0  0  0  0  0  0  0  0
   -4.3567   -1.2750   -3.9629 C   0  0  0  0  0  0  0  0  0  0  0  0
   -4.9069   -3.3618   -2.8100 N   0  0  0  0  0  0  0  0  0  0  0  0
   -5.2175   -3.7660   -1.5235 O   0  0  0  0  0  0  0  0  0  0  0  0
   -5.1842   -2.6931   -0.6858 C   0  0  0  0  0  0  0  0  0  0  0  0
   -5.4930   -2.9603    0.7315 C   0  0  0  0  0  0  0  0  0  0  0  0
   -2.7452    1.9318   -0.9657 C   0  0  0  0  0  0  0  0  0  0  0  0
   -1.9382    2.2178    0.3042 C   0  0  0  0  0  0  0  0  0  0  0  0
    2.0445    0.4549    2.0805 C   0  0  0  0  0  0  0  0  0  0  0  0
    1.2531    0.1859    3.2261 C   0  0  0  0  0  0  0  0  0  0  0  0
   -0.2131   -0.8148    5.2236 H   0  0  0  0  0  0  0  0  0  0  0  0
    1.1546   -0.2806    6.2302 H   0  0  0  0  0  0  0  0  0  0  0  0
    0.9724   -1.9951    5.7807 H   0  0  0  0  0  0  0  0  0  0  0  0
    3.2900   -2.0291    4.7971 H   0  0  0  0  0  0  0  0  0  0  0  0
    4.6618   -1.5591    2.8099 H   0  0  0  0  0  0  0  0  0  0  0  0
    3.2357    1.5046   -2.7675 H   0  0  0  0  0  0  0  0  0  0  0  0
    4.8846    1.7982   -4.5545 H   0  0  0  0  0  0  0  0  0  0  0  0
    7.3043    1.5087   -4.0962 H   0  0  0  0  0  0  0  0  0  0  0  0
    8.0628    0.9170   -1.8083 H   0  0  0  0  0  0  0  0  0  0  0  0
    6.4271    0.6308    0.0079 H   0  0  0  0  0  0  0  0  0  0  0  0
    2.2235    2.2835   -0.8096 H   0  0  0  0  0  0  0  0  0  0  0  0
   -0.2420    0.4842   -1.4358 H   0  0  0  0  0  0  0  0  0  0  0  0
    0.1022   -0.4463    0.0301 H   0  0  0  0  0  0  0  0  0  0  0  0
   -1.9011   -1.3426   -1.1066 H   0  0  0  0  0  0  0  0  0  0  0  0
   -2.3105   -0.6931    0.4963 H   0  0  0  0  0  0  0  0  0  0  0  0
   -3.4068   -0.7468   -3.8353 H   0  0  0  0  0  0  0  0  0  0  0  0
   -5.1366   -0.5405   -4.1875 H   0  0  0  0  0  0  0  0  0  0  0  0
   -4.2576   -1.9327   -4.8327 H   0  0  0  0  0  0  0  0  0  0  0  0
   -4.6242   -2.7409    1.3605 H   0  0  0  0  0  0  0  0  0  0  0  0
   -6.3326   -2.3436    1.0666 H   0  0  0  0  0  0  0  0  0  0  0  0
   -5.7646   -4.0093    0.8892 H   0  0  0  0  0  0  0  0  0  0  0  0
   -3.6793    2.5019   -0.9384 H   0  0  0  0  0  0  0  0  0  0  0  0
   -2.1938    2.2811   -1.8473 H   0  0  0  0  0  0  0  0  0  0  0  0
   -2.4932    1.8904    1.1914 H   0  0  0  0  0  0  0  0  0  0  0  0
   -1.7644    3.2951    0.4008 H   0  0  0  0  0  0  0  0  0  0  0  0
    0.3006    0.6980    3.3612 H   0  0  0  0  0  0  0  0  0  0  0  0
  1  2  1  0
  2  3  2  0
  3  4  1  0
  4  5  2  0
  5  6  1  0
  6  7  2  0
  7  8  1  0
  8  9  2  0
  9 10  1  0
 10 11  2  0
 11 12  1  0
 12 13  2  0
  7 14  1  0
 14 15  2  0
 15 16  1  0
 16 17  2  0
 16 18  1  0
 18 19  1  0
 19 20  1  0
 20 21  1  0
 21 22  1  0
 22 23  2  0
 22 24  2  0
 22 25  1  0
 25 26  1  0
 26 27  1  0
 26 28  2  0
 28 29  1  0
 29 30  1  0
 30 31  1  0
 21 32  1  0
 32 33  1  0
 15 34  1  0
 34 35  2  0
 35  2  1  0
 34  5  1  0
 13  8  1  0
 33 18  1  0
 30 25  2  0
  1 36  1  0
  1 37  1  0
  1 38  1  0
  3 39  1  0
  4 40  1  0
  9 41  1  0
 10 42  1  0
 11 43  1  0
 12 44  1  0
 13 45  1  0
 14 46  1  0
 19 47  1  0
 19 48  1  0
 20 49  1  0
 20 50  1  0
 27 51  1  0
 27 52  1  0
 27 53  1  0
 31 54  1  0
 31 55  1  0
 31 56  1  0
 32 57  1  0
 32 58  1  0
 33 59  1  0
 33 60  1  0
 35 61  1  0
M  END
$$$$
