
     RDKit          3D

 51 54  0  0  0  0  0  0  0  0999 V2000
    7.0428   -2.5282    1.3291 N   0  0  0  0  0  0  0  0  0  0  0  0
    6.9936   -1.9272   -0.2456 S   0  0  0  0  0  6  0  0  0  0  0  0
    8.1786   -1.1361   -0.4678 O   0  0  0  0  0  0  0  0  0  0  0  0
    6.6474   -3.0641   -1.0681 O   0  0  0  0  0  0  0  0  0  0  0  0
    5.6005   -0.8333   -0.1748 C   0  0  0  0  0  0  0  0  0  0  0  0
    5.6864    0.3269    0.5984 C   0  0  0  0  0  0  0  0  0  0  0  0
    4.5875    1.1886    0.6778 C   0  0  0  0  0  0  0  0  0  0  0  0
    3.4126    0.9024   -0.0228 C   0  0  0  0  0  0  0  0  0  0  0  0
    2.2713    1.7245   -0.0088 N   0  0  0  0  0  0  0  0  0  0  0  0
    2.0065    2.7968    0.8248 C   0  0  0  0  0  0  0  0  0  0  0  0
    2.7206    3.1855    1.7457 O   0  0  0  0  0  0  0  0  0  0  0  0
    0.6940    3.5004    0.5048 C   0  0  0  0  0  0  0  0  0  0  0  0
   -0.7088    2.6865    1.3256 S   0  0  0  0  0  0  0  0  0  0  0  0
   -1.0151    1.3497    0.2607 C   0  0  0  0  0  0  0  0  0  0  0  0
   -0.2845    1.0799   -0.7963 N   0  0  0  0  0  0  0  0  0  0  0  0
   -0.6783   -0.1243   -1.2894 N   0  0  0  0  0  0  0  0  0  0  0  0
   -1.6922   -0.5593   -0.5599 C   0  0  0  0  0  0  0  0  0  0  0  0
   -2.5425   -1.7317   -0.9336 C   0  0  0  0  0  0  0  0  0  0  0  0
   -3.7885   -1.3081   -1.6610 C   0  0  0  0  0  0  0  0  0  0  0  0
   -3.8850   -0.7505   -2.9227 C   0  0  0  0  0  0  0  0  0  0  0  0
   -5.2313   -0.4628   -3.2878 C   0  0  0  0  0  0  0  0  0  0  0  0
   -6.1193   -0.8210   -2.2987 C   0  0  0  0  0  0  0  0  0  0  0  0
   -5.3311   -1.4971   -0.9398 S   0  0  0  0  0  0  0  0  0  0  0  0
   -1.9307    0.3338    0.4827 N   0  0  0  0  0  0  0  0  0  0  0  0
   -2.8963    0.2226    1.5137 C   0  0  0  0  0  0  0  0  0  0  0  0
   -3.6962    1.3209    1.8521 C   0  0  0  0  0  0  0  0  0  0  0  0
   -4.6548    1.1991    2.8602 C   0  0  0  0  0  0  0  0  0  0  0  0
   -4.8132   -0.0101    3.5355 C   0  0  0  0  0  0  0  0  0  0  0  0
   -4.0108   -1.1012    3.2085 C   0  0  0  0  0  0  0  0  0  0  0  0
   -3.0521   -0.9885    2.1994 C   0  0  0  0  0  0  0  0  0  0  0  0
    3.3514   -0.2540   -0.8143 C   0  0  0  0  0  0  0  0  0  0  0  0
    4.4398   -1.1272   -0.8893 C   0  0  0  0  0  0  0  0  0  0  0  0
    6.8615   -3.5343    1.3044 H   0  0  0  0  0  0  0  0  0  0  0  0
    6.4035   -2.0468    1.9642 H   0  0  0  0  0  0  0  0  0  0  0  0
    6.6035    0.5729    1.1316 H   0  0  0  0  0  0  0  0  0  0  0  0
    4.6862    2.0896    1.2760 H   0  0  0  0  0  0  0  0  0  0  0  0
    1.4997    1.4195   -0.6038 H   0  0  0  0  0  0  0  0  0  0  0  0
    0.5438    3.5742   -0.5774 H   0  0  0  0  0  0  0  0  0  0  0  0
    0.7637    4.5264    0.8834 H   0  0  0  0  0  0  0  0  0  0  0  0
   -2.7690   -2.3689   -0.0758 H   0  0  0  0  0  0  0  0  0  0  0  0
   -1.9600   -2.3713   -1.6116 H   0  0  0  0  0  0  0  0  0  0  0  0
   -3.0234   -0.5474   -3.5510 H   0  0  0  0  0  0  0  0  0  0  0  0
   -5.5334   -0.0169   -4.2287 H   0  0  0  0  0  0  0  0  0  0  0  0
   -7.1971   -0.7156   -2.3082 H   0  0  0  0  0  0  0  0  0  0  0  0
   -3.6222    2.2678    1.3230 H   0  0  0  0  0  0  0  0  0  0  0  0
   -5.2848    2.0477    3.1153 H   0  0  0  0  0  0  0  0  0  0  0  0
   -5.5615   -0.0996    4.3204 H   0  0  0  0  0  0  0  0  0  0  0  0
   -4.1272   -2.0382    3.7477 H   0  0  0  0  0  0  0  0  0  0  0  0
   -2.4097   -1.8427    2.0054 H   0  0  0  0  0  0  0  0  0  0  0  0
    2.4508   -0.4906   -1.3781 H   0  0  0  0  0  0  0  0  0  0  0  0
    4.3730   -2.0187   -1.5096 H   0  0  0  0  0  0  0  0  0  0  0  0
  1  2  1  0
  2  3  2  0
  2  4  2  0
  2  5  1  0
  5  6  2  0
  6  7  1  0
  7  8  2  0
  8  9  1  0
  9 10  1  0
 10 11  2  0
 10 12  1  0
 12 13  1  0
 13 14  1  0
 14 15  2  0
 15 16  1  0
 16 17  2  0
 17 18  1  0
 18 19  1  0
 19 20  2  0
 20 21  1  0
 21 22  2  0
 22 23  1  0
 17 24  1  0
 24 25  1  0
 25 26  2  0
 26 27  1  0
 27 28  2  0
 28 29  1  0
 29 30  2  0
  8 31  1  0
 31 32  2  0
 32  5  1  0
 24 14  1  0
 30 25  1  0
 23 19  1  0
  1 33  1  0
  1 34  1  0
  6 35  1  0
  7 36  1  0
  9 37  1  0
 12 38  1  0
 12 39  1  0
 18 40  1  0
 18 41  1  0
 20 42  1  0
 21 43  1  0
 22 44  1  0
 26 45  1  0
 27 46  1  0
 28 47  1  0
 29 48  1  0
 30 49  1  0
 31 50  1  0
 32 51  1  0
M  END
$$$$
