
     RDKit          3D

 37 40  0  0  0  0  0  0  0  0999 V2000
   -3.1804    0.9120    2.5092 C   0  0  0  0  0  0  0  0  0  0  0  0
   -3.7535    0.8897    1.1036 C   0  0  0  0  0  0  0  0  0  0  0  0
   -3.0112   -0.0628    0.3452 O   0  0  0  0  0  0  0  0  0  0  0  0
   -3.2850   -0.1566   -0.9961 C   0  0  0  0  0  0  0  0  0  0  0  0
   -4.3583    0.4726   -1.6347 C   0  0  0  0  0  0  0  0  0  0  0  0
   -4.5615    0.3041   -3.0075 C   0  0  0  0  0  0  0  0  0  0  0  0
   -3.6993   -0.4963   -3.7524 C   0  0  0  0  0  0  0  0  0  0  0  0
   -2.6283   -1.1323   -3.1269 C   0  0  0  0  0  0  0  0  0  0  0  0
   -2.4132   -0.9657   -1.7520 C   0  0  0  0  0  0  0  0  0  0  0  0
   -1.2684   -1.6534   -1.1387 C   0  0  0  0  0  0  0  0  0  0  0  0
   -0.1266   -1.0613   -0.7624 C   0  0  0  0  0  0  0  0  0  0  0  0
    0.2958    0.6335   -0.9375 S   0  0  0  0  0  0  0  0  0  0  0  0
    1.8014    0.3270   -0.1776 C   0  0  0  0  0  0  0  0  0  0  0  0
    2.8401    1.0407    0.1457 N   0  0  0  0  0  0  0  0  0  0  0  0
    3.6649    0.0847    0.7197 C   0  0  0  0  0  0  0  0  0  0  0  0
    5.0780    0.4384    1.2898 C   0  0  0  0  0  0  0  0  0  0  0  0
    5.9596   -0.4509    1.8751 C   0  0  0  0  0  0  0  0  0  0  0  0
    7.1066    0.2935    2.2431 C   0  0  0  0  0  0  0  0  0  0  0  0
    6.8566    1.5898    1.8612 C   0  0  0  0  0  0  0  0  0  0  0  0
    5.6323    1.6887    1.2835 O   0  0  0  0  0  0  0  0  0  0  0  0
    3.1617   -1.1682    0.7487 N   0  0  0  0  0  0  0  0  0  0  0  0
    1.9666   -0.9649    0.1665 N   0  0  0  0  0  0  0  0  0  0  0  0
    0.9567   -1.8596   -0.1136 C   0  0  0  0  0  0  0  0  0  0  0  0
    1.0070   -3.0496    0.1391 O   0  0  0  0  0  0  0  0  0  0  0  0
   -3.7163    1.6287    3.1377 H   0  0  0  0  0  0  0  0  0  0  0  0
   -3.2464   -0.0800    2.9684 H   0  0  0  0  0  0  0  0  0  0  0  0
   -2.1196    1.1832    2.4883 H   0  0  0  0  0  0  0  0  0  0  0  0
   -4.8080    0.5953    1.1508 H   0  0  0  0  0  0  0  0  0  0  0  0
   -3.6589    1.8894    0.6640 H   0  0  0  0  0  0  0  0  0  0  0  0
   -5.0610    1.0965   -1.0927 H   0  0  0  0  0  0  0  0  0  0  0  0
   -5.3989    0.7978   -3.4952 H   0  0  0  0  0  0  0  0  0  0  0  0
   -3.8616   -0.6259   -4.8195 H   0  0  0  0  0  0  0  0  0  0  0  0
   -1.9622   -1.7552   -3.7197 H   0  0  0  0  0  0  0  0  0  0  0  0
   -1.4144   -2.7204   -0.9795 H   0  0  0  0  0  0  0  0  0  0  0  0
    5.7857   -1.5093    2.0149 H   0  0  0  0  0  0  0  0  0  0  0  0
    8.0029   -0.0693    2.7261 H   0  0  0  0  0  0  0  0  0  0  0  0
    7.4171    2.5121    1.9255 H   0  0  0  0  0  0  0  0  0  0  0  0
  1  2  1  0
  2  3  1  0
  3  4  1  0
  4  5  2  0
  5  6  1  0
  6  7  2  0
  7  8  1  0
  8  9  2  0
  9 10  1  0
 10 11  2  3
 11 12  1  0
 12 13  1  0
 13 14  2  0
 14 15  1  0
 15 16  1  0
 16 17  2  0
 17 18  1  0
 18 19  2  0
 19 20  1  0
 15 21  2  0
 21 22  1  0
 22 23  1  0
 23 24  2  0
  9  4  1  0
 23 11  1  0
 22 13  1  0
 20 16  1  0
  1 25  1  0
  1 26  1  0
  1 27  1  0
  2 28  1  0
  2 29  1  0
  5 30  1  0
  6 31  1  0
  7 32  1  0
  8 33  1  0
 10 34  1  0
 17 35  1  0
 18 36  1  0
 19 37  1  0
M  END
$$$$
