
     RDKit          3D

 57 61  0  0  0  0  0  0  0  0999 V2000
    0.4171   -0.0258   -2.4947 O   0  0  0  0  0  0  0  0  0  0  0  0
    0.0713   -0.2723   -1.1198 C   0  0  0  0  0  0  0  0  0  0  0  0
    1.2436    0.1502   -0.2148 C   0  0  0  0  0  0  0  0  0  0  0  0
    2.4513   -0.5590   -0.6481 N   0  0  0  0  0  0  0  0  0  0  0  0
    3.7046   -0.1629   -0.2257 C   0  0  0  0  0  0  0  0  0  0  0  0
    3.8755    1.0262    0.2849 N   0  0  0  0  0  0  0  0  0  0  0  0
    5.1509    1.4357    0.7247 C   0  0  0  0  0  0  0  0  0  0  0  0
    5.2867    2.7153    1.2661 C   0  0  0  0  0  0  0  0  0  0  0  0
    6.5280    3.1698    1.7197 C   0  0  0  0  0  0  0  0  0  0  0  0
    7.6501    2.3443    1.6354 C   0  0  0  0  0  0  0  0  0  0  0  0
    7.5385    1.0614    1.0979 C   0  0  0  0  0  0  0  0  0  0  0  0
    6.2905    0.6206    0.6484 C   0  0  0  0  0  0  0  0  0  0  0  0
    6.0891   -0.6531    0.0917 N   0  0  0  0  0  0  0  0  0  0  0  0
    6.9880   -1.6706   -0.1231 C   0  0  0  0  0  0  0  0  0  0  0  0
    6.3167   -2.7221   -0.7095 C   0  0  0  0  0  0  0  0  0  0  0  0
    4.9640   -2.3315   -0.8522 C   0  0  0  0  0  0  0  0  0  0  0  0
    4.8443   -1.0513   -0.3420 C   0  0  0  0  0  0  0  0  0  0  0  0
   -1.2240    0.4988   -0.7961 C   0  0  0  0  0  0  0  0  0  0  0  0
   -1.7168    0.3074    0.5795 N   0  0  0  0  0  0  0  0  0  0  0  0
   -2.7496    1.3182    0.9194 C   0  0  0  0  0  0  0  0  0  0  0  0
   -4.1218    1.1368    0.2244 C   0  0  0  0  0  0  0  0  0  0  0  0
   -4.6431   -0.2332    0.4417 N   0  0  0  0  0  0  0  0  0  0  0  0
   -5.9779   -0.4084    0.0402 C   0  0  0  0  0  0  0  0  0  0  0  0
   -6.9877    0.3813    0.6183 C   0  0  0  0  0  0  0  0  0  0  0  0
   -8.3328    0.2407    0.2604 C   0  0  0  0  0  0  0  0  0  0  0  0
   -8.7039   -0.7064   -0.6860 C   0  0  0  0  0  0  0  0  0  0  0  0
   -7.7303   -1.5138   -1.2633 C   0  0  0  0  0  0  0  0  0  0  0  0
   -6.3857   -1.3686   -0.8982 C   0  0  0  0  0  0  0  0  0  0  0  0
   -3.6697   -1.2873    0.0970 C   0  0  0  0  0  0  0  0  0  0  0  0
   -2.3124   -1.0338    0.7991 C   0  0  0  0  0  0  0  0  0  0  0  0
    1.3929   -0.0873   -2.5376 H   0  0  0  0  0  0  0  0  0  0  0  0
   -0.0906   -1.3524   -1.0390 H   0  0  0  0  0  0  0  0  0  0  0  0
    1.3970    1.2311   -0.3147 H   0  0  0  0  0  0  0  0  0  0  0  0
    1.0384   -0.0826    0.8351 H   0  0  0  0  0  0  0  0  0  0  0  0
    2.3363   -1.5652   -0.6904 H   0  0  0  0  0  0  0  0  0  0  0  0
    4.4148    3.3606    1.3330 H   0  0  0  0  0  0  0  0  0  0  0  0
    6.6168    4.1691    2.1383 H   0  0  0  0  0  0  0  0  0  0  0  0
    8.6136    2.7033    1.9894 H   0  0  0  0  0  0  0  0  0  0  0  0
    8.4249    0.4385    1.0416 H   0  0  0  0  0  0  0  0  0  0  0  0
    8.0298   -1.5768    0.1471 H   0  0  0  0  0  0  0  0  0  0  0  0
    6.7571   -3.6658   -1.0055 H   0  0  0  0  0  0  0  0  0  0  0  0
    4.1699   -2.9242   -1.2857 H   0  0  0  0  0  0  0  0  0  0  0  0
   -1.9860    0.2523   -1.5455 H   0  0  0  0  0  0  0  0  0  0  0  0
   -1.0070    1.5641   -0.9580 H   0  0  0  0  0  0  0  0  0  0  0  0
   -2.9058    1.2778    2.0060 H   0  0  0  0  0  0  0  0  0  0  0  0
   -2.3676    2.3267    0.7181 H   0  0  0  0  0  0  0  0  0  0  0  0
   -4.0268    1.3299   -0.8517 H   0  0  0  0  0  0  0  0  0  0  0  0
   -4.7957    1.8969    0.6348 H   0  0  0  0  0  0  0  0  0  0  0  0
   -6.7349    1.1045    1.3894 H   0  0  0  0  0  0  0  0  0  0  0  0
   -9.0859    0.8663    0.7315 H   0  0  0  0  0  0  0  0  0  0  0  0
   -9.7471   -0.8209   -0.9662 H   0  0  0  0  0  0  0  0  0  0  0  0
   -8.0116   -2.2617   -2.0000 H   0  0  0  0  0  0  0  0  0  0  0  0
   -5.6659   -2.0193   -1.3842 H   0  0  0  0  0  0  0  0  0  0  0  0
   -3.5173   -1.3323   -0.9880 H   0  0  0  0  0  0  0  0  0  0  0  0
   -4.0408   -2.2643    0.4307 H   0  0  0  0  0  0  0  0  0  0  0  0
   -2.4586   -1.1539    1.8814 H   0  0  0  0  0  0  0  0  0  0  0  0
   -1.6043   -1.8207    0.5181 H   0  0  0  0  0  0  0  0  0  0  0  0
  1  2  1  0
  2  3  1  0
  3  4  1  0
  4  5  1  0
  5  6  2  0
  6  7  1  0
  7  8  2  0
  8  9  1  0
  9 10  2  0
 10 11  1  0
 11 12  2  0
 12 13  1  0
 13 14  1  0
 14 15  2  0
 15 16  1  0
 16 17  2  0
  2 18  1  0
 18 19  1  0
 19 20  1  0
 20 21  1  0
 21 22  1  0
 22 23  1  0
 23 24  2  0
 24 25  1  0
 25 26  2  0
 26 27  1  0
 27 28  2  0
 22 29  1  0
 29 30  1  0
 17  5  1  0
 30 19  1  0
 12  7  1  0
 17 13  1  0
 28 23  1  0
  1 31  1  0
  2 32  1  0
  3 33  1  0
  3 34  1  0
  4 35  1  0
  8 36  1  0
  9 37  1  0
 10 38  1  0
 11 39  1  0
 14 40  1  0
 15 41  1  0
 16 42  1  0
 18 43  1  0
 18 44  1  0
 20 45  1  0
 20 46  1  0
 21 47  1  0
 21 48  1  0
 24 49  1  0
 25 50  1  0
 26 51  1  0
 27 52  1  0
 28 53  1  0
 29 54  1  0
 29 55  1  0
 30 56  1  0
 30 57  1  0
M  END
$$$$
