
     RDKit          3D

 54 57  0  0  0  0  0  0  0  0999 V2000
    0.2296    3.9998   -1.7757 O   0  0  0  0  0  0  0  0  0  0  0  0
   -0.1698    2.8389   -1.8039 C   0  0  0  0  0  0  0  0  0  0  0  0
   -1.4062    2.4564   -2.6297 C   0  0  0  0  0  0  0  0  0  0  0  0
   -2.5612    2.1296   -1.8547 O   0  0  0  0  0  0  0  0  0  0  0  0
   -2.5861    0.8755   -1.3444 C   0  0  0  0  0  0  0  0  0  0  0  0
   -1.6866    0.0558   -1.4630 O   0  0  0  0  0  0  0  0  0  0  0  0
   -3.8472    0.6254   -0.5980 C   0  0  0  0  0  0  0  0  0  0  0  0
   -4.8435    1.6035   -0.4591 C   0  0  0  0  0  0  0  0  0  0  0  0
   -6.0086    1.3220    0.2600 C   0  0  0  0  0  0  0  0  0  0  0  0
   -6.1800    0.0686    0.8431 C   0  0  0  0  0  0  0  0  0  0  0  0
   -5.2018   -0.9178    0.6839 C   0  0  0  0  0  0  0  0  0  0  0  0
   -4.0318   -0.6380   -0.0205 C   0  0  0  0  0  0  0  0  0  0  0  0
   -5.3199   -2.1823    1.2010 O   0  0  0  0  0  0  0  0  0  0  0  0
   -6.6660   -2.4611    1.6045 C   0  0  0  0  0  0  0  0  0  0  0  0
   -7.2469   -1.2922    2.3829 C   0  0  0  0  0  0  0  0  0  0  0  0
   -7.3362   -0.1278    1.5528 O   0  0  0  0  0  0  0  0  0  0  0  0
    0.4070    1.7573   -1.1606 N   0  0  0  0  0  0  0  0  0  0  0  0
    1.5430    1.7472   -0.3292 C   0  0  0  0  0  0  0  0  0  0  0  0
    2.3280    2.8717   -0.0630 C   0  0  0  0  0  0  0  0  0  0  0  0
    3.4354    2.7847    0.7884 C   0  0  0  0  0  0  0  0  0  0  0  0
    3.7775    1.5680    1.3722 C   0  0  0  0  0  0  0  0  0  0  0  0
    3.0146    0.4353    1.0841 C   0  0  0  0  0  0  0  0  0  0  0  0
    3.4260   -1.1219    1.8419 S   0  0  0  0  0  6  0  0  0  0  0  0
    2.2120   -1.9080    1.9021 O   0  0  0  0  0  0  0  0  0  0  0  0
    4.1934   -0.8353    3.0354 O   0  0  0  0  0  0  0  0  0  0  0  0
    4.4620   -1.8451    0.7191 N   0  0  0  0  0  0  0  0  0  0  0  0
    3.8943   -2.3232   -0.5717 C   0  0  0  0  0  0  0  0  0  0  0  0
    4.5472   -1.5984   -1.7534 C   0  0  0  0  0  0  0  0  0  0  0  0
    5.9691   -1.7764   -1.8211 O   0  0  0  0  0  0  0  0  0  0  0  0
    6.5813   -1.9981   -0.5420 C   0  0  0  0  0  0  0  0  0  0  0  0
    5.8416   -1.2999    0.6039 C   0  0  0  0  0  0  0  0  0  0  0  0
    1.8882    0.5247    0.2574 C   0  0  0  0  0  0  0  0  0  0  0  0
   -1.6717    3.3194   -3.2507 H   0  0  0  0  0  0  0  0  0  0  0  0
   -1.1520    1.6460   -3.3244 H   0  0  0  0  0  0  0  0  0  0  0  0
   -4.7266    2.5919   -0.8976 H   0  0  0  0  0  0  0  0  0  0  0  0
   -6.7756    2.0836    0.3761 H   0  0  0  0  0  0  0  0  0  0  0  0
   -3.2735   -1.4113   -0.1225 H   0  0  0  0  0  0  0  0  0  0  0  0
   -7.2593   -2.6810    0.7084 H   0  0  0  0  0  0  0  0  0  0  0  0
   -6.6454   -3.3595    2.2294 H   0  0  0  0  0  0  0  0  0  0  0  0
   -8.2576   -1.5317    2.7279 H   0  0  0  0  0  0  0  0  0  0  0  0
   -6.6344   -1.0491    3.2600 H   0  0  0  0  0  0  0  0  0  0  0  0
   -0.0892    0.8688   -1.2568 H   0  0  0  0  0  0  0  0  0  0  0  0
    2.0989    3.8416   -0.4947 H   0  0  0  0  0  0  0  0  0  0  0  0
    4.0228    3.6758    0.9987 H   0  0  0  0  0  0  0  0  0  0  0  0
    4.6288    1.5136    2.0471 H   0  0  0  0  0  0  0  0  0  0  0  0
    4.0942   -3.3994   -0.6349 H   0  0  0  0  0  0  0  0  0  0  0  0
    2.8098   -2.1933   -0.6123 H   0  0  0  0  0  0  0  0  0  0  0  0
    4.1270   -1.9611   -2.6968 H   0  0  0  0  0  0  0  0  0  0  0  0
    4.3500   -0.5216   -1.7017 H   0  0  0  0  0  0  0  0  0  0  0  0
    6.6247   -3.0805   -0.3733 H   0  0  0  0  0  0  0  0  0  0  0  0
    7.6116   -1.6342   -0.6048 H   0  0  0  0  0  0  0  0  0  0  0  0
    5.8028   -0.2253    0.4025 H   0  0  0  0  0  0  0  0  0  0  0  0
    6.3793   -1.4733    1.5412 H   0  0  0  0  0  0  0  0  0  0  0  0
    1.2768   -0.3584    0.0827 H   0  0  0  0  0  0  0  0  0  0  0  0
  1  2  2  0
  2  3  1  0
  3  4  1  0
  4  5  1  0
  5  6  2  0
  5  7  1  0
  7  8  2  0
  8  9  1  0
  9 10  2  0
 10 11  1  0
 11 12  2  0
 11 13  1  0
 13 14  1  0
 14 15  1  0
 15 16  1  0
  2 17  1  0
 17 18  1  0
 18 19  2  0
 19 20  1  0
 20 21  2  0
 21 22  1  0
 22 23  1  0
 23 24  2  0
 23 25  2  0
 23 26  1  0
 26 27  1  0
 27 28  1  0
 28 29  1  0
 29 30  1  0
 30 31  1  0
 22 32  2  0
 12  7  1  0
 32 18  1  0
 16 10  1  0
 31 26  1  0
  3 33  1  0
  3 34  1  0
  8 35  1  0
  9 36  1  0
 12 37  1  0
 14 38  1  0
 14 39  1  0
 15 40  1  0
 15 41  1  0
 17 42  1  0
 19 43  1  0
 20 44  1  0
 21 45  1  0
 27 46  1  0
 27 47  1  0
 28 48  1  0
 28 49  1  0
 30 50  1  0
 30 51  1  0
 31 52  1  0
 31 53  1  0
 32 54  1  0
M  END
$$$$
