
     RDKit          3D

 61 65  0  0  0  0  0  0  0  0999 V2000
    1.6391    4.3048   -2.1433 C   0  0  0  0  0  0  0  0  0  0  0  0
    2.9976    3.9537   -1.8970 O   0  0  0  0  0  0  0  0  0  0  0  0
    3.2252    3.0632   -0.8840 C   0  0  0  0  0  0  0  0  0  0  0  0
    4.5666    2.7410   -0.6728 C   0  0  0  0  0  0  0  0  0  0  0  0
    4.9372    1.8422    0.3303 C   0  0  0  0  0  0  0  0  0  0  0  0
    3.9641    1.2597    1.1504 C   0  0  0  0  0  0  0  0  0  0  0  0
    4.3564    0.2863    2.2354 C   0  0  0  0  0  0  0  0  0  0  0  0
    4.5886   -1.0430    1.7101 N   0  0  0  0  0  0  0  0  0  0  0  0
    5.8390   -1.5678    1.6678 N   0  0  0  0  0  0  0  0  0  0  0  0
    5.7457   -2.8031    1.1736 N   0  0  0  0  0  0  0  0  0  0  0  0
    4.4312   -3.0400    0.9210 C   0  0  0  0  0  0  0  0  0  0  0  0
    3.7661   -4.1920    0.3755 C   0  0  0  0  0  0  0  0  0  0  0  0
    4.3006   -5.2424    0.0346 O   0  0  0  0  0  0  0  0  0  0  0  0
    2.3922   -3.9980    0.2670 N   0  0  0  0  0  0  0  0  0  0  0  0
    1.7278   -2.8377    0.6619 C   0  0  0  0  0  0  0  0  0  0  0  0
    0.2273   -2.8402    0.3906 C   0  0  0  0  0  0  0  0  0  0  0  0
   -0.5347   -1.8173    1.2489 C   0  0  0  0  0  0  0  0  0  0  0  0
   -1.8413   -1.3955    0.5919 C   0  0  0  0  0  0  0  0  0  0  0  0
   -1.6088   -0.7685   -0.7380 N   0  0  0  0  0  0  0  0  0  0  0  0
   -1.9510    0.9037   -0.8610 S   0  0  0  0  0  6  0  0  0  0  0  0
   -1.7399    1.3128   -2.2338 O   0  0  0  0  0  0  0  0  0  0  0  0
   -1.2610    1.5619    0.2311 O   0  0  0  0  0  0  0  0  0  0  0  0
   -3.6989    0.9760   -0.5579 C   0  0  0  0  0  0  0  0  0  0  0  0
   -4.1994    1.7804    0.4680 C   0  0  0  0  0  0  0  0  0  0  0  0
   -5.5763    1.8444    0.6782 C   0  0  0  0  0  0  0  0  0  0  0  0
   -6.4524    1.1017   -0.1246 C   0  0  0  0  0  0  0  0  0  0  0  0
   -7.9348    1.2151    0.0600 C   0  0  0  0  0  0  0  0  0  0  0  0
   -5.9352    0.3030   -1.1530 C   0  0  0  0  0  0  0  0  0  0  0  0
   -4.5585    0.2360   -1.3715 C   0  0  0  0  0  0  0  0  0  0  0  0
   -0.3352   -1.1523   -1.4012 C   0  0  0  0  0  0  0  0  0  0  0  0
   -0.0151   -2.6139   -1.1109 C   0  0  0  0  0  0  0  0  0  0  0  0
    2.3259   -1.7980    1.1710 N   0  0  0  0  0  0  0  0  0  0  0  0
    3.6685   -1.9511    1.2689 C   0  0  0  0  0  0  0  0  0  0  0  0
    2.6176    1.5843    0.9334 C   0  0  0  0  0  0  0  0  0  0  0  0
    2.2514    2.4761   -0.0780 C   0  0  0  0  0  0  0  0  0  0  0  0
    1.1906    4.7765   -1.2635 H   0  0  0  0  0  0  0  0  0  0  0  0
    1.0571    3.4328   -2.4686 H   0  0  0  0  0  0  0  0  0  0  0  0
    1.6235    5.0366   -2.9559 H   0  0  0  0  0  0  0  0  0  0  0  0
    5.3311    3.1929   -1.2970 H   0  0  0  0  0  0  0  0  0  0  0  0
    5.9888    1.5997    0.4659 H   0  0  0  0  0  0  0  0  0  0  0  0
    5.2719    0.6255    2.7401 H   0  0  0  0  0  0  0  0  0  0  0  0
    3.5750    0.2063    3.0026 H   0  0  0  0  0  0  0  0  0  0  0  0
    1.8879   -4.7837   -0.1170 H   0  0  0  0  0  0  0  0  0  0  0  0
   -0.1395   -3.8461    0.6376 H   0  0  0  0  0  0  0  0  0  0  0  0
   -0.7379   -2.2568    2.2336 H   0  0  0  0  0  0  0  0  0  0  0  0
    0.0618   -0.9165    1.4375 H   0  0  0  0  0  0  0  0  0  0  0  0
   -2.3809   -0.7208    1.2644 H   0  0  0  0  0  0  0  0  0  0  0  0
   -2.4929   -2.2648    0.4429 H   0  0  0  0  0  0  0  0  0  0  0  0
   -3.5317    2.3689    1.0918 H   0  0  0  0  0  0  0  0  0  0  0  0
   -5.9628    2.4877    1.4658 H   0  0  0  0  0  0  0  0  0  0  0  0
   -8.4150    0.2362   -0.0515 H   0  0  0  0  0  0  0  0  0  0  0  0
   -8.3491    1.8968   -0.6883 H   0  0  0  0  0  0  0  0  0  0  0  0
   -8.1820    1.5942    1.0576 H   0  0  0  0  0  0  0  0  0  0  0  0
   -6.6059   -0.2597   -1.7984 H   0  0  0  0  0  0  0  0  0  0  0  0
   -4.1623   -0.3750   -2.1798 H   0  0  0  0  0  0  0  0  0  0  0  0
   -0.4537   -1.0310   -2.4829 H   0  0  0  0  0  0  0  0  0  0  0  0
    0.4849   -0.5057   -1.0699 H   0  0  0  0  0  0  0  0  0  0  0  0
   -0.8601   -3.2349   -1.4329 H   0  0  0  0  0  0  0  0  0  0  0  0
    0.8475   -2.9229   -1.7125 H   0  0  0  0  0  0  0  0  0  0  0  0
    1.8332    1.1394    1.5432 H   0  0  0  0  0  0  0  0  0  0  0  0
    1.1953    2.6888   -0.2078 H   0  0  0  0  0  0  0  0  0  0  0  0
  1  2  1  0
  2  3  1  0
  3  4  2  0
  4  5  1  0
  5  6  2  0
  6  7  1  0
  7  8  1  0
  8  9  1  0
  9 10  2  0
 10 11  1  0
 11 12  1  0
 12 13  2  0
 12 14  1  0
 14 15  1  0
 15 16  1  0
 16 17  1  0
 17 18  1  0
 18 19  1  0
 19 20  1  0
 20 21  2  0
 20 22  2  0
 20 23  1  0
 23 24  2  0
 24 25  1  0
 25 26  2  0
 26 27  1  0
 26 28  1  0
 28 29  2  0
 19 30  1  0
 30 31  1  0
 15 32  2  0
 32 33  1  0
  6 34  1  0
 34 35  2  0
 35  3  1  0
 33  8  1  0
 33 11  2  0
 31 16  1  0
 29 23  1  0
  1 36  1  0
  1 37  1  0
  1 38  1  0
  4 39  1  0
  5 40  1  0
  7 41  1  0
  7 42  1  0
 14 43  1  0
 16 44  1  0
 17 45  1  0
 17 46  1  0
 18 47  1  0
 18 48  1  0
 24 49  1  0
 25 50  1  0
 27 51  1  0
 27 52  1  0
 27 53  1  0
 28 54  1  0
 29 55  1  0
 30 56  1  0
 30 57  1  0
 31 58  1  0
 31 59  1  0
 34 60  1  0
 35 61  1  0
M  END
$$$$
