
     RDKit          3D

 69 74  0  0  0  0  0  0  0  0999 V2000
    6.1286   -4.0746    2.1767 C   0  0  0  0  0  0  0  0  0  0  0  0
    6.2630   -2.8593    1.4560 O   0  0  0  0  0  0  0  0  0  0  0  0
    5.1132   -2.2417    1.0269 C   0  0  0  0  0  0  0  0  0  0  0  0
    3.8256   -2.7640    1.1978 C   0  0  0  0  0  0  0  0  0  0  0  0
    2.7149   -2.0535    0.7345 C   0  0  0  0  0  0  0  0  0  0  0  0
    2.8818   -0.8250    0.0797 C   0  0  0  0  0  0  0  0  0  0  0  0
    4.1683   -0.3073   -0.1058 C   0  0  0  0  0  0  0  0  0  0  0  0
    5.2855   -1.0027    0.3727 C   0  0  0  0  0  0  0  0  0  0  0  0
    6.5821   -0.5672    0.2404 O   0  0  0  0  0  0  0  0  0  0  0  0
    6.7917    0.7203   -0.3163 C   0  0  0  0  0  0  0  0  0  0  0  0
    1.6513   -0.1472   -0.4812 C   0  0  0  0  0  0  0  0  0  0  0  0
    0.5351   -0.1773    0.4804 N   0  0  0  0  0  0  0  0  0  0  0  0
   -0.6600    0.1215   -0.2000 C   0  0  0  0  0  0  0  0  0  0  0  0
   -1.2630   -0.8421   -0.9340 N   0  0  0  0  0  0  0  0  0  0  0  0
   -2.4101   -0.5672   -1.5877 C   0  0  0  0  0  0  0  0  0  0  0  0
   -3.0692   -1.7079   -2.3568 C   0  0  0  0  0  0  0  0  0  0  0  0
   -3.8689   -2.6474   -1.5318 N   0  0  0  0  0  0  0  0  0  0  0  0
   -4.3550   -3.7830   -2.3455 C   0  0  0  0  0  0  0  0  0  0  0  0
   -5.5109   -3.4277   -3.2982 C   0  0  0  0  0  0  0  0  0  0  0  0
   -6.6050   -2.8281   -2.5953 O   0  0  0  0  0  0  0  0  0  0  0  0
   -6.1768   -1.6620   -1.8793 C   0  0  0  0  0  0  0  0  0  0  0  0
   -5.0403   -1.9987   -0.8995 C   0  0  0  0  0  0  0  0  0  0  0  0
   -3.0399    0.6170   -1.6093 N   0  0  0  0  0  0  0  0  0  0  0  0
   -2.4207    1.5525   -0.8736 C   0  0  0  0  0  0  0  0  0  0  0  0
   -3.0784    3.1205   -0.7575 S   0  0  0  0  0  0  0  0  0  0  0  0
   -1.8384    3.6251    0.2885 C   0  0  0  0  0  0  0  0  0  0  0  0
   -0.9088    2.6305    0.5329 C   0  0  0  0  0  0  0  0  0  0  0  0
   -1.2497    1.4012   -0.1476 C   0  0  0  0  0  0  0  0  0  0  0  0
    0.2571    2.8522    1.4538 C   0  0  0  0  0  0  0  0  0  0  0  0
    0.4745    4.3408    1.7728 C   0  0  0  0  0  0  0  0  0  0  0  0
   -0.8522    5.0691    2.0705 C   0  0  0  0  0  0  0  0  0  0  0  0
   -0.5973    6.5164    2.4850 C   0  0  0  0  0  0  0  0  0  0  0  0
   -1.7910    5.0144    0.8462 C   0  0  0  0  0  0  0  0  0  0  0  0
    0.3981   -1.3901    1.3193 C   0  0  0  0  0  0  0  0  0  0  0  0
    1.3024   -2.5524    0.8929 C   0  0  0  0  0  0  0  0  0  0  0  0
    7.1309   -4.4029    2.4682 H   0  0  0  0  0  0  0  0  0  0  0  0
    5.6924   -4.8585    1.5495 H   0  0  0  0  0  0  0  0  0  0  0  0
    5.5483   -3.9305    3.0937 H   0  0  0  0  0  0  0  0  0  0  0  0
    3.6618   -3.7160    1.6909 H   0  0  0  0  0  0  0  0  0  0  0  0
    4.2751    0.6350   -0.6315 H   0  0  0  0  0  0  0  0  0  0  0  0
    6.4720    0.7528   -1.3620 H   0  0  0  0  0  0  0  0  0  0  0  0
    7.8663    0.9239   -0.2900 H   0  0  0  0  0  0  0  0  0  0  0  0
    6.2930    1.4945    0.2742 H   0  0  0  0  0  0  0  0  0  0  0  0
    1.4004   -0.6552   -1.4233 H   0  0  0  0  0  0  0  0  0  0  0  0
    1.8845    0.8972   -0.7225 H   0  0  0  0  0  0  0  0  0  0  0  0
   -3.6620   -1.2759   -3.1717 H   0  0  0  0  0  0  0  0  0  0  0  0
   -2.2540   -2.2676   -2.8342 H   0  0  0  0  0  0  0  0  0  0  0  0
   -4.7083   -4.5545   -1.6487 H   0  0  0  0  0  0  0  0  0  0  0  0
   -3.5298   -4.2377   -2.9063 H   0  0  0  0  0  0  0  0  0  0  0  0
   -5.1847   -2.7535   -4.0984 H   0  0  0  0  0  0  0  0  0  0  0  0
   -5.8876   -4.3397   -3.7736 H   0  0  0  0  0  0  0  0  0  0  0  0
   -7.0417   -1.2857   -1.3233 H   0  0  0  0  0  0  0  0  0  0  0  0
   -5.8833   -0.8855   -2.5944 H   0  0  0  0  0  0  0  0  0  0  0  0
   -5.4321   -2.7042   -0.1548 H   0  0  0  0  0  0  0  0  0  0  0  0
   -4.7505   -1.1084   -0.3323 H   0  0  0  0  0  0  0  0  0  0  0  0
    0.0705    2.3059    2.3866 H   0  0  0  0  0  0  0  0  0  0  0  0
    1.1784    2.4550    1.0165 H   0  0  0  0  0  0  0  0  0  0  0  0
    1.1580    4.4259    2.6257 H   0  0  0  0  0  0  0  0  0  0  0  0
    0.9703    4.8246    0.9211 H   0  0  0  0  0  0  0  0  0  0  0  0
   -1.3413    4.5567    2.9102 H   0  0  0  0  0  0  0  0  0  0  0  0
    0.0259    6.5575    3.3845 H   0  0  0  0  0  0  0  0  0  0  0  0
   -0.0842    7.0750    1.6955 H   0  0  0  0  0  0  0  0  0  0  0  0
   -1.5390    7.0284    2.7062 H   0  0  0  0  0  0  0  0  0  0  0  0
   -1.4299    5.6941    0.0641 H   0  0  0  0  0  0  0  0  0  0  0  0
   -2.7928    5.3501    1.1404 H   0  0  0  0  0  0  0  0  0  0  0  0
   -0.6393   -1.7425    1.3967 H   0  0  0  0  0  0  0  0  0  0  0  0
    0.6778   -1.0911    2.3387 H   0  0  0  0  0  0  0  0  0  0  0  0
    1.2523   -3.3449    1.6480 H   0  0  0  0  0  0  0  0  0  0  0  0
    0.9649   -2.9771   -0.0601 H   0  0  0  0  0  0  0  0  0  0  0  0
  1  2  1  0
  2  3  1  0
  3  4  2  0
  4  5  1  0
  5  6  2  0
  6  7  1  0
  7  8  2  0
  8  9  1  0
  9 10  1  0
  6 11  1  0
 11 12  1  0
 12 13  1  0
 13 14  2  0
 14 15  1  0
 15 16  1  0
 16 17  1  0
 17 18  1  0
 18 19  1  0
 19 20  1  0
 20 21  1  0
 21 22  1  0
 15 23  2  0
 23 24  1  0
 24 25  1  0
 25 26  1  0
 26 27  2  0
 27 28  1  0
 27 29  1  0
 29 30  1  0
 30 31  1  0
 31 32  1  0
 31 33  1  0
 12 34  1  0
 34 35  1  0
  8  3  1  0
 28 13  1  0
 35  5  1  0
 22 17  1  0
 28 24  2  0
 33 26  1  0
  1 36  1  0
  1 37  1  0
  1 38  1  0
  4 39  1  0
  7 40  1  0
 10 41  1  0
 10 42  1  0
 10 43  1  0
 11 44  1  0
 11 45  1  0
 16 46  1  0
 16 47  1  0
 18 48  1  0
 18 49  1  0
 19 50  1  0
 19 51  1  0
 21 52  1  0
 21 53  1  0
 22 54  1  0
 22 55  1  0
 29 56  1  0
 29 57  1  0
 30 58  1  0
 30 59  1  0
 31 60  1  0
 32 61  1  0
 32 62  1  0
 32 63  1  0
 33 64  1  0
 33 65  1  0
 34 66  1  0
 34 67  1  0
 35 68  1  0
 35 69  1  0
M  END
$$$$
