
     RDKit          3D

 39 41  0  0  0  0  0  0  0  0999 V2000
   -4.7210   -1.7284   -1.6368 C   0  0  0  0  0  0  0  0  0  0  0  0
   -4.1946   -1.7008   -0.2127 C   0  0  0  0  0  0  0  0  0  0  0  0
   -3.1188   -0.7372   -0.0416 N   0  0  0  0  0  0  0  0  0  0  0  0
   -1.7843   -1.0498   -0.1290 C   0  0  0  0  0  0  0  0  0  0  0  0
   -1.0591    0.0998    0.0982 C   0  0  0  0  0  0  0  0  0  0  0  0
    0.3671    0.2172    0.0913 C   0  0  0  0  0  0  0  0  0  0  0  0
    1.2429   -0.7934   -0.0465 C   0  0  0  0  0  0  0  0  0  0  0  0
    2.6982   -0.6119   -0.0421 C   0  0  0  0  0  0  0  0  0  0  0  0
    3.3196    0.4079   -0.7614 C   0  0  0  0  0  0  0  0  0  0  0  0
    4.7053    0.5181   -0.7437 C   0  0  0  0  0  0  0  0  0  0  0  0
    5.4566   -0.3558   -0.0373 N   0  0  0  0  0  4  0  0  0  0  0  0
    6.9234   -0.2233   -0.0398 C   0  0  0  0  0  0  0  0  0  0  0  0
    4.8775   -1.3660    0.6492 C   0  0  0  0  0  0  0  0  0  0  0  0
    3.4953   -1.5158    0.6571 C   0  0  0  0  0  0  0  0  0  0  0  0
   -1.9956    1.1562    0.3342 C   0  0  0  0  0  0  0  0  0  0  0  0
   -1.8774    2.5352    0.6203 C   0  0  0  0  0  0  0  0  0  0  0  0
   -3.0273    3.3116    0.7995 C   0  0  0  0  0  0  0  0  0  0  0  0
   -4.2892    2.7375    0.6981 C   0  0  0  0  0  0  0  0  0  0  0  0
   -4.4379    1.3770    0.4175 C   0  0  0  0  0  0  0  0  0  0  0  0
   -3.2783    0.6036    0.2407 C   0  0  0  0  0  0  0  0  0  0  0  0
   -5.5192   -2.4709   -1.7319 H   0  0  0  0  0  0  0  0  0  0  0  0
   -3.9272   -1.9873   -2.3455 H   0  0  0  0  0  0  0  0  0  0  0  0
   -5.1251   -0.7540   -1.9305 H   0  0  0  0  0  0  0  0  0  0  0  0
   -3.8060   -2.6863    0.0683 H   0  0  0  0  0  0  0  0  0  0  0  0
   -4.9909   -1.4510    0.4961 H   0  0  0  0  0  0  0  0  0  0  0  0
   -1.4767   -2.0627   -0.3506 H   0  0  0  0  0  0  0  0  0  0  0  0
    0.7498    1.2264    0.2256 H   0  0  0  0  0  0  0  0  0  0  0  0
    0.8906   -1.8175   -0.1463 H   0  0  0  0  0  0  0  0  0  0  0  0
    2.7346    1.1136   -1.3486 H   0  0  0  0  0  0  0  0  0  0  0  0
    5.2218    1.2983   -1.2959 H   0  0  0  0  0  0  0  0  0  0  0  0
    7.1875    0.8319   -0.1480 H   0  0  0  0  0  0  0  0  0  0  0  0
    7.3032   -0.8086   -0.8808 H   0  0  0  0  0  0  0  0  0  0  0  0
    7.3188   -0.5993    0.9073 H   0  0  0  0  0  0  0  0  0  0  0  0
    5.5279   -2.0504    1.1867 H   0  0  0  0  0  0  0  0  0  0  0  0
    3.0467   -2.3337    1.2186 H   0  0  0  0  0  0  0  0  0  0  0  0
   -0.9012    3.0015    0.7046 H   0  0  0  0  0  0  0  0  0  0  0  0
   -2.9335    4.3721    1.0199 H   0  0  0  0  0  0  0  0  0  0  0  0
   -5.1743    3.3541    0.8390 H   0  0  0  0  0  0  0  0  0  0  0  0
   -5.4294    0.9421    0.3392 H   0  0  0  0  0  0  0  0  0  0  0  0
  1  2  1  0
  2  3  1  0
  3  4  1  0
  4  5  2  0
  5  6  1  0
  6  7  2  3
  7  8  1  0
  8  9  2  0
  9 10  1  0
 10 11  2  0
 11 12  1  0
 11 13  1  0
 13 14  2  0
  5 15  1  0
 15 16  2  0
 16 17  1  0
 17 18  2  0
 18 19  1  0
 19 20  2  0
 20  3  1  0
 14  8  1  0
 20 15  1  0
  1 21  1  0
  1 22  1  0
  1 23  1  0
  2 24  1  0
  2 25  1  0
  4 26  1  0
  6 27  1  0
  7 28  1  0
  9 29  1  0
 10 30  1  0
 12 31  1  0
 12 32  1  0
 12 33  1  0
 13 34  1  0
 14 35  1  0
 16 36  1  0
 17 37  1  0
 18 38  1  0
 19 39  1  0
M  CHG  1  11   1
M  END
$$$$
