
     RDKit          3D

 61 66  0  0  0  0  0  0  0  0999 V2000
    7.3541    3.0329    1.4050 F   0  0  0  0  0  0  0  0  0  0  0  0
    7.0761    2.9597    0.0733 C   0  0  0  0  0  0  0  0  0  0  0  0
    6.1776    3.9520   -0.1757 F   0  0  0  0  0  0  0  0  0  0  0  0
    8.2237    3.3289   -0.5633 F   0  0  0  0  0  0  0  0  0  0  0  0
    6.5686    1.6041   -0.3493 C   0  0  0  0  0  0  0  0  0  0  0  0
    6.9589    1.0368   -1.5709 C   0  0  0  0  0  0  0  0  0  0  0  0
    6.4650   -0.2073   -1.9633 C   0  0  0  0  0  0  0  0  0  0  0  0
    5.5704   -0.8964   -1.1442 C   0  0  0  0  0  0  0  0  0  0  0  0
    5.1568   -0.3472    0.0764 C   0  0  0  0  0  0  0  0  0  0  0  0
    4.1895   -1.0944    0.9721 C   0  0  0  0  0  0  0  0  0  0  0  0
    2.9626   -0.3356    1.2631 N   0  0  0  0  0  0  0  0  0  0  0  0
    2.1493   -1.0052    2.3037 C   0  0  0  0  0  0  0  0  0  0  0  0
    0.9345   -1.7941    1.7757 C   0  0  0  0  0  0  0  0  0  0  0  0
    0.0221   -0.9166    1.0244 N   0  0  0  0  0  0  0  0  0  0  0  0
   -1.2310   -1.3943    0.6553 C   0  0  0  0  0  0  0  0  0  0  0  0
   -1.4306   -2.6898    0.6970 N   0  0  0  0  0  0  0  0  0  0  0  0
   -2.6629   -3.2442    0.3021 C   0  0  0  0  0  0  0  0  0  0  0  0
   -2.8121   -4.6317    0.3532 C   0  0  0  0  0  0  0  0  0  0  0  0
   -4.0102   -5.2361   -0.0371 C   0  0  0  0  0  0  0  0  0  0  0  0
   -5.0750   -4.4537   -0.4855 C   0  0  0  0  0  0  0  0  0  0  0  0
   -4.9480   -3.0654   -0.5445 C   0  0  0  0  0  0  0  0  0  0  0  0
   -3.7427   -2.4750   -0.1505 C   0  0  0  0  0  0  0  0  0  0  0  0
   -3.5338   -1.0862   -0.1630 N   0  0  0  0  0  0  0  0  0  0  0  0
   -4.3995   -0.0797   -0.5205 C   0  0  0  0  0  0  0  0  0  0  0  0
   -3.7799    1.1346   -0.2934 C   0  0  0  0  0  0  0  0  0  0  0  0
   -4.4141    2.4267   -0.5106 C   0  0  0  0  0  0  0  0  0  0  0  0
   -4.1439    3.4958    0.3542 C   0  0  0  0  0  0  0  0  0  0  0  0
   -4.7439    4.7419    0.1536 C   0  0  0  0  0  0  0  0  0  0  0  0
   -5.6169    4.9325   -0.9151 C   0  0  0  0  0  0  0  0  0  0  0  0
   -5.8907    3.8786   -1.7841 C   0  0  0  0  0  0  0  0  0  0  0  0
   -5.2923    2.6315   -1.5836 C   0  0  0  0  0  0  0  0  0  0  0  0
   -2.4851    0.8360    0.2122 C   0  0  0  0  0  0  0  0  0  0  0  0
   -2.3355   -0.5398    0.2415 C   0  0  0  0  0  0  0  0  0  0  0  0
    0.6722    0.1911    0.3077 C   0  0  0  0  0  0  0  0  0  0  0  0
    2.1634   -0.1070    0.0357 C   0  0  0  0  0  0  0  0  0  0  0  0
    5.6638    0.9036    0.4647 C   0  0  0  0  0  0  0  0  0  0  0  0
    7.6528    1.5641   -2.2238 H   0  0  0  0  0  0  0  0  0  0  0  0
    6.7768   -0.6406   -2.9108 H   0  0  0  0  0  0  0  0  0  0  0  0
    5.1951   -1.8646   -1.4682 H   0  0  0  0  0  0  0  0  0  0  0  0
    3.9454   -2.0748    0.5419 H   0  0  0  0  0  0  0  0  0  0  0  0
    4.7317   -1.2948    1.9062 H   0  0  0  0  0  0  0  0  0  0  0  0
    1.7786   -0.2157    2.9705 H   0  0  0  0  0  0  0  0  0  0  0  0
    2.7626   -1.6580    2.9363 H   0  0  0  0  0  0  0  0  0  0  0  0
    1.2746   -2.6191    1.1372 H   0  0  0  0  0  0  0  0  0  0  0  0
    0.4049   -2.2273    2.6330 H   0  0  0  0  0  0  0  0  0  0  0  0
   -1.9837   -5.2435    0.7003 H   0  0  0  0  0  0  0  0  0  0  0  0
   -4.1098   -6.3175    0.0098 H   0  0  0  0  0  0  0  0  0  0  0  0
   -6.0061   -4.9275   -0.7880 H   0  0  0  0  0  0  0  0  0  0  0  0
   -5.7913   -2.4787   -0.8930 H   0  0  0  0  0  0  0  0  0  0  0  0
   -5.3967   -0.2968   -0.8749 H   0  0  0  0  0  0  0  0  0  0  0  0
   -3.4748    3.3664    1.2013 H   0  0  0  0  0  0  0  0  0  0  0  0
   -4.5305    5.5618    0.8345 H   0  0  0  0  0  0  0  0  0  0  0  0
   -6.0832    5.9019   -1.0710 H   0  0  0  0  0  0  0  0  0  0  0  0
   -6.5679    4.0263   -2.6210 H   0  0  0  0  0  0  0  0  0  0  0  0
   -5.5093    1.8278   -2.2825 H   0  0  0  0  0  0  0  0  0  0  0  0
   -1.7409    1.5583    0.5172 H   0  0  0  0  0  0  0  0  0  0  0  0
    0.5811    1.1067    0.9033 H   0  0  0  0  0  0  0  0  0  0  0  0
    0.1881    0.3673   -0.6596 H   0  0  0  0  0  0  0  0  0  0  0  0
    2.5896    0.7385   -0.5163 H   0  0  0  0  0  0  0  0  0  0  0  0
    2.2123   -0.9851   -0.6231 H   0  0  0  0  0  0  0  0  0  0  0  0
    5.3400    1.3381    1.4110 H   0  0  0  0  0  0  0  0  0  0  0  0
  1  2  1  0
  2  3  1  0
  2  4  1  0
  2  5  1  0
  5  6  2  0
  6  7  1  0
  7  8  2  0
  8  9  1  0
  9 10  1  0
 10 11  1  0
 11 12  1  0
 12 13  1  0
 13 14  1  0
 14 15  1  0
 15 16  2  0
 16 17  1  0
 17 18  2  0
 18 19  1  0
 19 20  2  0
 20 21  1  0
 21 22  2  0
 22 23  1  0
 23 24  1  0
 24 25  2  0
 25 26  1  0
 26 27  2  0
 27 28  1  0
 28 29  2  0
 29 30  1  0
 30 31  2  0
 25 32  1  0
 32 33  2  0
 14 34  1  0
 34 35  1  0
  9 36  2  0
 36  5  1  0
 35 11  1  0
 33 15  1  0
 22 17  1  0
 33 23  1  0
 31 26  1  0
  6 37  1  0
  7 38  1  0
  8 39  1  0
 10 40  1  0
 10 41  1  0
 12 42  1  0
 12 43  1  0
 13 44  1  0
 13 45  1  0
 18 46  1  0
 19 47  1  0
 20 48  1  0
 21 49  1  0
 24 50  1  0
 27 51  1  0
 28 52  1  0
 29 53  1  0
 30 54  1  0
 31 55  1  0
 32 56  1  0
 34 57  1  0
 34 58  1  0
 35 59  1  0
 35 60  1  0
 36 61  1  0
M  END
$$$$
