
     RDKit          3D

 31 32  0  0  0  0  0  0  0  0999 V2000
   -2.4988    1.3668    1.8695 C   0  0  0  0  0  0  0  0  0  0  0  0
   -2.2862   -0.0631    1.3932 C   0  0  0  0  0  0  0  0  0  0  0  0
   -1.7213   -0.0890    0.0360 N   0  0  0  0  0  0  0  0  0  0  0  0
   -2.7007   -0.1577   -1.0578 C   0  0  0  0  0  0  0  0  0  0  0  0
   -2.9786   -1.6013   -1.4522 C   0  0  0  0  0  0  0  0  0  0  0  0
   -0.3519   -0.0478   -0.1959 C   0  0  0  0  0  0  0  0  0  0  0  0
    0.2004   -0.1972   -1.4796 C   0  0  0  0  0  0  0  0  0  0  0  0
    1.5864   -0.1573   -1.7259 C   0  0  0  0  0  0  0  0  0  0  0  0
    2.4964    0.0371   -0.6870 C   0  0  0  0  0  0  0  0  0  0  0  0
    3.9554    0.0948   -0.8380 C   0  0  0  0  0  0  0  0  0  0  0  0
    4.6099   -0.0954   -2.4389 Cl  0  0  0  0  0  0  0  0  0  0  0  0
    4.7511    0.2884    0.2292 C   0  0  0  0  0  0  0  0  0  0  0  0
    6.6313    0.3768    0.1341 Br  0  0  0  0  0  0  0  0  0  0  0  0
    4.1703    0.4489    1.5901 C   0  0  0  0  0  0  0  0  0  0  0  0
    4.8581    0.6277    2.5903 O   0  0  0  0  0  0  0  0  0  0  0  0
    2.7882    0.3886    1.6978 O   0  0  0  0  0  0  0  0  0  0  0  0
    1.9599    0.1854    0.5812 C   0  0  0  0  0  0  0  0  0  0  0  0
    0.5805    0.1455    0.8325 C   0  0  0  0  0  0  0  0  0  0  0  0
   -2.9393    1.3694    2.8714 H   0  0  0  0  0  0  0  0  0  0  0  0
   -1.5587    1.9250    1.9111 H   0  0  0  0  0  0  0  0  0  0  0  0
   -3.1758    1.9077    1.2000 H   0  0  0  0  0  0  0  0  0  0  0  0
   -3.2560   -0.5773    1.3988 H   0  0  0  0  0  0  0  0  0  0  0  0
   -1.6687   -0.6255    2.1024 H   0  0  0  0  0  0  0  0  0  0  0  0
   -2.3850    0.4326   -1.9252 H   0  0  0  0  0  0  0  0  0  0  0  0
   -3.6449    0.3009   -0.7370 H   0  0  0  0  0  0  0  0  0  0  0  0
   -2.0754   -2.1062   -1.8079 H   0  0  0  0  0  0  0  0  0  0  0  0
   -3.3652   -2.1736   -0.6024 H   0  0  0  0  0  0  0  0  0  0  0  0
   -3.7245   -1.6371   -2.2523 H   0  0  0  0  0  0  0  0  0  0  0  0
   -0.4362   -0.3633   -2.3442 H   0  0  0  0  0  0  0  0  0  0  0  0
    1.9155   -0.2859   -2.7545 H   0  0  0  0  0  0  0  0  0  0  0  0
    0.2640    0.2825    1.8614 H   0  0  0  0  0  0  0  0  0  0  0  0
  1  2  1  0
  2  3  1  0
  3  4  1  0
  4  5  1  0
  3  6  1  0
  6  7  2  0
  7  8  1  0
  8  9  2  0
  9 10  1  0
 10 11  1  0
 10 12  2  0
 12 13  1  0
 12 14  1  0
 14 15  2  0
 14 16  1  0
 16 17  1  0
 17 18  2  0
 18  6  1  0
 17  9  1  0
  1 19  1  0
  1 20  1  0
  1 21  1  0
  2 22  1  0
  2 23  1  0
  4 24  1  0
  4 25  1  0
  5 26  1  0
  5 27  1  0
  5 28  1  0
  7 29  1  0
  8 30  1  0
 18 31  1  0
M  END
$$$$
