
     RDKit          3D

 30 31  0  0  0  0  0  0  0  0999 V2000
   -3.0261    1.1669    0.0280 C   0  0  0  0  0  0  0  0  0  0  0  0
   -3.3052   -0.3133    0.3058 C   0  0  0  0  0  0  0  0  0  0  0  0
   -4.8103   -0.5679    0.2063 C   0  0  0  0  0  0  0  0  0  0  0  0
   -2.9324   -0.6580    1.6476 O   0  0  0  0  0  0  0  0  0  0  0  0
   -1.6493   -0.9475    1.9155 C   0  0  0  0  0  0  0  0  0  0  0  0
   -1.2260   -1.2324    3.0204 O   0  0  0  0  0  0  0  0  0  0  0  0
   -0.7752   -0.9288    0.6919 C   0  0  0  0  0  0  0  0  0  0  0  0
    0.4201   -0.4165    0.7755 N   0  0  0  0  0  0  0  0  0  0  0  0
    1.1655   -0.3852   -0.3671 N   0  0  0  0  0  0  0  0  0  0  0  0
    2.5016    0.0678   -0.2759 C   0  0  0  0  0  0  0  0  0  0  0  0
    2.9837    0.7683    0.8372 C   0  0  0  0  0  0  0  0  0  0  0  0
    4.2917    1.2606    0.8663 C   0  0  0  0  0  0  0  0  0  0  0  0
    5.1299    1.0784   -0.2307 C   0  0  0  0  0  0  0  0  0  0  0  0
    4.6576    0.4122   -1.3587 C   0  0  0  0  0  0  0  0  0  0  0  0
    3.3492   -0.0795   -1.3836 C   0  0  0  0  0  0  0  0  0  0  0  0
   -1.3951   -1.4431   -0.5777 C   0  0  0  0  0  0  0  0  0  0  0  0
   -0.7520   -2.0781   -1.3972 O   0  0  0  0  0  0  0  0  0  0  0  0
   -2.6958   -1.1426   -0.6946 O   0  0  0  0  0  0  0  0  0  0  0  0
   -3.5292    1.8068    0.7608 H   0  0  0  0  0  0  0  0  0  0  0  0
   -1.9578    1.3973    0.0890 H   0  0  0  0  0  0  0  0  0  0  0  0
   -3.3524    1.4469   -0.9793 H   0  0  0  0  0  0  0  0  0  0  0  0
   -5.0318   -1.6238    0.4022 H   0  0  0  0  0  0  0  0  0  0  0  0
   -5.1901   -0.3394   -0.7954 H   0  0  0  0  0  0  0  0  0  0  0  0
   -5.3660    0.0202    0.9446 H   0  0  0  0  0  0  0  0  0  0  0  0
    1.0594   -1.1477   -1.0488 H   0  0  0  0  0  0  0  0  0  0  0  0
    2.3407    0.9300    1.6987 H   0  0  0  0  0  0  0  0  0  0  0  0
    4.6499    1.7890    1.7456 H   0  0  0  0  0  0  0  0  0  0  0  0
    6.1463    1.4621   -0.2090 H   0  0  0  0  0  0  0  0  0  0  0  0
    5.3037    0.2791   -2.2222 H   0  0  0  0  0  0  0  0  0  0  0  0
    2.9954   -0.5817   -2.2803 H   0  0  0  0  0  0  0  0  0  0  0  0
  1  2  1  0
  2  3  1  0
  2  4  1  0
  4  5  1  0
  5  6  2  0
  5  7  1  0
  7  8  2  3
  8  9  1  0
  9 10  1  0
 10 11  2  0
 11 12  1  0
 12 13  2  0
 13 14  1  0
 14 15  2  0
  7 16  1  0
 16 17  2  0
 16 18  1  0
 18  2  1  0
 15 10  1  0
  1 19  1  0
  1 20  1  0
  1 21  1  0
  3 22  1  0
  3 23  1  0
  3 24  1  0
  9 25  1  0
 11 26  1  0
 12 27  1  0
 13 28  1  0
 14 29  1  0
 15 30  1  0
M  END
$$$$
