
     RDKit          3D

 45 47  0  0  0  0  0  0  0  0999 V2000
   -8.3661    1.3238    3.0247 C   0  0  0  0  0  0  0  0  0  0  0  0
   -7.1259    1.5574    3.6795 O   0  0  0  0  0  0  0  0  0  0  0  0
   -6.0315    0.9058    3.1817 C   0  0  0  0  0  0  0  0  0  0  0  0
   -6.0206    0.0251    2.1006 C   0  0  0  0  0  0  0  0  0  0  0  0
   -4.8238   -0.5761    1.6933 C   0  0  0  0  0  0  0  0  0  0  0  0
   -3.6246   -0.3074    2.3646 C   0  0  0  0  0  0  0  0  0  0  0  0
   -2.3333   -0.9400    1.9140 C   0  0  0  0  0  0  0  0  0  0  0  0
   -1.5819   -0.0611    0.9149 C   0  0  0  0  0  0  0  0  0  0  0  0
   -0.3552   -0.6937    0.4623 N   0  0  0  0  0  0  0  0  0  0  0  0
    0.6415    0.0525   -0.1473 C   0  0  0  0  0  0  0  0  0  0  0  0
    0.5731    1.2772   -0.2167 O   0  0  0  0  0  0  0  0  0  0  0  0
    1.7383   -0.7231   -0.6999 C   0  0  0  0  0  0  0  0  0  0  0  0
    2.0567   -2.0693   -0.6864 C   0  0  0  0  0  0  0  0  0  0  0  0
    3.2663   -2.2143   -1.4129 C   0  0  0  0  0  0  0  0  0  0  0  0
    3.6396   -0.9512   -1.8227 C   0  0  0  0  0  0  0  0  0  0  0  0
    4.7487   -0.3844   -2.5894 C   0  0  0  0  0  0  0  0  0  0  0  0
    4.4846    0.7142   -3.4338 C   0  0  0  0  0  0  0  0  0  0  0  0
    5.4899    1.3015   -4.2079 C   0  0  0  0  0  0  0  0  0  0  0  0
    6.7884    0.7919   -4.1433 C   0  0  0  0  0  0  0  0  0  0  0  0
    7.8517    1.3988   -4.9531 N   0  0  0  0  0  4  0  0  0  0  0  0
    8.9912    0.9227   -4.8553 O   0  0  0  0  0  0  0  0  0  0  0  0
    7.5454    2.3471   -5.6889 O   0  0  0  0  0  1  0  0  0  0  0  0
    7.0837   -0.2917   -3.3096 C   0  0  0  0  0  0  0  0  0  0  0  0
    6.0686   -0.8731   -2.5363 C   0  0  0  0  0  0  0  0  0  0  0  0
    6.5492   -2.1761   -1.5021 Cl  0  0  0  0  0  0  0  0  0  0  0  0
    2.7066   -0.0495   -1.3963 O   0  0  0  0  0  0  0  0  0  0  0  0
   -3.6397    0.5814    3.4449 C   0  0  0  0  0  0  0  0  0  0  0  0
   -4.8357    1.1792    3.8486 C   0  0  0  0  0  0  0  0  0  0  0  0
   -8.6583    0.2710    3.0967 H   0  0  0  0  0  0  0  0  0  0  0  0
   -9.1308    1.9168    3.5357 H   0  0  0  0  0  0  0  0  0  0  0  0
   -8.3304    1.6545    1.9814 H   0  0  0  0  0  0  0  0  0  0  0  0
   -6.9242   -0.2157    1.5510 H   0  0  0  0  0  0  0  0  0  0  0  0
   -4.8390   -1.2571    0.8451 H   0  0  0  0  0  0  0  0  0  0  0  0
   -2.5411   -1.9223    1.4698 H   0  0  0  0  0  0  0  0  0  0  0  0
   -1.6996   -1.1435    2.7870 H   0  0  0  0  0  0  0  0  0  0  0  0
   -1.3400    0.9110    1.3607 H   0  0  0  0  0  0  0  0  0  0  0  0
   -2.1937    0.1309    0.0255 H   0  0  0  0  0  0  0  0  0  0  0  0
   -0.3732   -1.6871    0.2849 H   0  0  0  0  0  0  0  0  0  0  0  0
    1.4960   -2.8613   -0.2118 H   0  0  0  0  0  0  0  0  0  0  0  0
    3.7948   -3.1366   -1.6109 H   0  0  0  0  0  0  0  0  0  0  0  0
    3.4752    1.1238   -3.4941 H   0  0  0  0  0  0  0  0  0  0  0  0
    5.2404    2.1478   -4.8456 H   0  0  0  0  0  0  0  0  0  0  0  0
    8.0969   -0.6854   -3.2478 H   0  0  0  0  0  0  0  0  0  0  0  0
   -2.7230    0.8181    3.9807 H   0  0  0  0  0  0  0  0  0  0  0  0
   -4.8353    1.8677    4.6903 H   0  0  0  0  0  0  0  0  0  0  0  0
  1  2  1  0
  2  3  1  0
  3  4  2  0
  4  5  1  0
  5  6  2  0
  6  7  1  0
  7  8  1  0
  8  9  1  0
  9 10  1  0
 10 11  2  0
 10 12  1  0
 12 13  2  0
 13 14  1  0
 14 15  2  0
 15 16  1  0
 16 17  2  0
 17 18  1  0
 18 19  2  0
 19 20  1  0
 20 21  2  0
 20 22  1  0
 19 23  1  0
 23 24  2  0
 24 25  1  0
 15 26  1  0
  6 27  1  0
 27 28  2  0
 28  3  1  0
 26 12  1  0
 24 16  1  0
  1 29  1  0
  1 30  1  0
  1 31  1  0
  4 32  1  0
  5 33  1  0
  7 34  1  0
  7 35  1  0
  8 36  1  0
  8 37  1  0
  9 38  1  0
 13 39  1  0
 14 40  1  0
 17 41  1  0
 18 42  1  0
 23 43  1  0
 27 44  1  0
 28 45  1  0
M  CHG  2  20   1  22  -1
M  END
$$$$
