
     RDKit          3D

 47 50  0  0  0  0  0  0  0  0999 V2000
   -2.3020   -3.2493    0.5249 C   0  0  0  0  0  0  0  0  0  0  0  0
   -1.4503   -2.0182    0.6494 C   0  0  0  0  0  0  0  0  0  0  0  0
   -0.1612   -2.1686    0.7776 N   0  0  0  0  0  0  0  0  0  0  0  0
    0.6835   -1.0565    0.8766 N   0  0  0  0  0  0  0  0  0  0  0  0
    2.1100   -1.3283    0.9150 C   0  0  0  0  0  0  0  0  0  0  0  0
    2.7297   -1.2230   -0.4805 C   0  0  0  0  0  0  0  0  0  0  0  0
    2.0844   -1.1201   -1.5208 O   0  0  0  0  0  0  0  0  0  0  0  0
    4.1101   -1.2785   -0.4713 N   0  0  0  0  0  0  0  0  0  0  0  0
    4.8495   -1.2874   -1.7114 C   0  0  0  0  0  0  0  0  0  0  0  0
    6.2947   -1.0802   -1.3966 C   0  0  0  0  0  0  0  0  0  0  0  0
    6.9723    0.1146   -1.2455 C   0  0  0  0  0  0  0  0  0  0  0  0
    8.3504   -0.0780   -0.9405 C   0  0  0  0  0  0  0  0  0  0  0  0
    8.6799   -1.4126   -0.8672 C   0  0  0  0  0  0  0  0  0  0  0  0
    7.3331   -2.4237   -1.1622 S   0  0  0  0  0  0  0  0  0  0  0  0
    0.2675    0.2891    0.8636 C   0  0  0  0  0  0  0  0  0  0  0  0
    1.0441    1.2377    0.9625 O   0  0  0  0  0  0  0  0  0  0  0  0
   -1.1772    0.4276    0.7423 C   0  0  0  0  0  0  0  0  0  0  0  0
   -1.8687    1.5691    0.7557 N   0  0  0  0  0  0  0  0  0  0  0  0
   -3.1584    1.2032    0.5214 N   0  0  0  0  0  0  0  0  0  0  0  0
   -4.1193    2.2259    0.2463 C   0  0  0  0  0  0  0  0  0  0  0  0
   -3.7996    3.5584    0.5617 C   0  0  0  0  0  0  0  0  0  0  0  0
   -4.7067    4.5894    0.3057 C   0  0  0  0  0  0  0  0  0  0  0  0
   -5.9357    4.3053   -0.2821 C   0  0  0  0  0  0  0  0  0  0  0  0
   -6.2526    2.9928   -0.6248 C   0  0  0  0  0  0  0  0  0  0  0  0
   -5.3476    1.9563   -0.3691 C   0  0  0  0  0  0  0  0  0  0  0  0
   -3.3041   -0.1879    0.6008 C   0  0  0  0  0  0  0  0  0  0  0  0
   -4.6056   -0.8989    0.6872 C   0  0  0  0  0  0  0  0  0  0  0  0
   -2.0133   -0.6895    0.6400 C   0  0  0  0  0  0  0  0  0  0  0  0
   -2.8442   -3.4134    1.4599 H   0  0  0  0  0  0  0  0  0  0  0  0
   -3.0114   -3.1384   -0.2992 H   0  0  0  0  0  0  0  0  0  0  0  0
   -1.6766   -4.1255    0.3289 H   0  0  0  0  0  0  0  0  0  0  0  0
    2.6026   -0.6106    1.5800 H   0  0  0  0  0  0  0  0  0  0  0  0
    2.2747   -2.3397    1.3019 H   0  0  0  0  0  0  0  0  0  0  0  0
    4.5951   -1.5516    0.3734 H   0  0  0  0  0  0  0  0  0  0  0  0
    4.6667   -2.2431   -2.2150 H   0  0  0  0  0  0  0  0  0  0  0  0
    4.4732   -0.4896   -2.3617 H   0  0  0  0  0  0  0  0  0  0  0  0
    6.4976    1.0839   -1.3486 H   0  0  0  0  0  0  0  0  0  0  0  0
    9.0635    0.7223   -0.7837 H   0  0  0  0  0  0  0  0  0  0  0  0
    9.6481   -1.8448   -0.6544 H   0  0  0  0  0  0  0  0  0  0  0  0
   -2.8440    3.8109    1.0202 H   0  0  0  0  0  0  0  0  0  0  0  0
   -4.4474    5.6133    0.5627 H   0  0  0  0  0  0  0  0  0  0  0  0
   -6.6395    5.1080   -0.4862 H   0  0  0  0  0  0  0  0  0  0  0  0
   -7.2024    2.7762   -1.1080 H   0  0  0  0  0  0  0  0  0  0  0  0
   -5.6212    0.9657   -0.7109 H   0  0  0  0  0  0  0  0  0  0  0  0
   -4.9592   -1.1841   -0.3079 H   0  0  0  0  0  0  0  0  0  0  0  0
   -5.3687   -0.2978    1.1901 H   0  0  0  0  0  0  0  0  0  0  0  0
   -4.5138   -1.8105    1.2841 H   0  0  0  0  0  0  0  0  0  0  0  0
  1  2  1  0
  2  3  2  0
  3  4  1  0
  4  5  1  0
  5  6  1  0
  6  7  2  0
  6  8  1  0
  8  9  1  0
  9 10  1  0
 10 11  2  0
 11 12  1  0
 12 13  2  0
 13 14  1  0
  4 15  1  0
 15 16  2  0
 15 17  1  0
 17 18  2  0
 18 19  1  0
 19 20  1  0
 20 21  2  0
 21 22  1  0
 22 23  2  0
 23 24  1  0
 24 25  2  0
 19 26  1  0
 26 27  1  0
 26 28  2  0
 28  2  1  0
 14 10  1  0
 28 17  1  0
 25 20  1  0
  1 29  1  0
  1 30  1  0
  1 31  1  0
  5 32  1  0
  5 33  1  0
  8 34  1  0
  9 35  1  0
  9 36  1  0
 11 37  1  0
 12 38  1  0
 13 39  1  0
 21 40  1  0
 22 41  1  0
 23 42  1  0
 24 43  1  0
 25 44  1  0
 27 45  1  0
 27 46  1  0
 27 47  1  0
M  END
$$$$
