
     RDKit          3D

 37 39  0  0  0  0  0  0  0  0999 V2000
    6.4231   -0.4742   -1.6513 C   0  0  0  0  0  0  0  0  0  0  0  0
    6.5459   -0.1866   -0.1610 C   0  0  0  0  0  0  0  0  0  0  0  0
    5.8104    1.0834    0.2718 C   0  0  0  0  0  0  0  0  0  0  0  0
    4.3255    0.9656    0.1557 C   0  0  0  0  0  0  0  0  0  0  0  0
    3.6183    1.3789   -0.8757 N   0  0  0  0  0  0  0  0  0  0  0  0
    2.2695    1.1399   -0.7042 N   0  0  0  0  0  0  0  0  0  0  0  0
    2.0089    0.5629    0.4480 C   0  0  0  0  0  0  0  0  0  0  0  0
    0.7352    0.2342    0.8284 N   0  0  0  0  0  0  0  0  0  0  0  0
    0.3366   -0.3681    1.9982 C   0  0  0  0  0  0  0  0  0  0  0  0
    1.0543   -0.7266    2.9276 O   0  0  0  0  0  0  0  0  0  0  0  0
   -1.1792   -0.5789    2.0710 C   0  0  0  0  0  0  0  0  0  0  0  0
   -1.8250   -0.0963    0.8956 O   0  0  0  0  0  0  0  0  0  0  0  0
   -3.1865   -0.2266    0.8359 C   0  0  0  0  0  0  0  0  0  0  0  0
   -4.0018   -0.7942    1.8338 C   0  0  0  0  0  0  0  0  0  0  0  0
   -5.3900   -0.8741    1.6613 C   0  0  0  0  0  0  0  0  0  0  0  0
   -5.9238   -0.3819    0.4911 C   0  0  0  0  0  0  0  0  0  0  0  0
   -5.1316    0.1723   -0.4841 C   0  0  0  0  0  0  0  0  0  0  0  0
   -3.7634    0.2640   -0.3416 C   0  0  0  0  0  0  0  0  0  0  0  0
   -5.8505    0.5970   -1.5573 O   0  0  0  0  0  0  0  0  0  0  0  0
   -7.1879    0.2460   -1.1443 C   0  0  0  0  0  0  0  0  0  0  0  0
   -7.2410   -0.3767    0.1566 O   0  0  0  0  0  0  0  0  0  0  0  0
    3.3825    0.2676    1.4102 S   0  0  0  0  0  0  0  0  0  0  0  0
    6.7747    0.3752   -2.2454 H   0  0  0  0  0  0  0  0  0  0  0  0
    7.0292   -1.3465   -1.9163 H   0  0  0  0  0  0  0  0  0  0  0  0
    5.3884   -0.6898   -1.9344 H   0  0  0  0  0  0  0  0  0  0  0  0
    7.6094   -0.0707    0.0807 H   0  0  0  0  0  0  0  0  0  0  0  0
    6.1848   -1.0533    0.4052 H   0  0  0  0  0  0  0  0  0  0  0  0
    6.0817    1.3178    1.3087 H   0  0  0  0  0  0  0  0  0  0  0  0
    6.1518    1.9325   -0.3332 H   0  0  0  0  0  0  0  0  0  0  0  0
    0.0176    0.4716    0.1520 H   0  0  0  0  0  0  0  0  0  0  0  0
   -1.5365   -0.0308    2.9504 H   0  0  0  0  0  0  0  0  0  0  0  0
   -1.3475   -1.6567    2.1789 H   0  0  0  0  0  0  0  0  0  0  0  0
   -3.5881   -1.1840    2.7588 H   0  0  0  0  0  0  0  0  0  0  0  0
   -6.0270   -1.3092    2.4235 H   0  0  0  0  0  0  0  0  0  0  0  0
   -3.1568    0.7053   -1.1244 H   0  0  0  0  0  0  0  0  0  0  0  0
   -7.6126   -0.4451   -1.8815 H   0  0  0  0  0  0  0  0  0  0  0  0
   -7.7984    1.1561   -1.1224 H   0  0  0  0  0  0  0  0  0  0  0  0
  1  2  1  0
  2  3  1  0
  3  4  1  0
  4  5  2  0
  5  6  1  0
  6  7  2  0
  7  8  1  0
  8  9  1  0
  9 10  2  0
  9 11  1  0
 11 12  1  0
 12 13  1  0
 13 14  2  0
 14 15  1  0
 15 16  2  0
 16 17  1  0
 17 18  2  0
 17 19  1  0
 19 20  1  0
 20 21  1  0
  7 22  1  0
 22  4  1  0
 18 13  1  0
 21 16  1  0
  1 23  1  0
  1 24  1  0
  1 25  1  0
  2 26  1  0
  2 27  1  0
  3 28  1  0
  3 29  1  0
  8 30  1  0
 11 31  1  0
 11 32  1  0
 14 33  1  0
 15 34  1  0
 18 35  1  0
 20 36  1  0
 20 37  1  0
M  END
$$$$
