
     RDKit          3D

 34 36  0  0  0  0  0  0  0  0999 V2000
    4.3119   -1.0468    1.0920 N   0  0  0  0  0  0  0  0  0  0  0  0
    3.4430   -0.7640   -0.0429 C   0  0  0  0  0  0  0  0  0  0  0  0
    2.0213   -0.4703    0.4312 C   0  0  0  0  0  0  0  0  0  0  0  0
    1.1179   -0.1244   -0.7613 C   0  0  0  0  0  0  0  0  0  0  0  0
   -0.2818    0.1225   -0.3421 N   0  0  0  0  0  0  0  0  0  0  0  0
   -1.1749   -0.9891   -0.3733 C   0  0  0  0  0  0  0  0  0  0  0  0
   -0.7145   -2.3252   -0.4291 C   0  0  0  0  0  0  0  0  0  0  0  0
   -1.5825   -3.4242   -0.4476 C   0  0  0  0  0  0  0  0  0  0  0  0
   -2.9514   -3.2252   -0.4067 C   0  0  0  0  0  0  0  0  0  0  0  0
   -3.4434   -1.9272   -0.3443 C   0  0  0  0  0  0  0  0  0  0  0  0
   -2.5733   -0.8183   -0.3230 C   0  0  0  0  0  0  0  0  0  0  0  0
   -3.3681    0.7694   -0.2705 S   0  0  0  0  0  0  0  0  0  0  0  0
   -2.0027    1.8672    0.0208 C   0  0  0  0  0  0  0  0  0  0  0  0
   -2.3559    3.2007    0.3119 C   0  0  0  0  0  0  0  0  0  0  0  0
   -1.3828    4.1671    0.5376 C   0  0  0  0  0  0  0  0  0  0  0  0
   -0.0504    3.7993    0.4736 C   0  0  0  0  0  0  0  0  0  0  0  0
    1.1732    4.9772    0.7561 Cl  0  0  0  0  0  0  0  0  0  0  0  0
    0.3103    2.4790    0.1839 C   0  0  0  0  0  0  0  0  0  0  0  0
   -0.6506    1.4708   -0.0588 C   0  0  0  0  0  0  0  0  0  0  0  0
    3.9659   -1.8549    1.6084 H   0  0  0  0  0  0  0  0  0  0  0  0
    5.2433   -1.2954    0.7601 H   0  0  0  0  0  0  0  0  0  0  0  0
    3.4449   -1.6223   -0.7237 H   0  0  0  0  0  0  0  0  0  0  0  0
    3.8433    0.0967   -0.5893 H   0  0  0  0  0  0  0  0  0  0  0  0
    1.6267   -1.3363    0.9751 H   0  0  0  0  0  0  0  0  0  0  0  0
    2.0347    0.3542    1.1532 H   0  0  0  0  0  0  0  0  0  0  0  0
    1.5231    0.7380   -1.3069 H   0  0  0  0  0  0  0  0  0  0  0  0
    1.1658   -0.9184   -1.5181 H   0  0  0  0  0  0  0  0  0  0  0  0
    0.3439   -2.5619   -0.4420 H   0  0  0  0  0  0  0  0  0  0  0  0
   -1.1795   -4.4330   -0.4884 H   0  0  0  0  0  0  0  0  0  0  0  0
   -3.6336   -4.0704   -0.4202 H   0  0  0  0  0  0  0  0  0  0  0  0
   -4.5212   -1.7787   -0.3127 H   0  0  0  0  0  0  0  0  0  0  0  0
   -3.4036    3.4925    0.3623 H   0  0  0  0  0  0  0  0  0  0  0  0
   -1.6712    5.1897    0.7619 H   0  0  0  0  0  0  0  0  0  0  0  0
    1.3726    2.2613    0.1726 H   0  0  0  0  0  0  0  0  0  0  0  0
  1  2  1  0
  2  3  1  0
  3  4  1  0
  4  5  1  0
  5  6  1  0
  6  7  2  0
  7  8  1  0
  8  9  2  0
  9 10  1  0
 10 11  2  0
 11 12  1  0
 12 13  1  0
 13 14  2  0
 14 15  1  0
 15 16  2  0
 16 17  1  0
 16 18  1  0
 18 19  2  0
 19  5  1  0
 11  6  1  0
 19 13  1  0
  1 20  1  0
  1 21  1  0
  2 22  1  0
  2 23  1  0
  3 24  1  0
  3 25  1  0
  4 26  1  0
  4 27  1  0
  7 28  1  0
  8 29  1  0
  9 30  1  0
 10 31  1  0
 14 32  1  0
 15 33  1  0
 18 34  1  0
M  END
$$$$
