
     RDKit          3D

 44 46  0  0  0  0  0  0  0  0999 V2000
   -6.7264    1.6126   -1.4258 C   0  0  0  0  0  0  0  0  0  0  0  0
   -5.4212    0.9497   -1.0897 C   0  0  0  0  0  0  0  0  0  0  0  0
   -4.2297    1.6794   -1.1835 C   0  0  0  0  0  0  0  0  0  0  0  0
   -2.9936    1.0807   -0.8969 C   0  0  0  0  0  0  0  0  0  0  0  0
   -1.7373    1.8991   -1.0150 C   0  0  0  0  0  0  0  0  0  0  0  0
   -2.9733   -0.2612   -0.4702 C   0  0  0  0  0  0  0  0  0  0  0  0
   -1.7726   -0.8851   -0.2457 O   0  0  0  0  0  0  0  0  0  0  0  0
   -1.3137   -0.6803    1.1004 C   0  0  0  0  0  0  0  0  0  0  0  0
    0.2126   -0.8087    1.1486 C   0  0  0  0  0  0  0  0  0  0  0  0
    0.8083   -0.7732    2.2205 O   0  0  0  0  0  0  0  0  0  0  0  0
    0.7626   -0.9688   -0.1067 N   0  0  0  0  0  0  0  0  0  0  0  0
    2.0926   -0.8367   -0.3753 C   0  0  0  0  0  0  0  0  0  0  0  0
    3.0825   -0.5643    0.4339 N   0  0  0  0  0  0  0  0  0  0  0  0
    4.2421   -0.3858   -0.3158 C   0  0  0  0  0  0  0  0  0  0  0  0
    5.5107   -0.0476    0.3060 C   0  0  0  0  0  0  0  0  0  0  0  0
    6.0146   -0.8507    1.3298 C   0  0  0  0  0  0  0  0  0  0  0  0
    7.2065   -0.4733    1.9399 C   0  0  0  0  0  0  0  0  0  0  0  0
    7.8530    0.6879    1.5099 C   0  0  0  0  0  0  0  0  0  0  0  0
    7.3008    1.4018    0.4532 C   0  0  0  0  0  0  0  0  0  0  0  0
    6.1477    1.0596   -0.1652 N   0  0  0  0  0  0  0  0  0  0  0  0
    4.1056   -0.5818   -1.6814 C   0  0  0  0  0  0  0  0  0  0  0  0
    2.4808   -1.0093   -2.0362 S   0  0  0  0  0  0  0  0  0  0  0  0
   -4.1528   -1.0172   -0.3845 C   0  0  0  0  0  0  0  0  0  0  0  0
   -4.1270   -2.4684    0.0163 C   0  0  0  0  0  0  0  0  0  0  0  0
   -5.3729   -0.3950   -0.6887 C   0  0  0  0  0  0  0  0  0  0  0  0
   -6.8962    2.4684   -0.7629 H   0  0  0  0  0  0  0  0  0  0  0  0
   -6.7166    1.9595   -2.4631 H   0  0  0  0  0  0  0  0  0  0  0  0
   -7.5696    0.9223   -1.3076 H   0  0  0  0  0  0  0  0  0  0  0  0
   -4.2672    2.7241   -1.5006 H   0  0  0  0  0  0  0  0  0  0  0  0
   -1.4308    2.2626   -0.0266 H   0  0  0  0  0  0  0  0  0  0  0  0
   -1.8874    2.7667   -1.6709 H   0  0  0  0  0  0  0  0  0  0  0  0
   -0.9252    1.3076   -1.4507 H   0  0  0  0  0  0  0  0  0  0  0  0
   -1.7403   -1.4571    1.7466 H   0  0  0  0  0  0  0  0  0  0  0  0
   -1.5727    0.3155    1.4854 H   0  0  0  0  0  0  0  0  0  0  0  0
    0.1358   -1.0916   -0.8949 H   0  0  0  0  0  0  0  0  0  0  0  0
    5.4954   -1.7685    1.6203 H   0  0  0  0  0  0  0  0  0  0  0  0
    7.6198   -1.0767    2.7446 H   0  0  0  0  0  0  0  0  0  0  0  0
    8.7781    1.0161    1.9725 H   0  0  0  0  0  0  0  0  0  0  0  0
    7.7833    2.2996    0.0698 H   0  0  0  0  0  0  0  0  0  0  0  0
    4.8622   -0.5115   -2.4544 H   0  0  0  0  0  0  0  0  0  0  0  0
   -3.4797   -3.0392   -0.6589 H   0  0  0  0  0  0  0  0  0  0  0  0
   -3.7670   -2.5761    1.0460 H   0  0  0  0  0  0  0  0  0  0  0  0
   -5.1259   -2.9165   -0.0324 H   0  0  0  0  0  0  0  0  0  0  0  0
   -6.2956   -0.9684   -0.6288 H   0  0  0  0  0  0  0  0  0  0  0  0
  1  2  1  0
  2  3  2  0
  3  4  1  0
  4  5  1  0
  4  6  2  0
  6  7  1  0
  7  8  1  0
  8  9  1  0
  9 10  2  0
  9 11  1  0
 11 12  1  0
 12 13  2  0
 13 14  1  0
 14 15  1  0
 15 16  2  0
 16 17  1  0
 17 18  2  0
 18 19  1  0
 19 20  2  0
 14 21  2  0
 21 22  1  0
  6 23  1  0
 23 24  1  0
 23 25  2  0
 25  2  1  0
 22 12  1  0
 20 15  1  0
  1 26  1  0
  1 27  1  0
  1 28  1  0
  3 29  1  0
  5 30  1  0
  5 31  1  0
  5 32  1  0
  8 33  1  0
  8 34  1  0
 11 35  1  0
 16 36  1  0
 17 37  1  0
 18 38  1  0
 19 39  1  0
 21 40  1  0
 24 41  1  0
 24 42  1  0
 24 43  1  0
 25 44  1  0
M  END
$$$$
