
     RDKit          3D

 31 33  0  0  0  0  0  0  0  0999 V2000
   -2.9912    1.6108    0.4540 C   0  0  0  0  0  0  0  0  0  0  0  0
   -3.1805    0.2017   -0.0079 C   0  0  0  0  0  0  0  0  0  0  0  0
   -4.4580   -0.3506   -0.3525 C   0  0  0  0  0  0  0  0  0  0  0  0
   -4.3806   -1.6621   -0.7555 C   0  0  0  0  0  0  0  0  0  0  0  0
   -2.7812   -2.2442   -0.7259 S   0  0  0  0  0  0  0  0  0  0  0  0
   -2.1634   -0.7363   -0.1630 C   0  0  0  0  0  0  0  0  0  0  0  0
   -0.6754   -0.5490    0.1016 C   0  0  0  0  0  0  0  0  0  0  0  0
   -0.0880   -1.6378    0.9747 C   0  0  0  0  0  0  0  0  0  0  0  0
    0.9429   -1.0790    1.8996 C   0  0  0  0  0  0  0  0  0  0  0  0
    0.8832   -1.3252    3.1097 O   0  0  0  0  0  0  0  0  0  0  0  0
    1.9892   -0.3335    1.4779 N   0  0  0  0  0  0  0  0  0  0  0  0
    2.4488    0.1564    0.2397 C   0  0  0  0  0  0  0  0  0  0  0  0
    3.7182    0.7741    0.3339 C   0  0  0  0  0  0  0  0  0  0  0  0
    4.3742    1.3048   -0.7766 C   0  0  0  0  0  0  0  0  0  0  0  0
    3.7719    1.2321   -2.0184 C   0  0  0  0  0  0  0  0  0  0  0  0
    2.5152    0.6400   -2.1332 C   0  0  0  0  0  0  0  0  0  0  0  0
    1.8259    0.1056   -1.0185 C   0  0  0  0  0  0  0  0  0  0  0  0
    0.2257   -0.5314   -1.4781 S   0  0  0  0  0  0  0  0  0  0  0  0
   -2.5901    1.6275    1.4725 H   0  0  0  0  0  0  0  0  0  0  0  0
   -2.2968    2.1402   -0.2063 H   0  0  0  0  0  0  0  0  0  0  0  0
   -3.9385    2.1597    0.4555 H   0  0  0  0  0  0  0  0  0  0  0  0
   -5.3934    0.1948   -0.3085 H   0  0  0  0  0  0  0  0  0  0  0  0
   -5.1900   -2.3067   -1.0691 H   0  0  0  0  0  0  0  0  0  0  0  0
   -0.5446    0.4353    0.5671 H   0  0  0  0  0  0  0  0  0  0  0  0
   -0.8659   -2.0635    1.6238 H   0  0  0  0  0  0  0  0  0  0  0  0
    0.3454   -2.4809    0.4234 H   0  0  0  0  0  0  0  0  0  0  0  0
    2.5819   -0.1297    2.2765 H   0  0  0  0  0  0  0  0  0  0  0  0
    4.2314    0.8401    1.2925 H   0  0  0  0  0  0  0  0  0  0  0  0
    5.3526    1.7653   -0.6667 H   0  0  0  0  0  0  0  0  0  0  0  0
    4.2681    1.6349   -2.8974 H   0  0  0  0  0  0  0  0  0  0  0  0
    2.0629    0.6066   -3.1251 H   0  0  0  0  0  0  0  0  0  0  0  0
  1  2  1  0
  2  3  1  0
  3  4  2  0
  4  5  1  0
  5  6  1  0
  6  7  1  0
  7  8  1  0
  8  9  1  0
  9 10  2  0
  9 11  1  0
 11 12  1  0
 12 13  2  0
 13 14  1  0
 14 15  2  0
 15 16  1  0
 16 17  2  0
 17 18  1  0
  6  2  2  0
 18  7  1  0
 17 12  1  0
  1 19  1  0
  1 20  1  0
  1 21  1  0
  3 22  1  0
  4 23  1  0
  7 24  1  0
  8 25  1  0
  8 26  1  0
 11 27  1  0
 13 28  1  0
 14 29  1  0
 15 30  1  0
 16 31  1  0
M  END
$$$$
