
     RDKit          3D

 44 46  0  0  0  0  0  0  0  0999 V2000
    7.1016    1.1852   -2.5630 C   0  0  0  0  0  0  0  0  0  0  0  0
    7.3176    0.8967   -1.1864 O   0  0  0  0  0  0  0  0  0  0  0  0
    6.2631    0.3529   -0.4984 C   0  0  0  0  0  0  0  0  0  0  0  0
    5.0027    0.0557   -1.0194 C   0  0  0  0  0  0  0  0  0  0  0  0
    4.0100   -0.4968   -0.1935 C   0  0  0  0  0  0  0  0  0  0  0  0
    2.6961   -0.8120   -0.7643 C   0  0  0  0  0  0  0  0  0  0  0  0
    1.5429   -0.2024   -0.4589 C   0  0  0  0  0  0  0  0  0  0  0  0
    1.2859    1.0976    0.6468 S   0  0  0  0  0  0  0  0  0  0  0  0
   -0.4496    1.1483    0.3461 C   0  0  0  0  0  0  0  0  0  0  0  0
   -1.4814    2.2274    1.0847 S   0  0  0  0  0  0  0  0  0  0  0  0
   -0.7572    0.1899   -0.5949 N   0  0  0  0  0  0  0  0  0  0  0  0
   -2.1847   -0.1194   -1.0173 N   0  0  0  0  0  0  0  0  0  0  0  0
   -2.8739   -1.4062   -0.1207 S   0  0  0  0  0  6  0  0  0  0  0  0
   -2.0747   -1.6076    1.0700 O   0  0  0  0  0  0  0  0  0  0  0  0
   -3.1207   -2.4742   -1.0638 O   0  0  0  0  0  0  0  0  0  0  0  0
   -4.4358   -0.7114    0.3449 C   0  0  0  0  0  0  0  0  0  0  0  0
   -4.5980   -0.1503    1.6130 C   0  0  0  0  0  0  0  0  0  0  0  0
   -5.8380    0.3764    1.9786 C   0  0  0  0  0  0  0  0  0  0  0  0
   -6.9171    0.3418    1.0850 C   0  0  0  0  0  0  0  0  0  0  0  0
   -8.2572    0.8782    1.4964 C   0  0  0  0  0  0  0  0  0  0  0  0
   -6.7488   -0.2547   -0.1720 C   0  0  0  0  0  0  0  0  0  0  0  0
   -5.5110   -0.7812   -0.5452 C   0  0  0  0  0  0  0  0  0  0  0  0
    0.2618   -0.5939   -1.1041 C   0  0  0  0  0  0  0  0  0  0  0  0
    0.1411   -1.4490   -1.9703 O   0  0  0  0  0  0  0  0  0  0  0  0
    4.2907   -0.7648    1.1530 C   0  0  0  0  0  0  0  0  0  0  0  0
    5.5476   -0.4700    1.6784 C   0  0  0  0  0  0  0  0  0  0  0  0
    6.5158    0.0843    0.8518 C   0  0  0  0  0  0  0  0  0  0  0  0
    7.7416    0.3642    1.3919 O   0  0  0  0  0  0  0  0  0  0  0  0
    6.8820    0.2728   -3.1273 H   0  0  0  0  0  0  0  0  0  0  0  0
    6.3097    1.9306   -2.6901 H   0  0  0  0  0  0  0  0  0  0  0  0
    8.0265    1.6104   -2.9641 H   0  0  0  0  0  0  0  0  0  0  0  0
    4.7663    0.2472   -2.0610 H   0  0  0  0  0  0  0  0  0  0  0  0
    2.7062   -1.6110   -1.5052 H   0  0  0  0  0  0  0  0  0  0  0  0
   -2.2170   -0.4082   -2.0034 H   0  0  0  0  0  0  0  0  0  0  0  0
   -3.7730   -0.1168    2.3210 H   0  0  0  0  0  0  0  0  0  0  0  0
   -5.9583    0.8140    2.9679 H   0  0  0  0  0  0  0  0  0  0  0  0
   -8.8388    0.0932    1.9895 H   0  0  0  0  0  0  0  0  0  0  0  0
   -8.8164    1.2407    0.6276 H   0  0  0  0  0  0  0  0  0  0  0  0
   -8.1445    1.7221    2.1851 H   0  0  0  0  0  0  0  0  0  0  0  0
   -7.5848   -0.3153   -0.8660 H   0  0  0  0  0  0  0  0  0  0  0  0
   -5.3995   -1.2473   -1.5216 H   0  0  0  0  0  0  0  0  0  0  0  0
    3.5374   -1.2055    1.8022 H   0  0  0  0  0  0  0  0  0  0  0  0
    5.7718   -0.6714    2.7216 H   0  0  0  0  0  0  0  0  0  0  0  0
    8.2621    0.7399    0.6555 H   0  0  0  0  0  0  0  0  0  0  0  0
  1  2  1  0
  2  3  1  0
  3  4  2  0
  4  5  1  0
  5  6  1  0
  6  7  2  3
  7  8  1  0
  8  9  1  0
  9 10  2  0
  9 11  1  0
 11 12  1  0
 12 13  1  0
 13 14  2  0
 13 15  2  0
 13 16  1  0
 16 17  2  0
 17 18  1  0
 18 19  2  0
 19 20  1  0
 19 21  1  0
 21 22  2  0
 11 23  1  0
 23 24  2  0
  5 25  2  0
 25 26  1  0
 26 27  2  0
 27 28  1  0
 27  3  1  0
 23  7  1  0
 22 16  1  0
  1 29  1  0
  1 30  1  0
  1 31  1  0
  4 32  1  0
  6 33  1  0
 12 34  1  0
 17 35  1  0
 18 36  1  0
 20 37  1  0
 20 38  1  0
 20 39  1  0
 21 40  1  0
 22 41  1  0
 25 42  1  0
 26 43  1  0
 28 44  1  0
M  END
$$$$
