
     RDKit          3D

 49 52  0  0  0  0  0  0  0  0999 V2000
   -4.7652    3.4494    1.2806 C   0  0  0  0  0  0  0  0  0  0  0  0
   -3.9557    2.2826    0.7944 C   0  0  0  0  0  0  0  0  0  0  0  0
   -3.1080    1.5980    1.6700 C   0  0  0  0  0  0  0  0  0  0  0  0
   -2.3207    0.5366    1.2154 C   0  0  0  0  0  0  0  0  0  0  0  0
   -2.3612    0.1527   -0.1304 C   0  0  0  0  0  0  0  0  0  0  0  0
   -1.5518   -0.9219   -0.5948 N   0  0  0  0  0  0  0  0  0  0  0  0
   -1.9032   -1.9430   -1.4806 C   0  0  0  0  0  0  0  0  0  0  0  0
   -3.2602   -2.1985   -2.0542 C   0  0  0  0  0  0  0  0  0  0  0  0
   -3.3730   -1.9040   -3.5295 C   0  0  0  0  0  0  0  0  0  0  0  0
   -2.6719   -1.0112   -4.3223 C   0  0  0  0  0  0  0  0  0  0  0  0
   -3.1130   -1.0166   -5.6780 C   0  0  0  0  0  0  0  0  0  0  0  0
   -4.1348   -1.9178   -5.8845 C   0  0  0  0  0  0  0  0  0  0  0  0
   -4.5637   -2.7420   -4.4497 S   0  0  0  0  0  0  0  0  0  0  0  0
   -0.8873   -2.7762   -1.6194 N   0  0  0  0  0  0  0  0  0  0  0  0
    0.1435   -2.3343   -0.8456 N   0  0  0  0  0  0  0  0  0  0  0  0
   -0.2438   -1.2327   -0.2494 C   0  0  0  0  0  0  0  0  0  0  0  0
    0.8278   -0.2398    0.6879 S   0  0  0  0  0  0  0  0  0  0  0  0
    1.9504   -1.5212    1.3179 C   0  0  0  0  0  0  0  0  0  0  0  0
    2.9618   -0.8831    2.2536 C   0  0  0  0  0  0  0  0  0  0  0  0
    2.7684   -0.8439    3.4655 O   0  0  0  0  0  0  0  0  0  0  0  0
    4.0672   -0.3727    1.5863 N   0  0  0  0  0  0  0  0  0  0  0  0
    5.2249    0.1989    2.1553 C   0  0  0  0  0  0  0  0  0  0  0  0
    6.2076    0.6712    1.2668 C   0  0  0  0  0  0  0  0  0  0  0  0
    7.4012    1.2190    1.7477 C   0  0  0  0  0  0  0  0  0  0  0  0
    7.6134    1.2979    3.1172 C   0  0  0  0  0  0  0  0  0  0  0  0
    8.7589    1.8213    3.5759 F   0  0  0  0  0  0  0  0  0  0  0  0
    6.6407    0.8504    4.0024 C   0  0  0  0  0  0  0  0  0  0  0  0
    6.8467    0.9367    5.3257 F   0  0  0  0  0  0  0  0  0  0  0  0
    5.4517    0.2958    3.5306 C   0  0  0  0  0  0  0  0  0  0  0  0
   -3.2065    0.8393   -1.0099 C   0  0  0  0  0  0  0  0  0  0  0  0
   -3.9913    1.9015   -0.5491 C   0  0  0  0  0  0  0  0  0  0  0  0
   -5.6710    3.5744    0.6777 H   0  0  0  0  0  0  0  0  0  0  0  0
   -4.1707    4.3699    1.2214 H   0  0  0  0  0  0  0  0  0  0  0  0
   -5.0816    3.2950    2.3209 H   0  0  0  0  0  0  0  0  0  0  0  0
   -3.0565    1.8848    2.7193 H   0  0  0  0  0  0  0  0  0  0  0  0
   -1.7133    0.0099    1.9488 H   0  0  0  0  0  0  0  0  0  0  0  0
   -3.4779   -3.2636   -1.8848 H   0  0  0  0  0  0  0  0  0  0  0  0
   -4.0422   -1.6560   -1.5120 H   0  0  0  0  0  0  0  0  0  0  0  0
   -1.8678   -0.3787   -3.9581 H   0  0  0  0  0  0  0  0  0  0  0  0
   -2.6975   -0.3946   -6.4643 H   0  0  0  0  0  0  0  0  0  0  0  0
   -4.6539   -2.1323   -6.8098 H   0  0  0  0  0  0  0  0  0  0  0  0
    2.4716   -2.0224    0.4943 H   0  0  0  0  0  0  0  0  0  0  0  0
    1.3902   -2.2792    1.8771 H   0  0  0  0  0  0  0  0  0  0  0  0
    4.0291   -0.3894    0.5741 H   0  0  0  0  0  0  0  0  0  0  0  0
    6.0586    0.6248    0.1888 H   0  0  0  0  0  0  0  0  0  0  0  0
    8.1607    1.5812    1.0646 H   0  0  0  0  0  0  0  0  0  0  0  0
    4.7418   -0.0644    4.2691 H   0  0  0  0  0  0  0  0  0  0  0  0
   -3.2464    0.6116   -2.0692 H   0  0  0  0  0  0  0  0  0  0  0  0
   -4.6260    2.4366   -1.2536 H   0  0  0  0  0  0  0  0  0  0  0  0
  1  2  1  0
  2  3  2  0
  3  4  1  0
  4  5  2  0
  5  6  1  0
  6  7  1  0
  7  8  1  0
  8  9  1  0
  9 10  2  0
 10 11  1  0
 11 12  2  0
 12 13  1  0
  7 14  2  0
 14 15  1  0
 15 16  2  0
 16 17  1  0
 17 18  1  0
 18 19  1  0
 19 20  2  0
 19 21  1  0
 21 22  1  0
 22 23  2  0
 23 24  1  0
 24 25  2  0
 25 26  1  0
 25 27  1  0
 27 28  1  0
 27 29  2  0
  5 30  1  0
 30 31  2  0
 31  2  1  0
 16  6  1  0
 29 22  1  0
 13  9  1  0
  1 32  1  0
  1 33  1  0
  1 34  1  0
  3 35  1  0
  4 36  1  0
  8 37  1  0
  8 38  1  0
 10 39  1  0
 11 40  1  0
 12 41  1  0
 18 42  1  0
 18 43  1  0
 21 44  1  0
 23 45  1  0
 24 46  1  0
 29 47  1  0
 30 48  1  0
 31 49  1  0
M  END
$$$$
