
     RDKit          3D

 67 71  0  0  0  0  0  0  0  0999 V2000
   -0.5109   -4.0403    3.1432 C   0  0  0  0  0  0  0  0  0  0  0  0
   -1.5715   -4.4324    2.2801 O   0  0  0  0  0  0  0  0  0  0  0  0
   -2.3332   -3.4292    1.7455 C   0  0  0  0  0  0  0  0  0  0  0  0
   -3.2433   -3.8407    0.7693 C   0  0  0  0  0  0  0  0  0  0  0  0
   -4.0799   -2.9241    0.1289 C   0  0  0  0  0  0  0  0  0  0  0  0
   -4.9127   -3.4675   -0.8105 O   0  0  0  0  0  0  0  0  0  0  0  0
   -5.8205   -2.5836   -1.4558 C   0  0  0  0  0  0  0  0  0  0  0  0
   -4.0021   -1.5748    0.4731 C   0  0  0  0  0  0  0  0  0  0  0  0
   -3.1011   -1.1430    1.4606 C   0  0  0  0  0  0  0  0  0  0  0  0
   -3.0016    0.2833    1.8064 C   0  0  0  0  0  0  0  0  0  0  0  0
   -4.3834    1.0695    2.4406 S   0  0  0  0  0  0  0  0  0  0  0  0
   -3.5761    2.5777    2.5804 C   0  0  0  0  0  0  0  0  0  0  0  0
   -4.1233    3.7889    3.0458 C   0  0  0  0  0  0  0  0  0  0  0  0
   -3.3198    4.9343    3.0805 C   0  0  0  0  0  0  0  0  0  0  0  0
   -1.9969    4.8836    2.6632 C   0  0  0  0  0  0  0  0  0  0  0  0
   -1.1191    5.9329    2.6425 O   0  0  0  0  0  0  0  0  0  0  0  0
   -1.6406    7.2149    2.9707 C   0  0  0  0  0  0  0  0  0  0  0  0
   -1.4620    3.6698    2.2149 C   0  0  0  0  0  0  0  0  0  0  0  0
   -2.2478    2.4883    2.1637 C   0  0  0  0  0  0  0  0  0  0  0  0
   -1.9196    1.1483    1.7284 C   0  0  0  0  0  0  0  0  0  0  0  0
   -0.6202    0.7101    1.2288 C   0  0  0  0  0  0  0  0  0  0  0  0
   -0.4564    0.3748   -0.1188 C   0  0  0  0  0  0  0  0  0  0  0  0
    0.7856   -0.0601   -0.5929 C   0  0  0  0  0  0  0  0  0  0  0  0
    1.8735   -0.1592    0.2761 C   0  0  0  0  0  0  0  0  0  0  0  0
    3.1326   -0.5767   -0.0591 O   0  0  0  0  0  0  0  0  0  0  0  0
    3.3979   -0.7620   -1.4534 C   0  0  0  0  0  0  0  0  0  0  0  0
    4.8794   -1.1457   -1.6180 C   0  0  0  0  0  0  0  0  0  0  0  0
    5.4111   -1.2149   -2.9846 N   0  0  0  0  0  0  0  0  0  0  0  0
    4.8115   -2.2780   -3.8079 C   0  0  0  0  0  0  0  0  0  0  0  0
    5.1580   -2.0811   -5.2925 C   0  0  0  0  0  0  0  0  0  0  0  0
    4.6097   -0.8700   -5.8342 O   0  0  0  0  0  0  0  0  0  0  0  0
    4.4413    0.1650   -4.8571 C   0  0  0  0  0  0  0  0  0  0  0  0
    5.4411    0.0785   -3.6914 C   0  0  0  0  0  0  0  0  0  0  0  0
    1.7078    0.1785    1.6217 C   0  0  0  0  0  0  0  0  0  0  0  0
    0.4704    0.6171    2.0986 C   0  0  0  0  0  0  0  0  0  0  0  0
   -2.2721   -2.0809    2.0959 C   0  0  0  0  0  0  0  0  0  0  0  0
    0.1780   -3.3527    2.6412 H   0  0  0  0  0  0  0  0  0  0  0  0
    0.0519   -4.9397    3.4098 H   0  0  0  0  0  0  0  0  0  0  0  0
   -0.9004   -3.6056    4.0693 H   0  0  0  0  0  0  0  0  0  0  0  0
   -3.2970   -4.8931    0.4995 H   0  0  0  0  0  0  0  0  0  0  0  0
   -5.2851   -1.8303   -2.0443 H   0  0  0  0  0  0  0  0  0  0  0  0
   -6.4982   -2.1142   -0.7343 H   0  0  0  0  0  0  0  0  0  0  0  0
   -6.4277   -3.1758   -2.1475 H   0  0  0  0  0  0  0  0  0  0  0  0
   -4.6263   -0.8356   -0.0192 H   0  0  0  0  0  0  0  0  0  0  0  0
   -5.1591    3.8390    3.3701 H   0  0  0  0  0  0  0  0  0  0  0  0
   -3.7696    5.8530    3.4426 H   0  0  0  0  0  0  0  0  0  0  0  0
   -2.4549    7.4973    2.2951 H   0  0  0  0  0  0  0  0  0  0  0  0
   -1.9633    7.2513    4.0166 H   0  0  0  0  0  0  0  0  0  0  0  0
   -0.8357    7.9458    2.8438 H   0  0  0  0  0  0  0  0  0  0  0  0
   -0.4245    3.6396    1.8885 H   0  0  0  0  0  0  0  0  0  0  0  0
   -1.2950    0.4441   -0.8083 H   0  0  0  0  0  0  0  0  0  0  0  0
    0.8626   -0.3201   -1.6430 H   0  0  0  0  0  0  0  0  0  0  0  0
    3.1919    0.1710   -1.9891 H   0  0  0  0  0  0  0  0  0  0  0  0
    2.7653   -1.5670   -1.8418 H   0  0  0  0  0  0  0  0  0  0  0  0
    5.4924   -0.4414   -1.0396 H   0  0  0  0  0  0  0  0  0  0  0  0
    5.0470   -2.1104   -1.1207 H   0  0  0  0  0  0  0  0  0  0  0  0
    5.1806   -3.2525   -3.4688 H   0  0  0  0  0  0  0  0  0  0  0  0
    3.7191   -2.2779   -3.7164 H   0  0  0  0  0  0  0  0  0  0  0  0
    6.2441   -2.0631   -5.4421 H   0  0  0  0  0  0  0  0  0  0  0  0
    4.7595   -2.9104   -5.8869 H   0  0  0  0  0  0  0  0  0  0  0  0
    4.5527    1.1243   -5.3738 H   0  0  0  0  0  0  0  0  0  0  0  0
    3.4105    0.1151   -4.4880 H   0  0  0  0  0  0  0  0  0  0  0  0
    6.4515    0.1886   -4.1040 H   0  0  0  0  0  0  0  0  0  0  0  0
    5.2942    0.9232   -3.0079 H   0  0  0  0  0  0  0  0  0  0  0  0
    2.5507    0.1034    2.3047 H   0  0  0  0  0  0  0  0  0  0  0  0
    0.3659    0.8762    3.1496 H   0  0  0  0  0  0  0  0  0  0  0  0
   -1.5867   -1.7334    2.8622 H   0  0  0  0  0  0  0  0  0  0  0  0
  1  2  1  0
  2  3  1  0
  3  4  2  0
  4  5  1  0
  5  6  1  0
  6  7  1  0
  5  8  2  0
  8  9  1  0
  9 10  1  0
 10 11  1  0
 11 12  1  0
 12 13  2  0
 13 14  1  0
 14 15  2  0
 15 16  1  0
 16 17  1  0
 15 18  1  0
 18 19  2  0
 19 20  1  0
 20 21  1  0
 21 22  2  0
 22 23  1  0
 23 24  2  0
 24 25  1  0
 25 26  1  0
 26 27  1  0
 27 28  1  0
 28 29  1  0
 29 30  1  0
 30 31  1  0
 31 32  1  0
 32 33  1  0
 24 34  1  0
 34 35  2  0
  9 36  2  0
 36  3  1  0
 20 10  2  0
 35 21  1  0
 19 12  1  0
 33 28  1  0
  1 37  1  0
  1 38  1  0
  1 39  1  0
  4 40  1  0
  7 41  1  0
  7 42  1  0
  7 43  1  0
  8 44  1  0
 13 45  1  0
 14 46  1  0
 17 47  1  0
 17 48  1  0
 17 49  1  0
 18 50  1  0
 22 51  1  0
 23 52  1  0
 26 53  1  0
 26 54  1  0
 27 55  1  0
 27 56  1  0
 29 57  1  0
 29 58  1  0
 30 59  1  0
 30 60  1  0
 32 61  1  0
 32 62  1  0
 33 63  1  0
 33 64  1  0
 34 65  1  0
 35 66  1  0
 36 67  1  0
M  END
$$$$
