
     RDKit          3D

 71 72  0  0  0  0  0  0  0  0999 V2000
   -0.9837   -6.0122    1.1896 C   0  0  0  0  0  0  0  0  0  0  0  0
   -0.5651   -4.7226    0.7638 O   0  0  0  0  0  0  0  0  0  0  0  0
   -1.5357   -3.7791    0.5515 C   0  0  0  0  0  0  0  0  0  0  0  0
   -2.9033   -4.0563    0.5330 C   0  0  0  0  0  0  0  0  0  0  0  0
   -3.8254   -3.0243    0.3720 C   0  0  0  0  0  0  0  0  0  0  0  0
   -3.3941   -1.7045    0.2291 C   0  0  0  0  0  0  0  0  0  0  0  0
   -2.0277   -1.3834    0.2105 C   0  0  0  0  0  0  0  0  0  0  0  0
   -1.5048    0.0507    0.0905 C   0  0  0  0  0  0  0  0  0  0  0  0
   -2.4989    1.2234    0.3201 C   0  0  0  0  0  0  0  0  0  0  0  0
   -3.6407    1.2636   -0.1304 O   0  0  0  0  0  0  0  0  0  0  0  0
   -1.9338    2.2827    1.0200 N   0  0  0  0  0  0  0  0  0  0  0  0
   -2.5760    3.5795    1.2692 C   0  0  0  0  0  0  0  0  0  0  0  0
   -2.8095    4.3286   -0.0514 C   0  0  0  0  0  0  0  0  0  0  0  0
   -1.6251    4.4147    2.1451 C   0  0  0  0  0  0  0  0  0  0  0  0
   -3.9039    3.4110    2.0251 C   0  0  0  0  0  0  0  0  0  0  0  0
   -0.6593    0.3378   -1.1115 N   0  0  0  0  0  0  0  0  0  0  0  0
    0.5162    1.0585   -0.8427 C   0  0  0  0  0  0  0  0  0  0  0  0
    0.7526    1.5401    0.2692 O   0  0  0  0  0  0  0  0  0  0  0  0
    1.4977    1.2570   -1.9912 C   0  0  0  0  0  0  0  0  0  0  0  0
    2.8205    1.8401   -1.4993 C   0  0  0  0  0  0  0  0  0  0  0  0
    3.6702    0.7721   -0.8340 C   0  0  0  0  0  0  0  0  0  0  0  0
    3.7673   -0.3540   -1.3146 O   0  0  0  0  0  0  0  0  0  0  0  0
    4.3368    1.2296    0.2772 N   0  0  0  0  0  0  0  0  0  0  0  0
    5.1813    0.4766    1.0625 C   0  0  0  0  0  0  0  0  0  0  0  0
    5.5466   -0.8826    0.9420 C   0  0  0  0  0  0  0  0  0  0  0  0
    6.4031   -1.1048    1.9909 C   0  0  0  0  0  0  0  0  0  0  0  0
    7.1501   -2.2765    2.4777 C   0  0  0  0  0  0  0  0  0  0  0  0
    6.5478    0.0462    2.6976 O   0  0  0  0  0  0  0  0  0  0  0  0
    5.7845    1.0422    2.1148 N   0  0  0  0  0  0  0  0  0  0  0  0
   -1.2172    0.2996   -2.4895 C   0  0  0  0  0  0  0  0  0  0  0  0
   -1.8577    1.6348   -2.8929 C   0  0  0  0  0  0  0  0  0  0  0  0
   -2.1639   -0.8517   -2.8173 C   0  0  0  0  0  0  0  0  0  0  0  0
   -1.1056   -2.4481    0.3590 C   0  0  0  0  0  0  0  0  0  0  0  0
    0.2290   -2.1077    0.4022 O   0  0  0  0  0  0  0  0  0  0  0  0
    1.0064   -2.7804   -0.5886 C   0  0  0  0  0  0  0  0  0  0  0  0
   -1.4963   -6.5412    0.3796 H   0  0  0  0  0  0  0  0  0  0  0  0
   -0.0885   -6.5865    1.4464 H   0  0  0  0  0  0  0  0  0  0  0  0
   -1.6086   -5.9560    2.0871 H   0  0  0  0  0  0  0  0  0  0  0  0
   -3.2873   -5.0635    0.6514 H   0  0  0  0  0  0  0  0  0  0  0  0
   -4.8907   -3.2443    0.3697 H   0  0  0  0  0  0  0  0  0  0  0  0
   -4.1600   -0.9405    0.1225 H   0  0  0  0  0  0  0  0  0  0  0  0
   -0.8509    0.1074    0.9746 H   0  0  0  0  0  0  0  0  0  0  0  0
   -0.9161    2.2440    1.1160 H   0  0  0  0  0  0  0  0  0  0  0  0
   -3.5013    3.7920   -0.7097 H   0  0  0  0  0  0  0  0  0  0  0  0
   -1.8696    4.4549   -0.6018 H   0  0  0  0  0  0  0  0  0  0  0  0
   -3.2320    5.3238    0.1279 H   0  0  0  0  0  0  0  0  0  0  0  0
   -0.6591    4.5605    1.6480 H   0  0  0  0  0  0  0  0  0  0  0  0
   -2.0424    5.4033    2.3644 H   0  0  0  0  0  0  0  0  0  0  0  0
   -1.4269    3.9125    3.0995 H   0  0  0  0  0  0  0  0  0  0  0  0
   -4.6617    2.9099    1.4131 H   0  0  0  0  0  0  0  0  0  0  0  0
   -4.3165    4.3828    2.3202 H   0  0  0  0  0  0  0  0  0  0  0  0
   -3.7689    2.8115    2.9331 H   0  0  0  0  0  0  0  0  0  0  0  0
    1.0567    1.9638   -2.7013 H   0  0  0  0  0  0  0  0  0  0  0  0
    1.6636    0.3003   -2.4959 H   0  0  0  0  0  0  0  0  0  0  0  0
    2.6592    2.6933   -0.8312 H   0  0  0  0  0  0  0  0  0  0  0  0
    3.3981    2.2076   -2.3564 H   0  0  0  0  0  0  0  0  0  0  0  0
    4.2105    2.1775    0.6070 H   0  0  0  0  0  0  0  0  0  0  0  0
    5.2264   -1.6034    0.2039 H   0  0  0  0  0  0  0  0  0  0  0  0
    6.8181   -3.1906    1.9741 H   0  0  0  0  0  0  0  0  0  0  0  0
    8.2211   -2.1525    2.2884 H   0  0  0  0  0  0  0  0  0  0  0  0
    7.0009   -2.4103    3.5535 H   0  0  0  0  0  0  0  0  0  0  0  0
   -0.3658    0.1594   -3.1627 H   0  0  0  0  0  0  0  0  0  0  0  0
   -1.9962    1.6759   -3.9782 H   0  0  0  0  0  0  0  0  0  0  0  0
   -2.8414    1.7708   -2.4366 H   0  0  0  0  0  0  0  0  0  0  0  0
   -1.2394    2.4894   -2.6024 H   0  0  0  0  0  0  0  0  0  0  0  0
   -2.3680   -0.8757   -3.8939 H   0  0  0  0  0  0  0  0  0  0  0  0
   -1.7238   -1.8176   -2.5529 H   0  0  0  0  0  0  0  0  0  0  0  0
   -3.1295   -0.7425   -2.3178 H   0  0  0  0  0  0  0  0  0  0  0  0
    1.5275   -3.6318   -0.1407 H   0  0  0  0  0  0  0  0  0  0  0  0
    1.7648   -2.0801   -0.9461 H   0  0  0  0  0  0  0  0  0  0  0  0
    0.4155   -3.1049   -1.4539 H   0  0  0  0  0  0  0  0  0  0  0  0
  1  2  1  0
  2  3  1  0
  3  4  2  0
  4  5  1  0
  5  6  2  0
  6  7  1  0
  7  8  1  0
  8  9  1  0
  9 10  2  0
  9 11  1  0
 11 12  1  0
 12 13  1  0
 12 14  1  0
 12 15  1  0
  8 16  1  0
 16 17  1  0
 17 18  2  0
 17 19  1  0
 19 20  1  0
 20 21  1  0
 21 22  2  0
 21 23  1  0
 23 24  1  0
 24 25  1  0
 25 26  2  0
 26 27  1  0
 26 28  1  0
 28 29  1  0
 16 30  1  0
 30 31  1  0
 30 32  1  0
  7 33  2  0
 33 34  1  0
 34 35  1  0
 33  3  1  0
 29 24  2  0
  1 36  1  0
  1 37  1  0
  1 38  1  0
  4 39  1  0
  5 40  1  0
  6 41  1  0
  8 42  1  0
 11 43  1  0
 13 44  1  0
 13 45  1  0
 13 46  1  0
 14 47  1  0
 14 48  1  0
 14 49  1  0
 15 50  1  0
 15 51  1  0
 15 52  1  0
 19 53  1  0
 19 54  1  0
 20 55  1  0
 20 56  1  0
 23 57  1  0
 25 58  1  0
 27 59  1  0
 27 60  1  0
 27 61  1  0
 30 62  1  0
 31 63  1  0
 31 64  1  0
 31 65  1  0
 32 66  1  0
 32 67  1  0
 32 68  1  0
 35 69  1  0
 35 70  1  0
 35 71  1  0
M  END
$$$$
