
     RDKit          3D

 42 41  0  0  0  0  0  0  0  0999 V2000
   -4.2582   -2.1319    3.5978 C   0  0  0  0  0  0  0  0  0  0  0  0
   -3.7407   -1.6554    2.2656 C   0  0  0  0  0  0  0  0  0  0  0  0
   -4.7959   -1.5282    1.2016 C   0  0  0  0  0  0  0  0  0  0  0  0
   -2.4347   -1.3692    2.0987 C   0  0  0  0  0  0  0  0  0  0  0  0
   -1.7463   -0.9172    0.8383 C   0  0  0  0  0  0  0  0  0  0  0  0
   -1.4449    0.5854    0.8735 C   0  0  0  0  0  0  0  0  0  0  0  0
   -0.6967    1.0582   -0.3599 C   0  0  0  0  0  0  0  0  0  0  0  0
   -1.5443    1.2499   -1.5887 C   0  0  0  0  0  0  0  0  0  0  0  0
    0.6304    1.2876   -0.2990 C   0  0  0  0  0  0  0  0  0  0  0  0
    1.5343    1.7883   -1.3954 C   0  0  0  0  0  0  0  0  0  0  0  0
    2.2909    0.6621   -2.1146 C   0  0  0  0  0  0  0  0  0  0  0  0
    3.2623   -0.1150   -1.2439 C   0  0  0  0  0  0  0  0  0  0  0  0
    2.8254   -1.5240   -0.9260 C   0  0  0  0  0  0  0  0  0  0  0  0
    4.4210    0.3643   -0.7432 C   0  0  0  0  0  0  0  0  0  0  0  0
    5.0659    1.7081   -0.9124 C   0  0  0  0  0  0  0  0  0  0  0  0
    4.7995    2.2797   -2.1786 O   0  0  0  0  0  0  0  0  0  0  0  0
   -3.4633   -2.2196    4.3458 H   0  0  0  0  0  0  0  0  0  0  0  0
   -4.7246   -3.1169    3.4920 H   0  0  0  0  0  0  0  0  0  0  0  0
   -5.0053   -1.4325    3.9871 H   0  0  0  0  0  0  0  0  0  0  0  0
   -4.4345   -1.0529    0.2868 H   0  0  0  0  0  0  0  0  0  0  0  0
   -5.6274   -0.9166    1.5683 H   0  0  0  0  0  0  0  0  0  0  0  0
   -5.1856   -2.5167    0.9380 H   0  0  0  0  0  0  0  0  0  0  0  0
   -1.7652   -1.4821    2.9516 H   0  0  0  0  0  0  0  0  0  0  0  0
   -0.8090   -1.4812    0.7457 H   0  0  0  0  0  0  0  0  0  0  0  0
   -2.3322   -1.1754   -0.0489 H   0  0  0  0  0  0  0  0  0  0  0  0
   -0.8642    0.8175    1.7767 H   0  0  0  0  0  0  0  0  0  0  0  0
   -2.3772    1.1576    0.9675 H   0  0  0  0  0  0  0  0  0  0  0  0
   -2.2832    2.0391   -1.4156 H   0  0  0  0  0  0  0  0  0  0  0  0
   -0.9666    1.5240   -2.4744 H   0  0  0  0  0  0  0  0  0  0  0  0
   -2.0782    0.3268   -1.8349 H   0  0  0  0  0  0  0  0  0  0  0  0
    1.1463    1.1052    0.6440 H   0  0  0  0  0  0  0  0  0  0  0  0
    2.2377    2.5053   -0.9560 H   0  0  0  0  0  0  0  0  0  0  0  0
    0.9675    2.3629   -2.1355 H   0  0  0  0  0  0  0  0  0  0  0  0
    2.8207    1.0745   -2.9800 H   0  0  0  0  0  0  0  0  0  0  0  0
    1.5594   -0.0318   -2.5514 H   0  0  0  0  0  0  0  0  0  0  0  0
    2.7270   -2.1055   -1.8486 H   0  0  0  0  0  0  0  0  0  0  0  0
    3.5398   -2.0464   -0.2811 H   0  0  0  0  0  0  0  0  0  0  0  0
    1.8590   -1.5196   -0.4121 H   0  0  0  0  0  0  0  0  0  0  0  0
    4.9972   -0.2925   -0.0909 H   0  0  0  0  0  0  0  0  0  0  0  0
    6.1523    1.6044   -0.8230 H   0  0  0  0  0  0  0  0  0  0  0  0
    4.7300    2.3932   -0.1284 H   0  0  0  0  0  0  0  0  0  0  0  0
    5.0112    1.5961   -2.8367 H   0  0  0  0  0  0  0  0  0  0  0  0
  1  2  1  0
  2  3  1  0
  2  4  2  3
  4  5  1  0
  5  6  1  0
  6  7  1  0
  7  8  1  0
  7  9  2  3
  9 10  1  0
 10 11  1  0
 11 12  1  0
 12 13  1  0
 12 14  2  3
 14 15  1  0
 15 16  1  0
  1 17  1  0
  1 18  1  0
  1 19  1  0
  3 20  1  0
  3 21  1  0
  3 22  1  0
  4 23  1  0
  5 24  1  0
  5 25  1  0
  6 26  1  0
  6 27  1  0
  8 28  1  0
  8 29  1  0
  8 30  1  0
  9 31  1  0
 10 32  1  0
 10 33  1  0
 11 34  1  0
 11 35  1  0
 13 36  1  0
 13 37  1  0
 13 38  1  0
 14 39  1  0
 15 40  1  0
 15 41  1  0
 16 42  1  0
M  END
$$$$
