
     RDKit          3D

 29 30  0  0  0  0  0  0  0  0999 V2000
   -3.2529   -1.1984   -0.6254 C   0  0  0  0  0  0  0  0  0  0  0  0
   -2.2151   -0.2356   -0.1220 C   0  0  0  0  0  0  0  0  0  0  0  0
   -1.0980   -0.5559    0.5619 C   0  0  0  0  0  0  0  0  0  0  0  0
   -0.7496   -1.9508    1.0112 C   0  0  0  0  0  0  0  0  0  0  0  0
   -0.0880    0.5053    0.9582 C   0  0  0  0  0  0  0  0  0  0  0  0
    1.2628    0.3327    0.2815 C   0  0  0  0  0  0  0  0  0  0  0  0
    1.4028    0.4735   -1.1097 C   0  0  0  0  0  0  0  0  0  0  0  0
    2.6467    0.3104   -1.7210 C   0  0  0  0  0  0  0  0  0  0  0  0
    3.7669    0.0040   -0.9517 C   0  0  0  0  0  0  0  0  0  0  0  0
    3.6451   -0.1392    0.4289 C   0  0  0  0  0  0  0  0  0  0  0  0
    2.4016    0.0241    1.0430 C   0  0  0  0  0  0  0  0  0  0  0  0
   -0.5931    1.8423    0.7248 N   0  0  0  0  0  0  0  0  0  0  0  0
   -1.6826    2.1282   -0.0229 C   0  0  0  0  0  0  0  0  0  0  0  0
   -2.0741    3.6951   -0.4137 S   0  0  0  0  0  0  0  0  0  0  0  0
   -2.4522    1.0845   -0.4258 N   0  0  0  0  0  0  0  0  0  0  0  0
   -4.1497   -1.1479    0.0006 H   0  0  0  0  0  0  0  0  0  0  0  0
   -3.5391   -0.9489   -1.6536 H   0  0  0  0  0  0  0  0  0  0  0  0
   -2.9038   -2.2337   -0.6467 H   0  0  0  0  0  0  0  0  0  0  0  0
    0.0419   -2.3703    0.3823 H   0  0  0  0  0  0  0  0  0  0  0  0
   -1.6017   -2.6345    0.9884 H   0  0  0  0  0  0  0  0  0  0  0  0
   -0.3965   -1.9384    2.0483 H   0  0  0  0  0  0  0  0  0  0  0  0
    0.0484    0.4559    2.0464 H   0  0  0  0  0  0  0  0  0  0  0  0
    0.5366    0.7140   -1.7235 H   0  0  0  0  0  0  0  0  0  0  0  0
    2.7400    0.4243   -2.7979 H   0  0  0  0  0  0  0  0  0  0  0  0
    4.7353   -0.1219   -1.4286 H   0  0  0  0  0  0  0  0  0  0  0  0
    4.5201   -0.3774    1.0283 H   0  0  0  0  0  0  0  0  0  0  0  0
    2.3290   -0.0920    2.1221 H   0  0  0  0  0  0  0  0  0  0  0  0
    0.0009    2.6217    0.9728 H   0  0  0  0  0  0  0  0  0  0  0  0
   -3.2817    1.3291   -0.9562 H   0  0  0  0  0  0  0  0  0  0  0  0
  1  2  1  0
  2  3  2  0
  3  4  1  0
  3  5  1  0
  5  6  1  0
  6  7  2  0
  7  8  1  0
  8  9  2  0
  9 10  1  0
 10 11  2  0
  5 12  1  0
 12 13  1  0
 13 14  2  0
 13 15  1  0
 15  2  1  0
 11  6  1  0
  1 16  1  0
  1 17  1  0
  1 18  1  0
  4 19  1  0
  4 20  1  0
  4 21  1  0
  5 22  1  0
  7 23  1  0
  8 24  1  0
  9 25  1  0
 10 26  1  0
 11 27  1  0
 12 28  1  0
 15 29  1  0
M  END
$$$$
