
     RDKit          3D

 51 55  0  0  0  0  0  0  0  0999 V2000
   -7.3676    2.7930    0.3530 F   0  0  0  0  0  0  0  0  0  0  0  0
   -6.7811    1.5996    0.5156 C   0  0  0  0  0  0  0  0  0  0  0  0
   -7.5674    0.4754    0.7357 C   0  0  0  0  0  0  0  0  0  0  0  0
   -6.9567   -0.7661    0.9013 C   0  0  0  0  0  0  0  0  0  0  0  0
   -5.5641   -0.8720    0.8471 C   0  0  0  0  0  0  0  0  0  0  0  0
   -4.7692    0.2642    0.6305 C   0  0  0  0  0  0  0  0  0  0  0  0
   -3.2641    0.1452    0.5545 C   0  0  0  0  0  0  0  0  0  0  0  0
   -2.7926   -0.1571   -0.8747 C   0  0  0  0  0  0  0  0  0  0  0  0
   -1.3559   -0.2901   -1.1177 N   0  0  0  0  0  0  0  0  0  0  0  0
   -0.5650    0.9452   -1.0115 C   0  0  0  0  0  0  0  0  0  0  0  0
    0.0814    1.2325    0.3632 C   0  0  0  0  0  0  0  0  0  0  0  0
    0.8261    0.0606    0.8578 N   0  0  0  0  0  0  0  0  0  0  0  0
    2.1607   -0.0906    0.4808 C   0  0  0  0  0  0  0  0  0  0  0  0
    2.5239   -1.1646   -0.1736 N   0  0  0  0  0  0  0  0  0  0  0  0
    3.8553   -1.3305   -0.6025 C   0  0  0  0  0  0  0  0  0  0  0  0
    4.1820   -2.4836   -1.3186 C   0  0  0  0  0  0  0  0  0  0  0  0
    5.4855   -2.6937   -1.7769 C   0  0  0  0  0  0  0  0  0  0  0  0
    6.4785   -1.7470   -1.5222 C   0  0  0  0  0  0  0  0  0  0  0  0
    6.1747   -0.5869   -0.8088 C   0  0  0  0  0  0  0  0  0  0  0  0
    4.8661   -0.3905   -0.3577 C   0  0  0  0  0  0  0  0  0  0  0  0
    4.4760    0.7407    0.3766 N   0  0  0  0  0  0  0  0  0  0  0  0
    5.2261    1.8130    0.7984 C   0  0  0  0  0  0  0  0  0  0  0  0
    4.4160    2.6355    1.5513 C   0  0  0  0  0  0  0  0  0  0  0  0
    3.1292    2.0494    1.5731 C   0  0  0  0  0  0  0  0  0  0  0  0
    3.1774    0.8979    0.8069 C   0  0  0  0  0  0  0  0  0  0  0  0
   -0.0343   -1.1370    0.9063 C   0  0  0  0  0  0  0  0  0  0  0  0
   -0.6925   -1.4296   -0.4611 C   0  0  0  0  0  0  0  0  0  0  0  0
   -5.3938    1.5066    0.4593 C   0  0  0  0  0  0  0  0  0  0  0  0
   -8.6473    0.5737    0.7746 H   0  0  0  0  0  0  0  0  0  0  0  0
   -7.5634   -1.6521    1.0710 H   0  0  0  0  0  0  0  0  0  0  0  0
   -5.1025   -1.8495    0.9743 H   0  0  0  0  0  0  0  0  0  0  0  0
   -2.9454   -0.6438    1.2436 H   0  0  0  0  0  0  0  0  0  0  0  0
   -2.8240    1.0785    0.9199 H   0  0  0  0  0  0  0  0  0  0  0  0
   -3.1819    0.6165   -1.5506 H   0  0  0  0  0  0  0  0  0  0  0  0
   -3.2769   -1.0816   -1.2181 H   0  0  0  0  0  0  0  0  0  0  0  0
   -1.1580    1.8132   -1.3244 H   0  0  0  0  0  0  0  0  0  0  0  0
    0.2452    0.8662   -1.7487 H   0  0  0  0  0  0  0  0  0  0  0  0
    0.7248    2.1122    0.2663 H   0  0  0  0  0  0  0  0  0  0  0  0
   -0.6839    1.4954    1.1001 H   0  0  0  0  0  0  0  0  0  0  0  0
    3.4102   -3.2213   -1.5211 H   0  0  0  0  0  0  0  0  0  0  0  0
    5.7231   -3.5966   -2.3335 H   0  0  0  0  0  0  0  0  0  0  0  0
    7.4912   -1.9151   -1.8806 H   0  0  0  0  0  0  0  0  0  0  0  0
    6.9635    0.1337   -0.6211 H   0  0  0  0  0  0  0  0  0  0  0  0
    6.2742    1.9065    0.5545 H   0  0  0  0  0  0  0  0  0  0  0  0
    4.7237    3.5506    2.0407 H   0  0  0  0  0  0  0  0  0  0  0  0
    2.2586    2.4250    2.0941 H   0  0  0  0  0  0  0  0  0  0  0  0
   -0.8044   -0.9721    1.6670 H   0  0  0  0  0  0  0  0  0  0  0  0
    0.5331   -2.0124    1.2451 H   0  0  0  0  0  0  0  0  0  0  0  0
    0.0859   -1.7804   -1.1501 H   0  0  0  0  0  0  0  0  0  0  0  0
   -1.3855   -2.2736   -0.3583 H   0  0  0  0  0  0  0  0  0  0  0  0
   -4.8149    2.4079    0.2810 H   0  0  0  0  0  0  0  0  0  0  0  0
  1  2  1  0
  2  3  2  0
  3  4  1  0
  4  5  2  0
  5  6  1  0
  6  7  1  0
  7  8  1  0
  8  9  1  0
  9 10  1  0
 10 11  1  0
 11 12  1  0
 12 13  1  0
 13 14  2  0
 14 15  1  0
 15 16  2  0
 16 17  1  0
 17 18  2  0
 18 19  1  0
 19 20  2  0
 20 21  1  0
 21 22  1  0
 22 23  2  0
 23 24  1  0
 24 25  2  0
 12 26  1  0
 26 27  1  0
  6 28  2  0
 28  2  1  0
 27  9  1  0
 25 13  1  0
 20 15  1  0
 25 21  1  0
  3 29  1  0
  4 30  1  0
  5 31  1  0
  7 32  1  0
  7 33  1  0
  8 34  1  0
  8 35  1  0
 10 36  1  0
 10 37  1  0
 11 38  1  0
 11 39  1  0
 16 40  1  0
 17 41  1  0
 18 42  1  0
 19 43  1  0
 22 44  1  0
 23 45  1  0
 24 46  1  0
 26 47  1  0
 26 48  1  0
 27 49  1  0
 27 50  1  0
 28 51  1  0
M  END
$$$$
