
     RDKit          3D

 50 53  0  0  0  0  0  0  0  0999 V2000
    8.3688    1.9018    0.7130 C   0  0  0  0  0  0  0  0  0  0  0  0
    7.3109    2.3748   -0.1106 O   0  0  0  0  0  0  0  0  0  0  0  0
    6.1663    1.6283   -0.1337 C   0  0  0  0  0  0  0  0  0  0  0  0
    5.9413    0.4468    0.5662 C   0  0  0  0  0  0  0  0  0  0  0  0
    4.7120   -0.2173    0.4489 C   0  0  0  0  0  0  0  0  0  0  0  0
    3.6736    0.2777   -0.3617 C   0  0  0  0  0  0  0  0  0  0  0  0
    2.3848   -0.4401   -0.4612 C   0  0  0  0  0  0  0  0  0  0  0  0
    1.1800    0.1973   -0.6983 C   0  0  0  0  0  0  0  0  0  0  0  0
    0.0190   -0.5743   -0.7654 C   0  0  0  0  0  0  0  0  0  0  0  0
   -1.2470    0.1682   -0.9633 C   0  0  0  0  0  0  0  0  0  0  0  0
   -1.3420    0.8859   -1.9494 O   0  0  0  0  0  0  0  0  0  0  0  0
   -2.1648   -0.0080    0.0538 N   0  0  0  0  0  0  0  0  0  0  0  0
   -3.4622    0.5388    0.1409 C   0  0  0  0  0  0  0  0  0  0  0  0
   -4.0376    1.3324   -0.8461 C   0  0  0  0  0  0  0  0  0  0  0  0
   -5.3475    1.7967   -0.6991 C   0  0  0  0  0  0  0  0  0  0  0  0
   -6.0997    1.4913    0.4455 C   0  0  0  0  0  0  0  0  0  0  0  0
   -7.5189    1.9794    0.5378 C   0  0  0  0  0  0  0  0  0  0  0  0
   -5.5041    0.7501    1.4788 C   0  0  0  0  0  0  0  0  0  0  0  0
   -6.2417    0.3246    2.5963 N   0  0  0  0  0  0  0  0  0  0  0  0
   -4.2105    0.2392    1.2878 C   0  0  0  0  0  0  0  0  0  0  0  0
    0.0629   -1.9788   -0.6405 C   0  0  0  0  0  0  0  0  0  0  0  0
   -1.0521   -2.8479   -0.7699 C   0  0  0  0  0  0  0  0  0  0  0  0
   -0.9112   -4.2254   -0.6149 C   0  0  0  0  0  0  0  0  0  0  0  0
    0.3404   -4.7555   -0.3390 C   0  0  0  0  0  0  0  0  0  0  0  0
    1.4432   -3.9050   -0.2314 C   0  0  0  0  0  0  0  0  0  0  0  0
    1.3305   -2.5295   -0.3844 C   0  0  0  0  0  0  0  0  0  0  0  0
    2.4441   -1.7839   -0.2826 N   0  0  0  0  0  0  0  0  0  0  0  0
    3.9277    1.4663   -1.0666 C   0  0  0  0  0  0  0  0  0  0  0  0
    5.1551    2.1310   -0.9513 C   0  0  0  0  0  0  0  0  0  0  0  0
    9.2019    2.6058    0.6240 H   0  0  0  0  0  0  0  0  0  0  0  0
    8.7238    0.9224    0.3763 H   0  0  0  0  0  0  0  0  0  0  0  0
    8.0678    1.8735    1.7653 H   0  0  0  0  0  0  0  0  0  0  0  0
    6.6951    0.0082    1.2107 H   0  0  0  0  0  0  0  0  0  0  0  0
    4.5657   -1.1417    1.0065 H   0  0  0  0  0  0  0  0  0  0  0  0
    1.1193    1.2753   -0.8080 H   0  0  0  0  0  0  0  0  0  0  0  0
   -1.8756   -0.5835    0.8362 H   0  0  0  0  0  0  0  0  0  0  0  0
   -3.5048    1.5926   -1.7555 H   0  0  0  0  0  0  0  0  0  0  0  0
   -5.7811    2.3917   -1.5005 H   0  0  0  0  0  0  0  0  0  0  0  0
   -8.2027    1.1385    0.6923 H   0  0  0  0  0  0  0  0  0  0  0  0
   -7.6212    2.6917    1.3626 H   0  0  0  0  0  0  0  0  0  0  0  0
   -7.8308    2.4879   -0.3805 H   0  0  0  0  0  0  0  0  0  0  0  0
   -5.6698    0.0925    3.4020 H   0  0  0  0  0  0  0  0  0  0  0  0
   -7.0063    0.9444    2.8435 H   0  0  0  0  0  0  0  0  0  0  0  0
   -3.7870   -0.4032    2.0551 H   0  0  0  0  0  0  0  0  0  0  0  0
   -2.0397   -2.4595   -1.0136 H   0  0  0  0  0  0  0  0  0  0  0  0
   -1.7735   -4.8796   -0.7189 H   0  0  0  0  0  0  0  0  0  0  0  0
    0.4685   -5.8285   -0.2196 H   0  0  0  0  0  0  0  0  0  0  0  0
    2.4245   -4.3305   -0.0304 H   0  0  0  0  0  0  0  0  0  0  0  0
    3.1814    1.8891   -1.7356 H   0  0  0  0  0  0  0  0  0  0  0  0
    5.3234    3.0478   -1.5116 H   0  0  0  0  0  0  0  0  0  0  0  0
  1  2  1  0
  2  3  1  0
  3  4  2  0
  4  5  1  0
  5  6  2  0
  6  7  1  0
  7  8  2  0
  8  9  1  0
  9 10  1  0
 10 11  2  0
 10 12  1  0
 12 13  1  0
 13 14  2  0
 14 15  1  0
 15 16  2  0
 16 17  1  0
 16 18  1  0
 18 19  1  0
 18 20  2  0
  9 21  2  0
 21 22  1  0
 22 23  2  0
 23 24  1  0
 24 25  2  0
 25 26  1  0
 26 27  2  0
  6 28  1  0
 28 29  2  0
 29  3  1  0
 27  7  1  0
 20 13  1  0
 26 21  1  0
  1 30  1  0
  1 31  1  0
  1 32  1  0
  4 33  1  0
  5 34  1  0
  8 35  1  0
 12 36  1  0
 14 37  1  0
 15 38  1  0
 17 39  1  0
 17 40  1  0
 17 41  1  0
 19 42  1  0
 19 43  1  0
 20 44  1  0
 22 45  1  0
 23 46  1  0
 24 47  1  0
 25 48  1  0
 28 49  1  0
 29 50  1  0
M  END
$$$$
