
     RDKit          3D

 57 62  0  0  0  0  0  0  0  0999 V2000
    7.6440    0.4844   -1.1697 C   0  0  0  0  0  0  0  0  0  0  0  0
    6.6024   -0.1836   -0.3409 C   0  0  0  0  0  0  0  0  0  0  0  0
    6.5750   -1.4842    0.1149 C   0  0  0  0  0  0  0  0  0  0  0  0
    5.4140   -1.7552    0.8938 C   0  0  0  0  0  0  0  0  0  0  0  0
    4.5661   -0.6676    0.9753 C   0  0  0  0  0  0  0  0  0  0  0  0
    3.3247   -0.5848    1.7297 C   0  0  0  0  0  0  0  0  0  0  0  0
    3.2506   -1.0306    2.8764 O   0  0  0  0  0  0  0  0  0  0  0  0
    2.1882   -0.0250    1.1216 N   0  0  0  0  0  0  0  0  0  0  0  0
    2.0176    0.0992   -0.3240 C   0  0  0  0  0  0  0  0  0  0  0  0
    0.5708   -0.1634   -0.7356 C   0  0  0  0  0  0  0  0  0  0  0  0
   -0.3885    0.8778   -0.1033 C   0  0  0  0  0  0  0  0  0  0  0  0
    0.0488    1.2035    1.3578 C   0  0  0  0  0  0  0  0  0  0  0  0
    1.0125    0.1842    1.9548 C   0  0  0  0  0  0  0  0  0  0  0  0
   -0.1898    2.1424   -0.8025 O   0  0  0  0  0  0  0  0  0  0  0  0
   -0.8431    2.3336   -1.9846 C   0  0  0  0  0  0  0  0  0  0  0  0
   -0.4471    3.4422   -2.7323 C   0  0  0  0  0  0  0  0  0  0  0  0
   -1.0416    3.7010   -3.9703 C   0  0  0  0  0  0  0  0  0  0  0  0
   -2.0333    2.8490   -4.4575 C   0  0  0  0  0  0  0  0  0  0  0  0
   -2.7554    3.1673   -5.9849 Cl  0  0  0  0  0  0  0  0  0  0  0  0
   -2.4429    1.7455   -3.7144 C   0  0  0  0  0  0  0  0  0  0  0  0
   -1.8494    1.5048   -2.4718 C   0  0  0  0  0  0  0  0  0  0  0  0
   -2.2719    0.3638   -1.6493 C   0  0  0  0  0  0  0  0  0  0  0  0
   -2.8825   -0.5711   -2.1604 O   0  0  0  0  0  0  0  0  0  0  0  0
   -1.8776    0.4321   -0.1793 C   0  0  0  0  0  0  0  0  0  0  0  0
   -2.2131   -0.8604    0.5489 C   0  0  0  0  0  0  0  0  0  0  0  0
   -3.5514   -0.4817    1.0862 C   0  0  0  0  0  0  0  0  0  0  0  0
   -4.4734   -1.4761    1.6673 C   0  0  0  0  0  0  0  0  0  0  0  0
   -4.1524   -2.8305    1.7697 C   0  0  0  0  0  0  0  0  0  0  0  0
   -5.0702   -3.7092    2.3445 C   0  0  0  0  0  0  0  0  0  0  0  0
   -6.2774   -3.2016    2.7991 C   0  0  0  0  0  0  0  0  0  0  0  0
   -6.6185   -1.8983    2.7171 N   0  0  0  0  0  0  0  0  0  0  0  0
   -5.7103   -1.0637    2.1518 C   0  0  0  0  0  0  0  0  0  0  0  0
   -3.8147    0.7848    1.0421 N   0  0  0  0  0  0  0  0  0  0  0  0
   -2.7169    1.4282    0.4320 O   0  0  0  0  0  0  0  0  0  0  0  0
    5.2344    0.6967    0.1872 S   0  0  0  0  0  0  0  0  0  0  0  0
    7.2447    0.7468   -2.1544 H   0  0  0  0  0  0  0  0  0  0  0  0
    8.5019   -0.1776   -1.3232 H   0  0  0  0  0  0  0  0  0  0  0  0
    8.0097    1.3963   -0.6847 H   0  0  0  0  0  0  0  0  0  0  0  0
    7.3579   -2.2058   -0.0853 H   0  0  0  0  0  0  0  0  0  0  0  0
    5.2032   -2.7035    1.3721 H   0  0  0  0  0  0  0  0  0  0  0  0
    2.3173    1.1122   -0.6098 H   0  0  0  0  0  0  0  0  0  0  0  0
    2.6681   -0.6131   -0.8397 H   0  0  0  0  0  0  0  0  0  0  0  0
    0.5196   -0.1337   -1.8297 H   0  0  0  0  0  0  0  0  0  0  0  0
    0.2961   -1.1794   -0.4277 H   0  0  0  0  0  0  0  0  0  0  0  0
   -0.8156    1.2924    2.0245 H   0  0  0  0  0  0  0  0  0  0  0  0
    0.5398    2.1855    1.3870 H   0  0  0  0  0  0  0  0  0  0  0  0
    1.3292    0.5222    2.9490 H   0  0  0  0  0  0  0  0  0  0  0  0
    0.5297   -0.7898    2.0889 H   0  0  0  0  0  0  0  0  0  0  0  0
    0.3288    4.1050   -2.3548 H   0  0  0  0  0  0  0  0  0  0  0  0
   -0.7273    4.5667   -4.5485 H   0  0  0  0  0  0  0  0  0  0  0  0
   -3.2226    1.0861   -4.0885 H   0  0  0  0  0  0  0  0  0  0  0  0
   -1.5632   -1.0595    1.4027 H   0  0  0  0  0  0  0  0  0  0  0  0
   -2.2455   -1.7427   -0.0941 H   0  0  0  0  0  0  0  0  0  0  0  0
   -3.2055   -3.2243    1.4151 H   0  0  0  0  0  0  0  0  0  0  0  0
   -4.8491   -4.7676    2.4363 H   0  0  0  0  0  0  0  0  0  0  0  0
   -7.0228   -3.8478    3.2548 H   0  0  0  0  0  0  0  0  0  0  0  0
   -6.0220   -0.0222    2.1043 H   0  0  0  0  0  0  0  0  0  0  0  0
  1  2  1  0
  2  3  2  0
  3  4  1  0
  4  5  2  0
  5  6  1  0
  6  7  2  0
  6  8  1  0
  8  9  1  0
  9 10  1  0
 10 11  1  0
 11 12  1  0
 12 13  1  0
 11 14  1  0
 14 15  1  0
 15 16  2  0
 16 17  1  0
 17 18  2  0
 18 19  1  0
 18 20  1  0
 20 21  2  0
 21 22  1  0
 22 23  2  0
 22 24  1  0
 24 25  1  0
 25 26  1  0
 26 27  1  0
 27 28  2  0
 28 29  1  0
 29 30  2  0
 30 31  1  0
 31 32  2  0
 26 33  2  0
 33 34  1  0
  5 35  1  0
 35  2  1  0
 13  8  1  0
 21 15  1  0
 34 24  1  0
 24 11  1  0
 32 27  1  0
  1 36  1  0
  1 37  1  0
  1 38  1  0
  3 39  1  0
  4 40  1  0
  9 41  1  0
  9 42  1  0
 10 43  1  0
 10 44  1  0
 12 45  1  0
 12 46  1  0
 13 47  1  0
 13 48  1  0
 16 49  1  0
 17 50  1  0
 20 51  1  0
 25 52  1  0
 25 53  1  0
 28 54  1  0
 29 55  1  0
 30 56  1  0
 32 57  1  0
M  END
$$$$
