
     RDKit          3D

 44 46  0  0  0  0  0  0  0  0999 V2000
   -6.7851    0.9277   -1.4028 C   0  0  0  0  0  0  0  0  0  0  0  0
   -5.6213    1.7136   -1.1750 O   0  0  0  0  0  0  0  0  0  0  0  0
   -4.5056    1.0597   -0.7281 C   0  0  0  0  0  0  0  0  0  0  0  0
   -4.4990   -0.2459   -0.2304 C   0  0  0  0  0  0  0  0  0  0  0  0
   -3.3025   -0.8474    0.1824 C   0  0  0  0  0  0  0  0  0  0  0  0
   -2.0873   -0.1618    0.0828 C   0  0  0  0  0  0  0  0  0  0  0  0
   -0.8150   -0.7534    0.5191 C   0  0  0  0  0  0  0  0  0  0  0  0
   -0.3095   -1.9398    0.1301 C   0  0  0  0  0  0  0  0  0  0  0  0
   -0.9539   -2.8463   -0.7555 C   0  0  0  0  0  0  0  0  0  0  0  0
   -1.4977   -3.5631   -1.4891 N   0  0  0  0  0  0  0  0  0  0  0  0
    0.9911   -2.3701    0.7182 C   0  0  0  0  0  0  0  0  0  0  0  0
    1.0518   -3.4319    1.3234 O   0  0  0  0  0  0  0  0  0  0  0  0
    2.0184   -1.4733    0.4784 N   0  0  0  0  0  0  0  0  0  0  0  0
    3.3641   -1.5439    0.9337 C   0  0  0  0  0  0  0  0  0  0  0  0
    3.7897   -2.5683    1.7861 C   0  0  0  0  0  0  0  0  0  0  0  0
    5.1015   -2.6084    2.2445 C   0  0  0  0  0  0  0  0  0  0  0  0
    6.0033   -1.6223    1.8547 C   0  0  0  0  0  0  0  0  0  0  0  0
    5.6323   -0.5912    1.0096 C   0  0  0  0  0  0  0  0  0  0  0  0
    6.5786    0.3096    0.6897 N   0  0  0  0  0  0  0  0  0  0  0  0
    6.2497    1.3210   -0.1360 C   0  0  0  0  0  0  0  0  0  0  0  0
    4.9940    1.4818   -0.6758 C   0  0  0  0  0  0  0  0  0  0  0  0
    4.0161    0.5487   -0.3418 C   0  0  0  0  0  0  0  0  0  0  0  0
    4.3007   -0.5345    0.5279 C   0  0  0  0  0  0  0  0  0  0  0  0
   -2.0930    1.1526   -0.3914 C   0  0  0  0  0  0  0  0  0  0  0  0
   -3.2931    1.7632   -0.7718 C   0  0  0  0  0  0  0  0  0  0  0  0
   -3.1835    3.0475   -1.2467 O   0  0  0  0  0  0  0  0  0  0  0  0
   -3.8464    3.9785   -0.3885 C   0  0  0  0  0  0  0  0  0  0  0  0
   -7.5347    1.5685   -1.8789 H   0  0  0  0  0  0  0  0  0  0  0  0
   -6.5774    0.0957   -2.0843 H   0  0  0  0  0  0  0  0  0  0  0  0
   -7.2053    0.5722   -0.4575 H   0  0  0  0  0  0  0  0  0  0  0  0
   -5.4104   -0.8298   -0.1452 H   0  0  0  0  0  0  0  0  0  0  0  0
   -3.3446   -1.8597    0.5812 H   0  0  0  0  0  0  0  0  0  0  0  0
   -0.2653   -0.1346    1.2291 H   0  0  0  0  0  0  0  0  0  0  0  0
    1.7901   -0.6763   -0.0990 H   0  0  0  0  0  0  0  0  0  0  0  0
    3.1240   -3.3573    2.1236 H   0  0  0  0  0  0  0  0  0  0  0  0
    5.4228   -3.4087    2.9074 H   0  0  0  0  0  0  0  0  0  0  0  0
    7.0267   -1.6604    2.2216 H   0  0  0  0  0  0  0  0  0  0  0  0
    7.0503    2.0196   -0.3572 H   0  0  0  0  0  0  0  0  0  0  0  0
    4.7785    2.3099   -1.3422 H   0  0  0  0  0  0  0  0  0  0  0  0
    3.0359    0.6876   -0.7845 H   0  0  0  0  0  0  0  0  0  0  0  0
   -1.1707    1.7238   -0.4685 H   0  0  0  0  0  0  0  0  0  0  0  0
   -4.9187    4.0249   -0.6077 H   0  0  0  0  0  0  0  0  0  0  0  0
   -3.6739    3.7524    0.6732 H   0  0  0  0  0  0  0  0  0  0  0  0
   -3.4256    4.9702   -0.5906 H   0  0  0  0  0  0  0  0  0  0  0  0
  1  2  1  0
  2  3  1  0
  3  4  2  0
  4  5  1  0
  5  6  2  0
  6  7  1  0
  7  8  2  3
  8  9  1  0
  9 10  3  0
  8 11  1  0
 11 12  2  0
 11 13  1  0
 13 14  1  0
 14 15  2  0
 15 16  1  0
 16 17  2  0
 17 18  1  0
 18 19  2  0
 19 20  1  0
 20 21  2  0
 21 22  1  0
 22 23  2  0
  6 24  1  0
 24 25  2  0
 25 26  1  0
 26 27  1  0
 25  3  1  0
 23 14  1  0
 23 18  1  0
  1 28  1  0
  1 29  1  0
  1 30  1  0
  4 31  1  0
  5 32  1  0
  7 33  1  0
 13 34  1  0
 15 35  1  0
 16 36  1  0
 17 37  1  0
 20 38  1  0
 21 39  1  0
 22 40  1  0
 24 41  1  0
 27 42  1  0
 27 43  1  0
 27 44  1  0
M  END
$$$$
