
     RDKit          3D

 31 33  0  0  0  0  0  0  0  0999 V2000
   -1.7217    0.2798   -1.8038 C   0  0  0  0  0  0  0  0  0  0  0  0
   -2.6449    0.0352   -0.6533 C   0  0  0  0  0  0  0  0  0  0  0  0
   -4.0737    0.0531   -0.8007 C   0  0  0  0  0  0  0  0  0  0  0  0
   -4.7388   -0.2045    0.3729 C   0  0  0  0  0  0  0  0  0  0  0  0
   -3.6653   -0.4727    1.6640 S   0  0  0  0  0  0  0  0  0  0  0  0
   -2.2793   -0.2517    0.6606 C   0  0  0  0  0  0  0  0  0  0  0  0
   -0.9098   -0.3693    1.3161 C   0  0  0  0  0  0  0  0  0  0  0  0
   -0.2420    0.9852    1.4241 C   0  0  0  0  0  0  0  0  0  0  0  0
    0.9567    0.9155    2.3274 C   0  0  0  0  0  0  0  0  0  0  0  0
    0.9126    1.3267    3.4869 O   0  0  0  0  0  0  0  0  0  0  0  0
    2.1362    0.4566    1.8187 N   0  0  0  0  0  0  0  0  0  0  0  0
    2.3771   -0.0510    0.5317 C   0  0  0  0  0  0  0  0  0  0  0  0
    3.6146    0.2879   -0.0374 C   0  0  0  0  0  0  0  0  0  0  0  0
    3.9478   -0.1298   -1.3256 C   0  0  0  0  0  0  0  0  0  0  0  0
    3.0596   -0.9175   -2.0469 C   0  0  0  0  0  0  0  0  0  0  0  0
    1.8508   -1.3065   -1.4680 C   0  0  0  0  0  0  0  0  0  0  0  0
    1.4920   -0.8852   -0.1752 C   0  0  0  0  0  0  0  0  0  0  0  0
    0.0588   -1.7068    0.5150 S   0  0  0  0  0  0  0  0  0  0  0  0
   -1.3293   -0.6681   -2.1842 H   0  0  0  0  0  0  0  0  0  0  0  0
   -2.2471    0.7765   -2.6267 H   0  0  0  0  0  0  0  0  0  0  0  0
   -0.8855    0.9229   -1.5208 H   0  0  0  0  0  0  0  0  0  0  0  0
   -4.5888    0.2461   -1.7346 H   0  0  0  0  0  0  0  0  0  0  0  0
   -5.8075   -0.2491    0.5318 H   0  0  0  0  0  0  0  0  0  0  0  0
   -1.0492   -0.7463    2.3385 H   0  0  0  0  0  0  0  0  0  0  0  0
   -0.9341    1.7131    1.8696 H   0  0  0  0  0  0  0  0  0  0  0  0
    0.0388    1.4166    0.4578 H   0  0  0  0  0  0  0  0  0  0  0  0
    2.9314    0.7097    2.3938 H   0  0  0  0  0  0  0  0  0  0  0  0
    4.3220    0.9108    0.5058 H   0  0  0  0  0  0  0  0  0  0  0  0
    4.9012    0.1572   -1.7625 H   0  0  0  0  0  0  0  0  0  0  0  0
    3.3179   -1.2580   -3.0467 H   0  0  0  0  0  0  0  0  0  0  0  0
    1.1996   -1.9762   -2.0281 H   0  0  0  0  0  0  0  0  0  0  0  0
  1  2  1  0
  2  3  1  0
  3  4  2  0
  4  5  1  0
  5  6  1  0
  6  7  1  0
  7  8  1  0
  8  9  1  0
  9 10  2  0
  9 11  1  0
 11 12  1  0
 12 13  2  0
 13 14  1  0
 14 15  2  0
 15 16  1  0
 16 17  2  0
 17 18  1  0
  6  2  2  0
 18  7  1  0
 17 12  1  0
  1 19  1  0
  1 20  1  0
  1 21  1  0
  3 22  1  0
  4 23  1  0
  7 24  1  0
  8 25  1  0
  8 26  1  0
 11 27  1  0
 13 28  1  0
 14 29  1  0
 15 30  1  0
 16 31  1  0
M  END
$$$$
