
     RDKit          3D

 46 49  0  0  0  0  0  0  0  0999 V2000
    2.9869    3.0711   -2.4027 O   0  0  0  0  0  0  0  0  0  0  0  0
    2.2815    2.0648   -2.4556 C   0  0  0  0  0  0  0  0  0  0  0  0
    1.0127    2.0717   -3.3019 C   0  0  0  0  0  0  0  0  0  0  0  0
   -0.2006    0.7956   -2.8450 S   0  0  0  0  0  0  0  0  0  0  0  0
   -0.8630    1.4750   -1.4018 C   0  0  0  0  0  0  0  0  0  0  0  0
   -0.4302    2.5574   -0.8038 N   0  0  0  0  0  0  0  0  0  0  0  0
   -1.2571    2.7948    0.2671 N   0  0  0  0  0  0  0  0  0  0  0  0
   -2.1593    1.8337    0.3183 C   0  0  0  0  0  0  0  0  0  0  0  0
   -3.2613    1.7393    1.3268 C   0  0  0  0  0  0  0  0  0  0  0  0
   -3.1683    0.5357    2.2315 C   0  0  0  0  0  0  0  0  0  0  0  0
   -4.0915   -0.4818    2.3941 C   0  0  0  0  0  0  0  0  0  0  0  0
   -3.6524   -1.4756    3.3173 C   0  0  0  0  0  0  0  0  0  0  0  0
   -2.4204   -1.1758    3.8509 C   0  0  0  0  0  0  0  0  0  0  0  0
   -1.8117    0.3103    3.2602 S   0  0  0  0  0  0  0  0  0  0  0  0
   -1.9377    0.9635   -0.7298 N   0  0  0  0  0  0  0  0  0  0  0  0
   -2.7279   -0.1921   -1.0950 C   0  0  0  0  0  0  0  0  0  0  0  0
   -2.1878   -1.4589   -0.5339 C   0  0  0  0  0  0  0  0  0  0  0  0
   -1.0119   -1.8372    0.0869 C   0  0  0  0  0  0  0  0  0  0  0  0
   -1.1482   -3.2085    0.4126 C   0  0  0  0  0  0  0  0  0  0  0  0
   -2.3935   -3.5868   -0.0390 C   0  0  0  0  0  0  0  0  0  0  0  0
   -3.0263   -2.5365   -0.6205 O   0  0  0  0  0  0  0  0  0  0  0  0
    2.6036    0.8398   -1.9061 N   0  0  0  0  0  0  0  0  0  0  0  0
    3.6695    0.5123   -1.0450 C   0  0  0  0  0  0  0  0  0  0  0  0
    4.5710    1.4594   -0.5490 C   0  0  0  0  0  0  0  0  0  0  0  0
    5.5969    1.0710    0.3234 C   0  0  0  0  0  0  0  0  0  0  0  0
    5.7305   -0.2671    0.7009 C   0  0  0  0  0  0  0  0  0  0  0  0
    6.9984   -0.7359    1.7635 Cl  0  0  0  0  0  0  0  0  0  0  0  0
    4.8420   -1.2252    0.2222 C   0  0  0  0  0  0  0  0  0  0  0  0
    3.8177   -0.8356   -0.6400 C   0  0  0  0  0  0  0  0  0  0  0  0
    2.7274   -2.0607   -1.2046 Cl  0  0  0  0  0  0  0  0  0  0  0  0
    1.3123    1.8928   -4.3383 H   0  0  0  0  0  0  0  0  0  0  0  0
    0.5475    3.0609   -3.2485 H   0  0  0  0  0  0  0  0  0  0  0  0
   -3.2707    2.6482    1.9453 H   0  0  0  0  0  0  0  0  0  0  0  0
   -4.2205    1.7299    0.7924 H   0  0  0  0  0  0  0  0  0  0  0  0
   -5.0287   -0.5302    1.8576 H   0  0  0  0  0  0  0  0  0  0  0  0
   -4.2094   -2.3723    3.5731 H   0  0  0  0  0  0  0  0  0  0  0  0
   -1.8410   -1.7575    4.5599 H   0  0  0  0  0  0  0  0  0  0  0  0
   -2.7784   -0.2518   -2.1879 H   0  0  0  0  0  0  0  0  0  0  0  0
   -3.7527   -0.0226   -0.7422 H   0  0  0  0  0  0  0  0  0  0  0  0
   -0.1605   -1.2029    0.3019 H   0  0  0  0  0  0  0  0  0  0  0  0
   -0.4377   -3.8408    0.9185 H   0  0  0  0  0  0  0  0  0  0  0  0
   -2.9448   -4.5162   -0.0224 H   0  0  0  0  0  0  0  0  0  0  0  0
    1.9691    0.0745   -2.1179 H   0  0  0  0  0  0  0  0  0  0  0  0
    4.4909    2.5106   -0.8026 H   0  0  0  0  0  0  0  0  0  0  0  0
    6.2865    1.8223    0.7016 H   0  0  0  0  0  0  0  0  0  0  0  0
    4.9491   -2.2631    0.5168 H   0  0  0  0  0  0  0  0  0  0  0  0
  1  2  2  0
  2  3  1  0
  3  4  1  0
  4  5  1  0
  5  6  2  0
  6  7  1  0
  7  8  2  0
  8  9  1  0
  9 10  1  0
 10 11  2  0
 11 12  1  0
 12 13  2  0
 13 14  1  0
  8 15  1  0
 15 16  1  0
 16 17  1  0
 17 18  2  0
 18 19  1  0
 19 20  2  0
 20 21  1  0
  2 22  1  0
 22 23  1  0
 23 24  2  0
 24 25  1  0
 25 26  2  0
 26 27  1  0
 26 28  1  0
 28 29  2  0
 29 30  1  0
 15  5  1  0
 21 17  1  0
 29 23  1  0
 14 10  1  0
  3 31  1  0
  3 32  1  0
  9 33  1  0
  9 34  1  0
 11 35  1  0
 12 36  1  0
 13 37  1  0
 16 38  1  0
 16 39  1  0
 18 40  1  0
 19 41  1  0
 20 42  1  0
 22 43  1  0
 24 44  1  0
 25 45  1  0
 28 46  1  0
M  END
$$$$
