
     RDKit          3D

 55 59  0  0  0  0  0  0  0  0999 V2000
    6.9369    2.2217   -0.8603 C   0  0  0  0  0  0  0  0  0  0  0  0
    7.2288    1.8571    0.4825 O   0  0  0  0  0  0  0  0  0  0  0  0
    6.2506    1.2109    1.1756 C   0  0  0  0  0  0  0  0  0  0  0  0
    6.6105    0.8404    2.4738 C   0  0  0  0  0  0  0  0  0  0  0  0
    5.7139    0.1624    3.3038 C   0  0  0  0  0  0  0  0  0  0  0  0
    4.4364   -0.1383    2.8324 C   0  0  0  0  0  0  0  0  0  0  0  0
    4.0563    0.2346    1.5413 C   0  0  0  0  0  0  0  0  0  0  0  0
    2.7036   -0.0367    1.0679 C   0  0  0  0  0  0  0  0  0  0  0  0
    1.7395    0.8526    0.9642 N   0  0  0  0  0  0  0  0  0  0  0  0
    0.5991    0.2054    0.5570 N   0  0  0  0  0  0  0  0  0  0  0  0
    0.9018   -1.0601    0.3802 C   0  0  0  0  0  0  0  0  0  0  0  0
   -0.1728   -2.3034   -0.1469 S   0  0  0  0  0  0  0  0  0  0  0  0
   -1.7985   -1.4567    0.0909 C   0  0  0  0  0  0  0  0  0  0  0  0
   -2.0421   -0.3396   -0.9507 C   0  0  0  0  0  0  0  0  0  0  0  0
   -1.5794   -0.3938   -2.1007 O   0  0  0  0  0  0  0  0  0  0  0  0
   -2.9228    0.7796   -0.5531 C   0  0  0  0  0  0  0  0  0  0  0  0
   -3.6648    0.8697    0.6165 C   0  0  0  0  0  0  0  0  0  0  0  0
   -4.3668    2.0489    0.5962 N   0  0  0  0  0  0  0  0  0  0  0  0
   -4.1045    2.7495   -0.5594 C   0  0  0  0  0  0  0  0  0  0  0  0
   -4.5982    3.9900   -0.9988 C   0  0  0  0  0  0  0  0  0  0  0  0
   -4.1522    4.4681   -2.2382 C   0  0  0  0  0  0  0  0  0  0  0  0
   -3.2490    3.7319   -3.0042 C   0  0  0  0  0  0  0  0  0  0  0  0
   -2.7702    2.4931   -2.5502 C   0  0  0  0  0  0  0  0  0  0  0  0
   -3.2019    1.9819   -1.2999 C   0  0  0  0  0  0  0  0  0  0  0  0
   -2.9191   -2.4916    0.1066 C   0  0  0  0  0  0  0  0  0  0  0  0
   -3.4362   -3.0334   -1.0838 C   0  0  0  0  0  0  0  0  0  0  0  0
   -4.4714   -3.9703   -1.0433 C   0  0  0  0  0  0  0  0  0  0  0  0
   -4.9852   -4.3910    0.1745 C   0  0  0  0  0  0  0  0  0  0  0  0
   -4.4679   -3.8802    1.3668 C   0  0  0  0  0  0  0  0  0  0  0  0
   -3.4407   -2.9388    1.3359 C   0  0  0  0  0  0  0  0  0  0  0  0
    2.2146   -1.2702    0.6877 N   0  0  0  0  0  0  0  0  0  0  0  0
    2.9318   -2.5257    0.6483 C   0  0  0  0  0  0  0  0  0  0  0  0
    4.9660    0.9187    0.7127 C   0  0  0  0  0  0  0  0  0  0  0  0
    6.1166    2.9395   -0.9047 H   0  0  0  0  0  0  0  0  0  0  0  0
    7.8293    2.7083   -1.2786 H   0  0  0  0  0  0  0  0  0  0  0  0
    6.7269    1.3369   -1.4672 H   0  0  0  0  0  0  0  0  0  0  0  0
    7.6079    1.0767    2.8473 H   0  0  0  0  0  0  0  0  0  0  0  0
    6.0045   -0.1089    4.3177 H   0  0  0  0  0  0  0  0  0  0  0  0
    3.7349   -0.6483    3.4953 H   0  0  0  0  0  0  0  0  0  0  0  0
   -1.7492   -0.9838    1.0854 H   0  0  0  0  0  0  0  0  0  0  0  0
   -3.7737    0.1853    1.4599 H   0  0  0  0  0  0  0  0  0  0  0  0
   -5.0004    2.3706    1.3168 H   0  0  0  0  0  0  0  0  0  0  0  0
   -5.3084    4.5656   -0.4071 H   0  0  0  0  0  0  0  0  0  0  0  0
   -4.5123    5.4275   -2.6210 H   0  0  0  0  0  0  0  0  0  0  0  0
   -2.9148    4.1241   -3.9643 H   0  0  0  0  0  0  0  0  0  0  0  0
   -2.0624    1.9216   -3.1559 H   0  0  0  0  0  0  0  0  0  0  0  0
   -3.0301   -2.7329   -2.0604 H   0  0  0  0  0  0  0  0  0  0  0  0
   -4.8809   -4.3697   -1.9656 H   0  0  0  0  0  0  0  0  0  0  0  0
   -5.7906   -5.1183    0.1997 H   0  0  0  0  0  0  0  0  0  0  0  0
   -4.8717   -4.2089    2.3204 H   0  0  0  0  0  0  0  0  0  0  0  0
   -3.0452   -2.5566    2.2775 H   0  0  0  0  0  0  0  0  0  0  0  0
    2.7649   -3.0067   -0.3175 H   0  0  0  0  0  0  0  0  0  0  0  0
    2.5595   -3.1612    1.4653 H   0  0  0  0  0  0  0  0  0  0  0  0
    4.0043   -2.3616    0.7729 H   0  0  0  0  0  0  0  0  0  0  0  0
    4.6443    1.2139   -0.2883 H   0  0  0  0  0  0  0  0  0  0  0  0
  1  2  1  0
  2  3  1  0
  3  4  2  0
  4  5  1  0
  5  6  2  0
  6  7  1  0
  7  8  1  0
  8  9  2  0
  9 10  1  0
 10 11  2  0
 11 12  1  0
 12 13  1  0
 13 14  1  0
 14 15  2  0
 14 16  1  0
 16 17  2  0
 17 18  1  0
 18 19  1  0
 19 20  2  0
 20 21  1  0
 21 22  2  0
 22 23  1  0
 23 24  2  0
 13 25  1  0
 25 26  2  0
 26 27  1  0
 27 28  2  0
 28 29  1  0
 29 30  2  0
 11 31  1  0
 31 32  1  0
  7 33  2  0
 33  3  1  0
 31  8  1  0
 24 16  1  0
 30 25  1  0
 24 19  1  0
  1 34  1  0
  1 35  1  0
  1 36  1  0
  4 37  1  0
  5 38  1  0
  6 39  1  0
 13 40  1  0
 17 41  1  0
 18 42  1  0
 20 43  1  0
 21 44  1  0
 22 45  1  0
 23 46  1  0
 26 47  1  0
 27 48  1  0
 28 49  1  0
 29 50  1  0
 30 51  1  0
 32 52  1  0
 32 53  1  0
 32 54  1  0
 33 55  1  0
M  END
$$$$
