
     RDKit          3D

 38 39  0  0  0  0  0  0  0  0999 V2000
    3.4373    2.5224    0.4887 C   0  0  0  0  0  0  0  0  0  0  0  0
    3.5436    1.1109    0.0479 C   0  0  0  0  0  0  0  0  0  0  0  0
    4.3766    0.5772   -0.9584 C   0  0  0  0  0  0  0  0  0  0  0  0
    4.1112   -0.7753   -0.9812 C   0  0  0  0  0  0  0  0  0  0  0  0
    4.6715   -1.8500   -1.8361 C   0  0  0  0  0  0  0  0  0  0  0  0
    3.1694   -0.9803   -0.0066 N   0  0  0  0  0  0  0  0  0  0  0  0
    2.5459   -2.2279    0.3998 C   0  0  0  0  0  0  0  0  0  0  0  0
    1.0938   -2.3044   -0.0130 C   0  0  0  0  0  0  0  0  0  0  0  0
    0.6201   -3.3318   -0.4990 O   0  0  0  0  0  0  0  0  0  0  0  0
    0.3600   -1.1631    0.2785 N   0  0  0  0  0  0  0  0  0  0  0  0
   -0.9594   -1.1003   -0.0402 N   0  0  0  0  0  0  0  0  0  0  0  0
   -1.5256    0.0433    0.1775 C   0  0  0  0  0  0  0  0  0  0  0  0
   -2.9559    0.2447   -0.1296 C   0  0  0  0  0  0  0  0  0  0  0  0
   -3.5119    1.5026    0.1264 C   0  0  0  0  0  0  0  0  0  0  0  0
   -4.8685    1.7225   -0.1582 C   0  0  0  0  0  0  0  0  0  0  0  0
   -5.4581    3.0415    0.1058 N   0  0  0  0  0  4  0  0  0  0  0  0
   -6.6585    3.2009   -0.1535 O   0  0  0  0  0  0  0  0  0  0  0  0
   -4.7154    3.9167    0.5725 O   0  0  0  0  0  1  0  0  0  0  0  0
   -5.6660    0.7008   -0.6920 C   0  0  0  0  0  0  0  0  0  0  0  0
   -5.1006   -0.5506   -0.9422 C   0  0  0  0  0  0  0  0  0  0  0  0
   -3.7532   -0.7773   -0.6631 C   0  0  0  0  0  0  0  0  0  0  0  0
   -3.2839   -2.0310   -0.9404 O   0  0  0  0  0  0  0  0  0  0  0  0
    2.7932    0.1620    0.6205 N   0  0  0  0  0  0  0  0  0  0  0  0
    3.8794    3.1991   -0.2508 H   0  0  0  0  0  0  0  0  0  0  0  0
    3.9614    2.6649    1.4397 H   0  0  0  0  0  0  0  0  0  0  0  0
    2.3893    2.8101    0.6225 H   0  0  0  0  0  0  0  0  0  0  0  0
    5.0780    1.1092   -1.5868 H   0  0  0  0  0  0  0  0  0  0  0  0
    5.2090   -2.5859   -1.2301 H   0  0  0  0  0  0  0  0  0  0  0  0
    3.8766   -2.3615   -2.3878 H   0  0  0  0  0  0  0  0  0  0  0  0
    5.3755   -1.4394   -2.5668 H   0  0  0  0  0  0  0  0  0  0  0  0
    3.0966   -3.0596   -0.0476 H   0  0  0  0  0  0  0  0  0  0  0  0
    2.6235   -2.3031    1.4895 H   0  0  0  0  0  0  0  0  0  0  0  0
    0.8634   -0.3241    0.5880 H   0  0  0  0  0  0  0  0  0  0  0  0
   -0.9690    0.9023    0.5948 H   0  0  0  0  0  0  0  0  0  0  0  0
   -2.8963    2.2979    0.5409 H   0  0  0  0  0  0  0  0  0  0  0  0
   -6.7191    0.8592   -0.9173 H   0  0  0  0  0  0  0  0  0  0  0  0
   -5.7073   -1.3533   -1.3560 H   0  0  0  0  0  0  0  0  0  0  0  0
   -2.3263   -2.0696   -0.7101 H   0  0  0  0  0  0  0  0  0  0  0  0
  1  2  1  0
  2  3  1  0
  3  4  2  0
  4  5  1  0
  4  6  1  0
  6  7  1  0
  7  8  1  0
  8  9  2  0
  8 10  1  0
 10 11  1  0
 11 12  2  3
 12 13  1  0
 13 14  2  0
 14 15  1  0
 15 16  1  0
 16 17  2  0
 16 18  1  0
 15 19  2  0
 19 20  1  0
 20 21  2  0
 21 22  1  0
  6 23  1  0
 23  2  2  0
 21 13  1  0
  1 24  1  0
  1 25  1  0
  1 26  1  0
  3 27  1  0
  5 28  1  0
  5 29  1  0
  5 30  1  0
  7 31  1  0
  7 32  1  0
 10 33  1  0
 12 34  1  0
 14 35  1  0
 19 36  1  0
 20 37  1  0
 22 38  1  0
M  CHG  2  16   1  18  -1
M  END
$$$$
