
     RDKit          3D

 39 41  0  0  0  0  0  0  0  0999 V2000
   -1.4022    2.4874   -0.3073 O   0  0  0  0  0  0  0  0  0  0  0  0
   -1.2957    1.2674   -1.0813 S   0  0  0  0  0  6  0  0  0  0  0  0
   -0.9325    1.2801   -2.4804 O   0  0  0  0  0  0  0  0  0  0  0  0
   -0.2489    0.2159   -0.3021 N   0  0  0  0  0  0  0  0  0  0  0  0
   -0.0306    0.3803    1.1455 C   0  0  0  0  0  0  0  0  0  0  0  0
    0.9568   -0.6765    1.6515 C   0  0  0  0  0  0  0  0  0  0  0  0
    2.3243   -0.4889    1.0846 C   0  0  0  0  0  0  0  0  0  0  0  0
    3.4988   -0.1471    1.7271 C   0  0  0  0  0  0  0  0  0  0  0  0
    4.4587   -0.1000    0.7461 N   0  0  0  0  0  0  0  0  0  0  0  0
    5.8194    0.1808    0.8455 C   0  0  0  0  0  0  0  0  0  0  0  0
    6.5686    0.1861   -0.2703 C   0  0  0  0  0  0  0  0  0  0  0  0
    5.9317   -0.0989   -1.5474 C   0  0  0  0  0  0  0  0  0  0  0  0
    4.6158   -0.3820   -1.6356 C   0  0  0  0  0  0  0  0  0  0  0  0
    3.8185   -0.3938   -0.4556 C   0  0  0  0  0  0  0  0  0  0  0  0
    2.5360   -0.6337   -0.2713 N   0  0  0  0  0  0  0  0  0  0  0  0
   -2.8411    0.3875   -0.9469 C   0  0  0  0  0  0  0  0  0  0  0  0
   -3.1389   -0.6220   -1.8697 C   0  0  0  0  0  0  0  0  0  0  0  0
   -4.3620   -1.2864   -1.7852 C   0  0  0  0  0  0  0  0  0  0  0  0
   -5.2723   -0.9393   -0.7878 C   0  0  0  0  0  0  0  0  0  0  0  0
   -6.4438   -1.5870   -0.7341 F   0  0  0  0  0  0  0  0  0  0  0  0
   -4.9899    0.0663    0.1398 C   0  0  0  0  0  0  0  0  0  0  0  0
   -6.0098    0.4163    1.1844 C   0  0  0  0  0  0  0  0  0  0  0  0
   -5.4895    1.1688    2.1989 F   0  0  0  0  0  0  0  0  0  0  0  0
   -7.0465    1.1432    0.6830 F   0  0  0  0  0  0  0  0  0  0  0  0
   -6.5590   -0.6755    1.7905 F   0  0  0  0  0  0  0  0  0  0  0  0
   -3.7630    0.7456    0.0468 C   0  0  0  0  0  0  0  0  0  0  0  0
    0.6051    0.0149   -0.8429 H   0  0  0  0  0  0  0  0  0  0  0  0
   -0.9842    0.2668    1.6716 H   0  0  0  0  0  0  0  0  0  0  0  0
    0.3701    1.3810    1.3457 H   0  0  0  0  0  0  0  0  0  0  0  0
    0.6010   -1.6795    1.3873 H   0  0  0  0  0  0  0  0  0  0  0  0
    1.0046   -0.6274    2.7467 H   0  0  0  0  0  0  0  0  0  0  0  0
    3.7274    0.0604    2.7636 H   0  0  0  0  0  0  0  0  0  0  0  0
    6.2177    0.3859    1.8295 H   0  0  0  0  0  0  0  0  0  0  0  0
    7.6322    0.3986   -0.2486 H   0  0  0  0  0  0  0  0  0  0  0  0
    6.5529   -0.0810   -2.4393 H   0  0  0  0  0  0  0  0  0  0  0  0
    4.1391   -0.5971   -2.5858 H   0  0  0  0  0  0  0  0  0  0  0  0
   -2.4272   -0.8888   -2.6498 H   0  0  0  0  0  0  0  0  0  0  0  0
   -4.6139   -2.0733   -2.4924 H   0  0  0  0  0  0  0  0  0  0  0  0
   -3.5275    1.5450    0.7460 H   0  0  0  0  0  0  0  0  0  0  0  0
  1  2  2  0
  2  3  2  0
  2  4  1  0
  4  5  1  0
  5  6  1  0
  6  7  1  0
  7  8  2  0
  8  9  1  0
  9 10  1  0
 10 11  2  0
 11 12  1  0
 12 13  2  0
 13 14  1  0
 14 15  2  0
  2 16  1  0
 16 17  2  0
 17 18  1  0
 18 19  2  0
 19 20  1  0
 19 21  1  0
 21 22  1  0
 22 23  1  0
 22 24  1  0
 22 25  1  0
 21 26  2  0
 15  7  1  0
 26 16  1  0
 14  9  1  0
  4 27  1  0
  5 28  1  0
  5 29  1  0
  6 30  1  0
  6 31  1  0
  8 32  1  0
 10 33  1  0
 11 34  1  0
 12 35  1  0
 13 36  1  0
 17 37  1  0
 18 38  1  0
 26 39  1  0
M  END
$$$$
