
     RDKit          3D

 37 39  0  0  0  0  0  0  0  0999 V2000
   -7.3766    1.5744   -0.1702 C   0  0  0  0  0  0  0  0  0  0  0  0
   -6.4162    0.9993   -1.0467 O   0  0  0  0  0  0  0  0  0  0  0  0
   -5.1776    0.7451   -0.5284 C   0  0  0  0  0  0  0  0  0  0  0  0
   -4.2727    0.1791   -1.4250 C   0  0  0  0  0  0  0  0  0  0  0  0
   -2.9696   -0.1311   -1.0224 C   0  0  0  0  0  0  0  0  0  0  0  0
   -2.5360    0.1180    0.2895 C   0  0  0  0  0  0  0  0  0  0  0  0
   -1.1540   -0.2298    0.6536 C   0  0  0  0  0  0  0  0  0  0  0  0
   -0.2823   -0.8170   -0.1430 N   0  0  0  0  0  0  0  0  0  0  0  0
    0.9176   -0.9820    0.5164 C   0  0  0  0  0  0  0  0  0  0  0  0
    1.9982   -1.5731   -0.0865 N   0  0  0  0  0  0  0  0  0  0  0  0
    2.0591   -1.9542   -1.4073 C   0  0  0  0  0  0  0  0  0  0  0  0
    1.1818   -1.8021   -2.2542 O   0  0  0  0  0  0  0  0  0  0  0  0
    3.3740   -2.6220   -1.7794 C   0  0  0  0  0  0  0  0  0  0  0  0
    4.5628   -1.4014   -2.4084 S   0  0  0  0  0  0  0  0  0  0  0  0
    5.0324   -0.6081   -0.9267 C   0  0  0  0  0  0  0  0  0  0  0  0
    4.7693   -1.1221    0.2560 N   0  0  0  0  0  0  0  0  0  0  0  0
    5.1899   -0.3070    1.2835 N   0  0  0  0  0  0  0  0  0  0  0  0
    5.7759    0.7855    0.8380 C   0  0  0  0  0  0  0  0  0  0  0  0
    6.3390    1.8597    1.6933 C   0  0  0  0  0  0  0  0  0  0  0  0
    5.8488    0.8949   -0.8765 S   0  0  0  0  0  0  0  0  0  0  0  0
    1.0199   -0.5697    1.7800 N   0  0  0  0  0  0  0  0  0  0  0  0
   -0.4539    0.0867    2.1922 S   0  0  0  0  0  0  0  0  0  0  0  0
   -3.4573    0.6874    1.1828 C   0  0  0  0  0  0  0  0  0  0  0  0
   -4.7651    0.9982    0.7781 C   0  0  0  0  0  0  0  0  0  0  0  0
   -8.3043    1.7118   -0.7342 H   0  0  0  0  0  0  0  0  0  0  0  0
   -7.5936    0.9070    0.6703 H   0  0  0  0  0  0  0  0  0  0  0  0
   -7.0511    2.5594    0.1804 H   0  0  0  0  0  0  0  0  0  0  0  0
   -4.5797   -0.0249   -2.4482 H   0  0  0  0  0  0  0  0  0  0  0  0
   -2.2872   -0.5732   -1.7493 H   0  0  0  0  0  0  0  0  0  0  0  0
    2.8259   -1.6026    0.5011 H   0  0  0  0  0  0  0  0  0  0  0  0
    3.7825   -3.1886   -0.9362 H   0  0  0  0  0  0  0  0  0  0  0  0
    3.1683   -3.3486   -2.5729 H   0  0  0  0  0  0  0  0  0  0  0  0
    5.8400    2.8144    1.4988 H   0  0  0  0  0  0  0  0  0  0  0  0
    6.2016    1.6178    2.7521 H   0  0  0  0  0  0  0  0  0  0  0  0
    7.4117    1.9802    1.5120 H   0  0  0  0  0  0  0  0  0  0  0  0
   -3.1875    0.9024    2.2136 H   0  0  0  0  0  0  0  0  0  0  0  0
   -5.4337    1.4364    1.5119 H   0  0  0  0  0  0  0  0  0  0  0  0
  1  2  1  0
  2  3  1  0
  3  4  2  0
  4  5  1  0
  5  6  2  0
  6  7  1  0
  7  8  2  0
  8  9  1  0
  9 10  1  0
 10 11  1  0
 11 12  2  0
 11 13  1  0
 13 14  1  0
 14 15  1  0
 15 16  2  0
 16 17  1  0
 17 18  2  0
 18 19  1  0
 18 20  1  0
  9 21  2  0
 21 22  1  0
  6 23  1  0
 23 24  2  0
 24  3  1  0
 22  7  1  0
 20 15  1  0
  1 25  1  0
  1 26  1  0
  1 27  1  0
  4 28  1  0
  5 29  1  0
 10 30  1  0
 13 31  1  0
 13 32  1  0
 19 33  1  0
 19 34  1  0
 19 35  1  0
 23 36  1  0
 24 37  1  0
M  END
$$$$
