
     RDKit          3D

 40 42  0  0  0  0  0  0  0  0999 V2000
   -4.5478   -1.7843   -1.0039 C   0  0  0  0  0  0  0  0  0  0  0  0
   -3.3727   -0.9963   -0.5046 C   0  0  0  0  0  0  0  0  0  0  0  0
   -3.0296    0.2177   -1.0997 C   0  0  0  0  0  0  0  0  0  0  0  0
   -1.9496    0.9872   -0.6294 C   0  0  0  0  0  0  0  0  0  0  0  0
   -1.6797    2.2904   -1.3375 C   0  0  0  0  0  0  0  0  0  0  0  0
   -1.2076    0.5246    0.4900 C   0  0  0  0  0  0  0  0  0  0  0  0
    0.1588    1.5311    1.0983 S   0  0  0  0  0  6  0  0  0  0  0  0
   -0.3200    2.8987    1.1740 O   0  0  0  0  0  0  0  0  0  0  0  0
    0.7538    0.9362    2.2779 O   0  0  0  0  0  0  0  0  0  0  0  0
    1.3381    1.4610   -0.1568 N   0  0  0  0  0  0  0  0  0  0  0  0
    2.5020    2.3855    0.1188 C   0  0  0  0  0  0  0  0  0  0  0  0
    3.6733    1.4952    0.5604 C   0  0  0  0  0  0  0  0  0  0  0  0
    3.2813    0.1740   -0.0129 C   0  0  0  0  0  0  0  0  0  0  0  0
    4.0589   -0.9658   -0.1390 C   0  0  0  0  0  0  0  0  0  0  0  0
    3.4702   -2.1108   -0.6791 C   0  0  0  0  0  0  0  0  0  0  0  0
    2.1258   -2.1003   -1.0819 C   0  0  0  0  0  0  0  0  0  0  0  0
    1.3490   -0.9470   -0.9406 C   0  0  0  0  0  0  0  0  0  0  0  0
    1.9383    0.1749   -0.3869 C   0  0  0  0  0  0  0  0  0  0  0  0
   -1.5627   -0.6945    1.1186 C   0  0  0  0  0  0  0  0  0  0  0  0
   -0.8583   -1.2717    2.3169 C   0  0  0  0  0  0  0  0  0  0  0  0
   -2.6463   -1.4333    0.6044 C   0  0  0  0  0  0  0  0  0  0  0  0
   -4.6848   -1.6418   -2.0810 H   0  0  0  0  0  0  0  0  0  0  0  0
   -5.4583   -1.4670   -0.4862 H   0  0  0  0  0  0  0  0  0  0  0  0
   -4.3995   -2.8561   -0.8354 H   0  0  0  0  0  0  0  0  0  0  0  0
   -3.6171    0.5746   -1.9453 H   0  0  0  0  0  0  0  0  0  0  0  0
   -2.0151    3.1329   -0.7261 H   0  0  0  0  0  0  0  0  0  0  0  0
   -0.6233    2.4027   -1.5900 H   0  0  0  0  0  0  0  0  0  0  0  0
   -2.2229    2.3443   -2.2881 H   0  0  0  0  0  0  0  0  0  0  0  0
    2.2844    3.1625    0.8577 H   0  0  0  0  0  0  0  0  0  0  0  0
    2.7410    2.8959   -0.8234 H   0  0  0  0  0  0  0  0  0  0  0  0
    4.6247    1.8631    0.1664 H   0  0  0  0  0  0  0  0  0  0  0  0
    3.7238    1.4278    1.6521 H   0  0  0  0  0  0  0  0  0  0  0  0
    5.0978   -0.9746    0.1753 H   0  0  0  0  0  0  0  0  0  0  0  0
    4.0584   -3.0188   -0.7920 H   0  0  0  0  0  0  0  0  0  0  0  0
    1.6858   -2.9967   -1.5128 H   0  0  0  0  0  0  0  0  0  0  0  0
    0.3222   -0.9440   -1.2856 H   0  0  0  0  0  0  0  0  0  0  0  0
   -1.2925   -2.2334    2.6139 H   0  0  0  0  0  0  0  0  0  0  0  0
    0.1940   -1.4675    2.0913 H   0  0  0  0  0  0  0  0  0  0  0  0
   -0.9596   -0.6069    3.1797 H   0  0  0  0  0  0  0  0  0  0  0  0
   -2.9342   -2.3694    1.0828 H   0  0  0  0  0  0  0  0  0  0  0  0
  1  2  1  0
  2  3  2  0
  3  4  1  0
  4  5  1  0
  4  6  2  0
  6  7  1  0
  7  8  2  0
  7  9  2  0
  7 10  1  0
 10 11  1  0
 11 12  1  0
 12 13  1  0
 13 14  2  0
 14 15  1  0
 15 16  2  0
 16 17  1  0
 17 18  2  0
  6 19  1  0
 19 20  1  0
 19 21  2  0
 21  2  1  0
 18 10  1  0
 18 13  1  0
  1 22  1  0
  1 23  1  0
  1 24  1  0
  3 25  1  0
  5 26  1  0
  5 27  1  0
  5 28  1  0
 11 29  1  0
 11 30  1  0
 12 31  1  0
 12 32  1  0
 14 33  1  0
 15 34  1  0
 16 35  1  0
 17 36  1  0
 20 37  1  0
 20 38  1  0
 20 39  1  0
 21 40  1  0
M  END
$$$$
