
     RDKit          3D

 37 40  0  0  0  0  0  0  0  0999 V2000
   -4.5808    1.8438    1.3804 C   0  0  0  0  0  0  0  0  0  0  0  0
   -3.2449    1.8975    0.6607 C   0  0  0  0  0  0  0  0  0  0  0  0
   -2.8129    0.5835    0.3118 O   0  0  0  0  0  0  0  0  0  0  0  0
   -3.0877    0.1049   -0.9434 C   0  0  0  0  0  0  0  0  0  0  0  0
   -4.0185    0.6617   -1.8252 C   0  0  0  0  0  0  0  0  0  0  0  0
   -4.2397    0.0850   -3.0796 C   0  0  0  0  0  0  0  0  0  0  0  0
   -3.5400   -1.0562   -3.4617 C   0  0  0  0  0  0  0  0  0  0  0  0
   -2.6168   -1.6280   -2.5885 C   0  0  0  0  0  0  0  0  0  0  0  0
   -2.3858   -1.0546   -1.3303 C   0  0  0  0  0  0  0  0  0  0  0  0
   -1.4006   -1.6930   -0.4466 C   0  0  0  0  0  0  0  0  0  0  0  0
   -0.1547   -1.2467   -0.2364 C   0  0  0  0  0  0  0  0  0  0  0  0
    0.6045    0.1555   -0.9703 S   0  0  0  0  0  0  0  0  0  0  0  0
    2.0290   -0.1568   -0.0693 C   0  0  0  0  0  0  0  0  0  0  0  0
    3.1986    0.4040    0.0385 N   0  0  0  0  0  0  0  0  0  0  0  0
    3.8193   -0.4328    0.9571 C   0  0  0  0  0  0  0  0  0  0  0  0
    5.2858   -0.1871    1.4407 C   0  0  0  0  0  0  0  0  0  0  0  0
    6.1009    0.8491    1.0264 C   0  0  0  0  0  0  0  0  0  0  0  0
    7.3336    0.6955    1.7062 C   0  0  0  0  0  0  0  0  0  0  0  0
    7.1968   -0.4234    2.4926 C   0  0  0  0  0  0  0  0  0  0  0  0
    5.9617   -0.9651    2.3397 O   0  0  0  0  0  0  0  0  0  0  0  0
    3.0688   -1.4645    1.3946 N   0  0  0  0  0  0  0  0  0  0  0  0
    1.9308   -1.2485    0.7151 N   0  0  0  0  0  0  0  0  0  0  0  0
    0.7520   -1.9627    0.7113 C   0  0  0  0  0  0  0  0  0  0  0  0
    0.5568   -2.9699    1.3667 O   0  0  0  0  0  0  0  0  0  0  0  0
   -5.3646    1.4291    0.7397 H   0  0  0  0  0  0  0  0  0  0  0  0
   -4.8863    2.8430    1.7039 H   0  0  0  0  0  0  0  0  0  0  0  0
   -4.5155    1.1943    2.2598 H   0  0  0  0  0  0  0  0  0  0  0  0
   -2.4946    2.2961    1.3533 H   0  0  0  0  0  0  0  0  0  0  0  0
   -3.2570    2.5828   -0.1941 H   0  0  0  0  0  0  0  0  0  0  0  0
   -4.6025    1.5377   -1.5646 H   0  0  0  0  0  0  0  0  0  0  0  0
   -4.9664    0.5269   -3.7574 H   0  0  0  0  0  0  0  0  0  0  0  0
   -3.7165   -1.5029   -4.4370 H   0  0  0  0  0  0  0  0  0  0  0  0
   -2.0791   -2.5219   -2.8962 H   0  0  0  0  0  0  0  0  0  0  0  0
   -1.7632   -2.5808    0.0689 H   0  0  0  0  0  0  0  0  0  0  0  0
    5.8286    1.6190    0.3173 H   0  0  0  0  0  0  0  0  0  0  0  0
    8.2118    1.3214    1.6328 H   0  0  0  0  0  0  0  0  0  0  0  0
    7.8493   -0.9400    3.1830 H   0  0  0  0  0  0  0  0  0  0  0  0
  1  2  1  0
  2  3  1  0
  3  4  1  0
  4  5  2  0
  5  6  1  0
  6  7  2  0
  7  8  1  0
  8  9  2  0
  9 10  1  0
 10 11  2  3
 11 12  1  0
 12 13  1  0
 13 14  2  0
 14 15  1  0
 15 16  1  0
 16 17  2  0
 17 18  1  0
 18 19  2  0
 19 20  1  0
 15 21  2  0
 21 22  1  0
 22 23  1  0
 23 24  2  0
  9  4  1  0
 23 11  1  0
 22 13  1  0
 20 16  1  0
  1 25  1  0
  1 26  1  0
  1 27  1  0
  2 28  1  0
  2 29  1  0
  5 30  1  0
  6 31  1  0
  7 32  1  0
  8 33  1  0
 10 34  1  0
 17 35  1  0
 18 36  1  0
 19 37  1  0
M  END
$$$$
