
     RDKit          3D

 43 46  0  0  0  0  0  0  0  0999 V2000
   -7.7812    0.3327    0.9818 C   0  0  0  0  0  0  0  0  0  0  0  0
   -6.7061    1.2033    0.6533 O   0  0  0  0  0  0  0  0  0  0  0  0
   -5.5444    0.6195    0.2298 C   0  0  0  0  0  0  0  0  0  0  0  0
   -5.3167   -0.7497    0.0895 C   0  0  0  0  0  0  0  0  0  0  0  0
   -4.0731   -1.2154   -0.3574 C   0  0  0  0  0  0  0  0  0  0  0  0
   -3.0477   -0.3172   -0.6767 C   0  0  0  0  0  0  0  0  0  0  0  0
   -1.7454   -0.7778   -1.1352 C   0  0  0  0  0  0  0  0  0  0  0  0
   -0.5891   -0.2684   -0.5628 N   0  0  0  0  0  0  0  0  0  0  0  0
    0.4633   -0.8248   -1.1114 C   0  0  0  0  0  0  0  0  0  0  0  0
    1.7241   -0.4993   -0.7010 N   0  0  0  0  0  0  0  0  0  0  0  0
    2.9240   -0.9890   -1.1674 C   0  0  0  0  0  0  0  0  0  0  0  0
    3.0822   -1.8206   -2.0534 O   0  0  0  0  0  0  0  0  0  0  0  0
    4.0672   -0.3744   -0.4490 C   0  0  0  0  0  0  0  0  0  0  0  0
    5.3815   -0.6777   -0.7078 N   0  0  0  0  0  0  0  0  0  0  0  0
    6.0598    0.0700    0.1307 C   0  0  0  0  0  0  0  0  0  0  0  0
    7.4113    0.1653    0.3023 N   0  0  0  0  0  0  0  0  0  0  0  0
    7.8087    0.9952    1.2154 C   0  0  0  0  0  0  0  0  0  0  0  0
    6.9391    1.8401    2.0797 C   0  0  0  0  0  0  0  0  0  0  0  0
    5.6147    1.7174    1.8797 C   0  0  0  0  0  0  0  0  0  0  0  0
    4.5967    2.4900    2.6584 C   0  0  0  0  0  0  0  0  0  0  0  0
    5.1632    0.8255    0.8971 N   0  0  0  0  0  0  0  0  0  0  0  0
    3.8895    0.5409    0.5254 N   0  0  0  0  0  0  0  0  0  0  0  0
    0.1481   -1.9520   -2.3427 S   0  0  0  0  0  0  0  0  0  0  0  0
   -1.5403   -1.6896   -2.1587 C   0  0  0  0  0  0  0  0  0  0  0  0
   -2.5025   -2.4002   -3.0446 C   0  0  0  0  0  0  0  0  0  0  0  0
   -3.2754    1.0535   -0.5176 C   0  0  0  0  0  0  0  0  0  0  0  0
   -4.5172    1.5158   -0.0731 C   0  0  0  0  0  0  0  0  0  0  0  0
   -8.1003   -0.2473    0.1096 H   0  0  0  0  0  0  0  0  0  0  0  0
   -7.5170   -0.3227    1.8183 H   0  0  0  0  0  0  0  0  0  0  0  0
   -8.6272    0.9507    1.2979 H   0  0  0  0  0  0  0  0  0  0  0  0
   -6.0800   -1.4835    0.3252 H   0  0  0  0  0  0  0  0  0  0  0  0
   -3.9121   -2.2879   -0.4351 H   0  0  0  0  0  0  0  0  0  0  0  0
    1.7674    0.1874    0.0432 H   0  0  0  0  0  0  0  0  0  0  0  0
    8.8916    1.1089    1.3931 H   0  0  0  0  0  0  0  0  0  0  0  0
    7.3982    2.4949    2.8076 H   0  0  0  0  0  0  0  0  0  0  0  0
    5.0662    3.1513    3.3947 H   0  0  0  0  0  0  0  0  0  0  0  0
    3.9297    1.8119    3.2013 H   0  0  0  0  0  0  0  0  0  0  0  0
    3.9927    3.1143    1.9914 H   0  0  0  0  0  0  0  0  0  0  0  0
   -2.8651   -3.3113   -2.5579 H   0  0  0  0  0  0  0  0  0  0  0  0
   -2.0455   -2.6842   -3.9986 H   0  0  0  0  0  0  0  0  0  0  0  0
   -3.3638   -1.7656   -3.2770 H   0  0  0  0  0  0  0  0  0  0  0  0
   -2.4865    1.7688   -0.7399 H   0  0  0  0  0  0  0  0  0  0  0  0
   -4.6826    2.5843    0.0416 H   0  0  0  0  0  0  0  0  0  0  0  0
  1  2  1  0
  2  3  1  0
  3  4  2  0
  4  5  1  0
  5  6  2  0
  6  7  1  0
  7  8  1  0
  8  9  2  0
  9 10  1  0
 10 11  1  0
 11 12  2  0
 11 13  1  0
 13 14  1  0
 14 15  2  0
 15 16  1  0
 16 17  2  0
 17 18  1  0
 18 19  2  0
 19 20  1  0
 19 21  1  0
 21 22  1  0
  9 23  1  0
 23 24  1  0
 24 25  1  0
  6 26  1  0
 26 27  2  0
 27  3  1  0
 24  7  2  0
 22 13  2  0
 21 15  1  0
  1 28  1  0
  1 29  1  0
  1 30  1  0
  4 31  1  0
  5 32  1  0
 10 33  1  0
 17 34  1  0
 18 35  1  0
 20 36  1  0
 20 37  1  0
 20 38  1  0
 25 39  1  0
 25 40  1  0
 25 41  1  0
 26 42  1  0
 27 43  1  0
M  END
$$$$
