
     RDKit          3D

 52 56  0  0  0  0  0  0  0  0999 V2000
    1.4239   -0.1910    4.1781 O   0  0  0  0  0  0  0  0  0  0  0  0
    1.0545   -0.2088    2.9991 C   0  0  0  0  0  0  0  0  0  0  0  0
   -0.3801   -0.6213    2.6539 C   0  0  0  0  0  0  0  0  0  0  0  0
   -0.4664   -1.8098    1.2691 S   0  0  0  0  0  0  0  0  0  0  0  0
   -0.9072   -0.7162   -0.0106 C   0  0  0  0  0  0  0  0  0  0  0  0
   -0.2728    0.4174   -0.2086 N   0  0  0  0  0  0  0  0  0  0  0  0
   -0.8499    1.0329   -1.2832 N   0  0  0  0  0  0  0  0  0  0  0  0
   -1.8223    0.2620   -1.7352 C   0  0  0  0  0  0  0  0  0  0  0  0
   -2.8141    0.6970   -2.7722 C   0  0  0  0  0  0  0  0  0  0  0  0
   -4.1972    0.8895   -2.2147 C   0  0  0  0  0  0  0  0  0  0  0  0
   -4.6016    1.7671   -1.2247 C   0  0  0  0  0  0  0  0  0  0  0  0
   -5.9944    1.6678   -0.9468 C   0  0  0  0  0  0  0  0  0  0  0  0
   -6.6154    0.7239   -1.7365 C   0  0  0  0  0  0  0  0  0  0  0  0
   -5.5247   -0.0047   -2.8307 S   0  0  0  0  0  0  0  0  0  0  0  0
   -1.8563   -0.9221   -0.9955 N   0  0  0  0  0  0  0  0  0  0  0  0
   -2.6935   -2.0471   -1.2091 C   0  0  0  0  0  0  0  0  0  0  0  0
   -2.8708   -2.5444   -2.5069 C   0  0  0  0  0  0  0  0  0  0  0  0
   -3.7146   -3.6367   -2.7276 C   0  0  0  0  0  0  0  0  0  0  0  0
   -4.3767   -4.2367   -1.6601 C   0  0  0  0  0  0  0  0  0  0  0  0
   -4.1919   -3.7537   -0.3658 C   0  0  0  0  0  0  0  0  0  0  0  0
   -3.3524   -2.6598   -0.1359 C   0  0  0  0  0  0  0  0  0  0  0  0
    1.8080    0.1997    1.9137 N   0  0  0  0  0  0  0  0  0  0  0  0
    3.1236    0.7033    1.9140 C   0  0  0  0  0  0  0  0  0  0  0  0
    3.8399    1.0234    3.0738 C   0  0  0  0  0  0  0  0  0  0  0  0
    5.1448    1.5263    2.9907 C   0  0  0  0  0  0  0  0  0  0  0  0
    5.7449    1.7022    1.7469 C   0  0  0  0  0  0  0  0  0  0  0  0
    5.0483    1.3565    0.5843 C   0  0  0  0  0  0  0  0  0  0  0  0
    3.7349    0.8850    0.6651 C   0  0  0  0  0  0  0  0  0  0  0  0
    5.5902    1.4502   -0.6741 O   0  0  0  0  0  0  0  0  0  0  0  0
    7.0188    1.5975   -0.6145 C   0  0  0  0  0  0  0  0  0  0  0  0
    7.4089    2.6355    0.4286 C   0  0  0  0  0  0  0  0  0  0  0  0
    7.0227    2.2029    1.7369 O   0  0  0  0  0  0  0  0  0  0  0  0
   -0.8230   -1.1260    3.5364 H   0  0  0  0  0  0  0  0  0  0  0  0
   -0.9764    0.2993    2.4574 H   0  0  0  0  0  0  0  0  0  0  0  0
   -2.4875    1.6745   -3.1577 H   0  0  0  0  0  0  0  0  0  0  0  0
   -2.7961    0.0253   -3.6325 H   0  0  0  0  0  0  0  0  0  0  0  0
   -3.9238    2.4430   -0.7154 H   0  0  0  0  0  0  0  0  0  0  0  0
   -6.5167    2.2576   -0.2022 H   0  0  0  0  0  0  0  0  0  0  0  0
   -7.6636    0.4436   -1.7386 H   0  0  0  0  0  0  0  0  0  0  0  0
   -2.3413   -2.1248   -3.3588 H   0  0  0  0  0  0  0  0  0  0  0  0
   -3.8540   -4.0196   -3.7345 H   0  0  0  0  0  0  0  0  0  0  0  0
   -5.0350   -5.0863   -1.8348 H   0  0  0  0  0  0  0  0  0  0  0  0
   -4.7123   -4.2210    0.4663 H   0  0  0  0  0  0  0  0  0  0  0  0
   -3.2710   -2.2846    0.8805 H   0  0  0  0  0  0  0  0  0  0  0  0
    1.3864    0.0864    1.0043 H   0  0  0  0  0  0  0  0  0  0  0  0
    3.4068    0.9091    4.0650 H   0  0  0  0  0  0  0  0  0  0  0  0
    5.6861    1.7828    3.9007 H   0  0  0  0  0  0  0  0  0  0  0  0
    3.2066    0.6404   -0.2556 H   0  0  0  0  0  0  0  0  0  0  0  0
    7.4627    0.6171   -0.3943 H   0  0  0  0  0  0  0  0  0  0  0  0
    7.3616    1.9077   -1.6061 H   0  0  0  0  0  0  0  0  0  0  0  0
    6.9342    3.6051    0.2276 H   0  0  0  0  0  0  0  0  0  0  0  0
    8.4953    2.7825    0.4348 H   0  0  0  0  0  0  0  0  0  0  0  0
  1  2  2  0
  2  3  1  0
  3  4  1  0
  4  5  1  0
  5  6  2  0
  6  7  1  0
  7  8  2  0
  8  9  1  0
  9 10  1  0
 10 11  2  0
 11 12  1  0
 12 13  2  0
 13 14  1  0
  8 15  1  0
 15 16  1  0
 16 17  2  0
 17 18  1  0
 18 19  2  0
 19 20  1  0
 20 21  2  0
  2 22  1  0
 22 23  1  0
 23 24  2  0
 24 25  1  0
 25 26  2  0
 26 27  1  0
 27 28  2  0
 27 29  1  0
 29 30  1  0
 30 31  1  0
 31 32  1  0
 15  5  1  0
 21 16  1  0
 28 23  1  0
 14 10  1  0
 32 26  1  0
  3 33  1  0
  3 34  1  0
  9 35  1  0
  9 36  1  0
 11 37  1  0
 12 38  1  0
 13 39  1  0
 17 40  1  0
 18 41  1  0
 19 42  1  0
 20 43  1  0
 21 44  1  0
 22 45  1  0
 24 46  1  0
 25 47  1  0
 28 48  1  0
 30 49  1  0
 30 50  1  0
 31 51  1  0
 31 52  1  0
M  END
$$$$
