
     RDKit          3D

 34 36  0  0  0  0  0  0  0  0999 V2000
    4.4188   -1.0082   -0.5883 N   0  0  0  0  0  0  0  0  0  0  0  0
    3.3954   -0.8485    0.4366 C   0  0  0  0  0  0  0  0  0  0  0  0
    2.0493   -0.5073   -0.1989 C   0  0  0  0  0  0  0  0  0  0  0  0
    0.9602   -0.3939    0.8776 C   0  0  0  0  0  0  0  0  0  0  0  0
   -0.3492   -0.0058    0.3025 N   0  0  0  0  0  0  0  0  0  0  0  0
   -1.2394   -1.0613   -0.0548 C   0  0  0  0  0  0  0  0  0  0  0  0
   -0.7995   -2.3945   -0.2233 C   0  0  0  0  0  0  0  0  0  0  0  0
   -1.6632   -3.4356   -0.5864 C   0  0  0  0  0  0  0  0  0  0  0  0
   -3.0063   -3.1782   -0.7987 C   0  0  0  0  0  0  0  0  0  0  0  0
   -3.4765   -1.8791   -0.6498 C   0  0  0  0  0  0  0  0  0  0  0  0
   -2.6102   -0.8278   -0.2875 C   0  0  0  0  0  0  0  0  0  0  0  0
   -3.3791    0.7643   -0.1137 S   0  0  0  0  0  0  0  0  0  0  0  0
   -1.9796    1.8436    0.0612 C   0  0  0  0  0  0  0  0  0  0  0  0
   -2.2736    3.2217    0.0153 C   0  0  0  0  0  0  0  0  0  0  0  0
   -1.2717    4.1740    0.1625 C   0  0  0  0  0  0  0  0  0  0  0  0
    0.0302    3.7472    0.3560 C   0  0  0  0  0  0  0  0  0  0  0  0
    1.2911    4.9063    0.5328 Cl  0  0  0  0  0  0  0  0  0  0  0  0
    0.3315    2.3822    0.4055 C   0  0  0  0  0  0  0  0  0  0  0  0
   -0.6609    1.3852    0.2663 C   0  0  0  0  0  0  0  0  0  0  0  0
    5.3238   -1.1727   -0.1484 H   0  0  0  0  0  0  0  0  0  0  0  0
    4.5156   -0.1466   -1.1254 H   0  0  0  0  0  0  0  0  0  0  0  0
    3.3177   -1.7802    1.0070 H   0  0  0  0  0  0  0  0  0  0  0  0
    3.6975   -0.0561    1.1302 H   0  0  0  0  0  0  0  0  0  0  0  0
    2.1337    0.4292   -0.7625 H   0  0  0  0  0  0  0  0  0  0  0  0
    1.7819   -1.2744   -0.9346 H   0  0  0  0  0  0  0  0  0  0  0  0
    0.8816   -1.3344    1.4387 H   0  0  0  0  0  0  0  0  0  0  0  0
    1.2690    0.3145    1.6577 H   0  0  0  0  0  0  0  0  0  0  0  0
    0.2419   -2.6712   -0.0965 H   0  0  0  0  0  0  0  0  0  0  0  0
   -1.2751   -4.4439   -0.7073 H   0  0  0  0  0  0  0  0  0  0  0  0
   -3.6843   -3.9784   -1.0812 H   0  0  0  0  0  0  0  0  0  0  0  0
   -4.5340   -1.6845   -0.8186 H   0  0  0  0  0  0  0  0  0  0  0  0
   -3.2975    3.5594   -0.1361 H   0  0  0  0  0  0  0  0  0  0  0  0
   -1.5147    5.2317    0.1231 H   0  0  0  0  0  0  0  0  0  0  0  0
    1.3758    2.1233    0.5389 H   0  0  0  0  0  0  0  0  0  0  0  0
  1  2  1  0
  2  3  1  0
  3  4  1  0
  4  5  1  0
  5  6  1  0
  6  7  2  0
  7  8  1  0
  8  9  2  0
  9 10  1  0
 10 11  2  0
 11 12  1  0
 12 13  1  0
 13 14  2  0
 14 15  1  0
 15 16  2  0
 16 17  1  0
 16 18  1  0
 18 19  2  0
 19  5  1  0
 11  6  1  0
 19 13  1  0
  1 20  1  0
  1 21  1  0
  2 22  1  0
  2 23  1  0
  3 24  1  0
  3 25  1  0
  4 26  1  0
  4 27  1  0
  7 28  1  0
  8 29  1  0
  9 30  1  0
 10 31  1  0
 14 32  1  0
 15 33  1  0
 18 34  1  0
M  END
$$$$
