
     RDKit          3D

 61 65  0  0  0  0  0  0  0  0999 V2000
   -6.8050   -0.9465    3.2335 C   0  0  0  0  0  0  0  0  0  0  0  0
   -6.3869   -1.1176    1.8874 O   0  0  0  0  0  0  0  0  0  0  0  0
   -5.3486   -0.3367    1.4436 C   0  0  0  0  0  0  0  0  0  0  0  0
   -4.8280    0.7541    2.1460 C   0  0  0  0  0  0  0  0  0  0  0  0
   -3.7681    1.4967    1.6154 C   0  0  0  0  0  0  0  0  0  0  0  0
   -3.2094    1.1626    0.3757 C   0  0  0  0  0  0  0  0  0  0  0  0
   -2.0882    1.9055   -0.1923 C   0  0  0  0  0  0  0  0  0  0  0  0
   -1.4324    1.6912   -1.3166 N   0  0  0  0  0  0  0  0  0  0  0  0
   -0.4419    2.6525   -1.3307 C   0  0  0  0  0  0  0  0  0  0  0  0
    0.5507    2.7006   -2.4393 C   0  0  0  0  0  0  0  0  0  0  0  0
    1.8874    2.4038   -1.9492 N   0  0  0  0  0  0  0  0  0  0  0  0
    2.3781    1.1786   -1.5699 C   0  0  0  0  0  0  0  0  0  0  0  0
    1.4967   -0.2992   -1.7521 S   0  0  0  0  0  0  0  0  0  0  0  0
    1.3769   -0.8203   -0.0173 C   0  0  0  0  0  0  0  0  0  0  0  0
    2.2016   -2.0496    0.2692 C   0  0  0  0  0  0  0  0  0  0  0  0
    3.5675   -1.9355    0.5631 C   0  0  0  0  0  0  0  0  0  0  0  0
    4.3342   -3.0717    0.8319 C   0  0  0  0  0  0  0  0  0  0  0  0
    3.7492   -4.3434    0.8137 C   0  0  0  0  0  0  0  0  0  0  0  0
    4.5860   -5.5600    1.0753 C   0  0  0  0  0  0  0  0  0  0  0  0
    2.3908   -4.4625    0.4968 C   0  0  0  0  0  0  0  0  0  0  0  0
    1.6224   -3.3261    0.2301 C   0  0  0  0  0  0  0  0  0  0  0  0
    3.5826    1.2688   -1.0578 N   0  0  0  0  0  0  0  0  0  0  0  0
    3.9233    2.5925   -1.1671 C   0  0  0  0  0  0  0  0  0  0  0  0
    5.1040    3.2346   -0.7952 C   0  0  0  0  0  0  0  0  0  0  0  0
    5.1498    4.5966   -1.0391 C   0  0  0  0  0  0  0  0  0  0  0  0
    4.1498    5.3157   -1.6006 N   0  0  0  0  0  0  0  0  0  0  0  0
    3.0073    4.6909   -1.9662 C   0  0  0  0  0  0  0  0  0  0  0  0
    2.8906    3.3272   -1.7403 C   0  0  0  0  0  0  0  0  0  0  0  0
   -0.5665    3.4453   -0.2061 C   0  0  0  0  0  0  0  0  0  0  0  0
    0.1595    4.6034    0.3462 C   0  0  0  0  0  0  0  0  0  0  0  0
   -1.6149    2.9686    0.5296 O   0  0  0  0  0  0  0  0  0  0  0  0
   -3.7409    0.0711   -0.3300 C   0  0  0  0  0  0  0  0  0  0  0  0
   -4.8072   -0.6752    0.1878 C   0  0  0  0  0  0  0  0  0  0  0  0
   -5.3761   -1.7535   -0.4441 O   0  0  0  0  0  0  0  0  0  0  0  0
   -4.9264   -2.0631   -1.7560 C   0  0  0  0  0  0  0  0  0  0  0  0
   -7.2858    0.0274    3.3727 H   0  0  0  0  0  0  0  0  0  0  0  0
   -7.5485   -1.7193    3.4524 H   0  0  0  0  0  0  0  0  0  0  0  0
   -5.9711   -1.0796    3.9319 H   0  0  0  0  0  0  0  0  0  0  0  0
   -5.2277    1.0577    3.1078 H   0  0  0  0  0  0  0  0  0  0  0  0
   -3.3821    2.3393    2.1867 H   0  0  0  0  0  0  0  0  0  0  0  0
    0.3134    1.9794   -3.2282 H   0  0  0  0  0  0  0  0  0  0  0  0
    0.5549    3.6920   -2.9022 H   0  0  0  0  0  0  0  0  0  0  0  0
    0.3203   -1.0310    0.1913 H   0  0  0  0  0  0  0  0  0  0  0  0
    1.6573   -0.0116    0.6695 H   0  0  0  0  0  0  0  0  0  0  0  0
    4.0447   -0.9565    0.5738 H   0  0  0  0  0  0  0  0  0  0  0  0
    5.3935   -2.9558    1.0530 H   0  0  0  0  0  0  0  0  0  0  0  0
    5.2753   -5.3802    1.9094 H   0  0  0  0  0  0  0  0  0  0  0  0
    5.1647   -5.8176    0.1811 H   0  0  0  0  0  0  0  0  0  0  0  0
    3.9618   -6.4185    1.3471 H   0  0  0  0  0  0  0  0  0  0  0  0
    1.9188   -5.4418    0.4556 H   0  0  0  0  0  0  0  0  0  0  0  0
    0.5674   -3.4445   -0.0123 H   0  0  0  0  0  0  0  0  0  0  0  0
    5.9290    2.6983   -0.3472 H   0  0  0  0  0  0  0  0  0  0  0  0
    6.0346    5.1724   -0.7784 H   0  0  0  0  0  0  0  0  0  0  0  0
    2.2381    5.3055   -2.4148 H   0  0  0  0  0  0  0  0  0  0  0  0
    0.3158    5.3640   -0.4247 H   0  0  0  0  0  0  0  0  0  0  0  0
   -0.3979    5.0668    1.1662 H   0  0  0  0  0  0  0  0  0  0  0  0
    1.1347    4.2930    0.7342 H   0  0  0  0  0  0  0  0  0  0  0  0
   -3.2956   -0.1814   -1.2890 H   0  0  0  0  0  0  0  0  0  0  0  0
   -3.8772   -2.3752   -1.7485 H   0  0  0  0  0  0  0  0  0  0  0  0
   -5.0864   -1.2224   -2.4388 H   0  0  0  0  0  0  0  0  0  0  0  0
   -5.5203   -2.9058   -2.1237 H   0  0  0  0  0  0  0  0  0  0  0  0
  1  2  1  0
  2  3  1  0
  3  4  2  0
  4  5  1  0
  5  6  2  0
  6  7  1  0
  7  8  2  0
  8  9  1  0
  9 10  1  0
 10 11  1  0
 11 12  1  0
 12 13  1  0
 13 14  1  0
 14 15  1  0
 15 16  2  0
 16 17  1  0
 17 18  2  0
 18 19  1  0
 18 20  1  0
 20 21  2  0
 12 22  2  0
 22 23  1  0
 23 24  2  0
 24 25  1  0
 25 26  2  0
 26 27  1  0
 27 28  2  0
  9 29  2  0
 29 30  1  0
 29 31  1  0
  6 32  1  0
 32 33  2  0
 33 34  1  0
 34 35  1  0
 33  3  1  0
 31  7  1  0
 28 11  1  0
 21 15  1  0
 28 23  1  0
  1 36  1  0
  1 37  1  0
  1 38  1  0
  4 39  1  0
  5 40  1  0
 10 41  1  0
 10 42  1  0
 14 43  1  0
 14 44  1  0
 16 45  1  0
 17 46  1  0
 19 47  1  0
 19 48  1  0
 19 49  1  0
 20 50  1  0
 21 51  1  0
 24 52  1  0
 25 53  1  0
 27 54  1  0
 30 55  1  0
 30 56  1  0
 30 57  1  0
 32 58  1  0
 35 59  1  0
 35 60  1  0
 35 61  1  0
M  END
$$$$
