
     RDKit          3D

 55 60  0  0  0  0  0  0  0  0999 V2000
    3.8300   -1.7629    2.5869 O   0  0  0  0  0  0  0  0  0  0  0  0
    3.8988   -0.9234    1.6904 C   0  0  0  0  0  0  0  0  0  0  0  0
    5.0946   -0.1048    1.5531 C   0  0  0  0  0  0  0  0  0  0  0  0
    5.9690    0.3200    2.5982 C   0  0  0  0  0  0  0  0  0  0  0  0
    6.9803    1.0352    2.0032 C   0  0  0  0  0  0  0  0  0  0  0  0
    6.8100    1.0600    0.6576 O   0  0  0  0  0  0  0  0  0  0  0  0
    5.6841    0.3496    0.3898 C   0  0  0  0  0  0  0  0  0  0  0  0
    2.8402   -0.7316    0.7935 N   0  0  0  0  0  0  0  0  0  0  0  0
    1.7396   -1.6845    0.8487 C   0  0  0  0  0  0  0  0  0  0  0  0
    0.9188   -1.6932   -0.4365 C   0  0  0  0  0  0  0  0  0  0  0  0
    0.3781   -0.2882   -0.8432 C   0  0  0  0  0  0  0  0  0  0  0  0
    1.1112    0.8231   -0.0487 C   0  0  0  0  0  0  0  0  0  0  0  0
    2.6031    0.5197    0.0759 C   0  0  0  0  0  0  0  0  0  0  0  0
    0.7759   -0.1666   -2.2409 O   0  0  0  0  0  0  0  0  0  0  0  0
    0.1247    0.7466   -3.0175 C   0  0  0  0  0  0  0  0  0  0  0  0
    0.6884    1.0006   -4.2689 C   0  0  0  0  0  0  0  0  0  0  0  0
    0.1060    1.9432   -5.1184 C   0  0  0  0  0  0  0  0  0  0  0  0
   -1.0374    2.6239   -4.7109 C   0  0  0  0  0  0  0  0  0  0  0  0
   -1.5883    3.5312   -5.5269 F   0  0  0  0  0  0  0  0  0  0  0  0
   -1.6165    2.3747   -3.4740 C   0  0  0  0  0  0  0  0  0  0  0  0
   -1.0327    1.4214   -2.6369 C   0  0  0  0  0  0  0  0  0  0  0  0
   -1.6243    1.1111   -1.3295 C   0  0  0  0  0  0  0  0  0  0  0  0
   -2.4158    1.8941   -0.8122 O   0  0  0  0  0  0  0  0  0  0  0  0
   -1.1678   -0.1970   -0.6959 C   0  0  0  0  0  0  0  0  0  0  0  0
   -1.6990   -0.3466    0.7211 C   0  0  0  0  0  0  0  0  0  0  0  0
   -2.9445   -1.1089    0.4160 C   0  0  0  0  0  0  0  0  0  0  0  0
   -4.0315   -1.2779    1.4090 C   0  0  0  0  0  0  0  0  0  0  0  0
   -3.9067   -0.8070    2.7215 C   0  0  0  0  0  0  0  0  0  0  0  0
   -4.9530   -0.9880    3.6327 C   0  0  0  0  0  0  0  0  0  0  0  0
   -6.1199   -1.6386    3.2343 C   0  0  0  0  0  0  0  0  0  0  0  0
   -7.4018   -1.8586    4.3595 Cl  0  0  0  0  0  0  0  0  0  0  0  0
   -6.2519   -2.1123    1.9314 C   0  0  0  0  0  0  0  0  0  0  0  0
   -5.2081   -1.9328    1.0194 C   0  0  0  0  0  0  0  0  0  0  0  0
   -2.9788   -1.6361   -0.7665 N   0  0  0  0  0  0  0  0  0  0  0  0
   -1.7925   -1.2616   -1.4343 O   0  0  0  0  0  0  0  0  0  0  0  0
    5.8609    0.1200    3.6557 H   0  0  0  0  0  0  0  0  0  0  0  0
    7.8554    1.5500    2.3752 H   0  0  0  0  0  0  0  0  0  0  0  0
    5.4471    0.2480   -0.6599 H   0  0  0  0  0  0  0  0  0  0  0  0
    1.1197   -1.4234    1.7136 H   0  0  0  0  0  0  0  0  0  0  0  0
    2.1385   -2.6888    1.0341 H   0  0  0  0  0  0  0  0  0  0  0  0
    0.1060   -2.4191   -0.3228 H   0  0  0  0  0  0  0  0  0  0  0  0
    1.5548   -2.0929   -1.2388 H   0  0  0  0  0  0  0  0  0  0  0  0
    1.0039    1.7965   -0.5404 H   0  0  0  0  0  0  0  0  0  0  0  0
    0.6866    0.9230    0.9575 H   0  0  0  0  0  0  0  0  0  0  0  0
    3.0566    0.4244   -0.9165 H   0  0  0  0  0  0  0  0  0  0  0  0
    3.0901    1.3483    0.5998 H   0  0  0  0  0  0  0  0  0  0  0  0
    1.5839    0.4692   -4.5822 H   0  0  0  0  0  0  0  0  0  0  0  0
    0.5361    2.1518   -6.0935 H   0  0  0  0  0  0  0  0  0  0  0  0
   -2.5144    2.9102   -3.1801 H   0  0  0  0  0  0  0  0  0  0  0  0
   -1.8911    0.6004    1.2299 H   0  0  0  0  0  0  0  0  0  0  0  0
   -1.0732   -0.9801    1.3538 H   0  0  0  0  0  0  0  0  0  0  0  0
   -3.0095   -0.2997    3.0629 H   0  0  0  0  0  0  0  0  0  0  0  0
   -4.8518   -0.6195    4.6507 H   0  0  0  0  0  0  0  0  0  0  0  0
   -7.1601   -2.6201    1.6170 H   0  0  0  0  0  0  0  0  0  0  0  0
   -5.3222   -2.3058    0.0028 H   0  0  0  0  0  0  0  0  0  0  0  0
  1  2  2  0
  2  3  1  0
  3  4  1  0
  4  5  2  0
  5  6  1  0
  6  7  1  0
  2  8  1  0
  8  9  1  0
  9 10  1  0
 10 11  1  0
 11 12  1  0
 12 13  1  0
 11 14  1  0
 14 15  1  0
 15 16  2  0
 16 17  1  0
 17 18  2  0
 18 19  1  0
 18 20  1  0
 20 21  2  0
 21 22  1  0
 22 23  2  0
 22 24  1  0
 24 25  1  0
 25 26  1  0
 26 27  1  0
 27 28  2  0
 28 29  1  0
 29 30  2  0
 30 31  1  0
 30 32  1  0
 32 33  2  0
 26 34  2  0
 34 35  1  0
  7  3  2  0
 13  8  1  0
 21 15  1  0
 35 24  1  0
 24 11  1  0
 33 27  1  0
  4 36  1  0
  5 37  1  0
  7 38  1  0
  9 39  1  0
  9 40  1  0
 10 41  1  0
 10 42  1  0
 12 43  1  0
 12 44  1  0
 13 45  1  0
 13 46  1  0
 16 47  1  0
 17 48  1  0
 20 49  1  0
 25 50  1  0
 25 51  1  0
 28 52  1  0
 29 53  1  0
 32 54  1  0
 33 55  1  0
M  END
$$$$
