
     RDKit          3D

 58 62  0  0  0  0  0  0  0  0999 V2000
    7.5209    0.7678    3.6058 C   0  0  0  0  0  0  0  0  0  0  0  0
    7.0953    1.6623    2.5879 O   0  0  0  0  0  0  0  0  0  0  0  0
    5.7981    1.5593    2.1511 C   0  0  0  0  0  0  0  0  0  0  0  0
    4.8590    0.6642    2.6695 C   0  0  0  0  0  0  0  0  0  0  0  0
    3.5576    0.6337    2.1597 C   0  0  0  0  0  0  0  0  0  0  0  0
    3.1690    1.4931    1.1247 C   0  0  0  0  0  0  0  0  0  0  0  0
    1.8011    1.4323    0.6168 C   0  0  0  0  0  0  0  0  0  0  0  0
    0.7834    0.7106    1.0470 N   0  0  0  0  0  0  0  0  0  0  0  0
   -0.2496    1.0189    0.1840 C   0  0  0  0  0  0  0  0  0  0  0  0
   -1.5819    0.3819    0.3398 C   0  0  0  0  0  0  0  0  0  0  0  0
   -1.6403   -0.8814   -0.3773 N   0  0  0  0  0  0  0  0  0  0  0  0
   -2.2690   -1.1453   -1.5685 C   0  0  0  0  0  0  0  0  0  0  0  0
   -3.0735    0.0620   -2.5154 S   0  0  0  0  0  0  0  0  0  0  0  0
   -4.3449   -0.9359   -3.3481 C   0  0  0  0  0  0  0  0  0  0  0  0
   -5.5291   -1.2138   -2.4542 C   0  0  0  0  0  0  0  0  0  0  0  0
   -6.5487   -0.2597   -2.2975 C   0  0  0  0  0  0  0  0  0  0  0  0
   -7.6370   -0.5103   -1.4572 C   0  0  0  0  0  0  0  0  0  0  0  0
   -7.7155   -1.7151   -0.7620 C   0  0  0  0  0  0  0  0  0  0  0  0
   -6.7060   -2.6583   -0.9113 C   0  0  0  0  0  0  0  0  0  0  0  0
   -6.7817   -3.8151   -0.2401 F   0  0  0  0  0  0  0  0  0  0  0  0
   -5.6188   -2.4202   -1.7455 C   0  0  0  0  0  0  0  0  0  0  0  0
   -2.1771   -2.4107   -1.9056 N   0  0  0  0  0  0  0  0  0  0  0  0
   -1.4695   -3.0053   -0.8921 C   0  0  0  0  0  0  0  0  0  0  0  0
   -1.0941   -4.3393   -0.7386 C   0  0  0  0  0  0  0  0  0  0  0  0
   -0.3799   -4.6335    0.4110 C   0  0  0  0  0  0  0  0  0  0  0  0
   -0.0334   -3.7324    1.3594 N   0  0  0  0  0  0  0  0  0  0  0  0
   -0.3920   -2.4355    1.2054 C   0  0  0  0  0  0  0  0  0  0  0  0
   -1.1190   -2.0758    0.0794 C   0  0  0  0  0  0  0  0  0  0  0  0
    0.1879    1.9548   -0.7304 C   0  0  0  0  0  0  0  0  0  0  0  0
   -0.4162    2.6736   -1.8654 C   0  0  0  0  0  0  0  0  0  0  0  0
    1.5010    2.2220   -0.4619 O   0  0  0  0  0  0  0  0  0  0  0  0
    4.1152    2.3911    0.6063 C   0  0  0  0  0  0  0  0  0  0  0  0
    5.4227    2.4318    1.1099 C   0  0  0  0  0  0  0  0  0  0  0  0
    6.4013    3.2827    0.6569 O   0  0  0  0  0  0  0  0  0  0  0  0
    6.0748    4.1593   -0.4116 C   0  0  0  0  0  0  0  0  0  0  0  0
    6.9628    0.9317    4.5334 H   0  0  0  0  0  0  0  0  0  0  0  0
    7.4448   -0.2733    3.2753 H   0  0  0  0  0  0  0  0  0  0  0  0
    8.5757    0.9739    3.8124 H   0  0  0  0  0  0  0  0  0  0  0  0
    5.1039   -0.0252    3.4706 H   0  0  0  0  0  0  0  0  0  0  0  0
    2.8430   -0.0749    2.5768 H   0  0  0  0  0  0  0  0  0  0  0  0
   -1.7835    0.1674    1.3959 H   0  0  0  0  0  0  0  0  0  0  0  0
   -2.3846    1.0405   -0.0017 H   0  0  0  0  0  0  0  0  0  0  0  0
   -3.9227   -1.8666   -3.7437 H   0  0  0  0  0  0  0  0  0  0  0  0
   -4.6885   -0.3730   -4.2241 H   0  0  0  0  0  0  0  0  0  0  0  0
   -6.4990    0.6878   -2.8311 H   0  0  0  0  0  0  0  0  0  0  0  0
   -8.4213    0.2340   -1.3454 H   0  0  0  0  0  0  0  0  0  0  0  0
   -8.5536   -1.9254   -0.1057 H   0  0  0  0  0  0  0  0  0  0  0  0
   -4.8450   -3.1789   -1.8316 H   0  0  0  0  0  0  0  0  0  0  0  0
   -1.3472   -5.0928   -1.4709 H   0  0  0  0  0  0  0  0  0  0  0  0
   -0.0508   -5.6506    0.6083 H   0  0  0  0  0  0  0  0  0  0  0  0
   -0.0840   -1.7421    1.9784 H   0  0  0  0  0  0  0  0  0  0  0  0
   -1.4688    2.8985   -1.6692 H   0  0  0  0  0  0  0  0  0  0  0  0
    0.0985    3.6221   -2.0480 H   0  0  0  0  0  0  0  0  0  0  0  0
   -0.3518    2.0704   -2.7757 H   0  0  0  0  0  0  0  0  0  0  0  0
    3.8109    3.0569   -0.1948 H   0  0  0  0  0  0  0  0  0  0  0  0
    6.9680    4.7458   -0.6479 H   0  0  0  0  0  0  0  0  0  0  0  0
    5.2854    4.8598   -0.1202 H   0  0  0  0  0  0  0  0  0  0  0  0
    5.7975    3.6004   -1.3114 H   0  0  0  0  0  0  0  0  0  0  0  0
  1  2  1  0
  2  3  1  0
  3  4  2  0
  4  5  1  0
  5  6  2  0
  6  7  1  0
  7  8  2  0
  8  9  1  0
  9 10  1  0
 10 11  1  0
 11 12  1  0
 12 13  1  0
 13 14  1  0
 14 15  1  0
 15 16  2  0
 16 17  1  0
 17 18  2  0
 18 19  1  0
 19 20  1  0
 19 21  2  0
 12 22  2  0
 22 23  1  0
 23 24  2  0
 24 25  1  0
 25 26  2  0
 26 27  1  0
 27 28  2  0
  9 29  2  0
 29 30  1  0
 29 31  1  0
  6 32  1  0
 32 33  2  0
 33 34  1  0
 34 35  1  0
 33  3  1  0
 31  7  1  0
 28 11  1  0
 21 15  1  0
 28 23  1  0
  1 36  1  0
  1 37  1  0
  1 38  1  0
  4 39  1  0
  5 40  1  0
 10 41  1  0
 10 42  1  0
 14 43  1  0
 14 44  1  0
 16 45  1  0
 17 46  1  0
 18 47  1  0
 21 48  1  0
 24 49  1  0
 25 50  1  0
 27 51  1  0
 30 52  1  0
 30 53  1  0
 30 54  1  0
 32 55  1  0
 35 56  1  0
 35 57  1  0
 35 58  1  0
M  END
$$$$
