
     RDKit          3D

 37 39  0  0  0  0  0  0  0  0999 V2000
    7.0537    1.3354    0.2689 C   0  0  0  0  0  0  0  0  0  0  0  0
    6.6096    0.4000   -0.8475 C   0  0  0  0  0  0  0  0  0  0  0  0
    6.0375   -0.9233   -0.3351 C   0  0  0  0  0  0  0  0  0  0  0  0
    4.7413   -0.7567    0.3893 C   0  0  0  0  0  0  0  0  0  0  0  0
    4.6196   -0.6505    1.6968 N   0  0  0  0  0  0  0  0  0  0  0  0
    3.3018   -0.5080    2.0814 N   0  0  0  0  0  0  0  0  0  0  0  0
    2.4807   -0.5177    1.0548 C   0  0  0  0  0  0  0  0  0  0  0  0
    1.1238   -0.3897    1.2165 N   0  0  0  0  0  0  0  0  0  0  0  0
    0.1651   -0.3840    0.2207 C   0  0  0  0  0  0  0  0  0  0  0  0
    0.3698   -0.4933   -0.9830 O   0  0  0  0  0  0  0  0  0  0  0  0
   -1.2453   -0.2191    0.8058 C   0  0  0  0  0  0  0  0  0  0  0  0
   -2.2334   -0.2122   -0.2119 O   0  0  0  0  0  0  0  0  0  0  0  0
   -3.5378   -0.0713    0.1756 C   0  0  0  0  0  0  0  0  0  0  0  0
   -3.9927    0.0682    1.5007 C   0  0  0  0  0  0  0  0  0  0  0  0
   -5.3599    0.2058    1.7748 C   0  0  0  0  0  0  0  0  0  0  0  0
   -6.2346    0.1998    0.7110 C   0  0  0  0  0  0  0  0  0  0  0  0
   -5.7946    0.0640   -0.5829 C   0  0  0  0  0  0  0  0  0  0  0  0
   -4.4560   -0.0731   -0.8813 C   0  0  0  0  0  0  0  0  0  0  0  0
   -6.8144    0.0829   -1.4821 O   0  0  0  0  0  0  0  0  0  0  0  0
   -7.9474    0.2463   -0.6044 C   0  0  0  0  0  0  0  0  0  0  0  0
   -7.5860    0.3214    0.7910 O   0  0  0  0  0  0  0  0  0  0  0  0
    3.2459   -0.7010   -0.4540 S   0  0  0  0  0  0  0  0  0  0  0  0
    7.5230    2.2292   -0.1547 H   0  0  0  0  0  0  0  0  0  0  0  0
    6.2065    1.6622    0.8794 H   0  0  0  0  0  0  0  0  0  0  0  0
    7.7838    0.8478    0.9227 H   0  0  0  0  0  0  0  0  0  0  0  0
    7.4791    0.1805   -1.4789 H   0  0  0  0  0  0  0  0  0  0  0  0
    5.8793    0.9160   -1.4821 H   0  0  0  0  0  0  0  0  0  0  0  0
    5.9008   -1.6059   -1.1831 H   0  0  0  0  0  0  0  0  0  0  0  0
    6.7624   -1.4056    0.3322 H   0  0  0  0  0  0  0  0  0  0  0  0
    0.8516   -0.2914    2.1848 H   0  0  0  0  0  0  0  0  0  0  0  0
   -1.2627    0.7319    1.3522 H   0  0  0  0  0  0  0  0  0  0  0  0
   -1.4157   -1.0608    1.4884 H   0  0  0  0  0  0  0  0  0  0  0  0
   -3.3087    0.0736    2.3426 H   0  0  0  0  0  0  0  0  0  0  0  0
   -5.7220    0.3139    2.7911 H   0  0  0  0  0  0  0  0  0  0  0  0
   -4.1236   -0.1794   -1.9083 H   0  0  0  0  0  0  0  0  0  0  0  0
   -8.4746    1.1670   -0.8798 H   0  0  0  0  0  0  0  0  0  0  0  0
   -8.6258   -0.6030   -0.7454 H   0  0  0  0  0  0  0  0  0  0  0  0
  1  2  1  0
  2  3  1  0
  3  4  1  0
  4  5  2  0
  5  6  1  0
  6  7  2  0
  7  8  1  0
  8  9  1  0
  9 10  2  0
  9 11  1  0
 11 12  1  0
 12 13  1  0
 13 14  2  0
 14 15  1  0
 15 16  2  0
 16 17  1  0
 17 18  2  0
 17 19  1  0
 19 20  1  0
 20 21  1  0
  7 22  1  0
 22  4  1  0
 18 13  1  0
 21 16  1  0
  1 23  1  0
  1 24  1  0
  1 25  1  0
  2 26  1  0
  2 27  1  0
  3 28  1  0
  3 29  1  0
  8 30  1  0
 11 31  1  0
 11 32  1  0
 14 33  1  0
 15 34  1  0
 18 35  1  0
 20 36  1  0
 20 37  1  0
M  END
$$$$
