
     RDKit          3D

 43 46  0  0  0  0  0  0  0  0999 V2000
   -1.5565   -1.8527   -1.5932 O   0  0  0  0  0  0  0  0  0  0  0  0
   -1.8846   -0.9996   -0.7785 C   0  0  0  0  0  0  0  0  0  0  0  0
   -1.0456   -0.2381    0.0155 N   0  0  0  0  0  0  0  0  0  0  0  0
    0.3642   -0.2185   -0.0051 C   0  0  0  0  0  0  0  0  0  0  0  0
    1.1430   -0.9096   -0.9312 C   0  0  0  0  0  0  0  0  0  0  0  0
    2.5441   -0.8339   -0.8906 C   0  0  0  0  0  0  0  0  0  0  0  0
    3.1886   -0.0631    0.0752 C   0  0  0  0  0  0  0  0  0  0  0  0
    4.5888    0.0604    0.1941 N   0  0  0  0  0  0  0  0  0  0  0  0
    5.5663   -0.4568   -0.6469 C   0  0  0  0  0  0  0  0  0  0  0  0
    5.3272   -1.0623   -1.6873 O   0  0  0  0  0  0  0  0  0  0  0  0
    6.9316   -0.1902   -0.1872 C   0  0  0  0  0  0  0  0  0  0  0  0
    7.4114    0.1002    1.0803 C   0  0  0  0  0  0  0  0  0  0  0  0
    8.8243    0.2985    1.1024 C   0  0  0  0  0  0  0  0  0  0  0  0
    9.3848    0.1456   -0.1443 C   0  0  0  0  0  0  0  0  0  0  0  0
    8.2169   -0.2437   -1.3281 S   0  0  0  0  0  0  0  0  0  0  0  0
    2.4067    0.6307    1.0052 C   0  0  0  0  0  0  0  0  0  0  0  0
    1.0090    0.5569    0.9632 C   0  0  0  0  0  0  0  0  0  0  0  0
   -3.3377   -0.7607   -0.5552 C   0  0  0  0  0  0  0  0  0  0  0  0
   -4.2098   -1.8507   -0.6145 C   0  0  0  0  0  0  0  0  0  0  0  0
   -5.5772   -1.6642   -0.4035 C   0  0  0  0  0  0  0  0  0  0  0  0
   -6.0935   -0.3853   -0.1424 C   0  0  0  0  0  0  0  0  0  0  0  0
   -7.4659   -0.1834    0.0722 C   0  0  0  0  0  0  0  0  0  0  0  0
   -7.9687    1.0948    0.3195 C   0  0  0  0  0  0  0  0  0  0  0  0
   -7.1069    2.1871    0.3534 C   0  0  0  0  0  0  0  0  0  0  0  0
   -5.7393    2.0042    0.1426 C   0  0  0  0  0  0  0  0  0  0  0  0
   -5.2158    0.7243   -0.1031 C   0  0  0  0  0  0  0  0  0  0  0  0
   -3.8413    0.5250   -0.3157 C   0  0  0  0  0  0  0  0  0  0  0  0
   -1.4819    0.3141    0.7418 H   0  0  0  0  0  0  0  0  0  0  0  0
    0.6961   -1.5210   -1.7097 H   0  0  0  0  0  0  0  0  0  0  0  0
    3.0942   -1.4014   -1.6352 H   0  0  0  0  0  0  0  0  0  0  0  0
    4.9115    0.6457    0.9502 H   0  0  0  0  0  0  0  0  0  0  0  0
    6.7938    0.1510    1.9682 H   0  0  0  0  0  0  0  0  0  0  0  0
    9.4012    0.5316    1.9894 H   0  0  0  0  0  0  0  0  0  0  0  0
   10.4272    0.2334   -0.4192 H   0  0  0  0  0  0  0  0  0  0  0  0
    2.8684    1.2420    1.7761 H   0  0  0  0  0  0  0  0  0  0  0  0
    0.4379    1.1122    1.7024 H   0  0  0  0  0  0  0  0  0  0  0  0
   -3.8259   -2.8476   -0.8235 H   0  0  0  0  0  0  0  0  0  0  0  0
   -6.2380   -2.5275   -0.4500 H   0  0  0  0  0  0  0  0  0  0  0  0
   -8.1569   -1.0232    0.0439 H   0  0  0  0  0  0  0  0  0  0  0  0
   -9.0342    1.2367    0.4812 H   0  0  0  0  0  0  0  0  0  0  0  0
   -7.4995    3.1835    0.5410 H   0  0  0  0  0  0  0  0  0  0  0  0
   -5.0855    2.8731    0.1702 H   0  0  0  0  0  0  0  0  0  0  0  0
   -3.1725    1.3821   -0.3234 H   0  0  0  0  0  0  0  0  0  0  0  0
  1  2  2  0
  2  3  1  0
  3  4  1  0
  4  5  2  0
  5  6  1  0
  6  7  2  0
  7  8  1  0
  8  9  1  0
  9 10  2  0
  9 11  1  0
 11 12  2  0
 12 13  1  0
 13 14  2  0
 14 15  1  0
  7 16  1  0
 16 17  2  0
  2 18  1  0
 18 19  2  0
 19 20  1  0
 20 21  2  0
 21 22  1  0
 22 23  2  0
 23 24  1  0
 24 25  2  0
 25 26  1  0
 26 27  2  0
 17  4  1  0
 27 18  1  0
 15 11  1  0
 26 21  1  0
  3 28  1  0
  5 29  1  0
  6 30  1  0
  8 31  1  0
 12 32  1  0
 13 33  1  0
 14 34  1  0
 16 35  1  0
 17 36  1  0
 19 37  1  0
 20 38  1  0
 22 39  1  0
 23 40  1  0
 24 41  1  0
 25 42  1  0
 27 43  1  0
M  END
$$$$
