
     RDKit          3D

 44 46  0  0  0  0  0  0  0  0999 V2000
    7.0981    1.1897   -2.5605 C   0  0  0  0  0  0  0  0  0  0  0  0
    7.3145    0.9000   -1.1842 O   0  0  0  0  0  0  0  0  0  0  0  0
    6.2606    0.3544   -0.4968 C   0  0  0  0  0  0  0  0  0  0  0  0
    5.0007    0.0558   -1.0181 C   0  0  0  0  0  0  0  0  0  0  0  0
    4.0089   -0.4990   -0.1927 C   0  0  0  0  0  0  0  0  0  0  0  0
    2.6956   -0.8163   -0.7638 C   0  0  0  0  0  0  0  0  0  0  0  0
    1.5423   -0.2049   -0.4622 C   0  0  0  0  0  0  0  0  0  0  0  0
    1.2850    1.0997    0.6381 S   0  0  0  0  0  0  0  0  0  0  0  0
   -0.4504    1.1494    0.3362 C   0  0  0  0  0  0  0  0  0  0  0  0
   -1.4826    2.2314    1.0701 S   0  0  0  0  0  0  0  0  0  0  0  0
   -0.7575    0.1873   -0.6013 N   0  0  0  0  0  0  0  0  0  0  0  0
   -2.1850   -0.1239   -1.0225 N   0  0  0  0  0  0  0  0  0  0  0  0
   -2.8735   -1.4083   -0.1219 S   0  0  0  0  0  6  0  0  0  0  0  0
   -3.1225   -2.4783   -1.0622 O   0  0  0  0  0  0  0  0  0  0  0  0
   -2.0723   -1.6075    1.0679 O   0  0  0  0  0  0  0  0  0  0  0  0
   -4.4342   -0.7117    0.3450 C   0  0  0  0  0  0  0  0  0  0  0  0
   -5.5103   -0.7811   -0.5440 C   0  0  0  0  0  0  0  0  0  0  0  0
   -6.7473   -0.2533   -0.1696 C   0  0  0  0  0  0  0  0  0  0  0  0
   -6.9137    0.3438    1.0873 C   0  0  0  0  0  0  0  0  0  0  0  0
   -8.2531    0.8812    1.4996 C   0  0  0  0  0  0  0  0  0  0  0  0
   -5.8336    0.3781    1.9797 C   0  0  0  0  0  0  0  0  0  0  0  0
   -4.5944   -0.1496    1.6130 C   0  0  0  0  0  0  0  0  0  0  0  0
    0.2615   -0.5988   -1.1065 C   0  0  0  0  0  0  0  0  0  0  0  0
    0.1413   -1.4577   -1.9691 O   0  0  0  0  0  0  0  0  0  0  0  0
    4.2897   -0.7675    1.1536 C   0  0  0  0  0  0  0  0  0  0  0  0
    5.5460   -0.4712    1.6794 C   0  0  0  0  0  0  0  0  0  0  0  0
    6.5135    0.0850    0.8532 C   0  0  0  0  0  0  0  0  0  0  0  0
    7.7390    0.3660    1.3936 O   0  0  0  0  0  0  0  0  0  0  0  0
    6.8795    0.2777   -3.1258 H   0  0  0  0  0  0  0  0  0  0  0  0
    8.0227    1.6162   -2.9611 H   0  0  0  0  0  0  0  0  0  0  0  0
    6.3055    1.9345   -2.6868 H   0  0  0  0  0  0  0  0  0  0  0  0
    4.7640    0.2479   -2.0595 H   0  0  0  0  0  0  0  0  0  0  0  0
    2.7062   -1.6184   -1.5012 H   0  0  0  0  0  0  0  0  0  0  0  0
   -2.2177   -0.4153   -2.0078 H   0  0  0  0  0  0  0  0  0  0  0  0
   -5.4002   -1.2479   -1.5201 H   0  0  0  0  0  0  0  0  0  0  0  0
   -7.5842   -0.3136   -0.8626 H   0  0  0  0  0  0  0  0  0  0  0  0
   -8.8396    0.0934    1.9823 H   0  0  0  0  0  0  0  0  0  0  0  0
   -8.8075    1.2551    0.6324 H   0  0  0  0  0  0  0  0  0  0  0  0
   -8.1402    1.7174    2.1976 H   0  0  0  0  0  0  0  0  0  0  0  0
   -5.9524    0.8164    2.9689 H   0  0  0  0  0  0  0  0  0  0  0  0
   -3.7685   -0.1163    2.3201 H   0  0  0  0  0  0  0  0  0  0  0  0
    3.5369   -1.2098    1.8023 H   0  0  0  0  0  0  0  0  0  0  0  0
    5.7704   -0.6730    2.7225 H   0  0  0  0  0  0  0  0  0  0  0  0
    8.2591    0.7428    0.6575 H   0  0  0  0  0  0  0  0  0  0  0  0
  1  2  1  0
  2  3  1  0
  3  4  2  0
  4  5  1  0
  5  6  1  0
  6  7  2  3
  7  8  1  0
  8  9  1  0
  9 10  2  0
  9 11  1  0
 11 12  1  0
 12 13  1  0
 13 14  2  0
 13 15  2  0
 13 16  1  0
 16 17  2  0
 17 18  1  0
 18 19  2  0
 19 20  1  0
 19 21  1  0
 21 22  2  0
 11 23  1  0
 23 24  2  0
  5 25  2  0
 25 26  1  0
 26 27  2  0
 27 28  1  0
 27  3  1  0
 23  7  1  0
 22 16  1  0
  1 29  1  0
  1 30  1  0
  1 31  1  0
  4 32  1  0
  6 33  1  0
 12 34  1  0
 17 35  1  0
 18 36  1  0
 20 37  1  0
 20 38  1  0
 20 39  1  0
 21 40  1  0
 22 41  1  0
 25 42  1  0
 26 43  1  0
 28 44  1  0
M  END
$$$$
