
     RDKit          3D

 38 40  0  0  0  0  0  0  0  0999 V2000
    1.5004   -2.3404   -2.0572 C   0  0  0  0  0  0  0  0  0  0  0  0
    0.2308   -1.8460   -1.4234 C   0  0  0  0  0  0  0  0  0  0  0  0
   -0.3174   -2.5640   -0.3512 C   0  0  0  0  0  0  0  0  0  0  0  0
   -1.4898   -2.1345    0.2702 C   0  0  0  0  0  0  0  0  0  0  0  0
   -1.9191   -2.9003    1.3189 O   0  0  0  0  0  0  0  0  0  0  0  0
   -2.1635   -0.9937   -0.1781 C   0  0  0  0  0  0  0  0  0  0  0  0
   -3.7065   -0.4124    0.5068 S   0  0  0  0  0  0  0  0  0  0  0  0
   -3.2403    0.0067    2.1287 C   0  0  0  0  0  0  0  0  0  0  0  0
   -2.8207   -0.9373    3.0314 N   0  0  0  0  0  0  0  0  0  0  0  0
   -2.5964   -0.2264    4.1126 C   0  0  0  0  0  0  0  0  0  0  0  0
   -2.8740    1.0810    3.8631 N   0  0  0  0  0  0  0  0  0  0  0  0
   -3.2821    1.2560    2.5966 N   0  0  0  0  0  0  0  0  0  0  0  0
   -1.6288   -0.2883   -1.2645 C   0  0  0  0  0  0  0  0  0  0  0  0
   -0.4321   -0.6911   -1.8695 C   0  0  0  0  0  0  0  0  0  0  0  0
    0.1201    0.0782   -2.9360 N   0  0  0  0  0  0  0  0  0  0  0  0
    0.5205    1.7002   -2.7028 S   0  0  0  0  0  6  0  0  0  0  0  0
    1.4028    2.0538   -3.7952 O   0  0  0  0  0  0  0  0  0  0  0  0
   -0.6786    2.4629   -2.4338 O   0  0  0  0  0  0  0  0  0  0  0  0
    1.5000    1.6735   -1.2153 C   0  0  0  0  0  0  0  0  0  0  0  0
    0.8966    1.9495    0.0171 C   0  0  0  0  0  0  0  0  0  0  0  0
    1.6685    1.9321    1.1799 C   0  0  0  0  0  0  0  0  0  0  0  0
    3.0343    1.6574    1.1020 C   0  0  0  0  0  0  0  0  0  0  0  0
    3.9814    1.6350    2.5382 Cl  0  0  0  0  0  0  0  0  0  0  0  0
    3.6399    1.4061   -0.1305 C   0  0  0  0  0  0  0  0  0  0  0  0
    2.8732    1.4195   -1.2977 C   0  0  0  0  0  0  0  0  0  0  0  0
    2.2722   -1.5654   -2.0266 H   0  0  0  0  0  0  0  0  0  0  0  0
    1.3156   -2.6305   -3.0964 H   0  0  0  0  0  0  0  0  0  0  0  0
    1.8981   -3.2166   -1.5340 H   0  0  0  0  0  0  0  0  0  0  0  0
    0.1693   -3.4639    0.0197 H   0  0  0  0  0  0  0  0  0  0  0  0
   -2.4868   -2.3447    1.8938 H   0  0  0  0  0  0  0  0  0  0  0  0
   -2.2490   -0.5890    5.0699 H   0  0  0  0  0  0  0  0  0  0  0  0
   -2.8134    1.8814    4.4834 H   0  0  0  0  0  0  0  0  0  0  0  0
   -2.1580    0.5829   -1.6470 H   0  0  0  0  0  0  0  0  0  0  0  0
    0.7426   -0.3804   -3.5978 H   0  0  0  0  0  0  0  0  0  0  0  0
   -0.1670    2.1725    0.0811 H   0  0  0  0  0  0  0  0  0  0  0  0
    1.2007    2.1366    2.1394 H   0  0  0  0  0  0  0  0  0  0  0  0
    4.7069    1.2050   -0.1874 H   0  0  0  0  0  0  0  0  0  0  0  0
    3.3495    1.2346   -2.2580 H   0  0  0  0  0  0  0  0  0  0  0  0
  1  2  1  0
  2  3  2  0
  3  4  1  0
  4  5  1  0
  4  6  2  0
  6  7  1  0
  7  8  1  0
  8  9  1  0
  9 10  2  0
 10 11  1  0
 11 12  1  0
  6 13  1  0
 13 14  2  0
 14 15  1  0
 15 16  1  0
 16 17  2  0
 16 18  2  0
 16 19  1  0
 19 20  2  0
 20 21  1  0
 21 22  2  0
 22 23  1  0
 22 24  1  0
 24 25  2  0
 14  2  1  0
 25 19  1  0
 12  8  2  0
  1 26  1  0
  1 27  1  0
  1 28  1  0
  3 29  1  0
  5 30  1  0
 10 31  1  0
 11 32  1  0
 13 33  1  0
 15 34  1  0
 20 35  1  0
 21 36  1  0
 24 37  1  0
 25 38  1  0
M  END
$$$$
