
     RDKit          3D

 41 43  0  0  0  0  0  0  0  0999 V2000
   -4.7764   -1.5561   -0.3349 C   0  0  0  0  0  0  0  0  0  0  0  0
   -3.4513   -1.2732    0.3081 C   0  0  0  0  0  0  0  0  0  0  0  0
   -2.5539   -2.3079    0.5723 C   0  0  0  0  0  0  0  0  0  0  0  0
   -1.3403   -2.0481    1.2149 C   0  0  0  0  0  0  0  0  0  0  0  0
   -0.9842   -0.7474    1.6143 C   0  0  0  0  0  0  0  0  0  0  0  0
    0.3275   -0.5668    2.3242 C   0  0  0  0  0  0  0  0  0  0  0  0
   -1.8892    0.2947    1.3428 C   0  0  0  0  0  0  0  0  0  0  0  0
   -1.5977    2.0089    1.7767 S   0  0  0  0  0  6  0  0  0  0  0  0
   -0.4256    2.1221    2.6147 O   0  0  0  0  0  0  0  0  0  0  0  0
   -2.8676    2.5586    2.2079 O   0  0  0  0  0  0  0  0  0  0  0  0
   -1.2743    2.7275    0.2780 N   0  0  0  0  0  0  0  0  0  0  0  0
   -0.2494    2.1874   -0.5464 C   0  0  0  0  0  0  0  0  0  0  0  0
   -0.6024    1.5718   -1.7463 C   0  0  0  0  0  0  0  0  0  0  0  0
    0.3850    0.9990   -2.5456 C   0  0  0  0  0  0  0  0  0  0  0  0
    1.7178    1.0344   -2.1386 C   0  0  0  0  0  0  0  0  0  0  0  0
    2.6114    0.4264   -2.9770 O   0  0  0  0  0  0  0  0  0  0  0  0
    2.0899    1.6604   -0.9404 C   0  0  0  0  0  0  0  0  0  0  0  0
    3.7794    1.8242   -0.3851 S   0  0  0  0  0  0  0  0  0  0  0  0
    4.2285    0.1684   -0.1022 C   0  0  0  0  0  0  0  0  0  0  0  0
    4.2420   -0.7662   -1.1069 N   0  0  0  0  0  0  0  0  0  0  0  0
    4.6579   -1.8492   -0.4913 C   0  0  0  0  0  0  0  0  0  0  0  0
    4.8873   -1.5679    0.8189 N   0  0  0  0  0  0  0  0  0  0  0  0
    4.6231   -0.2812    1.0910 N   0  0  0  0  0  0  0  0  0  0  0  0
    1.0882    2.2443   -0.1519 C   0  0  0  0  0  0  0  0  0  0  0  0
   -3.1201    0.0237    0.7122 C   0  0  0  0  0  0  0  0  0  0  0  0
   -5.5328   -1.7436    0.4335 H   0  0  0  0  0  0  0  0  0  0  0  0
   -4.7148   -2.4308   -0.9909 H   0  0  0  0  0  0  0  0  0  0  0  0
   -5.0981   -0.7101   -0.9514 H   0  0  0  0  0  0  0  0  0  0  0  0
   -2.7944   -3.3305    0.2882 H   0  0  0  0  0  0  0  0  0  0  0  0
   -0.6698   -2.8837    1.4100 H   0  0  0  0  0  0  0  0  0  0  0  0
    0.9688    0.1388    1.7923 H   0  0  0  0  0  0  0  0  0  0  0  0
    0.1624   -0.2352    3.3537 H   0  0  0  0  0  0  0  0  0  0  0  0
    0.8845   -1.5092    2.3806 H   0  0  0  0  0  0  0  0  0  0  0  0
   -2.1244    3.0616   -0.1718 H   0  0  0  0  0  0  0  0  0  0  0  0
   -1.6389    1.5185   -2.0659 H   0  0  0  0  0  0  0  0  0  0  0  0
    0.1189    0.5121   -3.4802 H   0  0  0  0  0  0  0  0  0  0  0  0
    3.3854    0.1491   -2.4425 H   0  0  0  0  0  0  0  0  0  0  0  0
    4.8090   -2.8276   -0.9253 H   0  0  0  0  0  0  0  0  0  0  0  0
    5.2168   -2.1768    1.5601 H   0  0  0  0  0  0  0  0  0  0  0  0
    1.3517    2.7483    0.7764 H   0  0  0  0  0  0  0  0  0  0  0  0
   -3.8300    0.8312    0.5385 H   0  0  0  0  0  0  0  0  0  0  0  0
  1  2  1  0
  2  3  2  0
  3  4  1  0
  4  5  2  0
  5  6  1  0
  5  7  1  0
  7  8  1  0
  8  9  2  0
  8 10  2  0
  8 11  1  0
 11 12  1  0
 12 13  2  0
 13 14  1  0
 14 15  2  0
 15 16  1  0
 15 17  1  0
 17 18  1  0
 18 19  1  0
 19 20  1  0
 20 21  2  0
 21 22  1  0
 22 23  1  0
 17 24  2  0
  7 25  2  0
 25  2  1  0
 24 12  1  0
 23 19  2  0
  1 26  1  0
  1 27  1  0
  1 28  1  0
  3 29  1  0
  4 30  1  0
  6 31  1  0
  6 32  1  0
  6 33  1  0
 11 34  1  0
 13 35  1  0
 14 36  1  0
 16 37  1  0
 21 38  1  0
 22 39  1  0
 24 40  1  0
 25 41  1  0
M  END
$$$$
