
     RDKit          3D

 35 36  0  0  0  0  0  0  0  0999 V2000
    2.9098   -0.3915   -1.7738 C   0  0  0  0  0  0  0  0  0  0  0  0
    2.3364   -0.5157   -0.4296 N   0  0  0  0  0  0  0  0  0  0  0  0
    0.9240   -0.0788   -0.4070 C   0  0  0  0  0  0  0  0  0  0  0  0
   -0.0177   -1.0788   -1.0943 C   0  0  0  0  0  0  0  0  0  0  0  0
   -1.4741   -0.6141   -1.0478 C   0  0  0  0  0  0  0  0  0  0  0  0
   -1.8880   -0.5036    0.3117 O   0  0  0  0  0  0  0  0  0  0  0  0
   -3.1463   -0.0273    0.5666 C   0  0  0  0  0  0  0  0  0  0  0  0
   -4.1129    0.2220   -0.4135 C   0  0  0  0  0  0  0  0  0  0  0  0
   -5.3763    0.7035   -0.0533 C   0  0  0  0  0  0  0  0  0  0  0  0
   -5.6793    0.9354    1.2864 C   0  0  0  0  0  0  0  0  0  0  0  0
   -7.2353    1.5277    1.7185 Cl  0  0  0  0  0  0  0  0  0  0  0  0
   -4.7329    0.6905    2.2751 C   0  0  0  0  0  0  0  0  0  0  0  0
   -3.4720    0.2097    1.9141 C   0  0  0  0  0  0  0  0  0  0  0  0
   -2.3250   -0.0751    3.1781 Cl  0  0  0  0  0  0  0  0  0  0  0  0
    3.1104    0.2799    0.5447 C   0  0  0  0  0  0  0  0  0  0  0  0
    4.4495   -0.3381    0.8061 C   0  0  0  0  0  0  0  0  0  0  0  0
    5.7171    0.2081    0.1994 C   0  0  0  0  0  0  0  0  0  0  0  0
    5.3455    0.5038    1.5511 O   0  0  0  0  0  0  0  0  0  0  0  0
    2.8972    0.6437   -2.1334 H   0  0  0  0  0  0  0  0  0  0  0  0
    3.9436   -0.7510   -1.7975 H   0  0  0  0  0  0  0  0  0  0  0  0
    2.3733   -1.0128   -2.4969 H   0  0  0  0  0  0  0  0  0  0  0  0
    0.8188    0.9168   -0.8577 H   0  0  0  0  0  0  0  0  0  0  0  0
    0.5961    0.0115    0.6364 H   0  0  0  0  0  0  0  0  0  0  0  0
    0.2572   -1.2233   -2.1437 H   0  0  0  0  0  0  0  0  0  0  0  0
    0.0675   -2.0492   -0.5894 H   0  0  0  0  0  0  0  0  0  0  0  0
   -1.5625    0.3550   -1.5539 H   0  0  0  0  0  0  0  0  0  0  0  0
   -2.0925   -1.3578   -1.5640 H   0  0  0  0  0  0  0  0  0  0  0  0
   -3.9200    0.0471   -1.4671 H   0  0  0  0  0  0  0  0  0  0  0  0
   -6.1195    0.8926   -0.8245 H   0  0  0  0  0  0  0  0  0  0  0  0
   -4.9716    0.8714    3.3193 H   0  0  0  0  0  0  0  0  0  0  0  0
    3.2035    1.3240    0.2184 H   0  0  0  0  0  0  0  0  0  0  0  0
    2.5871    0.2925    1.5091 H   0  0  0  0  0  0  0  0  0  0  0  0
    4.3966   -1.3800    1.0922 H   0  0  0  0  0  0  0  0  0  0  0  0
    5.6493    1.0089   -0.5255 H   0  0  0  0  0  0  0  0  0  0  0  0
    6.5430   -0.4746    0.0454 H   0  0  0  0  0  0  0  0  0  0  0  0
  1  2  1  0
  2  3  1  0
  3  4  1  0
  4  5  1  0
  5  6  1  0
  6  7  1  0
  7  8  2  0
  8  9  1  0
  9 10  2  0
 10 11  1  0
 10 12  1  0
 12 13  2  0
 13 14  1  0
  2 15  1  0
 15 16  1  0
 16 17  1  0
 17 18  1  0
 13  7  1  0
 18 16  1  0
  1 19  1  0
  1 20  1  0
  1 21  1  0
  3 22  1  0
  3 23  1  0
  4 24  1  0
  4 25  1  0
  5 26  1  0
  5 27  1  0
  8 28  1  0
  9 29  1  0
 12 30  1  0
 15 31  1  0
 15 32  1  0
 16 33  1  0
 17 34  1  0
 17 35  1  0
M  END
$$$$
