
     RDKit          3D

 49 50  0  0  0  0  0  0  0  0999 V2000
    3.8642    0.4872    2.2785 C   0  0  0  0  0  0  0  0  0  0  0  0
    3.9961   -0.4029    1.0421 C   0  0  0  0  0  0  0  0  0  0  0  0
    5.4752   -0.6266    0.7200 C   0  0  0  0  0  0  0  0  0  0  0  0
    3.2773    0.1873   -0.1839 C   0  0  0  0  0  0  0  0  0  0  0  0
    1.7687    0.3284    0.0146 C   0  0  0  0  0  0  0  0  0  0  0  0
    1.1484    0.7570   -1.2677 N   0  0  0  0  0  4  0  0  0  0  0  0
    1.0762    2.0894   -1.5162 C   0  0  0  0  0  0  0  0  0  0  0  0
    0.5658    2.5775   -2.7113 C   0  0  0  0  0  0  0  0  0  0  0  0
    0.1192    1.6876   -3.6728 C   0  0  0  0  0  0  0  0  0  0  0  0
    0.1794    0.3263   -3.4096 C   0  0  0  0  0  0  0  0  0  0  0  0
    0.6865   -0.1363   -2.1870 C   0  0  0  0  0  0  0  0  0  0  0  0
    0.6773   -1.5827   -1.9368 C   0  0  0  0  0  0  0  0  0  0  0  0
   -0.2145   -2.2324   -1.1676 C   0  0  0  0  0  0  0  0  0  0  0  0
   -1.2919   -1.6008   -0.3982 C   0  0  0  0  0  0  0  0  0  0  0  0
   -1.3013   -1.7208    0.9895 C   0  0  0  0  0  0  0  0  0  0  0  0
   -2.2870   -1.0778    1.7526 C   0  0  0  0  0  0  0  0  0  0  0  0
   -3.3123   -0.3142    1.1683 C   0  0  0  0  0  0  0  0  0  0  0  0
   -4.2705    0.3600    1.9335 N   0  0  0  0  0  0  0  0  0  0  0  0
   -5.5142    0.7859    1.2856 C   0  0  0  0  0  0  0  0  0  0  0  0
   -4.4001    0.0401    3.3571 C   0  0  0  0  0  0  0  0  0  0  0  0
   -3.2882   -0.2329   -0.2353 C   0  0  0  0  0  0  0  0  0  0  0  0
   -2.3077   -0.8710   -1.0095 C   0  0  0  0  0  0  0  0  0  0  0  0
    2.8229    0.5622    2.6057 H   0  0  0  0  0  0  0  0  0  0  0  0
    4.2342    1.4989    2.0806 H   0  0  0  0  0  0  0  0  0  0  0  0
    4.4376    0.0754    3.1161 H   0  0  0  0  0  0  0  0  0  0  0  0
    3.5515   -1.3792    1.2733 H   0  0  0  0  0  0  0  0  0  0  0  0
    5.5897   -1.2969   -0.1385 H   0  0  0  0  0  0  0  0  0  0  0  0
    5.9940   -1.0833    1.5695 H   0  0  0  0  0  0  0  0  0  0  0  0
    5.9780    0.3172    0.4832 H   0  0  0  0  0  0  0  0  0  0  0  0
    3.4658   -0.4583   -1.0513 H   0  0  0  0  0  0  0  0  0  0  0  0
    3.7075    1.1655   -0.4343 H   0  0  0  0  0  0  0  0  0  0  0  0
    1.3240   -0.6052    0.3556 H   0  0  0  0  0  0  0  0  0  0  0  0
    1.5255    1.0902    0.7639 H   0  0  0  0  0  0  0  0  0  0  0  0
    1.4444    2.7644   -0.7477 H   0  0  0  0  0  0  0  0  0  0  0  0
    0.5204    3.6493   -2.8921 H   0  0  0  0  0  0  0  0  0  0  0  0
   -0.2825    2.0496   -4.6180 H   0  0  0  0  0  0  0  0  0  0  0  0
   -0.1879   -0.3779   -4.1548 H   0  0  0  0  0  0  0  0  0  0  0  0
    1.4349   -2.1527   -2.4717 H   0  0  0  0  0  0  0  0  0  0  0  0
   -0.1441   -3.3146   -1.0584 H   0  0  0  0  0  0  0  0  0  0  0  0
   -0.5444   -2.3085    1.5048 H   0  0  0  0  0  0  0  0  0  0  0  0
   -2.2300   -1.2022    2.8305 H   0  0  0  0  0  0  0  0  0  0  0  0
   -6.1925    1.2634    2.0019 H   0  0  0  0  0  0  0  0  0  0  0  0
   -6.0431   -0.0680    0.8480 H   0  0  0  0  0  0  0  0  0  0  0  0
   -5.3205    1.5363    0.5118 H   0  0  0  0  0  0  0  0  0  0  0  0
   -4.6823   -1.0087    3.5009 H   0  0  0  0  0  0  0  0  0  0  0  0
   -3.4705    0.2499    3.8970 H   0  0  0  0  0  0  0  0  0  0  0  0
   -5.1681    0.6600    3.8335 H   0  0  0  0  0  0  0  0  0  0  0  0
   -4.0435    0.3342   -0.7723 H   0  0  0  0  0  0  0  0  0  0  0  0
   -2.3676   -0.7893   -2.0919 H   0  0  0  0  0  0  0  0  0  0  0  0
  1  2  1  0
  2  3  1  0
  2  4  1  0
  4  5  1  0
  5  6  1  0
  6  7  2  0
  7  8  1  0
  8  9  2  0
  9 10  1  0
 10 11  2  0
 11 12  1  0
 12 13  2  3
 13 14  1  0
 14 15  2  0
 15 16  1  0
 16 17  2  0
 17 18  1  0
 18 19  1  0
 18 20  1  0
 17 21  1  0
 21 22  2  0
 11  6  1  0
 22 14  1  0
  1 23  1  0
  1 24  1  0
  1 25  1  0
  2 26  1  0
  3 27  1  0
  3 28  1  0
  3 29  1  0
  4 30  1  0
  4 31  1  0
  5 32  1  0
  5 33  1  0
  7 34  1  0
  8 35  1  0
  9 36  1  0
 10 37  1  0
 12 38  1  0
 13 39  1  0
 15 40  1  0
 16 41  1  0
 19 42  1  0
 19 43  1  0
 19 44  1  0
 20 45  1  0
 20 46  1  0
 20 47  1  0
 21 48  1  0
 22 49  1  0
M  CHG  1   6   1
M  END
$$$$
