
     RDKit          3D

 53 55  0  0  0  0  0  0  0  0999 V2000
    8.8866    0.4948    1.6917 C   0  0  0  0  0  0  0  0  0  0  0  0
    8.0582    1.6245    1.4446 O   0  0  0  0  0  0  0  0  0  0  0  0
    6.7919    1.3775    0.9912 C   0  0  0  0  0  0  0  0  0  0  0  0
    6.2258    0.1171    0.7839 C   0  0  0  0  0  0  0  0  0  0  0  0
    4.9123    0.0057    0.3174 C   0  0  0  0  0  0  0  0  0  0  0  0
    4.1666    1.1605    0.0642 C   0  0  0  0  0  0  0  0  0  0  0  0
    2.4999    0.9967   -0.5242 S   0  0  0  0  0  6  0  0  0  0  0  0
    2.5176    0.0309   -1.5995 O   0  0  0  0  0  0  0  0  0  0  0  0
    1.9395    2.3197   -0.6988 O   0  0  0  0  0  0  0  0  0  0  0  0
    1.7202    0.2944    0.7998 N   0  0  0  0  0  0  0  0  0  0  0  0
    1.6297    1.1007    2.0369 C   0  0  0  0  0  0  0  0  0  0  0  0
    0.1430    1.2725    2.2516 C   0  0  0  0  0  0  0  0  0  0  0  0
   -0.4096    0.0719    1.7100 O   0  0  0  0  0  0  0  0  0  0  0  0
    0.3406   -0.1592    0.4977 C   0  0  0  0  0  0  0  0  0  0  0  0
    0.3089   -1.6643    0.1682 C   0  0  0  0  0  0  0  0  0  0  0  0
   -1.0345   -2.2028    0.0373 N   0  0  0  0  0  0  0  0  0  0  0  0
   -1.8469   -1.8643   -1.0189 C   0  0  0  0  0  0  0  0  0  0  0  0
   -1.5136   -1.2113   -1.9971 O   0  0  0  0  0  0  0  0  0  0  0  0
   -3.3030   -2.3615   -0.8720 C   0  0  0  0  0  0  0  0  0  0  0  0
   -3.6566   -2.9335    0.1499 O   0  0  0  0  0  0  0  0  0  0  0  0
   -4.0902   -2.0786   -1.9621 N   0  0  0  0  0  0  0  0  0  0  0  0
   -5.5117   -2.3065   -1.9682 C   0  0  0  0  0  0  0  0  0  0  0  0
   -6.2629   -1.0850   -1.5039 C   0  0  0  0  0  0  0  0  0  0  0  0
   -6.6175   -0.9817   -0.1463 C   0  0  0  0  0  0  0  0  0  0  0  0
   -7.2981    0.1382    0.3347 C   0  0  0  0  0  0  0  0  0  0  0  0
   -7.6283    1.1771   -0.5307 C   0  0  0  0  0  0  0  0  0  0  0  0
   -7.2714    1.0987   -1.8764 C   0  0  0  0  0  0  0  0  0  0  0  0
   -6.5887   -0.0221   -2.3606 C   0  0  0  0  0  0  0  0  0  0  0  0
   -6.1573   -0.0347   -4.0340 Cl  0  0  0  0  0  0  0  0  0  0  0  0
    4.7239    2.4243    0.2580 C   0  0  0  0  0  0  0  0  0  0  0  0
    6.0356    2.5250    0.7253 C   0  0  0  0  0  0  0  0  0  0  0  0
    8.4720   -0.1306    2.4893 H   0  0  0  0  0  0  0  0  0  0  0  0
    9.8608    0.8618    2.0291 H   0  0  0  0  0  0  0  0  0  0  0  0
    9.0477   -0.0849    0.7767 H   0  0  0  0  0  0  0  0  0  0  0  0
    6.7798   -0.7969    0.9718 H   0  0  0  0  0  0  0  0  0  0  0  0
    4.4780   -0.9779    0.1506 H   0  0  0  0  0  0  0  0  0  0  0  0
    2.1458    2.0626    1.9965 H   0  0  0  0  0  0  0  0  0  0  0  0
    2.0730    0.5103    2.8465 H   0  0  0  0  0  0  0  0  0  0  0  0
   -0.1258    1.3730    3.3063 H   0  0  0  0  0  0  0  0  0  0  0  0
   -0.2548    2.1287    1.6951 H   0  0  0  0  0  0  0  0  0  0  0  0
   -0.1286    0.4371   -0.2935 H   0  0  0  0  0  0  0  0  0  0  0  0
    0.8490   -1.8645   -0.7626 H   0  0  0  0  0  0  0  0  0  0  0  0
    0.7882   -2.2377    0.9696 H   0  0  0  0  0  0  0  0  0  0  0  0
   -1.5052   -2.5747    0.8586 H   0  0  0  0  0  0  0  0  0  0  0  0
   -3.6730   -1.4988   -2.6858 H   0  0  0  0  0  0  0  0  0  0  0  0
   -5.8062   -2.5950   -2.9821 H   0  0  0  0  0  0  0  0  0  0  0  0
   -5.7484   -3.1631   -1.3252 H   0  0  0  0  0  0  0  0  0  0  0  0
   -6.3534   -1.7785    0.5487 H   0  0  0  0  0  0  0  0  0  0  0  0
   -7.5645    0.1997    1.3873 H   0  0  0  0  0  0  0  0  0  0  0  0
   -8.1562    2.0509   -0.1572 H   0  0  0  0  0  0  0  0  0  0  0  0
   -7.5234    1.9192   -2.5440 H   0  0  0  0  0  0  0  0  0  0  0  0
    4.1563    3.3278    0.0479 H   0  0  0  0  0  0  0  0  0  0  0  0
    6.4787    3.5067    0.8792 H   0  0  0  0  0  0  0  0  0  0  0  0
  1  2  1  0
  2  3  1  0
  3  4  2  0
  4  5  1  0
  5  6  2  0
  6  7  1  0
  7  8  2  0
  7  9  2  0
  7 10  1  0
 10 11  1  0
 11 12  1  0
 12 13  1  0
 13 14  1  0
 14 15  1  0
 15 16  1  0
 16 17  1  0
 17 18  2  0
 17 19  1  0
 19 20  2  0
 19 21  1  0
 21 22  1  0
 22 23  1  0
 23 24  2  0
 24 25  1  0
 25 26  2  0
 26 27  1  0
 27 28  2  0
 28 29  1  0
  6 30  1  0
 30 31  2  0
 31  3  1  0
 14 10  1  0
 28 23  1  0
  1 32  1  0
  1 33  1  0
  1 34  1  0
  4 35  1  0
  5 36  1  0
 11 37  1  0
 11 38  1  0
 12 39  1  0
 12 40  1  0
 14 41  1  0
 15 42  1  0
 15 43  1  0
 16 44  1  0
 21 45  1  0
 22 46  1  0
 22 47  1  0
 24 48  1  0
 25 49  1  0
 26 50  1  0
 27 51  1  0
 30 52  1  0
 31 53  1  0
M  END
$$$$
