
     RDKit          3D

 46 49  0  0  0  0  0  0  0  0999 V2000
    1.8887   -0.8908    0.8780 O   0  0  0  0  0  0  0  0  0  0  0  0
    1.4571   -0.4914   -0.1987 C   0  0  0  0  0  0  0  0  0  0  0  0
    0.8117   -1.4274   -1.2043 C   0  0  0  0  0  0  0  0  0  0  0  0
   -0.0324   -2.4508   -0.6023 N   0  0  0  0  0  0  0  0  0  0  0  0
   -1.1066   -2.2490    0.2476 C   0  0  0  0  0  0  0  0  0  0  0  0
   -1.4964   -0.9303    0.8415 C   0  0  0  0  0  0  0  0  0  0  0  0
   -1.6587   -0.0047   -0.2340 O   0  0  0  0  0  0  0  0  0  0  0  0
   -1.8265    1.3116    0.0992 C   0  0  0  0  0  0  0  0  0  0  0  0
   -2.0111    2.1669   -0.9909 C   0  0  0  0  0  0  0  0  0  0  0  0
   -2.1510    3.5428   -0.8008 C   0  0  0  0  0  0  0  0  0  0  0  0
   -2.1077    4.0733    0.4856 C   0  0  0  0  0  0  0  0  0  0  0  0
   -1.9348    3.2258    1.5784 C   0  0  0  0  0  0  0  0  0  0  0  0
   -1.7993    1.8467    1.3880 C   0  0  0  0  0  0  0  0  0  0  0  0
   -1.7146   -3.3923    0.5060 N   0  0  0  0  0  0  0  0  0  0  0  0
   -1.0275   -4.3534   -0.1850 C   0  0  0  0  0  0  0  0  0  0  0  0
   -1.2635   -5.7344   -0.2548 C   0  0  0  0  0  0  0  0  0  0  0  0
   -0.4196   -6.5255   -1.0416 C   0  0  0  0  0  0  0  0  0  0  0  0
    0.6385   -5.9514   -1.7461 C   0  0  0  0  0  0  0  0  0  0  0  0
    0.8887   -4.5748   -1.6882 C   0  0  0  0  0  0  0  0  0  0  0  0
    0.0341   -3.7986   -0.8927 C   0  0  0  0  0  0  0  0  0  0  0  0
    1.4979    0.8215   -0.6399 N   0  0  0  0  0  0  0  0  0  0  0  0
    1.8210    1.9818    0.1061 C   0  0  0  0  0  0  0  0  0  0  0  0
    2.1246    1.9588    1.4704 C   0  0  0  0  0  0  0  0  0  0  0  0
    2.3675    3.1512    2.1660 C   0  0  0  0  0  0  0  0  0  0  0  0
    2.7109    3.0387    3.8565 Cl  0  0  0  0  0  0  0  0  0  0  0  0
    2.3174    4.3789    1.4972 C   0  0  0  0  0  0  0  0  0  0  0  0
    2.5963    5.8839    2.2974 Cl  0  0  0  0  0  0  0  0  0  0  0  0
    2.0300    4.4153    0.1333 C   0  0  0  0  0  0  0  0  0  0  0  0
    1.7832    3.2259   -0.5534 C   0  0  0  0  0  0  0  0  0  0  0  0
    1.4276    3.3235   -2.2460 Cl  0  0  0  0  0  0  0  0  0  0  0  0
    0.1810   -0.8858   -1.9172 H   0  0  0  0  0  0  0  0  0  0  0  0
    1.6182   -1.9092   -1.7643 H   0  0  0  0  0  0  0  0  0  0  0  0
   -2.4448   -1.0343    1.3809 H   0  0  0  0  0  0  0  0  0  0  0  0
   -0.7121   -0.6167    1.5386 H   0  0  0  0  0  0  0  0  0  0  0  0
   -2.0492    1.7598   -1.9983 H   0  0  0  0  0  0  0  0  0  0  0  0
   -2.2960    4.1974   -1.6567 H   0  0  0  0  0  0  0  0  0  0  0  0
   -2.2186    5.1438    0.6389 H   0  0  0  0  0  0  0  0  0  0  0  0
   -1.9110    3.6381    2.5848 H   0  0  0  0  0  0  0  0  0  0  0  0
   -1.6721    1.2273    2.2702 H   0  0  0  0  0  0  0  0  0  0  0  0
   -2.0894   -6.1704    0.2959 H   0  0  0  0  0  0  0  0  0  0  0  0
   -0.5930   -7.5971   -1.1017 H   0  0  0  0  0  0  0  0  0  0  0  0
    1.2837   -6.5858   -2.3510 H   0  0  0  0  0  0  0  0  0  0  0  0
    1.7184   -4.1456   -2.2385 H   0  0  0  0  0  0  0  0  0  0  0  0
    1.1882    1.0131   -1.5894 H   0  0  0  0  0  0  0  0  0  0  0  0
    2.1608    1.0268    2.0263 H   0  0  0  0  0  0  0  0  0  0  0  0
    1.9906    5.3670   -0.3909 H   0  0  0  0  0  0  0  0  0  0  0  0
  1  2  2  0
  2  3  1  0
  3  4  1  0
  4  5  1  0
  5  6  1  0
  6  7  1  0
  7  8  1  0
  8  9  2  0
  9 10  1  0
 10 11  2  0
 11 12  1  0
 12 13  2  0
  5 14  2  0
 14 15  1  0
 15 16  2  0
 16 17  1  0
 17 18  2  0
 18 19  1  0
 19 20  2  0
  2 21  1  0
 21 22  1  0
 22 23  2  0
 23 24  1  0
 24 25  1  0
 24 26  2  0
 26 27  1  0
 26 28  1  0
 28 29  2  0
 29 30  1  0
 20  4  1  0
 29 22  1  0
 13  8  1  0
 20 15  1  0
  3 31  1  0
  3 32  1  0
  6 33  1  0
  6 34  1  0
  9 35  1  0
 10 36  1  0
 11 37  1  0
 12 38  1  0
 13 39  1  0
 16 40  1  0
 17 41  1  0
 18 42  1  0
 19 43  1  0
 21 44  1  0
 23 45  1  0
 28 46  1  0
M  END
$$$$
