
     RDKit          3D

 46 48  0  0  0  0  0  0  0  0999 V2000
   -2.7578    1.1030    2.1200 C   0  0  0  0  0  0  0  0  0  0  0  0
   -2.7857    0.6967    0.6583 C   0  0  0  0  0  0  0  0  0  0  0  0
   -2.7263   -0.7921    0.5410 N   0  0  0  0  0  4  0  0  0  0  0  0
   -1.5138   -1.3971    0.3576 C   0  0  0  0  0  0  0  0  0  0  0  0
   -0.2681   -0.6206    0.3765 C   0  0  0  0  0  0  0  0  0  0  0  0
    0.4676   -0.4294   -0.7305 C   0  0  0  0  0  0  0  0  0  0  0  0
    1.7281    0.3273   -0.7641 C   0  0  0  0  0  0  0  0  0  0  0  0
    1.9927    1.4079    0.0768 C   0  0  0  0  0  0  0  0  0  0  0  0
    3.2014    2.1170   -0.0240 C   0  0  0  0  0  0  0  0  0  0  0  0
    4.1949    1.7874   -0.9609 C   0  0  0  0  0  0  0  0  0  0  0  0
    5.3838    2.5134   -1.0677 N   0  0  0  0  0  0  0  0  0  0  0  0
    5.8072    3.3581    0.0493 C   0  0  0  0  0  0  0  0  0  0  0  0
    6.4627    2.0094   -1.9175 C   0  0  0  0  0  0  0  0  0  0  0  0
    3.8908    0.7139   -1.8134 C   0  0  0  0  0  0  0  0  0  0  0  0
    2.6868   -0.0030   -1.7216 C   0  0  0  0  0  0  0  0  0  0  0  0
   -1.4239   -2.7774    0.1759 C   0  0  0  0  0  0  0  0  0  0  0  0
   -2.5667   -3.5539    0.1817 C   0  0  0  0  0  0  0  0  0  0  0  0
   -3.8007   -2.9492    0.3842 C   0  0  0  0  0  0  0  0  0  0  0  0
   -4.9608   -3.7376    0.4038 C   0  0  0  0  0  0  0  0  0  0  0  0
   -6.2089   -3.1593    0.6151 C   0  0  0  0  0  0  0  0  0  0  0  0
   -6.3095   -1.7893    0.8125 C   0  0  0  0  0  0  0  0  0  0  0  0
   -5.1612   -0.9900    0.7938 C   0  0  0  0  0  0  0  0  0  0  0  0
   -3.8822   -1.5410    0.5737 C   0  0  0  0  0  0  0  0  0  0  0  0
   -3.6054    0.6855    2.6713 H   0  0  0  0  0  0  0  0  0  0  0  0
   -2.7988    2.1928    2.2094 H   0  0  0  0  0  0  0  0  0  0  0  0
   -1.8446    0.7560    2.6125 H   0  0  0  0  0  0  0  0  0  0  0  0
   -3.6807    1.0589    0.1450 H   0  0  0  0  0  0  0  0  0  0  0  0
   -1.9511    1.1435    0.1111 H   0  0  0  0  0  0  0  0  0  0  0  0
    0.0361   -0.2288    1.3430 H   0  0  0  0  0  0  0  0  0  0  0  0
    0.1628   -0.8559   -1.6861 H   0  0  0  0  0  0  0  0  0  0  0  0
    1.2723    1.7411    0.8175 H   0  0  0  0  0  0  0  0  0  0  0  0
    3.3366    2.9556    0.6532 H   0  0  0  0  0  0  0  0  0  0  0  0
    5.9168    2.7698    0.9672 H   0  0  0  0  0  0  0  0  0  0  0  0
    5.0978    4.1751    0.2183 H   0  0  0  0  0  0  0  0  0  0  0  0
    6.7727    3.8354   -0.1530 H   0  0  0  0  0  0  0  0  0  0  0  0
    6.8260    1.0407   -1.5573 H   0  0  0  0  0  0  0  0  0  0  0  0
    7.3140    2.6993   -1.9305 H   0  0  0  0  0  0  0  0  0  0  0  0
    6.1367    1.9172   -2.9592 H   0  0  0  0  0  0  0  0  0  0  0  0
    4.5883    0.4000   -2.5848 H   0  0  0  0  0  0  0  0  0  0  0  0
    2.5249   -0.8244   -2.4164 H   0  0  0  0  0  0  0  0  0  0  0  0
   -0.4552   -3.2561    0.0350 H   0  0  0  0  0  0  0  0  0  0  0  0
   -2.4814   -4.6308    0.0378 H   0  0  0  0  0  0  0  0  0  0  0  0
   -4.9079   -4.8166    0.2567 H   0  0  0  0  0  0  0  0  0  0  0  0
   -7.1030   -3.7812    0.6298 H   0  0  0  0  0  0  0  0  0  0  0  0
   -7.2873   -1.3405    0.9847 H   0  0  0  0  0  0  0  0  0  0  0  0
   -5.3201    0.0693    0.9696 H   0  0  0  0  0  0  0  0  0  0  0  0
  1  2  1  0
  2  3  1  0
  3  4  2  0
  4  5  1  0
  5  6  2  3
  6  7  1  0
  7  8  2  0
  8  9  1  0
  9 10  2  0
 10 11  1  0
 11 12  1  0
 11 13  1  0
 10 14  1  0
 14 15  2  0
  4 16  1  0
 16 17  2  0
 17 18  1  0
 18 19  2  0
 19 20  1  0
 20 21  2  0
 21 22  1  0
 22 23  2  0
 23  3  1  0
 15  7  1  0
 23 18  1  0
  1 24  1  0
  1 25  1  0
  1 26  1  0
  2 27  1  0
  2 28  1  0
  5 29  1  0
  6 30  1  0
  8 31  1  0
  9 32  1  0
 12 33  1  0
 12 34  1  0
 12 35  1  0
 13 36  1  0
 13 37  1  0
 13 38  1  0
 14 39  1  0
 15 40  1  0
 16 41  1  0
 17 42  1  0
 19 43  1  0
 20 44  1  0
 21 45  1  0
 22 46  1  0
M  CHG  1   3   1
M  END
$$$$
