
     RDKit          3D

 43 44  0  0  0  0  0  0  0  0999 V2000
   -2.7996    2.2988    1.7464 C   0  0  0  0  0  0  0  0  0  0  0  0
   -2.7728    0.7827    1.7284 C   0  0  0  0  0  0  0  0  0  0  0  0
   -3.2924    0.2894    0.4254 N   0  0  0  0  0  4  0  0  0  0  0  0
   -4.6304    0.0901    0.3118 C   0  0  0  0  0  0  0  0  0  0  0  0
   -5.1990   -0.4087   -0.8581 C   0  0  0  0  0  0  0  0  0  0  0  0
   -6.6847   -0.5877   -0.9712 C   0  0  0  0  0  0  0  0  0  0  0  0
   -4.3683   -0.6828   -1.9380 C   0  0  0  0  0  0  0  0  0  0  0  0
   -3.0003   -0.4767   -1.8169 C   0  0  0  0  0  0  0  0  0  0  0  0
   -2.4632    0.0101   -0.6186 C   0  0  0  0  0  0  0  0  0  0  0  0
   -1.0212    0.2494   -0.5162 C   0  0  0  0  0  0  0  0  0  0  0  0
   -0.1236   -0.7462   -0.5932 C   0  0  0  0  0  0  0  0  0  0  0  0
    1.3292   -0.5385   -0.5211 C   0  0  0  0  0  0  0  0  0  0  0  0
    2.1665   -1.3473   -1.2880 C   0  0  0  0  0  0  0  0  0  0  0  0
    3.5611   -1.1934   -1.2340 C   0  0  0  0  0  0  0  0  0  0  0  0
    4.1831   -0.2477   -0.4024 C   0  0  0  0  0  0  0  0  0  0  0  0
    5.5695   -0.0806   -0.3691 N   0  0  0  0  0  0  0  0  0  0  0  0
    6.4320   -1.0735   -1.0095 C   0  0  0  0  0  0  0  0  0  0  0  0
    6.1774    0.6646    0.7328 C   0  0  0  0  0  0  0  0  0  0  0  0
    3.3162    0.5490    0.3644 C   0  0  0  0  0  0  0  0  0  0  0  0
    1.9196    0.4058    0.3177 C   0  0  0  0  0  0  0  0  0  0  0  0
   -3.8184    2.6761    1.6115 H   0  0  0  0  0  0  0  0  0  0  0  0
   -2.4219    2.6732    2.7026 H   0  0  0  0  0  0  0  0  0  0  0  0
   -2.1831    2.7200    0.9468 H   0  0  0  0  0  0  0  0  0  0  0  0
   -1.7671    0.3884    1.8964 H   0  0  0  0  0  0  0  0  0  0  0  0
   -3.4104    0.3720    2.5197 H   0  0  0  0  0  0  0  0  0  0  0  0
   -5.2420    0.3377    1.1762 H   0  0  0  0  0  0  0  0  0  0  0  0
   -7.1440    0.3295   -1.3527 H   0  0  0  0  0  0  0  0  0  0  0  0
   -6.9278   -1.4141   -1.6474 H   0  0  0  0  0  0  0  0  0  0  0  0
   -7.1244   -0.8251    0.0032 H   0  0  0  0  0  0  0  0  0  0  0  0
   -4.7771   -1.0541   -2.8777 H   0  0  0  0  0  0  0  0  0  0  0  0
   -2.3523   -0.6870   -2.6671 H   0  0  0  0  0  0  0  0  0  0  0  0
   -0.7120    1.2843   -0.3986 H   0  0  0  0  0  0  0  0  0  0  0  0
   -0.4348   -1.7795   -0.7430 H   0  0  0  0  0  0  0  0  0  0  0  0
    1.7574   -2.1039   -1.9541 H   0  0  0  0  0  0  0  0  0  0  0  0
    4.1493   -1.8459   -1.8730 H   0  0  0  0  0  0  0  0  0  0  0  0
    7.4889   -0.7965   -0.9263 H   0  0  0  0  0  0  0  0  0  0  0  0
    6.2248   -1.1450   -2.0827 H   0  0  0  0  0  0  0  0  0  0  0  0
    6.3099   -2.0576   -0.5439 H   0  0  0  0  0  0  0  0  0  0  0  0
    5.8461    1.7085    0.7343 H   0  0  0  0  0  0  0  0  0  0  0  0
    7.2689    0.6958    0.6414 H   0  0  0  0  0  0  0  0  0  0  0  0
    5.9406    0.2019    1.6973 H   0  0  0  0  0  0  0  0  0  0  0  0
    3.7091    1.3159    1.0257 H   0  0  0  0  0  0  0  0  0  0  0  0
    1.3212    1.0484    0.9563 H   0  0  0  0  0  0  0  0  0  0  0  0
  1  2  1  0
  2  3  1  0
  3  4  2  0
  4  5  1  0
  5  6  1  0
  5  7  2  0
  7  8  1  0
  8  9  2  0
  9 10  1  0
 10 11  2  3
 11 12  1  0
 12 13  2  0
 13 14  1  0
 14 15  2  0
 15 16  1  0
 16 17  1  0
 16 18  1  0
 15 19  1  0
 19 20  2  0
  9  3  1  0
 20 12  1  0
  1 21  1  0
  1 22  1  0
  1 23  1  0
  2 24  1  0
  2 25  1  0
  4 26  1  0
  6 27  1  0
  6 28  1  0
  6 29  1  0
  7 30  1  0
  8 31  1  0
 10 32  1  0
 11 33  1  0
 13 34  1  0
 14 35  1  0
 17 36  1  0
 17 37  1  0
 17 38  1  0
 18 39  1  0
 18 40  1  0
 18 41  1  0
 19 42  1  0
 20 43  1  0
M  CHG  1   3   1
M  END
$$$$
