
     RDKit          3D

 47 50  0  0  0  0  0  0  0  0999 V2000
   -6.3887    0.6641    3.3939 C   0  0  0  0  0  0  0  0  0  0  0  0
   -5.8029    0.3469    2.0290 C   0  0  0  0  0  0  0  0  0  0  0  0
   -4.8912   -0.8770    2.0754 C   0  0  0  0  0  0  0  0  0  0  0  0
   -4.3841   -1.1745    0.7754 O   0  0  0  0  0  0  0  0  0  0  0  0
   -3.2336   -0.5717    0.3443 C   0  0  0  0  0  0  0  0  0  0  0  0
   -2.4940    0.3703    1.0618 C   0  0  0  0  0  0  0  0  0  0  0  0
   -1.3269    0.9228    0.5176 C   0  0  0  0  0  0  0  0  0  0  0  0
   -0.8807    0.5404   -0.7514 C   0  0  0  0  0  0  0  0  0  0  0  0
    0.3281    1.1170   -1.3507 C   0  0  0  0  0  0  0  0  0  0  0  0
    1.5755    1.0179   -0.8669 C   0  0  0  0  0  0  0  0  0  0  0  0
    2.0885    0.1817    0.5900 S   0  0  0  0  0  0  0  0  0  0  0  0
    3.7141    0.6122    0.2567 C   0  0  0  0  0  0  0  0  0  0  0  0
    4.8630    0.4056    0.8311 N   0  0  0  0  0  0  0  0  0  0  0  0
    5.7268    1.0459   -0.0447 C   0  0  0  0  0  0  0  0  0  0  0  0
    7.2734    1.0721    0.1879 C   0  0  0  0  0  0  0  0  0  0  0  0
    8.2054    1.6771   -0.6340 C   0  0  0  0  0  0  0  0  0  0  0  0
    9.4758    1.4301   -0.0602 C   0  0  0  0  0  0  0  0  0  0  0  0
    9.2423    0.7089    1.0856 C   0  0  0  0  0  0  0  0  0  0  0  0
    7.9140    0.4916    1.2477 O   0  0  0  0  0  0  0  0  0  0  0  0
    5.1375    1.6325   -1.1106 N   0  0  0  0  0  0  0  0  0  0  0  0
    3.8505    1.3300   -0.8745 N   0  0  0  0  0  0  0  0  0  0  0  0
    2.7216    1.6300   -1.6079 C   0  0  0  0  0  0  0  0  0  0  0  0
    2.7268    2.2610   -2.6501 O   0  0  0  0  0  0  0  0  0  0  0  0
   -1.6311   -0.3823   -1.4858 C   0  0  0  0  0  0  0  0  0  0  0  0
   -2.7842   -0.9517   -0.9314 C   0  0  0  0  0  0  0  0  0  0  0  0
   -3.5555   -1.8230   -1.6626 O   0  0  0  0  0  0  0  0  0  0  0  0
   -2.8473   -2.9950   -2.0902 C   0  0  0  0  0  0  0  0  0  0  0  0
   -2.9688   -3.1140   -3.6017 C   0  0  0  0  0  0  0  0  0  0  0  0
   -7.0532    1.5322    3.3281 H   0  0  0  0  0  0  0  0  0  0  0  0
   -6.9701   -0.1801    3.7771 H   0  0  0  0  0  0  0  0  0  0  0  0
   -5.5968    0.8928    4.1163 H   0  0  0  0  0  0  0  0  0  0  0  0
   -5.2527    1.2172    1.6548 H   0  0  0  0  0  0  0  0  0  0  0  0
   -6.6116    0.1710    1.3085 H   0  0  0  0  0  0  0  0  0  0  0  0
   -5.4842   -1.7479    2.3764 H   0  0  0  0  0  0  0  0  0  0  0  0
   -4.0959   -0.7929    2.8250 H   0  0  0  0  0  0  0  0  0  0  0  0
   -2.8004    0.7132    2.0447 H   0  0  0  0  0  0  0  0  0  0  0  0
   -0.7809    1.6648    1.0983 H   0  0  0  0  0  0  0  0  0  0  0  0
    0.1549    1.6436   -2.2900 H   0  0  0  0  0  0  0  0  0  0  0  0
    7.9823    2.2239   -1.5435 H   0  0  0  0  0  0  0  0  0  0  0  0
   10.4399    1.7366   -0.4349 H   0  0  0  0  0  0  0  0  0  0  0  0
    9.8797    0.2930    1.8539 H   0  0  0  0  0  0  0  0  0  0  0  0
   -1.3301   -0.6562   -2.4946 H   0  0  0  0  0  0  0  0  0  0  0  0
   -3.3264   -3.8613   -1.6165 H   0  0  0  0  0  0  0  0  0  0  0  0
   -1.7935   -3.0074   -1.7856 H   0  0  0  0  0  0  0  0  0  0  0  0
   -2.4723   -4.0215   -3.9651 H   0  0  0  0  0  0  0  0  0  0  0  0
   -4.0220   -3.1437   -3.9042 H   0  0  0  0  0  0  0  0  0  0  0  0
   -2.5212   -2.2464   -4.0979 H   0  0  0  0  0  0  0  0  0  0  0  0
  1  2  1  0
  2  3  1  0
  3  4  1  0
  4  5  1  0
  5  6  2  0
  6  7  1  0
  7  8  2  0
  8  9  1  0
  9 10  2  3
 10 11  1  0
 11 12  1  0
 12 13  2  0
 13 14  1  0
 14 15  1  0
 15 16  2  0
 16 17  1  0
 17 18  2  0
 18 19  1  0
 14 20  2  0
 20 21  1  0
 21 22  1  0
 22 23  2  0
  8 24  1  0
 24 25  2  0
 25 26  1  0
 26 27  1  0
 27 28  1  0
 25  5  1  0
 22 10  1  0
 21 12  1  0
 19 15  1  0
  1 29  1  0
  1 30  1  0
  1 31  1  0
  2 32  1  0
  2 33  1  0
  3 34  1  0
  3 35  1  0
  6 36  1  0
  7 37  1  0
  9 38  1  0
 16 39  1  0
 17 40  1  0
 18 41  1  0
 24 42  1  0
 27 43  1  0
 27 44  1  0
 28 45  1  0
 28 46  1  0
 28 47  1  0
M  END
$$$$
