
     RDKit          3D

 50 52  0  0  0  0  0  0  0  0999 V2000
    7.9879   -1.8544    2.9381 C   0  0  0  0  0  0  0  0  0  0  0  0
    7.4203   -1.2276    4.1192 N   0  0  0  0  0  0  0  0  0  0  0  0
    6.6804    0.2694    4.0210 S   0  0  0  0  0  6  0  0  0  0  0  0
    7.6089    1.1890    3.4010 O   0  0  0  0  0  0  0  0  0  0  0  0
    6.0943    0.5293    5.3166 O   0  0  0  0  0  0  0  0  0  0  0  0
    5.3525   -0.0350    2.8798 C   0  0  0  0  0  0  0  0  0  0  0  0
    5.4107    0.4863    1.5827 C   0  0  0  0  0  0  0  0  0  0  0  0
    4.3622    0.2388    0.6919 C   0  0  0  0  0  0  0  0  0  0  0  0
    3.2576   -0.5213    1.1035 C   0  0  0  0  0  0  0  0  0  0  0  0
    2.1314   -0.8287    0.1801 C   0  0  0  0  0  0  0  0  0  0  0  0
    1.4784   -1.8554    0.3247 O   0  0  0  0  0  0  0  0  0  0  0  0
    1.8696    0.1103   -0.7971 N   0  0  0  0  0  0  0  0  0  0  0  0
    0.6456    0.0141   -1.5732 C   0  0  0  0  0  0  0  0  0  0  0  0
   -0.4454    0.8532   -0.9050 C   0  0  0  0  0  0  0  0  0  0  0  0
   -0.1907    1.8550   -0.2382 O   0  0  0  0  0  0  0  0  0  0  0  0
   -1.7302    0.4290   -1.1593 N   0  0  0  0  0  0  0  0  0  0  0  0
   -2.8740    1.1288   -0.5984 C   0  0  0  0  0  0  0  0  0  0  0  0
   -4.2095    0.4804   -0.9764 C   0  0  0  0  0  0  0  0  0  0  0  0
   -5.3653    1.2104   -0.2969 C   0  0  0  0  0  0  0  0  0  0  0  0
   -6.6105    0.5637   -0.5873 O   0  0  0  0  0  0  0  0  0  0  0  0
   -6.7263    0.2843   -1.9248 C   0  0  0  0  0  0  0  0  0  0  0  0
   -8.0024   -0.0228   -2.3930 C   0  0  0  0  0  0  0  0  0  0  0  0
   -8.2007   -0.2947   -3.7499 C   0  0  0  0  0  0  0  0  0  0  0  0
   -7.1211   -0.2601   -4.6336 C   0  0  0  0  0  0  0  0  0  0  0  0
   -5.8394    0.0331   -4.1606 C   0  0  0  0  0  0  0  0  0  0  0  0
   -5.6401    0.2900   -2.8049 C   0  0  0  0  0  0  0  0  0  0  0  0
   -4.3525    0.5463   -2.4079 O   0  0  0  0  0  0  0  0  0  0  0  0
    3.2106   -1.0390    2.4067 C   0  0  0  0  0  0  0  0  0  0  0  0
    4.2524   -0.7882    3.3016 C   0  0  0  0  0  0  0  0  0  0  0  0
    8.8504   -2.4574    3.2340 H   0  0  0  0  0  0  0  0  0  0  0  0
    7.2515   -2.5143    2.4736 H   0  0  0  0  0  0  0  0  0  0  0  0
    8.3299   -1.1200    2.2055 H   0  0  0  0  0  0  0  0  0  0  0  0
    7.1562   -1.7956    4.9221 H   0  0  0  0  0  0  0  0  0  0  0  0
    6.2661    1.0774    1.2578 H   0  0  0  0  0  0  0  0  0  0  0  0
    4.4303    0.6227   -0.3236 H   0  0  0  0  0  0  0  0  0  0  0  0
    2.1874    1.0570   -0.6182 H   0  0  0  0  0  0  0  0  0  0  0  0
    0.3287   -1.0282   -1.6690 H   0  0  0  0  0  0  0  0  0  0  0  0
    0.8426    0.4314   -2.5645 H   0  0  0  0  0  0  0  0  0  0  0  0
   -1.8851   -0.4387   -1.6629 H   0  0  0  0  0  0  0  0  0  0  0  0
   -2.7484    1.1467    0.4910 H   0  0  0  0  0  0  0  0  0  0  0  0
   -2.8259    2.1626   -0.9631 H   0  0  0  0  0  0  0  0  0  0  0  0
   -4.2038   -0.5815   -0.6932 H   0  0  0  0  0  0  0  0  0  0  0  0
   -5.4340    2.2579   -0.6214 H   0  0  0  0  0  0  0  0  0  0  0  0
   -5.2412    1.2014    0.7917 H   0  0  0  0  0  0  0  0  0  0  0  0
   -8.8418   -0.0396   -1.7044 H   0  0  0  0  0  0  0  0  0  0  0  0
   -9.1983   -0.5213   -4.1196 H   0  0  0  0  0  0  0  0  0  0  0  0
   -7.2762   -0.4629   -5.6913 H   0  0  0  0  0  0  0  0  0  0  0  0
   -4.9980    0.0522   -4.8474 H   0  0  0  0  0  0  0  0  0  0  0  0
    2.3549   -1.6330    2.7264 H   0  0  0  0  0  0  0  0  0  0  0  0
    4.1999   -1.1791    4.3159 H   0  0  0  0  0  0  0  0  0  0  0  0
  1  2  1  0
  2  3  1  0
  3  4  2  0
  3  5  2  0
  3  6  1  0
  6  7  2  0
  7  8  1  0
  8  9  2  0
  9 10  1  0
 10 11  2  0
 10 12  1  0
 12 13  1  0
 13 14  1  0
 14 15  2  0
 14 16  1  0
 16 17  1  0
 17 18  1  0
 18 19  1  0
 19 20  1  0
 20 21  1  0
 21 22  2  0
 22 23  1  0
 23 24  2  0
 24 25  1  0
 25 26  2  0
 26 27  1  0
  9 28  1  0
 28 29  2  0
 29  6  1  0
 27 18  1  0
 26 21  1  0
  1 30  1  0
  1 31  1  0
  1 32  1  0
  2 33  1  0
  7 34  1  0
  8 35  1  0
 12 36  1  0
 13 37  1  0
 13 38  1  0
 16 39  1  0
 17 40  1  0
 17 41  1  0
 18 42  1  0
 19 43  1  0
 19 44  1  0
 22 45  1  0
 23 46  1  0
 24 47  1  0
 25 48  1  0
 28 49  1  0
 29 50  1  0
M  END
$$$$
