
     RDKit          3D

 59 62  0  0  0  0  0  0  0  0999 V2000
    9.4424    1.0743   -1.9266 C   0  0  0  0  0  0  0  0  0  0  0  0
    8.1042    0.7291   -1.3452 C   0  0  0  0  0  0  0  0  0  0  0  0
    7.7531    1.1313   -0.0518 C   0  0  0  0  0  0  0  0  0  0  0  0
    6.4975    0.8131    0.4805 C   0  0  0  0  0  0  0  0  0  0  0  0
    5.5723    0.0819   -0.2729 C   0  0  0  0  0  0  0  0  0  0  0  0
    4.2746   -0.2562    0.2236 N   0  0  0  0  0  0  0  0  0  0  0  0
    3.3072   -0.6155   -0.6657 N   0  0  0  0  0  0  0  0  0  0  0  0
    2.1791   -0.6535    0.0466 C   0  0  0  0  0  0  0  0  0  0  0  0
    0.8410   -0.9289   -0.4626 C   0  0  0  0  0  0  0  0  0  0  0  0
    0.5880   -1.1170   -1.6513 O   0  0  0  0  0  0  0  0  0  0  0  0
   -0.1233   -0.9979    0.5635 N   0  0  0  0  0  0  0  0  0  0  0  0
   -1.5165   -1.2020    0.2016 C   0  0  0  0  0  0  0  0  0  0  0  0
   -2.2553    0.1343    0.1140 C   0  0  0  0  0  0  0  0  0  0  0  0
   -1.7238    1.1949   -0.2064 O   0  0  0  0  0  0  0  0  0  0  0  0
   -3.6074    0.0366    0.3993 N   0  0  0  0  0  0  0  0  0  0  0  0
   -4.4513    1.2180    0.4033 C   0  0  0  0  0  0  0  0  0  0  0  0
   -5.8920    0.9389    0.8440 C   0  0  0  0  0  0  0  0  0  0  0  0
   -6.6490    0.0046   -0.0756 C   0  0  0  0  0  0  0  0  0  0  0  0
   -6.7297   -1.3577    0.2649 C   0  0  0  0  0  0  0  0  0  0  0  0
   -7.3891   -2.2680   -0.5613 C   0  0  0  0  0  0  0  0  0  0  0  0
   -7.9832   -1.8310   -1.7409 C   0  0  0  0  0  0  0  0  0  0  0  0
   -7.9232   -0.4843   -2.0878 C   0  0  0  0  0  0  0  0  0  0  0  0
   -7.2647    0.4483   -1.2658 C   0  0  0  0  0  0  0  0  0  0  0  0
   -7.2489    1.8947   -1.6930 C   0  0  0  0  0  0  0  0  0  0  0  0
    0.1232   -0.7748    1.9259 N   0  0  0  0  0  0  0  0  0  0  0  0
    1.3232   -0.4913    2.3500 C   0  0  0  0  0  0  0  0  0  0  0  0
    1.5165   -0.2242    3.8156 C   0  0  0  0  0  0  0  0  0  0  0  0
    2.4157   -0.4489    1.4109 C   0  0  0  0  0  0  0  0  0  0  0  0
    3.7862   -0.2964    1.5354 C   0  0  0  0  0  0  0  0  0  0  0  0
    4.6341   -0.2537    2.7549 C   0  0  0  0  0  0  0  0  0  0  0  0
    5.9153   -0.2920   -1.5828 C   0  0  0  0  0  0  0  0  0  0  0  0
    7.1720    0.0239   -2.1096 C   0  0  0  0  0  0  0  0  0  0  0  0
    9.9531    0.1662   -2.2674 H   0  0  0  0  0  0  0  0  0  0  0  0
   10.0884    1.5617   -1.1881 H   0  0  0  0  0  0  0  0  0  0  0  0
    9.3180    1.7573   -2.7727 H   0  0  0  0  0  0  0  0  0  0  0  0
    8.4487    1.7126    0.5481 H   0  0  0  0  0  0  0  0  0  0  0  0
    6.2606    1.2085    1.4613 H   0  0  0  0  0  0  0  0  0  0  0  0
   -1.9745   -1.8442    0.9616 H   0  0  0  0  0  0  0  0  0  0  0  0
   -1.6003   -1.7031   -0.7681 H   0  0  0  0  0  0  0  0  0  0  0  0
   -3.9444   -0.8013    0.8601 H   0  0  0  0  0  0  0  0  0  0  0  0
   -3.9987    1.9418    1.0910 H   0  0  0  0  0  0  0  0  0  0  0  0
   -4.4102    1.6553   -0.5985 H   0  0  0  0  0  0  0  0  0  0  0  0
   -5.8847    0.5188    1.8575 H   0  0  0  0  0  0  0  0  0  0  0  0
   -6.4376    1.8860    0.9316 H   0  0  0  0  0  0  0  0  0  0  0  0
   -6.2786   -1.7226    1.1841 H   0  0  0  0  0  0  0  0  0  0  0  0
   -7.4388   -3.3175   -0.2863 H   0  0  0  0  0  0  0  0  0  0  0  0
   -8.4939   -2.5374   -2.3916 H   0  0  0  0  0  0  0  0  0  0  0  0
   -8.3986   -0.1581   -3.0119 H   0  0  0  0  0  0  0  0  0  0  0  0
   -6.2263    2.2327   -1.8847 H   0  0  0  0  0  0  0  0  0  0  0  0
   -7.8172    2.0461   -2.6203 H   0  0  0  0  0  0  0  0  0  0  0  0
   -7.7079    2.5251   -0.9221 H   0  0  0  0  0  0  0  0  0  0  0  0
    2.1485    0.6567    3.9622 H   0  0  0  0  0  0  0  0  0  0  0  0
    0.5510   -0.0400    4.2959 H   0  0  0  0  0  0  0  0  0  0  0  0
    1.9799   -1.0946    4.2883 H   0  0  0  0  0  0  0  0  0  0  0  0
    4.7724    0.7740    3.0955 H   0  0  0  0  0  0  0  0  0  0  0  0
    4.1756   -0.8177    3.5716 H   0  0  0  0  0  0  0  0  0  0  0  0
    5.6071   -0.7217    2.5893 H   0  0  0  0  0  0  0  0  0  0  0  0
    5.2105   -0.8349   -2.2125 H   0  0  0  0  0  0  0  0  0  0  0  0
    7.4100   -0.2802   -3.1269 H   0  0  0  0  0  0  0  0  0  0  0  0
  1  2  1  0
  2  3  2  0
  3  4  1  0
  4  5  2  0
  5  6  1  0
  6  7  1  0
  7  8  2  0
  8  9  1  0
  9 10  2  0
  9 11  1  0
 11 12  1  0
 12 13  1  0
 13 14  2  0
 13 15  1  0
 15 16  1  0
 16 17  1  0
 17 18  1  0
 18 19  2  0
 19 20  1  0
 20 21  2  0
 21 22  1  0
 22 23  2  0
 23 24  1  0
 11 25  1  0
 25 26  2  0
 26 27  1  0
 26 28  1  0
 28 29  2  0
 29 30  1  0
  5 31  1  0
 31 32  2  0
 32  2  1  0
 29  6  1  0
 28  8  1  0
 23 18  1  0
  1 33  1  0
  1 34  1  0
  1 35  1  0
  3 36  1  0
  4 37  1  0
 12 38  1  0
 12 39  1  0
 15 40  1  0
 16 41  1  0
 16 42  1  0
 17 43  1  0
 17 44  1  0
 19 45  1  0
 20 46  1  0
 21 47  1  0
 22 48  1  0
 24 49  1  0
 24 50  1  0
 24 51  1  0
 27 52  1  0
 27 53  1  0
 27 54  1  0
 30 55  1  0
 30 56  1  0
 30 57  1  0
 31 58  1  0
 32 59  1  0
M  END
$$$$
