
     RDKit          3D

 32 34  0  0  0  0  0  0  0  0999 V2000
   -0.0475    1.4943   -2.6088 O   0  0  0  0  0  0  0  0  0  0  0  0
   -0.5761    1.6850   -1.5181 C   0  0  0  0  0  0  0  0  0  0  0  0
   -2.0053    2.2333   -1.4334 C   0  0  0  0  0  0  0  0  0  0  0  0
   -2.6918    1.9028   -0.2323 O   0  0  0  0  0  0  0  0  0  0  0  0
   -3.2557    0.6599   -0.1351 C   0  0  0  0  0  0  0  0  0  0  0  0
   -3.1313   -0.3787   -1.0620 C   0  0  0  0  0  0  0  0  0  0  0  0
   -3.7540   -1.6078   -0.8212 C   0  0  0  0  0  0  0  0  0  0  0  0
   -4.4932   -1.7931    0.3408 C   0  0  0  0  0  0  0  0  0  0  0  0
   -5.0872   -2.9720    0.5651 F   0  0  0  0  0  0  0  0  0  0  0  0
   -4.6222   -0.7719    1.2718 C   0  0  0  0  0  0  0  0  0  0  0  0
   -4.0008    0.4545    1.0323 C   0  0  0  0  0  0  0  0  0  0  0  0
   -0.0159    1.4941   -0.2759 N   0  0  0  0  0  0  0  0  0  0  0  0
    1.2416    1.0298    0.0080 C   0  0  0  0  0  0  0  0  0  0  0  0
    1.6561    0.8436    1.2427 N   0  0  0  0  0  0  0  0  0  0  0  0
    2.9559    0.3755    1.2902 N   0  0  0  0  0  0  0  0  0  0  0  0
    3.4553    0.2268    0.0838 C   0  0  0  0  0  0  0  0  0  0  0  0
    4.9094   -0.2811   -0.1589 C   0  0  0  0  0  0  0  0  0  0  0  0
    5.1244   -1.6538   -0.7445 C   0  0  0  0  0  0  0  0  0  0  0  0
    5.4506   -1.3976    0.6977 C   0  0  0  0  0  0  0  0  0  0  0  0
    2.3988    0.6579   -1.1869 S   0  0  0  0  0  0  0  0  0  0  0  0
   -2.5802    1.9417   -2.3199 H   0  0  0  0  0  0  0  0  0  0  0  0
   -1.9200    3.3259   -1.4609 H   0  0  0  0  0  0  0  0  0  0  0  0
   -2.5588   -0.2781   -1.9788 H   0  0  0  0  0  0  0  0  0  0  0  0
   -3.6644   -2.4224   -1.5336 H   0  0  0  0  0  0  0  0  0  0  0  0
   -5.2021   -0.9346    2.1744 H   0  0  0  0  0  0  0  0  0  0  0  0
   -4.1010    1.2562    1.7605 H   0  0  0  0  0  0  0  0  0  0  0  0
   -0.5965    1.6480    0.5409 H   0  0  0  0  0  0  0  0  0  0  0  0
    5.6061    0.5004   -0.4427 H   0  0  0  0  0  0  0  0  0  0  0  0
    5.9478   -1.7845   -1.4371 H   0  0  0  0  0  0  0  0  0  0  0  0
    4.2607   -2.2720   -0.9627 H   0  0  0  0  0  0  0  0  0  0  0  0
    6.4942   -1.3515    0.9865 H   0  0  0  0  0  0  0  0  0  0  0  0
    4.8030   -1.8307    1.4526 H   0  0  0  0  0  0  0  0  0  0  0  0
  1  2  2  0
  2  3  1  0
  3  4  1  0
  4  5  1  0
  5  6  2  0
  6  7  1  0
  7  8  2  0
  8  9  1  0
  8 10  1  0
 10 11  2  0
  2 12  1  0
 12 13  1  0
 13 14  2  0
 14 15  1  0
 15 16  2  0
 16 17  1  0
 17 18  1  0
 18 19  1  0
 16 20  1  0
 11  5  1  0
 20 13  1  0
 19 17  1  0
  3 21  1  0
  3 22  1  0
  6 23  1  0
  7 24  1  0
 10 25  1  0
 11 26  1  0
 12 27  1  0
 17 28  1  0
 18 29  1  0
 18 30  1  0
 19 31  1  0
 19 32  1  0
M  END
$$$$
