
     RDKit          3D

 49 53  0  0  0  0  0  0  0  0999 V2000
    3.5251    3.0862    1.4843 C   0  0  0  0  0  0  0  0  0  0  0  0
    3.4151    1.5961    1.5803 C   0  0  0  0  0  0  0  0  0  0  0  0
    4.2775    0.7739    2.8009 S   0  0  0  0  0  0  0  0  0  0  0  0
    3.6730   -0.7341    2.3132 C   0  0  0  0  0  0  0  0  0  0  0  0
    4.0441   -1.8433    2.9746 N   0  0  0  0  0  0  0  0  0  0  0  0
    3.4910   -2.9468    2.4811 C   0  0  0  0  0  0  0  0  0  0  0  0
    2.6379   -3.0330    1.4556 N   0  0  0  0  0  0  0  0  0  0  0  0
    2.2943   -1.8959    0.8154 C   0  0  0  0  0  0  0  0  0  0  0  0
    1.1930   -2.0625   -0.5564 S   0  0  0  0  0  0  0  0  0  0  0  0
   -0.4039   -2.1950    0.3487 C   0  0  0  0  0  0  0  0  0  0  0  0
   -0.6090   -3.6159    0.8641 C   0  0  0  0  0  0  0  0  0  0  0  0
   -1.5297   -1.8216   -0.6392 C   0  0  0  0  0  0  0  0  0  0  0  0
   -2.1291   -2.6707   -1.3047 O   0  0  0  0  0  0  0  0  0  0  0  0
   -1.7600   -0.4384   -0.7458 N   0  0  0  0  0  0  0  0  0  0  0  0
   -2.3759    0.2603    0.3573 C   0  0  0  0  0  0  0  0  0  0  0  0
   -2.9462   -0.4857    1.4166 C   0  0  0  0  0  0  0  0  0  0  0  0
   -3.5417    0.1299    2.5213 C   0  0  0  0  0  0  0  0  0  0  0  0
   -3.5967    1.5113    2.5929 C   0  0  0  0  0  0  0  0  0  0  0  0
   -3.0703    2.2705    1.5513 C   0  0  0  0  0  0  0  0  0  0  0  0
   -2.4750    1.6566    0.4316 C   0  0  0  0  0  0  0  0  0  0  0  0
   -1.8653    2.7490   -0.8169 S   0  0  0  0  0  0  0  0  0  0  0  0
   -1.6302    1.6231   -2.1637 C   0  0  0  0  0  0  0  0  0  0  0  0
   -1.4171    2.2214   -3.4224 C   0  0  0  0  0  0  0  0  0  0  0  0
   -1.1284    1.4517   -4.5431 C   0  0  0  0  0  0  0  0  0  0  0  0
   -1.0358    0.0760   -4.4107 C   0  0  0  0  0  0  0  0  0  0  0  0
   -1.2452   -0.5233   -3.1647 C   0  0  0  0  0  0  0  0  0  0  0  0
   -1.5679    0.2280   -2.0125 C   0  0  0  0  0  0  0  0  0  0  0  0
    2.8155   -0.6553    1.2231 C   0  0  0  0  0  0  0  0  0  0  0  0
    2.6858    0.7285    0.7767 C   0  0  0  0  0  0  0  0  0  0  0  0
    1.8669    1.1804   -0.3921 C   0  0  0  0  0  0  0  0  0  0  0  0
    2.5274    3.5394    1.4951 H   0  0  0  0  0  0  0  0  0  0  0  0
    4.0883    3.5177    2.3160 H   0  0  0  0  0  0  0  0  0  0  0  0
    4.0268    3.3722    0.5540 H   0  0  0  0  0  0  0  0  0  0  0  0
    3.7580   -3.8815    2.9668 H   0  0  0  0  0  0  0  0  0  0  0  0
   -0.3940   -1.4952    1.1895 H   0  0  0  0  0  0  0  0  0  0  0  0
    0.1008   -3.8642    1.6593 H   0  0  0  0  0  0  0  0  0  0  0  0
   -0.5062   -4.3618    0.0671 H   0  0  0  0  0  0  0  0  0  0  0  0
   -1.6144   -3.7290    1.2846 H   0  0  0  0  0  0  0  0  0  0  0  0
   -2.9756   -1.5727    1.3980 H   0  0  0  0  0  0  0  0  0  0  0  0
   -3.9709   -0.4726    3.3167 H   0  0  0  0  0  0  0  0  0  0  0  0
   -4.0605    1.9963    3.4485 H   0  0  0  0  0  0  0  0  0  0  0  0
   -3.1337    3.3563    1.6156 H   0  0  0  0  0  0  0  0  0  0  0  0
   -1.4642    3.3026   -3.5349 H   0  0  0  0  0  0  0  0  0  0  0  0
   -0.9683    1.9208   -5.5103 H   0  0  0  0  0  0  0  0  0  0  0  0
   -0.8032   -0.5406   -5.2748 H   0  0  0  0  0  0  0  0  0  0  0  0
   -1.1585   -1.6070   -3.1357 H   0  0  0  0  0  0  0  0  0  0  0  0
    1.9616    2.2543   -0.5751 H   0  0  0  0  0  0  0  0  0  0  0  0
    2.1826    0.6710   -1.3091 H   0  0  0  0  0  0  0  0  0  0  0  0
    0.8122    0.9723   -0.2035 H   0  0  0  0  0  0  0  0  0  0  0  0
  1  2  1  0
  2  3  1  0
  3  4  1  0
  4  5  2  0
  5  6  1  0
  6  7  2  0
  7  8  1  0
  8  9  1  0
  9 10  1  0
 10 11  1  0
 10 12  1  0
 12 13  2  0
 12 14  1  0
 14 15  1  0
 15 16  2  0
 16 17  1  0
 17 18  2  0
 18 19  1  0
 19 20  2  0
 20 21  1  0
 21 22  1  0
 22 23  2  0
 23 24  1  0
 24 25  2  0
 25 26  1  0
 26 27  2  0
  8 28  2  0
 28 29  1  0
 29 30  1  0
 29  2  2  0
 28  4  1  0
 27 14  1  0
 20 15  1  0
 27 22  1  0
  1 31  1  0
  1 32  1  0
  1 33  1  0
  6 34  1  0
 10 35  1  0
 11 36  1  0
 11 37  1  0
 11 38  1  0
 16 39  1  0
 17 40  1  0
 18 41  1  0
 19 42  1  0
 23 43  1  0
 24 44  1  0
 25 45  1  0
 26 46  1  0
 30 47  1  0
 30 48  1  0
 30 49  1  0
M  END
$$$$
