
     RDKit          3D

 35 36  0  0  0  0  0  0  0  0999 V2000
    5.8047    0.8512   -0.6115 C   0  0  0  0  0  0  0  0  0  0  0  0
    4.7454    0.0997    0.1376 C   0  0  0  0  0  0  0  0  0  0  0  0
    5.0807   -1.0337    0.8674 C   0  0  0  0  0  0  0  0  0  0  0  0
    4.0737   -1.7037    1.5502 C   0  0  0  0  0  0  0  0  0  0  0  0
    2.7669   -1.2267    1.4862 C   0  0  0  0  0  0  0  0  0  0  0  0
    2.5106   -0.0896    0.7367 C   0  0  0  0  0  0  0  0  0  0  0  0
    1.2523    0.4924    0.5889 N   0  0  0  0  0  0  0  0  0  0  0  0
    0.0491    0.0853    1.1282 C   0  0  0  0  0  0  0  0  0  0  0  0
   -0.1137   -0.8911    1.8534 O   0  0  0  0  0  0  0  0  0  0  0  0
   -1.1020    1.0171    0.7192 C   0  0  0  0  0  0  0  0  0  0  0  0
   -2.3926    0.6008    1.1545 O   0  0  0  0  0  0  0  0  0  0  0  0
   -3.0743   -0.0224    0.1424 C   0  0  0  0  0  0  0  0  0  0  0  0
   -2.8488   -1.3788   -0.0956 C   0  0  0  0  0  0  0  0  0  0  0  0
   -3.5439   -2.0276   -1.1144 C   0  0  0  0  0  0  0  0  0  0  0  0
   -4.4700   -1.3234   -1.8818 C   0  0  0  0  0  0  0  0  0  0  0  0
   -4.7144    0.0274   -1.6222 C   0  0  0  0  0  0  0  0  0  0  0  0
   -4.0301    0.6905   -0.5942 C   0  0  0  0  0  0  0  0  0  0  0  0
   -4.3019    2.1393   -0.3163 C   0  0  0  0  0  0  0  0  0  0  0  0
    3.4781    0.5744    0.0664 N   0  0  0  0  0  0  0  0  0  0  0  0
    5.3771    1.7162   -1.1283 H   0  0  0  0  0  0  0  0  0  0  0  0
    6.2702    0.2029   -1.3603 H   0  0  0  0  0  0  0  0  0  0  0  0
    6.5727    1.2124    0.0800 H   0  0  0  0  0  0  0  0  0  0  0  0
    6.1043   -1.3915    0.9071 H   0  0  0  0  0  0  0  0  0  0  0  0
    4.2998   -2.5933    2.1316 H   0  0  0  0  0  0  0  0  0  0  0  0
    1.9890   -1.7556    2.0229 H   0  0  0  0  0  0  0  0  0  0  0  0
    1.2892    1.3130   -0.0005 H   0  0  0  0  0  0  0  0  0  0  0  0
   -1.0634    1.1828   -0.3668 H   0  0  0  0  0  0  0  0  0  0  0  0
   -0.9100    1.9854    1.1969 H   0  0  0  0  0  0  0  0  0  0  0  0
   -2.1426   -1.9333    0.5165 H   0  0  0  0  0  0  0  0  0  0  0  0
   -3.3682   -3.0828   -1.3035 H   0  0  0  0  0  0  0  0  0  0  0  0
   -5.0136   -1.8299   -2.6755 H   0  0  0  0  0  0  0  0  0  0  0  0
   -5.4510    0.5558   -2.2229 H   0  0  0  0  0  0  0  0  0  0  0  0
   -5.1970    2.4861   -0.8433 H   0  0  0  0  0  0  0  0  0  0  0  0
   -3.4553    2.7496   -0.6447 H   0  0  0  0  0  0  0  0  0  0  0  0
   -4.4709    2.3010    0.7534 H   0  0  0  0  0  0  0  0  0  0  0  0
  1  2  1  0
  2  3  2  0
  3  4  1  0
  4  5  2  0
  5  6  1  0
  6  7  1  0
  7  8  1  0
  8  9  2  0
  8 10  1  0
 10 11  1  0
 11 12  1  0
 12 13  2  0
 13 14  1  0
 14 15  2  0
 15 16  1  0
 16 17  2  0
 17 18  1  0
  6 19  2  0
 19  2  1  0
 17 12  1  0
  1 20  1  0
  1 21  1  0
  1 22  1  0
  3 23  1  0
  4 24  1  0
  5 25  1  0
  7 26  1  0
 10 27  1  0
 10 28  1  0
 13 29  1  0
 14 30  1  0
 15 31  1  0
 16 32  1  0
 18 33  1  0
 18 34  1  0
 18 35  1  0
M  END
$$$$
