
     RDKit          3D

 51 53  0  0  0  0  0  0  0  0999 V2000
    9.6002    0.8726    1.9622 C   0  0  0  0  0  0  0  0  0  0  0  0
    8.1814    0.8302    1.8719 O   0  0  0  0  0  0  0  0  0  0  0  0
    7.6502    0.3190    0.7194 C   0  0  0  0  0  0  0  0  0  0  0  0
    8.3700   -0.1590   -0.3734 C   0  0  0  0  0  0  0  0  0  0  0  0
    7.6927   -0.6545   -1.4894 C   0  0  0  0  0  0  0  0  0  0  0  0
    6.2957   -0.6757   -1.5196 C   0  0  0  0  0  0  0  0  0  0  0  0
    5.5639   -0.2006   -0.4323 C   0  0  0  0  0  0  0  0  0  0  0  0
    4.1595   -0.1861   -0.3821 N   0  0  0  0  0  0  0  0  0  0  0  0
    3.2723   -0.6211   -1.3436 C   0  0  0  0  0  0  0  0  0  0  0  0
    3.4972   -1.1136   -2.4402 O   0  0  0  0  0  0  0  0  0  0  0  0
    1.8061   -0.4316   -0.9065 C   0  0  0  0  0  0  0  0  0  0  0  0
    1.5745    0.0406    0.1992 O   0  0  0  0  0  0  0  0  0  0  0  0
    0.9152   -0.8567   -1.8761 N   0  0  0  0  0  0  0  0  0  0  0  0
   -0.4485   -0.9541   -1.7744 N   0  0  0  0  0  0  0  0  0  0  0  0
   -1.0777   -0.2499   -0.8899 C   0  0  0  0  0  0  0  0  0  0  0  0
   -2.5207   -0.3988   -0.7876 C   0  0  0  0  0  0  0  0  0  0  0  0
   -3.3559   -1.2301   -1.5710 C   0  0  0  0  0  0  0  0  0  0  0  0
   -4.6618   -1.0593   -1.1585 C   0  0  0  0  0  0  0  0  0  0  0  0
   -5.8778   -1.6634   -1.7760 C   0  0  0  0  0  0  0  0  0  0  0  0
   -4.6651   -0.1370   -0.1168 N   0  0  0  0  0  0  0  0  0  0  0  0
   -5.8197    0.3443    0.5684 C   0  0  0  0  0  0  0  0  0  0  0  0
   -5.9691    1.7146    0.8133 C   0  0  0  0  0  0  0  0  0  0  0  0
   -7.1046    2.1860    1.4779 C   0  0  0  0  0  0  0  0  0  0  0  0
   -8.0938    1.2947    1.9028 C   0  0  0  0  0  0  0  0  0  0  0  0
   -9.4692    1.9495    2.7172 Cl  0  0  0  0  0  0  0  0  0  0  0  0
   -7.9453   -0.0753    1.6605 C   0  0  0  0  0  0  0  0  0  0  0  0
   -9.1217   -1.2365    2.1654 Cl  0  0  0  0  0  0  0  0  0  0  0  0
   -6.8103   -0.5499    0.9930 C   0  0  0  0  0  0  0  0  0  0  0  0
   -3.3443    0.2458    0.1299 C   0  0  0  0  0  0  0  0  0  0  0  0
   -2.9359    1.1329    1.2636 C   0  0  0  0  0  0  0  0  0  0  0  0
    6.2514    0.2951    0.6824 C   0  0  0  0  0  0  0  0  0  0  0  0
   10.0290   -0.1339    1.9175 H   0  0  0  0  0  0  0  0  0  0  0  0
   10.0259    1.5196    1.1880 H   0  0  0  0  0  0  0  0  0  0  0  0
    9.8603    1.3020    2.9345 H   0  0  0  0  0  0  0  0  0  0  0  0
    9.4546   -0.1611   -0.3914 H   0  0  0  0  0  0  0  0  0  0  0  0
    8.2540   -1.0278   -2.3428 H   0  0  0  0  0  0  0  0  0  0  0  0
    5.8122   -1.0698   -2.4079 H   0  0  0  0  0  0  0  0  0  0  0  0
    3.7225    0.1813    0.4611 H   0  0  0  0  0  0  0  0  0  0  0  0
    1.3219   -1.3350   -2.6817 H   0  0  0  0  0  0  0  0  0  0  0  0
   -0.6021    0.4833   -0.2232 H   0  0  0  0  0  0  0  0  0  0  0  0
   -3.0324   -1.8735   -2.3812 H   0  0  0  0  0  0  0  0  0  0  0  0
   -5.6567   -2.0122   -2.7911 H   0  0  0  0  0  0  0  0  0  0  0  0
   -6.2158   -2.5298   -1.2002 H   0  0  0  0  0  0  0  0  0  0  0  0
   -6.6944   -0.9399   -1.8586 H   0  0  0  0  0  0  0  0  0  0  0  0
   -5.2358    2.4349    0.4584 H   0  0  0  0  0  0  0  0  0  0  0  0
   -7.2161    3.2538    1.6534 H   0  0  0  0  0  0  0  0  0  0  0  0
   -6.6911   -1.6207    0.8497 H   0  0  0  0  0  0  0  0  0  0  0  0
   -2.9283    2.1800    0.9467 H   0  0  0  0  0  0  0  0  0  0  0  0
   -3.5943    1.0225    2.1304 H   0  0  0  0  0  0  0  0  0  0  0  0
   -1.9289    0.8819    1.6124 H   0  0  0  0  0  0  0  0  0  0  0  0
    5.7066    0.6720    1.5448 H   0  0  0  0  0  0  0  0  0  0  0  0
  1  2  1  0
  2  3  1  0
  3  4  2  0
  4  5  1  0
  5  6  2  0
  6  7  1  0
  7  8  1  0
  8  9  1  0
  9 10  2  0
  9 11  1  0
 11 12  2  0
 11 13  1  0
 13 14  1  0
 14 15  2  3
 15 16  1  0
 16 17  1  0
 17 18  2  0
 18 19  1  0
 18 20  1  0
 20 21  1  0
 21 22  2  0
 22 23  1  0
 23 24  2  0
 24 25  1  0
 24 26  1  0
 26 27  1  0
 26 28  2  0
 20 29  1  0
 29 30  1  0
  7 31  2  0
 31  3  1  0
 29 16  2  0
 28 21  1  0
  1 32  1  0
  1 33  1  0
  1 34  1  0
  4 35  1  0
  5 36  1  0
  6 37  1  0
  8 38  1  0
 13 39  1  0
 15 40  1  0
 17 41  1  0
 19 42  1  0
 19 43  1  0
 19 44  1  0
 22 45  1  0
 23 46  1  0
 28 47  1  0
 30 48  1  0
 30 49  1  0
 30 50  1  0
 31 51  1  0
M  END
$$$$
