
     RDKit          3D

 58 62  0  0  0  0  0  0  0  0999 V2000
   -0.2324    3.0302   -1.8752 O   0  0  0  0  0  0  0  0  0  0  0  0
   -0.5146    2.6736   -0.7325 C   0  0  0  0  0  0  0  0  0  0  0  0
   -1.8345    3.1152   -0.1044 C   0  0  0  0  0  0  0  0  0  0  0  0
   -2.4690    1.9897    1.1802 S   0  0  0  0  0  0  0  0  0  0  0  0
   -3.0816    0.6748    0.1738 C   0  0  0  0  0  0  0  0  0  0  0  0
   -2.4648    0.4809   -0.9433 N   0  0  0  0  0  0  0  0  0  0  0  0
   -2.8066   -0.6223   -1.7227 C   0  0  0  0  0  0  0  0  0  0  0  0
   -2.1548   -0.8102   -2.9439 C   0  0  0  0  0  0  0  0  0  0  0  0
   -2.4475   -1.9185   -3.7423 C   0  0  0  0  0  0  0  0  0  0  0  0
   -3.3954   -2.8497   -3.3213 C   0  0  0  0  0  0  0  0  0  0  0  0
   -4.0497   -2.6716   -2.1022 C   0  0  0  0  0  0  0  0  0  0  0  0
   -3.7485   -1.5567   -1.3095 C   0  0  0  0  0  0  0  0  0  0  0  0
   -4.4317   -1.3231   -0.0228 C   0  0  0  0  0  0  0  0  0  0  0  0
   -5.2684   -2.1467    0.3461 O   0  0  0  0  0  0  0  0  0  0  0  0
   -4.0902   -0.1527    0.6660 N   0  0  0  0  0  0  0  0  0  0  0  0
   -4.8626    0.1673    1.8301 C   0  0  0  0  0  0  0  0  0  0  0  0
   -4.9952   -0.7614    2.8760 C   0  0  0  0  0  0  0  0  0  0  0  0
   -5.7601   -0.4494    4.0038 C   0  0  0  0  0  0  0  0  0  0  0  0
   -6.4064    0.7805    4.0807 C   0  0  0  0  0  0  0  0  0  0  0  0
   -7.1397    1.0726    5.1625 F   0  0  0  0  0  0  0  0  0  0  0  0
   -6.3139    1.7039    3.0483 C   0  0  0  0  0  0  0  0  0  0  0  0
   -5.5499    1.3885    1.9289 C   0  0  0  0  0  0  0  0  0  0  0  0
   -5.5256    2.2613    0.9086 F   0  0  0  0  0  0  0  0  0  0  0  0
    0.3099    1.9570    0.1184 N   0  0  0  0  0  0  0  0  0  0  0  0
    1.5778    1.4123   -0.1537 C   0  0  0  0  0  0  0  0  0  0  0  0
    2.1850    0.6677    0.8574 C   0  0  0  0  0  0  0  0  0  0  0  0
    3.4454    0.0838    0.6609 C   0  0  0  0  0  0  0  0  0  0  0  0
    4.1473    0.2170   -0.5451 C   0  0  0  0  0  0  0  0  0  0  0  0
    5.3862   -0.3643   -0.7376 N   0  0  0  0  0  0  0  0  0  0  0  0
    6.2379   -0.7837    0.3873 C   0  0  0  0  0  0  0  0  0  0  0  0
    7.7167   -0.7678   -0.0321 C   0  0  0  0  0  0  0  0  0  0  0  0
    8.0179   -1.6233   -1.1424 O   0  0  0  0  0  0  0  0  0  0  0  0
    6.9177   -1.7841   -2.0491 C   0  0  0  0  0  0  0  0  0  0  0  0
    5.9457   -0.5915   -2.0804 C   0  0  0  0  0  0  0  0  0  0  0  0
    3.5163    0.9735   -1.5444 C   0  0  0  0  0  0  0  0  0  0  0  0
    2.2549    1.5634   -1.3579 C   0  0  0  0  0  0  0  0  0  0  0  0
   -1.6667    4.0942    0.3551 H   0  0  0  0  0  0  0  0  0  0  0  0
   -2.5878    3.2340   -0.8898 H   0  0  0  0  0  0  0  0  0  0  0  0
   -1.4091   -0.0881   -3.2706 H   0  0  0  0  0  0  0  0  0  0  0  0
   -1.9325   -2.0539   -4.6908 H   0  0  0  0  0  0  0  0  0  0  0  0
   -3.6246   -3.7122   -3.9431 H   0  0  0  0  0  0  0  0  0  0  0  0
   -4.7911   -3.3964   -1.7751 H   0  0  0  0  0  0  0  0  0  0  0  0
   -4.5007   -1.7301    2.8251 H   0  0  0  0  0  0  0  0  0  0  0  0
   -5.8607   -1.1621    4.8185 H   0  0  0  0  0  0  0  0  0  0  0  0
   -6.8407    2.6494    3.1073 H   0  0  0  0  0  0  0  0  0  0  0  0
   -0.0903    1.7360    1.0235 H   0  0  0  0  0  0  0  0  0  0  0  0
    1.6919    0.5200    1.8144 H   0  0  0  0  0  0  0  0  0  0  0  0
    3.8553   -0.5064    1.4760 H   0  0  0  0  0  0  0  0  0  0  0  0
    6.1244   -0.1107    1.2454 H   0  0  0  0  0  0  0  0  0  0  0  0
    5.9481   -1.7964    0.6928 H   0  0  0  0  0  0  0  0  0  0  0  0
    8.0238    0.2483   -0.3056 H   0  0  0  0  0  0  0  0  0  0  0  0
    8.3472   -1.0839    0.8060 H   0  0  0  0  0  0  0  0  0  0  0  0
    7.3358   -1.9555   -3.0464 H   0  0  0  0  0  0  0  0  0  0  0  0
    6.3852   -2.6976   -1.7597 H   0  0  0  0  0  0  0  0  0  0  0  0
    5.1580   -0.8231   -2.8063 H   0  0  0  0  0  0  0  0  0  0  0  0
    6.4745    0.3124   -2.4039 H   0  0  0  0  0  0  0  0  0  0  0  0
    4.0054    1.1478   -2.4989 H   0  0  0  0  0  0  0  0  0  0  0  0
    1.8391    2.1379   -2.1797 H   0  0  0  0  0  0  0  0  0  0  0  0
  1  2  2  0
  2  3  1  0
  3  4  1  0
  4  5  1  0
  5  6  2  0
  6  7  1  0
  7  8  2  0
  8  9  1  0
  9 10  2  0
 10 11  1  0
 11 12  2  0
 12 13  1  0
 13 14  2  0
 13 15  1  0
 15 16  1  0
 16 17  2  0
 17 18  1  0
 18 19  2  0
 19 20  1  0
 19 21  1  0
 21 22  2  0
 22 23  1  0
  2 24  1  0
 24 25  1  0
 25 26  2  0
 26 27  1  0
 27 28  2  0
 28 29  1  0
 29 30  1  0
 30 31  1  0
 31 32  1  0
 32 33  1  0
 33 34  1  0
 28 35  1  0
 35 36  2  0
 15  5  1  0
 22 16  1  0
 36 25  1  0
 12  7  1  0
 34 29  1  0
  3 37  1  0
  3 38  1  0
  8 39  1  0
  9 40  1  0
 10 41  1  0
 11 42  1  0
 17 43  1  0
 18 44  1  0
 21 45  1  0
 24 46  1  0
 26 47  1  0
 27 48  1  0
 30 49  1  0
 30 50  1  0
 31 51  1  0
 31 52  1  0
 33 53  1  0
 33 54  1  0
 34 55  1  0
 34 56  1  0
 35 57  1  0
 36 58  1  0
M  END
$$$$
