
     RDKit          3D

 45 49  0  0  0  0  0  0  0  0999 V2000
    0.6526    1.1470   -1.7698 O   0  0  0  0  0  0  0  0  0  0  0  0
    1.3259    0.4140   -1.0604 C   0  0  0  0  0  0  0  0  0  0  0  0
    0.8775   -0.5346   -0.1850 O   0  0  0  0  0  0  0  0  0  0  0  0
   -0.5129   -0.4827    0.0114 C   0  0  0  0  0  0  0  0  0  0  0  0
   -1.0964    0.3441    0.9145 C   0  0  0  0  0  0  0  0  0  0  0  0
   -0.2649    1.2529    1.7236 C   0  0  0  0  0  0  0  0  0  0  0  0
   -0.1069    2.5907    1.3412 C   0  0  0  0  0  0  0  0  0  0  0  0
    0.7156    3.4413    2.0815 C   0  0  0  0  0  0  0  0  0  0  0  0
    1.3836    2.9612    3.2073 C   0  0  0  0  0  0  0  0  0  0  0  0
    1.2298    1.6310    3.5960 C   0  0  0  0  0  0  0  0  0  0  0  0
    0.4090    0.7777    2.8565 C   0  0  0  0  0  0  0  0  0  0  0  0
   -2.6018    0.3481    1.0991 C   0  0  0  0  0  0  0  0  0  0  0  0
   -3.1544    1.1009    1.8970 O   0  0  0  0  0  0  0  0  0  0  0  0
   -3.2907   -0.5503    0.3270 N   0  0  0  0  0  0  0  0  0  0  0  0
   -2.6718   -1.4077   -0.5639 C   0  0  0  0  0  0  0  0  0  0  0  0
   -3.5894   -2.2217   -1.2072 C   0  0  0  0  0  0  0  0  0  0  0  0
   -3.1379   -3.1451   -2.1284 C   0  0  0  0  0  0  0  0  0  0  0  0
   -1.7564   -3.2161   -2.3713 C   0  0  0  0  0  0  0  0  0  0  0  0
   -0.8462   -2.3704   -1.6982 C   0  0  0  0  0  0  0  0  0  0  0  0
   -1.3085   -1.4382   -0.7696 C   0  0  0  0  0  0  0  0  0  0  0  0
   -4.9768   -1.9081   -0.7360 C   0  0  0  0  0  0  0  0  0  0  0  0
   -4.7340   -0.7768    0.2949 C   0  0  0  0  0  0  0  0  0  0  0  0
    2.8145    0.4246   -1.0694 C   0  0  0  0  0  0  0  0  0  0  0  0
    3.4640    1.1383   -2.0875 C   0  0  0  0  0  0  0  0  0  0  0  0
    4.8600    1.1863   -2.1364 C   0  0  0  0  0  0  0  0  0  0  0  0
    5.6094    0.5255   -1.1649 C   0  0  0  0  0  0  0  0  0  0  0  0
    7.3273    0.5845   -1.2235 Cl  0  0  0  0  0  0  0  0  0  0  0  0
    4.9756   -0.1809   -0.1436 C   0  0  0  0  0  0  0  0  0  0  0  0
    3.5787   -0.2312   -0.0927 C   0  0  0  0  0  0  0  0  0  0  0  0
   -0.6201    2.9748    0.4616 H   0  0  0  0  0  0  0  0  0  0  0  0
    0.8309    4.4793    1.7804 H   0  0  0  0  0  0  0  0  0  0  0  0
    2.0189    3.6270    3.7858 H   0  0  0  0  0  0  0  0  0  0  0  0
    1.7442    1.2603    4.4786 H   0  0  0  0  0  0  0  0  0  0  0  0
    0.2939   -0.2567    3.1714 H   0  0  0  0  0  0  0  0  0  0  0  0
   -3.8254   -3.7997   -2.6546 H   0  0  0  0  0  0  0  0  0  0  0  0
   -1.3777   -3.9352   -3.0954 H   0  0  0  0  0  0  0  0  0  0  0  0
    0.2145   -2.4555   -1.9184 H   0  0  0  0  0  0  0  0  0  0  0  0
   -5.4399   -2.7776   -0.2596 H   0  0  0  0  0  0  0  0  0  0  0  0
   -5.6062   -1.5578   -1.5596 H   0  0  0  0  0  0  0  0  0  0  0  0
   -5.2358    0.1538    0.0077 H   0  0  0  0  0  0  0  0  0  0  0  0
   -5.0756   -1.0558    1.2977 H   0  0  0  0  0  0  0  0  0  0  0  0
    2.8845    1.6619   -2.8467 H   0  0  0  0  0  0  0  0  0  0  0  0
    5.3528    1.7418   -2.9304 H   0  0  0  0  0  0  0  0  0  0  0  0
    5.5613   -0.6897    0.6181 H   0  0  0  0  0  0  0  0  0  0  0  0
    3.1052   -0.7754    0.7212 H   0  0  0  0  0  0  0  0  0  0  0  0
  1  2  2  0
  2  3  1  0
  3  4  1  0
  4  5  2  0
  5  6  1  0
  6  7  2  0
  7  8  1  0
  8  9  2  0
  9 10  1  0
 10 11  2  0
  5 12  1  0
 12 13  2  0
 12 14  1  0
 14 15  1  0
 15 16  2  0
 16 17  1  0
 17 18  2  0
 18 19  1  0
 19 20  2  0
 16 21  1  0
 21 22  1  0
  2 23  1  0
 23 24  2  0
 24 25  1  0
 25 26  2  0
 26 27  1  0
 26 28  1  0
 28 29  2  0
 20  4  1  0
 29 23  1  0
 11  6  1  0
 22 14  1  0
 20 15  1  0
  7 30  1  0
  8 31  1  0
  9 32  1  0
 10 33  1  0
 11 34  1  0
 17 35  1  0
 18 36  1  0
 19 37  1  0
 21 38  1  0
 21 39  1  0
 22 40  1  0
 22 41  1  0
 24 42  1  0
 25 43  1  0
 28 44  1  0
 29 45  1  0
M  END
$$$$
