
     RDKit          3D

 32 34  0  0  0  0  0  0  0  0999 V2000
    0.4691   -1.2407   -2.4043 O   0  0  0  0  0  0  0  0  0  0  0  0
   -0.1589   -0.6760   -1.5134 C   0  0  0  0  0  0  0  0  0  0  0  0
   -1.6875   -0.7706   -1.4698 C   0  0  0  0  0  0  0  0  0  0  0  0
   -2.2178   -0.0519   -0.3584 O   0  0  0  0  0  0  0  0  0  0  0  0
   -3.5772   -0.0554   -0.2092 C   0  0  0  0  0  0  0  0  0  0  0  0
   -4.4932   -0.7044   -1.0417 C   0  0  0  0  0  0  0  0  0  0  0  0
   -5.8628   -0.6244   -0.7704 C   0  0  0  0  0  0  0  0  0  0  0  0
   -6.3084    0.1014    0.3278 C   0  0  0  0  0  0  0  0  0  0  0  0
   -7.6209    0.1745    0.5825 F   0  0  0  0  0  0  0  0  0  0  0  0
   -5.4102    0.7510    1.1633 C   0  0  0  0  0  0  0  0  0  0  0  0
   -4.0433    0.6712    0.8929 C   0  0  0  0  0  0  0  0  0  0  0  0
    0.3576    0.0774   -0.4859 N   0  0  0  0  0  0  0  0  0  0  0  0
    1.6739    0.3594   -0.2338 C   0  0  0  0  0  0  0  0  0  0  0  0
    2.0483    1.0968    0.7897 N   0  0  0  0  0  0  0  0  0  0  0  0
    3.4211    1.2489    0.8470 N   0  0  0  0  0  0  0  0  0  0  0  0
    4.0146    0.6103   -0.1364 C   0  0  0  0  0  0  0  0  0  0  0  0
    5.5630    0.6186   -0.3202 C   0  0  0  0  0  0  0  0  0  0  0  0
    6.4484    0.5044    0.8948 C   0  0  0  0  0  0  0  0  0  0  0  0
    6.3440   -0.6454   -0.0639 C   0  0  0  0  0  0  0  0  0  0  0  0
    2.9580   -0.2024   -1.2038 S   0  0  0  0  0  0  0  0  0  0  0  0
   -2.0615   -0.3450   -2.4082 H   0  0  0  0  0  0  0  0  0  0  0  0
   -1.9403   -1.8340   -1.3872 H   0  0  0  0  0  0  0  0  0  0  0  0
   -4.1815   -1.2800   -1.9072 H   0  0  0  0  0  0  0  0  0  0  0  0
   -6.5845   -1.1239   -1.4094 H   0  0  0  0  0  0  0  0  0  0  0  0
   -5.7762    1.3132    2.0162 H   0  0  0  0  0  0  0  0  0  0  0  0
   -3.3386    1.1795    1.5469 H   0  0  0  0  0  0  0  0  0  0  0  0
   -0.2957    0.4805    0.1769 H   0  0  0  0  0  0  0  0  0  0  0  0
    5.9071    1.2681   -1.1180 H   0  0  0  0  0  0  0  0  0  0  0  0
    7.3664    1.0802    0.9058 H   0  0  0  0  0  0  0  0  0  0  0  0
    5.9801    0.4024    1.8679 H   0  0  0  0  0  0  0  0  0  0  0  0
    5.8138   -1.5309    0.2686 H   0  0  0  0  0  0  0  0  0  0  0  0
    7.1933   -0.8529   -0.7044 H   0  0  0  0  0  0  0  0  0  0  0  0
  1  2  2  0
  2  3  1  0
  3  4  1  0
  4  5  1  0
  5  6  2  0
  6  7  1  0
  7  8  2  0
  8  9  1  0
  8 10  1  0
 10 11  2  0
  2 12  1  0
 12 13  1  0
 13 14  2  0
 14 15  1  0
 15 16  2  0
 16 17  1  0
 17 18  1  0
 18 19  1  0
 16 20  1  0
 11  5  1  0
 20 13  1  0
 19 17  1  0
  3 21  1  0
  3 22  1  0
  6 23  1  0
  7 24  1  0
 10 25  1  0
 11 26  1  0
 12 27  1  0
 17 28  1  0
 18 29  1  0
 18 30  1  0
 19 31  1  0
 19 32  1  0
M  END
$$$$
