
     RDKit          3D

 71 75  0  0  0  0  0  0  0  0999 V2000
   -8.1683   -1.7721    3.7250 C   0  0  0  0  0  0  0  0  0  0  0  0
   -6.8974   -1.0252    3.4464 C   0  0  0  0  0  0  0  0  0  0  0  0
   -6.8991    0.3655    3.3450 C   0  0  0  0  0  0  0  0  0  0  0  0
   -5.7198    1.0523    3.0556 C   0  0  0  0  0  0  0  0  0  0  0  0
   -4.5118    0.3654    2.8498 C   0  0  0  0  0  0  0  0  0  0  0  0
   -3.2765    1.1654    2.5388 C   0  0  0  0  0  0  0  0  0  0  0  0
   -4.4989   -1.0435    2.9256 C   0  0  0  0  0  0  0  0  0  0  0  0
   -3.2411   -1.8625    2.7221 C   0  0  0  0  0  0  0  0  0  0  0  0
   -3.3103   -2.6974    1.5362 N   0  0  0  0  0  0  0  0  0  0  0  0
   -3.7329   -3.9860    1.6224 N   0  0  0  0  0  0  0  0  0  0  0  0
   -3.6142   -4.5364    0.4152 N   0  0  0  0  0  0  0  0  0  0  0  0
   -3.0957   -3.5891   -0.4105 C   0  0  0  0  0  0  0  0  0  0  0  0
   -2.7411   -3.6515   -1.8018 C   0  0  0  0  0  0  0  0  0  0  0  0
   -2.8665   -4.6254   -2.5353 O   0  0  0  0  0  0  0  0  0  0  0  0
   -2.2065   -2.4531   -2.2569 N   0  0  0  0  0  0  0  0  0  0  0  0
   -2.0391   -1.3179   -1.4653 C   0  0  0  0  0  0  0  0  0  0  0  0
   -1.3817   -0.1457   -2.1848 C   0  0  0  0  0  0  0  0  0  0  0  0
    0.1287   -0.4139   -2.2849 C   0  0  0  0  0  0  0  0  0  0  0  0
    0.9282    0.8823   -2.2735 C   0  0  0  0  0  0  0  0  0  0  0  0
    0.7341    1.5873   -0.9810 N   0  0  0  0  0  0  0  0  0  0  0  0
    1.5036    3.1110   -0.8513 S   0  0  0  0  0  6  0  0  0  0  0  0
    1.1498    3.8724   -2.0311 O   0  0  0  0  0  0  0  0  0  0  0  0
    1.2721    3.6293    0.4800 O   0  0  0  0  0  0  0  0  0  0  0  0
    3.2249    2.6754   -0.9519 C   0  0  0  0  0  0  0  0  0  0  0  0
    3.8379    2.0915    0.1640 C   0  0  0  0  0  0  0  0  0  0  0  0
    5.1876    1.7478    0.1035 C   0  0  0  0  0  0  0  0  0  0  0  0
    5.9073    1.9885   -1.0740 C   0  0  0  0  0  0  0  0  0  0  0  0
    7.6239    1.5319   -1.1361 S   0  0  0  0  0  6  0  0  0  0  0  0
    8.2817    2.2224   -0.0484 O   0  0  0  0  0  0  0  0  0  0  0  0
    8.0815    1.6627   -2.5037 O   0  0  0  0  0  0  0  0  0  0  0  0
    7.5842   -0.1428   -0.7739 N   0  0  0  0  0  0  0  0  0  0  0  0
    6.9261   -0.9876   -1.7961 C   0  0  0  0  0  0  0  0  0  0  0  0
    8.9143   -0.6810   -0.4033 C   0  0  0  0  0  0  0  0  0  0  0  0
    5.2993    2.5856   -2.1848 C   0  0  0  0  0  0  0  0  0  0  0  0
    3.9499    2.9374   -2.1214 C   0  0  0  0  0  0  0  0  0  0  0  0
   -0.6576    1.5520   -0.4443 C   0  0  0  0  0  0  0  0  0  0  0  0
   -1.6791    1.2029   -1.5196 C   0  0  0  0  0  0  0  0  0  0  0  0
   -2.3501   -1.2578   -0.1997 N   0  0  0  0  0  0  0  0  0  0  0  0
   -2.8802   -2.4141    0.2699 C   0  0  0  0  0  0  0  0  0  0  0  0
   -5.7010   -1.7185    3.2267 C   0  0  0  0  0  0  0  0  0  0  0  0
   -8.6709   -2.0216    2.7853 H   0  0  0  0  0  0  0  0  0  0  0  0
   -8.8472   -1.1722    4.3402 H   0  0  0  0  0  0  0  0  0  0  0  0
   -7.9644   -2.6980    4.2730 H   0  0  0  0  0  0  0  0  0  0  0  0
   -7.8189    0.9271    3.4922 H   0  0  0  0  0  0  0  0  0  0  0  0
   -5.7527    2.1387    2.9902 H   0  0  0  0  0  0  0  0  0  0  0  0
   -3.4699    2.2427    2.5890 H   0  0  0  0  0  0  0  0  0  0  0  0
   -2.9306    0.9412    1.5260 H   0  0  0  0  0  0  0  0  0  0  0  0
   -2.4827    0.9457    3.2604 H   0  0  0  0  0  0  0  0  0  0  0  0
   -2.3402   -1.2484    2.6325 H   0  0  0  0  0  0  0  0  0  0  0  0
   -3.0849   -2.5193    3.5876 H   0  0  0  0  0  0  0  0  0  0  0  0
   -1.9492   -2.4518   -3.2331 H   0  0  0  0  0  0  0  0  0  0  0  0
   -1.8009   -0.1137   -3.2010 H   0  0  0  0  0  0  0  0  0  0  0  0
    0.3401   -0.9695   -3.2066 H   0  0  0  0  0  0  0  0  0  0  0  0
    0.4640   -1.0514   -1.4553 H   0  0  0  0  0  0  0  0  0  0  0  0
    1.9868    0.6345   -2.3983 H   0  0  0  0  0  0  0  0  0  0  0  0
    0.6236    1.5173   -3.1120 H   0  0  0  0  0  0  0  0  0  0  0  0
    3.2710    1.9107    1.0764 H   0  0  0  0  0  0  0  0  0  0  0  0
    5.6759    1.2975    0.9659 H   0  0  0  0  0  0  0  0  0  0  0  0
    7.5120   -1.0185   -2.7211 H   0  0  0  0  0  0  0  0  0  0  0  0
    5.9165   -0.6299   -2.0139 H   0  0  0  0  0  0  0  0  0  0  0  0
    6.8265   -2.0107   -1.4143 H   0  0  0  0  0  0  0  0  0  0  0  0
    8.8187   -1.7255   -0.0846 H   0  0  0  0  0  0  0  0  0  0  0  0
    9.3317   -0.1268    0.4427 H   0  0  0  0  0  0  0  0  0  0  0  0
    9.6064   -0.6364   -1.2496 H   0  0  0  0  0  0  0  0  0  0  0  0
    5.8684    2.7863   -3.0912 H   0  0  0  0  0  0  0  0  0  0  0  0
    3.4758    3.4132   -2.9778 H   0  0  0  0  0  0  0  0  0  0  0  0
   -0.9401    2.5123   -0.0007 H   0  0  0  0  0  0  0  0  0  0  0  0
   -0.6758    0.8182    0.3691 H   0  0  0  0  0  0  0  0  0  0  0  0
   -2.6896    1.2212   -1.0944 H   0  0  0  0  0  0  0  0  0  0  0  0
   -1.6588    1.9867   -2.2888 H   0  0  0  0  0  0  0  0  0  0  0  0
   -5.7068   -2.8074    3.2898 H   0  0  0  0  0  0  0  0  0  0  0  0
  1  2  1  0
  2  3  2  0
  3  4  1  0
  4  5  2  0
  5  6  1  0
  5  7  1  0
  7  8  1  0
  8  9  1  0
  9 10  1  0
 10 11  2  0
 11 12  1  0
 12 13  1  0
 13 14  2  0
 13 15  1  0
 15 16  1  0
 16 17  1  0
 17 18  1  0
 18 19  1  0
 19 20  1  0
 20 21  1  0
 21 22  2  0
 21 23  2  0
 21 24  1  0
 24 25  2  0
 25 26  1  0
 26 27  2  0
 27 28  1  0
 28 29  2  0
 28 30  2  0
 28 31  1  0
 31 32  1  0
 31 33  1  0
 27 34  1  0
 34 35  2  0
 20 36  1  0
 36 37  1  0
 16 38  2  0
 38 39  1  0
  7 40  2  0
 40  2  1  0
 39  9  1  0
 39 12  2  0
 37 17  1  0
 35 24  1  0
  1 41  1  0
  1 42  1  0
  1 43  1  0
  3 44  1  0
  4 45  1  0
  6 46  1  0
  6 47  1  0
  6 48  1  0
  8 49  1  0
  8 50  1  0
 15 51  1  0
 17 52  1  0
 18 53  1  0
 18 54  1  0
 19 55  1  0
 19 56  1  0
 25 57  1  0
 26 58  1  0
 32 59  1  0
 32 60  1  0
 32 61  1  0
 33 62  1  0
 33 63  1  0
 33 64  1  0
 34 65  1  0
 35 66  1  0
 36 67  1  0
 36 68  1  0
 37 69  1  0
 37 70  1  0
 40 71  1  0
M  END
$$$$
