
     RDKit          3D

 61 64  0  0  0  0  0  0  0  0999 V2000
   -9.7581   -1.8674    0.6813 C   0  0  0  0  0  0  0  0  0  0  0  0
   -8.4864   -1.4877    1.1939 O   0  0  0  0  0  0  0  0  0  0  0  0
   -7.6021   -0.9322    0.3115 C   0  0  0  0  0  0  0  0  0  0  0  0
   -7.8174   -0.7361   -1.0533 C   0  0  0  0  0  0  0  0  0  0  0  0
   -6.8338   -0.1462   -1.8577 C   0  0  0  0  0  0  0  0  0  0  0  0
   -7.1891   -0.0026   -3.1718 O   0  0  0  0  0  0  0  0  0  0  0  0
   -6.2660    0.6606   -4.0270 C   0  0  0  0  0  0  0  0  0  0  0  0
   -5.6171    0.2367   -1.2940 C   0  0  0  0  0  0  0  0  0  0  0  0
   -5.3878    0.0239    0.0726 C   0  0  0  0  0  0  0  0  0  0  0  0
   -4.1025    0.4147    0.7147 C   0  0  0  0  0  0  0  0  0  0  0  0
   -4.1140    0.8040    1.8776 O   0  0  0  0  0  0  0  0  0  0  0  0
   -2.9792    0.2554   -0.0915 N   0  0  0  0  0  0  0  0  0  0  0  0
   -1.6811    0.4126    0.3229 N   0  0  0  0  0  0  0  0  0  0  0  0
   -1.4263    1.3428    1.1885 C   0  0  0  0  0  0  0  0  0  0  0  0
   -0.0677    1.5448    1.7327 C   0  0  0  0  0  0  0  0  0  0  0  0
    0.1264    2.5230    2.7068 C   0  0  0  0  0  0  0  0  0  0  0  0
    1.4018    2.7315    3.2415 C   0  0  0  0  0  0  0  0  0  0  0  0
    2.4919    1.9663    2.8076 C   0  0  0  0  0  0  0  0  0  0  0  0
    3.7689    2.1017    3.2844 O   0  0  0  0  0  0  0  0  0  0  0  0
    4.0368    3.2045    4.1406 C   0  0  0  0  0  0  0  0  0  0  0  0
    2.2964    0.9713    1.8311 C   0  0  0  0  0  0  0  0  0  0  0  0
    3.4317    0.1144    1.3180 C   0  0  0  0  0  0  0  0  0  0  0  0
    3.7410    0.5345   -0.0121 O   0  0  0  0  0  0  0  0  0  0  0  0
    4.7415   -0.1338   -0.6625 C   0  0  0  0  0  0  0  0  0  0  0  0
    5.0044    0.3305   -1.9516 C   0  0  0  0  0  0  0  0  0  0  0  0
    6.0027   -0.2573   -2.7308 C   0  0  0  0  0  0  0  0  0  0  0  0
    6.7592   -1.3261   -2.2301 C   0  0  0  0  0  0  0  0  0  0  0  0
    7.7698   -1.9288   -2.9958 C   0  0  0  0  0  0  0  0  0  0  0  0
    8.5164   -2.9906   -2.4821 C   0  0  0  0  0  0  0  0  0  0  0  0
    8.2614   -3.4633   -1.1981 C   0  0  0  0  0  0  0  0  0  0  0  0
    7.2597   -2.8746   -0.4245 C   0  0  0  0  0  0  0  0  0  0  0  0
    6.4987   -1.8042   -0.9253 C   0  0  0  0  0  0  0  0  0  0  0  0
    5.4877   -1.1994   -0.1543 C   0  0  0  0  0  0  0  0  0  0  0  0
    1.0097    0.7732    1.2945 C   0  0  0  0  0  0  0  0  0  0  0  0
   -6.3853   -0.5446    0.8714 C   0  0  0  0  0  0  0  0  0  0  0  0
  -10.3459   -2.2726    1.5109 H   0  0  0  0  0  0  0  0  0  0  0  0
  -10.2978   -1.0020    0.2827 H   0  0  0  0  0  0  0  0  0  0  0  0
   -9.6595   -2.6553   -0.0729 H   0  0  0  0  0  0  0  0  0  0  0  0
   -8.7504   -1.0256   -1.5267 H   0  0  0  0  0  0  0  0  0  0  0  0
   -5.3324    0.0955   -4.1111 H   0  0  0  0  0  0  0  0  0  0  0  0
   -6.7135    0.7155   -5.0244 H   0  0  0  0  0  0  0  0  0  0  0  0
   -6.0803    1.6851   -3.6882 H   0  0  0  0  0  0  0  0  0  0  0  0
   -4.8527    0.7194   -1.8923 H   0  0  0  0  0  0  0  0  0  0  0  0
   -3.0609   -0.3728   -0.8850 H   0  0  0  0  0  0  0  0  0  0  0  0
   -2.1942    2.0479    1.5497 H   0  0  0  0  0  0  0  0  0  0  0  0
   -0.7062    3.1243    3.0635 H   0  0  0  0  0  0  0  0  0  0  0  0
    1.5091    3.4971    4.0032 H   0  0  0  0  0  0  0  0  0  0  0  0
    5.1103    3.2085    4.3526 H   0  0  0  0  0  0  0  0  0  0  0  0
    3.5106    3.0973    5.0943 H   0  0  0  0  0  0  0  0  0  0  0  0
    3.7898    4.1545    3.6552 H   0  0  0  0  0  0  0  0  0  0  0  0
    3.1012   -0.9332    1.3207 H   0  0  0  0  0  0  0  0  0  0  0  0
    4.3153    0.1994    1.9607 H   0  0  0  0  0  0  0  0  0  0  0  0
    4.4278    1.1609   -2.3522 H   0  0  0  0  0  0  0  0  0  0  0  0
    6.1855    0.1301   -3.7293 H   0  0  0  0  0  0  0  0  0  0  0  0
    7.9838   -1.5727   -4.0009 H   0  0  0  0  0  0  0  0  0  0  0  0
    9.2964   -3.4474   -3.0850 H   0  0  0  0  0  0  0  0  0  0  0  0
    8.8426   -4.2898   -0.7957 H   0  0  0  0  0  0  0  0  0  0  0  0
    7.0774   -3.2586    0.5770 H   0  0  0  0  0  0  0  0  0  0  0  0
    5.3070   -1.5805    0.8472 H   0  0  0  0  0  0  0  0  0  0  0  0
    0.8576    0.0153    0.5280 H   0  0  0  0  0  0  0  0  0  0  0  0
   -6.2127   -0.6918    1.9362 H   0  0  0  0  0  0  0  0  0  0  0  0
  1  2  1  0
  2  3  1  0
  3  4  2  0
  4  5  1  0
  5  6  1  0
  6  7  1  0
  5  8  2  0
  8  9  1  0
  9 10  1  0
 10 11  2  0
 10 12  1  0
 12 13  1  0
 13 14  2  3
 14 15  1  0
 15 16  2  0
 16 17  1  0
 17 18  2  0
 18 19  1  0
 19 20  1  0
 18 21  1  0
 21 22  1  0
 22 23  1  0
 23 24  1  0
 24 25  2  0
 25 26  1  0
 26 27  2  0
 27 28  1  0
 28 29  2  0
 29 30  1  0
 30 31  2  0
 31 32  1  0
 32 33  2  0
 21 34  2  0
  9 35  2  0
 35  3  1  0
 34 15  1  0
 33 24  1  0
 32 27  1  0
  1 36  1  0
  1 37  1  0
  1 38  1  0
  4 39  1  0
  7 40  1  0
  7 41  1  0
  7 42  1  0
  8 43  1  0
 12 44  1  0
 14 45  1  0
 16 46  1  0
 17 47  1  0
 20 48  1  0
 20 49  1  0
 20 50  1  0
 22 51  1  0
 22 52  1  0
 25 53  1  0
 26 54  1  0
 28 55  1  0
 29 56  1  0
 30 57  1  0
 31 58  1  0
 33 59  1  0
 34 60  1  0
 35 61  1  0
M  END
$$$$
