
     RDKit          3D

 39 40  0  0  0  0  0  0  0  0999 V2000
   -0.5183    2.2194    4.1932 C   0  0  0  0  0  0  0  0  0  0  0  0
   -0.7996    1.0551    3.2818 C   0  0  0  0  0  0  0  0  0  0  0  0
   -1.1881   -0.0226    3.7180 O   0  0  0  0  0  0  0  0  0  0  0  0
   -0.5083    1.3134    1.9711 N   0  0  0  0  0  0  0  0  0  0  0  0
   -1.2825    0.8553    1.0309 C   0  0  0  0  0  0  0  0  0  0  0  0
   -2.5928    0.1077    1.1475 C   0  0  0  0  0  0  0  0  0  0  0  0
   -2.5250   -1.2673    0.5280 C   0  0  0  0  0  0  0  0  0  0  0  0
   -1.8882   -2.3167    1.2043 C   0  0  0  0  0  0  0  0  0  0  0  0
   -1.7962   -3.5808    0.6207 C   0  0  0  0  0  0  0  0  0  0  0  0
   -2.3358   -3.8072   -0.6438 C   0  0  0  0  0  0  0  0  0  0  0  0
   -2.9702   -2.7705   -1.3257 C   0  0  0  0  0  0  0  0  0  0  0  0
   -3.0657   -1.5054   -0.7438 C   0  0  0  0  0  0  0  0  0  0  0  0
   -0.8594    1.1358   -0.3982 C   0  0  0  0  0  0  0  0  0  0  0  0
   -1.4835    1.9029   -1.1082 O   0  0  0  0  0  0  0  0  0  0  0  0
    0.2170    0.3903   -0.6945 O   0  0  0  0  0  0  0  0  0  0  0  0
    0.7114    0.5119   -2.0291 C   0  0  0  0  0  0  0  0  0  0  0  0
    2.1928    0.7732   -1.9592 C   0  0  0  0  0  0  0  0  0  0  0  0
    2.6886    2.0816   -2.0440 C   0  0  0  0  0  0  0  0  0  0  0  0
    4.0608    2.3241   -1.9602 C   0  0  0  0  0  0  0  0  0  0  0  0
    4.9481    1.2642   -1.7822 C   0  0  0  0  0  0  0  0  0  0  0  0
    4.4649   -0.0393   -1.6828 C   0  0  0  0  0  0  0  0  0  0  0  0
    3.0933   -0.2843   -1.7665 C   0  0  0  0  0  0  0  0  0  0  0  0
   -1.0012    3.1205    3.8048 H   0  0  0  0  0  0  0  0  0  0  0  0
    0.5614    2.3747    4.2643 H   0  0  0  0  0  0  0  0  0  0  0  0
   -0.9187    2.0127    5.1898 H   0  0  0  0  0  0  0  0  0  0  0  0
   -2.9451    0.0307    2.1783 H   0  0  0  0  0  0  0  0  0  0  0  0
   -3.3573    0.7063    0.6348 H   0  0  0  0  0  0  0  0  0  0  0  0
   -1.4595   -2.1562    2.1931 H   0  0  0  0  0  0  0  0  0  0  0  0
   -1.3041   -4.3893    1.1551 H   0  0  0  0  0  0  0  0  0  0  0  0
   -2.2649   -4.7929   -1.0958 H   0  0  0  0  0  0  0  0  0  0  0  0
   -3.3934   -2.9485   -2.3108 H   0  0  0  0  0  0  0  0  0  0  0  0
   -3.5657   -0.7095   -1.2930 H   0  0  0  0  0  0  0  0  0  0  0  0
    0.5255   -0.4355   -2.5478 H   0  0  0  0  0  0  0  0  0  0  0  0
    0.2156    1.2975   -2.6112 H   0  0  0  0  0  0  0  0  0  0  0  0
    2.0080    2.9211   -2.1718 H   0  0  0  0  0  0  0  0  0  0  0  0
    4.4370    3.3416   -2.0284 H   0  0  0  0  0  0  0  0  0  0  0  0
    6.0155    1.4552   -1.7130 H   0  0  0  0  0  0  0  0  0  0  0  0
    5.1557   -0.8647   -1.5330 H   0  0  0  0  0  0  0  0  0  0  0  0
    2.7276   -1.3048   -1.6729 H   0  0  0  0  0  0  0  0  0  0  0  0
  1  2  1  0
  2  3  2  0
  2  4  1  0
  4  5  2  3
  5  6  1  0
  6  7  1  0
  7  8  2  0
  8  9  1  0
  9 10  2  0
 10 11  1  0
 11 12  2  0
  5 13  1  0
 13 14  2  0
 13 15  1  0
 15 16  1  0
 16 17  1  0
 17 18  2  0
 18 19  1  0
 19 20  2  0
 20 21  1  0
 21 22  2  0
 12  7  1  0
 22 17  1  0
  1 23  1  0
  1 24  1  0
  1 25  1  0
  6 26  1  0
  6 27  1  0
  8 28  1  0
  9 29  1  0
 10 30  1  0
 11 31  1  0
 12 32  1  0
 16 33  1  0
 16 34  1  0
 18 35  1  0
 19 36  1  0
 20 37  1  0
 21 38  1  0
 22 39  1  0
M  END
$$$$
