
     RDKit          3D

 85 88  0  0  0  0  0  0  0  0999 V2000
    5.6385   -7.7035    1.1115 C   0  0  0  0  0  0  0  0  0  0  0  0
    6.0943   -6.4083    1.4805 O   0  0  0  0  0  0  0  0  0  0  0  0
    5.2663   -5.3575    1.1950 C   0  0  0  0  0  0  0  0  0  0  0  0
    4.0175   -5.4380    0.5852 C   0  0  0  0  0  0  0  0  0  0  0  0
    3.2717   -4.2742    0.3539 C   0  0  0  0  0  0  0  0  0  0  0  0
    3.7685   -3.0172    0.7171 C   0  0  0  0  0  0  0  0  0  0  0  0
    2.9545   -1.8945    0.4564 N   0  0  0  0  0  0  0  0  0  0  0  0
    3.3429   -0.5653    0.4751 C   0  0  0  0  0  0  0  0  0  0  0  0
    4.4984   -0.1727    0.5881 O   0  0  0  0  0  0  0  0  0  0  0  0
    2.2428    0.2653    0.3370 N   0  0  0  0  0  0  0  0  0  0  0  0
    2.2414    1.6644    0.1226 C   0  0  0  0  0  0  0  0  0  0  0  0
    3.3915    2.3479   -0.2881 C   0  0  0  0  0  0  0  0  0  0  0  0
    3.3912    3.7360   -0.4053 C   0  0  0  0  0  0  0  0  0  0  0  0
    2.2473    4.4504   -0.0750 C   0  0  0  0  0  0  0  0  0  0  0  0
    1.0729    3.7806    0.3063 C   0  0  0  0  0  0  0  0  0  0  0  0
    1.0378    2.3784    0.3250 C   0  0  0  0  0  0  0  0  0  0  0  0
   -0.0688    1.6736    0.7191 O   0  0  0  0  0  0  0  0  0  0  0  0
   -1.0661    1.3388   -0.2763 C   0  0  0  0  0  0  0  0  0  0  0  0
   -0.5807    0.8729   -1.6855 C   0  0  0  0  0  0  0  0  0  0  0  0
    0.1963   -0.3746   -1.7505 N   0  0  0  0  0  0  0  0  0  0  0  0
    1.3111   -0.3741   -2.6953 C   0  0  0  0  0  0  0  0  0  0  0  0
   -0.1627   -1.5966   -1.2107 C   0  0  0  0  0  0  0  0  0  0  0  0
    0.6299   -2.5334   -1.1269 O   0  0  0  0  0  0  0  0  0  0  0  0
   -1.4341   -1.6792   -0.7189 N   0  0  0  0  0  0  0  0  0  0  0  0
   -1.9293   -2.9039   -0.0902 C   0  0  0  0  0  0  0  0  0  0  0  0
   -2.6282   -3.8077   -1.1154 C   0  0  0  0  0  0  0  0  0  0  0  0
   -3.9889   -3.2617   -1.5537 C   0  0  0  0  0  0  0  0  0  0  0  0
   -4.8889   -2.9551   -0.3614 C   0  0  0  0  0  0  0  0  0  0  0  0
   -4.2107   -2.0241    0.6400 C   0  0  0  0  0  0  0  0  0  0  0  0
   -2.8556   -2.5682    1.0851 C   0  0  0  0  0  0  0  0  0  0  0  0
   -2.1725    2.4244   -0.3417 C   0  0  0  0  0  0  0  0  0  0  0  0
   -3.3703    2.0046   -1.2019 C   0  0  0  0  0  0  0  0  0  0  0  0
   -1.6476    3.7821   -0.8177 C   0  0  0  0  0  0  0  0  0  0  0  0
   -1.2764    4.6155    0.3170 N   0  0  0  0  0  0  0  0  0  0  0  0
   -2.3357    5.4752    0.8919 C   0  0  0  0  0  0  0  0  0  0  0  0
   -2.5987    5.1860    2.3753 C   0  0  0  0  0  0  0  0  0  0  0  0
   -2.0670    6.9717    0.6427 C   0  0  0  0  0  0  0  0  0  0  0  0
   -3.2441    7.7437    0.8727 O   0  0  0  0  0  0  0  0  0  0  0  0
    0.0064    4.6539    0.8503 C   0  0  0  0  0  0  0  0  0  0  0  0
    0.3304    5.4420    1.7375 O   0  0  0  0  0  0  0  0  0  0  0  0
    5.0137   -2.9431    1.3370 C   0  0  0  0  0  0  0  0  0  0  0  0
    5.7562   -4.1064    1.5703 C   0  0  0  0  0  0  0  0  0  0  0  0
    5.4997   -7.7808    0.0285 H   0  0  0  0  0  0  0  0  0  0  0  0
    6.4094   -8.4234    1.3980 H   0  0  0  0  0  0  0  0  0  0  0  0
    4.7212   -7.9679    1.6477 H   0  0  0  0  0  0  0  0  0  0  0  0
    3.5910   -6.3860    0.2764 H   0  0  0  0  0  0  0  0  0  0  0  0
    2.3013   -4.3656   -0.1292 H   0  0  0  0  0  0  0  0  0  0  0  0
    2.0788   -2.0923   -0.0227 H   0  0  0  0  0  0  0  0  0  0  0  0
    1.3583   -0.1286    0.6290 H   0  0  0  0  0  0  0  0  0  0  0  0
    4.3166    1.8208   -0.5061 H   0  0  0  0  0  0  0  0  0  0  0  0
    4.2986    4.2569   -0.7001 H   0  0  0  0  0  0  0  0  0  0  0  0
    2.2805    5.5390   -0.0687 H   0  0  0  0  0  0  0  0  0  0  0  0
   -1.5666    0.4888    0.1924 H   0  0  0  0  0  0  0  0  0  0  0  0
    0.0297    1.6643   -2.1331 H   0  0  0  0  0  0  0  0  0  0  0  0
   -1.4281    0.7068   -2.3556 H   0  0  0  0  0  0  0  0  0  0  0  0
    1.9101   -1.2861   -2.6376 H   0  0  0  0  0  0  0  0  0  0  0  0
    0.8982   -0.2948   -3.7053 H   0  0  0  0  0  0  0  0  0  0  0  0
    1.9601    0.4836   -2.5083 H   0  0  0  0  0  0  0  0  0  0  0  0
   -2.1176   -1.1478   -1.2330 H   0  0  0  0  0  0  0  0  0  0  0  0
   -1.0662   -3.4485    0.3135 H   0  0  0  0  0  0  0  0  0  0  0  0
   -1.9955   -3.9529   -1.9983 H   0  0  0  0  0  0  0  0  0  0  0  0
   -2.7804   -4.7970   -0.6676 H   0  0  0  0  0  0  0  0  0  0  0  0
   -3.8523   -2.3536   -2.1528 H   0  0  0  0  0  0  0  0  0  0  0  0
   -4.4811   -3.9934   -2.2042 H   0  0  0  0  0  0  0  0  0  0  0  0
   -5.8219   -2.4979   -0.7101 H   0  0  0  0  0  0  0  0  0  0  0  0
   -5.1613   -3.8927    0.1395 H   0  0  0  0  0  0  0  0  0  0  0  0
   -4.0835   -1.0332    0.1921 H   0  0  0  0  0  0  0  0  0  0  0  0
   -4.8569   -1.8898    1.5152 H   0  0  0  0  0  0  0  0  0  0  0  0
   -3.0210   -3.4802    1.6744 H   0  0  0  0  0  0  0  0  0  0  0  0
   -2.3720   -1.8435    1.7543 H   0  0  0  0  0  0  0  0  0  0  0  0
   -2.5548    2.5348    0.6824 H   0  0  0  0  0  0  0  0  0  0  0  0
   -4.2214    2.6684   -1.0130 H   0  0  0  0  0  0  0  0  0  0  0  0
   -3.6907    0.9862   -0.9685 H   0  0  0  0  0  0  0  0  0  0  0  0
   -3.1474    2.0620   -2.2706 H   0  0  0  0  0  0  0  0  0  0  0  0
   -0.7970    3.6758   -1.4969 H   0  0  0  0  0  0  0  0  0  0  0  0
   -2.4077    4.3281   -1.3907 H   0  0  0  0  0  0  0  0  0  0  0  0
   -3.2744    5.2224    0.3786 H   0  0  0  0  0  0  0  0  0  0  0  0
   -1.7936    5.5567    3.0150 H   0  0  0  0  0  0  0  0  0  0  0  0
   -2.6988    4.1121    2.5534 H   0  0  0  0  0  0  0  0  0  0  0  0
   -3.5227    5.6687    2.7067 H   0  0  0  0  0  0  0  0  0  0  0  0
   -1.2589    7.3672    1.2665 H   0  0  0  0  0  0  0  0  0  0  0  0
   -1.7801    7.1266   -0.4032 H   0  0  0  0  0  0  0  0  0  0  0  0
   -3.2577    7.9631    1.8219 H   0  0  0  0  0  0  0  0  0  0  0  0
    5.4342   -1.9957    1.6592 H   0  0  0  0  0  0  0  0  0  0  0  0
    6.7269   -4.0284    2.0530 H   0  0  0  0  0  0  0  0  0  0  0  0
  1  2  1  0
  2  3  1  0
  3  4  2  0
  4  5  1  0
  5  6  2  0
  6  7  1  0
  7  8  1  0
  8  9  2  0
  8 10  1  0
 10 11  1  0
 11 12  2  0
 12 13  1  0
 13 14  2  0
 14 15  1  0
 15 16  2  0
 16 17  1  0
 17 18  1  0
 18 19  1  0
 19 20  1  0
 20 21  1  0
 20 22  1  0
 22 23  2  0
 22 24  1  0
 24 25  1  0
 25 26  1  0
 26 27  1  0
 27 28  1  0
 28 29  1  0
 29 30  1  0
 18 31  1  0
 31 32  1  0
 31 33  1  0
 33 34  1  0
 34 35  1  0
 35 36  1  0
 35 37  1  0
 37 38  1  0
 34 39  1  0
 39 40  2  0
  6 41  1  0
 41 42  2  0
 42  3  1  0
 16 11  1  0
 30 25  1  0
 39 15  1  0
  1 43  1  0
  1 44  1  0
  1 45  1  0
  4 46  1  0
  5 47  1  0
  7 48  1  0
 10 49  1  0
 12 50  1  0
 13 51  1  0
 14 52  1  0
 18 53  1  0
 19 54  1  0
 19 55  1  0
 21 56  1  0
 21 57  1  0
 21 58  1  0
 24 59  1  0
 25 60  1  0
 26 61  1  0
 26 62  1  0
 27 63  1  0
 27 64  1  0
 28 65  1  0
 28 66  1  0
 29 67  1  0
 29 68  1  0
 30 69  1  0
 30 70  1  0
 31 71  1  0
 32 72  1  0
 32 73  1  0
 32 74  1  0
 33 75  1  0
 33 76  1  0
 35 77  1  0
 36 78  1  0
 36 79  1  0
 36 80  1  0
 37 81  1  0
 37 82  1  0
 38 83  1  0
 41 84  1  0
 42 85  1  0
M  END
$$$$
