
     RDKit          3D

 37 39  0  0  0  0  0  0  0  0999 V2000
   -4.8168   -2.1816    1.2378 C   0  0  0  0  0  0  0  0  0  0  0  0
   -4.3258   -0.8063    1.6536 C   0  0  0  0  0  0  0  0  0  0  0  0
   -4.0985    0.0658    0.5124 N   0  0  0  0  0  0  0  0  0  0  0  0
   -5.1357    0.8160    0.0716 N   0  0  0  0  0  0  0  0  0  0  0  0
   -4.6250    1.4928   -0.9560 C   0  0  0  0  0  0  0  0  0  0  0  0
   -3.2718    1.1960   -1.1507 C   0  0  0  0  0  0  0  0  0  0  0  0
   -2.2597    1.9238   -2.5477 Br  0  0  0  0  0  0  0  0  0  0  0  0
   -2.9206    0.2822   -0.1762 C   0  0  0  0  0  0  0  0  0  0  0  0
   -1.6690   -0.3903    0.1154 C   0  0  0  0  0  0  0  0  0  0  0  0
   -1.6603   -1.5060    0.6223 O   0  0  0  0  0  0  0  0  0  0  0  0
   -0.5510    0.3663   -0.1765 N   0  0  0  0  0  0  0  0  0  0  0  0
    0.7838    0.0002   -0.0559 C   0  0  0  0  0  0  0  0  0  0  0  0
    1.2312   -1.6154    0.2999 S   0  0  0  0  0  0  0  0  0  0  0  0
    2.8455   -1.2255    0.1949 C   0  0  0  0  0  0  0  0  0  0  0  0
    3.0881    0.0892   -0.0922 C   0  0  0  0  0  0  0  0  0  0  0  0
    1.8859    0.8482   -0.2294 C   0  0  0  0  0  0  0  0  0  0  0  0
    1.7276    2.2729   -0.5142 C   0  0  0  0  0  0  0  0  0  0  0  0
    2.8492    3.0470   -0.4477 N   0  0  0  0  0  0  0  0  0  0  0  0
    0.6419    2.7896   -0.7661 O   0  0  0  0  0  0  0  0  0  0  0  0
    4.5533    0.3312   -0.1896 C   0  0  0  0  0  0  0  0  0  0  0  0
    5.1356   -1.1141   -0.2654 C   0  0  0  0  0  0  0  0  0  0  0  0
    4.0598   -2.0599    0.3427 C   0  0  0  0  0  0  0  0  0  0  0  0
   -4.9758   -2.8102    2.1193 H   0  0  0  0  0  0  0  0  0  0  0  0
   -5.7649   -2.1123    0.6937 H   0  0  0  0  0  0  0  0  0  0  0  0
   -4.0969   -2.6845    0.5845 H   0  0  0  0  0  0  0  0  0  0  0  0
   -5.0714   -0.3186    2.2929 H   0  0  0  0  0  0  0  0  0  0  0  0
   -3.4034   -0.8681    2.2379 H   0  0  0  0  0  0  0  0  0  0  0  0
   -5.2657    2.1628   -1.5147 H   0  0  0  0  0  0  0  0  0  0  0  0
   -0.6974    1.3283   -0.4809 H   0  0  0  0  0  0  0  0  0  0  0  0
    3.6850    2.7282    0.0151 H   0  0  0  0  0  0  0  0  0  0  0  0
    2.7017    4.0451   -0.5147 H   0  0  0  0  0  0  0  0  0  0  0  0
    4.9177    0.8394    0.7094 H   0  0  0  0  0  0  0  0  0  0  0  0
    4.8312    0.9092   -1.0752 H   0  0  0  0  0  0  0  0  0  0  0  0
    6.1019   -1.2007    0.2410 H   0  0  0  0  0  0  0  0  0  0  0  0
    5.2908   -1.3804   -1.3194 H   0  0  0  0  0  0  0  0  0  0  0  0
    4.2715   -2.2552    1.3989 H   0  0  0  0  0  0  0  0  0  0  0  0
    4.0079   -3.0054   -0.2038 H   0  0  0  0  0  0  0  0  0  0  0  0
  1  2  1  0
  2  3  1  0
  3  4  1  0
  4  5  2  0
  5  6  1  0
  6  7  1  0
  6  8  2  0
  8  9  1  0
  9 10  2  0
  9 11  1  0
 11 12  1  0
 12 13  1  0
 13 14  1  0
 14 15  2  0
 15 16  1  0
 16 17  1  0
 17 18  1  0
 17 19  2  0
 15 20  1  0
 20 21  1  0
 21 22  1  0
  8  3  1  0
 16 12  2  0
 22 14  1  0
  1 23  1  0
  1 24  1  0
  1 25  1  0
  2 26  1  0
  2 27  1  0
  5 28  1  0
 11 29  1  0
 18 30  1  0
 18 31  1  0
 20 32  1  0
 20 33  1  0
 21 34  1  0
 21 35  1  0
 22 36  1  0
 22 37  1  0
M  END
$$$$
