
     RDKit          3D

 40 42  0  0  0  0  0  0  0  0999 V2000
   -6.5752    0.6729   -1.0975 C   0  0  0  0  0  0  0  0  0  0  0  0
   -6.8047   -0.4067    0.3025 S   0  0  0  0  0  6  0  0  0  0  0  0
   -6.7749   -1.7767   -0.1568 O   0  0  0  0  0  0  0  0  0  0  0  0
   -7.9253    0.1037    1.0643 O   0  0  0  0  0  0  0  0  0  0  0  0
   -5.4458   -0.0827    1.2391 N   0  0  0  0  0  0  0  0  0  0  0  0
   -4.1322   -0.2670    0.7234 C   0  0  0  0  0  0  0  0  0  0  0  0
   -3.7261   -1.4638    0.1335 C   0  0  0  0  0  0  0  0  0  0  0  0
   -2.4218   -1.6015   -0.3513 C   0  0  0  0  0  0  0  0  0  0  0  0
   -1.5076   -0.5507   -0.2210 C   0  0  0  0  0  0  0  0  0  0  0  0
   -0.1295   -0.7326   -0.7553 C   0  0  0  0  0  0  0  0  0  0  0  0
    0.0060   -1.3645   -1.7950 O   0  0  0  0  0  0  0  0  0  0  0  0
    0.8696   -0.1771    0.0225 N   0  0  0  0  0  0  0  0  0  0  0  0
    2.2539   -0.1550   -0.2515 C   0  0  0  0  0  0  0  0  0  0  0  0
    2.8226   -0.6304   -1.4362 C   0  0  0  0  0  0  0  0  0  0  0  0
    4.2072   -0.5739   -1.6336 C   0  0  0  0  0  0  0  0  0  0  0  0
    5.0311   -0.0422   -0.6472 C   0  0  0  0  0  0  0  0  0  0  0  0
    4.4692    0.4636    0.5263 C   0  0  0  0  0  0  0  0  0  0  0  0
    3.0901    0.3950    0.7293 C   0  0  0  0  0  0  0  0  0  0  0  0
    5.2106    1.0355    1.5295 O   0  0  0  0  0  0  0  0  0  0  0  0
    6.5343    1.3541    1.0826 C   0  0  0  0  0  0  0  0  0  0  0  0
    7.1302    0.1980    0.2963 C   0  0  0  0  0  0  0  0  0  0  0  0
    6.3783   -0.0393   -0.8990 O   0  0  0  0  0  0  0  0  0  0  0  0
   -1.9108    0.6484    0.3786 C   0  0  0  0  0  0  0  0  0  0  0  0
   -3.2186    0.7831    0.8568 C   0  0  0  0  0  0  0  0  0  0  0  0
   -7.4698    0.6045   -1.7207 H   0  0  0  0  0  0  0  0  0  0  0  0
   -6.4533    1.6969   -0.7395 H   0  0  0  0  0  0  0  0  0  0  0  0
   -5.7052    0.3470   -1.6695 H   0  0  0  0  0  0  0  0  0  0  0  0
   -5.6019    0.6912    1.8842 H   0  0  0  0  0  0  0  0  0  0  0  0
   -4.4035   -2.3104    0.0523 H   0  0  0  0  0  0  0  0  0  0  0  0
   -2.1188   -2.5354   -0.8223 H   0  0  0  0  0  0  0  0  0  0  0  0
    0.5983    0.1944    0.9236 H   0  0  0  0  0  0  0  0  0  0  0  0
    2.2163   -1.0548   -2.2306 H   0  0  0  0  0  0  0  0  0  0  0  0
    4.6374   -0.9566   -2.5552 H   0  0  0  0  0  0  0  0  0  0  0  0
    2.6835    0.7834    1.6584 H   0  0  0  0  0  0  0  0  0  0  0  0
    7.1419    1.5621    1.9689 H   0  0  0  0  0  0  0  0  0  0  0  0
    6.4868    2.2684    0.4782 H   0  0  0  0  0  0  0  0  0  0  0  0
    8.1580    0.4309    0.0010 H   0  0  0  0  0  0  0  0  0  0  0  0
    7.1453   -0.7255    0.8886 H   0  0  0  0  0  0  0  0  0  0  0  0
   -1.2304    1.4927    0.4546 H   0  0  0  0  0  0  0  0  0  0  0  0
   -3.5155    1.7210    1.3193 H   0  0  0  0  0  0  0  0  0  0  0  0
  1  2  1  0
  2  3  2  0
  2  4  2  0
  2  5  1  0
  5  6  1  0
  6  7  2  0
  7  8  1  0
  8  9  2  0
  9 10  1  0
 10 11  2  0
 10 12  1  0
 12 13  1  0
 13 14  2  0
 14 15  1  0
 15 16  2  0
 16 17  1  0
 17 18  2  0
 17 19  1  0
 19 20  1  0
 20 21  1  0
 21 22  1  0
  9 23  1  0
 23 24  2  0
 24  6  1  0
 18 13  1  0
 22 16  1  0
  1 25  1  0
  1 26  1  0
  1 27  1  0
  5 28  1  0
  7 29  1  0
  8 30  1  0
 12 31  1  0
 14 32  1  0
 15 33  1  0
 18 34  1  0
 20 35  1  0
 20 36  1  0
 21 37  1  0
 21 38  1  0
 23 39  1  0
 24 40  1  0
M  END
$$$$
