
     RDKit          3D

 59 62  0  0  0  0  0  0  0  0999 V2000
    9.2601   -0.1948   -0.5660 C   0  0  0  0  0  0  0  0  0  0  0  0
    7.8423   -0.0183   -0.1098 C   0  0  0  0  0  0  0  0  0  0  0  0
    7.5324    0.8754    0.9201 C   0  0  0  0  0  0  0  0  0  0  0  0
    6.2063    1.0676    1.3284 C   0  0  0  0  0  0  0  0  0  0  0  0
    5.1668    0.3637    0.7115 C   0  0  0  0  0  0  0  0  0  0  0  0
    3.7971    0.5299    1.0874 N   0  0  0  0  0  0  0  0  0  0  0  0
    2.8322    0.1363    0.2119 N   0  0  0  0  0  0  0  0  0  0  0  0
    1.6879    0.5886    0.7282 C   0  0  0  0  0  0  0  0  0  0  0  0
    0.3642    0.4732    0.1322 C   0  0  0  0  0  0  0  0  0  0  0  0
    0.1424   -0.0468   -0.9604 O   0  0  0  0  0  0  0  0  0  0  0  0
   -0.6440    1.0358    0.9381 N   0  0  0  0  0  0  0  0  0  0  0  0
   -2.0193    0.9193    0.4844 C   0  0  0  0  0  0  0  0  0  0  0  0
   -2.5771   -0.4759    0.7814 C   0  0  0  0  0  0  0  0  0  0  0  0
   -2.1091   -1.2394    1.6226 O   0  0  0  0  0  0  0  0  0  0  0  0
   -3.7135   -0.7796    0.0472 N   0  0  0  0  0  0  0  0  0  0  0  0
   -4.2762   -2.1183    0.0931 C   0  0  0  0  0  0  0  0  0  0  0  0
   -5.7255   -2.1699   -0.4014 C   0  0  0  0  0  0  0  0  0  0  0  0
   -5.8855   -1.7187   -1.8404 C   0  0  0  0  0  0  0  0  0  0  0  0
   -5.4074   -2.5617   -2.8603 C   0  0  0  0  0  0  0  0  0  0  0  0
   -5.5050   -2.1937   -4.2012 C   0  0  0  0  0  0  0  0  0  0  0  0
   -6.0851   -0.9786   -4.5449 C   0  0  0  0  0  0  0  0  0  0  0  0
   -6.5684   -0.1322   -3.5478 C   0  0  0  0  0  0  0  0  0  0  0  0
   -6.4743   -0.4849   -2.1910 C   0  0  0  0  0  0  0  0  0  0  0  0
   -7.0236    0.4631   -1.1597 C   0  0  0  0  0  0  0  0  0  0  0  0
   -0.4411    1.6626    2.1728 N   0  0  0  0  0  0  0  0  0  0  0  0
    0.7528    1.7462    2.6906 C   0  0  0  0  0  0  0  0  0  0  0  0
    0.9055    2.4233    4.0228 C   0  0  0  0  0  0  0  0  0  0  0  0
    1.8783    1.1958    1.9740 C   0  0  0  0  0  0  0  0  0  0  0  0
    3.2290    1.0630    2.2517 C   0  0  0  0  0  0  0  0  0  0  0  0
    3.9730    1.3348    3.5086 C   0  0  0  0  0  0  0  0  0  0  0  0
    5.4771   -0.5018   -0.3508 C   0  0  0  0  0  0  0  0  0  0  0  0
    6.8020   -0.6921   -0.7544 C   0  0  0  0  0  0  0  0  0  0  0  0
    9.4929    0.5287   -1.3533 H   0  0  0  0  0  0  0  0  0  0  0  0
    9.9584   -0.0507    0.2652 H   0  0  0  0  0  0  0  0  0  0  0  0
    9.4222   -1.2058   -0.9543 H   0  0  0  0  0  0  0  0  0  0  0  0
    8.3242    1.4417    1.4066 H   0  0  0  0  0  0  0  0  0  0  0  0
    6.0292    1.8120    2.0947 H   0  0  0  0  0  0  0  0  0  0  0  0
   -2.0600    1.1095   -0.5936 H   0  0  0  0  0  0  0  0  0  0  0  0
   -2.6386    1.6627    0.9976 H   0  0  0  0  0  0  0  0  0  0  0  0
   -3.8381   -0.2783   -0.8256 H   0  0  0  0  0  0  0  0  0  0  0  0
   -4.2323   -2.4866    1.1244 H   0  0  0  0  0  0  0  0  0  0  0  0
   -3.6265   -2.7621   -0.5109 H   0  0  0  0  0  0  0  0  0  0  0  0
   -6.3582   -1.5776    0.2678 H   0  0  0  0  0  0  0  0  0  0  0  0
   -6.0972   -3.1996   -0.3196 H   0  0  0  0  0  0  0  0  0  0  0  0
   -4.9514   -3.5187   -2.6129 H   0  0  0  0  0  0  0  0  0  0  0  0
   -5.1287   -2.8565   -4.9759 H   0  0  0  0  0  0  0  0  0  0  0  0
   -6.1651   -0.6898   -5.5895 H   0  0  0  0  0  0  0  0  0  0  0  0
   -7.0249    0.8114   -3.8403 H   0  0  0  0  0  0  0  0  0  0  0  0
   -7.8730    0.0073   -0.6411 H   0  0  0  0  0  0  0  0  0  0  0  0
   -7.3766    1.3942   -1.6161 H   0  0  0  0  0  0  0  0  0  0  0  0
   -6.2501    0.7328   -0.4341 H   0  0  0  0  0  0  0  0  0  0  0  0
    1.7270    3.1436    3.9904 H   0  0  0  0  0  0  0  0  0  0  0  0
    1.1021    1.6725    4.7927 H   0  0  0  0  0  0  0  0  0  0  0  0
   -0.0133    2.9561    4.2857 H   0  0  0  0  0  0  0  0  0  0  0  0
    4.3395    2.3653    3.5281 H   0  0  0  0  0  0  0  0  0  0  0  0
    3.3307    1.1913    4.3819 H   0  0  0  0  0  0  0  0  0  0  0  0
    4.8099    0.6442    3.6472 H   0  0  0  0  0  0  0  0  0  0  0  0
    4.6932   -1.0488   -0.8738 H   0  0  0  0  0  0  0  0  0  0  0  0
    7.0108   -1.3710   -1.5785 H   0  0  0  0  0  0  0  0  0  0  0  0
  1  2  1  0
  2  3  2  0
  3  4  1  0
  4  5  2  0
  5  6  1  0
  6  7  1  0
  7  8  2  0
  8  9  1  0
  9 10  2  0
  9 11  1  0
 11 12  1  0
 12 13  1  0
 13 14  2  0
 13 15  1  0
 15 16  1  0
 16 17  1  0
 17 18  1  0
 18 19  2  0
 19 20  1  0
 20 21  2  0
 21 22  1  0
 22 23  2  0
 23 24  1  0
 11 25  1  0
 25 26  2  0
 26 27  1  0
 26 28  1  0
 28 29  2  0
 29 30  1  0
  5 31  1  0
 31 32  2  0
 32  2  1  0
 29  6  1  0
 28  8  1  0
 23 18  1  0
  1 33  1  0
  1 34  1  0
  1 35  1  0
  3 36  1  0
  4 37  1  0
 12 38  1  0
 12 39  1  0
 15 40  1  0
 16 41  1  0
 16 42  1  0
 17 43  1  0
 17 44  1  0
 19 45  1  0
 20 46  1  0
 21 47  1  0
 22 48  1  0
 24 49  1  0
 24 50  1  0
 24 51  1  0
 27 52  1  0
 27 53  1  0
 27 54  1  0
 30 55  1  0
 30 56  1  0
 30 57  1  0
 31 58  1  0
 32 59  1  0
M  END
$$$$
