
     RDKit          3D

 19 19  0  0  0  0  0  0  0  0999 V2000
   -2.9612   -0.8464   -0.7273 C   0  0  0  0  0  0  0  0  0  0  0  0
   -2.2179    0.2691   -0.2522 O   0  0  0  0  0  0  0  0  0  0  0  0
   -0.8645    0.1169   -0.1063 C   0  0  0  0  0  0  0  0  0  0  0  0
   -0.1589   -1.0504   -0.4080 C   0  0  0  0  0  0  0  0  0  0  0  0
    1.2280   -1.1083   -0.2218 C   0  0  0  0  0  0  0  0  0  0  0  0
    1.9295   -0.0241    0.3054 C   0  0  0  0  0  0  0  0  0  0  0  0
    3.3247   -0.0518    0.3714 N   0  0  0  0  0  0  0  0  0  0  0  0
    1.2353    1.1606    0.5495 C   0  0  0  0  0  0  0  0  0  0  0  0
   -0.1553    1.2314    0.3669 C   0  0  0  0  0  0  0  0  0  0  0  0
   -0.8238    2.4662    0.6647 C   0  0  0  0  0  0  0  0  0  0  0  0
   -1.3246    3.4823    0.9214 N   0  0  0  0  0  0  0  0  0  0  0  0
   -2.6515   -1.1233   -1.7403 H   0  0  0  0  0  0  0  0  0  0  0  0
   -4.0143   -0.5523   -0.7700 H   0  0  0  0  0  0  0  0  0  0  0  0
   -2.8801   -1.6959   -0.0413 H   0  0  0  0  0  0  0  0  0  0  0  0
   -0.6510   -1.9331   -0.8036 H   0  0  0  0  0  0  0  0  0  0  0  0
    1.7572   -2.0183   -0.4956 H   0  0  0  0  0  0  0  0  0  0  0  0
    3.7298    0.6156    1.0212 H   0  0  0  0  0  0  0  0  0  0  0  0
    3.7216   -0.9804    0.4790 H   0  0  0  0  0  0  0  0  0  0  0  0
    1.7771    2.0422    0.8870 H   0  0  0  0  0  0  0  0  0  0  0  0
  1  2  1  0
  2  3  1  0
  3  4  2  0
  4  5  1  0
  5  6  2  0
  6  7  1  0
  6  8  1  0
  8  9  2  0
  9 10  1  0
 10 11  3  0
  9  3  1  0
  1 12  1  0
  1 13  1  0
  1 14  1  0
  4 15  1  0
  5 16  1  0
  7 17  1  0
  7 18  1  0
  8 19  1  0
M  END
$$$$
