
     RDKit          3D

 51 55  0  0  0  0  0  0  0  0999 V2000
   -2.8612   -2.0712    1.6251 C   0  0  0  0  0  0  0  0  0  0  0  0
   -2.4121   -0.7728    1.0002 C   0  0  0  0  0  0  0  0  0  0  0  0
   -1.1575   -0.8245    0.4073 N   0  0  0  0  0  0  0  0  0  0  0  0
   -0.5999    0.2430   -0.2021 C   0  0  0  0  0  0  0  0  0  0  0  0
    0.5907    0.4514   -0.8645 C   0  0  0  0  0  0  0  0  0  0  0  0
    1.6193   -0.5492   -1.0834 C   0  0  0  0  0  0  0  0  0  0  0  0
    1.4810   -1.7114   -0.7100 O   0  0  0  0  0  0  0  0  0  0  0  0
    2.7515   -0.1023   -1.7267 N   0  0  0  0  0  0  0  0  0  0  0  0
    3.9072   -0.9517   -1.9014 C   0  0  0  0  0  0  0  0  0  0  0  0
    4.9473   -0.6513   -0.8529 C   0  0  0  0  0  0  0  0  0  0  0  0
    4.8554   -1.2500    0.4259 C   0  0  0  0  0  0  0  0  0  0  0  0
    5.7926   -0.9661    1.4241 C   0  0  0  0  0  0  0  0  0  0  0  0
    6.8020   -0.0798    1.1204 C   0  0  0  0  0  0  0  0  0  0  0  0
    6.8959    0.5138   -0.1158 C   0  0  0  0  0  0  0  0  0  0  0  0
    5.9875    0.2536   -1.1207 C   0  0  0  0  0  0  0  0  0  0  0  0
    7.9580    1.3584   -0.2070 O   0  0  0  0  0  0  0  0  0  0  0  0
    8.5235    1.2257    1.1144 C   0  0  0  0  0  0  0  0  0  0  0  0
    7.7938    0.3149    1.9623 O   0  0  0  0  0  0  0  0  0  0  0  0
    0.5127    1.8152   -1.2367 C   0  0  0  0  0  0  0  0  0  0  0  0
   -0.6145    2.4162   -0.8433 N   0  0  0  0  0  0  0  0  0  0  0  0
   -1.2998    1.4262   -0.2082 N   0  0  0  0  0  0  0  0  0  0  0  0
   -2.5648    1.6078    0.3734 C   0  0  0  0  0  0  0  0  0  0  0  0
   -3.1130    2.7038    0.3656 O   0  0  0  0  0  0  0  0  0  0  0  0
   -3.1534    0.3650    0.9982 C   0  0  0  0  0  0  0  0  0  0  0  0
   -4.5273    0.5549    1.5937 C   0  0  0  0  0  0  0  0  0  0  0  0
   -5.6449    0.3560    0.5963 C   0  0  0  0  0  0  0  0  0  0  0  0
   -6.0709    1.4078   -0.2287 C   0  0  0  0  0  0  0  0  0  0  0  0
   -7.0935    1.2118   -1.1613 C   0  0  0  0  0  0  0  0  0  0  0  0
   -7.7040   -0.0358   -1.2821 C   0  0  0  0  0  0  0  0  0  0  0  0
   -7.2916   -1.0883   -0.4683 C   0  0  0  0  0  0  0  0  0  0  0  0
   -6.2718   -0.8862    0.4583 C   0  0  0  0  0  0  0  0  0  0  0  0
   -5.9002   -1.9151    1.2328 F   0  0  0  0  0  0  0  0  0  0  0  0
   -2.0448   -2.5113    2.2093 H   0  0  0  0  0  0  0  0  0  0  0  0
   -3.7027   -1.9609    2.3102 H   0  0  0  0  0  0  0  0  0  0  0  0
   -3.1436   -2.7840    0.8435 H   0  0  0  0  0  0  0  0  0  0  0  0
   -0.6691   -1.7249    0.4135 H   0  0  0  0  0  0  0  0  0  0  0  0
    2.8846    0.8847   -1.8821 H   0  0  0  0  0  0  0  0  0  0  0  0
    4.3074   -0.7552   -2.9021 H   0  0  0  0  0  0  0  0  0  0  0  0
    3.6270   -2.0103   -1.8679 H   0  0  0  0  0  0  0  0  0  0  0  0
    4.0413   -1.9414    0.6432 H   0  0  0  0  0  0  0  0  0  0  0  0
    5.7261   -1.4243    2.4044 H   0  0  0  0  0  0  0  0  0  0  0  0
    6.0875    0.7407   -2.0847 H   0  0  0  0  0  0  0  0  0  0  0  0
    8.5374    2.2131    1.5900 H   0  0  0  0  0  0  0  0  0  0  0  0
    9.5549    0.8668    1.0195 H   0  0  0  0  0  0  0  0  0  0  0  0
    1.2329    2.4097   -1.7835 H   0  0  0  0  0  0  0  0  0  0  0  0
   -4.6836   -0.1073    2.4525 H   0  0  0  0  0  0  0  0  0  0  0  0
   -4.6161    1.5572    2.0343 H   0  0  0  0  0  0  0  0  0  0  0  0
   -5.6089    2.3915   -0.1521 H   0  0  0  0  0  0  0  0  0  0  0  0
   -7.4116    2.0370   -1.7946 H   0  0  0  0  0  0  0  0  0  0  0  0
   -8.4991   -0.1858   -2.0078 H   0  0  0  0  0  0  0  0  0  0  0  0
   -7.7577   -2.0652   -0.5479 H   0  0  0  0  0  0  0  0  0  0  0  0
  1  2  1  0
  2  3  1  0
  3  4  1  0
  4  5  2  0
  5  6  1  0
  6  7  2  0
  6  8  1  0
  8  9  1  0
  9 10  1  0
 10 11  2  0
 11 12  1  0
 12 13  2  0
 13 14  1  0
 14 15  2  0
 14 16  1  0
 16 17  1  0
 17 18  1  0
  5 19  1  0
 19 20  2  0
 20 21  1  0
 21 22  1  0
 22 23  2  0
 22 24  1  0
 24 25  1  0
 25 26  1  0
 26 27  2  0
 27 28  1  0
 28 29  2  0
 29 30  1  0
 30 31  2  0
 31 32  1  0
 24  2  2  0
 31 26  1  0
 21  4  1  0
 15 10  1  0
 18 13  1  0
  1 33  1  0
  1 34  1  0
  1 35  1  0
  3 36  1  0
  8 37  1  0
  9 38  1  0
  9 39  1  0
 11 40  1  0
 12 41  1  0
 15 42  1  0
 17 43  1  0
 17 44  1  0
 19 45  1  0
 25 46  1  0
 25 47  1  0
 27 48  1  0
 28 49  1  0
 29 50  1  0
 30 51  1  0
M  END
$$$$
