
     RDKit          3D

 53 58  0  0  0  0  0  0  0  0999 V2000
    1.7922   -1.2341   -1.3698 O   0  0  0  0  0  0  0  0  0  0  0  0
    1.8926   -0.2108   -0.6921 C   0  0  0  0  0  0  0  0  0  0  0  0
    1.0538    1.0336   -1.0180 C   0  0  0  0  0  0  0  0  0  0  0  0
   -0.3609    0.6521   -1.1521 N   0  0  0  0  0  4  0  0  0  0  0  0
   -1.3656    0.8021   -0.1941 C   0  0  0  0  0  0  0  0  0  0  0  0
   -2.5438    0.2436   -0.6833 C   0  0  0  0  0  0  0  0  0  0  0  0
   -3.9233    0.1509    0.0753 C   0  0  0  0  0  0  0  0  0  0  0  0
   -4.0615    0.7216    1.3538 C   0  0  0  0  0  0  0  0  0  0  0  0
   -5.2864    0.6439    2.0324 C   0  0  0  0  0  0  0  0  0  0  0  0
   -6.3625   -0.0051    1.4368 C   0  0  0  0  0  0  0  0  0  0  0  0
   -7.5343   -0.0778    2.0889 F   0  0  0  0  0  0  0  0  0  0  0  0
   -6.2381   -0.5802    0.1737 C   0  0  0  0  0  0  0  0  0  0  0  0
   -5.0163   -0.5028   -0.5094 C   0  0  0  0  0  0  0  0  0  0  0  0
   -2.1866   -0.1920   -1.9503 N   0  0  0  0  0  0  0  0  0  0  0  0
   -0.8916    0.0111   -2.1918 C   0  0  0  0  0  0  0  0  0  0  0  0
   -0.4635   -0.4841   -3.5243 C   0  0  0  0  0  0  0  0  0  0  0  0
   -1.8182   -0.6840   -4.2368 C   0  0  0  0  0  0  0  0  0  0  0  0
   -2.8496   -0.8354   -3.0807 C   0  0  0  0  0  0  0  0  0  0  0  0
    2.6534   -0.0716    0.4715 N   0  0  0  0  0  0  0  0  0  0  0  0
    2.3267   -0.8480    1.6416 C   0  0  0  0  0  0  0  0  0  0  0  0
    1.4252   -1.9321    1.5403 C   0  0  0  0  0  0  0  0  0  0  0  0
    1.0716   -2.7087    2.6515 C   0  0  0  0  0  0  0  0  0  0  0  0
    1.6049   -2.4191    3.8971 C   0  0  0  0  0  0  0  0  0  0  0  0
    2.4745   -1.3414    4.0324 C   0  0  0  0  0  0  0  0  0  0  0  0
    2.8336   -0.5533    2.9196 C   0  0  0  0  0  0  0  0  0  0  0  0
    3.8566    0.8545    3.2666 S   0  0  0  0  0  0  0  0  0  0  0  0
    4.4062    1.2882    1.6452 C   0  0  0  0  0  0  0  0  0  0  0  0
    5.5059    2.1668    1.5673 C   0  0  0  0  0  0  0  0  0  0  0  0
    6.0117    2.5853    0.3383 C   0  0  0  0  0  0  0  0  0  0  0  0
    5.4139    2.1350   -0.8306 C   0  0  0  0  0  0  0  0  0  0  0  0
    4.3135    1.2694   -0.7635 C   0  0  0  0  0  0  0  0  0  0  0  0
    3.7787    0.8345    0.4738 C   0  0  0  0  0  0  0  0  0  0  0  0
    1.1368    1.7924   -0.2339 H   0  0  0  0  0  0  0  0  0  0  0  0
    1.3938    1.4658   -1.9630 H   0  0  0  0  0  0  0  0  0  0  0  0
   -1.1037    1.2798    0.7395 H   0  0  0  0  0  0  0  0  0  0  0  0
   -3.2428    1.2356    1.8498 H   0  0  0  0  0  0  0  0  0  0  0  0
   -5.4060    1.0878    3.0211 H   0  0  0  0  0  0  0  0  0  0  0  0
   -7.0945   -1.0883   -0.2655 H   0  0  0  0  0  0  0  0  0  0  0  0
   -4.9532   -0.9743   -1.4834 H   0  0  0  0  0  0  0  0  0  0  0  0
    0.0511   -1.4317   -3.3574 H   0  0  0  0  0  0  0  0  0  0  0  0
    0.1783    0.2593   -3.9960 H   0  0  0  0  0  0  0  0  0  0  0  0
   -1.8258   -1.5342   -4.9280 H   0  0  0  0  0  0  0  0  0  0  0  0
   -2.0563    0.2217   -4.8132 H   0  0  0  0  0  0  0  0  0  0  0  0
   -3.0188   -1.8897   -2.8391 H   0  0  0  0  0  0  0  0  0  0  0  0
   -3.7896   -0.3336   -3.3190 H   0  0  0  0  0  0  0  0  0  0  0  0
    1.0019   -2.2366    0.5868 H   0  0  0  0  0  0  0  0  0  0  0  0
    0.3910   -3.5503    2.5403 H   0  0  0  0  0  0  0  0  0  0  0  0
    1.3451   -3.0234    4.7647 H   0  0  0  0  0  0  0  0  0  0  0  0
    2.8767   -1.1168    5.0220 H   0  0  0  0  0  0  0  0  0  0  0  0
    5.9875    2.5274    2.4778 H   0  0  0  0  0  0  0  0  0  0  0  0
    6.8734    3.2529    0.2975 H   0  0  0  0  0  0  0  0  0  0  0  0
    5.8171    2.4389   -1.7967 H   0  0  0  0  0  0  0  0  0  0  0  0
    3.9254    0.9049   -1.7139 H   0  0  0  0  0  0  0  0  0  0  0  0
  1  2  2  0
  2  3  1  0
  3  4  1  0
  4  5  1  0
  5  6  2  0
  6  7  1  0
  7  8  2  0
  8  9  1  0
  9 10  2  0
 10 11  1  0
 10 12  1  0
 12 13  2  0
  6 14  1  0
 14 15  1  0
 15 16  1  0
 16 17  1  0
 17 18  1  0
  2 19  1  0
 19 20  1  0
 20 21  2  0
 21 22  1  0
 22 23  2  0
 23 24  1  0
 24 25  2  0
 25 26  1  0
 26 27  1  0
 27 28  2  0
 28 29  1  0
 29 30  2  0
 30 31  1  0
 31 32  2  0
 15  4  2  0
 32 19  1  0
 13  7  1  0
 18 14  1  0
 25 20  1  0
 32 27  1  0
  3 33  1  0
  3 34  1  0
  5 35  1  0
  8 36  1  0
  9 37  1  0
 12 38  1  0
 13 39  1  0
 16 40  1  0
 16 41  1  0
 17 42  1  0
 17 43  1  0
 18 44  1  0
 18 45  1  0
 21 46  1  0
 22 47  1  0
 23 48  1  0
 24 49  1  0
 28 50  1  0
 29 51  1  0
 30 52  1  0
 31 53  1  0
M  CHG  1   4   1
M  END
$$$$
