
     RDKit          3D

 24 25  0  0  0  0  0  0  0  0999 V2000
    4.4459   -1.4057    0.9188 C   0  0  0  0  0  0  0  0  0  0  0  0
    2.6558   -1.1541    0.9120 S   0  0  0  0  0  0  0  0  0  0  0  0
    2.4732   -0.0956   -0.4482 C   0  0  0  0  0  0  0  0  0  0  0  0
    3.4800    0.3062   -1.1943 N   0  0  0  0  0  0  0  0  0  0  0  0
    2.9383    1.0196   -2.2199 N   0  0  0  0  0  0  0  0  0  0  0  0
    1.6208    1.0622   -2.1244 N   0  0  0  0  0  0  0  0  0  0  0  0
    1.2845    0.3960   -0.9823 N   0  0  0  0  0  0  0  0  0  0  0  0
   -0.0845    0.3379   -0.5835 C   0  0  0  0  0  0  0  0  0  0  0  0
   -0.4980   -0.1265    0.6676 C   0  0  0  0  0  0  0  0  0  0  0  0
   -1.8591   -0.1580    1.0020 C   0  0  0  0  0  0  0  0  0  0  0  0
   -2.8388    0.2778    0.1009 C   0  0  0  0  0  0  0  0  0  0  0  0
   -4.2874    0.2286    0.4969 C   0  0  0  0  0  0  0  0  0  0  0  0
   -2.4252    0.7570   -1.1473 C   0  0  0  0  0  0  0  0  0  0  0  0
   -3.5635    1.3228   -2.3177 Cl  0  0  0  0  0  0  0  0  0  0  0  0
   -1.0669    0.7909   -1.4846 C   0  0  0  0  0  0  0  0  0  0  0  0
    4.7112   -2.0678    1.7475 H   0  0  0  0  0  0  0  0  0  0  0  0
    4.9693   -0.4553    1.0560 H   0  0  0  0  0  0  0  0  0  0  0  0
    4.7743   -1.8727   -0.0139 H   0  0  0  0  0  0  0  0  0  0  0  0
    0.1908   -0.4493    1.4385 H   0  0  0  0  0  0  0  0  0  0  0  0
   -2.1469   -0.5239    1.9870 H   0  0  0  0  0  0  0  0  0  0  0  0
   -4.8509   -0.4084   -0.1924 H   0  0  0  0  0  0  0  0  0  0  0  0
   -4.7165    1.2357    0.5011 H   0  0  0  0  0  0  0  0  0  0  0  0
   -4.4142   -0.1864    1.5027 H   0  0  0  0  0  0  0  0  0  0  0  0
   -0.7922    1.1690   -2.4690 H   0  0  0  0  0  0  0  0  0  0  0  0
  1  2  1  0
  2  3  1  0
  3  4  2  0
  4  5  1  0
  5  6  2  0
  6  7  1  0
  7  8  1  0
  8  9  2  0
  9 10  1  0
 10 11  2  0
 11 12  1  0
 11 13  1  0
 13 14  1  0
 13 15  2  0
  7  3  1  0
 15  8  1  0
  1 16  1  0
  1 17  1  0
  1 18  1  0
  9 19  1  0
 10 20  1  0
 12 21  1  0
 12 22  1  0
 12 23  1  0
 15 24  1  0
M  END
$$$$
