
     RDKit          3D

 47 50  0  0  0  0  0  0  0  0999 V2000
   -4.7756    4.0102    3.3595 N   0  0  0  0  0  0  0  0  0  0  0  0
   -5.0553    2.9411    2.5902 C   0  0  0  0  0  0  0  0  0  0  0  0
   -6.2849    2.5700    2.2363 N   0  0  0  0  0  0  0  0  0  0  0  0
   -6.1216    1.4272    1.4618 O   0  0  0  0  0  0  0  0  0  0  0  0
   -4.7746    1.0907    1.3341 N   0  0  0  0  0  0  0  0  0  0  0  0
   -4.1369    2.0314    2.0313 C   0  0  0  0  0  0  0  0  0  0  0  0
   -2.7217    2.0527    2.1172 N   0  0  0  0  0  0  0  0  0  0  0  0
   -2.0712    3.0707    2.7461 N   0  0  0  0  0  0  0  0  0  0  0  0
   -0.7689    2.9166    2.5909 N   0  0  0  0  0  0  0  0  0  0  0  0
   -0.5492    1.7769    1.8673 C   0  0  0  0  0  0  0  0  0  0  0  0
    0.8068    1.3555    1.5028 C   0  0  0  0  0  0  0  0  0  0  0  0
    1.7784    1.7002    2.1695 O   0  0  0  0  0  0  0  0  0  0  0  0
    0.8687    0.5793    0.3451 N   0  0  0  0  0  0  0  0  0  0  0  0
    2.0109    0.1490   -0.2849 N   0  0  0  0  0  0  0  0  0  0  0  0
    3.0527   -0.1272    0.4340 C   0  0  0  0  0  0  0  0  0  0  0  0
    4.3271   -0.5529   -0.1826 C   0  0  0  0  0  0  0  0  0  0  0  0
    5.4241   -0.8064    0.6486 C   0  0  0  0  0  0  0  0  0  0  0  0
    6.6400   -1.2117    0.0920 C   0  0  0  0  0  0  0  0  0  0  0  0
    6.7453   -1.3594   -1.2887 C   0  0  0  0  0  0  0  0  0  0  0  0
    7.9124   -1.7526   -1.8731 O   0  0  0  0  0  0  0  0  0  0  0  0
    5.6588   -1.1085   -2.1207 C   0  0  0  0  0  0  0  0  0  0  0  0
    4.4433   -0.7023   -1.5681 C   0  0  0  0  0  0  0  0  0  0  0  0
   -1.7716    1.1612    1.6222 C   0  0  0  0  0  0  0  0  0  0  0  0
   -2.0733   -0.1458    0.9900 C   0  0  0  0  0  0  0  0  0  0  0  0
   -1.9805    0.0931   -0.4104 O   0  0  0  0  0  0  0  0  0  0  0  0
   -2.2014   -0.9690   -1.2433 C   0  0  0  0  0  0  0  0  0  0  0  0
   -2.1045   -0.6655   -2.6065 C   0  0  0  0  0  0  0  0  0  0  0  0
   -2.3003   -1.6563   -3.5696 C   0  0  0  0  0  0  0  0  0  0  0  0
   -2.5930   -2.9509   -3.1638 C   0  0  0  0  0  0  0  0  0  0  0  0
   -2.7824   -3.9059   -4.0832 F   0  0  0  0  0  0  0  0  0  0  0  0
   -2.6926   -3.2693   -1.8146 C   0  0  0  0  0  0  0  0  0  0  0  0
   -2.4960   -2.2768   -0.8492 C   0  0  0  0  0  0  0  0  0  0  0  0
   -5.4986    4.7044    3.5183 H   0  0  0  0  0  0  0  0  0  0  0  0
   -3.8249    4.3721    3.4309 H   0  0  0  0  0  0  0  0  0  0  0  0
    0.0626    0.6015   -0.2776 H   0  0  0  0  0  0  0  0  0  0  0  0
    3.0472   -0.0933    1.5362 H   0  0  0  0  0  0  0  0  0  0  0  0
    5.3439   -0.6864    1.7261 H   0  0  0  0  0  0  0  0  0  0  0  0
    7.4859   -1.4039    0.7446 H   0  0  0  0  0  0  0  0  0  0  0  0
    8.5836   -1.8747   -1.1819 H   0  0  0  0  0  0  0  0  0  0  0  0
    5.7580   -1.2271   -3.1961 H   0  0  0  0  0  0  0  0  0  0  0  0
    3.5964   -0.5050   -2.2204 H   0  0  0  0  0  0  0  0  0  0  0  0
   -1.3131   -0.8754    1.2978 H   0  0  0  0  0  0  0  0  0  0  0  0
   -3.0477   -0.5489    1.2730 H   0  0  0  0  0  0  0  0  0  0  0  0
   -1.8759    0.3497   -2.9226 H   0  0  0  0  0  0  0  0  0  0  0  0
   -2.2262   -1.4257   -4.6273 H   0  0  0  0  0  0  0  0  0  0  0  0
   -2.9226   -4.2893   -1.5224 H   0  0  0  0  0  0  0  0  0  0  0  0
   -2.5813   -2.5632    0.1936 H   0  0  0  0  0  0  0  0  0  0  0  0
  1  2  1  0
  2  3  2  0
  3  4  1  0
  4  5  1  0
  5  6  2  0
  6  7  1  0
  7  8  1  0
  8  9  2  0
  9 10  1  0
 10 11  1  0
 11 12  2  0
 11 13  1  0
 13 14  1  0
 14 15  2  3
 15 16  1  0
 16 17  2  0
 17 18  1  0
 18 19  2  0
 19 20  1  0
 19 21  1  0
 21 22  2  0
 10 23  2  0
 23 24  1  0
 24 25  1  0
 25 26  1  0
 26 27  2  0
 27 28  1  0
 28 29  2  0
 29 30  1  0
 29 31  1  0
 31 32  2  0
  6  2  1  0
 23  7  1  0
 32 26  1  0
 22 16  1  0
  1 33  1  0
  1 34  1  0
 13 35  1  0
 15 36  1  0
 17 37  1  0
 18 38  1  0
 20 39  1  0
 21 40  1  0
 22 41  1  0
 24 42  1  0
 24 43  1  0
 27 44  1  0
 28 45  1  0
 31 46  1  0
 32 47  1  0
M  END
$$$$
