
     RDKit          3D

 45 47  0  0  0  0  0  0  0  0999 V2000
   -3.4048   -0.0930   -1.0871 O   0  0  0  0  0  0  0  0  0  0  0  0
   -3.2729    0.5363   -0.0382 C   0  0  0  0  0  0  0  0  0  0  0  0
   -4.4476    0.8712    0.8734 C   0  0  0  0  0  0  0  0  0  0  0  0
   -5.7857    0.3680    0.3819 C   0  0  0  0  0  0  0  0  0  0  0  0
   -6.5780    1.1623   -0.4603 C   0  0  0  0  0  0  0  0  0  0  0  0
   -7.8090    0.6922   -0.9234 C   0  0  0  0  0  0  0  0  0  0  0  0
   -8.2507   -0.5755   -0.5518 C   0  0  0  0  0  0  0  0  0  0  0  0
   -9.7679   -1.1535   -1.1219 Cl  0  0  0  0  0  0  0  0  0  0  0  0
   -7.4707   -1.3791    0.2765 C   0  0  0  0  0  0  0  0  0  0  0  0
   -6.2395   -0.9101    0.7402 C   0  0  0  0  0  0  0  0  0  0  0  0
   -1.9402    0.9934    0.3734 C   0  0  0  0  0  0  0  0  0  0  0  0
   -1.6060    1.7068    1.5091 C   0  0  0  0  0  0  0  0  0  0  0  0
   -0.2530    1.9253    1.4990 N   0  0  0  0  0  0  0  0  0  0  0  0
    0.3183    1.3646    0.3770 C   0  0  0  0  0  0  0  0  0  0  0  0
    1.7417    1.4573    0.1368 C   0  0  0  0  0  0  0  0  0  0  0  0
    2.4934    2.0564    0.9005 O   0  0  0  0  0  0  0  0  0  0  0  0
    2.1942    0.8203   -0.9959 N   0  0  0  0  0  0  0  0  0  0  0  0
    3.5994    0.7756   -1.3346 C   0  0  0  0  0  0  0  0  0  0  0  0
    4.3251   -0.3316   -0.5776 C   0  0  0  0  0  0  0  0  0  0  0  0
    5.8160   -0.3216   -0.8968 C   0  0  0  0  0  0  0  0  0  0  0  0
    6.5240   -1.3913   -0.2243 N   0  0  0  0  0  0  0  0  0  0  0  0
    6.7980   -2.6276   -0.7365 C   0  0  0  0  0  0  0  0  0  0  0  0
    7.4929   -3.2747    0.2590 C   0  0  0  0  0  0  0  0  0  0  0  0
    7.6475   -2.4617    1.3522 N   0  0  0  0  0  0  0  0  0  0  0  0
    7.0555   -1.3331    1.0317 C   0  0  0  0  0  0  0  0  0  0  0  0
   -0.7175    0.7840   -0.3354 C   0  0  0  0  0  0  0  0  0  0  0  0
   -4.4997    1.9607    0.9910 H   0  0  0  0  0  0  0  0  0  0  0  0
   -4.2519    0.4475    1.8662 H   0  0  0  0  0  0  0  0  0  0  0  0
   -6.2397    2.1494   -0.7681 H   0  0  0  0  0  0  0  0  0  0  0  0
   -8.4134    1.3157   -1.5765 H   0  0  0  0  0  0  0  0  0  0  0  0
   -7.8111   -2.3714    0.5595 H   0  0  0  0  0  0  0  0  0  0  0  0
   -5.6350   -1.5530    1.3766 H   0  0  0  0  0  0  0  0  0  0  0  0
   -2.2049    2.0833    2.3282 H   0  0  0  0  0  0  0  0  0  0  0  0
    0.2787    2.4235    2.2043 H   0  0  0  0  0  0  0  0  0  0  0  0
    1.5439    0.2759   -1.5443 H   0  0  0  0  0  0  0  0  0  0  0  0
    4.0479    1.7503   -1.1112 H   0  0  0  0  0  0  0  0  0  0  0  0
    3.6662    0.6102   -2.4151 H   0  0  0  0  0  0  0  0  0  0  0  0
    4.1769   -0.2120    0.5031 H   0  0  0  0  0  0  0  0  0  0  0  0
    3.8873   -1.3038   -0.8384 H   0  0  0  0  0  0  0  0  0  0  0  0
    6.2778    0.6237   -0.5888 H   0  0  0  0  0  0  0  0  0  0  0  0
    5.9871   -0.4394   -1.9732 H   0  0  0  0  0  0  0  0  0  0  0  0
    6.4907   -2.9385   -1.7247 H   0  0  0  0  0  0  0  0  0  0  0  0
    7.8910   -4.2810    0.2468 H   0  0  0  0  0  0  0  0  0  0  0  0
    6.9829   -0.4579    1.6647 H   0  0  0  0  0  0  0  0  0  0  0  0
   -0.6369    0.2557   -1.2775 H   0  0  0  0  0  0  0  0  0  0  0  0
  1  2  2  0
  2  3  1  0
  3  4  1  0
  4  5  2  0
  5  6  1  0
  6  7  2  0
  7  8  1  0
  7  9  1  0
  9 10  2  0
  2 11  1  0
 11 12  2  0
 12 13  1  0
 13 14  1  0
 14 15  1  0
 15 16  2  0
 15 17  1  0
 17 18  1  0
 18 19  1  0
 19 20  1  0
 20 21  1  0
 21 22  1  0
 22 23  2  0
 23 24  1  0
 24 25  2  0
 14 26  2  0
 10  4  1  0
 26 11  1  0
 25 21  1  0
  3 27  1  0
  3 28  1  0
  5 29  1  0
  6 30  1  0
  9 31  1  0
 10 32  1  0
 12 33  1  0
 13 34  1  0
 17 35  1  0
 18 36  1  0
 18 37  1  0
 19 38  1  0
 19 39  1  0
 20 40  1  0
 20 41  1  0
 22 42  1  0
 23 43  1  0
 25 44  1  0
 26 45  1  0
M  END
$$$$
