
     RDKit          3D

 53 55  0  0  0  0  0  0  0  0999 V2000
    8.7935   -1.2762    0.7917 C   0  0  0  0  0  0  0  0  0  0  0  0
    8.2432   -0.3078    1.6762 O   0  0  0  0  0  0  0  0  0  0  0  0
    6.8796   -0.2138    1.7216 C   0  0  0  0  0  0  0  0  0  0  0  0
    6.3915    0.7126    2.6502 C   0  0  0  0  0  0  0  0  0  0  0  0
    5.0187    0.9149    2.8043 C   0  0  0  0  0  0  0  0  0  0  0  0
    4.1310    0.1874    2.0113 C   0  0  0  0  0  0  0  0  0  0  0  0
    2.3810    0.4206    2.1852 S   0  0  0  0  0  6  0  0  0  0  0  0
    2.1410    1.2937    3.3138 O   0  0  0  0  0  0  0  0  0  0  0  0
    1.7546   -0.8798    2.0985 O   0  0  0  0  0  0  0  0  0  0  0  0
    1.9949    1.2747    0.7815 N   0  0  0  0  0  0  0  0  0  0  0  0
    2.5658    2.6200    0.6255 C   0  0  0  0  0  0  0  0  0  0  0  0
    1.6363    3.2308   -0.3960 C   0  0  0  0  0  0  0  0  0  0  0  0
    0.3443    2.7294   -0.0444 O   0  0  0  0  0  0  0  0  0  0  0  0
    0.5411    1.4262    0.5570 C   0  0  0  0  0  0  0  0  0  0  0  0
    0.0199    0.3529   -0.4168 C   0  0  0  0  0  0  0  0  0  0  0  0
   -1.3798    0.5447   -0.7557 N   0  0  0  0  0  0  0  0  0  0  0  0
   -2.1086   -0.4298   -1.3953 C   0  0  0  0  0  0  0  0  0  0  0  0
   -1.7514   -1.5813   -1.5986 O   0  0  0  0  0  0  0  0  0  0  0  0
   -3.4915    0.0527   -1.8902 C   0  0  0  0  0  0  0  0  0  0  0  0
   -3.8175    1.2240   -1.7552 O   0  0  0  0  0  0  0  0  0  0  0  0
   -4.2489   -0.9431   -2.4577 N   0  0  0  0  0  0  0  0  0  0  0  0
   -5.6219   -0.7466   -2.8437 C   0  0  0  0  0  0  0  0  0  0  0  0
   -6.5619   -1.1311   -1.7302 C   0  0  0  0  0  0  0  0  0  0  0  0
   -7.0041   -0.1344   -0.8412 C   0  0  0  0  0  0  0  0  0  0  0  0
   -7.8610   -0.4444    0.2163 C   0  0  0  0  0  0  0  0  0  0  0  0
   -8.2836   -1.7566    0.4082 C   0  0  0  0  0  0  0  0  0  0  0  0
   -7.8433   -2.7602   -0.4540 C   0  0  0  0  0  0  0  0  0  0  0  0
   -6.9839   -2.4521   -1.5137 C   0  0  0  0  0  0  0  0  0  0  0  0
   -6.4599   -3.7535   -2.5229 Cl  0  0  0  0  0  0  0  0  0  0  0  0
    4.6035   -0.7482    1.0867 C   0  0  0  0  0  0  0  0  0  0  0  0
    5.9804   -0.9448    0.9414 C   0  0  0  0  0  0  0  0  0  0  0  0
    8.4672   -2.2867    1.0592 H   0  0  0  0  0  0  0  0  0  0  0  0
    8.5476   -1.0432   -0.2495 H   0  0  0  0  0  0  0  0  0  0  0  0
    9.8825   -1.2403    0.8926 H   0  0  0  0  0  0  0  0  0  0  0  0
    7.0913    1.2759    3.2642 H   0  0  0  0  0  0  0  0  0  0  0  0
    4.6593    1.6309    3.5396 H   0  0  0  0  0  0  0  0  0  0  0  0
    3.5982    2.5956    0.2697 H   0  0  0  0  0  0  0  0  0  0  0  0
    2.5083    3.1816    1.5637 H   0  0  0  0  0  0  0  0  0  0  0  0
    1.6361    4.3237   -0.3748 H   0  0  0  0  0  0  0  0  0  0  0  0
    1.8716    2.8926   -1.4114 H   0  0  0  0  0  0  0  0  0  0  0  0
   -0.0343    1.4225    1.4891 H   0  0  0  0  0  0  0  0  0  0  0  0
    0.5735    0.3973   -1.3626 H   0  0  0  0  0  0  0  0  0  0  0  0
    0.1494   -0.6542   -0.0079 H   0  0  0  0  0  0  0  0  0  0  0  0
   -1.7391    1.4953   -0.8340 H   0  0  0  0  0  0  0  0  0  0  0  0
   -3.8701   -1.8856   -2.4124 H   0  0  0  0  0  0  0  0  0  0  0  0
   -5.8095   -1.3358   -3.7468 H   0  0  0  0  0  0  0  0  0  0  0  0
   -5.7783    0.3020   -3.1246 H   0  0  0  0  0  0  0  0  0  0  0  0
   -6.6712    0.8957   -0.9670 H   0  0  0  0  0  0  0  0  0  0  0  0
   -8.1926    0.3396    0.8931 H   0  0  0  0  0  0  0  0  0  0  0  0
   -8.9485   -2.0001    1.2330 H   0  0  0  0  0  0  0  0  0  0  0  0
   -8.1691   -3.7845   -0.2909 H   0  0  0  0  0  0  0  0  0  0  0  0
    3.9076   -1.3262    0.4816 H   0  0  0  0  0  0  0  0  0  0  0  0
    6.3170   -1.6769    0.2143 H   0  0  0  0  0  0  0  0  0  0  0  0
  1  2  1  0
  2  3  1  0
  3  4  2  0
  4  5  1  0
  5  6  2  0
  6  7  1  0
  7  8  2  0
  7  9  2  0
  7 10  1  0
 10 11  1  0
 11 12  1  0
 12 13  1  0
 13 14  1  0
 14 15  1  0
 15 16  1  0
 16 17  1  0
 17 18  2  0
 17 19  1  0
 19 20  2  0
 19 21  1  0
 21 22  1  0
 22 23  1  0
 23 24  2  0
 24 25  1  0
 25 26  2  0
 26 27  1  0
 27 28  2  0
 28 29  1  0
  6 30  1  0
 30 31  2  0
 31  3  1  0
 14 10  1  0
 28 23  1  0
  1 32  1  0
  1 33  1  0
  1 34  1  0
  4 35  1  0
  5 36  1  0
 11 37  1  0
 11 38  1  0
 12 39  1  0
 12 40  1  0
 14 41  1  0
 15 42  1  0
 15 43  1  0
 16 44  1  0
 21 45  1  0
 22 46  1  0
 22 47  1  0
 24 48  1  0
 25 49  1  0
 26 50  1  0
 27 51  1  0
 30 52  1  0
 31 53  1  0
M  END
$$$$
