
     RDKit          3D

 40 42  0  0  0  0  0  0  0  0999 V2000
    1.9583    4.1111    1.2453 C   0  0  0  0  0  0  0  0  0  0  0  0
    2.0967    3.9972   -0.2634 C   0  0  0  0  0  0  0  0  0  0  0  0
    0.4887    3.6937   -1.0710 S   0  0  0  0  0  0  0  0  0  0  0  0
    0.2357    1.9544   -0.7387 C   0  0  0  0  0  0  0  0  0  0  0  0
   -0.9826    1.3972   -1.0605 C   0  0  0  0  0  0  0  0  0  0  0  0
   -1.1571    0.0531   -0.7959 C   0  0  0  0  0  0  0  0  0  0  0  0
   -2.3792   -0.5716   -1.1192 N   0  0  0  0  0  0  0  0  0  0  0  0
   -3.5463    0.0202   -0.4253 C   0  0  0  0  0  0  0  0  0  0  0  0
   -4.8377   -0.6709   -0.8947 C   0  0  0  0  0  0  0  0  0  0  0  0
   -4.7830   -2.0914   -0.6933 O   0  0  0  0  0  0  0  0  0  0  0  0
   -3.6759   -2.6501   -1.4200 C   0  0  0  0  0  0  0  0  0  0  0  0
   -2.3414   -2.0441   -0.9600 C   0  0  0  0  0  0  0  0  0  0  0  0
   -0.1549   -0.6743   -0.2764 N   0  0  0  0  0  0  0  0  0  0  0  0
    1.0067   -0.0554    0.0057 C   0  0  0  0  0  0  0  0  0  0  0  0
    2.0951   -0.8652    0.5923 C   0  0  0  0  0  0  0  0  0  0  0  0
    3.3415   -0.2965    0.9216 C   0  0  0  0  0  0  0  0  0  0  0  0
    4.3726   -1.0613    1.4773 C   0  0  0  0  0  0  0  0  0  0  0  0
    4.1811   -2.4180    1.7185 C   0  0  0  0  0  0  0  0  0  0  0  0
    2.9614   -3.0093    1.4052 C   0  0  0  0  0  0  0  0  0  0  0  0
    1.9331   -2.2410    0.8491 C   0  0  0  0  0  0  0  0  0  0  0  0
    1.2400    1.2487   -0.2042 N   0  0  0  0  0  0  0  0  0  0  0  0
    1.5981    3.1829    1.6991 H   0  0  0  0  0  0  0  0  0  0  0  0
    2.9333    4.3365    1.6902 H   0  0  0  0  0  0  0  0  0  0  0  0
    1.2744    4.9203    1.5238 H   0  0  0  0  0  0  0  0  0  0  0  0
    2.8249    3.2284   -0.5397 H   0  0  0  0  0  0  0  0  0  0  0  0
    2.4775    4.9467   -0.6547 H   0  0  0  0  0  0  0  0  0  0  0  0
   -1.7609    1.9863   -1.5260 H   0  0  0  0  0  0  0  0  0  0  0  0
   -3.6407    1.0921   -0.6294 H   0  0  0  0  0  0  0  0  0  0  0  0
   -3.4347   -0.1183    0.6581 H   0  0  0  0  0  0  0  0  0  0  0  0
   -5.0274   -0.4693   -1.9560 H   0  0  0  0  0  0  0  0  0  0  0  0
   -5.6905   -0.2881   -0.3251 H   0  0  0  0  0  0  0  0  0  0  0  0
   -3.6745   -3.7302   -1.2422 H   0  0  0  0  0  0  0  0  0  0  0  0
   -3.8351   -2.4871   -2.4927 H   0  0  0  0  0  0  0  0  0  0  0  0
   -2.1808   -2.3032    0.0951 H   0  0  0  0  0  0  0  0  0  0  0  0
   -1.5350   -2.4800   -1.5622 H   0  0  0  0  0  0  0  0  0  0  0  0
    3.5199    0.7628    0.7434 H   0  0  0  0  0  0  0  0  0  0  0  0
    5.3233   -0.5935    1.7198 H   0  0  0  0  0  0  0  0  0  0  0  0
    4.9812   -3.0137    2.1497 H   0  0  0  0  0  0  0  0  0  0  0  0
    2.8053   -4.0688    1.5914 H   0  0  0  0  0  0  0  0  0  0  0  0
    0.9890   -2.7301    0.6134 H   0  0  0  0  0  0  0  0  0  0  0  0
  1  2  1  0
  2  3  1  0
  3  4  1  0
  4  5  2  0
  5  6  1  0
  6  7  1  0
  7  8  1  0
  8  9  1  0
  9 10  1  0
 10 11  1  0
 11 12  1  0
  6 13  2  0
 13 14  1  0
 14 15  1  0
 15 16  2  0
 16 17  1  0
 17 18  2  0
 18 19  1  0
 19 20  2  0
 14 21  2  0
 21  4  1  0
 12  7  1  0
 20 15  1  0
  1 22  1  0
  1 23  1  0
  1 24  1  0
  2 25  1  0
  2 26  1  0
  5 27  1  0
  8 28  1  0
  8 29  1  0
  9 30  1  0
  9 31  1  0
 11 32  1  0
 11 33  1  0
 12 34  1  0
 12 35  1  0
 16 36  1  0
 17 37  1  0
 18 38  1  0
 19 39  1  0
 20 40  1  0
M  END
$$$$
