
     RDKit          3D

 33 35  0  0  0  0  0  0  0  0999 V2000
   -0.0616    1.0122   -2.0582 O   0  0  0  0  0  0  0  0  0  0  0  0
   -0.0292    0.4404   -0.9694 C   0  0  0  0  0  0  0  0  0  0  0  0
   -1.2951    0.0563   -0.2566 C   0  0  0  0  0  0  0  0  0  0  0  0
   -2.4239    0.5924   -0.7641 C   0  0  0  0  0  0  0  0  0  0  0  0
   -3.7277    0.4036   -0.2227 C   0  0  0  0  0  0  0  0  0  0  0  0
   -4.9489    0.7196   -0.8113 C   0  0  0  0  0  0  0  0  0  0  0  0
   -5.9784    0.3780    0.0967 C   0  0  0  0  0  0  0  0  0  0  0  0
   -5.3453   -0.1232    1.2035 C   0  0  0  0  0  0  0  0  0  0  0  0
   -4.0029   -0.1083    1.0267 O   0  0  0  0  0  0  0  0  0  0  0  0
   -1.2144   -0.8869    0.9089 C   0  0  0  0  0  0  0  0  0  0  0  0
    0.0494   -1.7311    0.8878 C   0  0  0  0  0  0  0  0  0  0  0  0
    1.2792   -0.8383    0.8602 C   0  0  0  0  0  0  0  0  0  0  0  0
    1.2776    0.1065   -0.3068 C   0  0  0  0  0  0  0  0  0  0  0  0
    2.3640    0.6857   -0.8576 C   0  0  0  0  0  0  0  0  0  0  0  0
    3.6943    0.5483   -0.3676 C   0  0  0  0  0  0  0  0  0  0  0  0
    4.8784    0.9111   -1.0031 C   0  0  0  0  0  0  0  0  0  0  0  0
    5.9550    0.6105   -0.1362 C   0  0  0  0  0  0  0  0  0  0  0  0
    5.3855    0.0859    0.9941 C   0  0  0  0  0  0  0  0  0  0  0  0
    4.0377    0.0483    0.8698 O   0  0  0  0  0  0  0  0  0  0  0  0
   -2.3697    1.2359   -1.6408 H   0  0  0  0  0  0  0  0  0  0  0  0
   -5.0727    1.1501   -1.7961 H   0  0  0  0  0  0  0  0  0  0  0  0
   -7.0448    0.4873   -0.0391 H   0  0  0  0  0  0  0  0  0  0  0  0
   -5.6878   -0.5104    2.1528 H   0  0  0  0  0  0  0  0  0  0  0  0
   -2.0616   -1.5813    0.9087 H   0  0  0  0  0  0  0  0  0  0  0  0
   -1.2547   -0.3102    1.8413 H   0  0  0  0  0  0  0  0  0  0  0  0
    0.0792   -2.3709    1.7776 H   0  0  0  0  0  0  0  0  0  0  0  0
    0.0454   -2.3981    0.0157 H   0  0  0  0  0  0  0  0  0  0  0  0
    1.3334   -0.2598    1.7907 H   0  0  0  0  0  0  0  0  0  0  0  0
    2.1522   -1.4992    0.8265 H   0  0  0  0  0  0  0  0  0  0  0  0
    2.2507    1.3259   -1.7310 H   0  0  0  0  0  0  0  0  0  0  0  0
    4.9468    1.3453   -1.9916 H   0  0  0  0  0  0  0  0  0  0  0  0
    7.0103    0.7611   -0.3134 H   0  0  0  0  0  0  0  0  0  0  0  0
    5.7796   -0.2869    1.9290 H   0  0  0  0  0  0  0  0  0  0  0  0
  1  2  2  0
  2  3  1  0
  3  4  2  3
  4  5  1  0
  5  6  2  0
  6  7  1  0
  7  8  2  0
  8  9  1  0
  3 10  1  0
 10 11  1  0
 11 12  1  0
 12 13  1  0
 13 14  2  3
 14 15  1  0
 15 16  2  0
 16 17  1  0
 17 18  2  0
 18 19  1  0
 13  2  1  0
 19 15  1  0
  9  5  1  0
  4 20  1  0
  6 21  1  0
  7 22  1  0
  8 23  1  0
 10 24  1  0
 10 25  1  0
 11 26  1  0
 11 27  1  0
 12 28  1  0
 12 29  1  0
 14 30  1  0
 16 31  1  0
 17 32  1  0
 18 33  1  0
M  END
$$$$
