
     RDKit          3D

 84 89  0  0  0  0  0  0  0  0999 V2000
   12.7769    1.2359   -1.3488 C   0  0  0  0  0  0  0  0  0  0  0  0
   11.4258    1.1718   -1.8073 O   0  0  0  0  0  0  0  0  0  0  0  0
   10.4986    1.3435   -0.8221 C   0  0  0  0  0  0  0  0  0  0  0  0
   10.7545    1.5322    0.3580 O   0  0  0  0  0  0  0  0  0  0  0  0
    9.1129    1.2595   -1.4184 C   0  0  0  0  0  0  0  0  0  0  0  0
    8.0270    1.5180   -0.3745 C   0  0  0  0  0  0  0  0  0  0  0  0
    6.6318    1.4404   -0.9953 C   0  0  0  0  0  0  0  0  0  0  0  0
    5.5128    1.8279   -0.0242 C   0  0  0  0  0  0  0  0  0  0  0  0
    5.3962    0.9628    1.2347 C   0  0  0  0  0  0  0  0  0  0  0  0
    5.1956   -0.5363    0.9917 C   0  0  0  0  0  0  0  0  0  0  0  0
    3.9857   -0.9121    0.1315 C   0  0  0  0  0  0  0  0  0  0  0  0
    2.6547   -0.4330    0.7133 C   0  0  0  0  0  0  0  0  0  0  0  0
    1.4609   -0.9321   -0.0892 C   0  0  0  0  0  0  0  0  0  0  0  0
    1.6021   -1.5599   -1.1383 O   0  0  0  0  0  0  0  0  0  0  0  0
    0.2060   -0.6343    0.4209 N   0  0  0  0  0  0  0  0  0  0  0  0
   -0.0360    0.1027    1.6715 C   0  0  0  0  0  0  0  0  0  0  0  0
   -1.4812    0.6328    1.7738 C   0  0  0  0  0  0  0  0  0  0  0  0
   -2.4685   -0.4365    1.6614 N   0  0  0  0  0  0  0  0  0  0  0  0
   -2.0963   -1.5376    0.7105 C   0  0  2  0  0  0  0  0  0  0  0  0
   -0.9853   -1.1391   -0.2764 C   0  0  0  0  0  0  0  0  0  0  0  0
   -3.3889   -1.8776    0.0800 C   0  0  0  0  0  0  0  0  0  0  0  0
   -4.4101   -1.0425    0.5320 C   0  0  0  0  0  0  0  0  0  0  0  0
   -5.5922   -1.4519   -0.0229 C   0  0  0  0  0  0  0  0  0  0  0  0
   -6.8203   -1.0161    0.2544 O   0  0  0  0  0  0  0  0  0  0  0  0
   -5.2900   -2.4920   -0.9255 N   0  0  0  0  0  0  0  0  0  0  0  0
   -6.2115   -3.1079   -1.8308 C   0  0  0  0  0  0  0  0  0  0  0  0
   -6.0728   -4.4546   -2.1887 C   0  0  0  0  0  0  0  0  0  0  0  0
   -6.9843   -5.0470   -3.0671 C   0  0  0  0  0  0  0  0  0  0  0  0
   -8.0307   -4.2991   -3.6029 C   0  0  0  0  0  0  0  0  0  0  0  0
   -8.1660   -2.9541   -3.2662 C   0  0  0  0  0  0  0  0  0  0  0  0
   -7.2606   -2.3576   -2.3852 C   0  0  0  0  0  0  0  0  0  0  0  0
   -3.9197   -2.7945   -0.7899 C   0  0  0  0  0  0  0  0  0  0  0  0
   -3.3262   -3.7694   -1.4731 O   0  0  0  0  0  0  0  0  0  0  0  0
   -3.9058   -0.0477    1.4994 C   0  0  1  0  0  0  0  0  0  0  0  0
   -4.6382   -0.0551    2.8675 C   0  0  0  0  0  0  0  0  0  0  0  0
   -4.7022   -0.9461    3.7025 O   0  0  0  0  0  0  0  0  0  0  0  0
   -5.2261    1.2030    3.0144 N   0  0  0  0  0  0  0  0  0  0  0  0
   -5.0164    2.0112    1.8993 C   0  0  0  0  0  0  0  0  0  0  0  0
   -4.2441    1.3193    0.9524 C   0  0  0  0  0  0  0  0  0  0  0  0
   -3.9388    1.9062   -0.2672 C   0  0  0  0  0  0  0  0  0  0  0  0
   -4.4086    3.1967   -0.5133 C   0  0  0  0  0  0  0  0  0  0  0  0
   -5.1748    3.8830    0.4491 C   0  0  0  0  0  0  0  0  0  0  0  0
   -5.7244    5.4708    0.0329 Cl  0  0  0  0  0  0  0  0  0  0  0  0
   -5.4902    3.3021    1.6919 C   0  0  0  0  0  0  0  0  0  0  0  0
   -6.3319    4.0162    2.7066 C   0  0  0  0  0  0  0  0  0  0  0  0
   12.9688    0.4541   -0.6069 H   0  0  0  0  0  0  0  0  0  0  0  0
   13.4341    1.0678   -2.2067 H   0  0  0  0  0  0  0  0  0  0  0  0
   12.9938    2.2261   -0.9353 H   0  0  0  0  0  0  0  0  0  0  0  0
    9.0396    2.0061   -2.2171 H   0  0  0  0  0  0  0  0  0  0  0  0
    8.9855    0.2600   -1.8488 H   0  0  0  0  0  0  0  0  0  0  0  0
    8.1774    2.5067    0.0763 H   0  0  0  0  0  0  0  0  0  0  0  0
    8.1221    0.7836    0.4334 H   0  0  0  0  0  0  0  0  0  0  0  0
    6.4567    0.4340   -1.3916 H   0  0  0  0  0  0  0  0  0  0  0  0
    6.5839    2.1214   -1.8546 H   0  0  0  0  0  0  0  0  0  0  0  0
    4.5602    1.8134   -0.5667 H   0  0  0  0  0  0  0  0  0  0  0  0
    5.6628    2.8692    0.2881 H   0  0  0  0  0  0  0  0  0  0  0  0
    4.5665    1.3454    1.8416 H   0  0  0  0  0  0  0  0  0  0  0  0
    6.2927    1.0967    1.8521 H   0  0  0  0  0  0  0  0  0  0  0  0
    6.0972   -0.9538    0.5279 H   0  0  0  0  0  0  0  0  0  0  0  0
    5.1029   -1.0321    1.9664 H   0  0  0  0  0  0  0  0  0  0  0  0
    3.9649   -2.0053    0.0333 H   0  0  0  0  0  0  0  0  0  0  0  0
    4.1092   -0.5217   -0.8855 H   0  0  0  0  0  0  0  0  0  0  0  0
    2.5597   -0.7907    1.7444 H   0  0  0  0  0  0  0  0  0  0  0  0
    2.6259    0.6612    0.7089 H   0  0  0  0  0  0  0  0  0  0  0  0
    0.6648    0.9397    1.7429 H   0  0  0  0  0  0  0  0  0  0  0  0
    0.1771   -0.5840    2.4992 H   0  0  0  0  0  0  0  0  0  0  0  0
   -1.5978    1.3742    0.9771 H   0  0  0  0  0  0  0  0  0  0  0  0
   -1.6069    1.1518    2.7304 H   0  0  0  0  0  0  0  0  0  0  0  0
   -1.7502   -2.3855    1.3153 H   0  0  0  0  0  0  0  0  0  0  0  0
   -1.3232   -0.3383   -0.9468 H   0  0  0  0  0  0  0  0  0  0  0  0
   -0.7244   -1.9928   -0.9117 H   0  0  0  0  0  0  0  0  0  0  0  0
   -7.4558   -1.7196    0.0277 H   0  0  0  0  0  0  0  0  0  0  0  0
   -5.2842   -5.0756   -1.7721 H   0  0  0  0  0  0  0  0  0  0  0  0
   -6.8747   -6.0961   -3.3313 H   0  0  0  0  0  0  0  0  0  0  0  0
   -8.7334   -4.7624   -4.2909 H   0  0  0  0  0  0  0  0  0  0  0  0
   -8.9684   -2.3642   -3.7027 H   0  0  0  0  0  0  0  0  0  0  0  0
   -7.3628   -1.2920   -2.1888 H   0  0  0  0  0  0  0  0  0  0  0  0
   -2.3848   -3.7914   -1.2277 H   0  0  0  0  0  0  0  0  0  0  0  0
   -5.7801    1.4339    3.8242 H   0  0  0  0  0  0  0  0  0  0  0  0
   -3.3632    1.3755   -1.0194 H   0  0  0  0  0  0  0  0  0  0  0  0
   -4.1862    3.6692   -1.4682 H   0  0  0  0  0  0  0  0  0  0  0  0
   -7.3742    4.0484    2.3740 H   0  0  0  0  0  0  0  0  0  0  0  0
   -6.3050    3.5281    3.6847 H   0  0  0  0  0  0  0  0  0  0  0  0
   -5.9697    5.0374    2.8651 H   0  0  0  0  0  0  0  0  0  0  0  0
  1  2  1  0
  2  3  1  0
  3  4  2  0
  3  5  1  0
  5  6  1  0
  6  7  1  0
  7  8  1  0
  8  9  1  0
  9 10  1  0
 10 11  1  0
 11 12  1  0
 12 13  1  0
 13 14  2  0
 13 15  1  0
 15 16  1  0
 16 17  1  0
 17 18  1  0
 18 19  1  0
 19 20  1  0
 19 21  1  0
 21 22  1  0
 22 23  2  0
 23 24  1  0
 23 25  1  0
 25 26  1  0
 26 27  2  0
 27 28  1  0
 28 29  2  0
 29 30  1  0
 30 31  2  0
 25 32  1  0
 32 33  1  0
 22 34  1  0
 34 35  1  0
 35 36  2  0
 35 37  1  0
 37 38  1  0
 38 39  2  0
 39 40  1  0
 40 41  2  0
 41 42  1  0
 42 43  1  0
 42 44  2  0
 44 45  1  0
 20 15  1  0
 32 21  2  0
 39 34  1  0
 34 18  1  1
 44 38  1  0
 31 26  1  0
  1 46  1  0
  1 47  1  0
  1 48  1  0
  5 49  1  0
  5 50  1  0
  6 51  1  0
  6 52  1  0
  7 53  1  0
  7 54  1  0
  8 55  1  0
  8 56  1  0
  9 57  1  0
  9 58  1  0
 10 59  1  0
 10 60  1  0
 11 61  1  0
 11 62  1  0
 12 63  1  0
 12 64  1  0
 16 65  1  0
 16 66  1  0
 17 67  1  0
 17 68  1  0
 19 69  1  1
 20 70  1  0
 20 71  1  0
 24 72  1  0
 27 73  1  0
 28 74  1  0
 29 75  1  0
 30 76  1  0
 31 77  1  0
 33 78  1  0
 37 79  1  0
 40 80  1  0
 41 81  1  0
 45 82  1  0
 45 83  1  0
 45 84  1  0
M  END
$$$$
