
     RDKit          3D

 55 60  0  0  0  0  0  0  0  0999 V2000
    4.9369    1.6813    0.8584 O   0  0  0  0  0  0  0  0  0  0  0  0
    4.1990    0.7700    1.2297 C   0  0  0  0  0  0  0  0  0  0  0  0
    4.6612   -0.1676    2.2423 C   0  0  0  0  0  0  0  0  0  0  0  0
    5.9977   -0.6245    2.4451 C   0  0  0  0  0  0  0  0  0  0  0  0
    5.9697   -1.4606    3.5352 C   0  0  0  0  0  0  0  0  0  0  0  0
    4.7130   -1.5312    4.0420 O   0  0  0  0  0  0  0  0  0  0  0  0
    3.9328   -0.7298    3.2722 C   0  0  0  0  0  0  0  0  0  0  0  0
    2.9101    0.6191    0.7037 N   0  0  0  0  0  0  0  0  0  0  0  0
    2.1477   -0.6271    0.7281 C   0  0  0  0  0  0  0  0  0  0  0  0
    1.4105   -0.8896   -0.5846 C   0  0  0  0  0  0  0  0  0  0  0  0
    0.5118    0.2913   -1.0663 C   0  0  0  0  0  0  0  0  0  0  0  0
    0.9093    1.6022   -0.3422 C   0  0  0  0  0  0  0  0  0  0  0  0
    2.4201    1.6839   -0.1625 C   0  0  0  0  0  0  0  0  0  0  0  0
    0.8792    0.4317   -2.4709 O   0  0  0  0  0  0  0  0  0  0  0  0
    0.0216    1.0966   -3.2971 C   0  0  0  0  0  0  0  0  0  0  0  0
    0.5177    1.4268   -4.5593 C   0  0  0  0  0  0  0  0  0  0  0  0
   -0.2813    2.1332   -5.4605 C   0  0  0  0  0  0  0  0  0  0  0  0
   -1.5716    2.5027   -5.0932 C   0  0  0  0  0  0  0  0  0  0  0  0
   -2.3319    3.1848   -5.9588 F   0  0  0  0  0  0  0  0  0  0  0  0
   -2.0833    2.1727   -3.8454 C   0  0  0  0  0  0  0  0  0  0  0  0
   -1.2797    1.4561   -2.9560 C   0  0  0  0  0  0  0  0  0  0  0  0
   -1.7879    1.0678   -1.6346 C   0  0  0  0  0  0  0  0  0  0  0  0
   -2.7749    1.6289   -1.1669 O   0  0  0  0  0  0  0  0  0  0  0  0
   -1.0039   -0.0283   -0.9228 C   0  0  0  0  0  0  0  0  0  0  0  0
   -1.5000   -0.2293    0.5004 C   0  0  0  0  0  0  0  0  0  0  0  0
   -2.4917   -1.3139    0.2433 C   0  0  0  0  0  0  0  0  0  0  0  0
   -3.5131   -1.7064    1.2429 C   0  0  0  0  0  0  0  0  0  0  0  0
   -3.5594   -1.1225    2.5145 C   0  0  0  0  0  0  0  0  0  0  0  0
   -4.5360   -1.5223    3.4334 C   0  0  0  0  0  0  0  0  0  0  0  0
   -5.4627   -2.5034    3.0837 C   0  0  0  0  0  0  0  0  0  0  0  0
   -6.6593   -2.9911    4.2184 Cl  0  0  0  0  0  0  0  0  0  0  0  0
   -5.4233   -3.0908    1.8216 C   0  0  0  0  0  0  0  0  0  0  0  0
   -4.4489   -2.6930    0.9020 C   0  0  0  0  0  0  0  0  0  0  0  0
   -2.3592   -1.9048   -0.9014 N   0  0  0  0  0  0  0  0  0  0  0  0
   -1.3065   -1.2654   -1.5916 O   0  0  0  0  0  0  0  0  0  0  0  0
    6.8678   -0.3661    1.8567 H   0  0  0  0  0  0  0  0  0  0  0  0
    6.7194   -2.0397    4.0566 H   0  0  0  0  0  0  0  0  0  0  0  0
    2.9021   -0.6560    3.5882 H   0  0  0  0  0  0  0  0  0  0  0  0
    2.8103   -1.4750    0.9263 H   0  0  0  0  0  0  0  0  0  0  0  0
    1.4398   -0.5528    1.5591 H   0  0  0  0  0  0  0  0  0  0  0  0
    2.1682   -1.1107   -1.3498 H   0  0  0  0  0  0  0  0  0  0  0  0
    0.8326   -1.8145   -0.4787 H   0  0  0  0  0  0  0  0  0  0  0  0
    0.5848    2.4814   -0.9098 H   0  0  0  0  0  0  0  0  0  0  0  0
    0.4334    1.6601    0.6441 H   0  0  0  0  0  0  0  0  0  0  0  0
    2.9402    1.6058   -1.1248 H   0  0  0  0  0  0  0  0  0  0  0  0
    2.6899    2.6512    0.2774 H   0  0  0  0  0  0  0  0  0  0  0  0
    1.5286    1.1407   -4.8402 H   0  0  0  0  0  0  0  0  0  0  0  0
    0.0943    2.3990   -6.4441 H   0  0  0  0  0  0  0  0  0  0  0  0
   -3.0962    2.4632   -3.5831 H   0  0  0  0  0  0  0  0  0  0  0  0
   -1.9450    0.6609    0.9497 H   0  0  0  0  0  0  0  0  0  0  0  0
   -0.7399   -0.6350    1.1711 H   0  0  0  0  0  0  0  0  0  0  0  0
   -2.8517   -0.3570    2.8175 H   0  0  0  0  0  0  0  0  0  0  0  0
   -4.5695   -1.0643    4.4190 H   0  0  0  0  0  0  0  0  0  0  0  0
   -6.1446   -3.8554    1.5448 H   0  0  0  0  0  0  0  0  0  0  0  0
   -4.4285   -3.1574   -0.0827 H   0  0  0  0  0  0  0  0  0  0  0  0
  1  2  2  0
  2  3  1  0
  3  4  1  0
  4  5  2  0
  5  6  1  0
  6  7  1  0
  2  8  1  0
  8  9  1  0
  9 10  1  0
 10 11  1  0
 11 12  1  0
 12 13  1  0
 11 14  1  0
 14 15  1  0
 15 16  2  0
 16 17  1  0
 17 18  2  0
 18 19  1  0
 18 20  1  0
 20 21  2  0
 21 22  1  0
 22 23  2  0
 22 24  1  0
 24 25  1  0
 25 26  1  0
 26 27  1  0
 27 28  2  0
 28 29  1  0
 29 30  2  0
 30 31  1  0
 30 32  1  0
 32 33  2  0
 26 34  2  0
 34 35  1  0
  7  3  2  0
 13  8  1  0
 21 15  1  0
 35 24  1  0
 24 11  1  0
 33 27  1  0
  4 36  1  0
  5 37  1  0
  7 38  1  0
  9 39  1  0
  9 40  1  0
 10 41  1  0
 10 42  1  0
 12 43  1  0
 12 44  1  0
 13 45  1  0
 13 46  1  0
 16 47  1  0
 17 48  1  0
 20 49  1  0
 25 50  1  0
 25 51  1  0
 28 52  1  0
 29 53  1  0
 32 54  1  0
 33 55  1  0
M  END
$$$$
