
     RDKit          3D

 52 53  0  0  0  0  0  0  0  0999 V2000
    6.1361   -1.4121   -3.0523 C   0  0  0  0  0  0  0  0  0  0  0  0
    4.8591   -2.2454   -3.0532 C   0  0  0  0  0  0  0  0  0  0  0  0
    4.4905   -2.8029   -1.6739 C   0  0  0  0  0  0  0  0  0  0  0  0
    4.1984   -1.8000   -0.6476 N   0  0  0  0  0  0  0  0  0  0  0  0
    3.0088   -0.9890   -0.9707 C   0  0  0  0  0  0  0  0  0  0  0  0
    2.3761   -0.4432    0.3250 C   0  0  0  0  0  0  0  0  0  0  0  0
    2.0216   -1.5614    1.1631 O   0  0  0  0  0  0  0  0  0  0  0  0
    1.1258    0.3899    0.0243 C   0  0  0  0  0  0  0  0  0  0  0  0
    0.4203    0.6056    1.2664 O   0  0  0  0  0  0  0  0  0  0  0  0
    0.2005    1.9298    1.5229 C   0  0  0  0  0  0  0  0  0  0  0  0
    0.9287    2.5051    2.5653 C   0  0  0  0  0  0  0  0  0  0  0  0
    0.6844    3.8286    2.9394 C   0  0  0  0  0  0  0  0  0  0  0  0
   -0.3186    4.5665    2.3032 C   0  0  0  0  0  0  0  0  0  0  0  0
   -1.0663    3.9895    1.2745 C   0  0  0  0  0  0  0  0  0  0  0  0
   -0.7898    2.6744    0.8754 C   0  0  0  0  0  0  0  0  0  0  0  0
   -1.6023    2.0727   -0.1917 C   0  0  0  0  0  0  0  0  0  0  0  0
   -1.1606    2.0499   -1.3378 O   0  0  0  0  0  0  0  0  0  0  0  0
   -2.9367    1.4847    0.1993 C   0  0  0  0  0  0  0  0  0  0  0  0
   -2.8941   -0.0335    0.0400 C   0  0  0  0  0  0  0  0  0  0  0  0
   -4.2044   -0.6734    0.4212 C   0  0  0  0  0  0  0  0  0  0  0  0
   -5.1698   -0.9460   -0.5573 C   0  0  0  0  0  0  0  0  0  0  0  0
   -6.3872   -1.5296   -0.2030 C   0  0  0  0  0  0  0  0  0  0  0  0
   -6.6527   -1.8414    1.1319 C   0  0  0  0  0  0  0  0  0  0  0  0
   -5.7009   -1.5678    2.1133 C   0  0  0  0  0  0  0  0  0  0  0  0
   -4.4821   -0.9849    1.7597 C   0  0  0  0  0  0  0  0  0  0  0  0
    6.0093   -0.4779   -2.4905 H   0  0  0  0  0  0  0  0  0  0  0  0
    6.4122   -1.1464   -4.0818 H   0  0  0  0  0  0  0  0  0  0  0  0
    6.9696   -1.9713   -2.6155 H   0  0  0  0  0  0  0  0  0  0  0  0
    4.0353   -1.6522   -3.4688 H   0  0  0  0  0  0  0  0  0  0  0  0
    4.9992   -3.0985   -3.7355 H   0  0  0  0  0  0  0  0  0  0  0  0
    5.3246   -3.4164   -1.3106 H   0  0  0  0  0  0  0  0  0  0  0  0
    3.6370   -3.4842   -1.7759 H   0  0  0  0  0  0  0  0  0  0  0  0
    3.9689   -2.3079    0.2118 H   0  0  0  0  0  0  0  0  0  0  0  0
    2.2613   -1.6135   -1.4795 H   0  0  0  0  0  0  0  0  0  0  0  0
    3.2908   -0.1691   -1.6413 H   0  0  0  0  0  0  0  0  0  0  0  0
    3.0957    0.1610    0.8862 H   0  0  0  0  0  0  0  0  0  0  0  0
    1.4544   -1.1965    1.8710 H   0  0  0  0  0  0  0  0  0  0  0  0
    0.4455   -0.1741   -0.6279 H   0  0  0  0  0  0  0  0  0  0  0  0
    1.4069    1.3217   -0.4842 H   0  0  0  0  0  0  0  0  0  0  0  0
    1.6896    1.9236    3.0856 H   0  0  0  0  0  0  0  0  0  0  0  0
    1.2639    4.2787    3.7437 H   0  0  0  0  0  0  0  0  0  0  0  0
   -0.5094    5.5940    2.5992 H   0  0  0  0  0  0  0  0  0  0  0  0
   -1.8504    4.5679    0.7857 H   0  0  0  0  0  0  0  0  0  0  0  0
   -3.1887    1.7665    1.2317 H   0  0  0  0  0  0  0  0  0  0  0  0
   -3.7028    1.9291   -0.4489 H   0  0  0  0  0  0  0  0  0  0  0  0
   -2.6422   -0.2997   -0.9967 H   0  0  0  0  0  0  0  0  0  0  0  0
   -2.0916   -0.4632    0.6551 H   0  0  0  0  0  0  0  0  0  0  0  0
   -4.9769   -0.7093   -1.6023 H   0  0  0  0  0  0  0  0  0  0  0  0
   -7.1293   -1.7402   -0.9676 H   0  0  0  0  0  0  0  0  0  0  0  0
   -7.5993   -2.2993    1.4074 H   0  0  0  0  0  0  0  0  0  0  0  0
   -5.9081   -1.8110    3.1558 H   0  0  0  0  0  0  0  0  0  0  0  0
   -3.7498   -0.7781    2.5368 H   0  0  0  0  0  0  0  0  0  0  0  0
  1  2  1  0
  2  3  1  0
  3  4  1  0
  4  5  1  0
  5  6  1  0
  6  7  1  0
  6  8  1  0
  8  9  1  0
  9 10  1  0
 10 11  2  0
 11 12  1  0
 12 13  2  0
 13 14  1  0
 14 15  2  0
 15 16  1  0
 16 17  2  0
 16 18  1  0
 18 19  1  0
 19 20  1  0
 20 21  2  0
 21 22  1  0
 22 23  2  0
 23 24  1  0
 24 25  2  0
 15 10  1  0
 25 20  1  0
  1 26  1  0
  1 27  1  0
  1 28  1  0
  2 29  1  0
  2 30  1  0
  3 31  1  0
  3 32  1  0
  4 33  1  0
  5 34  1  0
  5 35  1  0
  6 36  1  0
  7 37  1  0
  8 38  1  0
  8 39  1  0
 11 40  1  0
 12 41  1  0
 13 42  1  0
 14 43  1  0
 18 44  1  0
 18 45  1  0
 19 46  1  0
 19 47  1  0
 21 48  1  0
 22 49  1  0
 23 50  1  0
 24 51  1  0
 25 52  1  0
M  END
$$$$
