
     RDKit          3D

 43 45  0  0  0  0  0  0  0  0999 V2000
    1.8433   -2.9004    1.3436 O   0  0  0  0  0  0  0  0  0  0  0  0
    2.2269   -1.7352    1.4442 C   0  0  0  0  0  0  0  0  0  0  0  0
    3.7053   -1.4626    1.7157 C   0  0  0  0  0  0  0  0  0  0  0  0
    4.1785    0.3059    1.7042 S   0  0  0  0  0  0  0  0  0  0  0  0
    4.9704    0.4594    0.1088 C   0  0  0  0  0  0  0  0  0  0  0  0
    6.1683    1.1825    0.0403 C   0  0  0  0  0  0  0  0  0  0  0  0
    6.8283    1.3536   -1.1811 C   0  0  0  0  0  0  0  0  0  0  0  0
    6.2934    0.8120   -2.3492 C   0  0  0  0  0  0  0  0  0  0  0  0
    5.0954    0.1033   -2.2965 C   0  0  0  0  0  0  0  0  0  0  0  0
    4.4428   -0.0634   -1.0766 C   0  0  0  0  0  0  0  0  0  0  0  0
    3.2814   -0.7324   -1.0703 F   0  0  0  0  0  0  0  0  0  0  0  0
    1.4225   -0.6157    1.3716 N   0  0  0  0  0  0  0  0  0  0  0  0
    0.0328   -0.5495    1.1635 C   0  0  0  0  0  0  0  0  0  0  0  0
   -0.7947   -1.6597    1.0413 C   0  0  0  0  0  0  0  0  0  0  0  0
   -2.1726   -1.4962    0.8374 C   0  0  0  0  0  0  0  0  0  0  0  0
   -2.7695   -0.2288    0.7484 C   0  0  0  0  0  0  0  0  0  0  0  0
   -4.1496   -0.1312    0.5395 N   0  0  0  0  0  0  0  0  0  0  0  0
   -4.5984   -0.7739   -0.7229 C   0  0  0  0  0  0  0  0  0  0  0  0
   -6.0159   -0.3111   -1.0974 C   0  0  0  0  0  0  0  0  0  0  0  0
   -6.1191    1.1093   -1.2895 O   0  0  0  0  0  0  0  0  0  0  0  0
   -5.2533    1.8628   -0.4232 C   0  0  0  0  0  0  0  0  0  0  0  0
   -4.8720    1.1159    0.8626 C   0  0  0  0  0  0  0  0  0  0  0  0
   -1.9215    0.8761    0.8775 C   0  0  0  0  0  0  0  0  0  0  0  0
   -0.5421    0.7207    1.0810 C   0  0  0  0  0  0  0  0  0  0  0  0
    3.9182   -1.8418    2.7208 H   0  0  0  0  0  0  0  0  0  0  0  0
    4.3113   -2.0335    1.0060 H   0  0  0  0  0  0  0  0  0  0  0  0
    6.6028    1.6178    0.9382 H   0  0  0  0  0  0  0  0  0  0  0  0
    7.7603    1.9136   -1.2193 H   0  0  0  0  0  0  0  0  0  0  0  0
    6.8062    0.9462   -3.2986 H   0  0  0  0  0  0  0  0  0  0  0  0
    4.6600   -0.3174   -3.1979 H   0  0  0  0  0  0  0  0  0  0  0  0
    1.9126    0.2703    1.4411 H   0  0  0  0  0  0  0  0  0  0  0  0
   -0.4095   -2.6720    1.1059 H   0  0  0  0  0  0  0  0  0  0  0  0
   -2.7885   -2.3903    0.7733 H   0  0  0  0  0  0  0  0  0  0  0  0
   -3.9176   -0.5003   -1.5400 H   0  0  0  0  0  0  0  0  0  0  0  0
   -4.5979   -1.8640   -0.6143 H   0  0  0  0  0  0  0  0  0  0  0  0
   -6.7347   -0.5999   -0.3215 H   0  0  0  0  0  0  0  0  0  0  0  0
   -6.3335   -0.7905   -2.0289 H   0  0  0  0  0  0  0  0  0  0  0  0
   -4.3576    2.1253   -0.9978 H   0  0  0  0  0  0  0  0  0  0  0  0
   -5.7716    2.7953   -0.1782 H   0  0  0  0  0  0  0  0  0  0  0  0
   -4.3205    1.7656    1.5492 H   0  0  0  0  0  0  0  0  0  0  0  0
   -5.7893    0.8313    1.3935 H   0  0  0  0  0  0  0  0  0  0  0  0
   -2.3023    1.8888    0.7962 H   0  0  0  0  0  0  0  0  0  0  0  0
    0.0710    1.6139    1.1661 H   0  0  0  0  0  0  0  0  0  0  0  0
  1  2  2  0
  2  3  1  0
  3  4  1  0
  4  5  1  0
  5  6  2  0
  6  7  1  0
  7  8  2  0
  8  9  1  0
  9 10  2  0
 10 11  1  0
  2 12  1  0
 12 13  1  0
 13 14  2  0
 14 15  1  0
 15 16  2  0
 16 17  1  0
 17 18  1  0
 18 19  1  0
 19 20  1  0
 20 21  1  0
 21 22  1  0
 16 23  1  0
 23 24  2  0
 10  5  1  0
 24 13  1  0
 22 17  1  0
  3 25  1  0
  3 26  1  0
  6 27  1  0
  7 28  1  0
  8 29  1  0
  9 30  1  0
 12 31  1  0
 14 32  1  0
 15 33  1  0
 18 34  1  0
 18 35  1  0
 19 36  1  0
 19 37  1  0
 21 38  1  0
 21 39  1  0
 22 40  1  0
 22 41  1  0
 23 42  1  0
 24 43  1  0
M  END
$$$$
