
     RDKit          3D

 46 48  0  0  0  0  0  0  0  0999 V2000
   -2.8980    1.2938    1.7991 C   0  0  0  0  0  0  0  0  0  0  0  0
   -2.2442   -0.0706    1.9143 C   0  0  0  0  0  0  0  0  0  0  0  0
   -2.6345   -0.9236    0.7508 N   0  0  0  0  0  4  0  0  0  0  0  0
   -1.8138   -0.9745   -0.3418 C   0  0  0  0  0  0  0  0  0  0  0  0
   -0.6157   -0.1309   -0.4303 C   0  0  0  0  0  0  0  0  0  0  0  0
    0.6230   -0.6463   -0.3723 C   0  0  0  0  0  0  0  0  0  0  0  0
    1.8548    0.1510   -0.4696 C   0  0  0  0  0  0  0  0  0  0  0  0
    1.9524    1.4647   -0.0118 C   0  0  0  0  0  0  0  0  0  0  0  0
    3.1662    2.1669   -0.0983 C   0  0  0  0  0  0  0  0  0  0  0  0
    4.3314    1.5980   -0.6388 C   0  0  0  0  0  0  0  0  0  0  0  0
    5.5391    2.2978   -0.6994 N   0  0  0  0  0  0  0  0  0  0  0  0
    5.5247    3.7569   -0.5933 C   0  0  0  0  0  0  0  0  0  0  0  0
    6.6624    1.7341   -1.4483 C   0  0  0  0  0  0  0  0  0  0  0  0
    4.2126    0.2656   -1.0658 C   0  0  0  0  0  0  0  0  0  0  0  0
    3.0048   -0.4462   -0.9854 C   0  0  0  0  0  0  0  0  0  0  0  0
   -2.1086   -1.8106   -1.4189 C   0  0  0  0  0  0  0  0  0  0  0  0
   -3.2422   -2.6001   -1.3945 C   0  0  0  0  0  0  0  0  0  0  0  0
   -4.0900   -2.5418   -0.2957 C   0  0  0  0  0  0  0  0  0  0  0  0
   -5.2484   -3.3326   -0.2748 C   0  0  0  0  0  0  0  0  0  0  0  0
   -6.1207   -3.2860    0.8086 C   0  0  0  0  0  0  0  0  0  0  0  0
   -5.8462   -2.4466    1.8791 C   0  0  0  0  0  0  0  0  0  0  0  0
   -4.6935   -1.6534    1.8731 C   0  0  0  0  0  0  0  0  0  0  0  0
   -3.7837   -1.6821    0.7964 C   0  0  0  0  0  0  0  0  0  0  0  0
   -2.6124    1.9219    2.6484 H   0  0  0  0  0  0  0  0  0  0  0  0
   -2.5934    1.8053    0.8811 H   0  0  0  0  0  0  0  0  0  0  0  0
   -3.9892    1.2187    1.7849 H   0  0  0  0  0  0  0  0  0  0  0  0
   -2.5182   -0.5840    2.8400 H   0  0  0  0  0  0  0  0  0  0  0  0
   -1.1553    0.0187    1.9574 H   0  0  0  0  0  0  0  0  0  0  0  0
   -0.7893    0.9326   -0.5687 H   0  0  0  0  0  0  0  0  0  0  0  0
    0.7783   -1.7196   -0.2639 H   0  0  0  0  0  0  0  0  0  0  0  0
    1.1051    1.9746    0.4362 H   0  0  0  0  0  0  0  0  0  0  0  0
    3.1748    3.1819    0.2887 H   0  0  0  0  0  0  0  0  0  0  0  0
    4.9007    4.2017   -1.3763 H   0  0  0  0  0  0  0  0  0  0  0  0
    5.1659    4.0782    0.3903 H   0  0  0  0  0  0  0  0  0  0  0  0
    6.5319    4.1759   -0.6973 H   0  0  0  0  0  0  0  0  0  0  0  0
    6.9618    0.7620   -1.0419 H   0  0  0  0  0  0  0  0  0  0  0  0
    6.4131    1.6293   -2.5100 H   0  0  0  0  0  0  0  0  0  0  0  0
    7.5491    2.3740   -1.3770 H   0  0  0  0  0  0  0  0  0  0  0  0
    5.0661   -0.2659   -1.4772 H   0  0  0  0  0  0  0  0  0  0  0  0
    2.9913   -1.4749   -1.3392 H   0  0  0  0  0  0  0  0  0  0  0  0
   -1.4546   -1.8444   -2.2898 H   0  0  0  0  0  0  0  0  0  0  0  0
   -3.4596   -3.2489   -2.2427 H   0  0  0  0  0  0  0  0  0  0  0  0
   -5.4894   -3.9960   -1.1059 H   0  0  0  0  0  0  0  0  0  0  0  0
   -7.0181   -3.9033    0.8136 H   0  0  0  0  0  0  0  0  0  0  0  0
   -6.5345   -2.4072    2.7227 H   0  0  0  0  0  0  0  0  0  0  0  0
   -4.5558   -1.0138    2.7393 H   0  0  0  0  0  0  0  0  0  0  0  0
  1  2  1  0
  2  3  1  0
  3  4  2  0
  4  5  1  0
  5  6  2  3
  6  7  1  0
  7  8  2  0
  8  9  1  0
  9 10  2  0
 10 11  1  0
 11 12  1  0
 11 13  1  0
 10 14  1  0
 14 15  2  0
  4 16  1  0
 16 17  2  0
 17 18  1  0
 18 19  2  0
 19 20  1  0
 20 21  2  0
 21 22  1  0
 22 23  2  0
 23  3  1  0
 15  7  1  0
 23 18  1  0
  1 24  1  0
  1 25  1  0
  1 26  1  0
  2 27  1  0
  2 28  1  0
  5 29  1  0
  6 30  1  0
  8 31  1  0
  9 32  1  0
 12 33  1  0
 12 34  1  0
 12 35  1  0
 13 36  1  0
 13 37  1  0
 13 38  1  0
 14 39  1  0
 15 40  1  0
 16 41  1  0
 17 42  1  0
 19 43  1  0
 20 44  1  0
 21 45  1  0
 22 46  1  0
M  CHG  1   3   1
M  END
$$$$
