
     RDKit          3D

 57 60  0  0  0  0  0  0  0  0999 V2000
   -0.7956   -0.6782    3.5402 C   0  0  0  0  0  0  0  0  0  0  0  0
   -1.3520    0.5195    2.7790 C   0  0  0  0  0  0  0  0  0  0  0  0
   -0.6427    0.9131    1.4701 C   0  0  0  0  0  0  0  0  0  0  0  0
   -0.2260   -0.4685    0.3404 S   0  0  0  0  0  0  0  0  0  0  0  0
   -1.8335   -1.0758   -0.0239 C   0  0  0  0  0  0  0  0  0  0  0  0
   -2.7357   -0.1668   -0.2471 N   0  0  0  0  0  0  0  0  0  0  0  0
   -4.0075   -0.6608   -0.5240 C   0  0  0  0  0  0  0  0  0  0  0  0
   -5.1267    0.1522   -0.8084 C   0  0  0  0  0  0  0  0  0  0  0  0
   -6.2504   -0.6199   -1.0290 C   0  0  0  0  0  0  0  0  0  0  0  0
   -5.9179   -2.3016   -0.8842 S   0  0  0  0  0  0  0  0  0  0  0  0
   -4.2880   -1.9921   -0.5351 C   0  0  0  0  0  0  0  0  0  0  0  0
   -3.2981   -2.9945   -0.2787 C   0  0  0  0  0  0  0  0  0  0  0  0
   -3.5387   -4.2000   -0.2558 O   0  0  0  0  0  0  0  0  0  0  0  0
   -2.0219   -2.4607   -0.0478 N   0  0  0  0  0  0  0  0  0  0  0  0
   -0.9489   -3.4401    0.1671 C   0  0  0  0  0  0  0  0  0  0  0  0
   -0.1880   -3.7737   -1.1029 C   0  0  0  0  0  0  0  0  0  0  0  0
    1.1522   -3.3880   -1.2562 C   0  0  0  0  0  0  0  0  0  0  0  0
    1.8574   -3.7017   -2.4226 C   0  0  0  0  0  0  0  0  0  0  0  0
    1.2357   -4.4142   -3.4533 C   0  0  0  0  0  0  0  0  0  0  0  0
    2.0254   -4.7333   -4.6670 C   0  0  0  0  0  0  0  0  0  0  0  0
    3.1701   -4.3832   -4.8847 O   0  0  0  0  0  0  0  0  0  0  0  0
    1.3467   -5.4907   -5.5495 O   0  0  0  0  0  0  0  0  0  0  0  0
   -0.0969   -4.8123   -3.3061 C   0  0  0  0  0  0  0  0  0  0  0  0
   -0.8010   -4.4956   -2.1391 C   0  0  0  0  0  0  0  0  0  0  0  0
    0.6599    1.6807    1.7663 C   0  0  0  0  0  0  0  0  0  0  0  0
    1.5338    1.2111    2.4897 O   0  0  0  0  0  0  0  0  0  0  0  0
    0.7128    2.9194    1.1376 N   0  0  0  0  0  0  0  0  0  0  0  0
    1.7541    3.8709    1.1989 C   0  0  0  0  0  0  0  0  0  0  0  0
    2.9690    3.6606    1.8490 C   0  0  0  0  0  0  0  0  0  0  0  0
    3.9524    4.6584    1.8644 C   0  0  0  0  0  0  0  0  0  0  0  0
    3.7386    5.8911    1.2340 C   0  0  0  0  0  0  0  0  0  0  0  0
    4.8145    6.9402    1.2653 C   0  0  0  0  0  0  0  0  0  0  0  0
    2.5151    6.0986    0.5842 C   0  0  0  0  0  0  0  0  0  0  0  0
    2.1508    7.5999   -0.1960 Cl  0  0  0  0  0  0  0  0  0  0  0  0
    1.5353    5.0989    0.5639 C   0  0  0  0  0  0  0  0  0  0  0  0
   -1.3444   -0.8014    4.4802 H   0  0  0  0  0  0  0  0  0  0  0  0
    0.2596   -0.5508    3.7908 H   0  0  0  0  0  0  0  0  0  0  0  0
   -0.9077   -1.6089    2.9761 H   0  0  0  0  0  0  0  0  0  0  0  0
   -2.4079    0.3187    2.5638 H   0  0  0  0  0  0  0  0  0  0  0  0
   -1.3447    1.3840    3.4547 H   0  0  0  0  0  0  0  0  0  0  0  0
   -1.3125    1.5922    0.9304 H   0  0  0  0  0  0  0  0  0  0  0  0
   -5.1204    1.2335   -0.8512 H   0  0  0  0  0  0  0  0  0  0  0  0
   -7.2510   -0.2862   -1.2660 H   0  0  0  0  0  0  0  0  0  0  0  0
   -0.2626   -3.0831    0.9418 H   0  0  0  0  0  0  0  0  0  0  0  0
   -1.3587   -4.3740    0.5713 H   0  0  0  0  0  0  0  0  0  0  0  0
    1.6674   -2.8420   -0.4669 H   0  0  0  0  0  0  0  0  0  0  0  0
    2.8961   -3.3896   -2.5204 H   0  0  0  0  0  0  0  0  0  0  0  0
    1.9857   -5.6317   -6.2796 H   0  0  0  0  0  0  0  0  0  0  0  0
   -0.5982   -5.3743   -4.0895 H   0  0  0  0  0  0  0  0  0  0  0  0
   -1.8314   -4.8349   -2.0454 H   0  0  0  0  0  0  0  0  0  0  0  0
   -0.0925    3.1915    0.5841 H   0  0  0  0  0  0  0  0  0  0  0  0
    3.1977    2.7187    2.3422 H   0  0  0  0  0  0  0  0  0  0  0  0
    4.8889    4.4573    2.3804 H   0  0  0  0  0  0  0  0  0  0  0  0
    5.1411    7.1774    0.2452 H   0  0  0  0  0  0  0  0  0  0  0  0
    4.4482    7.8500    1.7492 H   0  0  0  0  0  0  0  0  0  0  0  0
    5.6970    6.5957    1.8167 H   0  0  0  0  0  0  0  0  0  0  0  0
    0.5960    5.2950    0.0533 H   0  0  0  0  0  0  0  0  0  0  0  0
  1  2  1  0
  2  3  1  0
  3  4  1  0
  4  5  1  0
  5  6  2  0
  6  7  1  0
  7  8  1  0
  8  9  2  0
  9 10  1  0
 10 11  1  0
 11 12  1  0
 12 13  2  0
 12 14  1  0
 14 15  1  0
 15 16  1  0
 16 17  2  0
 17 18  1  0
 18 19  2  0
 19 20  1  0
 20 21  2  0
 20 22  1  0
 19 23  1  0
 23 24  2  0
  3 25  1  0
 25 26  2  0
 25 27  1  0
 27 28  1  0
 28 29  2  0
 29 30  1  0
 30 31  2  0
 31 32  1  0
 31 33  1  0
 33 34  1  0
 33 35  2  0
 14  5  1  0
 24 16  1  0
 35 28  1  0
 11  7  2  0
  1 36  1  0
  1 37  1  0
  1 38  1  0
  2 39  1  0
  2 40  1  0
  3 41  1  0
  8 42  1  0
  9 43  1  0
 15 44  1  0
 15 45  1  0
 17 46  1  0
 18 47  1  0
 22 48  1  0
 23 49  1  0
 24 50  1  0
 27 51  1  0
 29 52  1  0
 30 53  1  0
 32 54  1  0
 32 55  1  0
 32 56  1  0
 35 57  1  0
M  END
$$$$
