
     RDKit          3D

 34 35  0  0  0  0  0  0  0  0999 V2000
    0.7511   -2.5169    1.7329 C   0  0  0  0  0  0  0  0  0  0  0  0
   -0.2169   -1.9262    0.8253 N   0  0  0  0  0  0  0  0  0  0  0  0
   -0.0382   -0.7534    0.3154 C   0  0  0  0  0  0  0  0  0  0  0  0
    1.0734    0.1860    0.6426 C   0  0  0  0  0  0  0  0  0  0  0  0
    1.8528    0.7298   -0.3843 C   0  0  0  0  0  0  0  0  0  0  0  0
    2.8788    1.6254   -0.0783 C   0  0  0  0  0  0  0  0  0  0  0  0
    3.1225    1.9829    1.2481 C   0  0  0  0  0  0  0  0  0  0  0  0
    2.3401    1.4496    2.2724 C   0  0  0  0  0  0  0  0  0  0  0  0
    1.3136    0.5535    1.9714 C   0  0  0  0  0  0  0  0  0  0  0  0
   -1.0236   -0.2962   -0.7152 C   0  0  0  0  0  0  0  0  0  0  0  0
   -1.8881    0.7866   -0.4460 C   0  0  0  0  0  0  0  0  0  0  0  0
   -1.9019    1.5078    0.8724 C   0  0  0  0  0  0  0  0  0  0  0  0
   -2.7663    1.2151   -1.4533 C   0  0  0  0  0  0  0  0  0  0  0  0
   -2.8152    0.5617   -2.6832 C   0  0  0  0  0  0  0  0  0  0  0  0
   -1.9845   -0.5291   -2.9295 C   0  0  0  0  0  0  0  0  0  0  0  0
   -1.0744   -0.9690   -1.9573 C   0  0  0  0  0  0  0  0  0  0  0  0
   -0.2112   -2.1642   -2.2576 C   0  0  0  0  0  0  0  0  0  0  0  0
    1.7868   -2.2766    1.4730 H   0  0  0  0  0  0  0  0  0  0  0  0
    0.6617   -3.6069    1.6799 H   0  0  0  0  0  0  0  0  0  0  0  0
    0.5469   -2.2247    2.7669 H   0  0  0  0  0  0  0  0  0  0  0  0
    1.6750    0.4583   -1.4212 H   0  0  0  0  0  0  0  0  0  0  0  0
    3.4884    2.0449   -0.8748 H   0  0  0  0  0  0  0  0  0  0  0  0
    3.9221    2.6812    1.4835 H   0  0  0  0  0  0  0  0  0  0  0  0
    2.5268    1.7352    3.3046 H   0  0  0  0  0  0  0  0  0  0  0  0
    0.6937    0.1582    2.7715 H   0  0  0  0  0  0  0  0  0  0  0  0
   -1.0843    2.2332    0.9171 H   0  0  0  0  0  0  0  0  0  0  0  0
   -2.8427    2.0514    1.0138 H   0  0  0  0  0  0  0  0  0  0  0  0
   -1.8219    0.8051    1.7076 H   0  0  0  0  0  0  0  0  0  0  0  0
   -3.4337    2.0566   -1.2786 H   0  0  0  0  0  0  0  0  0  0  0  0
   -3.5122    0.8960   -3.4477 H   0  0  0  0  0  0  0  0  0  0  0  0
   -2.0521   -1.0371   -3.8892 H   0  0  0  0  0  0  0  0  0  0  0  0
   -0.2109   -2.3931   -3.3290 H   0  0  0  0  0  0  0  0  0  0  0  0
   -0.5860   -3.0447   -1.7267 H   0  0  0  0  0  0  0  0  0  0  0  0
    0.8302   -1.9805   -1.9759 H   0  0  0  0  0  0  0  0  0  0  0  0
  1  2  1  0
  2  3  2  3
  3  4  1  0
  4  5  2  0
  5  6  1  0
  6  7  2  0
  7  8  1  0
  8  9  2  0
  3 10  1  0
 10 11  2  0
 11 12  1  0
 11 13  1  0
 13 14  2  0
 14 15  1  0
 15 16  2  0
 16 17  1  0
  9  4  1  0
 16 10  1  0
  1 18  1  0
  1 19  1  0
  1 20  1  0
  5 21  1  0
  6 22  1  0
  7 23  1  0
  8 24  1  0
  9 25  1  0
 12 26  1  0
 12 27  1  0
 12 28  1  0
 13 29  1  0
 14 30  1  0
 15 31  1  0
 17 32  1  0
 17 33  1  0
 17 34  1  0
M  END
$$$$
