
     RDKit          3D

 31 32  0  0  0  0  0  0  0  0999 V2000
    3.9619    1.8910    1.1634 O   0  0  0  0  0  0  0  0  0  0  0  0
    4.4325    1.0714    0.3753 C   0  0  0  0  0  0  0  0  0  0  0  0
    3.7179    0.0722   -0.2765 N   0  0  0  0  0  0  0  0  0  0  0  0
    2.3421   -0.2133   -0.1797 C   0  0  0  0  0  0  0  0  0  0  0  0
    1.8558   -1.2765   -0.9466 C   0  0  0  0  0  0  0  0  0  0  0  0
    0.5001   -1.6249   -0.9072 C   0  0  0  0  0  0  0  0  0  0  0  0
   -0.4032   -0.9255   -0.0989 C   0  0  0  0  0  0  0  0  0  0  0  0
   -1.7605   -1.2849   -0.1251 N   0  0  0  0  0  0  0  0  0  0  0  0
   -2.9333   -0.5551    0.1376 C   0  0  0  0  0  0  0  0  0  0  0  0
   -3.0114    0.8359    0.0068 C   0  0  0  0  0  0  0  0  0  0  0  0
   -4.1889    1.5247    0.3143 C   0  0  0  0  0  0  0  0  0  0  0  0
   -5.3066    0.8293    0.7670 C   0  0  0  0  0  0  0  0  0  0  0  0
   -5.2469   -0.5538    0.9103 C   0  0  0  0  0  0  0  0  0  0  0  0
   -4.0681   -1.2381    0.5998 C   0  0  0  0  0  0  0  0  0  0  0  0
    0.0918    0.1391    0.6581 C   0  0  0  0  0  0  0  0  0  0  0  0
    1.4492    0.4909    0.6243 C   0  0  0  0  0  0  0  0  0  0  0  0
    5.9237    1.0965    0.0373 C   0  0  0  0  0  0  0  0  0  0  0  0
    6.1321    1.3725   -1.7069 Cl  0  0  0  0  0  0  0  0  0  0  0  0
    6.6645   -0.4502    0.5074 Cl  0  0  0  0  0  0  0  0  0  0  0  0
    4.2532   -0.5231   -0.9008 H   0  0  0  0  0  0  0  0  0  0  0  0
    2.5171   -1.8490   -1.5917 H   0  0  0  0  0  0  0  0  0  0  0  0
    0.1524   -2.4459   -1.5294 H   0  0  0  0  0  0  0  0  0  0  0  0
   -1.9269   -2.2564   -0.3598 H   0  0  0  0  0  0  0  0  0  0  0  0
   -2.1631    1.4010   -0.3695 H   0  0  0  0  0  0  0  0  0  0  0  0
   -4.2298    2.6042    0.1955 H   0  0  0  0  0  0  0  0  0  0  0  0
   -6.2212    1.3645    1.0076 H   0  0  0  0  0  0  0  0  0  0  0  0
   -6.1141   -1.1018    1.2688 H   0  0  0  0  0  0  0  0  0  0  0  0
   -4.0393   -2.3162    0.7351 H   0  0  0  0  0  0  0  0  0  0  0  0
   -0.5673    0.6968    1.3186 H   0  0  0  0  0  0  0  0  0  0  0  0
    1.7666    1.3211    1.2467 H   0  0  0  0  0  0  0  0  0  0  0  0
    6.4196    1.9040    0.5828 H   0  0  0  0  0  0  0  0  0  0  0  0
  1  2  2  0
  2  3  1  0
  3  4  1  0
  4  5  2  0
  5  6  1  0
  6  7  2  0
  7  8  1  0
  8  9  1  0
  9 10  2  0
 10 11  1  0
 11 12  2  0
 12 13  1  0
 13 14  2  0
  7 15  1  0
 15 16  2  0
  2 17  1  0
 17 18  1  0
 17 19  1  0
 16  4  1  0
 14  9  1  0
  3 20  1  0
  5 21  1  0
  6 22  1  0
  8 23  1  0
 10 24  1  0
 11 25  1  0
 12 26  1  0
 13 27  1  0
 14 28  1  0
 15 29  1  0
 16 30  1  0
 17 31  1  0
M  END
$$$$
