
     RDKit          3D

 84 89  0  0  0  0  0  0  0  0999 V2000
    9.0271   -3.2944    0.3289 C   0  0  0  0  0  0  0  0  0  0  0  0
    8.9837   -2.0662    1.0565 O   0  0  0  0  0  0  0  0  0  0  0  0
    9.3776   -0.9814    0.3335 C   0  0  0  0  0  0  0  0  0  0  0  0
    9.7704   -1.0128   -0.8249 O   0  0  0  0  0  0  0  0  0  0  0  0
    9.3095    0.2742    1.1698 C   0  0  0  0  0  0  0  0  0  0  0  0
    7.9122    0.5765    1.7098 C   0  0  0  0  0  0  0  0  0  0  0  0
    7.0427    1.4415    0.7882 C   0  0  0  0  0  0  0  0  0  0  0  0
    6.7185    0.7930   -0.5597 C   0  0  0  0  0  0  0  0  0  0  0  0
    5.7653    1.6314   -1.4203 C   0  0  0  0  0  0  0  0  0  0  0  0
    4.3385    1.7769   -0.8784 C   0  0  0  0  0  0  0  0  0  0  0  0
    3.5503    0.4618   -0.8975 C   0  0  0  0  0  0  0  0  0  0  0  0
    2.1447    0.6149   -0.3092 C   0  0  0  0  0  0  0  0  0  0  0  0
    1.1655    1.3612   -1.2093 C   0  0  0  0  0  0  0  0  0  0  0  0
    1.4754    1.7044   -2.3505 O   0  0  0  0  0  0  0  0  0  0  0  0
   -0.1004    1.6048   -0.6843 N   0  0  0  0  0  0  0  0  0  0  0  0
   -0.9913    2.5047   -1.4095 C   0  0  0  0  0  0  0  0  0  0  0  0
   -2.4593    2.0942   -1.2408 C   0  0  0  0  0  0  0  0  0  0  0  0
   -2.9225    2.0829    0.1656 N   0  0  0  0  0  0  0  0  0  0  0  0
   -1.9518    1.2648    1.0150 C   0  0  2  0  0  0  0  0  0  0  0  0
   -0.4461    1.4155    0.7255 C   0  0  0  0  0  0  0  0  0  0  0  0
   -2.5252   -0.1046    0.9005 C   0  0  0  0  0  0  0  0  0  0  0  0
   -3.8703   -0.0409    0.5189 C   0  0  0  0  0  0  0  0  0  0  0  0
   -4.3803   -1.3101    0.4964 C   0  0  0  0  0  0  0  0  0  0  0  0
   -5.6447   -1.6852    0.3082 O   0  0  0  0  0  0  0  0  0  0  0  0
   -3.3151   -2.1859    0.7869 N   0  0  0  0  0  0  0  0  0  0  0  0
   -3.3935   -3.6092    0.8244 C   0  0  0  0  0  0  0  0  0  0  0  0
   -2.6979   -4.3260    1.8071 C   0  0  0  0  0  0  0  0  0  0  0  0
   -2.7756   -5.7192    1.8385 C   0  0  0  0  0  0  0  0  0  0  0  0
   -3.5470   -6.3984    0.8969 C   0  0  0  0  0  0  0  0  0  0  0  0
   -4.2410   -5.6887   -0.0821 C   0  0  0  0  0  0  0  0  0  0  0  0
   -4.1668   -4.2953   -0.1220 C   0  0  0  0  0  0  0  0  0  0  0  0
   -2.1600   -1.4154    1.0308 C   0  0  0  0  0  0  0  0  0  0  0  0
   -0.9466   -1.9114    1.2694 O   0  0  0  0  0  0  0  0  0  0  0  0
   -4.2653    1.3724    0.3265 C   0  0  1  0  0  0  0  0  0  0  0  0
   -4.9862    1.9674    1.5869 C   0  0  0  0  0  0  0  0  0  0  0  0
   -4.5853    2.0335    2.7416 O   0  0  0  0  0  0  0  0  0  0  0  0
   -6.2190    2.4517    1.1611 N   0  0  0  0  0  0  0  0  0  0  0  0
   -6.4461    2.1784   -0.1840 C   0  0  0  0  0  0  0  0  0  0  0  0
   -5.3368    1.5089   -0.7294 C   0  0  0  0  0  0  0  0  0  0  0  0
   -5.3893    1.0544   -2.0397 C   0  0  0  0  0  0  0  0  0  0  0  0
   -6.5349    1.3148   -2.7949 C   0  0  0  0  0  0  0  0  0  0  0  0
   -7.6219    2.0128   -2.2395 C   0  0  0  0  0  0  0  0  0  0  0  0
   -8.9971    2.2750   -3.2560 Cl  0  0  0  0  0  0  0  0  0  0  0  0
   -7.6001    2.4643   -0.9084 C   0  0  0  0  0  0  0  0  0  0  0  0
   -8.7706    3.1822   -0.3050 C   0  0  0  0  0  0  0  0  0  0  0  0
    8.3548   -3.2513   -0.5343 H   0  0  0  0  0  0  0  0  0  0  0  0
    8.6861   -4.0931    0.9931 H   0  0  0  0  0  0  0  0  0  0  0  0
   10.0512   -3.5194    0.0154 H   0  0  0  0  0  0  0  0  0  0  0  0
    9.6887    1.1136    0.5760 H   0  0  0  0  0  0  0  0  0  0  0  0
   10.0091    0.1362    2.0030 H   0  0  0  0  0  0  0  0  0  0  0  0
    8.0292    1.1277    2.6518 H   0  0  0  0  0  0  0  0  0  0  0  0
    7.3702   -0.3436    1.9552 H   0  0  0  0  0  0  0  0  0  0  0  0
    7.5390    2.4044    0.6186 H   0  0  0  0  0  0  0  0  0  0  0  0
    6.1162    1.6599    1.3293 H   0  0  0  0  0  0  0  0  0  0  0  0
    7.6470    0.6727   -1.1290 H   0  0  0  0  0  0  0  0  0  0  0  0
    6.3124   -0.2124   -0.4065 H   0  0  0  0  0  0  0  0  0  0  0  0
    5.7188    1.1878   -2.4231 H   0  0  0  0  0  0  0  0  0  0  0  0
    6.1949    2.6334   -1.5471 H   0  0  0  0  0  0  0  0  0  0  0  0
    4.3556    2.1891    0.1355 H   0  0  0  0  0  0  0  0  0  0  0  0
    3.8200    2.5179   -1.4975 H   0  0  0  0  0  0  0  0  0  0  0  0
    4.0789   -0.2877   -0.2996 H   0  0  0  0  0  0  0  0  0  0  0  0
    3.4954    0.0743   -1.9212 H   0  0  0  0  0  0  0  0  0  0  0  0
    2.2190    1.1292    0.6551 H   0  0  0  0  0  0  0  0  0  0  0  0
    1.7320   -0.3878   -0.1410 H   0  0  0  0  0  0  0  0  0  0  0  0
   -0.7427    2.5130   -2.4762 H   0  0  0  0  0  0  0  0  0  0  0  0
   -0.8246    3.5192   -1.0263 H   0  0  0  0  0  0  0  0  0  0  0  0
   -2.5652    1.1049   -1.7023 H   0  0  0  0  0  0  0  0  0  0  0  0
   -3.0709    2.8025   -1.8103 H   0  0  0  0  0  0  0  0  0  0  0  0
   -2.0922    1.5762    2.0591 H   0  0  0  0  0  0  0  0  0  0  0  0
    0.1025    0.5698    1.1467 H   0  0  0  0  0  0  0  0  0  0  0  0
   -0.0798    2.3172    1.2343 H   0  0  0  0  0  0  0  0  0  0  0  0
   -5.7780   -2.5694    0.6969 H   0  0  0  0  0  0  0  0  0  0  0  0
   -2.1298   -3.8191    2.5848 H   0  0  0  0  0  0  0  0  0  0  0  0
   -2.2420   -6.2750    2.6058 H   0  0  0  0  0  0  0  0  0  0  0  0
   -3.6068   -7.4841    0.9253 H   0  0  0  0  0  0  0  0  0  0  0  0
   -4.8326   -6.2237   -0.8210 H   0  0  0  0  0  0  0  0  0  0  0  0
   -4.6826   -3.7693   -0.9244 H   0  0  0  0  0  0  0  0  0  0  0  0
   -0.9084   -2.8264    0.9350 H   0  0  0  0  0  0  0  0  0  0  0  0
   -6.8670    2.8814    1.8028 H   0  0  0  0  0  0  0  0  0  0  0  0
   -4.5757    0.4839   -2.4757 H   0  0  0  0  0  0  0  0  0  0  0  0
   -6.5847    0.9588   -3.8218 H   0  0  0  0  0  0  0  0  0  0  0  0
   -8.5615    3.5552    0.7007 H   0  0  0  0  0  0  0  0  0  0  0  0
   -9.6301    2.5080   -0.2353 H   0  0  0  0  0  0  0  0  0  0  0  0
   -9.0403    4.0525   -0.9106 H   0  0  0  0  0  0  0  0  0  0  0  0
  1  2  1  0
  2  3  1  0
  3  4  2  0
  3  5  1  0
  5  6  1  0
  6  7  1  0
  7  8  1  0
  8  9  1  0
  9 10  1  0
 10 11  1  0
 11 12  1  0
 12 13  1  0
 13 14  2  0
 13 15  1  0
 15 16  1  0
 16 17  1  0
 17 18  1  0
 18 19  1  0
 19 20  1  0
 19 21  1  0
 21 22  1  0
 22 23  2  0
 23 24  1  0
 23 25  1  0
 25 26  1  0
 26 27  2  0
 27 28  1  0
 28 29  2  0
 29 30  1  0
 30 31  2  0
 25 32  1  0
 32 33  1  0
 22 34  1  0
 34 35  1  0
 35 36  2  0
 35 37  1  0
 37 38  1  0
 38 39  2  0
 39 40  1  0
 40 41  2  0
 41 42  1  0
 42 43  1  0
 42 44  2  0
 44 45  1  0
 20 15  1  0
 32 21  2  0
 39 34  1  0
 34 18  1  6
 44 38  1  0
 31 26  1  0
  1 46  1  0
  1 47  1  0
  1 48  1  0
  5 49  1  0
  5 50  1  0
  6 51  1  0
  6 52  1  0
  7 53  1  0
  7 54  1  0
  8 55  1  0
  8 56  1  0
  9 57  1  0
  9 58  1  0
 10 59  1  0
 10 60  1  0
 11 61  1  0
 11 62  1  0
 12 63  1  0
 12 64  1  0
 16 65  1  0
 16 66  1  0
 17 67  1  0
 17 68  1  0
 19 69  1  1
 20 70  1  0
 20 71  1  0
 24 72  1  0
 27 73  1  0
 28 74  1  0
 29 75  1  0
 30 76  1  0
 31 77  1  0
 33 78  1  0
 37 79  1  0
 40 80  1  0
 41 81  1  0
 45 82  1  0
 45 83  1  0
 45 84  1  0
M  END
$$$$
