
     RDKit          3D

 64 67  0  0  0  0  0  0  0  0999 V2000
    9.2926   -2.2120    1.3560 C   0  0  0  0  0  0  0  0  0  0  0  0
    8.2297   -2.8806    0.6878 O   0  0  0  0  0  0  0  0  0  0  0  0
    6.9664   -2.4132    0.9236 C   0  0  0  0  0  0  0  0  0  0  0  0
    5.9416   -3.2940    0.5731 C   0  0  0  0  0  0  0  0  0  0  0  0
    4.6019   -2.9437    0.7586 C   0  0  0  0  0  0  0  0  0  0  0  0
    4.2752   -1.6963    1.2893 C   0  0  0  0  0  0  0  0  0  0  0  0
    2.9505   -1.2687    1.5249 N   0  0  0  0  0  0  0  0  0  0  0  0
    1.7764   -1.9845    1.3841 C   0  0  0  0  0  0  0  0  0  0  0  0
    1.6753   -3.1497    1.0076 O   0  0  0  0  0  0  0  0  0  0  0  0
    0.5562   -1.2311    1.8843 C   0  0  0  0  0  0  0  0  0  0  0  0
    0.2356    0.2919    0.9529 S   0  0  0  0  0  0  0  0  0  0  0  0
   -0.4720   -0.3793   -0.4744 C   0  0  0  0  0  0  0  0  0  0  0  0
    0.1902   -0.9405   -1.4543 N   0  0  0  0  0  0  0  0  0  0  0  0
   -0.7290   -1.3754   -2.3779 N   0  0  0  0  0  0  0  0  0  0  0  0
   -1.9361   -1.0633   -1.9442 C   0  0  0  0  0  0  0  0  0  0  0  0
   -3.2104   -1.4033   -2.6448 C   0  0  0  0  0  0  0  0  0  0  0  0
   -3.9638   -0.2131   -3.1586 C   0  0  0  0  0  0  0  0  0  0  0  0
   -5.2665    0.1738   -2.8856 C   0  0  0  0  0  0  0  0  0  0  0  0
   -5.5348    1.3509   -3.6193 C   0  0  0  0  0  0  0  0  0  0  0  0
   -4.3945    1.6599   -4.3230 C   0  0  0  0  0  0  0  0  0  0  0  0
   -3.4528    0.6960   -4.0637 N   0  0  0  0  0  0  0  0  0  0  0  0
   -2.1406    0.6625   -4.6797 C   0  0  0  0  0  0  0  0  0  0  0  0
   -1.8147   -0.3946   -0.7449 N   0  0  0  0  0  0  0  0  0  0  0  0
   -2.8827    0.1467    0.0714 C   0  0  0  0  0  0  0  0  0  0  0  0
   -3.0333    1.6607   -0.0801 C   0  0  0  0  0  0  0  0  0  0  0  0
   -4.0892    2.2013    0.8512 C   0  0  0  0  0  0  0  0  0  0  0  0
   -5.4228    2.3015    0.4342 C   0  0  0  0  0  0  0  0  0  0  0  0
   -6.4062    2.7686    1.3082 C   0  0  0  0  0  0  0  0  0  0  0  0
   -6.0631    3.1420    2.6070 C   0  0  0  0  0  0  0  0  0  0  0  0
   -4.7385    3.0482    3.0307 C   0  0  0  0  0  0  0  0  0  0  0  0
   -3.7551    2.5796    2.1581 C   0  0  0  0  0  0  0  0  0  0  0  0
    5.3068   -0.7947    1.6299 C   0  0  0  0  0  0  0  0  0  0  0  0
    4.8856    0.4173    2.1314 O   0  0  0  0  0  0  0  0  0  0  0  0
    5.8653    1.2254    2.7713 C   0  0  0  0  0  0  0  0  0  0  0  0
    6.6471   -1.1558    1.4410 C   0  0  0  0  0  0  0  0  0  0  0  0
   10.2079   -2.7915    1.1914 H   0  0  0  0  0  0  0  0  0  0  0  0
    9.1175   -2.1674    2.4377 H   0  0  0  0  0  0  0  0  0  0  0  0
    9.4531   -1.2129    0.9390 H   0  0  0  0  0  0  0  0  0  0  0  0
    6.1859   -4.2682    0.1517 H   0  0  0  0  0  0  0  0  0  0  0  0
    3.8377   -3.6576    0.4648 H   0  0  0  0  0  0  0  0  0  0  0  0
    2.8830   -0.3049    1.8382 H   0  0  0  0  0  0  0  0  0  0  0  0
    0.7277   -0.9677    2.9353 H   0  0  0  0  0  0  0  0  0  0  0  0
   -0.3202   -1.8911    1.8540 H   0  0  0  0  0  0  0  0  0  0  0  0
   -2.9877   -2.0623   -3.4915 H   0  0  0  0  0  0  0  0  0  0  0  0
   -3.8477   -1.9866   -1.9695 H   0  0  0  0  0  0  0  0  0  0  0  0
   -5.9532   -0.3404   -2.2205 H   0  0  0  0  0  0  0  0  0  0  0  0
   -6.4583    1.9145   -3.6345 H   0  0  0  0  0  0  0  0  0  0  0  0
   -4.1860    2.4793   -4.9972 H   0  0  0  0  0  0  0  0  0  0  0  0
   -1.4149    1.0548   -3.9610 H   0  0  0  0  0  0  0  0  0  0  0  0
   -1.9042   -0.3651   -4.9641 H   0  0  0  0  0  0  0  0  0  0  0  0
   -2.1491    1.2860   -5.5790 H   0  0  0  0  0  0  0  0  0  0  0  0
   -3.8141   -0.3667   -0.1903 H   0  0  0  0  0  0  0  0  0  0  0  0
   -2.6755   -0.1306    1.1127 H   0  0  0  0  0  0  0  0  0  0  0  0
   -2.0847    2.1719    0.1232 H   0  0  0  0  0  0  0  0  0  0  0  0
   -3.2818    1.9239   -1.1147 H   0  0  0  0  0  0  0  0  0  0  0  0
   -5.7062    2.0206   -0.5767 H   0  0  0  0  0  0  0  0  0  0  0  0
   -7.4379    2.8454    0.9731 H   0  0  0  0  0  0  0  0  0  0  0  0
   -6.8276    3.5071    3.2884 H   0  0  0  0  0  0  0  0  0  0  0  0
   -4.4679    3.3424    4.0419 H   0  0  0  0  0  0  0  0  0  0  0  0
   -2.7270    2.5145    2.5068 H   0  0  0  0  0  0  0  0  0  0  0  0
    6.5946    1.6056    2.0505 H   0  0  0  0  0  0  0  0  0  0  0  0
    6.3559    0.6818    3.5838 H   0  0  0  0  0  0  0  0  0  0  0  0
    5.3534    2.0885    3.2098 H   0  0  0  0  0  0  0  0  0  0  0  0
    7.4372   -0.4553    1.6706 H   0  0  0  0  0  0  0  0  0  0  0  0
  1  2  1  0
  2  3  1  0
  3  4  2  0
  4  5  1  0
  5  6  2  0
  6  7  1  0
  7  8  1  0
  8  9  2  0
  8 10  1  0
 10 11  1  0
 11 12  1  0
 12 13  2  0
 13 14  1  0
 14 15  2  0
 15 16  1  0
 16 17  1  0
 17 18  2  0
 18 19  1  0
 19 20  2  0
 20 21  1  0
 21 22  1  0
 15 23  1  0
 23 24  1  0
 24 25  1  0
 25 26  1  0
 26 27  2  0
 27 28  1  0
 28 29  2  0
 29 30  1  0
 30 31  2  0
  6 32  1  0
 32 33  1  0
 33 34  1  0
 32 35  2  0
 35  3  1  0
 23 12  1  0
 31 26  1  0
 21 17  1  0
  1 36  1  0
  1 37  1  0
  1 38  1  0
  4 39  1  0
  5 40  1  0
  7 41  1  0
 10 42  1  0
 10 43  1  0
 16 44  1  0
 16 45  1  0
 18 46  1  0
 19 47  1  0
 20 48  1  0
 22 49  1  0
 22 50  1  0
 22 51  1  0
 24 52  1  0
 24 53  1  0
 25 54  1  0
 25 55  1  0
 27 56  1  0
 28 57  1  0
 29 58  1  0
 30 59  1  0
 31 60  1  0
 34 61  1  0
 34 62  1  0
 34 63  1  0
 35 64  1  0
M  END
$$$$
