
     RDKit          3D

 54 57  0  0  0  0  0  0  0  0999 V2000
    7.1867    1.0972    2.2739 C   0  0  0  0  0  0  0  0  0  0  0  0
    5.9329    0.2744    2.5834 C   0  0  0  0  0  0  0  0  0  0  0  0
    6.3075   -1.1341    3.0509 C   0  0  0  0  0  0  0  0  0  0  0  0
    4.9830    0.2300    1.4000 C   0  0  0  0  0  0  0  0  0  0  0  0
    3.6808    0.7280    1.5286 C   0  0  0  0  0  0  0  0  0  0  0  0
    2.7925    0.6923    0.4483 C   0  0  0  0  0  0  0  0  0  0  0  0
    3.1855    0.1599   -0.7843 C   0  0  0  0  0  0  0  0  0  0  0  0
    2.2303    0.1591   -1.8183 N   0  0  0  0  0  0  0  0  0  0  0  0
    2.3831   -0.2911   -3.1204 C   0  0  0  0  0  0  0  0  0  0  0  0
    3.4121   -0.7199   -3.6329 O   0  0  0  0  0  0  0  0  0  0  0  0
    1.1026   -0.1244   -3.9465 C   0  0  0  0  0  0  0  0  0  0  0  0
   -0.0928   -0.1309   -3.1563 O   0  0  0  0  0  0  0  0  0  0  0  0
   -0.5574   -1.3684   -2.8505 C   0  0  0  0  0  0  0  0  0  0  0  0
   -0.0503   -2.4260   -3.1804 O   0  0  0  0  0  0  0  0  0  0  0  0
   -1.7800   -1.2738   -2.0077 C   0  0  0  0  0  0  0  0  0  0  0  0
   -2.3190   -2.4555   -1.4855 C   0  0  0  0  0  0  0  0  0  0  0  0
   -3.4612   -2.4176   -0.6758 C   0  0  0  0  0  0  0  0  0  0  0  0
   -4.0881   -1.1990   -0.3710 C   0  0  0  0  0  0  0  0  0  0  0  0
   -3.5466   -0.0364   -0.8999 C   0  0  0  0  0  0  0  0  0  0  0  0
   -2.4025   -0.0566   -1.7153 C   0  0  0  0  0  0  0  0  0  0  0  0
   -4.2738    1.5163   -0.5554 S   0  0  0  0  0  6  0  0  0  0  0  0
   -3.2875    2.2550    0.2083 O   0  0  0  0  0  0  0  0  0  0  0  0
   -4.7875    2.0080   -1.8176 O   0  0  0  0  0  0  0  0  0  0  0  0
   -5.6503    1.2807    0.4930 C   0  0  0  0  0  0  0  0  0  0  0  0
   -6.3688    2.4127    0.9034 C   0  0  0  0  0  0  0  0  0  0  0  0
   -7.4713    2.2635    1.7411 C   0  0  0  0  0  0  0  0  0  0  0  0
   -7.8501    0.9916    2.1637 C   0  0  0  0  0  0  0  0  0  0  0  0
   -7.1264   -0.1301    1.7475 C   0  0  0  0  0  0  0  0  0  0  0  0
   -6.0125    0.0047    0.9027 C   0  0  0  0  0  0  0  0  0  0  0  0
   -5.2869   -1.2236    0.5000 C   0  0  0  0  0  0  0  0  0  0  0  0
   -5.6914   -2.3097    0.9071 O   0  0  0  0  0  0  0  0  0  0  0  0
    4.4794   -0.3398   -0.9170 C   0  0  0  0  0  0  0  0  0  0  0  0
    5.3687   -0.3056    0.1643 C   0  0  0  0  0  0  0  0  0  0  0  0
    6.9213    2.1048    1.9330 H   0  0  0  0  0  0  0  0  0  0  0  0
    7.8101    1.1990    3.1689 H   0  0  0  0  0  0  0  0  0  0  0  0
    7.8002    0.6319    1.4944 H   0  0  0  0  0  0  0  0  0  0  0  0
    5.4236    0.7693    3.4211 H   0  0  0  0  0  0  0  0  0  0  0  0
    6.8666   -1.6840    2.2860 H   0  0  0  0  0  0  0  0  0  0  0  0
    5.4120   -1.7173    3.2935 H   0  0  0  0  0  0  0  0  0  0  0  0
    6.9315   -1.0882    3.9505 H   0  0  0  0  0  0  0  0  0  0  0  0
    3.3440    1.1501    2.4729 H   0  0  0  0  0  0  0  0  0  0  0  0
    1.7914    1.0901    0.5900 H   0  0  0  0  0  0  0  0  0  0  0  0
    1.3168    0.5311   -1.5881 H   0  0  0  0  0  0  0  0  0  0  0  0
    1.0636   -0.8938   -4.7263 H   0  0  0  0  0  0  0  0  0  0  0  0
    1.1572    0.8495   -4.4445 H   0  0  0  0  0  0  0  0  0  0  0  0
   -1.8520   -3.4166   -1.7018 H   0  0  0  0  0  0  0  0  0  0  0  0
   -3.8553   -3.3551   -0.2817 H   0  0  0  0  0  0  0  0  0  0  0  0
   -2.0152    0.8802   -2.1134 H   0  0  0  0  0  0  0  0  0  0  0  0
   -6.0723    3.4071    0.5730 H   0  0  0  0  0  0  0  0  0  0  0  0
   -8.0347    3.1364    2.0646 H   0  0  0  0  0  0  0  0  0  0  0  0
   -8.7100    0.8691    2.8189 H   0  0  0  0  0  0  0  0  0  0  0  0
   -7.4416   -1.1154    2.0910 H   0  0  0  0  0  0  0  0  0  0  0  0
    4.8326   -0.7704   -1.8487 H   0  0  0  0  0  0  0  0  0  0  0  0
    6.3696   -0.7087    0.0241 H   0  0  0  0  0  0  0  0  0  0  0  0
  1  2  1  0
  2  3  1  0
  2  4  1  0
  4  5  2  0
  5  6  1  0
  6  7  2  0
  7  8  1  0
  8  9  1  0
  9 10  2  0
  9 11  1  0
 11 12  1  0
 12 13  1  0
 13 14  2  0
 13 15  1  0
 15 16  2  0
 16 17  1  0
 17 18  2  0
 18 19  1  0
 19 20  2  0
 19 21  1  0
 21 22  2  0
 21 23  2  0
 21 24  1  0
 24 25  2  0
 25 26  1  0
 26 27  2  0
 27 28  1  0
 28 29  2  0
 29 30  1  0
 30 31  2  0
  7 32  1  0
 32 33  2  0
 33  4  1  0
 20 15  1  0
 29 24  1  0
 30 18  1  0
  1 34  1  0
  1 35  1  0
  1 36  1  0
  2 37  1  0
  3 38  1  0
  3 39  1  0
  3 40  1  0
  5 41  1  0
  6 42  1  0
  8 43  1  0
 11 44  1  0
 11 45  1  0
 16 46  1  0
 17 47  1  0
 20 48  1  0
 25 49  1  0
 26 50  1  0
 27 51  1  0
 28 52  1  0
 32 53  1  0
 33 54  1  0
M  END
$$$$
