
     RDKit          3D

 47 49  0  0  0  0  0  0  0  0999 V2000
   -2.5525   -3.3128   -1.4231 O   0  0  0  0  0  0  0  0  0  0  0  0
   -2.9211   -2.2836   -0.8641 C   0  0  0  0  0  0  0  0  0  0  0  0
   -4.4146   -1.9766   -0.7094 C   0  0  0  0  0  0  0  0  0  0  0  0
   -4.6236   -0.7244   -0.0577 O   0  0  0  0  0  0  0  0  0  0  0  0
   -5.9212   -0.3408    0.1415 C   0  0  0  0  0  0  0  0  0  0  0  0
   -7.0574   -1.0573   -0.2396 C   0  0  0  0  0  0  0  0  0  0  0  0
   -8.3327   -0.5459    0.0266 C   0  0  0  0  0  0  0  0  0  0  0  0
   -8.4701    0.6806    0.6731 C   0  0  0  0  0  0  0  0  0  0  0  0
  -10.1939    1.3672    1.0303 Br  0  0  0  0  0  0  0  0  0  0  0  0
   -7.3438    1.4025    1.0570 C   0  0  0  0  0  0  0  0  0  0  0  0
   -6.0725    0.8892    0.7897 C   0  0  0  0  0  0  0  0  0  0  0  0
   -2.1098   -1.3030   -0.3224 N   0  0  0  0  0  0  0  0  0  0  0  0
   -0.7052   -1.2615   -0.2768 C   0  0  0  0  0  0  0  0  0  0  0  0
   -0.1187   -0.1372    0.3198 C   0  0  0  0  0  0  0  0  0  0  0  0
    1.2729   -0.0149    0.4060 C   0  0  0  0  0  0  0  0  0  0  0  0
    2.0956   -1.0206   -0.1124 C   0  0  0  0  0  0  0  0  0  0  0  0
    3.5827   -0.9396   -0.0370 C   0  0  0  0  0  0  0  0  0  0  0  0
    4.2134   -1.9782    0.1151 O   0  0  0  0  0  0  0  0  0  0  0  0
    4.1014    0.3314   -0.1859 N   0  0  0  0  0  0  0  0  0  0  0  0
    5.4538    0.7476   -0.1237 C   0  0  0  0  0  0  0  0  0  0  0  0
    6.4822   -0.1393    0.2245 C   0  0  0  0  0  0  0  0  0  0  0  0
    7.8139    0.2834    0.2875 C   0  0  0  0  0  0  0  0  0  0  0  0
    8.1436    1.6028    0.0060 C   0  0  0  0  0  0  0  0  0  0  0  0
    7.1381    2.5032   -0.3375 C   0  0  0  0  0  0  0  0  0  0  0  0
    5.7929    2.0917   -0.4039 C   0  0  0  0  0  0  0  0  0  0  0  0
    4.8211    3.1563   -0.7841 C   0  0  0  0  0  0  0  0  0  0  0  0
    5.1033    4.3092   -1.0592 O   0  0  0  0  0  0  0  0  0  0  0  0
    3.5310    2.7621   -0.8081 O   0  0  0  0  0  0  0  0  0  0  0  0
    1.5138   -2.1529   -0.6905 C   0  0  0  0  0  0  0  0  0  0  0  0
    0.1212   -2.2686   -0.7777 C   0  0  0  0  0  0  0  0  0  0  0  0
   -4.8477   -2.7889   -0.1144 H   0  0  0  0  0  0  0  0  0  0  0  0
   -4.8417   -1.9517   -1.7186 H   0  0  0  0  0  0  0  0  0  0  0  0
   -6.9931   -2.0157   -0.7450 H   0  0  0  0  0  0  0  0  0  0  0  0
   -9.2101   -1.1129   -0.2748 H   0  0  0  0  0  0  0  0  0  0  0  0
   -7.4417    2.3597    1.5619 H   0  0  0  0  0  0  0  0  0  0  0  0
   -5.1948    1.4554    1.0912 H   0  0  0  0  0  0  0  0  0  0  0  0
   -2.6129   -0.5208    0.0873 H   0  0  0  0  0  0  0  0  0  0  0  0
   -0.7370    0.6554    0.7345 H   0  0  0  0  0  0  0  0  0  0  0  0
    1.6948    0.8539    0.9041 H   0  0  0  0  0  0  0  0  0  0  0  0
    3.4524    1.0720   -0.4475 H   0  0  0  0  0  0  0  0  0  0  0  0
    6.2808   -1.1801    0.4609 H   0  0  0  0  0  0  0  0  0  0  0  0
    8.5909   -0.4279    0.5588 H   0  0  0  0  0  0  0  0  0  0  0  0
    9.1790    1.9304    0.0540 H   0  0  0  0  0  0  0  0  0  0  0  0
    7.4093    3.5354   -0.5555 H   0  0  0  0  0  0  0  0  0  0  0  0
    3.0692    3.5838   -1.0905 H   0  0  0  0  0  0  0  0  0  0  0  0
    2.1420   -2.9531   -1.0786 H   0  0  0  0  0  0  0  0  0  0  0  0
   -0.2832   -3.1650   -1.2383 H   0  0  0  0  0  0  0  0  0  0  0  0
  1  2  2  0
  2  3  1  0
  3  4  1  0
  4  5  1  0
  5  6  2  0
  6  7  1  0
  7  8  2  0
  8  9  1  0
  8 10  1  0
 10 11  2  0
  2 12  1  0
 12 13  1  0
 13 14  2  0
 14 15  1  0
 15 16  2  0
 16 17  1  0
 17 18  2  0
 17 19  1  0
 19 20  1  0
 20 21  2  0
 21 22  1  0
 22 23  2  0
 23 24  1  0
 24 25  2  0
 25 26  1  0
 26 27  2  0
 26 28  1  0
 16 29  1  0
 29 30  2  0
 11  5  1  0
 30 13  1  0
 25 20  1  0
  3 31  1  0
  3 32  1  0
  6 33  1  0
  7 34  1  0
 10 35  1  0
 11 36  1  0
 12 37  1  0
 14 38  1  0
 15 39  1  0
 19 40  1  0
 21 41  1  0
 22 42  1  0
 23 43  1  0
 24 44  1  0
 28 45  1  0
 29 46  1  0
 30 47  1  0
M  END
$$$$
