
     RDKit          3D

 57 62  0  0  0  0  0  0  0  0999 V2000
    3.3148   -2.5125   -4.6640 C   0  0  0  0  0  0  0  0  0  0  0  0
    2.4218   -2.1895   -3.6061 O   0  0  0  0  0  0  0  0  0  0  0  0
    2.9803   -1.8613   -2.3994 C   0  0  0  0  0  0  0  0  0  0  0  0
    4.3593   -1.7833   -2.1287 C   0  0  0  0  0  0  0  0  0  0  0  0
    4.8221   -1.4358   -0.8541 C   0  0  0  0  0  0  0  0  0  0  0  0
    3.8807   -1.1724    0.1181 C   0  0  0  0  0  0  0  0  0  0  0  0
    2.5066   -1.2399   -0.1267 C   0  0  0  0  0  0  0  0  0  0  0  0
    2.0488   -1.5879   -1.3888 C   0  0  0  0  0  0  0  0  0  0  0  0
    1.7739   -0.8945    1.1378 C   0  0  0  0  0  0  0  0  0  0  0  0
    0.8314   -1.9551    1.6460 N   0  0  0  0  0  0  0  0  0  0  0  0
   -0.5995   -1.4642    1.5077 C   0  0  2  0  0  0  0  0  0  0  0  0
   -1.3376   -2.3403    0.4813 C   0  0  0  0  0  0  0  0  0  0  0  0
   -2.8450   -2.2521    0.5734 C   0  0  0  0  0  0  0  0  0  0  0  0
   -3.5734   -1.4881   -0.3472 C   0  0  0  0  0  0  0  0  0  0  0  0
   -4.9644   -1.4126   -0.2609 C   0  0  0  0  0  0  0  0  0  0  0  0
   -5.6404   -2.0996    0.7459 C   0  0  0  0  0  0  0  0  0  0  0  0
   -4.9260   -2.8620    1.6678 C   0  0  0  0  0  0  0  0  0  0  0  0
   -3.5350   -2.9384    1.5829 C   0  0  0  0  0  0  0  0  0  0  0  0
   -0.4239   -0.0498    1.1088 C   0  0  0  0  0  0  0  0  0  0  0  0
    0.9158    0.2714    0.9077 C   0  0  0  0  0  0  0  0  0  0  0  0
    1.0122    1.5886    0.5467 C   0  0  0  0  0  0  0  0  0  0  0  0
    2.0998    2.2614    0.1740 O   0  0  0  0  0  0  0  0  0  0  0  0
   -0.2923    2.1132    0.5703 N   0  0  0  0  0  0  0  0  0  0  0  0
   -0.6613    3.4568    0.2686 C   0  0  0  0  0  0  0  0  0  0  0  0
    0.1478    4.5209    0.6880 C   0  0  0  0  0  0  0  0  0  0  0  0
   -0.2207    5.8341    0.3904 C   0  0  0  0  0  0  0  0  0  0  0  0
   -1.3901    6.0882   -0.3252 C   0  0  0  0  0  0  0  0  0  0  0  0
   -2.1973    5.0313   -0.7439 C   0  0  0  0  0  0  0  0  0  0  0  0
   -1.8379    3.7155   -0.4476 C   0  0  0  0  0  0  0  0  0  0  0  0
   -1.1730    1.0853    0.9547 C   0  0  0  0  0  0  0  0  0  0  0  0
   -2.4720    1.2530    1.1932 O   0  0  0  0  0  0  0  0  0  0  0  0
    2.9357   -0.6474    2.1422 C   0  0  0  0  0  0  0  0  0  0  0  0
    2.8517   -0.3983    3.3369 O   0  0  0  0  0  0  0  0  0  0  0  0
    4.1270   -0.8233    1.4393 N   0  0  0  0  0  0  0  0  0  0  0  0
    3.9420   -1.6541   -4.9263 H   0  0  0  0  0  0  0  0  0  0  0  0
    2.7142   -2.7659   -5.5428 H   0  0  0  0  0  0  0  0  0  0  0  0
    3.9243   -3.3872   -4.4142 H   0  0  0  0  0  0  0  0  0  0  0  0
    5.0986   -1.9893   -2.8958 H   0  0  0  0  0  0  0  0  0  0  0  0
    5.8845   -1.3788   -0.6471 H   0  0  0  0  0  0  0  0  0  0  0  0
    0.9866   -1.6444   -1.5988 H   0  0  0  0  0  0  0  0  0  0  0  0
    1.0030   -1.9867    2.6546 H   0  0  0  0  0  0  0  0  0  0  0  0
   -1.0754   -1.5262    2.4939 H   0  0  0  0  0  0  0  0  0  0  0  0
   -1.0223   -2.1011   -0.5417 H   0  0  0  0  0  0  0  0  0  0  0  0
   -1.0692   -3.3955    0.6321 H   0  0  0  0  0  0  0  0  0  0  0  0
   -3.0581   -0.9367   -1.1301 H   0  0  0  0  0  0  0  0  0  0  0  0
   -5.5191   -0.8133   -0.9773 H   0  0  0  0  0  0  0  0  0  0  0  0
   -6.7230   -2.0391    0.8130 H   0  0  0  0  0  0  0  0  0  0  0  0
   -5.4519   -3.3975    2.4536 H   0  0  0  0  0  0  0  0  0  0  0  0
   -2.9912   -3.5396    2.3078 H   0  0  0  0  0  0  0  0  0  0  0  0
    1.8304    3.0088   -0.3889 H   0  0  0  0  0  0  0  0  0  0  0  0
    1.0403    4.3535    1.2888 H   0  0  0  0  0  0  0  0  0  0  0  0
    0.3992    6.6617    0.7274 H   0  0  0  0  0  0  0  0  0  0  0  0
   -1.6740    7.1123   -0.5556 H   0  0  0  0  0  0  0  0  0  0  0  0
   -3.1037    5.2325   -1.3101 H   0  0  0  0  0  0  0  0  0  0  0  0
   -2.4639    2.9068   -0.8211 H   0  0  0  0  0  0  0  0  0  0  0  0
   -2.6454    2.1918    1.3822 H   0  0  0  0  0  0  0  0  0  0  0  0
    5.0340   -0.7236    1.8666 H   0  0  0  0  0  0  0  0  0  0  0  0
  1  2  1  0
  2  3  1  0
  3  4  2  0
  4  5  1  0
  5  6  2  0
  6  7  1  0
  7  8  2  0
  7  9  1  0
  9 10  1  0
 10 11  1  0
 11 12  1  0
 12 13  1  0
 13 14  2  0
 14 15  1  0
 15 16  2  0
 16 17  1  0
 17 18  2  0
 11 19  1  0
 19 20  1  0
 20 21  2  0
 21 22  1  0
 21 23  1  0
 23 24  1  0
 24 25  2  0
 25 26  1  0
 26 27  2  0
 27 28  1  0
 28 29  2  0
 23 30  1  0
 30 31  1  0
  9 32  1  0
 32 33  2  0
 32 34  1  0
  8  3  1  0
 20  9  1  0
 29 24  1  0
 34  6  1  0
 18 13  1  0
 30 19  2  0
  1 35  1  0
  1 36  1  0
  1 37  1  0
  4 38  1  0
  5 39  1  0
  8 40  1  0
 10 41  1  0
 11 42  1  1
 12 43  1  0
 12 44  1  0
 14 45  1  0
 15 46  1  0
 16 47  1  0
 17 48  1  0
 18 49  1  0
 22 50  1  0
 25 51  1  0
 26 52  1  0
 27 53  1  0
 28 54  1  0
 29 55  1  0
 31 56  1  0
 34 57  1  0
M  END
$$$$
