
     RDKit          3D

 33 34  0  0  0  0  0  0  0  0999 V2000
   -3.2139   -0.8608   -0.4610 C   0  0  0  0  0  0  0  0  0  0  0  0
   -2.7122    0.5615   -0.6678 C   0  0  0  0  0  0  0  0  0  0  0  0
   -1.3976    0.7596   -0.0447 N   0  0  0  0  0  0  0  0  0  0  0  0
   -1.1597    2.0845    0.5557 C   0  0  0  0  0  0  0  0  0  0  0  0
   -1.7849    2.1685    1.9417 C   0  0  0  0  0  0  0  0  0  0  0  0
   -0.2402    0.1054   -0.5327 C   0  0  0  0  0  0  0  0  0  0  0  0
   -0.1735   -0.2878   -1.8855 C   0  0  0  0  0  0  0  0  0  0  0  0
    0.9435   -0.9288   -2.4010 C   0  0  0  0  0  0  0  0  0  0  0  0
    2.0166   -1.1851   -1.5520 C   0  0  0  0  0  0  0  0  0  0  0  0
    3.1658   -1.8446   -2.1444 N   0  0  0  0  0  4  0  0  0  0  0  0
    2.9825   -2.9729   -2.6202 O   0  0  0  0  0  0  0  0  0  0  0  0
    4.2369   -1.2237   -2.1533 O   0  0  0  0  0  1  0  0  0  0  0  0
    2.0108   -0.8346   -0.1819 C   0  0  0  0  0  0  0  0  0  0  0  0
    3.0725   -1.1146    0.7172 C   0  0  0  0  0  0  0  0  0  0  0  0
    2.9916   -0.7551    2.0535 C   0  0  0  0  0  0  0  0  0  0  0  0
    1.8462   -0.1236    2.4681 C   0  0  0  0  0  0  0  0  0  0  0  0
    0.8158    0.1594    1.6466 N   0  0  0  0  0  0  0  0  0  0  0  0
    0.8655   -0.1780    0.3339 C   0  0  0  0  0  0  0  0  0  0  0  0
   -2.5801   -1.5965   -0.9649 H   0  0  0  0  0  0  0  0  0  0  0  0
   -3.2393   -1.1142    0.6042 H   0  0  0  0  0  0  0  0  0  0  0  0
   -4.2279   -0.9644   -0.8600 H   0  0  0  0  0  0  0  0  0  0  0  0
   -2.7057    0.8324   -1.7288 H   0  0  0  0  0  0  0  0  0  0  0  0
   -3.4452    1.2318   -0.2024 H   0  0  0  0  0  0  0  0  0  0  0  0
   -1.6007    2.8570   -0.0875 H   0  0  0  0  0  0  0  0  0  0  0  0
   -0.0951    2.3381    0.6241 H   0  0  0  0  0  0  0  0  0  0  0  0
   -1.3893    1.3965    2.6083 H   0  0  0  0  0  0  0  0  0  0  0  0
   -1.5778    3.1454    2.3899 H   0  0  0  0  0  0  0  0  0  0  0  0
   -2.8713    2.0429    1.9001 H   0  0  0  0  0  0  0  0  0  0  0  0
   -0.9908   -0.0800   -2.5690 H   0  0  0  0  0  0  0  0  0  0  0  0
    0.9696   -1.2154   -3.4499 H   0  0  0  0  0  0  0  0  0  0  0  0
    3.9781   -1.6204    0.3873 H   0  0  0  0  0  0  0  0  0  0  0  0
    3.7981   -0.9657    2.7461 H   0  0  0  0  0  0  0  0  0  0  0  0
    1.7118    0.1836    3.5010 H   0  0  0  0  0  0  0  0  0  0  0  0
  1  2  1  0
  2  3  1  0
  3  4  1  0
  4  5  1  0
  3  6  1  0
  6  7  2  0
  7  8  1  0
  8  9  2  0
  9 10  1  0
 10 11  2  0
 10 12  1  0
  9 13  1  0
 13 14  2  0
 14 15  1  0
 15 16  2  0
 16 17  1  0
 17 18  2  0
 18  6  1  0
 18 13  1  0
  1 19  1  0
  1 20  1  0
  1 21  1  0
  2 22  1  0
  2 23  1  0
  4 24  1  0
  4 25  1  0
  5 26  1  0
  5 27  1  0
  5 28  1  0
  7 29  1  0
  8 30  1  0
 14 31  1  0
 15 32  1  0
 16 33  1  0
M  CHG  2  10   1  12  -1
M  END
$$$$
