
     RDKit          3D

 39 41  0  0  0  0  0  0  0  0999 V2000
   -4.9628   -0.1187   -0.5710 C   0  0  0  0  0  0  0  0  0  0  0  0
   -3.8150    0.8106   -0.9411 C   0  0  0  0  0  0  0  0  0  0  0  0
   -2.6169    0.5314   -0.1536 N   0  0  0  0  0  0  0  0  0  0  0  0
   -2.4884    1.1882    1.0610 C   0  0  0  0  0  0  0  0  0  0  0  0
   -3.3223    1.9731    1.5080 O   0  0  0  0  0  0  0  0  0  0  0  0
   -1.2765    0.9051    1.8424 C   0  0  0  0  0  0  0  0  0  0  0  0
   -1.0698    1.5843    3.0545 C   0  0  0  0  0  0  0  0  0  0  0  0
    0.0689    1.3314    3.8117 C   0  0  0  0  0  0  0  0  0  0  0  0
    0.9960    0.4011    3.3582 C   0  0  0  0  0  0  0  0  0  0  0  0
    0.7840   -0.2750    2.1505 C   0  0  0  0  0  0  0  0  0  0  0  0
   -0.3582   -0.0318    1.3704 C   0  0  0  0  0  0  0  0  0  0  0  0
   -0.6111   -0.7031    0.1402 N   0  0  0  0  0  0  0  0  0  0  0  0
    0.3226   -1.7133   -0.3706 C   0  0  0  0  0  0  0  0  0  0  0  0
    1.5595   -1.1311   -1.0322 C   0  0  0  0  0  0  0  0  0  0  0  0
    1.4532   -0.1431   -2.0253 C   0  0  0  0  0  0  0  0  0  0  0  0
    2.5936    0.3749   -2.6455 C   0  0  0  0  0  0  0  0  0  0  0  0
    3.8553   -0.1073   -2.2812 C   0  0  0  0  0  0  0  0  0  0  0  0
    5.0572    0.4333   -2.9278 N   0  0  0  0  0  4  0  0  0  0  0  0
    4.9047    1.3110   -3.7893 O   0  0  0  0  0  0  0  0  0  0  0  0
    6.1553   -0.0187   -2.5722 O   0  0  0  0  0  1  0  0  0  0  0  0
    3.9801   -1.1071   -1.3092 C   0  0  0  0  0  0  0  0  0  0  0  0
    2.8334   -1.6187   -0.6952 C   0  0  0  0  0  0  0  0  0  0  0  0
   -1.7416   -0.4362   -0.6286 C   0  0  0  0  0  0  0  0  0  0  0  0
   -1.9549   -1.0291   -1.6896 O   0  0  0  0  0  0  0  0  0  0  0  0
   -5.8471    0.1117   -1.1730 H   0  0  0  0  0  0  0  0  0  0  0  0
   -5.2310   -0.0133    0.4853 H   0  0  0  0  0  0  0  0  0  0  0  0
   -4.6947   -1.1661   -0.7438 H   0  0  0  0  0  0  0  0  0  0  0  0
   -4.1243    1.8504   -0.7843 H   0  0  0  0  0  0  0  0  0  0  0  0
   -3.5888    0.7048   -2.0082 H   0  0  0  0  0  0  0  0  0  0  0  0
   -1.7981    2.3123    3.4080 H   0  0  0  0  0  0  0  0  0  0  0  0
    0.2306    1.8578    4.7491 H   0  0  0  0  0  0  0  0  0  0  0  0
    1.8902    0.1979    3.9437 H   0  0  0  0  0  0  0  0  0  0  0  0
    1.5445   -0.9879    1.8523 H   0  0  0  0  0  0  0  0  0  0  0  0
    0.5889   -2.3891    0.4513 H   0  0  0  0  0  0  0  0  0  0  0  0
   -0.1694   -2.3567   -1.1103 H   0  0  0  0  0  0  0  0  0  0  0  0
    0.4763    0.2277   -2.3320 H   0  0  0  0  0  0  0  0  0  0  0  0
    2.4782    1.1429   -3.4078 H   0  0  0  0  0  0  0  0  0  0  0  0
    4.9544   -1.4991   -1.0241 H   0  0  0  0  0  0  0  0  0  0  0  0
    2.9440   -2.4045    0.0502 H   0  0  0  0  0  0  0  0  0  0  0  0
  1  2  1  0
  2  3  1  0
  3  4  1  0
  4  5  2  0
  4  6  1  0
  6  7  2  0
  7  8  1  0
  8  9  2  0
  9 10  1  0
 10 11  2  0
 11 12  1  0
 12 13  1  0
 13 14  1  0
 14 15  2  0
 15 16  1  0
 16 17  2  0
 17 18  1  0
 18 19  2  0
 18 20  1  0
 17 21  1  0
 21 22  2  0
 12 23  1  0
 23 24  2  0
 23  3  1  0
 11  6  1  0
 22 14  1  0
  1 25  1  0
  1 26  1  0
  1 27  1  0
  2 28  1  0
  2 29  1  0
  7 30  1  0
  8 31  1  0
  9 32  1  0
 10 33  1  0
 13 34  1  0
 13 35  1  0
 15 36  1  0
 16 37  1  0
 21 38  1  0
 22 39  1  0
M  CHG  2  18   1  20  -1
M  END
$$$$
