
     RDKit          3D

 60 63  0  0  0  0  0  0  0  0999 V2000
   -5.5917    2.2158   -3.1736 C   0  0  0  0  0  0  0  0  0  0  0  0
   -4.6500    1.1533   -3.0918 O   0  0  0  0  0  0  0  0  0  0  0  0
   -3.7961    1.1674   -2.0223 C   0  0  0  0  0  0  0  0  0  0  0  0
   -3.7704    2.1184   -1.0017 C   0  0  0  0  0  0  0  0  0  0  0  0
   -2.8353    2.0173    0.0357 C   0  0  0  0  0  0  0  0  0  0  0  0
   -1.9277    0.9530    0.0600 C   0  0  0  0  0  0  0  0  0  0  0  0
   -0.9854    0.8428    1.1137 N   0  0  0  0  0  0  0  0  0  0  0  0
   -0.6573   -0.2934    1.8482 C   0  0  0  0  0  0  0  0  0  0  0  0
   -1.3841   -1.6023    1.8133 C   0  0  0  0  0  0  0  0  0  0  0  0
   -2.8309   -1.4915    2.2050 C   0  0  0  0  0  0  0  0  0  0  0  0
   -3.4148   -0.7382    3.2125 C   0  0  0  0  0  0  0  0  0  0  0  0
   -4.8087   -0.9607    3.1754 C   0  0  0  0  0  0  0  0  0  0  0  0
   -5.0493   -1.8570    2.1605 C   0  0  0  0  0  0  0  0  0  0  0  0
   -3.8483   -2.1907    1.5881 N   0  0  0  0  0  0  0  0  0  0  0  0
   -3.7031   -3.1690    0.5318 C   0  0  0  0  0  0  0  0  0  0  0  0
    0.3242   -0.0086    2.6868 N   0  0  0  0  0  0  0  0  0  0  0  0
    0.6200    1.3176    2.5665 N   0  0  0  0  0  0  0  0  0  0  0  0
   -0.1579    1.8216    1.6349 C   0  0  0  0  0  0  0  0  0  0  0  0
    0.0465    3.4172    0.9809 S   0  0  0  0  0  0  0  0  0  0  0  0
    1.8463    3.6134    1.1602 C   0  0  0  0  0  0  0  0  0  0  0  0
    2.5783    2.6089    0.2835 C   0  0  0  0  0  0  0  0  0  0  0  0
    2.7632    2.7932   -0.9173 O   0  0  0  0  0  0  0  0  0  0  0  0
    2.9986    1.4710    0.9459 N   0  0  0  0  0  0  0  0  0  0  0  0
    3.5468    0.3410    0.2200 C   0  0  0  0  0  0  0  0  0  0  0  0
    4.9827    0.5782   -0.2555 C   0  0  0  0  0  0  0  0  0  0  0  0
    5.5418   -0.6412   -0.9465 C   0  0  0  0  0  0  0  0  0  0  0  0
    6.1909   -1.6417   -0.2109 C   0  0  0  0  0  0  0  0  0  0  0  0
    6.6828   -2.7815   -0.8494 C   0  0  0  0  0  0  0  0  0  0  0  0
    6.5279   -2.9324   -2.2262 C   0  0  0  0  0  0  0  0  0  0  0  0
    5.8811   -1.9444   -2.9658 C   0  0  0  0  0  0  0  0  0  0  0  0
    5.3876   -0.8043   -2.3293 C   0  0  0  0  0  0  0  0  0  0  0  0
   -1.9482   -0.0006   -0.9616 C   0  0  0  0  0  0  0  0  0  0  0  0
   -2.8792    0.1141   -1.9971 C   0  0  0  0  0  0  0  0  0  0  0  0
   -5.0882    3.1833   -3.2715 H   0  0  0  0  0  0  0  0  0  0  0  0
   -6.2715    2.2075   -2.3150 H   0  0  0  0  0  0  0  0  0  0  0  0
   -6.1934    2.0608   -4.0742 H   0  0  0  0  0  0  0  0  0  0  0  0
   -4.4661    2.9507   -0.9791 H   0  0  0  0  0  0  0  0  0  0  0  0
   -2.8631    2.7595    0.8315 H   0  0  0  0  0  0  0  0  0  0  0  0
   -0.9020   -2.2855    2.5253 H   0  0  0  0  0  0  0  0  0  0  0  0
   -1.2591   -2.0662    0.8315 H   0  0  0  0  0  0  0  0  0  0  0  0
   -2.8871   -0.0879    3.9000 H   0  0  0  0  0  0  0  0  0  0  0  0
   -5.5563   -0.5210    3.8228 H   0  0  0  0  0  0  0  0  0  0  0  0
   -5.9773   -2.2908    1.8117 H   0  0  0  0  0  0  0  0  0  0  0  0
   -3.4103   -2.6525   -0.3839 H   0  0  0  0  0  0  0  0  0  0  0  0
   -4.6541   -3.6855    0.3797 H   0  0  0  0  0  0  0  0  0  0  0  0
   -2.9412   -3.8934    0.8304 H   0  0  0  0  0  0  0  0  0  0  0  0
    2.1316    4.6201    0.8378 H   0  0  0  0  0  0  0  0  0  0  0  0
    2.1474    3.5128    2.2081 H   0  0  0  0  0  0  0  0  0  0  0  0
    2.5181    1.2552    1.8211 H   0  0  0  0  0  0  0  0  0  0  0  0
    2.8835    0.1214   -0.6268 H   0  0  0  0  0  0  0  0  0  0  0  0
    3.5076   -0.5185    0.9004 H   0  0  0  0  0  0  0  0  0  0  0  0
    5.0334    1.4380   -0.9347 H   0  0  0  0  0  0  0  0  0  0  0  0
    5.6223    0.8413    0.5978 H   0  0  0  0  0  0  0  0  0  0  0  0
    6.3163   -1.5388    0.8645 H   0  0  0  0  0  0  0  0  0  0  0  0
    7.1850   -3.5517   -0.2716 H   0  0  0  0  0  0  0  0  0  0  0  0
    6.9116   -3.8196   -2.7227 H   0  0  0  0  0  0  0  0  0  0  0  0
    5.7576   -2.0606   -4.0396 H   0  0  0  0  0  0  0  0  0  0  0  0
    4.8808   -0.0412   -2.9181 H   0  0  0  0  0  0  0  0  0  0  0  0
   -1.2226   -0.8069   -1.0079 H   0  0  0  0  0  0  0  0  0  0  0  0
   -2.8830   -0.6174   -2.8021 H   0  0  0  0  0  0  0  0  0  0  0  0
  1  2  1  0
  2  3  1  0
  3  4  2  0
  4  5  1  0
  5  6  2  0
  6  7  1  0
  7  8  1  0
  8  9  1  0
  9 10  1  0
 10 11  2  0
 11 12  1  0
 12 13  2  0
 13 14  1  0
 14 15  1  0
  8 16  2  0
 16 17  1  0
 17 18  2  0
 18 19  1  0
 19 20  1  0
 20 21  1  0
 21 22  2  0
 21 23  1  0
 23 24  1  0
 24 25  1  0
 25 26  1  0
 26 27  2  0
 27 28  1  0
 28 29  2  0
 29 30  1  0
 30 31  2  0
  6 32  1  0
 32 33  2  0
 33  3  1  0
 18  7  1  0
 31 26  1  0
 14 10  1  0
  1 34  1  0
  1 35  1  0
  1 36  1  0
  4 37  1  0
  5 38  1  0
  9 39  1  0
  9 40  1  0
 11 41  1  0
 12 42  1  0
 13 43  1  0
 15 44  1  0
 15 45  1  0
 15 46  1  0
 20 47  1  0
 20 48  1  0
 23 49  1  0
 24 50  1  0
 24 51  1  0
 25 52  1  0
 25 53  1  0
 27 54  1  0
 28 55  1  0
 29 56  1  0
 30 57  1  0
 31 58  1  0
 32 59  1  0
 33 60  1  0
M  END
$$$$
