
     RDKit          3D

 37 39  0  0  0  0  0  0  0  0999 V2000
    2.8095    2.6347    1.6936 C   0  0  0  0  0  0  0  0  0  0  0  0
    2.1399    1.8344    0.7216 O   0  0  0  0  0  0  0  0  0  0  0  0
    1.6853    0.6139    1.1534 C   0  0  0  0  0  0  0  0  0  0  0  0
    1.5191    0.2358    2.4829 C   0  0  0  0  0  0  0  0  0  0  0  0
    1.0171   -1.0298    2.8194 C   0  0  0  0  0  0  0  0  0  0  0  0
    0.6731   -1.8956    1.7761 C   0  0  0  0  0  0  0  0  0  0  0  0
    0.1867   -3.1826    1.8202 N   0  0  0  0  0  0  0  0  0  0  0  0
   -0.0240   -3.6506    0.5505 C   0  0  0  0  0  0  0  0  0  0  0  0
    0.3249   -2.6534   -0.3345 C   0  0  0  0  0  0  0  0  0  0  0  0
    0.2009   -2.8064   -1.7493 C   0  0  0  0  0  0  0  0  0  0  0  0
   -0.3395   -1.9524   -2.6371 C   0  0  0  0  0  0  0  0  0  0  0  0
   -0.9518   -0.6526   -2.3427 C   0  0  0  0  0  0  0  0  0  0  0  0
   -0.5473    0.4752   -3.0561 C   0  0  0  0  0  0  0  0  0  0  0  0
   -1.0781    1.7164   -2.7288 C   0  0  0  0  0  0  0  0  0  0  0  0
   -1.9964    1.8378   -1.7431 N   0  0  0  0  0  4  0  0  0  0  0  0
   -2.5136    3.1739   -1.4062 C   0  0  0  0  0  0  0  0  0  0  0  0
   -2.4260    0.7529   -1.0639 C   0  0  0  0  0  0  0  0  0  0  0  0
   -1.9286   -0.5089   -1.3597 C   0  0  0  0  0  0  0  0  0  0  0  0
    0.8066   -1.5450    0.4304 C   0  0  0  0  0  0  0  0  0  0  0  0
    1.3442   -0.2756    0.1271 C   0  0  0  0  0  0  0  0  0  0  0  0
    3.6465    2.0942    2.1455 H   0  0  0  0  0  0  0  0  0  0  0  0
    2.1093    2.9906    2.4565 H   0  0  0  0  0  0  0  0  0  0  0  0
    3.2149    3.5124    1.1818 H   0  0  0  0  0  0  0  0  0  0  0  0
    1.7762    0.9033    3.2996 H   0  0  0  0  0  0  0  0  0  0  0  0
    0.9084   -1.3228    3.8587 H   0  0  0  0  0  0  0  0  0  0  0  0
    0.0168   -3.7034    2.6707 H   0  0  0  0  0  0  0  0  0  0  0  0
   -0.4144   -4.6490    0.3938 H   0  0  0  0  0  0  0  0  0  0  0  0
    0.5667   -3.7531   -2.1467 H   0  0  0  0  0  0  0  0  0  0  0  0
   -0.3341   -2.2339   -3.6911 H   0  0  0  0  0  0  0  0  0  0  0  0
    0.2048    0.3992   -3.8384 H   0  0  0  0  0  0  0  0  0  0  0  0
   -0.7690    2.6218   -3.2422 H   0  0  0  0  0  0  0  0  0  0  0  0
   -3.3081    3.0906   -0.6610 H   0  0  0  0  0  0  0  0  0  0  0  0
   -2.9118    3.6201   -2.3212 H   0  0  0  0  0  0  0  0  0  0  0  0
   -1.6822    3.7625   -1.0100 H   0  0  0  0  0  0  0  0  0  0  0  0
   -3.1583    0.9022   -0.2790 H   0  0  0  0  0  0  0  0  0  0  0  0
   -2.2788   -1.3687   -0.7929 H   0  0  0  0  0  0  0  0  0  0  0  0
    1.5114    0.0117   -0.9049 H   0  0  0  0  0  0  0  0  0  0  0  0
  1  2  1  0
  2  3  1  0
  3  4  2  0
  4  5  1  0
  5  6  2  0
  6  7  1  0
  7  8  1  0
  8  9  2  0
  9 10  1  0
 10 11  2  3
 11 12  1  0
 12 13  2  0
 13 14  1  0
 14 15  2  0
 15 16  1  0
 15 17  1  0
 17 18  2  0
  9 19  1  0
 19 20  2  0
 20  3  1  0
 19  6  1  0
 18 12  1  0
  1 21  1  0
  1 22  1  0
  1 23  1  0
  4 24  1  0
  5 25  1  0
  7 26  1  0
  8 27  1  0
 10 28  1  0
 11 29  1  0
 13 30  1  0
 14 31  1  0
 16 32  1  0
 16 33  1  0
 16 34  1  0
 17 35  1  0
 18 36  1  0
 20 37  1  0
M  CHG  1  15   1
M  END
$$$$
