
     RDKit          3D

 37 39  0  0  0  0  0  0  0  0999 V2000
    2.6447    1.6188    1.4129 N   0  0  0  0  0  0  0  0  0  0  0  0
    1.9689    0.3826    1.7999 C   0  0  0  0  0  0  0  0  0  0  0  0
    2.1977   -0.7321    0.7806 C   0  0  0  0  0  0  0  0  0  0  0  0
    1.5955   -0.4625   -0.6086 C   0  0  0  0  0  0  0  0  0  0  0  0
    0.1150   -0.6143   -0.6464 N   0  0  0  0  0  0  0  0  0  0  0  0
   -0.3762   -1.9300   -0.4201 C   0  0  0  0  0  0  0  0  0  0  0  0
    0.2181   -3.0435   -1.0491 C   0  0  0  0  0  0  0  0  0  0  0  0
   -0.2556   -4.3442   -0.8506 C   0  0  0  0  0  0  0  0  0  0  0  0
   -1.3470   -4.5654   -0.0230 C   0  0  0  0  0  0  0  0  0  0  0  0
   -1.9679   -3.4834    0.5949 C   0  0  0  0  0  0  0  0  0  0  0  0
   -1.4993   -2.1731    0.3949 C   0  0  0  0  0  0  0  0  0  0  0  0
   -2.3581   -0.8761    1.2625 S   0  0  0  0  0  0  0  0  0  0  0  0
   -1.7865    0.5716    0.3972 C   0  0  0  0  0  0  0  0  0  0  0  0
   -2.5180    1.7541    0.5966 C   0  0  0  0  0  0  0  0  0  0  0  0
   -2.1378    2.9425   -0.0231 C   0  0  0  0  0  0  0  0  0  0  0  0
   -1.0194    2.9670   -0.8590 C   0  0  0  0  0  0  0  0  0  0  0  0
   -0.6250    4.2375   -1.5688 C   0  0  0  0  0  0  0  0  0  0  0  0
   -1.3908    4.4734   -2.6700 F   0  0  0  0  0  0  0  0  0  0  0  0
    0.6657    4.2417   -2.0044 F   0  0  0  0  0  0  0  0  0  0  0  0
   -0.7538    5.3434   -0.7826 F   0  0  0  0  0  0  0  0  0  0  0  0
   -0.2958    1.7775   -1.0575 C   0  0  0  0  0  0  0  0  0  0  0  0
   -0.6384    0.5679   -0.4179 C   0  0  0  0  0  0  0  0  0  0  0  0
    3.6545    1.4844    1.4587 H   0  0  0  0  0  0  0  0  0  0  0  0
    2.4299    2.3413    2.1009 H   0  0  0  0  0  0  0  0  0  0  0  0
    0.9017    0.5750    1.9371 H   0  0  0  0  0  0  0  0  0  0  0  0
    2.3589    0.0633    2.7731 H   0  0  0  0  0  0  0  0  0  0  0  0
    3.2792   -0.8803    0.6611 H   0  0  0  0  0  0  0  0  0  0  0  0
    1.8108   -1.6703    1.1943 H   0  0  0  0  0  0  0  0  0  0  0  0
    2.0566   -1.1518   -1.3247 H   0  0  0  0  0  0  0  0  0  0  0  0
    1.9315    0.5168   -0.9616 H   0  0  0  0  0  0  0  0  0  0  0  0
    1.0455   -2.9156   -1.7403 H   0  0  0  0  0  0  0  0  0  0  0  0
    0.2245   -5.1789   -1.3549 H   0  0  0  0  0  0  0  0  0  0  0  0
   -1.7217   -5.5730    0.1345 H   0  0  0  0  0  0  0  0  0  0  0  0
   -2.8269   -3.6667    1.2369 H   0  0  0  0  0  0  0  0  0  0  0  0
   -3.3962    1.7534    1.2396 H   0  0  0  0  0  0  0  0  0  0  0  0
   -2.7231    3.8454    0.1429 H   0  0  0  0  0  0  0  0  0  0  0  0
    0.5387    1.8034   -1.7557 H   0  0  0  0  0  0  0  0  0  0  0  0
  1  2  1  0
  2  3  1  0
  3  4  1  0
  4  5  1  0
  5  6  1  0
  6  7  2  0
  7  8  1  0
  8  9  2  0
  9 10  1  0
 10 11  2  0
 11 12  1  0
 12 13  1  0
 13 14  2  0
 14 15  1  0
 15 16  2  0
 16 17  1  0
 17 18  1  0
 17 19  1  0
 17 20  1  0
 16 21  1  0
 21 22  2  0
 22  5  1  0
 11  6  1  0
 22 13  1  0
  1 23  1  0
  1 24  1  0
  2 25  1  0
  2 26  1  0
  3 27  1  0
  3 28  1  0
  4 29  1  0
  4 30  1  0
  7 31  1  0
  8 32  1  0
  9 33  1  0
 10 34  1  0
 14 35  1  0
 15 36  1  0
 21 37  1  0
M  END
$$$$
