
     RDKit          3D

 50 53  0  0  0  0  0  0  0  0999 V2000
   -4.6318    0.3664   -2.1203 C   0  0  0  0  0  0  0  0  0  0  0  0
   -3.7275    0.9964   -1.1798 N   0  0  0  0  0  0  0  0  0  0  0  0
   -4.1432    1.7668   -0.1231 C   0  0  0  0  0  0  0  0  0  0  0  0
   -3.0286    2.2657    0.5141 C   0  0  0  0  0  0  0  0  0  0  0  0
   -1.8997    1.7639   -0.1753 C   0  0  0  0  0  0  0  0  0  0  0  0
   -2.3477    0.9628   -1.2165 C   0  0  0  0  0  0  0  0  0  0  0  0
   -1.5543    0.2058   -2.2459 C   0  0  0  0  0  0  0  0  0  0  0  0
   -0.3327   -0.4582   -1.6862 C   0  0  0  0  0  0  0  0  0  0  0  0
    0.9065   -0.1150   -1.9902 N   0  0  0  0  0  0  0  0  0  0  0  0
    1.7554   -0.8127   -1.1829 N   0  0  0  0  0  0  0  0  0  0  0  0
    1.0306   -1.5653   -0.3849 C   0  0  0  0  0  0  0  0  0  0  0  0
    1.6960   -2.6902    0.7543 S   0  0  0  0  0  0  0  0  0  0  0  0
    3.4798   -2.3737    0.5755 C   0  0  0  0  0  0  0  0  0  0  0  0
    3.8954   -1.1223    1.3390 C   0  0  0  0  0  0  0  0  0  0  0  0
    4.3369   -1.2058    2.4853 O   0  0  0  0  0  0  0  0  0  0  0  0
    3.7238    0.0412    0.6099 N   0  0  0  0  0  0  0  0  0  0  0  0
    4.0098    1.3607    1.0045 C   0  0  0  0  0  0  0  0  0  0  0  0
    4.6583    1.6984    2.1950 C   0  0  0  0  0  0  0  0  0  0  0  0
    4.8997    3.0418    2.5151 C   0  0  0  0  0  0  0  0  0  0  0  0
    4.4982    4.0534    1.6448 C   0  0  0  0  0  0  0  0  0  0  0  0
    3.8550    3.7242    0.4513 C   0  0  0  0  0  0  0  0  0  0  0  0
    3.6129    2.3845    0.1336 C   0  0  0  0  0  0  0  0  0  0  0  0
   -0.3142   -1.4187   -0.6780 N   0  0  0  0  0  0  0  0  0  0  0  0
   -1.4278   -2.0758   -0.0932 C   0  0  0  0  0  0  0  0  0  0  0  0
   -1.5524   -2.1489    1.2995 C   0  0  0  0  0  0  0  0  0  0  0  0
   -2.6617   -2.7823    1.8650 C   0  0  0  0  0  0  0  0  0  0  0  0
   -3.6294   -3.3414    1.0425 C   0  0  0  0  0  0  0  0  0  0  0  0
   -4.6967   -3.9403    1.5888 F   0  0  0  0  0  0  0  0  0  0  0  0
   -3.5116   -3.2845   -0.3409 C   0  0  0  0  0  0  0  0  0  0  0  0
   -2.4097   -2.6471   -0.9161 C   0  0  0  0  0  0  0  0  0  0  0  0
   -4.4909    0.8352   -3.0947 H   0  0  0  0  0  0  0  0  0  0  0  0
   -5.6651    0.5088   -1.7861 H   0  0  0  0  0  0  0  0  0  0  0  0
   -4.4118   -0.6996   -2.1664 H   0  0  0  0  0  0  0  0  0  0  0  0
   -5.1951    1.9199    0.0854 H   0  0  0  0  0  0  0  0  0  0  0  0
   -3.0351    2.9242    1.3734 H   0  0  0  0  0  0  0  0  0  0  0  0
   -0.8608    1.9696    0.0624 H   0  0  0  0  0  0  0  0  0  0  0  0
   -1.2352    0.9250   -3.0113 H   0  0  0  0  0  0  0  0  0  0  0  0
   -2.1618   -0.5325   -2.7741 H   0  0  0  0  0  0  0  0  0  0  0  0
    4.0243   -3.2219    1.0023 H   0  0  0  0  0  0  0  0  0  0  0  0
    3.7775   -2.3088   -0.4768 H   0  0  0  0  0  0  0  0  0  0  0  0
    3.2278   -0.0502   -0.2765 H   0  0  0  0  0  0  0  0  0  0  0  0
    4.9940    0.9416    2.8971 H   0  0  0  0  0  0  0  0  0  0  0  0
    5.4068    3.2939    3.4466 H   0  0  0  0  0  0  0  0  0  0  0  0
    4.6926    5.0928    1.8920 H   0  0  0  0  0  0  0  0  0  0  0  0
    3.5398    4.5087   -0.2318 H   0  0  0  0  0  0  0  0  0  0  0  0
    3.1029    2.1519   -0.8003 H   0  0  0  0  0  0  0  0  0  0  0  0
   -0.8246   -1.6853    1.9630 H   0  0  0  0  0  0  0  0  0  0  0  0
   -2.7810   -2.8324    2.9430 H   0  0  0  0  0  0  0  0  0  0  0  0
   -4.2783   -3.7428   -0.9620 H   0  0  0  0  0  0  0  0  0  0  0  0
   -2.3151   -2.6481   -1.9983 H   0  0  0  0  0  0  0  0  0  0  0  0
  1  2  1  0
  2  3  1  0
  3  4  2  0
  4  5  1  0
  5  6  2  0
  6  7  1  0
  7  8  1  0
  8  9  2  0
  9 10  1  0
 10 11  2  0
 11 12  1  0
 12 13  1  0
 13 14  1  0
 14 15  2  0
 14 16  1  0
 16 17  1  0
 17 18  2  0
 18 19  1  0
 19 20  2  0
 20 21  1  0
 21 22  2  0
 11 23  1  0
 23 24  1  0
 24 25  2  0
 25 26  1  0
 26 27  2  0
 27 28  1  0
 27 29  1  0
 29 30  2  0
  6  2  1  0
 23  8  1  0
 30 24  1  0
 22 17  1  0
  1 31  1  0
  1 32  1  0
  1 33  1  0
  3 34  1  0
  4 35  1  0
  5 36  1  0
  7 37  1  0
  7 38  1  0
 13 39  1  0
 13 40  1  0
 16 41  1  0
 18 42  1  0
 19 43  1  0
 20 44  1  0
 21 45  1  0
 22 46  1  0
 25 47  1  0
 26 48  1  0
 29 49  1  0
 30 50  1  0
M  END
$$$$
