
     RDKit          3D

 46 49  0  0  0  0  0  0  0  0999 V2000
    1.7423    0.8744    1.0509 O   0  0  0  0  0  0  0  0  0  0  0  0
    1.9013    1.3568   -0.0641 C   0  0  0  0  0  0  0  0  0  0  0  0
    0.8057    1.4668   -1.1154 C   0  0  0  0  0  0  0  0  0  0  0  0
   -0.4685    0.8819   -0.6541 N   0  0  0  0  0  4  0  0  0  0  0  0
   -1.6883    1.5395   -0.5084 C   0  0  0  0  0  0  0  0  0  0  0  0
   -2.6298    0.6424   -0.0139 C   0  0  0  0  0  0  0  0  0  0  0  0
   -4.1342    0.9581    0.3240 C   0  0  0  0  0  0  0  0  0  0  0  0
   -4.9601   -0.0135    0.8905 C   0  0  0  0  0  0  0  0  0  0  0  0
   -6.2976    0.2821    1.1829 C   0  0  0  0  0  0  0  0  0  0  0  0
   -6.8197    1.5494    0.9134 C   0  0  0  0  0  0  0  0  0  0  0  0
   -8.4758    1.8401    1.2987 Cl  0  0  0  0  0  0  0  0  0  0  0  0
   -5.9950    2.5253    0.3498 C   0  0  0  0  0  0  0  0  0  0  0  0
   -6.5570    4.1172   -0.0189 Cl  0  0  0  0  0  0  0  0  0  0  0  0
   -4.6548    2.2312    0.0589 C   0  0  0  0  0  0  0  0  0  0  0  0
   -1.9174   -0.5382    0.0934 N   0  0  0  0  0  0  0  0  0  0  0  0
   -0.6418   -0.3748   -0.2520 C   0  0  0  0  0  0  0  0  0  0  0  0
    0.1609   -1.6163   -0.1295 C   0  0  0  0  0  0  0  0  0  0  0  0
   -0.9351   -2.6891    0.0269 C   0  0  0  0  0  0  0  0  0  0  0  0
   -2.1917   -1.9098    0.5032 C   0  0  0  0  0  0  0  0  0  0  0  0
    3.0720    1.8285   -0.5697 O   0  0  0  0  0  0  0  0  0  0  0  0
    4.2329    1.5980    0.2451 C   0  0  0  0  0  0  0  0  0  0  0  0
    4.7709    0.2214   -0.0515 C   0  0  0  0  0  0  0  0  0  0  0  0
    4.6646   -0.8063    0.8965 C   0  0  0  0  0  0  0  0  0  0  0  0
    5.1432   -2.0857    0.6091 C   0  0  0  0  0  0  0  0  0  0  0  0
    5.7278   -2.3510   -0.6278 C   0  0  0  0  0  0  0  0  0  0  0  0
    5.8356   -1.3381   -1.5800 C   0  0  0  0  0  0  0  0  0  0  0  0
    5.3582   -0.0577   -1.2943 C   0  0  0  0  0  0  0  0  0  0  0  0
    0.6464    2.5220   -1.3558 H   0  0  0  0  0  0  0  0  0  0  0  0
    1.1091    0.9181   -2.0129 H   0  0  0  0  0  0  0  0  0  0  0  0
   -1.7308    2.5843   -0.7669 H   0  0  0  0  0  0  0  0  0  0  0  0
   -4.6018   -1.0063    1.1334 H   0  0  0  0  0  0  0  0  0  0  0  0
   -6.9321   -0.4843    1.6261 H   0  0  0  0  0  0  0  0  0  0  0  0
   -4.0443    3.0150   -0.3799 H   0  0  0  0  0  0  0  0  0  0  0  0
    0.7689   -1.7391   -1.0265 H   0  0  0  0  0  0  0  0  0  0  0  0
    0.7696   -1.5188    0.7709 H   0  0  0  0  0  0  0  0  0  0  0  0
   -0.6512   -3.4944    0.7094 H   0  0  0  0  0  0  0  0  0  0  0  0
   -1.1431   -3.1341   -0.9536 H   0  0  0  0  0  0  0  0  0  0  0  0
   -3.0949   -2.2915    0.0211 H   0  0  0  0  0  0  0  0  0  0  0  0
   -2.2865   -1.9390    1.5928 H   0  0  0  0  0  0  0  0  0  0  0  0
    4.0126    1.7402    1.3098 H   0  0  0  0  0  0  0  0  0  0  0  0
    4.9828    2.3527   -0.0210 H   0  0  0  0  0  0  0  0  0  0  0  0
    4.2124   -0.6159    1.8688 H   0  0  0  0  0  0  0  0  0  0  0  0
    5.0705   -2.8747    1.3541 H   0  0  0  0  0  0  0  0  0  0  0  0
    6.1087   -3.3456   -0.8465 H   0  0  0  0  0  0  0  0  0  0  0  0
    6.3007   -1.5455   -2.5418 H   0  0  0  0  0  0  0  0  0  0  0  0
    5.4542    0.7244   -2.0450 H   0  0  0  0  0  0  0  0  0  0  0  0
  1  2  2  0
  2  3  1  0
  3  4  1  0
  4  5  1  0
  5  6  2  0
  6  7  1  0
  7  8  2  0
  8  9  1  0
  9 10  2  0
 10 11  1  0
 10 12  1  0
 12 13  1  0
 12 14  2  0
  6 15  1  0
 15 16  1  0
 16 17  1  0
 17 18  1  0
 18 19  1  0
  2 20  1  0
 20 21  1  0
 21 22  1  0
 22 23  2  0
 23 24  1  0
 24 25  2  0
 25 26  1  0
 26 27  2  0
 16  4  2  0
 27 22  1  0
 14  7  1  0
 19 15  1  0
  3 28  1  0
  3 29  1  0
  5 30  1  0
  8 31  1  0
  9 32  1  0
 14 33  1  0
 17 34  1  0
 17 35  1  0
 18 36  1  0
 18 37  1  0
 19 38  1  0
 19 39  1  0
 21 40  1  0
 21 41  1  0
 23 42  1  0
 24 43  1  0
 25 44  1  0
 26 45  1  0
 27 46  1  0
M  CHG  1   4   1
M  END
$$$$
