
     RDKit          3D

 35 36  0  0  0  0  0  0  0  0999 V2000
    5.4210   -1.8658    1.5426 C   0  0  0  0  0  0  0  0  0  0  0  0
    4.3603   -0.8997    1.1015 C   0  0  0  0  0  0  0  0  0  0  0  0
    4.0723   -0.7397   -0.2610 C   0  0  0  0  0  0  0  0  0  0  0  0
    3.0694    0.1383   -0.6747 C   0  0  0  0  0  0  0  0  0  0  0  0
    2.3367    0.8421    0.2831 C   0  0  0  0  0  0  0  0  0  0  0  0
    1.0529    1.9640   -0.2260 S   0  0  0  0  0  6  0  0  0  0  0  0
    1.1546    3.1230    0.6419 O   0  0  0  0  0  0  0  0  0  0  0  0
    1.1466    2.1121   -1.6661 O   0  0  0  0  0  0  0  0  0  0  0  0
   -0.4578    1.1088    0.1672 C   0  0  0  0  0  0  0  0  0  0  0  0
   -0.6475   -0.1256   -0.6945 C   0  0  0  0  0  0  0  0  0  0  0  0
   -2.1050   -1.0898   -0.1742 S   0  0  0  0  0  0  0  0  0  0  0  0
   -3.3919   -0.1387   -0.8347 C   0  0  0  0  0  0  0  0  0  0  0  0
   -3.2487    1.0161   -1.4418 N   0  0  0  0  0  0  0  0  0  0  0  0
   -4.5167    1.4015   -1.7914 C   0  0  0  0  0  0  0  0  0  0  0  0
   -5.4401    0.4661   -1.3866 C   0  0  0  0  0  0  0  0  0  0  0  0
   -4.7069   -0.5169   -0.7748 N   0  0  0  0  0  0  0  0  0  0  0  0
   -5.2496   -1.7178   -0.1889 C   0  0  0  0  0  0  0  0  0  0  0  0
    2.6139    0.6974    1.6444 C   0  0  0  0  0  0  0  0  0  0  0  0
    3.6186   -0.1821    2.0500 C   0  0  0  0  0  0  0  0  0  0  0  0
    4.9826   -2.8563    1.6982 H   0  0  0  0  0  0  0  0  0  0  0  0
    6.2152   -1.9435    0.7927 H   0  0  0  0  0  0  0  0  0  0  0  0
    5.8877   -1.5341    2.4761 H   0  0  0  0  0  0  0  0  0  0  0  0
    4.6361   -1.2931   -1.0097 H   0  0  0  0  0  0  0  0  0  0  0  0
    2.8716    0.2648   -1.7370 H   0  0  0  0  0  0  0  0  0  0  0  0
   -0.4218    0.8658    1.2347 H   0  0  0  0  0  0  0  0  0  0  0  0
   -1.2594    1.8382    0.0150 H   0  0  0  0  0  0  0  0  0  0  0  0
    0.2117   -0.7958   -0.5969 H   0  0  0  0  0  0  0  0  0  0  0  0
   -0.7247    0.1295   -1.7568 H   0  0  0  0  0  0  0  0  0  0  0  0
   -4.6980    2.3313   -2.3156 H   0  0  0  0  0  0  0  0  0  0  0  0
   -6.5160    0.4225   -1.4825 H   0  0  0  0  0  0  0  0  0  0  0  0
   -4.8232   -2.5830   -0.7027 H   0  0  0  0  0  0  0  0  0  0  0  0
   -5.0009   -1.7326    0.8753 H   0  0  0  0  0  0  0  0  0  0  0  0
   -6.3363   -1.7225   -0.3087 H   0  0  0  0  0  0  0  0  0  0  0  0
    2.0644    1.2674    2.3904 H   0  0  0  0  0  0  0  0  0  0  0  0
    3.8290   -0.2972    3.1116 H   0  0  0  0  0  0  0  0  0  0  0  0
  1  2  1  0
  2  3  2  0
  3  4  1  0
  4  5  2  0
  5  6  1  0
  6  7  2  0
  6  8  2  0
  6  9  1  0
  9 10  1  0
 10 11  1  0
 11 12  1  0
 12 13  2  0
 13 14  1  0
 14 15  2  0
 15 16  1  0
 16 17  1  0
  5 18  1  0
 18 19  2  0
 19  2  1  0
 16 12  1  0
  1 20  1  0
  1 21  1  0
  1 22  1  0
  3 23  1  0
  4 24  1  0
  9 25  1  0
  9 26  1  0
 10 27  1  0
 10 28  1  0
 14 29  1  0
 15 30  1  0
 17 31  1  0
 17 32  1  0
 17 33  1  0
 18 34  1  0
 19 35  1  0
M  END
$$$$
