
     RDKit          3D

 51 54  0  0  0  0  0  0  0  0999 V2000
    7.1337    1.7576    0.0747 C   0  0  0  0  0  0  0  0  0  0  0  0
    5.8974    0.9146    0.1867 C   0  0  0  0  0  0  0  0  0  0  0  0
    4.6603    1.4992    0.4738 C   0  0  0  0  0  0  0  0  0  0  0  0
    3.4919    0.7225    0.6057 C   0  0  0  0  0  0  0  0  0  0  0  0
    2.1955    1.4356    0.8848 C   0  0  0  0  0  0  0  0  0  0  0  0
    3.5659   -0.6779    0.4429 C   0  0  0  0  0  0  0  0  0  0  0  0
    2.3745   -1.4423    0.5618 N   0  0  0  0  0  0  0  0  0  0  0  0
    2.0289   -2.4452   -0.3341 C   0  0  0  0  0  0  0  0  0  0  0  0
    2.5992   -2.6689   -1.4011 O   0  0  0  0  0  0  0  0  0  0  0  0
    0.8138   -3.2496    0.0948 C   0  0  0  0  0  0  0  0  0  0  0  0
   -0.6644   -2.7112   -0.8137 S   0  0  0  0  0  0  0  0  0  0  0  0
   -1.0464   -1.2472    0.0160 C   0  0  0  0  0  0  0  0  0  0  0  0
   -0.3925   -0.7619    1.0441 N   0  0  0  0  0  0  0  0  0  0  0  0
   -0.9777    0.4306    1.3819 N   0  0  0  0  0  0  0  0  0  0  0  0
   -1.9946    0.6456    0.5675 C   0  0  0  0  0  0  0  0  0  0  0  0
   -2.8378    1.8333    0.5773 C   0  0  0  0  0  0  0  0  0  0  0  0
   -2.2856    3.0775    0.2703 C   0  0  0  0  0  0  0  0  0  0  0  0
   -3.1163    4.1848    0.2785 C   0  0  0  0  0  0  0  0  0  0  0  0
   -4.4330    4.1311    0.5689 N   0  0  0  0  0  0  0  0  0  0  0  0
   -4.9366    2.9209    0.8925 C   0  0  0  0  0  0  0  0  0  0  0  0
   -4.1882    1.7568    0.9139 C   0  0  0  0  0  0  0  0  0  0  0  0
   -2.0718   -0.4064   -0.3258 N   0  0  0  0  0  0  0  0  0  0  0  0
   -2.9478   -0.5064   -1.4792 C   0  0  0  0  0  0  0  0  0  0  0  0
   -4.0328   -1.4947   -1.2602 C   0  0  0  0  0  0  0  0  0  0  0  0
   -4.3023   -2.7380   -1.7946 C   0  0  0  0  0  0  0  0  0  0  0  0
   -5.5003   -3.1848   -1.1885 C   0  0  0  0  0  0  0  0  0  0  0  0
   -5.8911   -2.1840   -0.3317 C   0  0  0  0  0  0  0  0  0  0  0  0
   -5.0106   -1.1522   -0.3733 O   0  0  0  0  0  0  0  0  0  0  0  0
    4.8291   -1.2693    0.2268 C   0  0  0  0  0  0  0  0  0  0  0  0
    5.0968   -2.9825    0.3037 Cl  0  0  0  0  0  0  0  0  0  0  0  0
    5.9751   -0.4757    0.0896 C   0  0  0  0  0  0  0  0  0  0  0  0
    6.9013    2.7337   -0.3646 H   0  0  0  0  0  0  0  0  0  0  0  0
    7.5757    1.9078    1.0648 H   0  0  0  0  0  0  0  0  0  0  0  0
    7.8769    1.2773   -0.5719 H   0  0  0  0  0  0  0  0  0  0  0  0
    4.6013    2.5802    0.5928 H   0  0  0  0  0  0  0  0  0  0  0  0
    1.4687    1.2224    0.0957 H   0  0  0  0  0  0  0  0  0  0  0  0
    1.7943    1.1349    1.8571 H   0  0  0  0  0  0  0  0  0  0  0  0
    2.3329    2.5227    0.9087 H   0  0  0  0  0  0  0  0  0  0  0  0
    1.5751   -0.9950    1.0091 H   0  0  0  0  0  0  0  0  0  0  0  0
    0.6587   -3.1946    1.1778 H   0  0  0  0  0  0  0  0  0  0  0  0
    1.0085   -4.3012   -0.1448 H   0  0  0  0  0  0  0  0  0  0  0  0
   -1.2317    3.1856    0.0335 H   0  0  0  0  0  0  0  0  0  0  0  0
   -2.7335    5.1747    0.0447 H   0  0  0  0  0  0  0  0  0  0  0  0
   -5.9932    2.9113    1.1441 H   0  0  0  0  0  0  0  0  0  0  0  0
   -4.6523    0.8202    1.2022 H   0  0  0  0  0  0  0  0  0  0  0  0
   -3.3682    0.4798   -1.6962 H   0  0  0  0  0  0  0  0  0  0  0  0
   -2.3331   -0.7782   -2.3445 H   0  0  0  0  0  0  0  0  0  0  0  0
   -3.7056   -3.2630   -2.5279 H   0  0  0  0  0  0  0  0  0  0  0  0
   -6.0194   -4.1174   -1.3566 H   0  0  0  0  0  0  0  0  0  0  0  0
   -6.7291   -2.0591    0.3390 H   0  0  0  0  0  0  0  0  0  0  0  0
    6.9404   -0.9540   -0.0639 H   0  0  0  0  0  0  0  0  0  0  0  0
  1  2  1  0
  2  3  2  0
  3  4  1  0
  4  5  1  0
  4  6  2  0
  6  7  1  0
  7  8  1  0
  8  9  2  0
  8 10  1  0
 10 11  1  0
 11 12  1  0
 12 13  2  0
 13 14  1  0
 14 15  2  0
 15 16  1  0
 16 17  2  0
 17 18  1  0
 18 19  2  0
 19 20  1  0
 20 21  2  0
 15 22  1  0
 22 23  1  0
 23 24  1  0
 24 25  2  0
 25 26  1  0
 26 27  2  0
 27 28  1  0
  6 29  1  0
 29 30  1  0
 29 31  2  0
 31  2  1  0
 22 12  1  0
 28 24  1  0
 21 16  1  0
  1 32  1  0
  1 33  1  0
  1 34  1  0
  3 35  1  0
  5 36  1  0
  5 37  1  0
  5 38  1  0
  7 39  1  0
 10 40  1  0
 10 41  1  0
 17 42  1  0
 18 43  1  0
 20 44  1  0
 21 45  1  0
 23 46  1  0
 23 47  1  0
 25 48  1  0
 26 49  1  0
 27 50  1  0
 31 51  1  0
M  END
$$$$
