
     RDKit          3D

 46 48  0  0  0  0  0  0  0  0999 V2000
   -2.1473   -1.5245   -2.2885 C   0  0  0  0  0  0  0  0  0  0  0  0
   -2.0634   -1.7356   -0.7882 C   0  0  0  0  0  0  0  0  0  0  0  0
   -2.6212   -0.5479   -0.0733 N   0  0  0  0  0  4  0  0  0  0  0  0
   -1.7709    0.4397    0.3414 C   0  0  0  0  0  0  0  0  0  0  0  0
   -0.3412    0.4024    0.0060 C   0  0  0  0  0  0  0  0  0  0  0  0
    0.6077    0.2307    0.9410 C   0  0  0  0  0  0  0  0  0  0  0  0
    2.0508    0.2166    0.6521 C   0  0  0  0  0  0  0  0  0  0  0  0
    2.5774   -0.3431   -0.5165 C   0  0  0  0  0  0  0  0  0  0  0  0
    3.9583   -0.3609   -0.7393 C   0  0  0  0  0  0  0  0  0  0  0  0
    4.8354    0.1721    0.2084 C   0  0  0  0  0  0  0  0  0  0  0  0
    6.2002    0.1979    0.0758 O   0  0  0  0  0  0  0  0  0  0  0  0
    6.7644   -0.3291   -1.1164 C   0  0  0  0  0  0  0  0  0  0  0  0
    4.3184    0.7237    1.3965 C   0  0  0  0  0  0  0  0  0  0  0  0
    5.2448    1.2197    2.2793 O   0  0  0  0  0  0  0  0  0  0  0  0
    4.7780    1.7938    3.4909 C   0  0  0  0  0  0  0  0  0  0  0  0
    2.9335    0.7363    1.6105 C   0  0  0  0  0  0  0  0  0  0  0  0
   -2.2456    1.5315    1.0692 C   0  0  0  0  0  0  0  0  0  0  0  0
   -3.5883    1.6278    1.3805 C   0  0  0  0  0  0  0  0  0  0  0  0
   -4.4606    0.6366    0.9499 C   0  0  0  0  0  0  0  0  0  0  0  0
   -5.8262    0.7392    1.2539 C   0  0  0  0  0  0  0  0  0  0  0  0
   -6.7241   -0.2341    0.8259 C   0  0  0  0  0  0  0  0  0  0  0  0
   -6.2672   -1.3166    0.0874 C   0  0  0  0  0  0  0  0  0  0  0  0
   -4.9075   -1.4331   -0.2219 C   0  0  0  0  0  0  0  0  0  0  0  0
   -3.9690   -0.4705    0.2028 C   0  0  0  0  0  0  0  0  0  0  0  0
   -1.7361   -2.3912   -2.8149 H   0  0  0  0  0  0  0  0  0  0  0  0
   -3.1806   -1.3858   -2.6197 H   0  0  0  0  0  0  0  0  0  0  0  0
   -1.5832   -0.6399   -2.5986 H   0  0  0  0  0  0  0  0  0  0  0  0
   -2.6014   -2.6310   -0.4651 H   0  0  0  0  0  0  0  0  0  0  0  0
   -1.0296   -1.9029   -0.4732 H   0  0  0  0  0  0  0  0  0  0  0  0
   -0.0917    0.5518   -1.0411 H   0  0  0  0  0  0  0  0  0  0  0  0
    0.3471    0.1147    1.9929 H   0  0  0  0  0  0  0  0  0  0  0  0
    1.9334   -0.7849   -1.2715 H   0  0  0  0  0  0  0  0  0  0  0  0
    4.3208   -0.8036   -1.6614 H   0  0  0  0  0  0  0  0  0  0  0  0
    7.8506   -0.2130   -1.0527 H   0  0  0  0  0  0  0  0  0  0  0  0
    6.4212    0.2266   -1.9952 H   0  0  0  0  0  0  0  0  0  0  0  0
    6.5493   -1.3981   -1.2150 H   0  0  0  0  0  0  0  0  0  0  0  0
    4.2520    1.0526    4.1015 H   0  0  0  0  0  0  0  0  0  0  0  0
    5.6496    2.1340    4.0584 H   0  0  0  0  0  0  0  0  0  0  0  0
    4.1463    2.6667    3.2963 H   0  0  0  0  0  0  0  0  0  0  0  0
    2.5252    1.1587    2.5231 H   0  0  0  0  0  0  0  0  0  0  0  0
   -1.5672    2.3209    1.3916 H   0  0  0  0  0  0  0  0  0  0  0  0
   -3.9445    2.4861    1.9500 H   0  0  0  0  0  0  0  0  0  0  0  0
   -6.2111    1.5826    1.8277 H   0  0  0  0  0  0  0  0  0  0  0  0
   -7.7826   -0.1436    1.0663 H   0  0  0  0  0  0  0  0  0  0  0  0
   -6.9737   -2.0733   -0.2522 H   0  0  0  0  0  0  0  0  0  0  0  0
   -4.6308   -2.2998   -0.8140 H   0  0  0  0  0  0  0  0  0  0  0  0
  1  2  1  0
  2  3  1  0
  3  4  2  0
  4  5  1  0
  5  6  2  3
  6  7  1  0
  7  8  2  0
  8  9  1  0
  9 10  2  0
 10 11  1  0
 11 12  1  0
 10 13  1  0
 13 14  1  0
 14 15  1  0
 13 16  2  0
  4 17  1  0
 17 18  2  0
 18 19  1  0
 19 20  2  0
 20 21  1  0
 21 22  2  0
 22 23  1  0
 23 24  2  0
 24  3  1  0
 16  7  1  0
 24 19  1  0
  1 25  1  0
  1 26  1  0
  1 27  1  0
  2 28  1  0
  2 29  1  0
  5 30  1  0
  6 31  1  0
  8 32  1  0
  9 33  1  0
 12 34  1  0
 12 35  1  0
 12 36  1  0
 15 37  1  0
 15 38  1  0
 15 39  1  0
 16 40  1  0
 17 41  1  0
 18 42  1  0
 20 43  1  0
 21 44  1  0
 22 45  1  0
 23 46  1  0
M  CHG  1   3   1
M  END
$$$$
