
     RDKit          3D

 57 61  0  0  0  0  0  0  0  0999 V2000
   -5.6823   -2.7396   -1.6485 C   0  0  0  0  0  0  0  0  0  0  0  0
   -4.7352   -1.5475   -1.4845 C   0  0  0  0  0  0  0  0  0  0  0  0
   -5.5474   -0.2814   -1.2199 C   0  0  0  0  0  0  0  0  0  0  0  0
   -3.7474   -1.7961   -0.3380 C   0  0  0  0  0  0  0  0  0  0  0  0
   -3.9613   -2.6802    0.4950 O   0  0  0  0  0  0  0  0  0  0  0  0
   -2.6300   -0.9700   -0.2366 N   0  0  0  0  0  0  0  0  0  0  0  0
   -1.7860   -1.1098    0.9459 C   0  0  0  0  0  0  0  0  0  0  0  0
   -1.0816    0.1943    1.3081 C   0  0  0  0  0  0  0  0  0  0  0  0
   -0.2523    0.8049    0.1383 C   0  0  0  0  0  0  0  0  0  0  0  0
   -0.6361    0.1314   -1.2036 C   0  0  0  0  0  0  0  0  0  0  0  0
   -2.1438   -0.0928   -1.2989 C   0  0  0  0  0  0  0  0  0  0  0  0
   -0.7117    2.1882    0.0845 O   0  0  0  0  0  0  0  0  0  0  0  0
    0.0820    3.1058   -0.5389 C   0  0  0  0  0  0  0  0  0  0  0  0
   -0.4930    4.3560   -0.7729 C   0  0  0  0  0  0  0  0  0  0  0  0
    0.2359    5.3470   -1.4331 C   0  0  0  0  0  0  0  0  0  0  0  0
    1.5356    5.0810   -1.8535 C   0  0  0  0  0  0  0  0  0  0  0  0
    2.2276    6.0327   -2.4922 F   0  0  0  0  0  0  0  0  0  0  0  0
    2.1257    3.8465   -1.6188 C   0  0  0  0  0  0  0  0  0  0  0  0
    1.3920    2.8664   -0.9468 C   0  0  0  0  0  0  0  0  0  0  0  0
    1.9839    1.5540   -0.6592 C   0  0  0  0  0  0  0  0  0  0  0  0
    2.9693    1.1759   -1.2860 O   0  0  0  0  0  0  0  0  0  0  0  0
    1.2772    0.7375    0.4153 C   0  0  0  0  0  0  0  0  0  0  0  0
    1.8582   -0.6629    0.5288 C   0  0  0  0  0  0  0  0  0  0  0  0
    2.8497   -0.4113    1.6146 C   0  0  0  0  0  0  0  0  0  0  0  0
    3.9215   -1.3802    1.9433 C   0  0  0  0  0  0  0  0  0  0  0  0
    4.8661   -1.0394    2.9197 C   0  0  0  0  0  0  0  0  0  0  0  0
    5.8855   -1.9323    3.2555 C   0  0  0  0  0  0  0  0  0  0  0  0
    5.9654   -3.1695    2.6193 C   0  0  0  0  0  0  0  0  0  0  0  0
    5.0269   -3.5159    1.6481 C   0  0  0  0  0  0  0  0  0  0  0  0
    4.0048   -2.6249    1.3089 C   0  0  0  0  0  0  0  0  0  0  0  0
    2.6721    0.6967    2.2619 N   0  0  0  0  0  0  0  0  0  0  0  0
    1.5726    1.3614    1.6770 O   0  0  0  0  0  0  0  0  0  0  0  0
   -5.1181   -3.6627   -1.8214 H   0  0  0  0  0  0  0  0  0  0  0  0
   -6.3517   -2.5894   -2.5022 H   0  0  0  0  0  0  0  0  0  0  0  0
   -6.3005   -2.8896   -0.7563 H   0  0  0  0  0  0  0  0  0  0  0  0
   -4.1893   -1.4493   -2.4263 H   0  0  0  0  0  0  0  0  0  0  0  0
   -4.9123    0.6055   -1.1524 H   0  0  0  0  0  0  0  0  0  0  0  0
   -6.0978   -0.3575   -0.2752 H   0  0  0  0  0  0  0  0  0  0  0  0
   -6.2724   -0.1090   -2.0224 H   0  0  0  0  0  0  0  0  0  0  0  0
   -1.0637   -1.9068    0.7381 H   0  0  0  0  0  0  0  0  0  0  0  0
   -2.3883   -1.4405    1.7997 H   0  0  0  0  0  0  0  0  0  0  0  0
   -0.4587    0.0162    2.1917 H   0  0  0  0  0  0  0  0  0  0  0  0
   -1.8486    0.9110    1.6334 H   0  0  0  0  0  0  0  0  0  0  0  0
   -0.3317    0.7486   -2.0565 H   0  0  0  0  0  0  0  0  0  0  0  0
   -0.1287   -0.8350   -1.3099 H   0  0  0  0  0  0  0  0  0  0  0  0
   -2.6781    0.8592   -1.2187 H   0  0  0  0  0  0  0  0  0  0  0  0
   -2.3717   -0.5270   -2.2751 H   0  0  0  0  0  0  0  0  0  0  0  0
   -1.5102    4.5582   -0.4457 H   0  0  0  0  0  0  0  0  0  0  0  0
   -0.2008    6.3229   -1.6230 H   0  0  0  0  0  0  0  0  0  0  0  0
    3.1447    3.6632   -1.9465 H   0  0  0  0  0  0  0  0  0  0  0  0
    1.1430   -1.3999    0.9010 H   0  0  0  0  0  0  0  0  0  0  0  0
    2.3171   -1.0332   -0.3904 H   0  0  0  0  0  0  0  0  0  0  0  0
    4.8163   -0.0763    3.4240 H   0  0  0  0  0  0  0  0  0  0  0  0
    6.6163   -1.6601    4.0130 H   0  0  0  0  0  0  0  0  0  0  0  0
    6.7601   -3.8641    2.8808 H   0  0  0  0  0  0  0  0  0  0  0  0
    5.0920   -4.4824    1.1540 H   0  0  0  0  0  0  0  0  0  0  0  0
    3.2890   -2.9281    0.5515 H   0  0  0  0  0  0  0  0  0  0  0  0
  1  2  1  0
  2  3  1  0
  2  4  1  0
  4  5  2  0
  4  6  1  0
  6  7  1  0
  7  8  1  0
  8  9  1  0
  9 10  1  0
 10 11  1  0
  9 12  1  0
 12 13  1  0
 13 14  2  0
 14 15  1  0
 15 16  2  0
 16 17  1  0
 16 18  1  0
 18 19  2  0
 19 20  1  0
 20 21  2  0
 20 22  1  0
 22 23  1  0
 23 24  1  0
 24 25  1  0
 25 26  2  0
 26 27  1  0
 27 28  2  0
 28 29  1  0
 29 30  2  0
 24 31  2  0
 31 32  1  0
 11  6  1  0
 19 13  1  0
 32 22  1  0
 22  9  1  0
 30 25  1  0
  1 33  1  0
  1 34  1  0
  1 35  1  0
  2 36  1  0
  3 37  1  0
  3 38  1  0
  3 39  1  0
  7 40  1  0
  7 41  1  0
  8 42  1  0
  8 43  1  0
 10 44  1  0
 10 45  1  0
 11 46  1  0
 11 47  1  0
 14 48  1  0
 15 49  1  0
 18 50  1  0
 23 51  1  0
 23 52  1  0
 26 53  1  0
 27 54  1  0
 28 55  1  0
 29 56  1  0
 30 57  1  0
M  END
$$$$
