
     RDKit          3D

 51 55  0  0  0  0  0  0  0  0999 V2000
    0.5235   -0.8160    1.0240 O   0  0  0  0  0  0  0  0  0  0  0  0
    0.8723    0.3557    0.9141 C   0  0  0  0  0  0  0  0  0  0  0  0
   -0.1387    1.5019    0.7572 C   0  0  0  0  0  0  0  0  0  0  0  0
   -1.4829    1.0209    0.4391 N   0  0  0  0  0  0  0  0  0  0  0  0
   -2.2919    0.6588    1.5143 C   0  0  0  0  0  0  0  0  0  0  0  0
   -2.0366    0.9756    2.6779 O   0  0  0  0  0  0  0  0  0  0  0  0
   -3.5026   -0.1847    1.2081 C   0  0  0  0  0  0  0  0  0  0  0  0
   -4.7113    0.6905    0.9125 C   0  0  0  0  0  0  0  0  0  0  0  0
   -5.9011   -0.1199    0.5042 C   0  0  0  0  0  0  0  0  0  0  0  0
   -7.2339   -0.0796    0.8630 C   0  0  0  0  0  0  0  0  0  0  0  0
   -7.8788   -1.1167    0.1459 C   0  0  0  0  0  0  0  0  0  0  0  0
   -6.9028   -1.7194   -0.6097 C   0  0  0  0  0  0  0  0  0  0  0  0
   -5.7014   -1.1205   -0.4048 O   0  0  0  0  0  0  0  0  0  0  0  0
   -4.4223    2.0244   -0.3136 S   0  0  0  0  0  0  0  0  0  0  0  0
   -3.1846    1.2657   -1.3652 C   0  0  0  0  0  0  0  0  0  0  0  0
   -3.5171    1.1736   -2.7270 C   0  0  0  0  0  0  0  0  0  0  0  0
   -2.5785    0.7492   -3.6666 C   0  0  0  0  0  0  0  0  0  0  0  0
   -1.2942    0.4197   -3.2536 C   0  0  0  0  0  0  0  0  0  0  0  0
   -0.9471    0.5156   -1.9006 C   0  0  0  0  0  0  0  0  0  0  0  0
   -1.8817    0.9253   -0.9329 C   0  0  0  0  0  0  0  0  0  0  0  0
    2.1838    0.8158    0.8913 N   0  0  0  0  0  0  0  0  0  0  0  0
    3.3611    0.0382    0.8300 C   0  0  0  0  0  0  0  0  0  0  0  0
    3.3702   -1.3589    0.7945 C   0  0  0  0  0  0  0  0  0  0  0  0
    4.5748   -2.0598    0.6766 C   0  0  0  0  0  0  0  0  0  0  0  0
    5.7781   -1.3683    0.5951 C   0  0  0  0  0  0  0  0  0  0  0  0
    5.7785    0.0265    0.6172 C   0  0  0  0  0  0  0  0  0  0  0  0
    4.5794    0.7259    0.7543 C   0  0  0  0  0  0  0  0  0  0  0  0
    6.9189    0.7789    0.4967 O   0  0  0  0  0  0  0  0  0  0  0  0
    8.0185   -0.0073    0.0206 C   0  0  0  0  0  0  0  0  0  0  0  0
    8.0846   -1.3381    0.7498 C   0  0  0  0  0  0  0  0  0  0  0  0
    6.9188   -2.1196    0.4741 O   0  0  0  0  0  0  0  0  0  0  0  0
    0.1978    2.1915   -0.0255 H   0  0  0  0  0  0  0  0  0  0  0  0
   -0.1551    2.0622    1.6983 H   0  0  0  0  0  0  0  0  0  0  0  0
   -3.2712   -0.8884    0.4008 H   0  0  0  0  0  0  0  0  0  0  0  0
   -3.6992   -0.8204    2.0808 H   0  0  0  0  0  0  0  0  0  0  0  0
   -4.9735    1.2253    1.8361 H   0  0  0  0  0  0  0  0  0  0  0  0
   -7.6797    0.6153    1.5618 H   0  0  0  0  0  0  0  0  0  0  0  0
   -8.9234   -1.3862    0.1843 H   0  0  0  0  0  0  0  0  0  0  0  0
   -6.9017   -2.5445   -1.3087 H   0  0  0  0  0  0  0  0  0  0  0  0
   -4.5108    1.4556   -3.0700 H   0  0  0  0  0  0  0  0  0  0  0  0
   -2.8516    0.6913   -4.7177 H   0  0  0  0  0  0  0  0  0  0  0  0
   -0.5603    0.0811   -3.9795 H   0  0  0  0  0  0  0  0  0  0  0  0
    0.0594    0.2151   -1.6235 H   0  0  0  0  0  0  0  0  0  0  0  0
    2.3199    1.8192    0.8899 H   0  0  0  0  0  0  0  0  0  0  0  0
    2.4572   -1.9422    0.8517 H   0  0  0  0  0  0  0  0  0  0  0  0
    4.5670   -3.1467    0.6533 H   0  0  0  0  0  0  0  0  0  0  0  0
    4.6140    1.8106    0.7717 H   0  0  0  0  0  0  0  0  0  0  0  0
    8.9337    0.5664    0.1977 H   0  0  0  0  0  0  0  0  0  0  0  0
    7.9040   -0.1482   -1.0613 H   0  0  0  0  0  0  0  0  0  0  0  0
    8.1648   -1.1992    1.8357 H   0  0  0  0  0  0  0  0  0  0  0  0
    8.9541   -1.9113    0.4129 H   0  0  0  0  0  0  0  0  0  0  0  0
  1  2  2  0
  2  3  1  0
  3  4  1  0
  4  5  1  0
  5  6  2  0
  5  7  1  0
  7  8  1  0
  8  9  1  0
  9 10  2  0
 10 11  1  0
 11 12  2  0
 12 13  1  0
  8 14  1  0
 14 15  1  0
 15 16  2  0
 16 17  1  0
 17 18  2  0
 18 19  1  0
 19 20  2  0
  2 21  1  0
 21 22  1  0
 22 23  2  0
 23 24  1  0
 24 25  2  0
 25 26  1  0
 26 27  2  0
 26 28  1  0
 28 29  1  0
 29 30  1  0
 30 31  1  0
 20  4  1  0
 27 22  1  0
 13  9  1  0
 20 15  1  0
 31 25  1  0
  3 32  1  0
  3 33  1  0
  7 34  1  0
  7 35  1  0
  8 36  1  0
 10 37  1  0
 11 38  1  0
 12 39  1  0
 16 40  1  0
 17 41  1  0
 18 42  1  0
 19 43  1  0
 21 44  1  0
 23 45  1  0
 24 46  1  0
 27 47  1  0
 29 48  1  0
 29 49  1  0
 30 50  1  0
 30 51  1  0
M  END
$$$$
