
     RDKit          3D

 54 59  0  0  0  0  0  0  0  0999 V2000
    6.5213   -0.3333    2.7249 C   0  0  0  0  0  0  0  0  0  0  0  0
    5.6218   -0.4275    1.5285 C   0  0  0  0  0  0  0  0  0  0  0  0
    4.4127   -1.1256    1.6043 C   0  0  0  0  0  0  0  0  0  0  0  0
    3.5581   -1.1882    0.5006 C   0  0  0  0  0  0  0  0  0  0  0  0
    3.8853   -0.5351   -0.6959 C   0  0  0  0  0  0  0  0  0  0  0  0
    2.9726   -0.6097   -1.9023 C   0  0  0  0  0  0  0  0  0  0  0  0
    1.6147   -0.1316   -1.6384 N   0  0  0  0  0  0  0  0  0  0  0  0
    1.2838    1.2287   -1.6293 C   0  0  0  0  0  0  0  0  0  0  0  0
    2.3706    2.2457   -1.8949 C   0  0  0  0  0  0  0  0  0  0  0  0
    0.0883    1.6988   -1.4064 N   0  0  0  0  0  0  0  0  0  0  0  0
   -0.8469    0.7589   -1.1616 C   0  0  0  0  0  0  0  0  0  0  0  0
   -0.6683   -0.6047   -1.1482 C   0  0  0  0  0  0  0  0  0  0  0  0
    0.6452   -1.1293   -1.4084 C   0  0  0  0  0  0  0  0  0  0  0  0
    0.8863   -2.3328   -1.4262 O   0  0  0  0  0  0  0  0  0  0  0  0
   -1.9129   -1.1970   -0.8644 C   0  0  0  0  0  0  0  0  0  0  0  0
   -2.2883   -2.4939   -0.7448 N   0  0  0  0  0  0  0  0  0  0  0  0
   -3.5886   -2.6773   -0.4677 C   0  0  0  0  0  0  0  0  0  0  0  0
   -4.0526   -3.9790   -0.3290 C   0  0  0  0  0  0  0  0  0  0  0  0
   -5.3906   -4.2521   -0.0416 C   0  0  0  0  0  0  0  0  0  0  0  0
   -6.2850   -3.2022    0.1105 C   0  0  0  0  0  0  0  0  0  0  0  0
   -5.8331   -1.8887   -0.0260 C   0  0  0  0  0  0  0  0  0  0  0  0
   -4.5044   -1.6011   -0.3117 C   0  0  0  0  0  0  0  0  0  0  0  0
   -4.1430   -0.3109   -0.4272 N   0  0  0  0  0  0  0  0  0  0  0  0
   -2.8312   -0.1616   -0.7044 C   0  0  0  0  0  0  0  0  0  0  0  0
   -2.1607    1.0265   -0.8696 N   0  0  0  0  0  0  0  0  0  0  0  0
   -2.7682    2.3436   -0.7818 C   0  0  0  0  0  0  0  0  0  0  0  0
   -2.7645    2.8410    0.6176 C   0  0  0  0  0  0  0  0  0  0  0  0
   -3.3564    2.4032    1.7862 C   0  0  0  0  0  0  0  0  0  0  0  0
   -2.9787    3.3201    2.7957 C   0  0  0  0  0  0  0  0  0  0  0  0
   -2.1898    4.2628    2.1805 C   0  0  0  0  0  0  0  0  0  0  0  0
   -2.0598    3.9855    0.8582 O   0  0  0  0  0  0  0  0  0  0  0  0
    5.1011    0.1606   -0.7681 C   0  0  0  0  0  0  0  0  0  0  0  0
    5.9548    0.2231    0.3365 C   0  0  0  0  0  0  0  0  0  0  0  0
    6.2511    0.5387    3.3283 H   0  0  0  0  0  0  0  0  0  0  0  0
    6.4414   -1.2320    3.3456 H   0  0  0  0  0  0  0  0  0  0  0  0
    7.5690   -0.2420    2.4199 H   0  0  0  0  0  0  0  0  0  0  0  0
    4.1276   -1.6333    2.5234 H   0  0  0  0  0  0  0  0  0  0  0  0
    2.6363   -1.7605    0.5871 H   0  0  0  0  0  0  0  0  0  0  0  0
    3.3921   -0.0278   -2.7295 H   0  0  0  0  0  0  0  0  0  0  0  0
    2.9610   -1.6482   -2.2544 H   0  0  0  0  0  0  0  0  0  0  0  0
    1.9408    3.2518   -1.9369 H   0  0  0  0  0  0  0  0  0  0  0  0
    3.1043    2.2284   -1.0868 H   0  0  0  0  0  0  0  0  0  0  0  0
    2.8592    2.0512   -2.8520 H   0  0  0  0  0  0  0  0  0  0  0  0
   -3.3511   -4.8021   -0.4486 H   0  0  0  0  0  0  0  0  0  0  0  0
   -5.7262   -5.2810    0.0614 H   0  0  0  0  0  0  0  0  0  0  0  0
   -7.3305   -3.3988    0.3339 H   0  0  0  0  0  0  0  0  0  0  0  0
   -6.5361   -1.0673    0.0929 H   0  0  0  0  0  0  0  0  0  0  0  0
   -3.7931    2.2711   -1.1621 H   0  0  0  0  0  0  0  0  0  0  0  0
   -2.2219    3.0176   -1.4504 H   0  0  0  0  0  0  0  0  0  0  0  0
   -3.9789    1.5243    1.8912 H   0  0  0  0  0  0  0  0  0  0  0  0
   -3.2474    3.2973    3.8421 H   0  0  0  0  0  0  0  0  0  0  0  0
   -1.6723    5.1472    2.5247 H   0  0  0  0  0  0  0  0  0  0  0  0
    5.3956    0.6677   -1.6844 H   0  0  0  0  0  0  0  0  0  0  0  0
    6.8855    0.7810    0.2588 H   0  0  0  0  0  0  0  0  0  0  0  0
  1  2  1  0
  2  3  2  0
  3  4  1  0
  4  5  2  0
  5  6  1  0
  6  7  1  0
  7  8  1  0
  8  9  1  0
  8 10  2  0
 10 11  1  0
 11 12  2  0
 12 13  1  0
 13 14  2  0
 12 15  1  0
 15 16  2  0
 16 17  1  0
 17 18  2  0
 18 19  1  0
 19 20  2  0
 20 21  1  0
 21 22  2  0
 22 23  1  0
 23 24  2  0
 24 25  1  0
 25 26  1  0
 26 27  1  0
 27 28  2  0
 28 29  1  0
 29 30  2  0
 30 31  1  0
  5 32  1  0
 32 33  2  0
 33  2  1  0
 13  7  1  0
 24 15  1  0
 31 27  1  0
 25 11  1  0
 22 17  1  0
  1 34  1  0
  1 35  1  0
  1 36  1  0
  3 37  1  0
  4 38  1  0
  6 39  1  0
  6 40  1  0
  9 41  1  0
  9 42  1  0
  9 43  1  0
 18 44  1  0
 19 45  1  0
 20 46  1  0
 21 47  1  0
 26 48  1  0
 26 49  1  0
 28 50  1  0
 29 51  1  0
 30 52  1  0
 32 53  1  0
 33 54  1  0
M  END
$$$$
