
     RDKit          3D

 43 46  0  0  0  0  0  0  0  0999 V2000
    6.4164    2.1162   -0.7407 C   0  0  0  0  0  0  0  0  0  0  0  0
    5.0359    1.5264   -0.7136 C   0  0  0  0  0  0  0  0  0  0  0  0
    4.1073    1.8447   -1.7083 C   0  0  0  0  0  0  0  0  0  0  0  0
    2.8117    1.3203   -1.6648 C   0  0  0  0  0  0  0  0  0  0  0  0
    2.4283    0.4738   -0.6181 C   0  0  0  0  0  0  0  0  0  0  0  0
    0.9708   -0.1104   -0.5781 C   0  0  0  0  0  0  0  0  0  0  0  0
   -0.0585    0.1788   -1.4667 C   0  0  0  0  0  0  0  0  0  0  0  0
   -1.2076   -0.5076   -1.0721 N   0  0  0  0  0  4  0  0  0  0  0  0
   -2.5109   -0.4807   -1.7310 C   0  0  0  0  0  0  0  0  0  0  0  0
   -3.5502    0.0215   -0.7630 C   0  0  0  0  0  0  0  0  0  0  0  0
   -3.4458    1.3018   -0.1950 C   0  0  0  0  0  0  0  0  0  0  0  0
   -4.4079    1.7603    0.7078 C   0  0  0  0  0  0  0  0  0  0  0  0
   -5.4871    0.9479    1.0523 C   0  0  0  0  0  0  0  0  0  0  0  0
   -5.6037   -0.3192    0.4880 C   0  0  0  0  0  0  0  0  0  0  0  0
   -6.9285   -1.3289    0.9129 Cl  0  0  0  0  0  0  0  0  0  0  0  0
   -4.6475   -0.7835   -0.4172 C   0  0  0  0  0  0  0  0  0  0  0  0
   -0.8925   -1.2140    0.0092 C   0  0  0  0  0  0  0  0  0  0  0  0
    0.3876   -1.0040    0.3021 N   0  0  0  0  0  0  0  0  0  0  0  0
    0.8113   -1.7716    1.4649 C   0  0  0  0  0  0  0  0  0  0  0  0
   -0.3539   -2.7762    1.6797 C   0  0  0  0  0  0  0  0  0  0  0  0
   -1.5559   -2.1578    0.9388 C   0  0  0  0  0  0  0  0  0  0  0  0
    3.3465    0.1698    0.3870 C   0  0  0  0  0  0  0  0  0  0  0  0
    4.6411    0.6975    0.3407 C   0  0  0  0  0  0  0  0  0  0  0  0
    7.1461    1.4164   -0.3198 H   0  0  0  0  0  0  0  0  0  0  0  0
    6.4376    3.0440   -0.1606 H   0  0  0  0  0  0  0  0  0  0  0  0
    6.7299    2.3341   -1.7672 H   0  0  0  0  0  0  0  0  0  0  0  0
    4.3906    2.5053   -2.5267 H   0  0  0  0  0  0  0  0  0  0  0  0
    2.1327    1.5928   -2.4671 H   0  0  0  0  0  0  0  0  0  0  0  0
   -0.1247    0.8103   -2.3364 H   0  0  0  0  0  0  0  0  0  0  0  0
   -2.7324   -1.4975   -2.0737 H   0  0  0  0  0  0  0  0  0  0  0  0
   -2.4737    0.1716   -2.6102 H   0  0  0  0  0  0  0  0  0  0  0  0
   -2.6151    1.9570   -0.4520 H   0  0  0  0  0  0  0  0  0  0  0  0
   -4.3216    2.7550    1.1414 H   0  0  0  0  0  0  0  0  0  0  0  0
   -6.2354    1.3105    1.7538 H   0  0  0  0  0  0  0  0  0  0  0  0
   -4.7689   -1.7749   -0.8496 H   0  0  0  0  0  0  0  0  0  0  0  0
    0.9108   -1.0938    2.3176 H   0  0  0  0  0  0  0  0  0  0  0  0
    1.7493   -2.2961    1.2694 H   0  0  0  0  0  0  0  0  0  0  0  0
   -0.0927   -3.7296    1.2051 H   0  0  0  0  0  0  0  0  0  0  0  0
   -0.5573   -2.9710    2.7360 H   0  0  0  0  0  0  0  0  0  0  0  0
   -2.1868   -1.5590    1.5988 H   0  0  0  0  0  0  0  0  0  0  0  0
   -2.1314   -2.8826    0.3623 H   0  0  0  0  0  0  0  0  0  0  0  0
    3.0917   -0.4575    1.2310 H   0  0  0  0  0  0  0  0  0  0  0  0
    5.3444    0.4600    1.1375 H   0  0  0  0  0  0  0  0  0  0  0  0
  1  2  1  0
  2  3  2  0
  3  4  1  0
  4  5  2  0
  5  6  1  0
  6  7  2  0
  7  8  1  0
  8  9  1  0
  9 10  1  0
 10 11  2  0
 11 12  1  0
 12 13  2  0
 13 14  1  0
 14 15  1  0
 14 16  2  0
  8 17  2  0
 17 18  1  0
 18 19  1  0
 19 20  1  0
 20 21  1  0
  5 22  1  0
 22 23  2  0
 23  2  1  0
 18  6  1  0
 16 10  1  0
 21 17  1  0
  1 24  1  0
  1 25  1  0
  1 26  1  0
  3 27  1  0
  4 28  1  0
  7 29  1  0
  9 30  1  0
  9 31  1  0
 11 32  1  0
 12 33  1  0
 13 34  1  0
 16 35  1  0
 19 36  1  0
 19 37  1  0
 20 38  1  0
 20 39  1  0
 21 40  1  0
 21 41  1  0
 22 42  1  0
 23 43  1  0
M  CHG  1   8   1
M  END
$$$$
