
     RDKit          3D

 61 65  0  0  0  0  0  0  0  0999 V2000
    6.1805    4.8707   -2.4186 C   0  0  0  0  0  0  0  0  0  0  0  0
    5.6109    4.3328   -1.2309 O   0  0  0  0  0  0  0  0  0  0  0  0
    5.4880    2.9721   -1.1671 C   0  0  0  0  0  0  0  0  0  0  0  0
    5.8475    2.0669   -2.1649 C   0  0  0  0  0  0  0  0  0  0  0  0
    5.6674    0.6931   -1.9676 C   0  0  0  0  0  0  0  0  0  0  0  0
    5.1293    0.2058   -0.7683 C   0  0  0  0  0  0  0  0  0  0  0  0
    4.9263   -1.2745   -0.5635 C   0  0  0  0  0  0  0  0  0  0  0  0
    3.6985   -1.7311   -1.1786 N   0  0  0  0  0  0  0  0  0  0  0  0
    3.6973   -2.2446   -2.4344 N   0  0  0  0  0  0  0  0  0  0  0  0
    2.4449   -2.5966   -2.7262 N   0  0  0  0  0  0  0  0  0  0  0  0
    1.6804   -2.3132   -1.6361 C   0  0  0  0  0  0  0  0  0  0  0  0
    0.2737   -2.4905   -1.3991 C   0  0  0  0  0  0  0  0  0  0  0  0
   -0.5271   -2.9504   -2.2045 O   0  0  0  0  0  0  0  0  0  0  0  0
   -0.0979   -2.0657   -0.1270 N   0  0  0  0  0  0  0  0  0  0  0  0
    0.7794   -1.5365    0.8120 C   0  0  0  0  0  0  0  0  0  0  0  0
    0.2042   -1.0627    2.1475 C   0  0  0  0  0  0  0  0  0  0  0  0
   -0.5080    0.2871    1.9876 C   0  0  0  0  0  0  0  0  0  0  0  0
   -1.9549    0.1593    1.5289 C   0  0  0  0  0  0  0  0  0  0  0  0
   -2.7166   -0.8687    2.2911 N   0  0  0  0  0  0  0  0  0  0  0  0
   -3.6844   -1.9263    1.3597 S   0  0  0  0  0  6  0  0  0  0  0  0
   -2.7766   -2.5238    0.3984 O   0  0  0  0  0  0  0  0  0  0  0  0
   -4.4734   -2.7408    2.2563 O   0  0  0  0  0  0  0  0  0  0  0  0
   -4.7811   -0.8244    0.5122 C   0  0  0  0  0  0  0  0  0  0  0  0
   -5.7059   -0.0869    1.2549 C   0  0  0  0  0  0  0  0  0  0  0  0
   -6.5742    0.7849    0.5975 C   0  0  0  0  0  0  0  0  0  0  0  0
   -6.5248    0.9196   -0.7974 C   0  0  0  0  0  0  0  0  0  0  0  0
   -7.4710    1.8567   -1.4897 C   0  0  0  0  0  0  0  0  0  0  0  0
   -5.5945    0.1683   -1.5287 C   0  0  0  0  0  0  0  0  0  0  0  0
   -4.7232   -0.7072   -0.8781 C   0  0  0  0  0  0  0  0  0  0  0  0
   -1.9582   -1.5260    3.3835 C   0  0  0  0  0  0  0  0  0  0  0  0
   -0.6531   -2.1132    2.8620 C   0  0  0  0  0  0  0  0  0  0  0  0
    2.0580   -1.3715    0.6002 N   0  0  0  0  0  0  0  0  0  0  0  0
    2.4479   -1.7760   -0.6329 C   0  0  0  0  0  0  0  0  0  0  0  0
    4.7584    1.1208    0.2247 C   0  0  0  0  0  0  0  0  0  0  0  0
    4.9408    2.4911    0.0242 C   0  0  0  0  0  0  0  0  0  0  0  0
    6.2223    5.9587   -2.3049 H   0  0  0  0  0  0  0  0  0  0  0  0
    7.2060    4.5103   -2.5645 H   0  0  0  0  0  0  0  0  0  0  0  0
    5.5553    4.6513   -3.2918 H   0  0  0  0  0  0  0  0  0  0  0  0
    6.2650    2.3935   -3.1117 H   0  0  0  0  0  0  0  0  0  0  0  0
    5.9432    0.0046   -2.7654 H   0  0  0  0  0  0  0  0  0  0  0  0
    4.8859   -1.5252    0.5031 H   0  0  0  0  0  0  0  0  0  0  0  0
    5.7594   -1.8439   -0.9927 H   0  0  0  0  0  0  0  0  0  0  0  0
   -1.0797   -2.2387    0.0841 H   0  0  0  0  0  0  0  0  0  0  0  0
    1.0775   -0.8748    2.7894 H   0  0  0  0  0  0  0  0  0  0  0  0
    0.0375    0.9347    1.2902 H   0  0  0  0  0  0  0  0  0  0  0  0
   -0.4919    0.8064    2.9547 H   0  0  0  0  0  0  0  0  0  0  0  0
   -2.4640    1.1203    1.6617 H   0  0  0  0  0  0  0  0  0  0  0  0
   -1.9673   -0.0525    0.4551 H   0  0  0  0  0  0  0  0  0  0  0  0
   -5.7568   -0.1922    2.3363 H   0  0  0  0  0  0  0  0  0  0  0  0
   -7.2970    1.3560    1.1772 H   0  0  0  0  0  0  0  0  0  0  0  0
   -7.3153    2.8802   -1.1341 H   0  0  0  0  0  0  0  0  0  0  0  0
   -8.5061    1.5593   -1.2936 H   0  0  0  0  0  0  0  0  0  0  0  0
   -7.3205    1.8512   -2.5744 H   0  0  0  0  0  0  0  0  0  0  0  0
   -5.5467    0.2556   -2.6125 H   0  0  0  0  0  0  0  0  0  0  0  0
   -4.0142   -1.2894   -1.4626 H   0  0  0  0  0  0  0  0  0  0  0  0
   -2.5595   -2.3048    3.8633 H   0  0  0  0  0  0  0  0  0  0  0  0
   -1.7654   -0.7857    4.1692 H   0  0  0  0  0  0  0  0  0  0  0  0
   -0.0890   -2.5148    3.7133 H   0  0  0  0  0  0  0  0  0  0  0  0
   -0.8572   -2.9777    2.2220 H   0  0  0  0  0  0  0  0  0  0  0  0
    4.3190    0.7764    1.1587 H   0  0  0  0  0  0  0  0  0  0  0  0
    4.6514    3.1925    0.8027 H   0  0  0  0  0  0  0  0  0  0  0  0
  1  2  1  0
  2  3  1  0
  3  4  2  0
  4  5  1  0
  5  6  2  0
  6  7  1  0
  7  8  1  0
  8  9  1  0
  9 10  2  0
 10 11  1  0
 11 12  1  0
 12 13  2  0
 12 14  1  0
 14 15  1  0
 15 16  1  0
 16 17  1  0
 17 18  1  0
 18 19  1  0
 19 20  1  0
 20 21  2  0
 20 22  2  0
 20 23  1  0
 23 24  2  0
 24 25  1  0
 25 26  2  0
 26 27  1  0
 26 28  1  0
 28 29  2  0
 19 30  1  0
 30 31  1  0
 15 32  2  0
 32 33  1  0
  6 34  1  0
 34 35  2  0
 35  3  1  0
 33  8  1  0
 33 11  2  0
 31 16  1  0
 29 23  1  0
  1 36  1  0
  1 37  1  0
  1 38  1  0
  4 39  1  0
  5 40  1  0
  7 41  1  0
  7 42  1  0
 14 43  1  0
 16 44  1  0
 17 45  1  0
 17 46  1  0
 18 47  1  0
 18 48  1  0
 24 49  1  0
 25 50  1  0
 27 51  1  0
 27 52  1  0
 27 53  1  0
 28 54  1  0
 29 55  1  0
 30 56  1  0
 30 57  1  0
 31 58  1  0
 31 59  1  0
 34 60  1  0
 35 61  1  0
M  END
$$$$
