
     RDKit          3D

 40 42  0  0  0  0  0  0  0  0999 V2000
   -2.2609    1.2391   -2.3196 O   0  0  0  0  0  0  0  0  0  0  0  0
   -1.9354    0.5942   -1.3302 C   0  0  0  0  0  0  0  0  0  0  0  0
   -2.7847   -0.0144   -0.4266 N   0  0  0  0  0  0  0  0  0  0  0  0
   -4.2020   -0.0891   -0.4593 C   0  0  0  0  0  0  0  0  0  0  0  0
   -4.9512    0.4380   -1.5188 C   0  0  0  0  0  0  0  0  0  0  0  0
   -6.3474    0.3536   -1.5279 C   0  0  0  0  0  0  0  0  0  0  0  0
   -7.0204   -0.2617   -0.4790 C   0  0  0  0  0  0  0  0  0  0  0  0
   -6.2971   -0.7985    0.5839 C   0  0  0  0  0  0  0  0  0  0  0  0
   -4.8927   -0.7198    0.6036 C   0  0  0  0  0  0  0  0  0  0  0  0
   -4.1411   -1.3114    1.7456 C   0  0  0  0  0  0  0  0  0  0  0  0
   -2.9260   -1.3561    1.8482 O   0  0  0  0  0  0  0  0  0  0  0  0
   -4.9345   -1.8164    2.7070 O   0  0  0  0  0  0  0  0  0  0  0  0
   -0.4802    0.4591   -1.0221 C   0  0  0  0  0  0  0  0  0  0  0  0
    0.3833    1.4880   -1.4118 C   0  0  0  0  0  0  0  0  0  0  0  0
    1.7565    1.4062   -1.1467 C   0  0  0  0  0  0  0  0  0  0  0  0
    2.2880    0.2907   -0.4982 C   0  0  0  0  0  0  0  0  0  0  0  0
    3.6557    0.1227   -0.1924 N   0  0  0  0  0  0  0  0  0  0  0  0
    4.6983    1.0107   -0.4292 C   0  0  0  0  0  0  0  0  0  0  0  0
    4.5583    2.1163   -0.9425 O   0  0  0  0  0  0  0  0  0  0  0  0
    6.0046    0.5192   -0.0035 C   0  0  0  0  0  0  0  0  0  0  0  0
    6.4524   -0.6730    0.5455 C   0  0  0  0  0  0  0  0  0  0  0  0
    7.8514   -0.5406    0.7401 C   0  0  0  0  0  0  0  0  0  0  0  0
    8.1813    0.7185    0.3007 C   0  0  0  0  0  0  0  0  0  0  0  0
    9.9303    1.4645    0.3138 Br  0  0  0  0  0  0  0  0  0  0  0  0
    7.0766    1.3639   -0.1494 O   0  0  0  0  0  0  0  0  0  0  0  0
    1.4222   -0.7477   -0.1265 C   0  0  0  0  0  0  0  0  0  0  0  0
    0.0486   -0.6696   -0.3876 C   0  0  0  0  0  0  0  0  0  0  0  0
   -2.3594   -0.4176    0.4080 H   0  0  0  0  0  0  0  0  0  0  0  0
   -4.4773    0.9264   -2.3650 H   0  0  0  0  0  0  0  0  0  0  0  0
   -6.9047    0.7736   -2.3624 H   0  0  0  0  0  0  0  0  0  0  0  0
   -8.1057   -0.3247   -0.4895 H   0  0  0  0  0  0  0  0  0  0  0  0
   -6.8407   -1.2794    1.3940 H   0  0  0  0  0  0  0  0  0  0  0  0
   -4.3173   -2.1564    3.3879 H   0  0  0  0  0  0  0  0  0  0  0  0
   -0.0080    2.3656   -1.9244 H   0  0  0  0  0  0  0  0  0  0  0  0
    2.3776    2.2361   -1.4699 H   0  0  0  0  0  0  0  0  0  0  0  0
    3.8924   -0.7437    0.2664 H   0  0  0  0  0  0  0  0  0  0  0  0
    5.8591   -1.5448    0.7801 H   0  0  0  0  0  0  0  0  0  0  0  0
    8.5327   -1.2741    1.1484 H   0  0  0  0  0  0  0  0  0  0  0  0
    1.8009   -1.6389    0.3683 H   0  0  0  0  0  0  0  0  0  0  0  0
   -0.5835   -1.5087   -0.1084 H   0  0  0  0  0  0  0  0  0  0  0  0
  1  2  2  0
  2  3  1  0
  3  4  1  0
  4  5  2  0
  5  6  1  0
  6  7  2  0
  7  8  1  0
  8  9  2  0
  9 10  1  0
 10 11  2  0
 10 12  1  0
  2 13  1  0
 13 14  2  0
 14 15  1  0
 15 16  2  0
 16 17  1  0
 17 18  1  0
 18 19  2  0
 18 20  1  0
 20 21  2  0
 21 22  1  0
 22 23  2  0
 23 24  1  0
 23 25  1  0
 16 26  1  0
 26 27  2  0
  9  4  1  0
 27 13  1  0
 25 20  1  0
  3 28  1  0
  5 29  1  0
  6 30  1  0
  7 31  1  0
  8 32  1  0
 12 33  1  0
 14 34  1  0
 15 35  1  0
 17 36  1  0
 21 37  1  0
 22 38  1  0
 26 39  1  0
 27 40  1  0
M  END
$$$$
