
     RDKit          3D

 42 44  0  0  0  0  0  0  0  0999 V2000
   -4.7244    1.1496    0.6931 C   0  0  0  0  0  0  0  0  0  0  0  0
   -3.8080    0.8672   -0.4611 C   0  0  0  0  0  0  0  0  0  0  0  0
   -4.2400    1.0811   -1.7701 C   0  0  0  0  0  0  0  0  0  0  0  0
   -3.3994    0.8396   -2.8609 C   0  0  0  0  0  0  0  0  0  0  0  0
   -2.0926    0.3886   -2.6113 C   0  0  0  0  0  0  0  0  0  0  0  0
   -1.6118    0.2015   -1.3137 C   0  0  0  0  0  0  0  0  0  0  0  0
   -2.4910    0.4378   -0.2307 C   0  0  0  0  0  0  0  0  0  0  0  0
   -0.2519   -0.2225   -1.4295 C   0  0  0  0  0  0  0  0  0  0  0  0
    0.6678   -0.5312   -0.3786 C   0  0  0  0  0  0  0  0  0  0  0  0
    0.8224    0.1997    0.7384 C   0  0  0  0  0  0  0  0  0  0  0  0
    1.7693   -0.1169    1.8127 C   0  0  0  0  0  0  0  0  0  0  0  0
    1.4020    0.1353    3.1335 C   0  0  0  0  0  0  0  0  0  0  0  0
    2.2963   -0.1345    4.1633 C   0  0  0  0  0  0  0  0  0  0  0  0
    3.5236   -0.6329    3.8958 N   0  0  0  0  0  4  0  0  0  0  0  0
    4.4581   -0.9008    5.0021 C   0  0  0  0  0  0  0  0  0  0  0  0
    3.9123   -0.8615    2.6218 C   0  0  0  0  0  0  0  0  0  0  0  0
    3.0494   -0.6081    1.5612 C   0  0  0  0  0  0  0  0  0  0  0  0
    0.0620   -0.3117   -2.7760 C   0  0  0  0  0  0  0  0  0  0  0  0
    1.3350   -0.6910   -3.4546 C   0  0  0  0  0  0  0  0  0  0  0  0
   -1.0717    0.0480   -3.4786 N   0  0  0  0  0  0  0  0  0  0  0  0
   -1.1928    0.0776   -4.9230 C   0  0  0  0  0  0  0  0  0  0  0  0
   -4.6220    2.1936    1.0050 H   0  0  0  0  0  0  0  0  0  0  0  0
   -5.7679    0.9621    0.4191 H   0  0  0  0  0  0  0  0  0  0  0  0
   -4.4915    0.5013    1.5445 H   0  0  0  0  0  0  0  0  0  0  0  0
   -5.2525    1.4337   -1.9594 H   0  0  0  0  0  0  0  0  0  0  0  0
   -3.7634    0.9993   -3.8710 H   0  0  0  0  0  0  0  0  0  0  0  0
   -2.1483    0.2768    0.7863 H   0  0  0  0  0  0  0  0  0  0  0  0
    1.2780   -1.4170   -0.5366 H   0  0  0  0  0  0  0  0  0  0  0  0
    0.2147    1.0918    0.8830 H   0  0  0  0  0  0  0  0  0  0  0  0
    0.4172    0.5352    3.3700 H   0  0  0  0  0  0  0  0  0  0  0  0
    2.0398    0.0480    5.2032 H   0  0  0  0  0  0  0  0  0  0  0  0
    5.1170   -1.7269    4.7224 H   0  0  0  0  0  0  0  0  0  0  0  0
    3.8886   -1.1787    5.8927 H   0  0  0  0  0  0  0  0  0  0  0  0
    5.0310    0.0135    5.1750 H   0  0  0  0  0  0  0  0  0  0  0  0
    4.9174   -1.2410    2.4600 H   0  0  0  0  0  0  0  0  0  0  0  0
    3.3911   -0.7846    0.5432 H   0  0  0  0  0  0  0  0  0  0  0  0
    2.1729   -0.7260   -2.7518 H   0  0  0  0  0  0  0  0  0  0  0  0
    1.2406   -1.6796   -3.9148 H   0  0  0  0  0  0  0  0  0  0  0  0
    1.5955    0.0355   -4.2313 H   0  0  0  0  0  0  0  0  0  0  0  0
   -0.5043   -0.6442   -5.3676 H   0  0  0  0  0  0  0  0  0  0  0  0
   -0.9575    1.0898   -5.2605 H   0  0  0  0  0  0  0  0  0  0  0  0
   -2.2110   -0.1972   -5.2088 H   0  0  0  0  0  0  0  0  0  0  0  0
  1  2  1  0
  2  3  2  0
  3  4  1  0
  4  5  2  0
  5  6  1  0
  6  7  2  0
  6  8  1  0
  8  9  1  0
  9 10  2  3
 10 11  1  0
 11 12  2  0
 12 13  1  0
 13 14  2  0
 14 15  1  0
 14 16  1  0
 16 17  2  0
  8 18  2  0
 18 19  1  0
 18 20  1  0
 20 21  1  0
  7  2  1  0
 17 11  1  0
 20  5  1  0
  1 22  1  0
  1 23  1  0
  1 24  1  0
  3 25  1  0
  4 26  1  0
  7 27  1  0
  9 28  1  0
 10 29  1  0
 12 30  1  0
 13 31  1  0
 15 32  1  0
 15 33  1  0
 15 34  1  0
 16 35  1  0
 17 36  1  0
 19 37  1  0
 19 38  1  0
 19 39  1  0
 21 40  1  0
 21 41  1  0
 21 42  1  0
M  CHG  1  14   1
M  END
$$$$
