
     RDKit          3D

 40 42  0  0  0  0  0  0  0  0999 V2000
   -5.1405   -1.7438   -0.1256 C   0  0  0  0  0  0  0  0  0  0  0  0
   -3.8717   -0.9499   -0.0203 C   0  0  0  0  0  0  0  0  0  0  0  0
   -3.5048   -0.0619   -1.0330 C   0  0  0  0  0  0  0  0  0  0  0  0
   -2.3090    0.6805   -0.9713 C   0  0  0  0  0  0  0  0  0  0  0  0
   -2.0451    1.6298   -2.1087 C   0  0  0  0  0  0  0  0  0  0  0  0
   -1.4497    0.4973    0.1395 C   0  0  0  0  0  0  0  0  0  0  0  0
    0.1155    1.3961    0.2824 S   0  0  0  0  0  6  0  0  0  0  0  0
    0.2977    2.2653   -0.8619 O   0  0  0  0  0  0  0  0  0  0  0  0
    0.1602    1.9525    1.6196 O   0  0  0  0  0  0  0  0  0  0  0  0
    1.2549    0.1337    0.1366 N   0  0  0  0  0  0  0  0  0  0  0  0
    1.2021   -0.6553   -1.1398 C   0  0  0  0  0  0  0  0  0  0  0  0
    2.6217   -1.1990   -1.3649 C   0  0  0  0  0  0  0  0  0  0  0  0
    3.4438   -0.2898   -0.5125 C   0  0  0  0  0  0  0  0  0  0  0  0
    4.8266   -0.1979   -0.4643 C   0  0  0  0  0  0  0  0  0  0  0  0
    5.3994    0.6657    0.4703 C   0  0  0  0  0  0  0  0  0  0  0  0
    4.5903    1.3990    1.3506 C   0  0  0  0  0  0  0  0  0  0  0  0
    3.1972    1.2881    1.2990 C   0  0  0  0  0  0  0  0  0  0  0  0
    2.6363    0.4659    0.3377 C   0  0  0  0  0  0  0  0  0  0  0  0
   -1.8076   -0.4102    1.1723 C   0  0  0  0  0  0  0  0  0  0  0  0
   -0.9847   -0.6383    2.4153 C   0  0  0  0  0  0  0  0  0  0  0  0
   -3.0175   -1.1209    1.0691 C   0  0  0  0  0  0  0  0  0  0  0  0
   -5.5467   -1.9659    0.8668 H   0  0  0  0  0  0  0  0  0  0  0  0
   -4.9496   -2.6858   -0.6487 H   0  0  0  0  0  0  0  0  0  0  0  0
   -5.9076   -1.1845   -0.6715 H   0  0  0  0  0  0  0  0  0  0  0  0
   -4.1723    0.0625   -1.8857 H   0  0  0  0  0  0  0  0  0  0  0  0
   -1.1408    1.3410   -2.6518 H   0  0  0  0  0  0  0  0  0  0  0  0
   -1.9750    2.6587   -1.7435 H   0  0  0  0  0  0  0  0  0  0  0  0
   -2.8615    1.6184   -2.8401 H   0  0  0  0  0  0  0  0  0  0  0  0
    0.9247   -0.0132   -1.9837 H   0  0  0  0  0  0  0  0  0  0  0  0
    0.4768   -1.4710   -1.0648 H   0  0  0  0  0  0  0  0  0  0  0  0
    2.7056   -2.2286   -1.0014 H   0  0  0  0  0  0  0  0  0  0  0  0
    2.9033   -1.1564   -2.4208 H   0  0  0  0  0  0  0  0  0  0  0  0
    5.4527   -0.7885   -1.1254 H   0  0  0  0  0  0  0  0  0  0  0  0
    6.4813    0.7596    0.5299 H   0  0  0  0  0  0  0  0  0  0  0  0
    5.0498    2.0531    2.0882 H   0  0  0  0  0  0  0  0  0  0  0  0
    2.5897    1.8407    2.0071 H   0  0  0  0  0  0  0  0  0  0  0  0
   -1.3616   -1.4929    2.9891 H   0  0  0  0  0  0  0  0  0  0  0  0
   -1.0357    0.2348    3.0720 H   0  0  0  0  0  0  0  0  0  0  0  0
    0.0545   -0.8726    2.1766 H   0  0  0  0  0  0  0  0  0  0  0  0
   -3.3029   -1.8162    1.8581 H   0  0  0  0  0  0  0  0  0  0  0  0
  1  2  1  0
  2  3  2  0
  3  4  1  0
  4  5  1  0
  4  6  2  0
  6  7  1  0
  7  8  2  0
  7  9  2  0
  7 10  1  0
 10 11  1  0
 11 12  1  0
 12 13  1  0
 13 14  2  0
 14 15  1  0
 15 16  2  0
 16 17  1  0
 17 18  2  0
  6 19  1  0
 19 20  1  0
 19 21  2  0
 21  2  1  0
 18 10  1  0
 18 13  1  0
  1 22  1  0
  1 23  1  0
  1 24  1  0
  3 25  1  0
  5 26  1  0
  5 27  1  0
  5 28  1  0
 11 29  1  0
 11 30  1  0
 12 31  1  0
 12 32  1  0
 14 33  1  0
 15 34  1  0
 16 35  1  0
 17 36  1  0
 20 37  1  0
 20 38  1  0
 20 39  1  0
 21 40  1  0
M  END
$$$$
