
     RDKit          3D

 36 36  0  0  0  0  0  0  0  0999 V2000
    2.4290   -5.6985    0.6671 C   0  0  0  0  0  0  0  0  0  0  0  0
    1.7946   -4.5373    1.4074 C   0  0  0  0  0  0  0  0  0  0  0  0
    0.3864   -4.5799    1.1836 O   0  0  0  0  0  0  0  0  0  0  0  0
   -0.3218   -3.5427    1.8608 C   0  0  0  0  0  0  0  0  0  0  0  0
   -0.2933   -2.2473    1.0571 C   0  0  0  0  0  0  0  0  0  0  0  0
   -1.1698   -1.1800    1.7007 C   0  0  0  0  0  0  0  0  0  0  0  0
   -1.1393    0.0592    0.9473 N   0  0  0  0  0  0  0  0  0  0  0  0
   -0.1226    0.9753    1.1129 C   0  0  0  0  0  0  0  0  0  0  0  0
    0.8126    0.8251    1.8888 O   0  0  0  0  0  0  0  0  0  0  0  0
   -0.2446    2.1932    0.2719 C   0  0  0  0  0  0  0  0  0  0  0  0
   -0.1730    3.4484    0.9348 C   0  0  0  0  0  0  0  0  0  0  0  0
   -0.1198    4.4750    1.4740 N   0  0  0  0  0  0  0  0  0  0  0  0
   -0.3006    2.0096   -1.0602 C   0  0  0  0  0  0  0  0  0  0  0  0
   -0.4028    3.0681   -2.0053 C   0  0  0  0  0  0  0  0  0  0  0  0
   -0.0030    3.0735   -3.3410 C   0  0  0  0  0  0  0  0  0  0  0  0
   -0.3156    4.3414   -3.8935 C   0  0  0  0  0  0  0  0  0  0  0  0
   -0.9111    5.0351   -2.8726 C   0  0  0  0  0  0  0  0  0  0  0  0
   -1.4625    6.3517   -2.8124 N   0  0  0  0  0  4  0  0  0  0  0  0
   -2.0675    6.6810   -1.7855 O   0  0  0  0  0  0  0  0  0  0  0  0
   -1.3036    7.0551   -3.8198 O   0  0  0  0  0  1  0  0  0  0  0  0
   -0.9749    4.2938   -1.7386 O   0  0  0  0  0  0  0  0  0  0  0  0
    3.5127   -5.7090    0.8131 H   0  0  0  0  0  0  0  0  0  0  0  0
    2.0160   -6.6506    1.0165 H   0  0  0  0  0  0  0  0  0  0  0  0
    2.2173   -5.6336   -0.4053 H   0  0  0  0  0  0  0  0  0  0  0  0
    2.0015   -4.6252    2.4795 H   0  0  0  0  0  0  0  0  0  0  0  0
    2.2103   -3.5953    1.0371 H   0  0  0  0  0  0  0  0  0  0  0  0
    0.0728   -3.4011    2.8739 H   0  0  0  0  0  0  0  0  0  0  0  0
   -1.3577   -3.8850    1.9603 H   0  0  0  0  0  0  0  0  0  0  0  0
   -0.6269   -2.4431    0.0301 H   0  0  0  0  0  0  0  0  0  0  0  0
    0.7366   -1.8844    0.9643 H   0  0  0  0  0  0  0  0  0  0  0  0
   -0.8402   -0.9788    2.7262 H   0  0  0  0  0  0  0  0  0  0  0  0
   -2.2138   -1.5086    1.7363 H   0  0  0  0  0  0  0  0  0  0  0  0
   -1.9231    0.2671    0.3408 H   0  0  0  0  0  0  0  0  0  0  0  0
   -0.2384    1.0022   -1.4666 H   0  0  0  0  0  0  0  0  0  0  0  0
    0.4754    2.2491   -3.8550 H   0  0  0  0  0  0  0  0  0  0  0  0
   -0.1392    4.6961   -4.9000 H   0  0  0  0  0  0  0  0  0  0  0  0
  1  2  1  0
  2  3  1  0
  3  4  1  0
  4  5  1  0
  5  6  1  0
  6  7  1  0
  7  8  1  0
  8  9  2  0
  8 10  1  0
 10 11  1  0
 11 12  3  0
 10 13  2  3
 13 14  1  0
 14 15  2  0
 15 16  1  0
 16 17  2  0
 17 18  1  0
 18 19  2  0
 18 20  1  0
 17 21  1  0
 21 14  1  0
  1 22  1  0
  1 23  1  0
  1 24  1  0
  2 25  1  0
  2 26  1  0
  4 27  1  0
  4 28  1  0
  5 29  1  0
  5 30  1  0
  6 31  1  0
  6 32  1  0
  7 33  1  0
 13 34  1  0
 15 35  1  0
 16 36  1  0
M  CHG  2  18   1  20  -1
M  END
$$$$
