
     RDKit          3D

 45 47  0  0  0  0  0  0  0  0999 V2000
   -4.0254    0.3459    2.1394 O   0  0  0  0  0  0  0  0  0  0  0  0
   -3.2734    0.2092    1.1758 C   0  0  0  0  0  0  0  0  0  0  0  0
   -3.7517    0.3538   -0.2639 C   0  0  0  0  0  0  0  0  0  0  0  0
   -5.2230    0.6671   -0.4106 C   0  0  0  0  0  0  0  0  0  0  0  0
   -5.6683    1.9972   -0.4267 C   0  0  0  0  0  0  0  0  0  0  0  0
   -7.0291    2.2859   -0.5523 C   0  0  0  0  0  0  0  0  0  0  0  0
   -7.9510    1.2469   -0.6560 C   0  0  0  0  0  0  0  0  0  0  0  0
   -9.6271    1.6034   -0.8131 Cl  0  0  0  0  0  0  0  0  0  0  0  0
   -7.5246   -0.0789   -0.6314 C   0  0  0  0  0  0  0  0  0  0  0  0
   -6.1640   -0.3688   -0.5058 C   0  0  0  0  0  0  0  0  0  0  0  0
   -1.8518   -0.1042    1.3773 C   0  0  0  0  0  0  0  0  0  0  0  0
   -1.2580   -0.2785    2.6131 C   0  0  0  0  0  0  0  0  0  0  0  0
    0.0660   -0.5585    2.4283 N   0  0  0  0  0  0  0  0  0  0  0  0
    0.3703   -0.5716    1.0832 C   0  0  0  0  0  0  0  0  0  0  0  0
    1.7182   -0.8431    0.6306 C   0  0  0  0  0  0  0  0  0  0  0  0
    2.6390   -1.0420    1.4162 O   0  0  0  0  0  0  0  0  0  0  0  0
    1.8976   -0.8493   -0.7320 N   0  0  0  0  0  0  0  0  0  0  0  0
    3.1673   -1.1617   -1.3599 C   0  0  0  0  0  0  0  0  0  0  0  0
    3.9711    0.0938   -1.6981 C   0  0  0  0  0  0  0  0  0  0  0  0
    4.7479    0.6803   -0.5173 C   0  0  0  0  0  0  0  0  0  0  0  0
    5.9103   -0.1034   -0.1509 N   0  0  0  0  0  0  0  0  0  0  0  0
    7.1100   -0.1142   -0.8081 C   0  0  0  0  0  0  0  0  0  0  0  0
    7.8991   -0.9816   -0.0898 C   0  0  0  0  0  0  0  0  0  0  0  0
    7.2136   -1.4855    0.9842 N   0  0  0  0  0  0  0  0  0  0  0  0
    6.0227   -0.9309    0.9287 C   0  0  0  0  0  0  0  0  0  0  0  0
   -0.8125   -0.2917    0.4141 C   0  0  0  0  0  0  0  0  0  0  0  0
   -3.5322   -0.5780   -0.7999 H   0  0  0  0  0  0  0  0  0  0  0  0
   -3.1696    1.1486   -0.7467 H   0  0  0  0  0  0  0  0  0  0  0  0
   -4.9611    2.8185   -0.3323 H   0  0  0  0  0  0  0  0  0  0  0  0
   -7.3627    3.3200   -0.5610 H   0  0  0  0  0  0  0  0  0  0  0  0
   -8.2447   -0.8896   -0.7019 H   0  0  0  0  0  0  0  0  0  0  0  0
   -5.8469   -1.4091   -0.4739 H   0  0  0  0  0  0  0  0  0  0  0  0
   -1.6796   -0.2260    3.6098 H   0  0  0  0  0  0  0  0  0  0  0  0
    0.7456   -0.7364    3.1597 H   0  0  0  0  0  0  0  0  0  0  0  0
    1.0993   -0.7017   -1.3306 H   0  0  0  0  0  0  0  0  0  0  0  0
    2.9173   -1.6847   -2.2896 H   0  0  0  0  0  0  0  0  0  0  0  0
    3.7349   -1.8571   -0.7343 H   0  0  0  0  0  0  0  0  0  0  0  0
    3.2948    0.8625   -2.0923 H   0  0  0  0  0  0  0  0  0  0  0  0
    4.6743   -0.1515   -2.5039 H   0  0  0  0  0  0  0  0  0  0  0  0
    5.1229    1.6750   -0.7883 H   0  0  0  0  0  0  0  0  0  0  0  0
    4.1204    0.8096    0.3689 H   0  0  0  0  0  0  0  0  0  0  0  0
    7.2992    0.4711   -1.6965 H   0  0  0  0  0  0  0  0  0  0  0  0
    8.9242   -1.2674   -0.2862 H   0  0  0  0  0  0  0  0  0  0  0  0
    5.2169   -1.0976    1.6330 H   0  0  0  0  0  0  0  0  0  0  0  0
   -0.9264   -0.2258   -0.6596 H   0  0  0  0  0  0  0  0  0  0  0  0
  1  2  2  0
  2  3  1  0
  3  4  1  0
  4  5  2  0
  5  6  1  0
  6  7  2  0
  7  8  1  0
  7  9  1  0
  9 10  2  0
  2 11  1  0
 11 12  2  0
 12 13  1  0
 13 14  1  0
 14 15  1  0
 15 16  2  0
 15 17  1  0
 17 18  1  0
 18 19  1  0
 19 20  1  0
 20 21  1  0
 21 22  1  0
 22 23  2  0
 23 24  1  0
 24 25  2  0
 14 26  2  0
 10  4  1  0
 26 11  1  0
 25 21  1  0
  3 27  1  0
  3 28  1  0
  5 29  1  0
  6 30  1  0
  9 31  1  0
 10 32  1  0
 12 33  1  0
 13 34  1  0
 17 35  1  0
 18 36  1  0
 18 37  1  0
 19 38  1  0
 19 39  1  0
 20 40  1  0
 20 41  1  0
 22 42  1  0
 23 43  1  0
 25 44  1  0
 26 45  1  0
M  END
$$$$
