
     RDKit          3D

 42 44  0  0  0  0  0  0  0  0999 V2000
   -5.1680    1.2582    0.4583 C   0  0  0  0  0  0  0  0  0  0  0  0
   -4.1314    0.9845   -0.5918 C   0  0  0  0  0  0  0  0  0  0  0  0
   -4.4992    0.8866   -1.9342 C   0  0  0  0  0  0  0  0  0  0  0  0
   -3.5577    0.5989   -2.9279 C   0  0  0  0  0  0  0  0  0  0  0  0
   -2.2215    0.3984   -2.5438 C   0  0  0  0  0  0  0  0  0  0  0  0
   -1.8192    0.4843   -1.2107 C   0  0  0  0  0  0  0  0  0  0  0  0
   -2.7933    0.7690   -0.2256 C   0  0  0  0  0  0  0  0  0  0  0  0
   -0.4138    0.2317   -1.1769 C   0  0  0  0  0  0  0  0  0  0  0  0
    0.3884    0.2283    0.0078 C   0  0  0  0  0  0  0  0  0  0  0  0
    1.3690   -0.6502    0.2767 C   0  0  0  0  0  0  0  0  0  0  0  0
    2.1591   -0.6463    1.5118 C   0  0  0  0  0  0  0  0  0  0  0  0
    1.5835   -0.4284    2.7628 C   0  0  0  0  0  0  0  0  0  0  0  0
    2.3776   -0.4649    3.9034 C   0  0  0  0  0  0  0  0  0  0  0  0
    3.7012   -0.7232    3.8130 N   0  0  0  0  0  4  0  0  0  0  0  0
    4.5238   -0.7437    5.0344 C   0  0  0  0  0  0  0  0  0  0  0  0
    4.2803   -0.9449    2.6121 C   0  0  0  0  0  0  0  0  0  0  0  0
    3.5238   -0.9203    1.4457 C   0  0  0  0  0  0  0  0  0  0  0  0
    0.0239    0.0464   -2.4790 C   0  0  0  0  0  0  0  0  0  0  0  0
    1.3939   -0.1540   -3.0337 C   0  0  0  0  0  0  0  0  0  0  0  0
   -1.0973    0.0956   -3.2879 N   0  0  0  0  0  0  0  0  0  0  0  0
   -1.1032   -0.1154   -4.7223 C   0  0  0  0  0  0  0  0  0  0  0  0
   -5.9707    1.8879    0.0604 H   0  0  0  0  0  0  0  0  0  0  0  0
   -4.7306    1.7903    1.3096 H   0  0  0  0  0  0  0  0  0  0  0  0
   -5.5987    0.3167    0.8128 H   0  0  0  0  0  0  0  0  0  0  0  0
   -5.5373    1.0354   -2.2267 H   0  0  0  0  0  0  0  0  0  0  0  0
   -3.8690    0.5345   -3.9656 H   0  0  0  0  0  0  0  0  0  0  0  0
   -2.5023    0.8240    0.8188 H   0  0  0  0  0  0  0  0  0  0  0  0
    0.1320    0.9912    0.7393 H   0  0  0  0  0  0  0  0  0  0  0  0
    1.6143   -1.4239   -0.4485 H   0  0  0  0  0  0  0  0  0  0  0  0
    0.5162   -0.2397    2.8621 H   0  0  0  0  0  0  0  0  0  0  0  0
    1.9622   -0.2923    4.8923 H   0  0  0  0  0  0  0  0  0  0  0  0
    3.9125   -1.0893    5.8720 H   0  0  0  0  0  0  0  0  0  0  0  0
    5.3620   -1.4306    4.8915 H   0  0  0  0  0  0  0  0  0  0  0  0
    4.8800    0.2751    5.2058 H   0  0  0  0  0  0  0  0  0  0  0  0
    5.3487   -1.1410    2.5941 H   0  0  0  0  0  0  0  0  0  0  0  0
    4.0078   -1.1043    0.4880 H   0  0  0  0  0  0  0  0  0  0  0  0
    2.1600    0.2401   -2.3592 H   0  0  0  0  0  0  0  0  0  0  0  0
    1.5873   -1.2199   -3.1902 H   0  0  0  0  0  0  0  0  0  0  0  0
    1.5191    0.3675   -3.9881 H   0  0  0  0  0  0  0  0  0  0  0  0
   -2.0746   -0.5055   -5.0343 H   0  0  0  0  0  0  0  0  0  0  0  0
   -0.9005    0.8431   -5.2060 H   0  0  0  0  0  0  0  0  0  0  0  0
   -0.3380   -0.8502   -4.9841 H   0  0  0  0  0  0  0  0  0  0  0  0
  1  2  1  0
  2  3  2  0
  3  4  1  0
  4  5  2  0
  5  6  1  0
  6  7  2  0
  6  8  1  0
  8  9  1  0
  9 10  2  3
 10 11  1  0
 11 12  2  0
 12 13  1  0
 13 14  2  0
 14 15  1  0
 14 16  1  0
 16 17  2  0
  8 18  2  0
 18 19  1  0
 18 20  1  0
 20 21  1  0
  7  2  1  0
 17 11  1  0
 20  5  1  0
  1 22  1  0
  1 23  1  0
  1 24  1  0
  3 25  1  0
  4 26  1  0
  7 27  1  0
  9 28  1  0
 10 29  1  0
 12 30  1  0
 13 31  1  0
 15 32  1  0
 15 33  1  0
 15 34  1  0
 16 35  1  0
 17 36  1  0
 19 37  1  0
 19 38  1  0
 19 39  1  0
 21 40  1  0
 21 41  1  0
 21 42  1  0
M  CHG  1  14   1
M  END
$$$$
