
     RDKit          3D

 54 57  0  0  0  0  0  0  0  0999 V2000
   -5.0491   -0.3761   -3.7775 C   0  0  0  0  0  0  0  0  0  0  0  0
   -4.0316    0.4594   -3.2400 O   0  0  0  0  0  0  0  0  0  0  0  0
   -3.2779   -0.0567   -2.2228 C   0  0  0  0  0  0  0  0  0  0  0  0
   -2.3073    0.8120   -1.7182 C   0  0  0  0  0  0  0  0  0  0  0  0
   -1.4616    0.4164   -0.6789 C   0  0  0  0  0  0  0  0  0  0  0  0
   -1.5898   -0.8628   -0.1300 C   0  0  0  0  0  0  0  0  0  0  0  0
   -0.7436   -1.2722    0.9319 N   0  0  0  0  0  0  0  0  0  0  0  0
   -1.1145   -1.8873    2.1235 C   0  0  0  0  0  0  0  0  0  0  0  0
   -2.5103   -2.0783    2.6196 C   0  0  0  0  0  0  0  0  0  0  0  0
   -3.1677   -0.7832    2.9961 C   0  0  0  0  0  0  0  0  0  0  0  0
   -4.1856   -0.1008    2.3510 C   0  0  0  0  0  0  0  0  0  0  0  0
   -4.4528    1.0775    3.0827 C   0  0  0  0  0  0  0  0  0  0  0  0
   -3.6001    1.0887    4.1616 C   0  0  0  0  0  0  0  0  0  0  0  0
   -2.8269   -0.0431    4.1100 N   0  0  0  0  0  0  0  0  0  0  0  0
   -1.8080   -0.3689    5.0869 C   0  0  0  0  0  0  0  0  0  0  0  0
   -0.0355   -2.1427    2.8414 N   0  0  0  0  0  0  0  0  0  0  0  0
    1.0523   -1.6667    2.1679 N   0  0  0  0  0  0  0  0  0  0  0  0
    0.6322   -1.1459    1.0385 C   0  0  0  0  0  0  0  0  0  0  0  0
    1.6841   -0.5534   -0.2106 S   0  0  0  0  0  0  0  0  0  0  0  0
    3.3084   -0.8293    0.5691 C   0  0  0  0  0  0  0  0  0  0  0  0
    4.4760   -0.4232   -0.3251 C   0  0  0  0  0  0  0  0  0  0  0  0
    5.5672   -0.9730   -0.1903 O   0  0  0  0  0  0  0  0  0  0  0  0
    4.2069    0.6198   -1.1931 N   0  0  0  0  0  0  0  0  0  0  0  0
    5.0862    1.2476   -2.0975 C   0  0  0  0  0  0  0  0  0  0  0  0
    4.5442    2.2439   -2.9242 C   0  0  0  0  0  0  0  0  0  0  0  0
    5.3426    2.9193   -3.8527 C   0  0  0  0  0  0  0  0  0  0  0  0
    6.6936    2.6055   -3.9588 C   0  0  0  0  0  0  0  0  0  0  0  0
    7.2299    1.6225   -3.1357 C   0  0  0  0  0  0  0  0  0  0  0  0
    8.5328    1.3267   -3.2357 F   0  0  0  0  0  0  0  0  0  0  0  0
    6.4426    0.9425   -2.2095 C   0  0  0  0  0  0  0  0  0  0  0  0
   -2.5594   -1.7381   -0.6313 C   0  0  0  0  0  0  0  0  0  0  0  0
   -3.3991   -1.3341   -1.6766 C   0  0  0  0  0  0  0  0  0  0  0  0
   -5.5576    0.1828   -4.5695 H   0  0  0  0  0  0  0  0  0  0  0  0
   -5.7946   -0.6293   -3.0161 H   0  0  0  0  0  0  0  0  0  0  0  0
   -4.6217   -1.2775   -4.2288 H   0  0  0  0  0  0  0  0  0  0  0  0
   -2.2163    1.8128   -2.1346 H   0  0  0  0  0  0  0  0  0  0  0  0
   -0.7483    1.1381   -0.2898 H   0  0  0  0  0  0  0  0  0  0  0  0
   -3.1221   -2.6123    1.8879 H   0  0  0  0  0  0  0  0  0  0  0  0
   -2.4885   -2.7367    3.4973 H   0  0  0  0  0  0  0  0  0  0  0  0
   -4.6807   -0.4150    1.4408 H   0  0  0  0  0  0  0  0  0  0  0  0
   -5.1872    1.8372    2.8488 H   0  0  0  0  0  0  0  0  0  0  0  0
   -3.4844    1.8106    4.9597 H   0  0  0  0  0  0  0  0  0  0  0  0
   -1.8710   -1.4313    5.3315 H   0  0  0  0  0  0  0  0  0  0  0  0
   -0.8335   -0.1190    4.6609 H   0  0  0  0  0  0  0  0  0  0  0  0
   -1.9786    0.2175    5.9941 H   0  0  0  0  0  0  0  0  0  0  0  0
    3.4130   -1.8969    0.7914 H   0  0  0  0  0  0  0  0  0  0  0  0
    3.3801   -0.2531    1.4968 H   0  0  0  0  0  0  0  0  0  0  0  0
    3.2401    0.9264   -1.2168 H   0  0  0  0  0  0  0  0  0  0  0  0
    3.4913    2.5076   -2.8591 H   0  0  0  0  0  0  0  0  0  0  0  0
    4.9099    3.6866   -4.4896 H   0  0  0  0  0  0  0  0  0  0  0  0
    7.3322    3.1173   -4.6712 H   0  0  0  0  0  0  0  0  0  0  0  0
    6.9246    0.1888   -1.5980 H   0  0  0  0  0  0  0  0  0  0  0  0
   -2.6538   -2.7555   -0.2604 H   0  0  0  0  0  0  0  0  0  0  0  0
   -4.1310   -2.0451   -2.0468 H   0  0  0  0  0  0  0  0  0  0  0  0
  1  2  1  0
  2  3  1  0
  3  4  2  0
  4  5  1  0
  5  6  2  0
  6  7  1  0
  7  8  1  0
  8  9  1  0
  9 10  1  0
 10 11  2  0
 11 12  1  0
 12 13  2  0
 13 14  1  0
 14 15  1  0
  8 16  2  0
 16 17  1  0
 17 18  2  0
 18 19  1  0
 19 20  1  0
 20 21  1  0
 21 22  2  0
 21 23  1  0
 23 24  1  0
 24 25  2  0
 25 26  1  0
 26 27  2  0
 27 28  1  0
 28 29  1  0
 28 30  2  0
  6 31  1  0
 31 32  2  0
 32  3  1  0
 18  7  1  0
 30 24  1  0
 14 10  1  0
  1 33  1  0
  1 34  1  0
  1 35  1  0
  4 36  1  0
  5 37  1  0
  9 38  1  0
  9 39  1  0
 11 40  1  0
 12 41  1  0
 13 42  1  0
 15 43  1  0
 15 44  1  0
 15 45  1  0
 20 46  1  0
 20 47  1  0
 23 48  1  0
 25 49  1  0
 26 50  1  0
 27 51  1  0
 30 52  1  0
 31 53  1  0
 32 54  1  0
M  END
$$$$
