
     RDKit          3D

 58 62  0  0  0  0  0  0  0  0999 V2000
    6.9028    4.0455   -0.2559 C   0  0  0  0  0  0  0  0  0  0  0  0
    6.6795    2.7464    0.2888 O   0  0  0  0  0  0  0  0  0  0  0  0
    5.4887    2.1467   -0.0117 C   0  0  0  0  0  0  0  0  0  0  0  0
    4.4752    2.6857   -0.8062 C   0  0  0  0  0  0  0  0  0  0  0  0
    3.2966    1.9668   -1.0287 C   0  0  0  0  0  0  0  0  0  0  0  0
    3.1201    0.6953   -0.4689 C   0  0  0  0  0  0  0  0  0  0  0  0
    1.8442   -0.0747   -0.7040 C   0  0  0  0  0  0  0  0  0  0  0  0
    0.9243   -0.0569    0.5270 C   0  0  0  0  0  0  0  0  0  0  0  0
   -0.3792   -0.6641    0.1979 N   0  0  0  0  0  0  0  0  0  0  0  0
   -1.3886    0.0940   -0.4168 C   0  0  0  0  0  0  0  0  0  0  0  0
   -1.3240    1.3729   -0.6464 N   0  0  0  0  0  0  0  0  0  0  0  0
   -2.6524   -0.5849   -0.8488 C   0  0  0  0  0  0  0  0  0  0  0  0
   -3.7802    0.1160   -1.4951 C   0  0  0  0  0  0  0  0  0  0  0  0
   -3.9798    0.0350   -2.7041 O   0  0  0  0  0  0  0  0  0  0  0  0
   -4.5681    0.8099   -0.5995 N   0  0  0  0  0  0  0  0  0  0  0  0
   -5.5701    1.7532   -1.0447 C   0  0  0  0  0  0  0  0  0  0  0  0
   -5.0586    3.1268   -0.8080 C   0  0  0  0  0  0  0  0  0  0  0  0
   -3.9731    3.8323   -1.2929 C   0  0  0  0  0  0  0  0  0  0  0  0
   -4.0126    5.1043   -0.6713 C   0  0  0  0  0  0  0  0  0  0  0  0
   -5.1139    5.0936    0.1534 C   0  0  0  0  0  0  0  0  0  0  0  0
   -5.7533    3.8959    0.0814 O   0  0  0  0  0  0  0  0  0  0  0  0
   -2.7623   -1.9012   -0.6214 C   0  0  0  0  0  0  0  0  0  0  0  0
   -1.7002   -2.6559    0.0221 C   0  0  0  0  0  0  0  0  0  0  0  0
   -1.8892   -4.1152    0.2660 C   0  0  0  0  0  0  0  0  0  0  0  0
   -2.9366   -4.6659   -0.0787 O   0  0  0  0  0  0  0  0  0  0  0  0
   -0.8396   -4.7674    0.8886 N   0  0  0  0  0  0  0  0  0  0  0  0
   -0.9467   -6.1285    1.1700 C   0  0  0  0  0  0  0  0  0  0  0  0
    0.0435   -6.8042    1.7655 C   0  0  0  0  0  0  0  0  0  0  0  0
    1.2608   -6.1210    2.1259 C   0  0  0  0  0  0  0  0  0  0  0  0
    1.4067   -4.8130    1.8720 C   0  0  0  0  0  0  0  0  0  0  0  0
    0.3009   -4.0562    1.2178 C   0  0  0  0  0  0  0  0  0  0  0  0
    0.4659   -2.7898    0.9981 N   0  0  0  0  0  0  0  0  0  0  0  0
   -0.5442   -2.0630    0.4086 C   0  0  0  0  0  0  0  0  0  0  0  0
    4.1411    0.1570    0.3236 C   0  0  0  0  0  0  0  0  0  0  0  0
    5.3140    0.8804    0.5499 C   0  0  0  0  0  0  0  0  0  0  0  0
    7.8732    4.4056    0.1093 H   0  0  0  0  0  0  0  0  0  0  0  0
    6.1363    4.7569    0.0829 H   0  0  0  0  0  0  0  0  0  0  0  0
    6.9539    4.0059   -1.3505 H   0  0  0  0  0  0  0  0  0  0  0  0
    4.5692    3.6614   -1.2709 H   0  0  0  0  0  0  0  0  0  0  0  0
    2.5205    2.4095   -1.6521 H   0  0  0  0  0  0  0  0  0  0  0  0
    2.0916   -1.1100   -0.9792 H   0  0  0  0  0  0  0  0  0  0  0  0
    1.3234    0.3430   -1.5759 H   0  0  0  0  0  0  0  0  0  0  0  0
    0.7932    0.9669    0.9049 H   0  0  0  0  0  0  0  0  0  0  0  0
    1.4043   -0.5802    1.3662 H   0  0  0  0  0  0  0  0  0  0  0  0
   -0.4444    1.7808   -0.3346 H   0  0  0  0  0  0  0  0  0  0  0  0
   -4.2216    0.9381    0.3463 H   0  0  0  0  0  0  0  0  0  0  0  0
   -6.4719    1.5696   -0.4557 H   0  0  0  0  0  0  0  0  0  0  0  0
   -5.8120    1.6081   -2.0996 H   0  0  0  0  0  0  0  0  0  0  0  0
   -3.2417    3.4608   -1.9978 H   0  0  0  0  0  0  0  0  0  0  0  0
   -3.3201    5.9253   -0.8032 H   0  0  0  0  0  0  0  0  0  0  0  0
   -5.5536    5.8232    0.8240 H   0  0  0  0  0  0  0  0  0  0  0  0
   -3.6594   -2.4392   -0.9230 H   0  0  0  0  0  0  0  0  0  0  0  0
   -1.8745   -6.6244    0.8862 H   0  0  0  0  0  0  0  0  0  0  0  0
   -0.0516   -7.8657    1.9838 H   0  0  0  0  0  0  0  0  0  0  0  0
    2.0523   -6.6906    2.6032 H   0  0  0  0  0  0  0  0  0  0  0  0
    2.3061   -4.2624    2.1276 H   0  0  0  0  0  0  0  0  0  0  0  0
    4.0334   -0.8305    0.7663 H   0  0  0  0  0  0  0  0  0  0  0  0
    6.1016    0.4523    1.1674 H   0  0  0  0  0  0  0  0  0  0  0  0
  1  2  1  0
  2  3  1  0
  3  4  2  0
  4  5  1  0
  5  6  2  0
  6  7  1  0
  7  8  1  0
  8  9  1  0
  9 10  1  0
 10 11  2  3
 10 12  1  0
 12 13  1  0
 13 14  2  0
 13 15  1  0
 15 16  1  0
 16 17  1  0
 17 18  2  0
 18 19  1  0
 19 20  2  0
 20 21  1  0
 12 22  2  0
 22 23  1  0
 23 24  1  0
 24 25  2  0
 24 26  1  0
 26 27  1  0
 27 28  2  0
 28 29  1  0
 29 30  2  0
 30 31  1  0
 31 32  2  0
 32 33  1  0
  6 34  1  0
 34 35  2  0
 35  3  1  0
 33  9  1  0
 21 17  1  0
 33 23  2  0
 31 26  1  0
  1 36  1  0
  1 37  1  0
  1 38  1  0
  4 39  1  0
  5 40  1  0
  7 41  1  0
  7 42  1  0
  8 43  1  0
  8 44  1  0
 11 45  1  0
 15 46  1  0
 16 47  1  0
 16 48  1  0
 18 49  1  0
 19 50  1  0
 20 51  1  0
 22 52  1  0
 27 53  1  0
 28 54  1  0
 29 55  1  0
 30 56  1  0
 34 57  1  0
 35 58  1  0
M  END
$$$$
