
     RDKit          3D

 33 34  0  0  0  0  0  0  0  0999 V2000
   -3.9308   -1.4333   -2.6527 C   0  0  0  0  0  0  0  0  0  0  0  0
   -3.3510   -0.6323   -1.5228 C   0  0  0  0  0  0  0  0  0  0  0  0
   -4.1024    0.3832   -0.9211 C   0  0  0  0  0  0  0  0  0  0  0  0
   -3.5828    1.1013    0.1551 C   0  0  0  0  0  0  0  0  0  0  0  0
   -2.3129    0.8039    0.6427 C   0  0  0  0  0  0  0  0  0  0  0  0
   -1.8895    1.5564    1.7062 O   0  0  0  0  0  0  0  0  0  0  0  0
   -1.5395   -0.2111    0.0586 C   0  0  0  0  0  0  0  0  0  0  0  0
   -0.1735   -0.5023    0.5905 C   0  0  0  0  0  0  0  0  0  0  0  0
    0.1592    0.0237    1.6524 O   0  0  0  0  0  0  0  0  0  0  0  0
    0.7346   -1.4218   -0.1906 C   0  0  0  0  0  0  0  0  0  0  0  0
    2.1770   -1.4917    0.2497 C   0  0  0  0  0  0  0  0  0  0  0  0
    2.8260   -2.5318    0.1517 O   0  0  0  0  0  0  0  0  0  0  0  0
    2.8725   -0.2554    0.6661 C   0  0  0  0  0  0  0  0  0  0  0  0
    2.9458    0.8090   -0.2442 C   0  0  0  0  0  0  0  0  0  0  0  0
    3.6064    1.9848    0.1143 C   0  0  0  0  0  0  0  0  0  0  0  0
    4.1947    2.0980    1.3736 C   0  0  0  0  0  0  0  0  0  0  0  0
    4.1250    1.0358    2.2781 C   0  0  0  0  0  0  0  0  0  0  0  0
    3.4656   -0.1462    1.9282 C   0  0  0  0  0  0  0  0  0  0  0  0
    3.3823   -1.4025    3.1094 Cl  0  0  0  0  0  0  0  0  0  0  0  0
   -2.0749   -0.9337   -1.0195 C   0  0  0  0  0  0  0  0  0  0  0  0
   -3.1442   -1.7660   -3.3380 H   0  0  0  0  0  0  0  0  0  0  0  0
   -4.4533   -2.3105   -2.2592 H   0  0  0  0  0  0  0  0  0  0  0  0
   -4.6367   -0.8329   -3.2362 H   0  0  0  0  0  0  0  0  0  0  0  0
   -5.1010    0.6202   -1.2831 H   0  0  0  0  0  0  0  0  0  0  0  0
   -4.1701    1.8890    0.6204 H   0  0  0  0  0  0  0  0  0  0  0  0
   -1.0351    1.1841    2.0213 H   0  0  0  0  0  0  0  0  0  0  0  0
    0.7382   -1.1311   -1.2466 H   0  0  0  0  0  0  0  0  0  0  0  0
    0.3243   -2.4342   -0.0940 H   0  0  0  0  0  0  0  0  0  0  0  0
    2.5087    0.7284   -1.2358 H   0  0  0  0  0  0  0  0  0  0  0  0
    3.6674    2.8127   -0.5886 H   0  0  0  0  0  0  0  0  0  0  0  0
    4.7087    3.0149    1.6539 H   0  0  0  0  0  0  0  0  0  0  0  0
    4.5830    1.1380    3.2592 H   0  0  0  0  0  0  0  0  0  0  0  0
   -1.5217   -1.7468   -1.4823 H   0  0  0  0  0  0  0  0  0  0  0  0
  1  2  1  0
  2  3  2  0
  3  4  1  0
  4  5  2  0
  5  6  1  0
  5  7  1  0
  7  8  1  0
  8  9  2  0
  8 10  1  0
 10 11  1  0
 11 12  2  0
 11 13  1  0
 13 14  2  0
 14 15  1  0
 15 16  2  0
 16 17  1  0
 17 18  2  0
 18 19  1  0
  7 20  2  0
 20  2  1  0
 18 13  1  0
  1 21  1  0
  1 22  1  0
  1 23  1  0
  3 24  1  0
  4 25  1  0
  6 26  1  0
 10 27  1  0
 10 28  1  0
 14 29  1  0
 15 30  1  0
 16 31  1  0
 17 32  1  0
 20 33  1  0
M  END
$$$$
