
     RDKit          3D

 47 48  0  0  0  0  0  0  0  0999 V2000
    3.6181    1.6249    4.7626 C   0  0  0  0  0  0  0  0  0  0  0  0
    2.9352    2.7707    4.0400 C   0  0  0  0  0  0  0  0  0  0  0  0
    2.8290    2.4776    2.6379 O   0  0  0  0  0  0  0  0  0  0  0  0
    1.7378    1.7669    2.2538 C   0  0  0  0  0  0  0  0  0  0  0  0
    0.8596    1.3680    3.0062 O   0  0  0  0  0  0  0  0  0  0  0  0
    1.7535    1.5352    0.7803 C   0  0  0  0  0  0  0  0  0  0  0  0
    2.8952    1.9410    0.0404 C   0  0  0  0  0  0  0  0  0  0  0  0
    3.8217    2.2744   -0.5753 N   0  0  0  0  0  0  0  0  0  0  0  0
    0.6763    0.9105    0.2591 C   0  0  0  0  0  0  0  0  0  0  0  0
    0.3515    0.5072   -1.1171 C   0  0  0  0  0  0  0  0  0  0  0  0
   -0.6120   -0.4186   -1.3815 C   0  0  0  0  0  0  0  0  0  0  0  0
   -1.3561   -1.0709   -0.3822 N   0  0  0  0  0  0  0  0  0  0  0  0
   -2.6160   -0.5165    0.1542 C   0  0  0  0  0  0  0  0  0  0  0  0
   -3.4253   -1.6274    0.8395 C   0  0  0  0  0  0  0  0  0  0  0  0
   -2.7462   -2.2411    1.9460 O   0  0  0  0  0  0  0  0  0  0  0  0
   -1.3158   -2.1598    1.8530 C   0  0  0  0  0  0  0  0  0  0  0  0
   -0.7907   -2.1879    0.4092 C   0  0  0  0  0  0  0  0  0  0  0  0
   -0.9086   -0.8678   -2.8488 C   0  0  0  0  0  0  0  0  0  0  0  0
   -2.3258   -0.4730   -3.2945 C   0  0  0  0  0  0  0  0  0  0  0  0
   -0.7507   -2.3896   -3.0006 C   0  0  0  0  0  0  0  0  0  0  0  0
    0.0272   -0.3227   -3.8019 O   0  0  0  0  0  0  0  0  0  0  0  0
    0.3277    1.0448   -3.5757 C   0  0  0  0  0  0  0  0  0  0  0  0
    1.0782    1.1777   -2.2616 C   0  0  0  0  0  0  0  0  0  0  0  0
    4.5958    1.4168    4.3155 H   0  0  0  0  0  0  0  0  0  0  0  0
    3.7571    1.8617    5.8211 H   0  0  0  0  0  0  0  0  0  0  0  0
    3.0302    0.7049    4.6844 H   0  0  0  0  0  0  0  0  0  0  0  0
    1.9542    2.9926    4.4753 H   0  0  0  0  0  0  0  0  0  0  0  0
    3.5411    3.6780    4.1318 H   0  0  0  0  0  0  0  0  0  0  0  0
   -0.1002    0.6267    0.9694 H   0  0  0  0  0  0  0  0  0  0  0  0
   -2.3851    0.2725    0.8787 H   0  0  0  0  0  0  0  0  0  0  0  0
   -3.2146   -0.0705   -0.6456 H   0  0  0  0  0  0  0  0  0  0  0  0
   -4.3715   -1.2273    1.2172 H   0  0  0  0  0  0  0  0  0  0  0  0
   -3.6673   -2.4194    0.1209 H   0  0  0  0  0  0  0  0  0  0  0  0
   -0.9027   -3.0009    2.4189 H   0  0  0  0  0  0  0  0  0  0  0  0
   -1.0005   -1.2410    2.3605 H   0  0  0  0  0  0  0  0  0  0  0  0
   -1.0901   -3.1289   -0.0655 H   0  0  0  0  0  0  0  0  0  0  0  0
    0.3043   -2.1465    0.4162 H   0  0  0  0  0  0  0  0  0  0  0  0
   -3.0945   -1.0574   -2.7782 H   0  0  0  0  0  0  0  0  0  0  0  0
   -2.5275    0.5870   -3.1055 H   0  0  0  0  0  0  0  0  0  0  0  0
   -2.4507   -0.6277   -4.3727 H   0  0  0  0  0  0  0  0  0  0  0  0
   -1.5019   -2.9460   -2.4311 H   0  0  0  0  0  0  0  0  0  0  0  0
    0.2444   -2.7132   -2.6729 H   0  0  0  0  0  0  0  0  0  0  0  0
   -0.8402   -2.6868   -4.0526 H   0  0  0  0  0  0  0  0  0  0  0  0
    0.9613    1.3907   -4.3992 H   0  0  0  0  0  0  0  0  0  0  0  0
   -0.5828    1.6539   -3.5921 H   0  0  0  0  0  0  0  0  0  0  0  0
    2.0641    0.7091   -2.3669 H   0  0  0  0  0  0  0  0  0  0  0  0
    1.2131    2.2479   -2.0705 H   0  0  0  0  0  0  0  0  0  0  0  0
  1  2  1  0
  2  3  1  0
  3  4  1  0
  4  5  2  0
  4  6  1  0
  6  7  1  0
  7  8  3  0
  6  9  2  3
  9 10  1  0
 10 11  2  0
 11 12  1  0
 12 13  1  0
 13 14  1  0
 14 15  1  0
 15 16  1  0
 16 17  1  0
 11 18  1  0
 18 19  1  0
 18 20  1  0
 18 21  1  0
 21 22  1  0
 22 23  1  0
 23 10  1  0
 17 12  1  0
  1 24  1  0
  1 25  1  0
  1 26  1  0
  2 27  1  0
  2 28  1  0
  9 29  1  0
 13 30  1  0
 13 31  1  0
 14 32  1  0
 14 33  1  0
 16 34  1  0
 16 35  1  0
 17 36  1  0
 17 37  1  0
 19 38  1  0
 19 39  1  0
 19 40  1  0
 20 41  1  0
 20 42  1  0
 20 43  1  0
 22 44  1  0
 22 45  1  0
 23 46  1  0
 23 47  1  0
M  END
$$$$
