
     RDKit          3D

 50 52  0  0  0  0  0  0  0  0999 V2000
    8.1317    0.6968    2.8464 C   0  0  0  0  0  0  0  0  0  0  0  0
    7.8213   -0.6622    3.2551 N   0  0  0  0  0  0  0  0  0  0  0  0
    7.0726   -1.7219    2.2009 S   0  0  0  0  0  6  0  0  0  0  0  0
    7.8320   -1.7541    0.9716 O   0  0  0  0  0  0  0  0  0  0  0  0
    6.7891   -2.9212    2.9575 O   0  0  0  0  0  0  0  0  0  0  0  0
    5.5247   -0.9088    1.8782 C   0  0  0  0  0  0  0  0  0  0  0  0
    4.4685   -1.0618    2.7827 C   0  0  0  0  0  0  0  0  0  0  0  0
    3.2450   -0.4355    2.5287 C   0  0  0  0  0  0  0  0  0  0  0  0
    3.0755    0.3294    1.3654 C   0  0  0  0  0  0  0  0  0  0  0  0
    1.7938    1.0242    1.0594 C   0  0  0  0  0  0  0  0  0  0  0  0
    1.7897    2.0231    0.3491 O   0  0  0  0  0  0  0  0  0  0  0  0
    0.6510    0.4644    1.5908 N   0  0  0  0  0  0  0  0  0  0  0  0
   -0.6543    0.9214    1.1476 C   0  0  0  0  0  0  0  0  0  0  0  0
   -1.1797   -0.0248    0.0658 C   0  0  0  0  0  0  0  0  0  0  0  0
   -0.8772   -1.2174    0.0293 O   0  0  0  0  0  0  0  0  0  0  0  0
   -2.0620    0.5510   -0.8197 N   0  0  0  0  0  0  0  0  0  0  0  0
   -2.7274   -0.2313   -1.8511 C   0  0  0  0  0  0  0  0  0  0  0  0
   -3.9108   -1.0430   -1.2917 C   0  0  0  0  0  0  0  0  0  0  0  0
   -4.4729   -2.0294   -2.3123 C   0  0  0  0  0  0  0  0  0  0  0  0
   -5.0034   -1.3554   -3.4576 O   0  0  0  0  0  0  0  0  0  0  0  0
   -5.8369   -0.3350   -3.0789 C   0  0  0  0  0  0  0  0  0  0  0  0
   -6.7182    0.1477   -4.0442 C   0  0  0  0  0  0  0  0  0  0  0  0
   -7.6024    1.1789   -3.7237 C   0  0  0  0  0  0  0  0  0  0  0  0
   -7.5994    1.7286   -2.4407 C   0  0  0  0  0  0  0  0  0  0  0  0
   -6.7044    1.2559   -1.4793 C   0  0  0  0  0  0  0  0  0  0  0  0
   -5.8142    0.2332   -1.8019 C   0  0  0  0  0  0  0  0  0  0  0  0
   -4.9412   -0.1525   -0.8179 O   0  0  0  0  0  0  0  0  0  0  0  0
    4.1415    0.4736    0.4653 C   0  0  0  0  0  0  0  0  0  0  0  0
    5.3645   -0.1534    0.7134 C   0  0  0  0  0  0  0  0  0  0  0  0
    9.0162    1.0394    3.3910 H   0  0  0  0  0  0  0  0  0  0  0  0
    7.3000    1.3625    3.0915 H   0  0  0  0  0  0  0  0  0  0  0  0
    8.3513    0.7645    1.7780 H   0  0  0  0  0  0  0  0  0  0  0  0
    7.7265   -0.8878    4.2427 H   0  0  0  0  0  0  0  0  0  0  0  0
    4.5918   -1.6623    3.6818 H   0  0  0  0  0  0  0  0  0  0  0  0
    2.4425   -0.5375    3.2545 H   0  0  0  0  0  0  0  0  0  0  0  0
    0.6929   -0.5171    1.8415 H   0  0  0  0  0  0  0  0  0  0  0  0
   -0.6073    1.9490    0.7764 H   0  0  0  0  0  0  0  0  0  0  0  0
   -1.3336    0.8712    2.0036 H   0  0  0  0  0  0  0  0  0  0  0  0
   -2.3853    1.4979   -0.6623 H   0  0  0  0  0  0  0  0  0  0  0  0
   -3.0498    0.4856   -2.6128 H   0  0  0  0  0  0  0  0  0  0  0  0
   -1.9870   -0.9033   -2.2994 H   0  0  0  0  0  0  0  0  0  0  0  0
   -3.5774   -1.6139   -0.4172 H   0  0  0  0  0  0  0  0  0  0  0  0
   -5.2718   -2.6389   -1.8701 H   0  0  0  0  0  0  0  0  0  0  0  0
   -3.6908   -2.7127   -2.6601 H   0  0  0  0  0  0  0  0  0  0  0  0
   -6.7238   -0.2857   -5.0405 H   0  0  0  0  0  0  0  0  0  0  0  0
   -8.2964    1.5507   -4.4734 H   0  0  0  0  0  0  0  0  0  0  0  0
   -8.2918    2.5287   -2.1907 H   0  0  0  0  0  0  0  0  0  0  0  0
   -6.6964    1.6902   -0.4837 H   0  0  0  0  0  0  0  0  0  0  0  0
    4.0155    1.0692   -0.4377 H   0  0  0  0  0  0  0  0  0  0  0  0
    6.1785   -0.0480   -0.0010 H   0  0  0  0  0  0  0  0  0  0  0  0
  1  2  1  0
  2  3  1  0
  3  4  2  0
  3  5  2  0
  3  6  1  0
  6  7  2  0
  7  8  1  0
  8  9  2  0
  9 10  1  0
 10 11  2  0
 10 12  1  0
 12 13  1  0
 13 14  1  0
 14 15  2  0
 14 16  1  0
 16 17  1  0
 17 18  1  0
 18 19  1  0
 19 20  1  0
 20 21  1  0
 21 22  2  0
 22 23  1  0
 23 24  2  0
 24 25  1  0
 25 26  2  0
 26 27  1  0
  9 28  1  0
 28 29  2  0
 29  6  1  0
 27 18  1  0
 26 21  1  0
  1 30  1  0
  1 31  1  0
  1 32  1  0
  2 33  1  0
  7 34  1  0
  8 35  1  0
 12 36  1  0
 13 37  1  0
 13 38  1  0
 16 39  1  0
 17 40  1  0
 17 41  1  0
 18 42  1  0
 19 43  1  0
 19 44  1  0
 22 45  1  0
 23 46  1  0
 24 47  1  0
 25 48  1  0
 28 49  1  0
 29 50  1  0
M  END
$$$$
