
     RDKit          3D

 51 55  0  0  0  0  0  0  0  0999 V2000
    8.6957    0.6853    0.3595 Cl  0  0  0  0  0  0  0  0  0  0  0  0
    6.9906    0.9266    0.2165 C   0  0  0  0  0  0  0  0  0  0  0  0
    6.4942    1.3381   -1.0235 C   0  0  0  0  0  0  0  0  0  0  0  0
    5.1244    1.5490   -1.1990 C   0  0  0  0  0  0  0  0  0  0  0  0
    4.2348    1.3548   -0.1346 C   0  0  0  0  0  0  0  0  0  0  0  0
    2.7498    1.5675   -0.3261 C   0  0  0  0  0  0  0  0  0  0  0  0
    1.9927    0.2822   -0.7167 C   0  0  0  0  0  0  0  0  0  0  0  0
    1.8747   -0.6989    0.3793 N   0  0  0  0  0  0  0  0  0  0  0  0
    0.9602   -0.2136    1.4490 C   0  0  0  0  0  0  0  0  0  0  0  0
   -0.1086   -1.2320    1.8984 C   0  0  0  0  0  0  0  0  0  0  0  0
   -0.9036   -1.6802    0.7393 N   0  0  0  0  0  0  0  0  0  0  0  0
   -2.0933   -1.0119    0.4421 C   0  0  0  0  0  0  0  0  0  0  0  0
   -2.3141    0.1570    0.9921 N   0  0  0  0  0  0  0  0  0  0  0  0
   -3.4787    0.8885    0.6916 C   0  0  0  0  0  0  0  0  0  0  0  0
   -3.6550    2.1330    1.2997 C   0  0  0  0  0  0  0  0  0  0  0  0
   -4.7867    2.9065    1.0274 C   0  0  0  0  0  0  0  0  0  0  0  0
   -5.7564    2.4398    0.1394 C   0  0  0  0  0  0  0  0  0  0  0  0
   -5.6010    1.1987   -0.4793 C   0  0  0  0  0  0  0  0  0  0  0  0
   -4.4634    0.4366   -0.1969 C   0  0  0  0  0  0  0  0  0  0  0  0
   -4.2335   -0.8272   -0.7638 N   0  0  0  0  0  0  0  0  0  0  0  0
   -5.0110   -1.5447   -1.6416 C   0  0  0  0  0  0  0  0  0  0  0  0
   -4.4030   -2.7615   -1.8595 C   0  0  0  0  0  0  0  0  0  0  0  0
   -3.2104   -2.7750   -1.0995 C   0  0  0  0  0  0  0  0  0  0  0  0
   -3.1034   -1.5540   -0.4565 C   0  0  0  0  0  0  0  0  0  0  0  0
   -0.0761   -2.1709   -0.3835 C   0  0  0  0  0  0  0  0  0  0  0  0
    1.4409   -2.0198   -0.1238 C   0  0  0  0  0  0  0  0  0  0  0  0
    4.7401    0.9383    1.1057 C   0  0  0  0  0  0  0  0  0  0  0  0
    6.1110    0.7245    1.2842 C   0  0  0  0  0  0  0  0  0  0  0  0
    6.6491    0.2120    2.8446 Cl  0  0  0  0  0  0  0  0  0  0  0  0
    7.1703    1.4955   -1.8604 H   0  0  0  0  0  0  0  0  0  0  0  0
    4.7572    1.8654   -2.1733 H   0  0  0  0  0  0  0  0  0  0  0  0
    2.3257    2.0258    0.5755 H   0  0  0  0  0  0  0  0  0  0  0  0
    2.6031    2.3109   -1.1209 H   0  0  0  0  0  0  0  0  0  0  0  0
    0.9964    0.5528   -1.0902 H   0  0  0  0  0  0  0  0  0  0  0  0
    2.5264   -0.1748   -1.5605 H   0  0  0  0  0  0  0  0  0  0  0  0
    0.4394    0.6999    1.1353 H   0  0  0  0  0  0  0  0  0  0  0  0
    1.5719    0.0595    2.3163 H   0  0  0  0  0  0  0  0  0  0  0  0
    0.3695   -2.1041    2.3621 H   0  0  0  0  0  0  0  0  0  0  0  0
   -0.7429   -0.7976    2.6803 H   0  0  0  0  0  0  0  0  0  0  0  0
   -2.9013    2.4998    1.9913 H   0  0  0  0  0  0  0  0  0  0  0  0
   -4.9096    3.8727    1.5100 H   0  0  0  0  0  0  0  0  0  0  0  0
   -6.6360    3.0443   -0.0684 H   0  0  0  0  0  0  0  0  0  0  0  0
   -6.3702    0.8553   -1.1626 H   0  0  0  0  0  0  0  0  0  0  0  0
   -5.9403   -1.1548   -2.0305 H   0  0  0  0  0  0  0  0  0  0  0  0
   -4.7852   -3.5565   -2.4869 H   0  0  0  0  0  0  0  0  0  0  0  0
   -2.5105   -3.5956   -1.0271 H   0  0  0  0  0  0  0  0  0  0  0  0
   -0.2947   -3.2303   -0.5525 H   0  0  0  0  0  0  0  0  0  0  0  0
   -0.3248   -1.6241   -1.3014 H   0  0  0  0  0  0  0  0  0  0  0  0
    1.9975   -2.2936   -1.0289 H   0  0  0  0  0  0  0  0  0  0  0  0
    1.7419   -2.7686    0.6213 H   0  0  0  0  0  0  0  0  0  0  0  0
    4.0564    0.7692    1.9350 H   0  0  0  0  0  0  0  0  0  0  0  0
  1  2  1  0
  2  3  2  0
  3  4  1  0
  4  5  2  0
  5  6  1  0
  6  7  1  0
  7  8  1  0
  8  9  1  0
  9 10  1  0
 10 11  1  0
 11 12  1  0
 12 13  2  0
 13 14  1  0
 14 15  2  0
 15 16  1  0
 16 17  2  0
 17 18  1  0
 18 19  2  0
 19 20  1  0
 20 21  1  0
 21 22  2  0
 22 23  1  0
 23 24  2  0
 11 25  1  0
 25 26  1  0
  5 27  1  0
 27 28  2  0
 28 29  1  0
 28  2  1  0
 26  8  1  0
 24 12  1  0
 19 14  1  0
 24 20  1  0
  3 30  1  0
  4 31  1  0
  6 32  1  0
  6 33  1  0
  7 34  1  0
  7 35  1  0
  9 36  1  0
  9 37  1  0
 10 38  1  0
 10 39  1  0
 15 40  1  0
 16 41  1  0
 17 42  1  0
 18 43  1  0
 21 44  1  0
 22 45  1  0
 23 46  1  0
 25 47  1  0
 25 48  1  0
 26 49  1  0
 26 50  1  0
 27 51  1  0
M  END
$$$$
