
     RDKit          3D

 34 35  0  0  0  0  0  0  0  0999 V2000
    2.3672    1.4861   -1.6929 C   0  0  0  0  0  0  0  0  0  0  0  0
    0.9631    1.1143   -1.6845 N   0  0  0  0  0  0  0  0  0  0  0  0
    0.4408    0.4663   -0.6972 C   0  0  0  0  0  0  0  0  0  0  0  0
    1.1254    0.1099    0.5792 C   0  0  0  0  0  0  0  0  0  0  0  0
    1.1238   -1.2161    1.0256 C   0  0  0  0  0  0  0  0  0  0  0  0
    1.7463   -1.5445    2.2310 C   0  0  0  0  0  0  0  0  0  0  0  0
    2.3631   -0.5515    2.9928 C   0  0  0  0  0  0  0  0  0  0  0  0
    2.3570    0.7727    2.5544 C   0  0  0  0  0  0  0  0  0  0  0  0
    1.7364    1.1057    1.3498 C   0  0  0  0  0  0  0  0  0  0  0  0
   -0.9773    0.0101   -0.8500 C   0  0  0  0  0  0  0  0  0  0  0  0
   -1.9946    0.5567   -0.0385 C   0  0  0  0  0  0  0  0  0  0  0  0
   -1.7340    1.6318    0.9786 C   0  0  0  0  0  0  0  0  0  0  0  0
   -3.3038    0.0710   -0.1796 C   0  0  0  0  0  0  0  0  0  0  0  0
   -3.6052   -0.9037   -1.1288 C   0  0  0  0  0  0  0  0  0  0  0  0
   -2.6028   -1.4131   -1.9511 C   0  0  0  0  0  0  0  0  0  0  0  0
   -1.2778   -0.9723   -1.8208 C   0  0  0  0  0  0  0  0  0  0  0  0
   -0.2308   -1.5338   -2.7440 C   0  0  0  0  0  0  0  0  0  0  0  0
    2.5190    2.4520   -1.2028 H   0  0  0  0  0  0  0  0  0  0  0  0
    2.6950    1.5942   -2.7320 H   0  0  0  0  0  0  0  0  0  0  0  0
    3.0152    0.7295   -1.2393 H   0  0  0  0  0  0  0  0  0  0  0  0
    0.6489   -1.9994    0.4412 H   0  0  0  0  0  0  0  0  0  0  0  0
    1.7500   -2.5753    2.5766 H   0  0  0  0  0  0  0  0  0  0  0  0
    2.8467   -0.8101    3.9317 H   0  0  0  0  0  0  0  0  0  0  0  0
    2.8317    1.5461    3.1531 H   0  0  0  0  0  0  0  0  0  0  0  0
    1.7162    2.1422    1.0243 H   0  0  0  0  0  0  0  0  0  0  0  0
   -2.6582    2.1599    1.2388 H   0  0  0  0  0  0  0  0  0  0  0  0
   -1.0457    2.3872    0.5869 H   0  0  0  0  0  0  0  0  0  0  0  0
   -1.3258    1.1964    1.8954 H   0  0  0  0  0  0  0  0  0  0  0  0
   -4.1053    0.4637    0.4429 H   0  0  0  0  0  0  0  0  0  0  0  0
   -4.6273   -1.2582   -1.2365 H   0  0  0  0  0  0  0  0  0  0  0  0
   -2.8629   -2.1594   -2.6988 H   0  0  0  0  0  0  0  0  0  0  0  0
    0.6706   -1.8186   -2.1927 H   0  0  0  0  0  0  0  0  0  0  0  0
   -0.5904   -2.4385   -3.2466 H   0  0  0  0  0  0  0  0  0  0  0  0
    0.0258   -0.8012   -3.5154 H   0  0  0  0  0  0  0  0  0  0  0  0
  1  2  1  0
  2  3  2  3
  3  4  1  0
  4  5  2  0
  5  6  1  0
  6  7  2  0
  7  8  1  0
  8  9  2  0
  3 10  1  0
 10 11  2  0
 11 12  1  0
 11 13  1  0
 13 14  2  0
 14 15  1  0
 15 16  2  0
 16 17  1  0
  9  4  1  0
 16 10  1  0
  1 18  1  0
  1 19  1  0
  1 20  1  0
  5 21  1  0
  6 22  1  0
  7 23  1  0
  8 24  1  0
  9 25  1  0
 12 26  1  0
 12 27  1  0
 12 28  1  0
 13 29  1  0
 14 30  1  0
 15 31  1  0
 17 32  1  0
 17 33  1  0
 17 34  1  0
M  END
$$$$
