
     RDKit          3D

 51 53  0  0  0  0  0  0  0  0999 V2000
    7.8982    2.4826   -0.6109 C   0  0  0  0  0  0  0  0  0  0  0  0
    7.0457    1.7584    0.2622 O   0  0  0  0  0  0  0  0  0  0  0  0
    6.1350    0.9058   -0.3077 C   0  0  0  0  0  0  0  0  0  0  0  0
    5.8818    0.8189   -1.6800 C   0  0  0  0  0  0  0  0  0  0  0  0
    4.9268   -0.0763   -2.1688 C   0  0  0  0  0  0  0  0  0  0  0  0
    4.2201   -0.9119   -1.2967 C   0  0  0  0  0  0  0  0  0  0  0  0
    3.1899   -1.8731   -1.8360 C   0  0  0  0  0  0  0  0  0  0  0  0
    1.7975   -1.2586   -1.8821 C   0  0  0  0  0  0  0  0  0  0  0  0
    1.4965   -0.4500   -2.7561 O   0  0  0  0  0  0  0  0  0  0  0  0
    0.9782   -1.7069   -0.8562 N   0  0  0  0  0  0  0  0  0  0  0  0
   -0.3435   -1.3029   -0.5769 C   0  0  0  0  0  0  0  0  0  0  0  0
   -0.9869   -1.9209    0.5013 C   0  0  0  0  0  0  0  0  0  0  0  0
   -2.3000   -1.5755    0.8433 C   0  0  0  0  0  0  0  0  0  0  0  0
   -2.9957   -0.6033    0.1176 C   0  0  0  0  0  0  0  0  0  0  0  0
   -4.3140   -0.3103    0.5261 N   0  0  0  0  0  0  0  0  0  0  0  0
   -5.2041    0.5585   -0.0810 C   0  0  0  0  0  0  0  0  0  0  0  0
   -5.0328    1.1882   -1.1185 O   0  0  0  0  0  0  0  0  0  0  0  0
   -6.5202    0.6901    0.6075 C   0  0  0  0  0  0  0  0  0  0  0  0
   -7.6683    0.8663   -0.1793 C   0  0  0  0  0  0  0  0  0  0  0  0
   -8.9200    0.9982    0.4257 C   0  0  0  0  0  0  0  0  0  0  0  0
   -9.0212    0.9651    1.8175 C   0  0  0  0  0  0  0  0  0  0  0  0
  -10.7146    1.1468    2.6387 Br  0  0  0  0  0  0  0  0  0  0  0  0
   -7.8824    0.8106    2.6116 C   0  0  0  0  0  0  0  0  0  0  0  0
   -6.6285    0.6775    2.0076 C   0  0  0  0  0  0  0  0  0  0  0  0
   -2.3502    0.0185   -0.9504 C   0  0  0  0  0  0  0  0  0  0  0  0
   -1.0356   -0.3299   -1.2964 C   0  0  0  0  0  0  0  0  0  0  0  0
    4.4633   -0.8175    0.0815 C   0  0  0  0  0  0  0  0  0  0  0  0
    5.4033    0.0948    0.5796 C   0  0  0  0  0  0  0  0  0  0  0  0
    5.6986    0.2181    1.9170 O   0  0  0  0  0  0  0  0  0  0  0  0
    4.6317   -0.0524    2.8167 C   0  0  0  0  0  0  0  0  0  0  0  0
    8.4916    1.8055   -1.2331 H   0  0  0  0  0  0  0  0  0  0  0  0
    7.3314    3.1916   -1.2230 H   0  0  0  0  0  0  0  0  0  0  0  0
    8.5924    3.0625    0.0050 H   0  0  0  0  0  0  0  0  0  0  0  0
    6.4027    1.4430   -2.3984 H   0  0  0  0  0  0  0  0  0  0  0  0
    4.7347   -0.1117   -3.2407 H   0  0  0  0  0  0  0  0  0  0  0  0
    3.4540   -2.1846   -2.8530 H   0  0  0  0  0  0  0  0  0  0  0  0
    3.1931   -2.7937   -1.2414 H   0  0  0  0  0  0  0  0  0  0  0  0
    1.3680   -2.3965   -0.2289 H   0  0  0  0  0  0  0  0  0  0  0  0
   -0.4837   -2.6851    1.0882 H   0  0  0  0  0  0  0  0  0  0  0  0
   -2.7688   -2.0854    1.6822 H   0  0  0  0  0  0  0  0  0  0  0  0
   -4.6600   -0.8509    1.3070 H   0  0  0  0  0  0  0  0  0  0  0  0
   -7.5881    0.9029   -1.2653 H   0  0  0  0  0  0  0  0  0  0  0  0
   -9.8031    1.1311   -0.1963 H   0  0  0  0  0  0  0  0  0  0  0  0
   -7.9599    0.8064    3.6976 H   0  0  0  0  0  0  0  0  0  0  0  0
   -5.7473    0.5998    2.6407 H   0  0  0  0  0  0  0  0  0  0  0  0
   -2.8378    0.7836   -1.5466 H   0  0  0  0  0  0  0  0  0  0  0  0
   -0.5893    0.1856   -2.1418 H   0  0  0  0  0  0  0  0  0  0  0  0
    3.9242   -1.4713    0.7588 H   0  0  0  0  0  0  0  0  0  0  0  0
    3.7024    0.4367    2.5021 H   0  0  0  0  0  0  0  0  0  0  0  0
    4.9083    0.3536    3.7940 H   0  0  0  0  0  0  0  0  0  0  0  0
    4.4867   -1.1321    2.9351 H   0  0  0  0  0  0  0  0  0  0  0  0
  1  2  1  0
  2  3  1  0
  3  4  2  0
  4  5  1  0
  5  6  2  0
  6  7  1  0
  7  8  1  0
  8  9  2  0
  8 10  1  0
 10 11  1  0
 11 12  2  0
 12 13  1  0
 13 14  2  0
 14 15  1  0
 15 16  1  0
 16 17  2  0
 16 18  1  0
 18 19  2  0
 19 20  1  0
 20 21  2  0
 21 22  1  0
 21 23  1  0
 23 24  2  0
 14 25  1  0
 25 26  2  0
  6 27  1  0
 27 28  2  0
 28 29  1  0
 29 30  1  0
 28  3  1  0
 26 11  1  0
 24 18  1  0
  1 31  1  0
  1 32  1  0
  1 33  1  0
  4 34  1  0
  5 35  1  0
  7 36  1  0
  7 37  1  0
 10 38  1  0
 12 39  1  0
 13 40  1  0
 15 41  1  0
 19 42  1  0
 20 43  1  0
 23 44  1  0
 24 45  1  0
 25 46  1  0
 26 47  1  0
 27 48  1  0
 30 49  1  0
 30 50  1  0
 30 51  1  0
M  END
$$$$
