
     RDKit          3D

 39 41  0  0  0  0  0  0  0  0999 V2000
   -4.9605   -0.2400   -0.5491 C   0  0  0  0  0  0  0  0  0  0  0  0
   -3.8326    0.6948   -0.9640 C   0  0  0  0  0  0  0  0  0  0  0  0
   -2.6272    0.4750   -0.1687 N   0  0  0  0  0  0  0  0  0  0  0  0
   -2.5091    1.1876    1.0151 C   0  0  0  0  0  0  0  0  0  0  0  0
   -3.3576    1.9748    1.4293 O   0  0  0  0  0  0  0  0  0  0  0  0
   -1.2899    0.9639    1.8043 C   0  0  0  0  0  0  0  0  0  0  0  0
   -1.0942    1.7005    2.9844 C   0  0  0  0  0  0  0  0  0  0  0  0
    0.0512    1.5044    3.7483 C   0  0  0  0  0  0  0  0  0  0  0  0
    0.9958    0.5736    3.3337 C   0  0  0  0  0  0  0  0  0  0  0  0
    0.7945   -0.1598    2.1580 C   0  0  0  0  0  0  0  0  0  0  0  0
   -0.3541    0.0255    1.3715 C   0  0  0  0  0  0  0  0  0  0  0  0
   -0.5963   -0.7049    0.1732 N   0  0  0  0  0  0  0  0  0  0  0  0
    0.3564   -1.7179   -0.2952 C   0  0  0  0  0  0  0  0  0  0  0  0
    1.5797   -1.1411   -0.9860 C   0  0  0  0  0  0  0  0  0  0  0  0
    1.4513   -0.2007   -2.0217 C   0  0  0  0  0  0  0  0  0  0  0  0
    2.5795    0.3119   -2.6680 C   0  0  0  0  0  0  0  0  0  0  0  0
    3.8515   -0.1282   -2.2867 C   0  0  0  0  0  0  0  0  0  0  0  0
    5.0407    0.4070   -2.9606 N   0  0  0  0  0  4  0  0  0  0  0  0
    4.8686    1.2422   -3.8598 O   0  0  0  0  0  0  0  0  0  0  0  0
    6.1486   -0.0067   -2.5887 O   0  0  0  0  0  1  0  0  0  0  0  0
    3.9987   -1.0810   -1.2716 C   0  0  0  0  0  0  0  0  0  0  0  0
    2.8639   -1.5876   -0.6318 C   0  0  0  0  0  0  0  0  0  0  0  0
   -1.7338   -0.4951   -0.6030 C   0  0  0  0  0  0  0  0  0  0  0  0
   -1.9376   -1.1388   -1.6358 O   0  0  0  0  0  0  0  0  0  0  0  0
   -4.6718   -1.2884   -0.6761 H   0  0  0  0  0  0  0  0  0  0  0  0
   -5.8507   -0.0544   -1.1580 H   0  0  0  0  0  0  0  0  0  0  0  0
   -5.2283   -0.0930    0.5022 H   0  0  0  0  0  0  0  0  0  0  0  0
   -3.6068    0.5461   -2.0261 H   0  0  0  0  0  0  0  0  0  0  0  0
   -4.1624    1.7341   -0.8526 H   0  0  0  0  0  0  0  0  0  0  0  0
   -1.8361    2.4288    3.3074 H   0  0  0  0  0  0  0  0  0  0  0  0
    0.2045    2.0752    4.6609 H   0  0  0  0  0  0  0  0  0  0  0  0
    1.8952    0.4146    3.9248 H   0  0  0  0  0  0  0  0  0  0  0  0
    1.5685   -0.8699    1.8893 H   0  0  0  0  0  0  0  0  0  0  0  0
    0.6381   -2.3509    0.5551 H   0  0  0  0  0  0  0  0  0  0  0  0
   -0.1243   -2.4033   -1.0039 H   0  0  0  0  0  0  0  0  0  0  0  0
    0.4663    0.1365   -2.3414 H   0  0  0  0  0  0  0  0  0  0  0  0
    2.4469    1.0427   -3.4634 H   0  0  0  0  0  0  0  0  0  0  0  0
    4.9813   -1.4404   -0.9724 H   0  0  0  0  0  0  0  0  0  0  0  0
    2.9921   -2.3371    0.1475 H   0  0  0  0  0  0  0  0  0  0  0  0
  1  2  1  0
  2  3  1  0
  3  4  1  0
  4  5  2  0
  4  6  1  0
  6  7  2  0
  7  8  1  0
  8  9  2  0
  9 10  1  0
 10 11  2  0
 11 12  1  0
 12 13  1  0
 13 14  1  0
 14 15  2  0
 15 16  1  0
 16 17  2  0
 17 18  1  0
 18 19  2  0
 18 20  1  0
 17 21  1  0
 21 22  2  0
 12 23  1  0
 23 24  2  0
 23  3  1  0
 11  6  1  0
 22 14  1  0
  1 25  1  0
  1 26  1  0
  1 27  1  0
  2 28  1  0
  2 29  1  0
  7 30  1  0
  8 31  1  0
  9 32  1  0
 10 33  1  0
 13 34  1  0
 13 35  1  0
 15 36  1  0
 16 37  1  0
 21 38  1  0
 22 39  1  0
M  CHG  2  18   1  20  -1
M  END
$$$$
