
     RDKit          3D

 51 55  0  0  0  0  0  0  0  0999 V2000
    2.5917    0.7563    1.9209 O   0  0  0  0  0  0  0  0  0  0  0  0
    1.6735    0.7644    1.1033 C   0  0  0  0  0  0  0  0  0  0  0  0
    0.5551    1.8104    1.1576 C   0  0  0  0  0  0  0  0  0  0  0  0
   -0.7850    1.2050    1.0952 N   0  0  0  0  0  0  0  0  0  0  0  0
   -1.3367    0.9909   -0.1632 C   0  0  0  0  0  0  0  0  0  0  0  0
   -0.6937    1.1501   -1.2034 O   0  0  0  0  0  0  0  0  0  0  0  0
   -2.7816    0.5654   -0.2149 C   0  0  0  0  0  0  0  0  0  0  0  0
   -2.8922   -0.9489   -0.2408 C   0  0  0  0  0  0  0  0  0  0  0  0
   -4.3223   -1.3770   -0.1460 C   0  0  0  0  0  0  0  0  0  0  0  0
   -5.2846   -1.3175    0.8445 C   0  0  0  0  0  0  0  0  0  0  0  0
   -6.4612   -1.8828    0.2973 C   0  0  0  0  0  0  0  0  0  0  0  0
   -6.1485   -2.2453   -0.9909 C   0  0  0  0  0  0  0  0  0  0  0  0
   -4.8569   -1.9378   -1.2710 O   0  0  0  0  0  0  0  0  0  0  0  0
   -1.8791   -1.8165    1.0208 S   0  0  0  0  0  0  0  0  0  0  0  0
   -1.9061   -0.6342    2.3662 C   0  0  0  0  0  0  0  0  0  0  0  0
   -2.4162   -1.1103    3.5853 C   0  0  0  0  0  0  0  0  0  0  0  0
   -2.3831   -0.3195    4.7319 C   0  0  0  0  0  0  0  0  0  0  0  0
   -1.8225    0.9499    4.6765 C   0  0  0  0  0  0  0  0  0  0  0  0
   -1.2969    1.4308    3.4749 C   0  0  0  0  0  0  0  0  0  0  0  0
   -1.3331    0.6570    2.3020 C   0  0  0  0  0  0  0  0  0  0  0  0
    1.6130   -0.0866    0.0226 N   0  0  0  0  0  0  0  0  0  0  0  0
    2.6520   -1.0432   -0.2660 C   0  0  0  0  0  0  0  0  0  0  0  0
    3.6305   -0.4873   -1.2691 C   0  0  0  0  0  0  0  0  0  0  0  0
    4.7288    0.2899   -0.8314 C   0  0  0  0  0  0  0  0  0  0  0  0
    5.6359    0.8357   -1.7449 C   0  0  0  0  0  0  0  0  0  0  0  0
    5.4176    0.5963   -3.0835 C   0  0  0  0  0  0  0  0  0  0  0  0
    4.3479   -0.1489   -3.5204 C   0  0  0  0  0  0  0  0  0  0  0  0
    3.4364   -0.6994   -2.6439 C   0  0  0  0  0  0  0  0  0  0  0  0
    4.3122   -0.2607   -4.8755 O   0  0  0  0  0  0  0  0  0  0  0  0
    5.4820    0.5005   -5.2403 C   0  0  0  0  0  0  0  0  0  0  0  0
    6.1897    1.0468   -4.1082 O   0  0  0  0  0  0  0  0  0  0  0  0
    0.6927    2.4898    0.3076 H   0  0  0  0  0  0  0  0  0  0  0  0
    0.6798    2.4122    2.0613 H   0  0  0  0  0  0  0  0  0  0  0  0
   -3.3460    1.0238    0.6067 H   0  0  0  0  0  0  0  0  0  0  0  0
   -3.2232    0.9918   -1.1258 H   0  0  0  0  0  0  0  0  0  0  0  0
   -2.4917   -1.3028   -1.1995 H   0  0  0  0  0  0  0  0  0  0  0  0
   -5.1526   -0.9177    1.8404 H   0  0  0  0  0  0  0  0  0  0  0  0
   -7.4194   -2.0113    0.7806 H   0  0  0  0  0  0  0  0  0  0  0  0
   -6.7036   -2.7078   -1.7952 H   0  0  0  0  0  0  0  0  0  0  0  0
   -2.8291   -2.1154    3.6551 H   0  0  0  0  0  0  0  0  0  0  0  0
   -2.7800   -0.7018    5.6692 H   0  0  0  0  0  0  0  0  0  0  0  0
   -1.7900    1.5697    5.5697 H   0  0  0  0  0  0  0  0  0  0  0  0
   -0.8948    2.4405    3.4716 H   0  0  0  0  0  0  0  0  0  0  0  0
    0.9698    0.1547   -0.7288 H   0  0  0  0  0  0  0  0  0  0  0  0
    2.1684   -1.9415   -0.6655 H   0  0  0  0  0  0  0  0  0  0  0  0
    3.1713   -1.3366    0.6533 H   0  0  0  0  0  0  0  0  0  0  0  0
    4.8693    0.4738    0.2336 H   0  0  0  0  0  0  0  0  0  0  0  0
    6.4785    1.4304   -1.4119 H   0  0  0  0  0  0  0  0  0  0  0  0
    2.5966   -1.2753   -3.0177 H   0  0  0  0  0  0  0  0  0  0  0  0
    6.1640   -0.1514   -5.7984 H   0  0  0  0  0  0  0  0  0  0  0  0
    5.1735    1.3259   -5.8922 H   0  0  0  0  0  0  0  0  0  0  0  0
  1  2  2  0
  2  3  1  0
  3  4  1  0
  4  5  1  0
  5  6  2  0
  5  7  1  0
  7  8  1  0
  8  9  1  0
  9 10  2  0
 10 11  1  0
 11 12  2  0
 12 13  1  0
  8 14  1  0
 14 15  1  0
 15 16  2  0
 16 17  1  0
 17 18  2  0
 18 19  1  0
 19 20  2  0
  2 21  1  0
 21 22  1  0
 22 23  1  0
 23 24  2  0
 24 25  1  0
 25 26  2  0
 26 27  1  0
 27 28  2  0
 27 29  1  0
 29 30  1  0
 30 31  1  0
 20  4  1  0
 28 23  1  0
 13  9  1  0
 20 15  1  0
 31 26  1  0
  3 32  1  0
  3 33  1  0
  7 34  1  0
  7 35  1  0
  8 36  1  0
 10 37  1  0
 11 38  1  0
 12 39  1  0
 16 40  1  0
 17 41  1  0
 18 42  1  0
 19 43  1  0
 21 44  1  0
 22 45  1  0
 22 46  1  0
 24 47  1  0
 25 48  1  0
 28 49  1  0
 30 50  1  0
 30 51  1  0
M  END
$$$$
