
     RDKit          3D

 42 44  0  0  0  0  0  0  0  0999 V2000
   -2.1544   -2.2387    0.5591 C   0  0  0  0  0  0  0  0  0  0  0  0
   -3.0593   -1.0766    0.2517 C   0  0  0  0  0  0  0  0  0  0  0  0
   -4.4436   -1.2294    0.4464 C   0  0  0  0  0  0  0  0  0  0  0  0
   -5.3228   -0.1874    0.1593 C   0  0  0  0  0  0  0  0  0  0  0  0
   -4.8219    1.0153   -0.3203 C   0  0  0  0  0  0  0  0  0  0  0  0
   -5.8981    2.3116   -0.6701 Cl  0  0  0  0  0  0  0  0  0  0  0  0
   -3.4507    1.1871   -0.5124 C   0  0  0  0  0  0  0  0  0  0  0  0
   -2.5469    0.1488   -0.2299 C   0  0  0  0  0  0  0  0  0  0  0  0
   -1.1539    0.3119   -0.3866 N   0  0  0  0  0  0  0  0  0  0  0  0
   -0.5293    0.8813    0.8317 C   0  0  0  0  0  0  0  0  0  0  0  0
    0.7954    1.6252    0.5225 C   0  0  0  0  0  0  0  0  0  0  0  0
    1.5951    1.0443   -0.5943 N   0  0  0  0  0  0  0  0  0  0  0  0
    2.4057   -0.0178   -0.1786 C   0  0  0  0  0  0  0  0  0  0  0  0
    1.9132   -1.3085    0.0798 C   0  0  0  0  0  0  0  0  0  0  0  0
    2.7621   -2.3222    0.5070 C   0  0  0  0  0  0  0  0  0  0  0  0
    4.1077   -2.0469    0.6735 C   0  0  0  0  0  0  0  0  0  0  0  0
    4.5738   -0.7680    0.4052 C   0  0  0  0  0  0  0  0  0  0  0  0
    3.7369    0.2096   -0.0099 N   0  0  0  0  0  4  0  0  0  0  0  0
    4.2844    1.5438   -0.3129 C   0  0  0  0  0  0  0  0  0  0  0  0
    0.7933    0.7595   -1.8264 C   0  0  0  0  0  0  0  0  0  0  0  0
   -0.7282    0.9653   -1.6376 C   0  0  0  0  0  0  0  0  0  0  0  0
   -1.5006   -2.4508   -0.2926 H   0  0  0  0  0  0  0  0  0  0  0  0
   -1.5476   -2.0255    1.4439 H   0  0  0  0  0  0  0  0  0  0  0  0
   -2.7268   -3.1510    0.7587 H   0  0  0  0  0  0  0  0  0  0  0  0
   -4.8473   -2.1691    0.8184 H   0  0  0  0  0  0  0  0  0  0  0  0
   -6.3904   -0.3221    0.3114 H   0  0  0  0  0  0  0  0  0  0  0  0
   -3.0954    2.1491   -0.8670 H   0  0  0  0  0  0  0  0  0  0  0  0
   -0.3231    0.0629    1.5308 H   0  0  0  0  0  0  0  0  0  0  0  0
   -1.1990    1.5821    1.3471 H   0  0  0  0  0  0  0  0  0  0  0  0
    0.5515    2.6557    0.2324 H   0  0  0  0  0  0  0  0  0  0  0  0
    1.3982    1.7137    1.4358 H   0  0  0  0  0  0  0  0  0  0  0  0
    0.8571   -1.5319   -0.0544 H   0  0  0  0  0  0  0  0  0  0  0  0
    2.3716   -3.3191    0.7049 H   0  0  0  0  0  0  0  0  0  0  0  0
    4.7918   -2.8249    1.0054 H   0  0  0  0  0  0  0  0  0  0  0  0
    5.6252   -0.5191    0.5184 H   0  0  0  0  0  0  0  0  0  0  0  0
    3.8208    2.2680    0.3617 H   0  0  0  0  0  0  0  0  0  0  0  0
    5.3662    1.5487   -0.1574 H   0  0  0  0  0  0  0  0  0  0  0  0
    4.0711    1.7734   -1.3603 H   0  0  0  0  0  0  0  0  0  0  0  0
    1.1439    1.4345   -2.6163 H   0  0  0  0  0  0  0  0  0  0  0  0
    0.9708   -0.2585   -2.1972 H   0  0  0  0  0  0  0  0  0  0  0  0
   -0.9472    2.0402   -1.6127 H   0  0  0  0  0  0  0  0  0  0  0  0
   -1.2495    0.5355   -2.5018 H   0  0  0  0  0  0  0  0  0  0  0  0
  1  2  1  0
  2  3  2  0
  3  4  1  0
  4  5  2  0
  5  6  1  0
  5  7  1  0
  7  8  2  0
  8  9  1  0
  9 10  1  0
 10 11  1  0
 11 12  1  0
 12 13  1  0
 13 14  2  0
 14 15  1  0
 15 16  2  0
 16 17  1  0
 17 18  2  0
 18 19  1  0
 12 20  1  0
 20 21  1  0
  8  2  1  0
 21  9  1  0
 18 13  1  0
  1 22  1  0
  1 23  1  0
  1 24  1  0
  3 25  1  0
  4 26  1  0
  7 27  1  0
 10 28  1  0
 10 29  1  0
 11 30  1  0
 11 31  1  0
 14 32  1  0
 15 33  1  0
 16 34  1  0
 17 35  1  0
 19 36  1  0
 19 37  1  0
 19 38  1  0
 20 39  1  0
 20 40  1  0
 21 41  1  0
 21 42  1  0
M  CHG  1  18   1
M  END
$$$$
