
     RDKit          3D

 44 46  0  0  0  0  0  0  0  0999 V2000
   -2.6610   -2.7667   -2.2971 C   0  0  0  0  0  0  0  0  0  0  0  0
   -3.1332   -1.5447   -1.5583 C   0  0  0  0  0  0  0  0  0  0  0  0
   -4.4665   -1.1324   -1.6751 C   0  0  0  0  0  0  0  0  0  0  0  0
   -4.9234   -0.0038   -0.9942 C   0  0  0  0  0  0  0  0  0  0  0  0
   -4.0580    0.7362   -0.1795 C   0  0  0  0  0  0  0  0  0  0  0  0
   -4.5364    1.9611    0.5814 C   0  0  0  0  0  0  0  0  0  0  0  0
   -5.0029    3.0666   -0.3691 C   0  0  0  0  0  0  0  0  0  0  0  0
   -5.6349    1.6071    1.5869 C   0  0  0  0  0  0  0  0  0  0  0  0
   -2.7186    0.3222   -0.0682 C   0  0  0  0  0  0  0  0  0  0  0  0
   -2.2506   -0.8061   -0.7528 C   0  0  0  0  0  0  0  0  0  0  0  0
   -0.9664   -1.2799   -0.6987 O   0  0  0  0  0  0  0  0  0  0  0  0
    0.0035   -0.4882   -0.0338 C   0  0  0  0  0  0  0  0  0  0  0  0
    1.3983   -1.1215   -0.1255 C   0  0  0  0  0  0  0  0  0  0  0  0
    1.5660   -2.3135   -0.3564 O   0  0  0  0  0  0  0  0  0  0  0  0
    2.3974   -0.1936    0.1051 N   0  0  0  0  0  0  0  0  0  0  0  0
    3.7223   -0.5351    0.0928 C   0  0  0  0  0  0  0  0  0  0  0  0
    4.3066   -1.6917   -0.0996 N   0  0  0  0  0  0  0  0  0  0  0  0
    5.6859   -1.5879   -0.0226 N   0  0  0  0  0  0  0  0  0  0  0  0
    6.0642   -0.3555    0.2304 C   0  0  0  0  0  0  0  0  0  0  0  0
    7.5666    0.0424    0.3565 C   0  0  0  0  0  0  0  0  0  0  0  0
    8.4982   -0.8506    1.1367 C   0  0  0  0  0  0  0  0  0  0  0  0
    8.1069    0.4876    1.6920 C   0  0  0  0  0  0  0  0  0  0  0  0
    4.7862    0.7728    0.3798 S   0  0  0  0  0  0  0  0  0  0  0  0
   -3.4733   -3.2306   -2.8660 H   0  0  0  0  0  0  0  0  0  0  0  0
   -1.8706   -2.4989   -3.0055 H   0  0  0  0  0  0  0  0  0  0  0  0
   -2.2815   -3.5137   -1.5927 H   0  0  0  0  0  0  0  0  0  0  0  0
   -5.1616   -1.6919   -2.2972 H   0  0  0  0  0  0  0  0  0  0  0  0
   -5.9660    0.2870   -1.1039 H   0  0  0  0  0  0  0  0  0  0  0  0
   -3.6938    2.3666    1.1569 H   0  0  0  0  0  0  0  0  0  0  0  0
   -5.8857    2.7676   -0.9446 H   0  0  0  0  0  0  0  0  0  0  0  0
   -5.2626    3.9711    0.1919 H   0  0  0  0  0  0  0  0  0  0  0  0
   -4.2133    3.3292   -1.0821 H   0  0  0  0  0  0  0  0  0  0  0  0
   -6.5440    1.2487    1.0920 H   0  0  0  0  0  0  0  0  0  0  0  0
   -5.9063    2.4842    2.1846 H   0  0  0  0  0  0  0  0  0  0  0  0
   -5.2984    0.8240    2.2752 H   0  0  0  0  0  0  0  0  0  0  0  0
   -2.0589    0.8970    0.5727 H   0  0  0  0  0  0  0  0  0  0  0  0
    0.0466    0.5089   -0.4897 H   0  0  0  0  0  0  0  0  0  0  0  0
   -0.2356   -0.4115    1.0339 H   0  0  0  0  0  0  0  0  0  0  0  0
    2.1835    0.7766    0.2773 H   0  0  0  0  0  0  0  0  0  0  0  0
    7.9720    0.5127   -0.5326 H   0  0  0  0  0  0  0  0  0  0  0  0
    9.5061   -0.9771    0.7603 H   0  0  0  0  0  0  0  0  0  0  0  0
    8.0880   -1.7383    1.6078 H   0  0  0  0  0  0  0  0  0  0  0  0
    7.4498    0.4924    2.5539 H   0  0  0  0  0  0  0  0  0  0  0  0
    8.8551    1.2714    1.7002 H   0  0  0  0  0  0  0  0  0  0  0  0
  1  2  1  0
  2  3  2  0
  3  4  1  0
  4  5  2  0
  5  6  1  0
  6  7  1  0
  6  8  1  0
  5  9  1  0
  9 10  2  0
 10 11  1  0
 11 12  1  0
 12 13  1  0
 13 14  2  0
 13 15  1  0
 15 16  1  0
 16 17  2  0
 17 18  1  0
 18 19  2  0
 19 20  1  0
 20 21  1  0
 21 22  1  0
 19 23  1  0
 10  2  1  0
 23 16  1  0
 22 20  1  0
  1 24  1  0
  1 25  1  0
  1 26  1  0
  3 27  1  0
  4 28  1  0
  6 29  1  0
  7 30  1  0
  7 31  1  0
  7 32  1  0
  8 33  1  0
  8 34  1  0
  8 35  1  0
  9 36  1  0
 12 37  1  0
 12 38  1  0
 15 39  1  0
 20 40  1  0
 21 41  1  0
 21 42  1  0
 22 43  1  0
 22 44  1  0
M  END
$$$$
