
     RDKit          3D

 43 44  0  0  0  0  0  0  0  0999 V2000
   -2.7993    2.3912    1.6309 C   0  0  0  0  0  0  0  0  0  0  0  0
   -2.7707    0.8762    1.6904 C   0  0  0  0  0  0  0  0  0  0  0  0
   -3.2918    0.3163    0.4153 N   0  0  0  0  0  4  0  0  0  0  0  0
   -4.6297    0.1100    0.3142 C   0  0  0  0  0  0  0  0  0  0  0  0
   -5.1996   -0.4487   -0.8277 C   0  0  0  0  0  0  0  0  0  0  0  0
   -6.6853   -0.6349   -0.9291 C   0  0  0  0  0  0  0  0  0  0  0  0
   -4.3702   -0.7768   -1.8936 C   0  0  0  0  0  0  0  0  0  0  0  0
   -3.0023   -0.5632   -1.7854 C   0  0  0  0  0  0  0  0  0  0  0  0
   -2.4639   -0.0152   -0.6144 C   0  0  0  0  0  0  0  0  0  0  0  0
   -1.0220    0.2307   -0.5268 C   0  0  0  0  0  0  0  0  0  0  0  0
   -0.1234   -0.7666   -0.5543 C   0  0  0  0  0  0  0  0  0  0  0  0
    1.3293   -0.5539   -0.4953 C   0  0  0  0  0  0  0  0  0  0  0  0
    1.9199    0.4326    0.2933 C   0  0  0  0  0  0  0  0  0  0  0  0
    3.3164    0.5795    0.3304 C   0  0  0  0  0  0  0  0  0  0  0  0
    4.1831   -0.2542   -0.3963 C   0  0  0  0  0  0  0  0  0  0  0  0
    5.5693   -0.0841   -0.3739 N   0  0  0  0  0  0  0  0  0  0  0  0
    6.4319   -1.1074   -0.9642 C   0  0  0  0  0  0  0  0  0  0  0  0
    6.1780    0.7171    0.6875 C   0  0  0  0  0  0  0  0  0  0  0  0
    3.5608   -1.2418   -1.1776 C   0  0  0  0  0  0  0  0  0  0  0  0
    2.1663   -1.3998   -1.2214 C   0  0  0  0  0  0  0  0  0  0  0  0
   -3.8188    2.7599    1.4786 H   0  0  0  0  0  0  0  0  0  0  0  0
   -2.4206    2.8144    2.5661 H   0  0  0  0  0  0  0  0  0  0  0  0
   -2.1847    2.7716    0.8098 H   0  0  0  0  0  0  0  0  0  0  0  0
   -3.4066    0.5057    2.5028 H   0  0  0  0  0  0  0  0  0  0  0  0
   -1.7643    0.4921    1.8768 H   0  0  0  0  0  0  0  0  0  0  0  0
   -5.2403    0.4008    1.1658 H   0  0  0  0  0  0  0  0  0  0  0  0
   -7.1231   -0.8230    0.0569 H   0  0  0  0  0  0  0  0  0  0  0  0
   -7.1462    0.2612   -1.3559 H   0  0  0  0  0  0  0  0  0  0  0  0
   -6.9284   -1.4949   -1.5620 H   0  0  0  0  0  0  0  0  0  0  0  0
   -4.7801   -1.1961   -2.8124 H   0  0  0  0  0  0  0  0  0  0  0  0
   -2.3554   -0.8160   -2.6248 H   0  0  0  0  0  0  0  0  0  0  0  0
   -0.7138    1.2705   -0.4627 H   0  0  0  0  0  0  0  0  0  0  0  0
   -0.4336   -1.8066   -0.6506 H   0  0  0  0  0  0  0  0  0  0  0  0
    1.3218    1.1063    0.8993 H   0  0  0  0  0  0  0  0  0  0  0  0
    3.7095    1.3796    0.9511 H   0  0  0  0  0  0  0  0  0  0  0  0
    6.2231   -1.2337   -2.0321 H   0  0  0  0  0  0  0  0  0  0  0  0
    7.4887   -0.8253   -0.8969 H   0  0  0  0  0  0  0  0  0  0  0  0
    6.3117   -2.0666   -0.4489 H   0  0  0  0  0  0  0  0  0  0  0  0
    5.8455    1.7594    0.6363 H   0  0  0  0  0  0  0  0  0  0  0  0
    7.2694    0.7448    0.5927 H   0  0  0  0  0  0  0  0  0  0  0  0
    5.9435    0.3040    1.6747 H   0  0  0  0  0  0  0  0  0  0  0  0
    4.1488   -1.9253   -1.7835 H   0  0  0  0  0  0  0  0  0  0  0  0
    1.7571   -2.1898   -1.8473 H   0  0  0  0  0  0  0  0  0  0  0  0
  1  2  1  0
  2  3  1  0
  3  4  2  0
  4  5  1  0
  5  6  1  0
  5  7  2  0
  7  8  1  0
  8  9  2  0
  9 10  1  0
 10 11  2  3
 11 12  1  0
 12 13  2  0
 13 14  1  0
 14 15  2  0
 15 16  1  0
 16 17  1  0
 16 18  1  0
 15 19  1  0
 19 20  2  0
  9  3  1  0
 20 12  1  0
  1 21  1  0
  1 22  1  0
  1 23  1  0
  2 24  1  0
  2 25  1  0
  4 26  1  0
  6 27  1  0
  6 28  1  0
  6 29  1  0
  7 30  1  0
  8 31  1  0
 10 32  1  0
 11 33  1  0
 13 34  1  0
 14 35  1  0
 17 36  1  0
 17 37  1  0
 17 38  1  0
 18 39  1  0
 18 40  1  0
 18 41  1  0
 19 42  1  0
 20 43  1  0
M  CHG  1   3   1
M  END
$$$$
