
     RDKit          3D

 68 70  0  0  0  0  0  0  0  0999 V2000
   -4.9879    4.5655    3.0669 C   0  0  0  0  0  0  0  0  0  0  0  0
   -4.0274    3.6943    3.6548 O   0  0  0  0  0  0  0  0  0  0  0  0
   -3.4710    2.7455    2.8422 C   0  0  0  0  0  0  0  0  0  0  0  0
   -2.5329    1.9218    3.4663 C   0  0  0  0  0  0  0  0  0  0  0  0
   -1.8826    0.9122    2.7537 C   0  0  0  0  0  0  0  0  0  0  0  0
   -2.1668    0.7015    1.3960 C   0  0  0  0  0  0  0  0  0  0  0  0
   -1.4190   -0.3947    0.6378 C   0  0  0  0  0  0  0  0  0  0  0  0
   -2.3143   -1.1393   -0.4018 C   0  0  0  0  0  0  0  0  0  0  0  0
   -2.0806   -1.1604   -1.6087 O   0  0  0  0  0  0  0  0  0  0  0  0
   -3.4086   -1.7803    0.1641 N   0  0  0  0  0  0  0  0  0  0  0  0
   -4.4162   -2.5516   -0.5782 C   0  0  0  0  0  0  0  0  0  0  0  0
   -5.4411   -3.0943    0.4353 C   0  0  0  0  0  0  0  0  0  0  0  0
   -3.7728   -3.7474   -1.2957 C   0  0  0  0  0  0  0  0  0  0  0  0
   -5.1579   -1.6618   -1.5863 C   0  0  0  0  0  0  0  0  0  0  0  0
   -0.1116    0.0246    0.0822 N   0  0  0  0  0  0  0  0  0  0  0  0
    0.8736   -0.9630    0.0104 C   0  0  0  0  0  0  0  0  0  0  0  0
    0.6923   -2.1047    0.4433 O   0  0  0  0  0  0  0  0  0  0  0  0
    2.2250   -0.5567   -0.5608 C   0  0  0  0  0  0  0  0  0  0  0  0
    3.3047   -1.5652   -0.1759 C   0  0  0  0  0  0  0  0  0  0  0  0
    4.6952   -1.0663   -0.5123 C   0  0  0  0  0  0  0  0  0  0  0  0
    4.8866   -0.0562   -1.1815 O   0  0  0  0  0  0  0  0  0  0  0  0
    5.6724   -1.8861    0.0097 N   0  0  0  0  0  0  0  0  0  0  0  0
    7.0294   -1.6887   -0.1158 C   0  0  0  0  0  0  0  0  0  0  0  0
    7.7309   -0.6691   -0.7962 C   0  0  0  0  0  0  0  0  0  0  0  0
    9.0552   -0.9689   -0.5944 C   0  0  0  0  0  0  0  0  0  0  0  0
   10.3243   -0.3520   -1.0157 C   0  0  0  0  0  0  0  0  0  0  0  0
    9.1466   -2.0918    0.1666 O   0  0  0  0  0  0  0  0  0  0  0  0
    7.8759   -2.5480    0.4650 N   0  0  0  0  0  0  0  0  0  0  0  0
   -0.0503    1.2045   -0.7091 C   0  0  0  0  0  0  0  0  0  0  0  0
   -0.0265    1.1309   -2.1081 C   0  0  0  0  0  0  0  0  0  0  0  0
    0.0471    2.2953   -2.8764 C   0  0  0  0  0  0  0  0  0  0  0  0
    0.1086    3.5377   -2.2483 C   0  0  0  0  0  0  0  0  0  0  0  0
    0.0931    3.6049   -0.8606 C   0  0  0  0  0  0  0  0  0  0  0  0
    0.1547    4.8009   -0.2599 F   0  0  0  0  0  0  0  0  0  0  0  0
    0.0185    2.4536   -0.0856 C   0  0  0  0  0  0  0  0  0  0  0  0
   -3.1091    1.5356    0.7720 C   0  0  0  0  0  0  0  0  0  0  0  0
   -3.7569    2.5496    1.4913 C   0  0  0  0  0  0  0  0  0  0  0  0
   -5.3519    5.2374    3.8499 H   0  0  0  0  0  0  0  0  0  0  0  0
   -5.8501    4.0065    2.6878 H   0  0  0  0  0  0  0  0  0  0  0  0
   -4.5324    5.1798    2.2820 H   0  0  0  0  0  0  0  0  0  0  0  0
   -2.2976    2.0746    4.5181 H   0  0  0  0  0  0  0  0  0  0  0  0
   -1.1438    0.2984    3.2674 H   0  0  0  0  0  0  0  0  0  0  0  0
   -1.2062   -1.1699    1.3895 H   0  0  0  0  0  0  0  0  0  0  0  0
   -3.5760   -1.6263    1.1516 H   0  0  0  0  0  0  0  0  0  0  0  0
   -6.2208   -3.6851   -0.0590 H   0  0  0  0  0  0  0  0  0  0  0  0
   -4.9555   -3.7328    1.1816 H   0  0  0  0  0  0  0  0  0  0  0  0
   -5.9318   -2.2784    0.9809 H   0  0  0  0  0  0  0  0  0  0  0  0
   -4.5324   -4.3699   -1.7834 H   0  0  0  0  0  0  0  0  0  0  0  0
   -3.2221   -4.3766   -0.5884 H   0  0  0  0  0  0  0  0  0  0  0  0
   -3.0657   -3.4304   -2.0691 H   0  0  0  0  0  0  0  0  0  0  0  0
   -5.9714   -2.2114   -2.0741 H   0  0  0  0  0  0  0  0  0  0  0  0
   -4.4949   -1.2949   -2.3765 H   0  0  0  0  0  0  0  0  0  0  0  0
   -5.5918   -0.7848   -1.0917 H   0  0  0  0  0  0  0  0  0  0  0  0
    2.1567   -0.5046   -1.6522 H   0  0  0  0  0  0  0  0  0  0  0  0
    2.4964    0.4317   -0.1724 H   0  0  0  0  0  0  0  0  0  0  0  0
    3.2628   -1.7659    0.9022 H   0  0  0  0  0  0  0  0  0  0  0  0
    3.1407   -2.5114   -0.7040 H   0  0  0  0  0  0  0  0  0  0  0  0
    5.4250   -2.7057    0.5481 H   0  0  0  0  0  0  0  0  0  0  0  0
    7.3342    0.1629   -1.3611 H   0  0  0  0  0  0  0  0  0  0  0  0
   10.9523   -1.0810   -1.5396 H   0  0  0  0  0  0  0  0  0  0  0  0
   10.1438    0.4893   -1.6920 H   0  0  0  0  0  0  0  0  0  0  0  0
   10.8760    0.0188   -0.1460 H   0  0  0  0  0  0  0  0  0  0  0  0
   -0.0892    0.1688   -2.6131 H   0  0  0  0  0  0  0  0  0  0  0  0
    0.0535    2.2297   -3.9615 H   0  0  0  0  0  0  0  0  0  0  0  0
    0.1704    4.4523   -2.8285 H   0  0  0  0  0  0  0  0  0  0  0  0
    0.0273    2.5507    0.9950 H   0  0  0  0  0  0  0  0  0  0  0  0
   -3.3369    1.4219   -0.2889 H   0  0  0  0  0  0  0  0  0  0  0  0
   -4.4694    3.1747    0.9616 H   0  0  0  0  0  0  0  0  0  0  0  0
  1  2  1  0
  2  3  1  0
  3  4  2  0
  4  5  1  0
  5  6  2  0
  6  7  1  0
  7  8  1  0
  8  9  2  0
  8 10  1  0
 10 11  1  0
 11 12  1  0
 11 13  1  0
 11 14  1  0
  7 15  1  0
 15 16  1  0
 16 17  2  0
 16 18  1  0
 18 19  1  0
 19 20  1  0
 20 21  2  0
 20 22  1  0
 22 23  1  0
 23 24  1  0
 24 25  2  0
 25 26  1  0
 25 27  1  0
 27 28  1  0
 15 29  1  0
 29 30  2  0
 30 31  1  0
 31 32  2  0
 32 33  1  0
 33 34  1  0
 33 35  2  0
  6 36  1  0
 36 37  2  0
 37  3  1  0
 28 23  2  0
 35 29  1  0
  1 38  1  0
  1 39  1  0
  1 40  1  0
  4 41  1  0
  5 42  1  0
  7 43  1  0
 10 44  1  0
 12 45  1  0
 12 46  1  0
 12 47  1  0
 13 48  1  0
 13 49  1  0
 13 50  1  0
 14 51  1  0
 14 52  1  0
 14 53  1  0
 18 54  1  0
 18 55  1  0
 19 56  1  0
 19 57  1  0
 22 58  1  0
 24 59  1  0
 26 60  1  0
 26 61  1  0
 26 62  1  0
 30 63  1  0
 31 64  1  0
 32 65  1  0
 35 66  1  0
 36 67  1  0
 37 68  1  0
M  END
$$$$
