
     RDKit          3D

 46 49  0  0  0  0  0  0  0  0999 V2000
    3.1639   -0.8776   -2.6044 O   0  0  0  0  0  0  0  0  0  0  0  0
    3.1208   -0.4507   -1.4540 C   0  0  0  0  0  0  0  0  0  0  0  0
    2.1245   -1.0024   -0.4473 C   0  0  0  0  0  0  0  0  0  0  0  0
    0.9497    0.2987    0.0383 S   0  0  0  0  0  0  0  0  0  0  0  0
    0.0087   -0.5722    1.1969 C   0  0  0  0  0  0  0  0  0  0  0  0
    0.3867   -1.6671    1.8115 N   0  0  0  0  0  0  0  0  0  0  0  0
   -0.6115   -2.0260    2.6779 N   0  0  0  0  0  0  0  0  0  0  0  0
   -1.5847   -1.1396    2.5795 C   0  0  0  0  0  0  0  0  0  0  0  0
   -2.8433   -1.1529    3.3841 C   0  0  0  0  0  0  0  0  0  0  0  0
   -4.0525   -1.6043    2.6143 C   0  0  0  0  0  0  0  0  0  0  0  0
   -4.1487   -2.5554    1.6153 C   0  0  0  0  0  0  0  0  0  0  0  0
   -5.4811   -2.7097    1.1365 C   0  0  0  0  0  0  0  0  0  0  0  0
   -6.3644   -1.8865    1.7964 C   0  0  0  0  0  0  0  0  0  0  0  0
   -5.5893   -0.9364    2.9862 S   0  0  0  0  0  0  0  0  0  0  0  0
   -1.2345   -0.1978    1.6327 N   0  0  0  0  0  0  0  0  0  0  0  0
   -1.9972    0.9714    1.2353 C   0  0  0  0  0  0  0  0  0  0  0  0
   -2.8978    0.6902    0.0886 C   0  0  0  0  0  0  0  0  0  0  0  0
   -4.2433    0.9084   -0.1314 C   0  0  0  0  0  0  0  0  0  0  0  0
   -4.5213    0.4249   -1.4323 C   0  0  0  0  0  0  0  0  0  0  0  0
   -3.3286   -0.0407   -1.9311 C   0  0  0  0  0  0  0  0  0  0  0  0
   -2.3375    0.1264   -1.0203 O   0  0  0  0  0  0  0  0  0  0  0  0
    3.9518    0.5176   -0.9146 N   0  0  0  0  0  0  0  0  0  0  0  0
    5.0080    1.2163   -1.5431 C   0  0  0  0  0  0  0  0  0  0  0  0
    5.4346    0.9500   -2.8471 C   0  0  0  0  0  0  0  0  0  0  0  0
    6.4906    1.6751   -3.4117 C   0  0  0  0  0  0  0  0  0  0  0  0
    7.1263    2.6718   -2.6759 C   0  0  0  0  0  0  0  0  0  0  0  0
    8.4220    3.5582   -3.3782 Cl  0  0  0  0  0  0  0  0  0  0  0  0
    6.7209    2.9531   -1.3759 C   0  0  0  0  0  0  0  0  0  0  0  0
    5.6682    2.2265   -0.8154 C   0  0  0  0  0  0  0  0  0  0  0  0
    5.1915    2.6089    0.8062 Cl  0  0  0  0  0  0  0  0  0  0  0  0
    1.5855   -1.8387   -0.9043 H   0  0  0  0  0  0  0  0  0  0  0  0
    2.6775   -1.3751    0.4218 H   0  0  0  0  0  0  0  0  0  0  0  0
   -2.7077   -1.8368    4.2323 H   0  0  0  0  0  0  0  0  0  0  0  0
   -3.0010   -0.1591    3.8198 H   0  0  0  0  0  0  0  0  0  0  0  0
   -3.2987   -3.1132    1.2368 H   0  0  0  0  0  0  0  0  0  0  0  0
   -5.7752   -3.3945    0.3507 H   0  0  0  0  0  0  0  0  0  0  0  0
   -7.4312   -1.8016    1.6408 H   0  0  0  0  0  0  0  0  0  0  0  0
   -1.3032    1.7808    0.9893 H   0  0  0  0  0  0  0  0  0  0  0  0
   -2.5718    1.3111    2.1029 H   0  0  0  0  0  0  0  0  0  0  0  0
   -4.9434    1.3505    0.5639 H   0  0  0  0  0  0  0  0  0  0  0  0
   -5.4733    0.4174   -1.9440 H   0  0  0  0  0  0  0  0  0  0  0  0
   -3.0312   -0.4960   -2.8654 H   0  0  0  0  0  0  0  0  0  0  0  0
    3.7428    0.8160    0.0350 H   0  0  0  0  0  0  0  0  0  0  0  0
    4.9712    0.1788   -3.4553 H   0  0  0  0  0  0  0  0  0  0  0  0
    6.8083    1.4518   -4.4279 H   0  0  0  0  0  0  0  0  0  0  0  0
    7.2192    3.7305   -0.8039 H   0  0  0  0  0  0  0  0  0  0  0  0
  1  2  2  0
  2  3  1  0
  3  4  1  0
  4  5  1  0
  5  6  2  0
  6  7  1  0
  7  8  2  0
  8  9  1  0
  9 10  1  0
 10 11  2  0
 11 12  1  0
 12 13  2  0
 13 14  1  0
  8 15  1  0
 15 16  1  0
 16 17  1  0
 17 18  2  0
 18 19  1  0
 19 20  2  0
 20 21  1  0
  2 22  1  0
 22 23  1  0
 23 24  2  0
 24 25  1  0
 25 26  2  0
 26 27  1  0
 26 28  1  0
 28 29  2  0
 29 30  1  0
 15  5  1  0
 21 17  1  0
 29 23  1  0
 14 10  1  0
  3 31  1  0
  3 32  1  0
  9 33  1  0
  9 34  1  0
 11 35  1  0
 12 36  1  0
 13 37  1  0
 16 38  1  0
 16 39  1  0
 18 40  1  0
 19 41  1  0
 20 42  1  0
 22 43  1  0
 24 44  1  0
 25 45  1  0
 28 46  1  0
M  END
$$$$
