
     RDKit          3D

 71 73  0  0  0  0  0  0  0  0999 V2000
   -6.6968    1.7630   -0.4063 C   0  0  0  0  0  0  0  0  0  0  0  0
   -6.5853    0.3477   -0.4658 O   0  0  0  0  0  0  0  0  0  0  0  0
   -5.3944   -0.2200   -0.0841 C   0  0  0  0  0  0  0  0  0  0  0  0
   -4.2834    0.5037    0.3688 C   0  0  0  0  0  0  0  0  0  0  0  0
   -3.1119   -0.1644    0.7366 C   0  0  0  0  0  0  0  0  0  0  0  0
   -1.9343    0.5617    1.2135 C   0  0  0  0  0  0  0  0  0  0  0  0
   -0.7999   -0.0844    1.5416 C   0  0  0  0  0  0  0  0  0  0  0  0
    0.4286    0.6105    2.0574 C   0  0  0  0  0  0  0  0  0  0  0  0
    1.4468    0.7786    1.0012 N   0  0  0  0  0  0  0  0  0  0  0  0
    1.1732    1.8303   -0.0052 C   0  0  0  0  0  0  0  0  0  0  0  0
    1.4052    3.2572    0.5146 C   0  0  0  0  0  0  0  0  0  0  0  0
    1.2884    4.2832   -0.5931 C   0  0  0  0  0  0  0  0  0  0  0  0
    2.4451    4.5904   -1.3336 C   0  0  0  0  0  0  0  0  0  0  0  0
    2.4035    5.5100   -2.3800 C   0  0  0  0  0  0  0  0  0  0  0  0
    1.2047    6.1351   -2.7051 C   0  0  0  0  0  0  0  0  0  0  0  0
    0.0487    5.8409   -1.9827 C   0  0  0  0  0  0  0  0  0  0  0  0
    0.0713    4.9130   -0.9272 C   0  0  0  0  0  0  0  0  0  0  0  0
   -1.1990    4.6531   -0.1665 C   0  0  0  0  0  0  0  0  0  0  0  0
    2.7124    0.1574    1.0841 C   0  0  0  0  0  0  0  0  0  0  0  0
    4.1093    0.7623    0.3647 S   0  0  0  0  0  0  0  0  0  0  0  0
    2.7052   -1.0011    1.8335 N   0  0  0  0  0  0  0  0  0  0  0  0
    3.8210   -1.8806    2.1707 C   0  0  0  0  0  0  0  0  0  0  0  0
    3.7987   -3.2018    1.3964 C   0  0  0  0  0  0  0  0  0  0  0  0
    4.1144   -3.0277   -0.0938 C   0  0  0  0  0  0  0  0  0  0  0  0
    4.0625   -4.2942   -0.8533 N   0  0  0  0  0  0  0  0  0  0  0  0
    5.1419   -5.2090   -0.4808 C   0  0  0  0  0  0  0  0  0  0  0  0
    4.1386   -4.0061   -2.2892 C   0  0  0  0  0  0  0  0  0  0  0  0
   -0.7649   -1.5758    1.4914 C   0  0  0  0  0  0  0  0  0  0  0  0
    0.2186   -2.2085    1.8690 O   0  0  0  0  0  0  0  0  0  0  0  0
   -1.8805   -2.2169    1.0246 N   0  0  0  0  0  0  0  0  0  0  0  0
   -3.0558   -1.5575    0.6460 C   0  0  0  0  0  0  0  0  0  0  0  0
   -4.1530   -2.2924    0.1970 C   0  0  0  0  0  0  0  0  0  0  0  0
   -5.3289   -1.6284   -0.1685 C   0  0  0  0  0  0  0  0  0  0  0  0
   -6.4665   -2.2554   -0.6157 O   0  0  0  0  0  0  0  0  0  0  0  0
   -6.4459   -3.6718   -0.7162 C   0  0  0  0  0  0  0  0  0  0  0  0
   -6.5899    2.1244    0.6221 H   0  0  0  0  0  0  0  0  0  0  0  0
   -7.6992    2.0344   -0.7500 H   0  0  0  0  0  0  0  0  0  0  0  0
   -5.9749    2.2451   -1.0742 H   0  0  0  0  0  0  0  0  0  0  0  0
   -4.3111    1.5851    0.4394 H   0  0  0  0  0  0  0  0  0  0  0  0
   -2.0000    1.6417    1.2826 H   0  0  0  0  0  0  0  0  0  0  0  0
    0.8344    0.0896    2.9310 H   0  0  0  0  0  0  0  0  0  0  0  0
    0.1742    1.6087    2.4315 H   0  0  0  0  0  0  0  0  0  0  0  0
    0.1401    1.7146   -0.3505 H   0  0  0  0  0  0  0  0  0  0  0  0
    1.7863    1.6449   -0.8947 H   0  0  0  0  0  0  0  0  0  0  0  0
    0.7010    3.4943    1.3191 H   0  0  0  0  0  0  0  0  0  0  0  0
    2.3943    3.3438    0.9799 H   0  0  0  0  0  0  0  0  0  0  0  0
    3.3925    4.1072   -1.0944 H   0  0  0  0  0  0  0  0  0  0  0  0
    3.3066    5.7344   -2.9405 H   0  0  0  0  0  0  0  0  0  0  0  0
    1.1687    6.8529   -3.5200 H   0  0  0  0  0  0  0  0  0  0  0  0
   -0.8781    6.3444   -2.2531 H   0  0  0  0  0  0  0  0  0  0  0  0
   -1.1223    5.0664    0.8436 H   0  0  0  0  0  0  0  0  0  0  0  0
   -2.0614    5.1195   -0.6548 H   0  0  0  0  0  0  0  0  0  0  0  0
   -1.4041    3.5814   -0.1102 H   0  0  0  0  0  0  0  0  0  0  0  0
    1.7999   -1.4623    1.9225 H   0  0  0  0  0  0  0  0  0  0  0  0
    3.7024   -2.1036    3.2375 H   0  0  0  0  0  0  0  0  0  0  0  0
    4.7825   -1.3735    2.0541 H   0  0  0  0  0  0  0  0  0  0  0  0
    2.8189   -3.6819    1.5126 H   0  0  0  0  0  0  0  0  0  0  0  0
    4.5391   -3.8622    1.8618 H   0  0  0  0  0  0  0  0  0  0  0  0
    5.0933   -2.5459   -0.2159 H   0  0  0  0  0  0  0  0  0  0  0  0
    3.3628   -2.3489   -0.5144 H   0  0  0  0  0  0  0  0  0  0  0  0
    5.0486   -5.5347    0.5602 H   0  0  0  0  0  0  0  0  0  0  0  0
    5.0943   -6.1218   -1.0851 H   0  0  0  0  0  0  0  0  0  0  0  0
    6.1317   -4.7592   -0.6179 H   0  0  0  0  0  0  0  0  0  0  0  0
    4.0612   -4.9309   -2.8714 H   0  0  0  0  0  0  0  0  0  0  0  0
    3.3002   -3.3732   -2.6018 H   0  0  0  0  0  0  0  0  0  0  0  0
    5.0742   -3.5022   -2.5625 H   0  0  0  0  0  0  0  0  0  0  0  0
   -1.8234   -3.2267    0.9851 H   0  0  0  0  0  0  0  0  0  0  0  0
   -4.0742   -3.3715    0.1425 H   0  0  0  0  0  0  0  0  0  0  0  0
   -6.2883   -4.1348    0.2637 H   0  0  0  0  0  0  0  0  0  0  0  0
   -5.6936   -4.0061   -1.4385 H   0  0  0  0  0  0  0  0  0  0  0  0
   -7.4242   -3.9956   -1.0831 H   0  0  0  0  0  0  0  0  0  0  0  0
  1  2  1  0
  2  3  1  0
  3  4  2  0
  4  5  1  0
  5  6  1  0
  6  7  2  0
  7  8  1  0
  8  9  1  0
  9 10  1  0
 10 11  1  0
 11 12  1  0
 12 13  2  0
 13 14  1  0
 14 15  2  0
 15 16  1  0
 16 17  2  0
 17 18  1  0
  9 19  1  0
 19 20  2  0
 19 21  1  0
 21 22  1  0
 22 23  1  0
 23 24  1  0
 24 25  1  0
 25 26  1  0
 25 27  1  0
  7 28  1  0
 28 29  2  0
 28 30  1  0
 30 31  1  0
 31 32  1  0
 32 33  2  0
 33 34  1  0
 34 35  1  0
 33  3  1  0
 31  5  2  0
 17 12  1  0
  1 36  1  0
  1 37  1  0
  1 38  1  0
  4 39  1  0
  6 40  1  0
  8 41  1  0
  8 42  1  0
 10 43  1  0
 10 44  1  0
 11 45  1  0
 11 46  1  0
 13 47  1  0
 14 48  1  0
 15 49  1  0
 16 50  1  0
 18 51  1  0
 18 52  1  0
 18 53  1  0
 21 54  1  0
 22 55  1  0
 22 56  1  0
 23 57  1  0
 23 58  1  0
 24 59  1  0
 24 60  1  0
 26 61  1  0
 26 62  1  0
 26 63  1  0
 27 64  1  0
 27 65  1  0
 27 66  1  0
 30 67  1  0
 32 68  1  0
 35 69  1  0
 35 70  1  0
 35 71  1  0
M  END
$$$$
