
     RDKit          3D

 42 44  0  0  0  0  0  0  0  0999 V2000
   -0.1214   -2.3288    1.0837 C   0  0  0  0  0  0  0  0  0  0  0  0
   -0.7799   -1.1066    0.5270 C   0  0  0  0  0  0  0  0  0  0  0  0
   -0.2296    0.0794    0.2156 C   0  0  0  0  0  0  0  0  0  0  0  0
    1.0340    0.6129    0.2195 N   0  0  0  0  0  0  0  0  0  0  0  0
    2.2496   -0.0140    0.4120 C   0  0  0  0  0  0  0  0  0  0  0  0
    2.4046   -1.2230    0.5561 O   0  0  0  0  0  0  0  0  0  0  0  0
    3.4107    0.9566    0.4773 C   0  0  0  0  0  0  0  0  0  0  0  0
    4.6117    0.4134   -0.1343 N   0  0  0  0  0  0  0  0  0  0  0  0
    5.5365   -0.4068    0.4555 C   0  0  0  0  0  0  0  0  0  0  0  0
    6.5368   -0.5952   -0.4712 C   0  0  0  0  0  0  0  0  0  0  0  0
    6.1328    0.1708   -1.5867 C   0  0  0  0  0  0  0  0  0  0  0  0
    6.8215    0.3469   -2.8534 N   0  0  0  0  0  4  0  0  0  0  0  0
    7.9158   -0.2325   -2.9627 O   0  0  0  0  0  0  0  0  0  0  0  0
    6.2906    1.0491   -3.7287 O   0  0  0  0  0  1  0  0  0  0  0  0
    4.9623    0.8028   -1.3798 N   0  0  0  0  0  0  0  0  0  0  0  0
   -1.3774    0.9630   -0.1809 C   0  0  0  0  0  0  0  0  0  0  0  0
   -1.2064    2.1433   -0.4571 O   0  0  0  0  0  0  0  0  0  0  0  0
   -2.5362    0.1933   -0.0742 N   0  0  0  0  0  0  0  0  0  0  0  0
   -3.8476    0.6939    0.1430 C   0  0  0  0  0  0  0  0  0  0  0  0
   -4.2152    1.9706   -0.3041 C   0  0  0  0  0  0  0  0  0  0  0  0
   -5.5077    2.4635   -0.0929 C   0  0  0  0  0  0  0  0  0  0  0  0
   -6.4527    1.6887    0.5734 C   0  0  0  0  0  0  0  0  0  0  0  0
   -6.1060    0.4217    1.0311 C   0  0  0  0  0  0  0  0  0  0  0  0
   -4.8138   -0.0693    0.8187 C   0  0  0  0  0  0  0  0  0  0  0  0
   -2.1749   -1.1303    0.3090 N   0  0  0  0  0  0  0  0  0  0  0  0
   -2.6932   -2.1627   -0.6109 C   0  0  0  0  0  0  0  0  0  0  0  0
    0.5859   -2.0760    1.8772 H   0  0  0  0  0  0  0  0  0  0  0  0
   -0.8612   -2.9911    1.5470 H   0  0  0  0  0  0  0  0  0  0  0  0
    0.3818   -2.8942    0.2938 H   0  0  0  0  0  0  0  0  0  0  0  0
    1.0383    1.5996   -0.0385 H   0  0  0  0  0  0  0  0  0  0  0  0
    3.6353    1.1697    1.5273 H   0  0  0  0  0  0  0  0  0  0  0  0
    3.1778    1.8968   -0.0303 H   0  0  0  0  0  0  0  0  0  0  0  0
    5.3969   -0.7867    1.4599 H   0  0  0  0  0  0  0  0  0  0  0  0
    7.4298   -1.1930   -0.3589 H   0  0  0  0  0  0  0  0  0  0  0  0
   -3.5126    2.6029   -0.8412 H   0  0  0  0  0  0  0  0  0  0  0  0
   -5.7730    3.4547   -0.4526 H   0  0  0  0  0  0  0  0  0  0  0  0
   -7.4552    2.0741    0.7390 H   0  0  0  0  0  0  0  0  0  0  0  0
   -6.8356   -0.1840    1.5631 H   0  0  0  0  0  0  0  0  0  0  0  0
   -4.5670   -1.0489    1.2195 H   0  0  0  0  0  0  0  0  0  0  0  0
   -2.5735   -3.1559   -0.1697 H   0  0  0  0  0  0  0  0  0  0  0  0
   -3.7570   -2.0291   -0.8236 H   0  0  0  0  0  0  0  0  0  0  0  0
   -2.1555   -2.1397   -1.5642 H   0  0  0  0  0  0  0  0  0  0  0  0
  1  2  1  0
  2  3  2  0
  3  4  1  0
  4  5  1  0
  5  6  2  0
  5  7  1  0
  7  8  1  0
  8  9  1  0
  9 10  2  0
 10 11  1  0
 11 12  1  0
 12 13  2  0
 12 14  1  0
 11 15  2  0
  3 16  1  0
 16 17  2  0
 16 18  1  0
 18 19  1  0
 19 20  2  0
 20 21  1  0
 21 22  2  0
 22 23  1  0
 23 24  2  0
 18 25  1  0
 25 26  1  0
 25  2  1  0
 15  8  1  0
 24 19  1  0
  1 27  1  0
  1 28  1  0
  1 29  1  0
  4 30  1  0
  7 31  1  0
  7 32  1  0
  9 33  1  0
 10 34  1  0
 20 35  1  0
 21 36  1  0
 22 37  1  0
 23 38  1  0
 24 39  1  0
 26 40  1  0
 26 41  1  0
 26 42  1  0
M  CHG  2  12   1  14  -1
M  END
$$$$
