
     RDKit          3D

 43 45  0  0  0  0  0  0  0  0999 V2000
   -7.0616    1.0587    2.0263 C   0  0  0  0  0  0  0  0  0  0  0  0
   -5.7438    1.0292    1.4159 N   0  0  0  0  0  0  0  0  0  0  0  0
   -5.2249    2.3120    0.9607 C   0  0  0  0  0  0  0  0  0  0  0  0
   -5.2458   -0.2082    1.0077 C   0  0  0  0  0  0  0  0  0  0  0  0
   -5.8891   -1.2535    1.0689 O   0  0  0  0  0  0  0  0  0  0  0  0
   -3.8601   -0.2892    0.4944 C   0  0  0  0  0  0  0  0  0  0  0  0
   -2.7888    0.1784    1.2594 C   0  0  0  0  0  0  0  0  0  0  0  0
   -1.4854    0.0636    0.7673 C   0  0  0  0  0  0  0  0  0  0  0  0
   -1.2400   -0.5264   -0.4816 C   0  0  0  0  0  0  0  0  0  0  0  0
    0.1009   -0.5993   -0.8999 N   0  0  0  0  0  0  0  0  0  0  0  0
    0.6080   -1.1081   -2.0828 C   0  0  0  0  0  0  0  0  0  0  0  0
   -0.0558   -1.5826   -2.9981 O   0  0  0  0  0  0  0  0  0  0  0  0
    2.0565   -1.0205   -2.1494 C   0  0  0  0  0  0  0  0  0  0  0  0
    2.9448   -1.4066   -3.1323 C   0  0  0  0  0  0  0  0  0  0  0  0
    4.2393   -1.0807   -2.6613 C   0  0  0  0  0  0  0  0  0  0  0  0
    4.0806   -0.5109   -1.4125 C   0  0  0  0  0  0  0  0  0  0  0  0
    4.9996    0.0312   -0.4126 C   0  0  0  0  0  0  0  0  0  0  0  0
    4.5323    0.5368    0.8117 C   0  0  0  0  0  0  0  0  0  0  0  0
    5.4179    1.0539    1.7638 C   0  0  0  0  0  0  0  0  0  0  0  0
    6.7840    1.0704    1.5005 C   0  0  0  0  0  0  0  0  0  0  0  0
    7.8743    1.7057    2.6687 Cl  0  0  0  0  0  0  0  0  0  0  0  0
    7.2708    0.5746    0.2947 C   0  0  0  0  0  0  0  0  0  0  0  0
    6.3824    0.0582   -0.6556 C   0  0  0  0  0  0  0  0  0  0  0  0
    2.7489   -0.4729   -1.0996 O   0  0  0  0  0  0  0  0  0  0  0  0
   -2.3186   -1.0113   -1.2264 C   0  0  0  0  0  0  0  0  0  0  0  0
   -3.6254   -0.9027   -0.7370 C   0  0  0  0  0  0  0  0  0  0  0  0
   -7.8056    1.2537    1.2483 H   0  0  0  0  0  0  0  0  0  0  0  0
   -7.0933    1.8544    2.7763 H   0  0  0  0  0  0  0  0  0  0  0  0
   -7.2958    0.1075    2.5127 H   0  0  0  0  0  0  0  0  0  0  0  0
   -5.0300    2.9393    1.8351 H   0  0  0  0  0  0  0  0  0  0  0  0
   -5.9831    2.7913    0.3334 H   0  0  0  0  0  0  0  0  0  0  0  0
   -4.3136    2.2195    0.3692 H   0  0  0  0  0  0  0  0  0  0  0  0
   -2.9643    0.6191    2.2373 H   0  0  0  0  0  0  0  0  0  0  0  0
   -0.6657    0.4352    1.3772 H   0  0  0  0  0  0  0  0  0  0  0  0
    0.8039   -0.2360   -0.2659 H   0  0  0  0  0  0  0  0  0  0  0  0
    2.6769   -1.8687   -4.0733 H   0  0  0  0  0  0  0  0  0  0  0  0
    5.1746   -1.2462   -3.1772 H   0  0  0  0  0  0  0  0  0  0  0  0
    3.4693    0.5333    1.0409 H   0  0  0  0  0  0  0  0  0  0  0  0
    5.0334    1.4394    2.7044 H   0  0  0  0  0  0  0  0  0  0  0  0
    8.3373    0.5856    0.0853 H   0  0  0  0  0  0  0  0  0  0  0  0
    6.7907   -0.3219   -1.5890 H   0  0  0  0  0  0  0  0  0  0  0  0
   -2.1803   -1.4925   -2.1899 H   0  0  0  0  0  0  0  0  0  0  0  0
   -4.4556   -1.3011   -1.3161 H   0  0  0  0  0  0  0  0  0  0  0  0
  1  2  1  0
  2  3  1  0
  2  4  1  0
  4  5  2  0
  4  6  1  0
  6  7  2  0
  7  8  1  0
  8  9  2  0
  9 10  1  0
 10 11  1  0
 11 12  2  0
 11 13  1  0
 13 14  2  0
 14 15  1  0
 15 16  2  0
 16 17  1  0
 17 18  2  0
 18 19  1  0
 19 20  2  0
 20 21  1  0
 20 22  1  0
 22 23  2  0
 16 24  1  0
  9 25  1  0
 25 26  2  0
 26  6  1  0
 24 13  1  0
 23 17  1  0
  1 27  1  0
  1 28  1  0
  1 29  1  0
  3 30  1  0
  3 31  1  0
  3 32  1  0
  7 33  1  0
  8 34  1  0
 10 35  1  0
 14 36  1  0
 15 37  1  0
 18 38  1  0
 19 39  1  0
 22 40  1  0
 23 41  1  0
 25 42  1  0
 26 43  1  0
M  END
$$$$
