
     RDKit          3D

 37 40  0  0  0  0  0  0  0  0999 V2000
   -3.2084    0.9581    2.4988 C   0  0  0  0  0  0  0  0  0  0  0  0
   -3.7467    0.9427    1.0793 C   0  0  0  0  0  0  0  0  0  0  0  0
   -2.9998   -0.0210    0.3402 O   0  0  0  0  0  0  0  0  0  0  0  0
   -3.2601   -0.1329   -1.0024 C   0  0  0  0  0  0  0  0  0  0  0  0
   -4.2974    0.5259   -1.6700 C   0  0  0  0  0  0  0  0  0  0  0  0
   -4.4881    0.3365   -3.0419 C   0  0  0  0  0  0  0  0  0  0  0  0
   -3.6489   -0.5137   -3.7573 C   0  0  0  0  0  0  0  0  0  0  0  0
   -2.6134   -1.1786   -3.1031 C   0  0  0  0  0  0  0  0  0  0  0  0
   -2.4109   -0.9917   -1.7288 C   0  0  0  0  0  0  0  0  0  0  0  0
   -1.3039   -1.7122   -1.0847 C   0  0  0  0  0  0  0  0  0  0  0  0
   -0.1418   -1.1606   -0.7092 C   0  0  0  0  0  0  0  0  0  0  0  0
    0.3548    0.5097   -0.9207 S   0  0  0  0  0  0  0  0  0  0  0  0
    1.8383    0.1574   -0.1377 C   0  0  0  0  0  0  0  0  0  0  0  0
    2.9034    0.8359    0.1779 N   0  0  0  0  0  0  0  0  0  0  0  0
    3.6810   -0.1424    0.7841 C   0  0  0  0  0  0  0  0  0  0  0  0
    5.1020    0.1683    1.3580 C   0  0  0  0  0  0  0  0  0  0  0  0
    5.7226    1.4028    1.3300 C   0  0  0  0  0  0  0  0  0  0  0  0
    6.9846    1.2392    1.9511 C   0  0  0  0  0  0  0  0  0  0  0  0
    7.0579   -0.0828    2.3199 C   0  0  0  0  0  0  0  0  0  0  0  0
    5.9242   -0.7397    1.9658 O   0  0  0  0  0  0  0  0  0  0  0  0
    3.1235   -1.3693    0.8381 N   0  0  0  0  0  0  0  0  0  0  0  0
    1.9446   -1.1320    0.2400 N   0  0  0  0  0  0  0  0  0  0  0  0
    0.8993   -1.9890   -0.0289 C   0  0  0  0  0  0  0  0  0  0  0  0
    0.8923   -3.1737    0.2519 O   0  0  0  0  0  0  0  0  0  0  0  0
   -3.3007   -0.0323    2.9569 H   0  0  0  0  0  0  0  0  0  0  0  0
   -2.1434    1.2134    2.5041 H   0  0  0  0  0  0  0  0  0  0  0  0
   -3.7489    1.6835    3.1132 H   0  0  0  0  0  0  0  0  0  0  0  0
   -3.6257    1.9402    0.6413 H   0  0  0  0  0  0  0  0  0  0  0  0
   -4.8064    0.6646    1.1006 H   0  0  0  0  0  0  0  0  0  0  0  0
   -4.9808    1.1904   -1.1522 H   0  0  0  0  0  0  0  0  0  0  0  0
   -5.2977    0.8533   -3.5521 H   0  0  0  0  0  0  0  0  0  0  0  0
   -3.8018   -0.6597   -4.8237 H   0  0  0  0  0  0  0  0  0  0  0  0
   -1.9651   -1.8407   -3.6727 H   0  0  0  0  0  0  0  0  0  0  0  0
   -1.4974   -2.7678   -0.9012 H   0  0  0  0  0  0  0  0  0  0  0  0
    5.3053    2.3073    0.9090 H   0  0  0  0  0  0  0  0  0  0  0  0
    7.7456    1.9901    2.1102 H   0  0  0  0  0  0  0  0  0  0  0  0
    7.8078   -0.6830    2.8164 H   0  0  0  0  0  0  0  0  0  0  0  0
  1  2  1  0
  2  3  1  0
  3  4  1  0
  4  5  2  0
  5  6  1  0
  6  7  2  0
  7  8  1  0
  8  9  2  0
  9 10  1  0
 10 11  2  3
 11 12  1  0
 12 13  1  0
 13 14  2  0
 14 15  1  0
 15 16  1  0
 16 17  2  0
 17 18  1  0
 18 19  2  0
 19 20  1  0
 15 21  2  0
 21 22  1  0
 22 23  1  0
 23 24  2  0
  9  4  1  0
 23 11  1  0
 22 13  1  0
 20 16  1  0
  1 25  1  0
  1 26  1  0
  1 27  1  0
  2 28  1  0
  2 29  1  0
  5 30  1  0
  6 31  1  0
  7 32  1  0
  8 33  1  0
 10 34  1  0
 17 35  1  0
 18 36  1  0
 19 37  1  0
M  END
$$$$
