
     RDKit          3D

 39 40  0  0  0  0  0  0  0  0999 V2000
    0.6347    1.2654   -0.6225 O   0  0  0  0  0  0  0  0  0  0  0  0
   -0.2680    0.6853   -0.0210 C   0  0  0  0  0  0  0  0  0  0  0  0
   -1.6533    0.8320   -0.5542 C   0  0  0  0  0  0  0  0  0  0  0  0
   -2.7478    0.2913    0.0014 C   0  0  0  0  0  0  0  0  0  0  0  0
   -4.0997    0.4649   -0.5505 C   0  0  0  0  0  0  0  0  0  0  0  0
   -4.3555    0.4302   -1.9292 C   0  0  0  0  0  0  0  0  0  0  0  0
   -5.6590    0.5691   -2.4165 C   0  0  0  0  0  0  0  0  0  0  0  0
   -6.7100    0.7321   -1.5214 C   0  0  0  0  0  0  0  0  0  0  0  0
   -7.9958    0.8703   -1.9510 O   0  0  0  0  0  0  0  0  0  0  0  0
   -6.4794    0.7534   -0.1521 C   0  0  0  0  0  0  0  0  0  0  0  0
   -5.1771    0.6141    0.3335 C   0  0  0  0  0  0  0  0  0  0  0  0
   -0.0372   -0.1376    1.2219 C   0  0  0  0  0  0  0  0  0  0  0  0
    1.4063   -0.3230    1.6152 C   0  0  0  0  0  0  0  0  0  0  0  0
    1.8648   -1.4458    1.8215 O   0  0  0  0  0  0  0  0  0  0  0  0
    2.2203    0.9001    1.8724 C   0  0  0  0  0  0  0  0  0  0  0  0
    3.5125    1.0356    1.5392 C   0  0  0  0  0  0  0  0  0  0  0  0
    4.3202    0.0476    0.8222 C   0  0  0  0  0  0  0  0  0  0  0  0
    4.1060   -0.1880   -0.5415 C   0  0  0  0  0  0  0  0  0  0  0  0
    4.8918   -1.1178   -1.2244 C   0  0  0  0  0  0  0  0  0  0  0  0
    5.8869   -1.8092   -0.5438 C   0  0  0  0  0  0  0  0  0  0  0  0
    6.6296   -2.7110   -1.2475 O   0  0  0  0  0  0  0  0  0  0  0  0
    6.1138   -1.5849    0.8110 C   0  0  0  0  0  0  0  0  0  0  0  0
    5.3292   -0.6516    1.4938 C   0  0  0  0  0  0  0  0  0  0  0  0
   -1.7097    1.4427   -1.4512 H   0  0  0  0  0  0  0  0  0  0  0  0
   -2.6990   -0.2975    0.9130 H   0  0  0  0  0  0  0  0  0  0  0  0
   -3.5467    0.2831   -2.6414 H   0  0  0  0  0  0  0  0  0  0  0  0
   -5.8306    0.5411   -3.4880 H   0  0  0  0  0  0  0  0  0  0  0  0
   -8.0055    0.8369   -2.9217 H   0  0  0  0  0  0  0  0  0  0  0  0
   -7.3106    0.8762    0.5366 H   0  0  0  0  0  0  0  0  0  0  0  0
   -5.0157    0.6319    1.4088 H   0  0  0  0  0  0  0  0  0  0  0  0
   -0.5609    0.3209    2.0675 H   0  0  0  0  0  0  0  0  0  0  0  0
   -0.4529   -1.1374    1.0487 H   0  0  0  0  0  0  0  0  0  0  0  0
    1.6931    1.7280    2.3325 H   0  0  0  0  0  0  0  0  0  0  0  0
    4.0295    1.9640    1.7691 H   0  0  0  0  0  0  0  0  0  0  0  0
    3.3269    0.3488   -1.0788 H   0  0  0  0  0  0  0  0  0  0  0  0
    4.7237   -1.3037   -2.2809 H   0  0  0  0  0  0  0  0  0  0  0  0
    7.2392   -3.1506   -0.6330 H   0  0  0  0  0  0  0  0  0  0  0  0
    6.8859   -2.1233    1.3504 H   0  0  0  0  0  0  0  0  0  0  0  0
    5.5001   -0.4838    2.5541 H   0  0  0  0  0  0  0  0  0  0  0  0
  1  2  2  0
  2  3  1  0
  3  4  2  3
  4  5  1  0
  5  6  2  0
  6  7  1  0
  7  8  2  0
  8  9  1  0
  8 10  1  0
 10 11  2  0
  2 12  1  0
 12 13  1  0
 13 14  2  0
 13 15  1  0
 15 16  2  3
 16 17  1  0
 17 18  2  0
 18 19  1  0
 19 20  2  0
 20 21  1  0
 20 22  1  0
 22 23  2  0
 11  5  1  0
 23 17  1  0
  3 24  1  0
  4 25  1  0
  6 26  1  0
  7 27  1  0
  9 28  1  0
 10 29  1  0
 11 30  1  0
 12 31  1  0
 12 32  1  0
 15 33  1  0
 16 34  1  0
 18 35  1  0
 19 36  1  0
 21 37  1  0
 22 38  1  0
 23 39  1  0
M  END
$$$$
