
     RDKit          3D

 57 61  0  0  0  0  0  0  0  0999 V2000
   -6.3603    0.4377   -2.4357 C   0  0  0  0  0  0  0  0  0  0  0  0
   -5.5729    0.1132   -1.2007 C   0  0  0  0  0  0  0  0  0  0  0  0
   -6.1548    0.2473    0.0647 C   0  0  0  0  0  0  0  0  0  0  0  0
   -5.4144   -0.0218    1.2180 C   0  0  0  0  0  0  0  0  0  0  0  0
   -4.0752   -0.4246    1.1261 C   0  0  0  0  0  0  0  0  0  0  0  0
   -3.2720   -0.7026    2.3715 C   0  0  0  0  0  0  0  0  0  0  0  0
   -2.7689    0.5187    2.9641 N   0  0  0  0  0  0  0  0  0  0  0  0
   -3.3975    1.0906    4.0217 N   0  0  0  0  0  0  0  0  0  0  0  0
   -2.7069    2.1781    4.3651 N   0  0  0  0  0  0  0  0  0  0  0  0
   -1.6402    2.2613    3.5246 C   0  0  0  0  0  0  0  0  0  0  0  0
   -0.5785    3.2269    3.4431 C   0  0  0  0  0  0  0  0  0  0  0  0
   -0.4384    4.2054    4.1675 O   0  0  0  0  0  0  0  0  0  0  0  0
    0.3164    2.9317    2.4218 N   0  0  0  0  0  0  0  0  0  0  0  0
    0.2043    1.8315    1.5735 C   0  0  0  0  0  0  0  0  0  0  0  0
    1.3209    1.7125    0.5483 C   0  0  0  0  0  0  0  0  0  0  0  0
    0.9555    0.7723   -0.6035 C   0  0  0  0  0  0  0  0  0  0  0  0
    2.0852    0.6848   -1.6276 C   0  0  0  0  0  0  0  0  0  0  0  0
    3.4147    0.6495   -0.9739 N   0  0  0  0  0  0  0  0  0  0  0  0
    4.7286    0.1575   -1.9362 S   0  0  0  0  0  6  0  0  0  0  0  0
    4.5451    0.7236   -3.2564 O   0  0  0  0  0  0  0  0  0  0  0  0
    5.9453    0.3864   -1.1856 O   0  0  0  0  0  0  0  0  0  0  0  0
    4.5037   -1.6047   -2.0642 C   0  0  0  0  0  0  0  0  0  0  0  0
    5.0535   -2.4420   -1.0878 C   0  0  0  0  0  0  0  0  0  0  0  0
    4.8977   -3.8235   -1.1997 C   0  0  0  0  0  0  0  0  0  0  0  0
    4.2112   -4.3628   -2.2890 C   0  0  0  0  0  0  0  0  0  0  0  0
    3.6872   -3.5254   -3.2754 C   0  0  0  0  0  0  0  0  0  0  0  0
    3.8392   -2.1428   -3.1707 C   0  0  0  0  0  0  0  0  0  0  0  0
    3.4064    0.2350    0.4390 C   0  0  0  0  0  0  0  0  0  0  0  0
    2.6215    1.2695    1.2443 C   0  0  0  0  0  0  0  0  0  0  0  0
   -0.7437    0.9389    1.6556 N   0  0  0  0  0  0  0  0  0  0  0  0
   -1.6400    1.2135    2.6355 C   0  0  0  0  0  0  0  0  0  0  0  0
   -3.4875   -0.5354   -0.1416 C   0  0  0  0  0  0  0  0  0  0  0  0
   -4.2296   -0.2663   -1.2940 C   0  0  0  0  0  0  0  0  0  0  0  0
   -6.2707    1.5038   -2.6671 H   0  0  0  0  0  0  0  0  0  0  0  0
   -6.0005   -0.1419   -3.2925 H   0  0  0  0  0  0  0  0  0  0  0  0
   -7.4189    0.1915   -2.2994 H   0  0  0  0  0  0  0  0  0  0  0  0
   -7.1901    0.5675    0.1618 H   0  0  0  0  0  0  0  0  0  0  0  0
   -5.8887    0.0967    2.1911 H   0  0  0  0  0  0  0  0  0  0  0  0
   -2.4141   -1.3499    2.1553 H   0  0  0  0  0  0  0  0  0  0  0  0
   -3.8837   -1.2230    3.1180 H   0  0  0  0  0  0  0  0  0  0  0  0
    1.0734    3.5923    2.3196 H   0  0  0  0  0  0  0  0  0  0  0  0
    1.4810    2.7165    0.1302 H   0  0  0  0  0  0  0  0  0  0  0  0
    0.0361    1.1061   -1.0999 H   0  0  0  0  0  0  0  0  0  0  0  0
    0.7416   -0.2329   -0.2162 H   0  0  0  0  0  0  0  0  0  0  0  0
    1.9239   -0.1967   -2.2539 H   0  0  0  0  0  0  0  0  0  0  0  0
    2.0519    1.5706   -2.2725 H   0  0  0  0  0  0  0  0  0  0  0  0
    5.6091   -2.0292   -0.2488 H   0  0  0  0  0  0  0  0  0  0  0  0
    5.3216   -4.4824   -0.4454 H   0  0  0  0  0  0  0  0  0  0  0  0
    4.0975   -5.4410   -2.3775 H   0  0  0  0  0  0  0  0  0  0  0  0
    3.1705   -3.9528   -4.1316 H   0  0  0  0  0  0  0  0  0  0  0  0
    3.4461   -1.4972   -3.9530 H   0  0  0  0  0  0  0  0  0  0  0  0
    4.4203    0.1781    0.8469 H   0  0  0  0  0  0  0  0  0  0  0  0
    2.9539   -0.7581    0.5384 H   0  0  0  0  0  0  0  0  0  0  0  0
    2.4292    0.8638    2.2454 H   0  0  0  0  0  0  0  0  0  0  0  0
    3.2493    2.1581    1.3947 H   0  0  0  0  0  0  0  0  0  0  0  0
   -2.4425   -0.8222   -0.2409 H   0  0  0  0  0  0  0  0  0  0  0  0
   -3.7510   -0.3518   -2.2670 H   0  0  0  0  0  0  0  0  0  0  0  0
  1  2  1  0
  2  3  2  0
  3  4  1  0
  4  5  2  0
  5  6  1  0
  6  7  1  0
  7  8  1  0
  8  9  2  0
  9 10  1  0
 10 11  1  0
 11 12  2  0
 11 13  1  0
 13 14  1  0
 14 15  1  0
 15 16  1  0
 16 17  1  0
 17 18  1  0
 18 19  1  0
 19 20  2  0
 19 21  2  0
 19 22  1  0
 22 23  2  0
 23 24  1  0
 24 25  2  0
 25 26  1  0
 26 27  2  0
 18 28  1  0
 28 29  1  0
 14 30  2  0
 30 31  1  0
  5 32  1  0
 32 33  2  0
 33  2  1  0
 31  7  1  0
 31 10  2  0
 29 15  1  0
 27 22  1  0
  1 34  1  0
  1 35  1  0
  1 36  1  0
  3 37  1  0
  4 38  1  0
  6 39  1  0
  6 40  1  0
 13 41  1  0
 15 42  1  0
 16 43  1  0
 16 44  1  0
 17 45  1  0
 17 46  1  0
 23 47  1  0
 24 48  1  0
 25 49  1  0
 26 50  1  0
 27 51  1  0
 28 52  1  0
 28 53  1  0
 29 54  1  0
 29 55  1  0
 32 56  1  0
 33 57  1  0
M  END
$$$$
