
     RDKit          3D

 42 41  0  0  0  0  0  0  0  0999 V2000
   -4.4856   -1.0045    1.0989 C   0  0  0  0  0  0  0  0  0  0  0  0
   -4.0757   -0.4570   -0.2404 C   0  0  0  0  0  0  0  0  0  0  0  0
   -4.9959   -0.8344   -1.3720 C   0  0  0  0  0  0  0  0  0  0  0  0
   -2.9837    0.2992   -0.4662 C   0  0  0  0  0  0  0  0  0  0  0  0
   -1.9826    0.7929    0.5441 C   0  0  0  0  0  0  0  0  0  0  0  0
   -0.6856   -0.0203    0.4883 C   0  0  0  0  0  0  0  0  0  0  0  0
    0.3515    0.4856    1.4694 C   0  0  0  0  0  0  0  0  0  0  0  0
    0.2073   -0.0369    2.8758 C   0  0  0  0  0  0  0  0  0  0  0  0
    1.3652    1.3135    1.1472 C   0  0  0  0  0  0  0  0  0  0  0  0
    1.6483    1.9408   -0.1932 C   0  0  0  0  0  0  0  0  0  0  0  0
    2.9119    1.3805   -0.8631 C   0  0  0  0  0  0  0  0  0  0  0  0
    2.7392   -0.0110   -1.4408 C   0  0  0  0  0  0  0  0  0  0  0  0
    2.0682   -0.0633   -2.7904 C   0  0  0  0  0  0  0  0  0  0  0  0
    3.1559   -1.1472   -0.8460 C   0  0  0  0  0  0  0  0  0  0  0  0
    3.8136   -1.3032    0.4868 C   0  0  0  0  0  0  0  0  0  0  0  0
    5.1110   -1.8403    0.2785 O   0  0  0  0  0  0  0  0  0  0  0  0
   -3.7414   -0.8392    1.8814 H   0  0  0  0  0  0  0  0  0  0  0  0
   -5.4244   -0.5437    1.4225 H   0  0  0  0  0  0  0  0  0  0  0  0
   -4.6385   -2.0871    1.0315 H   0  0  0  0  0  0  0  0  0  0  0  0
   -5.0347   -1.9229   -1.4830 H   0  0  0  0  0  0  0  0  0  0  0  0
   -6.0085   -0.4677   -1.1743 H   0  0  0  0  0  0  0  0  0  0  0  0
   -4.6717   -0.4139   -2.3298 H   0  0  0  0  0  0  0  0  0  0  0  0
   -2.7782    0.6231   -1.4866 H   0  0  0  0  0  0  0  0  0  0  0  0
   -1.7707    1.8465    0.3201 H   0  0  0  0  0  0  0  0  0  0  0  0
   -2.3993    0.7865    1.5561 H   0  0  0  0  0  0  0  0  0  0  0  0
   -0.8958   -1.0764    0.7048 H   0  0  0  0  0  0  0  0  0  0  0  0
   -0.2886   -0.0160   -0.5330 H   0  0  0  0  0  0  0  0  0  0  0  0
   -0.7572    0.2607    3.2988 H   0  0  0  0  0  0  0  0  0  0  0  0
    0.2688   -1.1300    2.8824 H   0  0  0  0  0  0  0  0  0  0  0  0
    0.9906    0.3418    3.5410 H   0  0  0  0  0  0  0  0  0  0  0  0
    2.0698    1.5989    1.9284 H   0  0  0  0  0  0  0  0  0  0  0  0
    1.7985    3.0144   -0.0206 H   0  0  0  0  0  0  0  0  0  0  0  0
    0.7890    1.8726   -0.8678 H   0  0  0  0  0  0  0  0  0  0  0  0
    3.7542    1.4165   -0.1627 H   0  0  0  0  0  0  0  0  0  0  0  0
    3.2010    2.0554   -1.6798 H   0  0  0  0  0  0  0  0  0  0  0  0
    2.6459    0.5097   -3.5231 H   0  0  0  0  0  0  0  0  0  0  0  0
    1.9772   -1.0868   -3.1693 H   0  0  0  0  0  0  0  0  0  0  0  0
    1.0597    0.3580   -2.7364 H   0  0  0  0  0  0  0  0  0  0  0  0
    2.9884   -2.0952   -1.3566 H   0  0  0  0  0  0  0  0  0  0  0  0
    3.2447   -2.0059    1.1031 H   0  0  0  0  0  0  0  0  0  0  0  0
    3.9120   -0.3718    1.0474 H   0  0  0  0  0  0  0  0  0  0  0  0
    5.5462   -1.2623   -0.3713 H   0  0  0  0  0  0  0  0  0  0  0  0
  1  2  1  0
  2  3  1  0
  2  4  2  3
  4  5  1  0
  5  6  1  0
  6  7  1  0
  7  8  1  0
  7  9  2  3
  9 10  1  0
 10 11  1  0
 11 12  1  0
 12 13  1  0
 12 14  2  3
 14 15  1  0
 15 16  1  0
  1 17  1  0
  1 18  1  0
  1 19  1  0
  3 20  1  0
  3 21  1  0
  3 22  1  0
  4 23  1  0
  5 24  1  0
  5 25  1  0
  6 26  1  0
  6 27  1  0
  8 28  1  0
  8 29  1  0
  8 30  1  0
  9 31  1  0
 10 32  1  0
 10 33  1  0
 11 34  1  0
 11 35  1  0
 13 36  1  0
 13 37  1  0
 13 38  1  0
 14 39  1  0
 15 40  1  0
 15 41  1  0
 16 42  1  0
M  END
$$$$
