
     RDKit          3D

 38 40  0  0  0  0  0  0  0  0999 V2000
   -0.4125    0.7790   -2.7598 C   0  0  0  0  0  0  0  0  0  0  0  0
   -0.6814    0.2521   -1.3785 C   0  0  0  0  0  0  0  0  0  0  0  0
   -1.4045   -0.9417   -1.2355 C   0  0  0  0  0  0  0  0  0  0  0  0
   -1.6825   -1.4516    0.0301 C   0  0  0  0  0  0  0  0  0  0  0  0
   -2.3811   -2.6273    0.0816 O   0  0  0  0  0  0  0  0  0  0  0  0
   -1.2610   -0.7833    1.1829 C   0  0  0  0  0  0  0  0  0  0  0  0
   -1.6039   -1.4319    2.8079 S   0  0  0  0  0  0  0  0  0  0  0  0
   -3.1997   -0.7917    3.1104 C   0  0  0  0  0  0  0  0  0  0  0  0
   -3.7024    0.3347    2.5167 N   0  0  0  0  0  0  0  0  0  0  0  0
   -4.9052    0.4319    3.0319 C   0  0  0  0  0  0  0  0  0  0  0  0
   -5.1122   -0.5971    3.8941 N   0  0  0  0  0  0  0  0  0  0  0  0
   -4.0392   -1.4012    3.9551 N   0  0  0  0  0  0  0  0  0  0  0  0
   -0.5349    0.4038    1.0467 C   0  0  0  0  0  0  0  0  0  0  0  0
   -0.2393    0.9177   -0.2215 C   0  0  0  0  0  0  0  0  0  0  0  0
    0.5257    2.1152   -0.3343 N   0  0  0  0  0  0  0  0  0  0  0  0
    2.1075    2.1781    0.2457 S   0  0  0  0  0  6  0  0  0  0  0  0
    2.6807    3.3944   -0.2924 O   0  0  0  0  0  0  0  0  0  0  0  0
    2.1201    1.9114    1.6675 O   0  0  0  0  0  0  0  0  0  0  0  0
    2.8998    0.8096   -0.5741 C   0  0  0  0  0  0  0  0  0  0  0  0
    2.9502   -0.4400    0.0537 C   0  0  0  0  0  0  0  0  0  0  0  0
    3.5821   -1.5072   -0.5876 C   0  0  0  0  0  0  0  0  0  0  0  0
    4.1716   -1.3151   -1.8378 C   0  0  0  0  0  0  0  0  0  0  0  0
    4.9488   -2.6322   -2.6259 Cl  0  0  0  0  0  0  0  0  0  0  0  0
    4.1420   -0.0622   -2.4524 C   0  0  0  0  0  0  0  0  0  0  0  0
    3.5096    1.0089   -1.8176 C   0  0  0  0  0  0  0  0  0  0  0  0
   -0.7941    0.1016   -3.5316 H   0  0  0  0  0  0  0  0  0  0  0  0
   -0.9047    1.7471   -2.8972 H   0  0  0  0  0  0  0  0  0  0  0  0
    0.6627    0.8900   -2.9272 H   0  0  0  0  0  0  0  0  0  0  0  0
   -1.7582   -1.4855   -2.1088 H   0  0  0  0  0  0  0  0  0  0  0  0
   -2.5083   -2.8476    1.0232 H   0  0  0  0  0  0  0  0  0  0  0  0
   -5.6405    1.1964    2.8261 H   0  0  0  0  0  0  0  0  0  0  0  0
   -5.9300   -0.8114    4.4545 H   0  0  0  0  0  0  0  0  0  0  0  0
   -0.2159    0.9414    1.9372 H   0  0  0  0  0  0  0  0  0  0  0  0
    0.3810    2.7134   -1.1447 H   0  0  0  0  0  0  0  0  0  0  0  0
    2.5010   -0.5905    1.0334 H   0  0  0  0  0  0  0  0  0  0  0  0
    3.6151   -2.4819   -0.1068 H   0  0  0  0  0  0  0  0  0  0  0  0
    4.6141    0.0859   -3.4206 H   0  0  0  0  0  0  0  0  0  0  0  0
    3.4994    1.9869   -2.2940 H   0  0  0  0  0  0  0  0  0  0  0  0
  1  2  1  0
  2  3  2  0
  3  4  1  0
  4  5  1  0
  4  6  2  0
  6  7  1  0
  7  8  1  0
  8  9  1  0
  9 10  2  0
 10 11  1  0
 11 12  1  0
  6 13  1  0
 13 14  2  0
 14 15  1  0
 15 16  1  0
 16 17  2  0
 16 18  2  0
 16 19  1  0
 19 20  2  0
 20 21  1  0
 21 22  2  0
 22 23  1  0
 22 24  1  0
 24 25  2  0
 14  2  1  0
 25 19  1  0
 12  8  2  0
  1 26  1  0
  1 27  1  0
  1 28  1  0
  3 29  1  0
  5 30  1  0
 10 31  1  0
 11 32  1  0
 13 33  1  0
 15 34  1  0
 20 35  1  0
 21 36  1  0
 24 37  1  0
 25 38  1  0
M  END
$$$$
