
     RDKit          3D

 61 67  0  0  0  0  0  0  0  0999 V2000
    2.3247    0.2911   -2.9071 O   0  0  0  0  0  0  0  0  0  0  0  0
    2.3688    0.4007   -1.6850 C   0  0  0  0  0  0  0  0  0  0  0  0
    3.6928    0.2816   -1.0393 C   0  0  0  0  0  0  0  0  0  0  0  0
    4.1953    1.3410   -0.2530 C   0  0  0  0  0  0  0  0  0  0  0  0
    5.4565    1.2374    0.3400 C   0  0  0  0  0  0  0  0  0  0  0  0
    6.1764    0.0824    0.1133 C   0  0  0  0  0  0  0  0  0  0  0  0
    5.6898   -0.9394   -0.6714 C   0  0  0  0  0  0  0  0  0  0  0  0
    4.4522   -0.8705   -1.2720 C   0  0  0  0  0  0  0  0  0  0  0  0
    6.5625   -1.9778   -0.7680 O   0  0  0  0  0  0  0  0  0  0  0  0
    7.6609   -1.4876    0.0288 C   0  0  0  0  0  0  0  0  0  0  0  0
    7.4145   -0.1881    0.6063 O   0  0  0  0  0  0  0  0  0  0  0  0
    1.2465    0.6470   -0.8865 N   0  0  0  0  0  0  0  0  0  0  0  0
    1.1640    0.2777    0.5220 C   0  0  0  0  0  0  0  0  0  0  0  0
    0.3806   -1.0215    0.6873 C   0  0  0  0  0  0  0  0  0  0  0  0
   -0.9918   -1.0751   -0.0495 C   0  0  0  0  0  0  0  0  0  0  0  0
   -0.8253   -0.5030   -1.4854 C   0  0  0  0  0  0  0  0  0  0  0  0
   -0.0381    0.7974   -1.5573 C   0  0  0  0  0  0  0  0  0  0  0  0
   -1.2588   -2.4941   -0.3133 O   0  0  0  0  0  0  0  0  0  0  0  0
   -1.7518   -3.2556    0.7036 C   0  0  0  0  0  0  0  0  0  0  0  0
   -1.7020   -4.6381    0.5194 C   0  0  0  0  0  0  0  0  0  0  0  0
   -2.1669   -5.4926    1.5207 C   0  0  0  0  0  0  0  0  0  0  0  0
   -2.6815   -4.9570    2.6974 C   0  0  0  0  0  0  0  0  0  0  0  0
   -3.1209   -5.7800    3.6578 F   0  0  0  0  0  0  0  0  0  0  0  0
   -2.7497   -3.5835    2.8894 C   0  0  0  0  0  0  0  0  0  0  0  0
   -2.2922   -2.7378    1.8763 C   0  0  0  0  0  0  0  0  0  0  0  0
   -2.3650   -1.2782    2.0254 C   0  0  0  0  0  0  0  0  0  0  0  0
   -2.5125   -0.7935    3.1441 O   0  0  0  0  0  0  0  0  0  0  0  0
   -2.1962   -0.4663    0.7462 C   0  0  0  0  0  0  0  0  0  0  0  0
   -2.2344    1.0240    1.0447 C   0  0  0  0  0  0  0  0  0  0  0  0
   -3.2131    1.4674    0.0148 C   0  0  0  0  0  0  0  0  0  0  0  0
   -3.4186    2.8968   -0.3156 C   0  0  0  0  0  0  0  0  0  0  0  0
   -4.2210    3.2291   -1.4156 C   0  0  0  0  0  0  0  0  0  0  0  0
   -4.4277    4.5680   -1.7587 C   0  0  0  0  0  0  0  0  0  0  0  0
   -3.8352    5.5751   -1.0008 C   0  0  0  0  0  0  0  0  0  0  0  0
   -4.0878    7.2236   -1.4202 Cl  0  0  0  0  0  0  0  0  0  0  0  0
   -3.0395    5.2547    0.0984 C   0  0  0  0  0  0  0  0  0  0  0  0
   -2.8303    3.9153    0.4438 C   0  0  0  0  0  0  0  0  0  0  0  0
   -3.8656    0.5095   -0.5564 N   0  0  0  0  0  0  0  0  0  0  0  0
   -3.4237   -0.7033    0.0142 O   0  0  0  0  0  0  0  0  0  0  0  0
    3.6061    2.2447   -0.1163 H   0  0  0  0  0  0  0  0  0  0  0  0
    5.8627    2.0380    0.9480 H   0  0  0  0  0  0  0  0  0  0  0  0
    4.0856   -1.6731   -1.9023 H   0  0  0  0  0  0  0  0  0  0  0  0
    8.5542   -1.4271   -0.6037 H   0  0  0  0  0  0  0  0  0  0  0  0
    7.8510   -2.2004    0.8393 H   0  0  0  0  0  0  0  0  0  0  0  0
    0.7034    1.1051    1.0648 H   0  0  0  0  0  0  0  0  0  0  0  0
    2.1534    0.1364    0.9619 H   0  0  0  0  0  0  0  0  0  0  0  0
    0.2674   -1.2368    1.7557 H   0  0  0  0  0  0  0  0  0  0  0  0
    1.0073   -1.8382    0.2997 H   0  0  0  0  0  0  0  0  0  0  0  0
   -1.7944   -0.3871   -1.9818 H   0  0  0  0  0  0  0  0  0  0  0  0
   -0.2931   -1.2482   -2.0956 H   0  0  0  0  0  0  0  0  0  0  0  0
   -0.5680    1.6268   -1.0856 H   0  0  0  0  0  0  0  0  0  0  0  0
    0.1046    1.0833   -2.6051 H   0  0  0  0  0  0  0  0  0  0  0  0
   -1.2959   -5.0503   -0.4015 H   0  0  0  0  0  0  0  0  0  0  0  0
   -2.1302   -6.5700    1.3910 H   0  0  0  0  0  0  0  0  0  0  0  0
   -3.1644   -3.1877    3.8116 H   0  0  0  0  0  0  0  0  0  0  0  0
   -2.6609    1.2713    2.0222 H   0  0  0  0  0  0  0  0  0  0  0  0
   -1.2809    1.5325    0.9560 H   0  0  0  0  0  0  0  0  0  0  0  0
   -4.6912    2.4496   -2.0133 H   0  0  0  0  0  0  0  0  0  0  0  0
   -5.0516    4.8144   -2.6142 H   0  0  0  0  0  0  0  0  0  0  0  0
   -2.5837    6.0432    0.6925 H   0  0  0  0  0  0  0  0  0  0  0  0
   -2.2173    3.6970    1.3134 H   0  0  0  0  0  0  0  0  0  0  0  0
  1  2  2  0
  2  3  1  0
  3  4  2  0
  4  5  1  0
  5  6  2  0
  6  7  1  0
  7  8  2  0
  7  9  1  0
  9 10  1  0
 10 11  1  0
  2 12  1  0
 12 13  1  0
 13 14  1  0
 14 15  1  0
 15 16  1  0
 16 17  1  0
 15 18  1  0
 18 19  1  0
 19 20  2  0
 20 21  1  0
 21 22  2  0
 22 23  1  0
 22 24  1  0
 24 25  2  0
 25 26  1  0
 26 27  2  0
 26 28  1  0
 28 29  1  0
 29 30  1  0
 30 31  1  0
 31 32  2  0
 32 33  1  0
 33 34  2  0
 34 35  1  0
 34 36  1  0
 36 37  2  0
 30 38  2  0
 38 39  1  0
  8  3  1  0
 17 12  1  0
 25 19  1  0
 39 28  1  0
 11  6  1  0
 28 15  1  0
 37 31  1  0
  4 40  1  0
  5 41  1  0
  8 42  1  0
 10 43  1  0
 10 44  1  0
 13 45  1  0
 13 46  1  0
 14 47  1  0
 14 48  1  0
 16 49  1  0
 16 50  1  0
 17 51  1  0
 17 52  1  0
 20 53  1  0
 21 54  1  0
 24 55  1  0
 29 56  1  0
 29 57  1  0
 32 58  1  0
 33 59  1  0
 36 60  1  0
 37 61  1  0
M  END
$$$$
