
     RDKit          3D

 42 44  0  0  0  0  0  0  0  0999 V2000
    5.2910   -2.2206    1.9014 C   0  0  0  0  0  0  0  0  0  0  0  0
    3.9229   -2.0168    1.5685 O   0  0  0  0  0  0  0  0  0  0  0  0
    3.6599   -1.1799    0.5186 C   0  0  0  0  0  0  0  0  0  0  0  0
    4.6097   -0.5139   -0.2573 C   0  0  0  0  0  0  0  0  0  0  0  0
    4.2168    0.3067   -1.3212 C   0  0  0  0  0  0  0  0  0  0  0  0
    5.2515    0.8885   -2.0031 O   0  0  0  0  0  0  0  0  0  0  0  0
    4.9095    1.6893   -3.1289 C   0  0  0  0  0  0  0  0  0  0  0  0
    2.8611    0.4697   -1.6001 C   0  0  0  0  0  0  0  0  0  0  0  0
    1.8980   -0.1804   -0.8151 C   0  0  0  0  0  0  0  0  0  0  0  0
    0.4585    0.0211   -1.1571 C   0  0  0  0  0  0  0  0  0  0  0  0
    0.1822    0.2384   -2.3311 O   0  0  0  0  0  0  0  0  0  0  0  0
   -0.4044   -0.0296   -0.0807 N   0  0  0  0  0  0  0  0  0  0  0  0
   -1.7869    0.1060   -0.0943 C   0  0  0  0  0  0  0  0  0  0  0  0
   -2.6506    0.3016   -1.5598 S   0  0  0  0  0  0  0  0  0  0  0  0
   -4.0905    0.4114   -0.7316 C   0  0  0  0  0  0  0  0  0  0  0  0
   -3.9693    0.2896    0.6253 C   0  0  0  0  0  0  0  0  0  0  0  0
   -2.6168    0.0852    1.0342 C   0  0  0  0  0  0  0  0  0  0  0  0
   -2.0794   -0.1050    2.3800 C   0  0  0  0  0  0  0  0  0  0  0  0
   -2.9799   -0.3291    3.3802 N   0  0  0  0  0  0  0  0  0  0  0  0
   -0.8751   -0.1085    2.6264 O   0  0  0  0  0  0  0  0  0  0  0  0
   -5.3019    0.4214    1.2738 C   0  0  0  0  0  0  0  0  0  0  0  0
   -6.1880    0.9925    0.1238 C   0  0  0  0  0  0  0  0  0  0  0  0
   -5.4743    0.6295   -1.2108 C   0  0  0  0  0  0  0  0  0  0  0  0
    2.3030   -1.0142    0.2342 C   0  0  0  0  0  0  0  0  0  0  0  0
    5.3287   -2.9058    2.7537 H   0  0  0  0  0  0  0  0  0  0  0  0
    5.8330   -2.6892    1.0733 H   0  0  0  0  0  0  0  0  0  0  0  0
    5.7668   -1.2829    2.2068 H   0  0  0  0  0  0  0  0  0  0  0  0
    5.6732   -0.6182   -0.0669 H   0  0  0  0  0  0  0  0  0  0  0  0
    4.3185    2.5603   -2.8274 H   0  0  0  0  0  0  0  0  0  0  0  0
    4.3879    1.0995   -3.8900 H   0  0  0  0  0  0  0  0  0  0  0  0
    5.8402    2.0562   -3.5723 H   0  0  0  0  0  0  0  0  0  0  0  0
    2.5205    1.0975   -2.4184 H   0  0  0  0  0  0  0  0  0  0  0  0
   -0.0092   -0.1002    0.8561 H   0  0  0  0  0  0  0  0  0  0  0  0
   -3.9290   -0.6035    3.1835 H   0  0  0  0  0  0  0  0  0  0  0  0
   -2.5906   -0.5921    4.2755 H   0  0  0  0  0  0  0  0  0  0  0  0
   -5.6738   -0.5601    1.5865 H   0  0  0  0  0  0  0  0  0  0  0  0
   -5.2926    1.0996    2.1314 H   0  0  0  0  0  0  0  0  0  0  0  0
   -6.2333    2.0856    0.2188 H   0  0  0  0  0  0  0  0  0  0  0  0
   -7.2150    0.6165    0.1636 H   0  0  0  0  0  0  0  0  0  0  0  0
   -5.8902   -0.2916   -1.6317 H   0  0  0  0  0  0  0  0  0  0  0  0
   -5.5603    1.4396   -1.9401 H   0  0  0  0  0  0  0  0  0  0  0  0
    1.5783   -1.5641    0.8291 H   0  0  0  0  0  0  0  0  0  0  0  0
  1  2  1  0
  2  3  1  0
  3  4  2  0
  4  5  1  0
  5  6  1  0
  6  7  1  0
  5  8  2  0
  8  9  1  0
  9 10  1  0
 10 11  2  0
 10 12  1  0
 12 13  1  0
 13 14  1  0
 14 15  1  0
 15 16  2  0
 16 17  1  0
 17 18  1  0
 18 19  1  0
 18 20  2  0
 16 21  1  0
 21 22  1  0
 22 23  1  0
  9 24  2  0
 24  3  1  0
 17 13  2  0
 23 15  1  0
  1 25  1  0
  1 26  1  0
  1 27  1  0
  4 28  1  0
  7 29  1  0
  7 30  1  0
  7 31  1  0
  8 32  1  0
 12 33  1  0
 19 34  1  0
 19 35  1  0
 21 36  1  0
 21 37  1  0
 22 38  1  0
 22 39  1  0
 23 40  1  0
 23 41  1  0
 24 42  1  0
M  END
$$$$
