
     RDKit          3D

 44 46  0  0  0  0  0  0  0  0999 V2000
   -0.8593    2.4653   -1.5466 C   0  0  0  0  0  0  0  0  0  0  0  0
   -1.9918    1.6256   -1.0231 C   0  0  0  0  0  0  0  0  0  0  0  0
   -3.3142    1.9954   -1.3003 C   0  0  0  0  0  0  0  0  0  0  0  0
   -4.3806    1.2327   -0.8237 C   0  0  0  0  0  0  0  0  0  0  0  0
   -4.1493    0.0835   -0.0583 C   0  0  0  0  0  0  0  0  0  0  0  0
   -5.2950   -0.7619    0.4726 C   0  0  0  0  0  0  0  0  0  0  0  0
   -6.1350   -1.3507   -0.6636 C   0  0  0  0  0  0  0  0  0  0  0  0
   -6.1714    0.0284    1.4473 C   0  0  0  0  0  0  0  0  0  0  0  0
   -2.8214   -0.2849    0.2199 C   0  0  0  0  0  0  0  0  0  0  0  0
   -1.7452    0.4752   -0.2548 C   0  0  0  0  0  0  0  0  0  0  0  0
   -0.4239    0.1898   -0.0291 O   0  0  0  0  0  0  0  0  0  0  0  0
   -0.1219   -0.9734    0.7361 C   0  0  0  0  0  0  0  0  0  0  0  0
    1.3924   -1.1446    0.8927 C   0  0  0  0  0  0  0  0  0  0  0  0
    1.8461   -2.1034    1.5106 O   0  0  0  0  0  0  0  0  0  0  0  0
    2.1058   -0.1379    0.2856 N   0  0  0  0  0  0  0  0  0  0  0  0
    3.4656    0.0157    0.2386 C   0  0  0  0  0  0  0  0  0  0  0  0
    4.0355    1.0311   -0.3745 N   0  0  0  0  0  0  0  0  0  0  0  0
    5.4145    0.9821   -0.2909 N   0  0  0  0  0  0  0  0  0  0  0  0
    5.8158   -0.0767    0.3762 C   0  0  0  0  0  0  0  0  0  0  0  0
    7.3241   -0.3791    0.6307 C   0  0  0  0  0  0  0  0  0  0  0  0
    8.3224   -0.1206   -0.4691 C   0  0  0  0  0  0  0  0  0  0  0  0
    7.9777   -1.5311   -0.0899 C   0  0  0  0  0  0  0  0  0  0  0  0
    4.5590   -1.0747    0.9603 S   0  0  0  0  0  0  0  0  0  0  0  0
   -0.2771    2.8759   -0.7152 H   0  0  0  0  0  0  0  0  0  0  0  0
   -1.2246    3.3064   -2.1454 H   0  0  0  0  0  0  0  0  0  0  0  0
   -0.2053    1.8640   -2.1865 H   0  0  0  0  0  0  0  0  0  0  0  0
   -3.5247    2.8838   -1.8919 H   0  0  0  0  0  0  0  0  0  0  0  0
   -5.3953    1.5474   -1.0576 H   0  0  0  0  0  0  0  0  0  0  0  0
   -4.8751   -1.6084    1.0321 H   0  0  0  0  0  0  0  0  0  0  0  0
   -6.6453   -0.5734   -1.2429 H   0  0  0  0  0  0  0  0  0  0  0  0
   -6.9011   -2.0251   -0.2659 H   0  0  0  0  0  0  0  0  0  0  0  0
   -5.5092   -1.9258   -1.3553 H   0  0  0  0  0  0  0  0  0  0  0  0
   -6.6783    0.8663    0.9565 H   0  0  0  0  0  0  0  0  0  0  0  0
   -5.5725    0.4361    2.2694 H   0  0  0  0  0  0  0  0  0  0  0  0
   -6.9419   -0.6172    1.8824 H   0  0  0  0  0  0  0  0  0  0  0  0
   -2.6551   -1.1772    0.8157 H   0  0  0  0  0  0  0  0  0  0  0  0
   -0.5400   -0.8830    1.7452 H   0  0  0  0  0  0  0  0  0  0  0  0
   -0.4957   -1.8692    0.2271 H   0  0  0  0  0  0  0  0  0  0  0  0
    1.5794    0.5886   -0.1881 H   0  0  0  0  0  0  0  0  0  0  0  0
    7.6484   -0.1726    1.6451 H   0  0  0  0  0  0  0  0  0  0  0  0
    9.2962    0.2622   -0.1869 H   0  0  0  0  0  0  0  0  0  0  0  0
    7.9589    0.2563   -1.4191 H   0  0  0  0  0  0  0  0  0  0  0  0
    8.7188   -2.1093    0.4496 H   0  0  0  0  0  0  0  0  0  0  0  0
    7.3895   -2.1114   -0.7921 H   0  0  0  0  0  0  0  0  0  0  0  0
  1  2  1  0
  2  3  2  0
  3  4  1  0
  4  5  2  0
  5  6  1  0
  6  7  1  0
  6  8  1  0
  5  9  1  0
  9 10  2  0
 10 11  1  0
 11 12  1  0
 12 13  1  0
 13 14  2  0
 13 15  1  0
 15 16  1  0
 16 17  2  0
 17 18  1  0
 18 19  2  0
 19 20  1  0
 20 21  1  0
 21 22  1  0
 19 23  1  0
 10  2  1  0
 23 16  1  0
 22 20  1  0
  1 24  1  0
  1 25  1  0
  1 26  1  0
  3 27  1  0
  4 28  1  0
  6 29  1  0
  7 30  1  0
  7 31  1  0
  7 32  1  0
  8 33  1  0
  8 34  1  0
  8 35  1  0
  9 36  1  0
 12 37  1  0
 12 38  1  0
 15 39  1  0
 20 40  1  0
 21 41  1  0
 21 42  1  0
 22 43  1  0
 22 44  1  0
M  END
$$$$
