
     RDKit          3D

 57 59  0  0  0  0  0  0  0  0999 V2000
    7.9201   -2.3817   -3.0387 C   0  0  0  0  0  0  0  0  0  0  0  0
    7.8131   -3.0836   -1.8070 O   0  0  0  0  0  0  0  0  0  0  0  0
    7.0505   -2.5041   -0.8306 C   0  0  0  0  0  0  0  0  0  0  0  0
    6.9725   -3.2323    0.3586 C   0  0  0  0  0  0  0  0  0  0  0  0
    6.2267   -2.7572    1.4403 C   0  0  0  0  0  0  0  0  0  0  0  0
    5.5507   -1.5351    1.3491 C   0  0  0  0  0  0  0  0  0  0  0  0
    4.7250   -1.0227    2.4997 C   0  0  0  0  0  0  0  0  0  0  0  0
    3.3548   -1.4454    2.3787 N   0  0  0  0  0  0  0  0  0  0  0  0
    2.3918   -0.6636    1.7876 C   0  0  0  0  0  0  0  0  0  0  0  0
    2.5239    0.4929    1.4114 O   0  0  0  0  0  0  0  0  0  0  0  0
    1.0376   -1.3883    1.6080 C   0  0  0  0  0  0  0  0  0  0  0  0
    0.9104   -2.5516    1.9636 O   0  0  0  0  0  0  0  0  0  0  0  0
    0.0627   -0.6006    1.0473 N   0  0  0  0  0  0  0  0  0  0  0  0
   -1.3288   -1.0191    0.9856 C   0  0  0  0  0  0  0  0  0  0  0  0
   -2.1644   -0.2033   -0.0245 C   0  0  0  0  0  0  0  0  0  0  0  0
   -1.8335   -0.5937   -1.3739 O   0  0  0  0  0  0  0  0  0  0  0  0
   -1.0274    0.4519   -1.9291 C   0  0  0  0  0  0  0  0  0  0  0  0
   -1.5453    1.7110   -1.2701 C   0  0  0  0  0  0  0  0  0  0  0  0
   -1.8642    1.2342    0.0742 N   0  0  0  0  0  0  0  0  0  0  0  0
   -2.7709    2.1780    1.1141 S   0  0  0  0  0  6  0  0  0  0  0  0
   -2.2184    3.5150    1.0841 O   0  0  0  0  0  0  0  0  0  0  0  0
   -2.9034    1.4506    2.3583 O   0  0  0  0  0  0  0  0  0  0  0  0
   -4.3847    2.2514    0.3659 C   0  0  0  0  0  0  0  0  0  0  0  0
   -4.6825    3.2746   -0.5364 C   0  0  0  0  0  0  0  0  0  0  0  0
   -5.9598    3.3458   -1.0953 C   0  0  0  0  0  0  0  0  0  0  0  0
   -6.9470    2.4191   -0.7440 C   0  0  0  0  0  0  0  0  0  0  0  0
   -8.1495    2.6062   -1.3671 O   0  0  0  0  0  0  0  0  0  0  0  0
   -9.2053    1.7223   -1.0116 C   0  0  0  0  0  0  0  0  0  0  0  0
   -6.6498    1.4179    0.1832 C   0  0  0  0  0  0  0  0  0  0  0  0
   -5.3719    1.3380    0.7472 C   0  0  0  0  0  0  0  0  0  0  0  0
    5.6227   -0.8122    0.1504 C   0  0  0  0  0  0  0  0  0  0  0  0
    6.3702   -1.2910   -0.9314 C   0  0  0  0  0  0  0  0  0  0  0  0
    6.9420   -2.2767   -3.5196 H   0  0  0  0  0  0  0  0  0  0  0  0
    8.3990   -1.4071   -2.8978 H   0  0  0  0  0  0  0  0  0  0  0  0
    8.5566   -2.9717   -3.7053 H   0  0  0  0  0  0  0  0  0  0  0  0
    7.4967   -4.1814    0.4418 H   0  0  0  0  0  0  0  0  0  0  0  0
    6.1797   -3.3494    2.3512 H   0  0  0  0  0  0  0  0  0  0  0  0
    5.1083   -1.4138    3.4485 H   0  0  0  0  0  0  0  0  0  0  0  0
    4.7827    0.0706    2.5519 H   0  0  0  0  0  0  0  0  0  0  0  0
    3.1154   -2.4225    2.5186 H   0  0  0  0  0  0  0  0  0  0  0  0
    0.2686    0.3943    0.9841 H   0  0  0  0  0  0  0  0  0  0  0  0
   -1.7313   -0.9038    1.9972 H   0  0  0  0  0  0  0  0  0  0  0  0
   -1.3582   -2.0839    0.7289 H   0  0  0  0  0  0  0  0  0  0  0  0
   -3.2256   -0.4275    0.1055 H   0  0  0  0  0  0  0  0  0  0  0  0
   -1.1308    0.4681   -3.0173 H   0  0  0  0  0  0  0  0  0  0  0  0
    0.0205    0.2588   -1.6756 H   0  0  0  0  0  0  0  0  0  0  0  0
   -2.4460    2.0505   -1.7882 H   0  0  0  0  0  0  0  0  0  0  0  0
   -0.7964    2.5059   -1.2659 H   0  0  0  0  0  0  0  0  0  0  0  0
   -3.9372    4.0201   -0.8044 H   0  0  0  0  0  0  0  0  0  0  0  0
   -6.1953    4.1376   -1.8036 H   0  0  0  0  0  0  0  0  0  0  0  0
   -9.4498    1.8065    0.0525 H   0  0  0  0  0  0  0  0  0  0  0  0
  -10.0926    2.0152   -1.5813 H   0  0  0  0  0  0  0  0  0  0  0  0
   -8.9620    0.6894   -1.2814 H   0  0  0  0  0  0  0  0  0  0  0  0
   -7.3920    0.6898    0.4953 H   0  0  0  0  0  0  0  0  0  0  0  0
   -5.1633    0.5677    1.4868 H   0  0  0  0  0  0  0  0  0  0  0  0
    5.0893    0.1325    0.0521 H   0  0  0  0  0  0  0  0  0  0  0  0
    6.3959   -0.6926   -1.8356 H   0  0  0  0  0  0  0  0  0  0  0  0
  1  2  1  0
  2  3  1  0
  3  4  2  0
  4  5  1  0
  5  6  2  0
  6  7  1  0
  7  8  1  0
  8  9  1  0
  9 10  2  0
  9 11  1  0
 11 12  2  0
 11 13  1  0
 13 14  1  0
 14 15  1  0
 15 16  1  0
 16 17  1  0
 17 18  1  0
 18 19  1  0
 19 20  1  0
 20 21  2  0
 20 22  2  0
 20 23  1  0
 23 24  2  0
 24 25  1  0
 25 26  2  0
 26 27  1  0
 27 28  1  0
 26 29  1  0
 29 30  2  0
  6 31  1  0
 31 32  2  0
 32  3  1  0
 19 15  1  0
 30 23  1  0
  1 33  1  0
  1 34  1  0
  1 35  1  0
  4 36  1  0
  5 37  1  0
  7 38  1  0
  7 39  1  0
  8 40  1  0
 13 41  1  0
 14 42  1  0
 14 43  1  0
 15 44  1  0
 17 45  1  0
 17 46  1  0
 18 47  1  0
 18 48  1  0
 24 49  1  0
 25 50  1  0
 28 51  1  0
 28 52  1  0
 28 53  1  0
 29 54  1  0
 30 55  1  0
 31 56  1  0
 32 57  1  0
M  END
$$$$
