
     RDKit          3D

 63 65  0  0  0  0  0  0  0  0999 V2000
    3.3211    6.7849    2.9850 C   0  0  0  0  0  0  0  0  0  0  0  0
    2.9113    5.4242    2.9474 O   0  0  0  0  0  0  0  0  0  0  0  0
    2.7514    4.8606    1.7118 C   0  0  0  0  0  0  0  0  0  0  0  0
    3.0022    5.4817    0.4899 C   0  0  0  0  0  0  0  0  0  0  0  0
    2.7937    4.7871   -0.7053 C   0  0  0  0  0  0  0  0  0  0  0  0
    2.3306    3.4719   -0.6839 C   0  0  0  0  0  0  0  0  0  0  0  0
    2.0721    2.8344    0.5362 C   0  0  0  0  0  0  0  0  0  0  0  0
    1.5422    1.4198    0.5678 C   0  0  0  0  0  0  0  0  0  0  0  0
    0.1347    1.3604    0.1598 N   0  0  0  0  0  0  0  0  0  0  0  0
   -0.8587    1.8216    1.1432 C   0  0  0  0  0  0  0  0  0  0  0  0
   -1.0615    0.8153    2.2836 C   0  0  0  0  0  0  0  0  0  0  0  0
   -0.2131    0.6439    3.1538 O   0  0  0  0  0  0  0  0  0  0  0  0
   -2.2527    0.1201    2.2278 N   0  0  0  0  0  0  0  0  0  0  0  0
   -2.5291   -1.0006    3.1168 C   0  0  0  0  0  0  0  0  0  0  0  0
   -2.3410   -2.3709    2.4508 C   0  0  0  0  0  0  0  0  0  0  0  0
   -3.2642   -2.6431    1.2714 C   0  0  0  0  0  0  0  0  0  0  0  0
   -2.4864   -3.6965    0.5237 C   0  0  0  0  0  0  0  0  0  0  0  0
   -1.0651   -3.2063    0.6886 C   0  0  0  0  0  0  0  0  0  0  0  0
   -0.9990   -2.5398    1.9592 O   0  0  0  0  0  0  0  0  0  0  0  0
   -0.1682    0.8545   -1.0940 C   0  0  0  0  0  0  0  0  0  0  0  0
    0.6960    0.4502   -1.8784 O   0  0  0  0  0  0  0  0  0  0  0  0
   -1.6352    0.8152   -1.4931 C   0  0  0  0  0  0  0  0  0  0  0  0
   -1.8492    0.2230   -2.8821 C   0  0  0  0  0  0  0  0  0  0  0  0
   -1.7740   -1.2909   -2.8303 C   0  0  0  0  0  0  0  0  0  0  0  0
   -2.7968   -1.9482   -2.6624 O   0  0  0  0  0  0  0  0  0  0  0  0
   -0.4839   -1.7602   -2.9293 N   0  0  0  0  0  0  0  0  0  0  0  0
   -0.1244   -3.0917   -2.9191 C   0  0  0  0  0  0  0  0  0  0  0  0
    1.2195   -3.5368   -2.9120 C   0  0  0  0  0  0  0  0  0  0  0  0
    1.1327   -4.9062   -2.8878 C   0  0  0  0  0  0  0  0  0  0  0  0
    2.1147   -6.0021   -2.8451 C   0  0  0  0  0  0  0  0  0  0  0  0
   -0.1765   -5.2657   -2.8978 O   0  0  0  0  0  0  0  0  0  0  0  0
   -0.9627   -4.1313   -2.9155 N   0  0  0  0  0  0  0  0  0  0  0  0
    2.2895    3.5406    1.7288 C   0  0  0  0  0  0  0  0  0  0  0  0
    3.3504    7.0966    4.0343 H   0  0  0  0  0  0  0  0  0  0  0  0
    4.3285    6.9026    2.5718 H   0  0  0  0  0  0  0  0  0  0  0  0
    2.6022    7.4312    2.4694 H   0  0  0  0  0  0  0  0  0  0  0  0
    3.3641    6.5025    0.4295 H   0  0  0  0  0  0  0  0  0  0  0  0
    2.9899    5.2749   -1.6550 H   0  0  0  0  0  0  0  0  0  0  0  0
    2.1742    2.9417   -1.6225 H   0  0  0  0  0  0  0  0  0  0  0  0
    1.6512    0.9838    1.5647 H   0  0  0  0  0  0  0  0  0  0  0  0
    2.1644    0.8006   -0.0896 H   0  0  0  0  0  0  0  0  0  0  0  0
   -1.8182    2.0328    0.6668 H   0  0  0  0  0  0  0  0  0  0  0  0
   -0.5263    2.7688    1.5803 H   0  0  0  0  0  0  0  0  0  0  0  0
   -2.8683    0.2492    1.4380 H   0  0  0  0  0  0  0  0  0  0  0  0
   -1.8704   -0.9316    3.9900 H   0  0  0  0  0  0  0  0  0  0  0  0
   -3.5628   -0.8894    3.4571 H   0  0  0  0  0  0  0  0  0  0  0  0
   -2.4942   -3.1475    3.2107 H   0  0  0  0  0  0  0  0  0  0  0  0
   -3.3813   -1.7605    0.6324 H   0  0  0  0  0  0  0  0  0  0  0  0
   -4.2595   -2.9752    1.5811 H   0  0  0  0  0  0  0  0  0  0  0  0
   -2.6135   -4.6679    1.0179 H   0  0  0  0  0  0  0  0  0  0  0  0
   -2.7860   -3.8037   -0.5218 H   0  0  0  0  0  0  0  0  0  0  0  0
   -0.8091   -2.4651   -0.0737 H   0  0  0  0  0  0  0  0  0  0  0  0
   -0.3291   -4.0135    0.6545 H   0  0  0  0  0  0  0  0  0  0  0  0
   -2.1918    0.2366   -0.7492 H   0  0  0  0  0  0  0  0  0  0  0  0
   -2.0054    1.8461   -1.5046 H   0  0  0  0  0  0  0  0  0  0  0  0
   -1.1376    0.6128   -3.6178 H   0  0  0  0  0  0  0  0  0  0  0  0
   -2.8496    0.4875   -3.2439 H   0  0  0  0  0  0  0  0  0  0  0  0
    0.2762   -1.0809   -2.9155 H   0  0  0  0  0  0  0  0  0  0  0  0
    2.1210   -2.9438   -2.9047 H   0  0  0  0  0  0  0  0  0  0  0  0
    2.1908   -6.4045   -1.8311 H   0  0  0  0  0  0  0  0  0  0  0  0
    3.1057   -5.6519   -3.1491 H   0  0  0  0  0  0  0  0  0  0  0  0
    1.8212   -6.8141   -3.5170 H   0  0  0  0  0  0  0  0  0  0  0  0
    2.0934    3.0624    2.6875 H   0  0  0  0  0  0  0  0  0  0  0  0
  1  2  1  0
  2  3  1  0
  3  4  2  0
  4  5  1  0
  5  6  2  0
  6  7  1  0
  7  8  1  0
  8  9  1  0
  9 10  1  0
 10 11  1  0
 11 12  2  0
 11 13  1  0
 13 14  1  0
 14 15  1  0
 15 16  1  0
 16 17  1  0
 17 18  1  0
 18 19  1  0
  9 20  1  0
 20 21  2  0
 20 22  1  0
 22 23  1  0
 23 24  1  0
 24 25  2  0
 24 26  1  0
 26 27  1  0
 27 28  1  0
 28 29  2  0
 29 30  1  0
 29 31  1  0
 31 32  1  0
  7 33  2  0
 33  3  1  0
 19 15  1  0
 32 27  2  0
  1 34  1  0
  1 35  1  0
  1 36  1  0
  4 37  1  0
  5 38  1  0
  6 39  1  0
  8 40  1  0
  8 41  1  0
 10 42  1  0
 10 43  1  0
 13 44  1  0
 14 45  1  0
 14 46  1  0
 15 47  1  0
 16 48  1  0
 16 49  1  0
 17 50  1  0
 17 51  1  0
 18 52  1  0
 18 53  1  0
 22 54  1  0
 22 55  1  0
 23 56  1  0
 23 57  1  0
 26 58  1  0
 28 59  1  0
 30 60  1  0
 30 61  1  0
 30 62  1  0
 33 63  1  0
M  END
$$$$
