
     RDKit          3D

 61 63  0  0  0  0  0  0  0  0999 V2000
   -9.4486    2.3341   -1.9677 C   0  0  0  0  0  0  0  0  0  0  0  0
   -8.7867    2.2729   -0.7115 O   0  0  0  0  0  0  0  0  0  0  0  0
   -8.0599    1.1439   -0.4498 C   0  0  0  0  0  0  0  0  0  0  0  0
   -7.9100    0.0476   -1.2987 C   0  0  0  0  0  0  0  0  0  0  0  0
   -7.1329   -1.0478   -0.9044 C   0  0  0  0  0  0  0  0  0  0  0  0
   -6.5017   -1.0633    0.3458 C   0  0  0  0  0  0  0  0  0  0  0  0
   -5.6417   -2.2241    0.7641 C   0  0  0  0  0  0  0  0  0  0  0  0
   -4.2760   -2.0092    0.3684 N   0  0  0  0  0  0  0  0  0  0  0  0
   -3.2124   -2.4809    1.0961 C   0  0  0  0  0  0  0  0  0  0  0  0
   -3.2665   -3.0359    2.1836 O   0  0  0  0  0  0  0  0  0  0  0  0
   -1.8473   -2.2349    0.4144 C   0  0  0  0  0  0  0  0  0  0  0  0
   -1.7995   -1.7797   -0.7200 O   0  0  0  0  0  0  0  0  0  0  0  0
   -0.7645   -2.5389    1.2064 N   0  0  0  0  0  0  0  0  0  0  0  0
    0.5885   -2.1708    0.8174 C   0  0  0  0  0  0  0  0  0  0  0  0
    0.8314   -0.6417    0.8207 C   0  0  0  0  0  0  0  0  0  0  0  0
    0.4633   -0.1513    2.1372 O   0  0  0  0  0  0  0  0  0  0  0  0
    1.5102    0.7150    2.5801 C   0  0  0  0  0  0  0  0  0  0  0  0
    2.7525    0.1741    1.9141 C   0  0  0  0  0  0  0  0  0  0  0  0
    2.2281   -0.2025    0.5995 N   0  0  0  0  0  0  0  0  0  0  0  0
    3.1927   -1.0967   -0.4368 S   0  0  0  0  0  6  0  0  0  0  0  0
    2.4792   -1.2717   -1.6826 O   0  0  0  0  0  0  0  0  0  0  0  0
    3.6980   -2.2317    0.3065 O   0  0  0  0  0  0  0  0  0  0  0  0
    4.5389    0.0154   -0.7507 C   0  0  0  0  0  0  0  0  0  0  0  0
    4.3181    1.1243   -1.5674 C   0  0  0  0  0  0  0  0  0  0  0  0
    5.3629    2.0149   -1.8144 C   0  0  0  0  0  0  0  0  0  0  0  0
    6.6263    1.7949   -1.2535 C   0  0  0  0  0  0  0  0  0  0  0  0
    7.7063    2.6235   -1.4331 O   0  0  0  0  0  0  0  0  0  0  0  0
    7.5552    3.7235   -2.3186 C   0  0  0  0  0  0  0  0  0  0  0  0
    6.8455    0.6595   -0.4420 C   0  0  0  0  0  0  0  0  0  0  0  0
    8.1120    0.5207    0.0704 O   0  0  0  0  0  0  0  0  0  0  0  0
    8.4291   -0.6996    0.7253 C   0  0  0  0  0  0  0  0  0  0  0  0
    5.7967   -0.2307   -0.1939 C   0  0  0  0  0  0  0  0  0  0  0  0
   -6.6462    0.0454    1.1879 C   0  0  0  0  0  0  0  0  0  0  0  0
   -7.4234    1.1355    0.7926 C   0  0  0  0  0  0  0  0  0  0  0  0
   -8.7309    2.3091   -2.7929 H   0  0  0  0  0  0  0  0  0  0  0  0
  -10.1906    1.5352   -2.0641 H   0  0  0  0  0  0  0  0  0  0  0  0
   -9.9803    3.2877   -2.0177 H   0  0  0  0  0  0  0  0  0  0  0  0
   -8.3810    0.0126   -2.2749 H   0  0  0  0  0  0  0  0  0  0  0  0
   -7.0230   -1.8899   -1.5845 H   0  0  0  0  0  0  0  0  0  0  0  0
   -5.7067   -2.3831    1.8470 H   0  0  0  0  0  0  0  0  0  0  0  0
   -5.9850   -3.1491    0.2854 H   0  0  0  0  0  0  0  0  0  0  0  0
   -4.0687   -1.6302   -0.5525 H   0  0  0  0  0  0  0  0  0  0  0  0
   -0.9669   -2.7369    2.1813 H   0  0  0  0  0  0  0  0  0  0  0  0
    0.7701   -2.5952   -0.1741 H   0  0  0  0  0  0  0  0  0  0  0  0
    1.2505   -2.6643    1.5367 H   0  0  0  0  0  0  0  0  0  0  0  0
    0.1830   -0.1385    0.0966 H   0  0  0  0  0  0  0  0  0  0  0  0
    1.5712    0.7064    3.6712 H   0  0  0  0  0  0  0  0  0  0  0  0
    1.2795    1.7312    2.2418 H   0  0  0  0  0  0  0  0  0  0  0  0
    3.5380    0.9304    1.8595 H   0  0  0  0  0  0  0  0  0  0  0  0
    3.1170   -0.7092    2.4491 H   0  0  0  0  0  0  0  0  0  0  0  0
    3.3386    1.3000   -2.0083 H   0  0  0  0  0  0  0  0  0  0  0  0
    5.1592    2.8713   -2.4468 H   0  0  0  0  0  0  0  0  0  0  0  0
    6.8131    4.4339   -1.9415 H   0  0  0  0  0  0  0  0  0  0  0  0
    8.5154    4.2454   -2.3718 H   0  0  0  0  0  0  0  0  0  0  0  0
    7.3039    3.3851   -3.3289 H   0  0  0  0  0  0  0  0  0  0  0  0
    8.2683   -1.5599    0.0662 H   0  0  0  0  0  0  0  0  0  0  0  0
    7.8633   -0.8023    1.6557 H   0  0  0  0  0  0  0  0  0  0  0  0
    9.4913   -0.6723    0.9852 H   0  0  0  0  0  0  0  0  0  0  0  0
    5.9353   -1.1082    0.4299 H   0  0  0  0  0  0  0  0  0  0  0  0
   -6.1518    0.0685    2.1562 H   0  0  0  0  0  0  0  0  0  0  0  0
   -7.5303    1.9887    1.4582 H   0  0  0  0  0  0  0  0  0  0  0  0
  1  2  1  0
  2  3  1  0
  3  4  2  0
  4  5  1  0
  5  6  2  0
  6  7  1  0
  7  8  1  0
  8  9  1  0
  9 10  2  0
  9 11  1  0
 11 12  2  0
 11 13  1  0
 13 14  1  0
 14 15  1  0
 15 16  1  0
 16 17  1  0
 17 18  1  0
 18 19  1  0
 19 20  1  0
 20 21  2  0
 20 22  2  0
 20 23  1  0
 23 24  2  0
 24 25  1  0
 25 26  2  0
 26 27  1  0
 27 28  1  0
 26 29  1  0
 29 30  1  0
 30 31  1  0
 29 32  2  0
  6 33  1  0
 33 34  2  0
 34  3  1  0
 19 15  1  0
 32 23  1  0
  1 35  1  0
  1 36  1  0
  1 37  1  0
  4 38  1  0
  5 39  1  0
  7 40  1  0
  7 41  1  0
  8 42  1  0
 13 43  1  0
 14 44  1  0
 14 45  1  0
 15 46  1  0
 17 47  1  0
 17 48  1  0
 18 49  1  0
 18 50  1  0
 24 51  1  0
 25 52  1  0
 28 53  1  0
 28 54  1  0
 28 55  1  0
 31 56  1  0
 31 57  1  0
 31 58  1  0
 32 59  1  0
 33 60  1  0
 34 61  1  0
M  END
$$$$
