
     RDKit          3D

 64 69  0  0  0  0  0  0  0  0999 V2000
    5.8625    0.7017    3.3004 C   0  0  0  0  0  0  0  0  0  0  0  0
    5.8813    0.5655    1.8869 O   0  0  0  0  0  0  0  0  0  0  0  0
    4.6802    0.4854    1.2292 C   0  0  0  0  0  0  0  0  0  0  0  0
    3.4298    0.4808    1.8570 C   0  0  0  0  0  0  0  0  0  0  0  0
    2.2328    0.3689    1.1219 C   0  0  0  0  0  0  0  0  0  0  0  0
    2.2974    0.3179   -0.2736 C   0  0  0  0  0  0  0  0  0  0  0  0
    3.5613    0.3245   -0.9034 C   0  0  0  0  0  0  0  0  0  0  0  0
    4.7468    0.3975   -0.1688 C   0  0  0  0  0  0  0  0  0  0  0  0
    6.0038    0.4025   -0.7175 O   0  0  0  0  0  0  0  0  0  0  0  0
    6.1083    0.3891   -2.1349 C   0  0  0  0  0  0  0  0  0  0  0  0
    1.1327    0.4066   -1.1921 C   0  0  0  0  0  0  0  0  0  0  0  0
    1.3248    0.8979   -2.3050 O   0  0  0  0  0  0  0  0  0  0  0  0
   -0.1205   -0.0153   -0.8009 N   0  0  0  0  0  0  0  0  0  0  0  0
   -1.2561    0.1754   -1.7083 C   0  0  0  0  0  0  0  0  0  0  0  0
   -1.9593    1.5064   -1.5916 C   0  0  0  0  0  0  0  0  0  0  0  0
   -1.3710    2.6836   -1.1148 C   0  0  0  0  0  0  0  0  0  0  0  0
   -2.0813    3.8944   -1.1237 C   0  0  0  0  0  0  0  0  0  0  0  0
   -1.4285    5.1561   -0.6397 C   0  0  0  0  0  0  0  0  0  0  0  0
   -3.3755    3.9292   -1.6594 C   0  0  0  0  0  0  0  0  0  0  0  0
   -3.9656    2.7664   -2.1516 C   0  0  0  0  0  0  0  0  0  0  0  0
   -3.2638    1.5682   -2.0944 C   0  0  0  0  0  0  0  0  0  0  0  0
   -3.8619    0.4409   -2.5961 O   0  0  0  0  0  0  0  0  0  0  0  0
   -3.6855   -0.6583   -1.6972 C   0  0  0  0  0  0  0  0  0  0  0  0
   -2.2212   -0.9574   -1.3628 C   0  0  0  0  0  0  0  0  0  0  0  0
   -1.9938   -1.1548    0.1548 C   0  0  0  0  0  0  0  0  0  0  0  0
   -2.5845   -2.4335    0.7332 C   0  0  0  0  0  0  0  0  0  0  0  0
   -2.6188   -3.6502    0.0337 C   0  0  0  0  0  0  0  0  0  0  0  0
   -3.1741   -4.7959    0.6108 C   0  0  0  0  0  0  0  0  0  0  0  0
   -3.7045   -4.7464    1.8962 C   0  0  0  0  0  0  0  0  0  0  0  0
   -3.6795   -3.5508    2.6062 C   0  0  0  0  0  0  0  0  0  0  0  0
   -3.1250   -2.4062    2.0296 C   0  0  0  0  0  0  0  0  0  0  0  0
   -0.4473   -0.9191    0.3197 C   0  0  0  0  0  0  0  0  0  0  0  0
    0.3445   -2.2374    0.2474 C   0  0  0  0  0  0  0  0  0  0  0  0
   -0.1699   -0.1726    1.6381 C   0  0  0  0  0  0  0  0  0  0  0  0
   -0.9908   -0.1070    2.5578 O   0  0  0  0  0  0  0  0  0  0  0  0
    1.0696    0.3294    1.9034 N   0  0  0  0  0  0  0  0  0  0  0  0
    5.3470    1.6192    3.6027 H   0  0  0  0  0  0  0  0  0  0  0  0
    5.4164   -0.1784    3.7752 H   0  0  0  0  0  0  0  0  0  0  0  0
    6.8989    0.7743    3.6433 H   0  0  0  0  0  0  0  0  0  0  0  0
    3.3702    0.5346    2.9399 H   0  0  0  0  0  0  0  0  0  0  0  0
    3.5915    0.2918   -1.9898 H   0  0  0  0  0  0  0  0  0  0  0  0
    7.1716    0.4204   -2.3917 H   0  0  0  0  0  0  0  0  0  0  0  0
    5.6932   -0.5344   -2.5518 H   0  0  0  0  0  0  0  0  0  0  0  0
    5.6342    1.2725   -2.5751 H   0  0  0  0  0  0  0  0  0  0  0  0
   -0.9156    0.0719   -2.7470 H   0  0  0  0  0  0  0  0  0  0  0  0
   -0.3468    2.6764   -0.7515 H   0  0  0  0  0  0  0  0  0  0  0  0
   -0.8971    5.6422   -1.4634 H   0  0  0  0  0  0  0  0  0  0  0  0
   -0.7170    4.9434    0.1651 H   0  0  0  0  0  0  0  0  0  0  0  0
   -2.1732    5.8516   -0.2387 H   0  0  0  0  0  0  0  0  0  0  0  0
   -3.9272    4.8652   -1.7038 H   0  0  0  0  0  0  0  0  0  0  0  0
   -4.9663    2.7936   -2.5718 H   0  0  0  0  0  0  0  0  0  0  0  0
   -4.1298   -1.5380   -2.1775 H   0  0  0  0  0  0  0  0  0  0  0  0
   -4.2924   -0.4723   -0.8010 H   0  0  0  0  0  0  0  0  0  0  0  0
   -1.8974   -1.8450   -1.9198 H   0  0  0  0  0  0  0  0  0  0  0  0
   -2.5207   -0.3213    0.6462 H   0  0  0  0  0  0  0  0  0  0  0  0
   -2.2076   -3.7413   -0.9677 H   0  0  0  0  0  0  0  0  0  0  0  0
   -3.1903   -5.7298    0.0544 H   0  0  0  0  0  0  0  0  0  0  0  0
   -4.1361   -5.6374    2.3440 H   0  0  0  0  0  0  0  0  0  0  0  0
   -4.0916   -3.5046    3.6110 H   0  0  0  0  0  0  0  0  0  0  0  0
   -3.1223   -1.4840    2.6097 H   0  0  0  0  0  0  0  0  0  0  0  0
    0.0941   -2.8969    1.0856 H   0  0  0  0  0  0  0  0  0  0  0  0
    1.4267   -2.0993    0.2978 H   0  0  0  0  0  0  0  0  0  0  0  0
    0.1472   -2.7684   -0.6902 H   0  0  0  0  0  0  0  0  0  0  0  0
    1.1429    0.6107    2.8753 H   0  0  0  0  0  0  0  0  0  0  0  0
  1  2  1  0
  2  3  1  0
  3  4  2  0
  4  5  1  0
  5  6  2  0
  6  7  1  0
  7  8  2  0
  8  9  1  0
  9 10  1  0
  6 11  1  0
 11 12  2  0
 11 13  1  0
 13 14  1  0
 14 15  1  0
 15 16  2  0
 16 17  1  0
 17 18  1  0
 17 19  2  0
 19 20  1  0
 20 21  2  0
 21 22  1  0
 22 23  1  0
 23 24  1  0
 24 25  1  0
 25 26  1  0
 26 27  2  0
 27 28  1  0
 28 29  2  0
 29 30  1  0
 30 31  2  0
 25 32  1  0
 32 33  1  0
 32 34  1  0
 34 35  2  0
 34 36  1  0
  8  3  1  0
 32 13  1  0
 36  5  1  0
 24 14  1  0
 31 26  1  0
 21 15  1  0
  1 37  1  0
  1 38  1  0
  1 39  1  0
  4 40  1  0
  7 41  1  0
 10 42  1  0
 10 43  1  0
 10 44  1  0
 14 45  1  0
 16 46  1  0
 18 47  1  0
 18 48  1  0
 18 49  1  0
 19 50  1  0
 20 51  1  0
 23 52  1  0
 23 53  1  0
 24 54  1  0
 25 55  1  0
 27 56  1  0
 28 57  1  0
 29 58  1  0
 30 59  1  0
 31 60  1  0
 33 61  1  0
 33 62  1  0
 33 63  1  0
 36 64  1  0
M  END
$$$$
