
     RDKit          3D

 59 61  0  0  0  0  0  0  0  0999 V2000
   -7.8448    0.5593   -3.9457 C   0  0  0  0  0  0  0  0  0  0  0  0
   -6.4525    0.1419   -3.5073 C   0  0  0  0  0  0  0  0  0  0  0  0
   -6.3645    0.3205   -2.0967 O   0  0  0  0  0  0  0  0  0  0  0  0
   -5.1836    0.0010   -1.4741 C   0  0  0  0  0  0  0  0  0  0  0  0
   -4.0493   -0.4878   -2.1333 C   0  0  0  0  0  0  0  0  0  0  0  0
   -2.8959   -0.7820   -1.4047 C   0  0  0  0  0  0  0  0  0  0  0  0
   -1.7638   -1.2623   -2.0588 N   0  0  0  0  0  0  0  0  0  0  0  0
   -0.5936   -1.5932   -1.4302 C   0  0  0  0  0  0  0  0  0  0  0  0
    0.6459   -2.1327   -2.4234 S   0  0  0  0  0  0  0  0  0  0  0  0
   -0.5579   -1.4428   -0.0452 N   0  0  0  0  0  0  0  0  0  0  0  0
    0.6436   -1.7763    0.7418 C   0  0  0  0  0  0  0  0  0  0  0  0
    1.5492   -0.5623    0.9356 C   0  0  0  0  0  0  0  0  0  0  0  0
    2.7847   -0.9264    1.7271 C   0  0  0  0  0  0  0  0  0  0  0  0
    3.0416   -2.0676    2.0929 O   0  0  0  0  0  0  0  0  0  0  0  0
    3.5914    0.1591    1.9879 N   0  0  0  0  0  0  0  0  0  0  0  0
    4.8804    0.0165    2.6264 C   0  0  0  0  0  0  0  0  0  0  0  0
    5.9886    0.1107    1.6101 C   0  0  0  0  0  0  0  0  0  0  0  0
    6.3101   -0.9945    0.8128 C   0  0  0  0  0  0  0  0  0  0  0  0
    7.3224   -0.9040   -0.1451 C   0  0  0  0  0  0  0  0  0  0  0  0
    8.0271    0.2875   -0.3272 C   0  0  0  0  0  0  0  0  0  0  0  0
    8.9914    0.2394   -1.2958 O   0  0  0  0  0  0  0  0  0  0  0  0
    9.7530    1.4215   -1.5046 C   0  0  0  0  0  0  0  0  0  0  0  0
    7.7063    1.3946    0.4583 C   0  0  0  0  0  0  0  0  0  0  0  0
    6.6911    1.3076    1.4188 C   0  0  0  0  0  0  0  0  0  0  0  0
   -1.6227   -0.9062    0.6954 C   0  0  0  0  0  0  0  0  0  0  0  0
   -1.5689   -0.6661    1.9002 O   0  0  0  0  0  0  0  0  0  0  0  0
   -2.8649   -0.5921   -0.0331 C   0  0  0  0  0  0  0  0  0  0  0  0
   -3.9901   -0.1036    0.6395 C   0  0  0  0  0  0  0  0  0  0  0  0
   -5.1538    0.1939   -0.0753 C   0  0  0  0  0  0  0  0  0  0  0  0
   -6.3077    0.6772    0.4892 O   0  0  0  0  0  0  0  0  0  0  0  0
   -6.3338    0.8625    1.9024 C   0  0  0  0  0  0  0  0  0  0  0  0
   -7.7103    1.3794    2.2803 C   0  0  0  0  0  0  0  0  0  0  0  0
   -8.6055   -0.0427   -3.4376 H   0  0  0  0  0  0  0  0  0  0  0  0
   -7.9649    0.4421   -5.0264 H   0  0  0  0  0  0  0  0  0  0  0  0
   -8.0357    1.6044   -3.6798 H   0  0  0  0  0  0  0  0  0  0  0  0
   -6.2962   -0.9111   -3.7681 H   0  0  0  0  0  0  0  0  0  0  0  0
   -5.7139    0.7710   -4.0170 H   0  0  0  0  0  0  0  0  0  0  0  0
   -4.0475   -0.6441   -3.2059 H   0  0  0  0  0  0  0  0  0  0  0  0
   -1.7806   -1.3907   -3.0650 H   0  0  0  0  0  0  0  0  0  0  0  0
    0.3294   -2.1615    1.7206 H   0  0  0  0  0  0  0  0  0  0  0  0
    1.1915   -2.5962    0.2663 H   0  0  0  0  0  0  0  0  0  0  0  0
    1.0142    0.2324    1.4683 H   0  0  0  0  0  0  0  0  0  0  0  0
    1.8655   -0.1602   -0.0334 H   0  0  0  0  0  0  0  0  0  0  0  0
    3.3989    1.0348    1.5212 H   0  0  0  0  0  0  0  0  0  0  0  0
    4.9670    0.8232    3.3626 H   0  0  0  0  0  0  0  0  0  0  0  0
    4.9469   -0.9304    3.1736 H   0  0  0  0  0  0  0  0  0  0  0  0
    5.7702   -1.9326    0.9330 H   0  0  0  0  0  0  0  0  0  0  0  0
    7.5622   -1.7712   -0.7557 H   0  0  0  0  0  0  0  0  0  0  0  0
   10.4813    1.2147   -2.2948 H   0  0  0  0  0  0  0  0  0  0  0  0
    9.1172    2.2452   -1.8454 H   0  0  0  0  0  0  0  0  0  0  0  0
   10.3097    1.6977   -0.6030 H   0  0  0  0  0  0  0  0  0  0  0  0
    8.2247    2.3411    0.3495 H   0  0  0  0  0  0  0  0  0  0  0  0
    6.4565    2.1843    2.0185 H   0  0  0  0  0  0  0  0  0  0  0  0
   -3.9302    0.0347    1.7144 H   0  0  0  0  0  0  0  0  0  0  0  0
   -5.5805    1.5995    2.2030 H   0  0  0  0  0  0  0  0  0  0  0  0
   -6.1569   -0.0899    2.4150 H   0  0  0  0  0  0  0  0  0  0  0  0
   -8.4858    0.6685    1.9763 H   0  0  0  0  0  0  0  0  0  0  0  0
   -7.7831    1.5417    3.3594 H   0  0  0  0  0  0  0  0  0  0  0  0
   -7.9230    2.3224    1.7656 H   0  0  0  0  0  0  0  0  0  0  0  0
  1  2  1  0
  2  3  1  0
  3  4  1  0
  4  5  2  0
  5  6  1  0
  6  7  1  0
  7  8  1  0
  8  9  2  0
  8 10  1  0
 10 11  1  0
 11 12  1  0
 12 13  1  0
 13 14  2  0
 13 15  1  0
 15 16  1  0
 16 17  1  0
 17 18  2  0
 18 19  1  0
 19 20  2  0
 20 21  1  0
 21 22  1  0
 20 23  1  0
 23 24  2  0
 10 25  1  0
 25 26  2  0
 25 27  1  0
 27 28  1  0
 28 29  2  0
 29 30  1  0
 30 31  1  0
 31 32  1  0
 29  4  1  0
 27  6  2  0
 24 17  1  0
  1 33  1  0
  1 34  1  0
  1 35  1  0
  2 36  1  0
  2 37  1  0
  5 38  1  0
  7 39  1  0
 11 40  1  0
 11 41  1  0
 12 42  1  0
 12 43  1  0
 15 44  1  0
 16 45  1  0
 16 46  1  0
 18 47  1  0
 19 48  1  0
 22 49  1  0
 22 50  1  0
 22 51  1  0
 23 52  1  0
 24 53  1  0
 28 54  1  0
 31 55  1  0
 31 56  1  0
 32 57  1  0
 32 58  1  0
 32 59  1  0
M  END
$$$$
