
     RDKit          3D

 68 70  0  0  0  0  0  0  0  0999 V2000
   -4.7979    4.9248    3.1637 C   0  0  0  0  0  0  0  0  0  0  0  0
   -4.8466    4.2882    1.8943 O   0  0  0  0  0  0  0  0  0  0  0  0
   -4.0109    3.2239    1.7006 C   0  0  0  0  0  0  0  0  0  0  0  0
   -4.0554    2.6730    0.4188 C   0  0  0  0  0  0  0  0  0  0  0  0
   -3.2509    1.5824    0.0805 C   0  0  0  0  0  0  0  0  0  0  0  0
   -2.3908    1.0120    1.0306 C   0  0  0  0  0  0  0  0  0  0  0  0
   -1.4892   -0.1787    0.6956 C   0  0  0  0  0  0  0  0  0  0  0  0
   -2.1984   -1.2314   -0.2148 C   0  0  0  0  0  0  0  0  0  0  0  0
   -1.7852   -1.5556   -1.3261 O   0  0  0  0  0  0  0  0  0  0  0  0
   -3.3484   -1.7717    0.3488 N   0  0  0  0  0  0  0  0  0  0  0  0
   -4.2574   -2.7067   -0.3315 C   0  0  0  0  0  0  0  0  0  0  0  0
   -5.3699   -3.0888    0.6612 C   0  0  0  0  0  0  0  0  0  0  0  0
   -4.9042   -2.0398   -1.5550 C   0  0  0  0  0  0  0  0  0  0  0  0
   -3.5281   -3.9926   -0.7508 C   0  0  0  0  0  0  0  0  0  0  0  0
   -0.1441    0.1925    0.2000 N   0  0  0  0  0  0  0  0  0  0  0  0
    0.8803   -0.7283    0.4345 C   0  0  0  0  0  0  0  0  0  0  0  0
    0.7021   -1.7463    1.1070 O   0  0  0  0  0  0  0  0  0  0  0  0
    2.2594   -0.3885   -0.1143 C   0  0  0  0  0  0  0  0  0  0  0  0
    3.3020   -1.4058    0.3404 C   0  0  0  0  0  0  0  0  0  0  0  0
    4.7061   -0.9992   -0.0610 C   0  0  0  0  0  0  0  0  0  0  0  0
    4.9602    0.0956   -0.5521 O   0  0  0  0  0  0  0  0  0  0  0  0
    5.6228   -1.9870    0.2194 N   0  0  0  0  0  0  0  0  0  0  0  0
    6.9790   -1.8997    0.0002 C   0  0  0  0  0  0  0  0  0  0  0  0
    7.7389   -0.8318   -0.5254 C   0  0  0  0  0  0  0  0  0  0  0  0
    9.0341   -1.2852   -0.5034 C   0  0  0  0  0  0  0  0  0  0  0  0
   10.3348   -0.7101   -0.8866 C   0  0  0  0  0  0  0  0  0  0  0  0
    9.0533   -2.5496   -0.0066 O   0  0  0  0  0  0  0  0  0  0  0  0
    7.7647   -2.9386    0.3085 N   0  0  0  0  0  0  0  0  0  0  0  0
   -0.0348    1.2022   -0.7926 C   0  0  0  0  0  0  0  0  0  0  0  0
    0.0442    2.5438   -0.3965 C   0  0  0  0  0  0  0  0  0  0  0  0
    0.1518    3.5577   -1.3514 C   0  0  0  0  0  0  0  0  0  0  0  0
    0.1897    3.2323   -2.7053 C   0  0  0  0  0  0  0  0  0  0  0  0
    0.1209    1.8976   -3.0919 C   0  0  0  0  0  0  0  0  0  0  0  0
    0.1611    1.5896   -4.3954 F   0  0  0  0  0  0  0  0  0  0  0  0
    0.0099    0.8796   -2.1511 C   0  0  0  0  0  0  0  0  0  0  0  0
   -2.3465    1.5747    2.3163 C   0  0  0  0  0  0  0  0  0  0  0  0
   -3.1513    2.6707    2.6487 C   0  0  0  0  0  0  0  0  0  0  0  0
   -5.5003    5.7637    3.1443 H   0  0  0  0  0  0  0  0  0  0  0  0
   -5.1165    4.2422    3.9580 H   0  0  0  0  0  0  0  0  0  0  0  0
   -3.8013    5.3302    3.3662 H   0  0  0  0  0  0  0  0  0  0  0  0
   -4.7173    3.1046   -0.3294 H   0  0  0  0  0  0  0  0  0  0  0  0
   -3.2959    1.1955   -0.9366 H   0  0  0  0  0  0  0  0  0  0  0  0
   -1.3381   -0.7165    1.6442 H   0  0  0  0  0  0  0  0  0  0  0  0
   -3.7069   -1.3094    1.1776 H   0  0  0  0  0  0  0  0  0  0  0  0
   -4.9535   -3.5610    1.5575 H   0  0  0  0  0  0  0  0  0  0  0  0
   -5.9258   -2.2038    0.9885 H   0  0  0  0  0  0  0  0  0  0  0  0
   -6.0857   -3.7866    0.2136 H   0  0  0  0  0  0  0  0  0  0  0  0
   -4.1639   -1.7843   -2.3198 H   0  0  0  0  0  0  0  0  0  0  0  0
   -5.6435   -2.7002   -2.0216 H   0  0  0  0  0  0  0  0  0  0  0  0
   -5.4142   -1.1116   -1.2731 H   0  0  0  0  0  0  0  0  0  0  0  0
   -4.2317   -4.7310   -1.1522 H   0  0  0  0  0  0  0  0  0  0  0  0
   -2.7775   -3.8105   -1.5266 H   0  0  0  0  0  0  0  0  0  0  0  0
   -3.0121   -4.4475    0.1032 H   0  0  0  0  0  0  0  0  0  0  0  0
    2.5362    0.6120    0.2379 H   0  0  0  0  0  0  0  0  0  0  0  0
    2.2306   -0.3830   -1.2075 H   0  0  0  0  0  0  0  0  0  0  0  0
    3.0770   -2.3878   -0.0934 H   0  0  0  0  0  0  0  0  0  0  0  0
    3.2839   -1.5050    1.4330 H   0  0  0  0  0  0  0  0  0  0  0  0
    5.3260   -2.8718    0.6115 H   0  0  0  0  0  0  0  0  0  0  0  0
    7.3980    0.1355   -0.8643 H   0  0  0  0  0  0  0  0  0  0  0  0
   10.2221    0.3249   -1.2235 H   0  0  0  0  0  0  0  0  0  0  0  0
   11.0228   -0.7158   -0.0364 H   0  0  0  0  0  0  0  0  0  0  0  0
   10.7865   -1.2866   -1.6997 H   0  0  0  0  0  0  0  0  0  0  0  0
    0.0246    2.8087    0.6576 H   0  0  0  0  0  0  0  0  0  0  0  0
    0.2057    4.5975   -1.0383 H   0  0  0  0  0  0  0  0  0  0  0  0
    0.2741    4.0059   -3.4616 H   0  0  0  0  0  0  0  0  0  0  0  0
   -0.0519   -0.1490   -2.4941 H   0  0  0  0  0  0  0  0  0  0  0  0
   -1.6776    1.1670    3.0719 H   0  0  0  0  0  0  0  0  0  0  0  0
   -3.0795    3.0682    3.6556 H   0  0  0  0  0  0  0  0  0  0  0  0
  1  2  1  0
  2  3  1  0
  3  4  2  0
  4  5  1  0
  5  6  2  0
  6  7  1  0
  7  8  1  0
  8  9  2  0
  8 10  1  0
 10 11  1  0
 11 12  1  0
 11 13  1  0
 11 14  1  0
  7 15  1  0
 15 16  1  0
 16 17  2  0
 16 18  1  0
 18 19  1  0
 19 20  1  0
 20 21  2  0
 20 22  1  0
 22 23  1  0
 23 24  1  0
 24 25  2  0
 25 26  1  0
 25 27  1  0
 27 28  1  0
 15 29  1  0
 29 30  2  0
 30 31  1  0
 31 32  2  0
 32 33  1  0
 33 34  1  0
 33 35  2  0
  6 36  1  0
 36 37  2  0
 37  3  1  0
 28 23  2  0
 35 29  1  0
  1 38  1  0
  1 39  1  0
  1 40  1  0
  4 41  1  0
  5 42  1  0
  7 43  1  0
 10 44  1  0
 12 45  1  0
 12 46  1  0
 12 47  1  0
 13 48  1  0
 13 49  1  0
 13 50  1  0
 14 51  1  0
 14 52  1  0
 14 53  1  0
 18 54  1  0
 18 55  1  0
 19 56  1  0
 19 57  1  0
 22 58  1  0
 24 59  1  0
 26 60  1  0
 26 61  1  0
 26 62  1  0
 30 63  1  0
 31 64  1  0
 32 65  1  0
 35 66  1  0
 36 67  1  0
 37 68  1  0
M  END
$$$$
