
     RDKit          3D

 37 37  0  0  0  0  0  0  0  0999 V2000
   -1.5452   -2.4078   -3.0090 C   0  0  0  0  0  0  0  0  0  0  0  0
   -1.3198   -1.4535   -1.9706 O   0  0  0  0  0  0  0  0  0  0  0  0
   -2.2676   -0.4712   -1.9048 C   0  0  0  0  0  0  0  0  0  0  0  0
   -3.2707   -0.4295   -2.6076 O   0  0  0  0  0  0  0  0  0  0  0  0
   -1.9698    0.5303   -0.7739 C   0  0  0  0  0  0  0  0  0  0  0  0
   -3.0289    0.3625    0.3236 C   0  0  0  0  0  0  0  0  0  0  0  0
   -2.9614    1.5014    1.3396 C   0  0  0  0  0  0  0  0  0  0  0  0
   -4.2802    1.3749    2.5939 S   0  0  0  0  0  0  0  0  0  0  0  0
   -3.6297    0.0072    3.5843 C   0  0  0  0  0  0  0  0  0  0  0  0
   -0.6254    0.3463   -0.2122 N   0  0  0  0  0  0  0  0  0  0  0  0
    0.4367    0.9823   -0.8046 C   0  0  0  0  0  0  0  0  0  0  0  0
    0.3372    1.7950   -1.7110 O   0  0  0  0  0  0  0  0  0  0  0  0
    1.6198    0.5813   -0.2472 N   0  0  0  0  0  0  0  0  0  0  0  0
    2.8435    1.2290   -0.6606 C   0  0  0  0  0  0  0  0  0  0  0  0
    3.9899    0.4996   -0.0400 C   0  0  0  0  0  0  0  0  0  0  0  0
    4.6856   -0.5840   -0.5408 C   0  0  0  0  0  0  0  0  0  0  0  0
    5.7220   -1.0159    0.3359 C   0  0  0  0  0  0  0  0  0  0  0  0
    5.7830   -0.2497    1.4780 C   0  0  0  0  0  0  0  0  0  0  0  0
    4.5953    0.9800    1.4905 S   0  0  0  0  0  0  0  0  0  0  0  0
   -1.5698   -1.9154   -3.9862 H   0  0  0  0  0  0  0  0  0  0  0  0
   -2.4736   -2.9579   -2.8267 H   0  0  0  0  0  0  0  0  0  0  0  0
   -0.7143   -3.1186   -3.0012 H   0  0  0  0  0  0  0  0  0  0  0  0
   -2.0338    1.5312   -1.2172 H   0  0  0  0  0  0  0  0  0  0  0  0
   -2.8879   -0.6066    0.8181 H   0  0  0  0  0  0  0  0  0  0  0  0
   -4.0270    0.3423   -0.1331 H   0  0  0  0  0  0  0  0  0  0  0  0
   -1.9919    1.5361    1.8467 H   0  0  0  0  0  0  0  0  0  0  0  0
   -3.0951    2.4606    0.8280 H   0  0  0  0  0  0  0  0  0  0  0  0
   -4.2676   -0.1318    4.4613 H   0  0  0  0  0  0  0  0  0  0  0  0
   -3.6310   -0.9226    3.0108 H   0  0  0  0  0  0  0  0  0  0  0  0
   -2.6160    0.2301    3.9270 H   0  0  0  0  0  0  0  0  0  0  0  0
   -0.3993   -0.6097    0.0320 H   0  0  0  0  0  0  0  0  0  0  0  0
    1.5603    0.3427    0.7319 H   0  0  0  0  0  0  0  0  0  0  0  0
    2.9104    1.2044   -1.7544 H   0  0  0  0  0  0  0  0  0  0  0  0
    2.8049    2.2798   -0.3518 H   0  0  0  0  0  0  0  0  0  0  0  0
    4.4591   -1.0457   -1.4950 H   0  0  0  0  0  0  0  0  0  0  0  0
    6.3897   -1.8457    0.1383 H   0  0  0  0  0  0  0  0  0  0  0  0
    6.4689   -0.3514    2.3079 H   0  0  0  0  0  0  0  0  0  0  0  0
  1  2  1  0
  2  3  1  0
  3  4  2  0
  3  5  1  0
  5  6  1  0
  6  7  1  0
  7  8  1  0
  8  9  1  0
  5 10  1  0
 10 11  1  0
 11 12  2  0
 11 13  1  0
 13 14  1  0
 14 15  1  0
 15 16  2  0
 16 17  1  0
 17 18  2  0
 18 19  1  0
 19 15  1  0
  1 20  1  0
  1 21  1  0
  1 22  1  0
  5 23  1  0
  6 24  1  0
  6 25  1  0
  7 26  1  0
  7 27  1  0
  9 28  1  0
  9 29  1  0
  9 30  1  0
 10 31  1  0
 13 32  1  0
 14 33  1  0
 14 34  1  0
 16 35  1  0
 17 36  1  0
 18 37  1  0
M  END
$$$$
