
     RDKit          3D

 36 38  0  0  0  0  0  0  0  0999 V2000
    4.5945    2.8149   -0.0498 C   0  0  0  0  0  0  0  0  0  0  0  0
    4.2329    1.3644    0.0888 C   0  0  0  0  0  0  0  0  0  0  0  0
    5.2364    0.3936    0.1509 C   0  0  0  0  0  0  0  0  0  0  0  0
    4.9295   -0.9671    0.2479 C   0  0  0  0  0  0  0  0  0  0  0  0
    3.5785   -1.3295    0.2700 C   0  0  0  0  0  0  0  0  0  0  0  0
    3.0012   -2.5747    0.3566 N   0  0  0  0  0  0  0  0  0  0  0  0
    1.6341   -2.4673    0.3409 C   0  0  0  0  0  0  0  0  0  0  0  0
    1.3131   -1.1301    0.2413 C   0  0  0  0  0  0  0  0  0  0  0  0
   -0.0055   -0.5759    0.1988 C   0  0  0  0  0  0  0  0  0  0  0  0
   -1.1546   -1.2726    0.1590 C   0  0  0  0  0  0  0  0  0  0  0  0
   -2.4812   -0.6487    0.1128 C   0  0  0  0  0  0  0  0  0  0  0  0
   -3.4531   -1.1771   -0.7343 C   0  0  0  0  0  0  0  0  0  0  0  0
   -4.7212   -0.6079   -0.7688 C   0  0  0  0  0  0  0  0  0  0  0  0
   -5.0230    0.4490    0.0179 N   0  0  0  0  0  4  0  0  0  0  0  0
   -6.3763    1.0284   -0.0279 C   0  0  0  0  0  0  0  0  0  0  0  0
   -4.1044    0.9625    0.8660 C   0  0  0  0  0  0  0  0  0  0  0  0
   -2.8232    0.4268    0.9313 C   0  0  0  0  0  0  0  0  0  0  0  0
    2.5428   -0.3972    0.1972 C   0  0  0  0  0  0  0  0  0  0  0  0
    2.8834    0.9710    0.0982 C   0  0  0  0  0  0  0  0  0  0  0  0
    4.6891    3.0770   -1.1081 H   0  0  0  0  0  0  0  0  0  0  0  0
    5.5415    3.0317    0.4555 H   0  0  0  0  0  0  0  0  0  0  0  0
    3.8304    3.4531    0.4063 H   0  0  0  0  0  0  0  0  0  0  0  0
    6.2835    0.6917    0.1246 H   0  0  0  0  0  0  0  0  0  0  0  0
    5.7193   -1.7099    0.3000 H   0  0  0  0  0  0  0  0  0  0  0  0
    3.5194   -3.4402    0.4229 H   0  0  0  0  0  0  0  0  0  0  0  0
    1.0262   -3.3588    0.4058 H   0  0  0  0  0  0  0  0  0  0  0  0
   -0.0514    0.5108    0.1844 H   0  0  0  0  0  0  0  0  0  0  0  0
   -1.1385   -2.3598    0.1362 H   0  0  0  0  0  0  0  0  0  0  0  0
   -3.2277   -2.0261   -1.3777 H   0  0  0  0  0  0  0  0  0  0  0  0
   -5.5009   -0.9927   -1.4203 H   0  0  0  0  0  0  0  0  0  0  0  0
   -6.7864    0.9018   -1.0332 H   0  0  0  0  0  0  0  0  0  0  0  0
   -6.3176    2.0944    0.2067 H   0  0  0  0  0  0  0  0  0  0  0  0
   -6.9838    0.4994    0.7105 H   0  0  0  0  0  0  0  0  0  0  0  0
   -4.4052    1.7978    1.4923 H   0  0  0  0  0  0  0  0  0  0  0  0
   -2.1035    0.8463    1.6321 H   0  0  0  0  0  0  0  0  0  0  0  0
    2.1016    1.7211    0.0289 H   0  0  0  0  0  0  0  0  0  0  0  0
  1  2  1  0
  2  3  2  0
  3  4  1  0
  4  5  2  0
  5  6  1  0
  6  7  1  0
  7  8  2  0
  8  9  1  0
  9 10  2  3
 10 11  1  0
 11 12  2  0
 12 13  1  0
 13 14  2  0
 14 15  1  0
 14 16  1  0
 16 17  2  0
  8 18  1  0
 18 19  2  0
 19  2  1  0
 18  5  1  0
 17 11  1  0
  1 20  1  0
  1 21  1  0
  1 22  1  0
  3 23  1  0
  4 24  1  0
  6 25  1  0
  7 26  1  0
  9 27  1  0
 10 28  1  0
 12 29  1  0
 13 30  1  0
 15 31  1  0
 15 32  1  0
 15 33  1  0
 16 34  1  0
 17 35  1  0
 19 36  1  0
M  CHG  1  14   1
M  END
$$$$
