
     RDKit          3D

 69 75  0  0  0  0  0  0  0  0999 V2000
   -3.8622    5.2497    1.4414 C   0  0  0  0  0  0  0  0  0  0  0  0
   -3.2237    4.1585    0.6347 C   0  0  0  0  0  0  0  0  0  0  0  0
   -3.2122    4.1939   -0.7725 C   0  0  0  0  0  0  0  0  0  0  0  0
   -3.9258    5.5098   -1.6425 Cl  0  0  0  0  0  0  0  0  0  0  0  0
   -2.6272    3.1624   -1.5326 C   0  0  0  0  0  0  0  0  0  0  0  0
   -2.0327    2.0646   -0.9096 C   0  0  0  0  0  0  0  0  0  0  0  0
   -2.0271    2.0203    0.4774 C   0  0  0  0  0  0  0  0  0  0  0  0
   -2.6262    3.0487    1.2226 C   0  0  0  0  0  0  0  0  0  0  0  0
   -2.5343    2.7575    2.5815 N   0  0  0  0  0  0  0  0  0  0  0  0
   -1.9074    1.5308    2.8127 C   0  0  0  0  0  0  0  0  0  0  0  0
   -1.7420    1.0437    3.9221 O   0  0  0  0  0  0  0  0  0  0  0  0
   -1.4785    0.9795    1.4259 C   0  0  1  0  0  0  0  0  0  0  0  0
   -2.0972   -0.3125    1.0704 C   0  0  0  0  0  0  0  0  0  0  0  0
   -1.1270   -1.2764    0.8044 C   0  0  0  0  0  0  0  0  0  0  0  0
   -1.7424   -2.4444    0.4494 C   0  0  0  0  0  0  0  0  0  0  0  0
   -1.1750   -3.5665    0.0105 O   0  0  0  0  0  0  0  0  0  0  0  0
   -3.1278   -2.2291    0.5706 N   0  0  0  0  0  0  0  0  0  0  0  0
   -4.1477   -3.1973    0.3358 C   0  0  0  0  0  0  0  0  0  0  0  0
   -3.9658   -4.5226    0.7532 C   0  0  0  0  0  0  0  0  0  0  0  0
   -4.9647   -5.4695    0.5196 C   0  0  0  0  0  0  0  0  0  0  0  0
   -6.1425   -5.0982   -0.1274 C   0  0  0  0  0  0  0  0  0  0  0  0
   -6.3273   -3.7795   -0.5420 C   0  0  0  0  0  0  0  0  0  0  0  0
   -5.3340   -2.8258   -0.3107 C   0  0  0  0  0  0  0  0  0  0  0  0
   -3.3335   -0.8932    0.9663 C   0  0  0  0  0  0  0  0  0  0  0  0
   -4.5193   -0.3574    1.2517 O   0  0  0  0  0  0  0  0  0  0  0  0
    0.2398   -0.7500    0.9813 C   0  0  1  0  0  0  0  0  0  0  0  0
    1.1479   -0.8657   -0.2559 C   0  0  0  0  0  0  0  0  0  0  0  0
    2.4223   -0.1587   -0.0414 N   0  0  0  0  0  0  0  0  0  0  0  0
    3.6020   -0.8433   -0.2752 C   0  0  0  0  0  0  0  0  0  0  0  0
    3.6335   -1.9743   -0.7516 O   0  0  0  0  0  0  0  0  0  0  0  0
    4.7394   -0.1794    0.1007 N   0  0  0  0  0  0  0  0  0  0  0  0
    6.0463   -0.7650   -0.1032 C   0  0  0  0  0  0  0  0  0  0  0  0
    6.6807   -0.2539   -1.3713 C   0  0  0  0  0  0  0  0  0  0  0  0
    7.5362    0.8565   -1.3499 C   0  0  0  0  0  0  0  0  0  0  0  0
    8.1046    1.3337   -2.5324 C   0  0  0  0  0  0  0  0  0  0  0  0
    7.8205    0.7089   -3.7465 C   0  0  0  0  0  0  0  0  0  0  0  0
    6.9620   -0.3883   -3.7810 C   0  0  0  0  0  0  0  0  0  0  0  0
    6.3920   -0.8651   -2.6003 C   0  0  0  0  0  0  0  0  0  0  0  0
    2.3274    1.1180    0.6838 C   0  0  0  0  0  0  0  0  0  0  0  0
    0.8823    1.6473    0.7898 C   0  0  0  0  0  0  0  0  0  0  0  0
   -0.0109    0.6744    1.4121 N   0  0  0  0  0  0  0  0  0  0  0  0
   -3.7403    5.1034    2.5178 H   0  0  0  0  0  0  0  0  0  0  0  0
   -3.4107    6.2183    1.2000 H   0  0  0  0  0  0  0  0  0  0  0  0
   -4.9372    5.2893    1.2389 H   0  0  0  0  0  0  0  0  0  0  0  0
   -2.6422    3.2139   -2.6195 H   0  0  0  0  0  0  0  0  0  0  0  0
   -1.5933    1.2643   -1.4979 H   0  0  0  0  0  0  0  0  0  0  0  0
   -2.9153    3.3026    3.3388 H   0  0  0  0  0  0  0  0  0  0  0  0
   -1.8384   -4.1076   -0.4515 H   0  0  0  0  0  0  0  0  0  0  0  0
   -3.0767   -4.8281    1.3024 H   0  0  0  0  0  0  0  0  0  0  0  0
   -4.8294   -6.4959    0.8528 H   0  0  0  0  0  0  0  0  0  0  0  0
   -6.9195   -5.8378   -0.3076 H   0  0  0  0  0  0  0  0  0  0  0  0
   -7.2443   -3.4966   -1.0544 H   0  0  0  0  0  0  0  0  0  0  0  0
   -5.4859   -1.8141   -0.6836 H   0  0  0  0  0  0  0  0  0  0  0  0
   -5.1445   -1.0723    1.4723 H   0  0  0  0  0  0  0  0  0  0  0  0
    0.7207   -1.2598    1.8259 H   0  0  0  0  0  0  0  0  0  0  0  0
    0.6740   -0.4073   -1.1339 H   0  0  0  0  0  0  0  0  0  0  0  0
    1.3139   -1.9191   -0.5043 H   0  0  0  0  0  0  0  0  0  0  0  0
    4.7074    0.8241    0.0483 H   0  0  0  0  0  0  0  0  0  0  0  0
    6.6594   -0.4900    0.7617 H   0  0  0  0  0  0  0  0  0  0  0  0
    5.9890   -1.8593   -0.1177 H   0  0  0  0  0  0  0  0  0  0  0  0
    7.7675    1.3564   -0.4117 H   0  0  0  0  0  0  0  0  0  0  0  0
    8.7715    2.1915   -2.5063 H   0  0  0  0  0  0  0  0  0  0  0  0
    8.2656    1.0793   -4.6660 H   0  0  0  0  0  0  0  0  0  0  0  0
    6.7342   -0.8762   -4.7262 H   0  0  0  0  0  0  0  0  0  0  0  0
    5.7138   -1.7170   -2.6368 H   0  0  0  0  0  0  0  0  0  0  0  0
    2.7525    0.9674    1.6837 H   0  0  0  0  0  0  0  0  0  0  0  0
    2.9427    1.8593    0.1634 H   0  0  0  0  0  0  0  0  0  0  0  0
    0.8822    2.5762    1.3712 H   0  0  0  0  0  0  0  0  0  0  0  0
    0.5612    1.8931   -0.2276 H   0  0  0  0  0  0  0  0  0  0  0  0
  1  2  1  0
  2  3  2  0
  3  4  1  0
  3  5  1  0
  5  6  2  0
  6  7  1  0
  7  8  2  0
  8  9  1  0
  9 10  1  0
 10 11  2  0
 10 12  1  0
 12 13  1  0
 13 14  1  0
 14 15  2  0
 15 16  1  0
 15 17  1  0
 17 18  1  0
 18 19  2  0
 19 20  1  0
 20 21  2  0
 21 22  1  0
 22 23  2  0
 17 24  1  0
 24 25  1  0
 14 26  1  0
 26 27  1  0
 27 28  1  0
 28 29  1  0
 29 30  2  0
 29 31  1  0
 31 32  1  0
 32 33  1  0
 33 34  2  0
 34 35  1  0
 35 36  2  0
 36 37  1  0
 37 38  2  0
 28 39  1  0
 39 40  1  0
 40 41  1  0
  8  2  1  0
 12 41  1  1
 12  7  1  0
 24 13  2  0
 41 26  1  0
 23 18  1  0
 38 33  1  0
  1 42  1  0
  1 43  1  0
  1 44  1  0
  5 45  1  0
  6 46  1  0
  9 47  1  0
 16 48  1  0
 19 49  1  0
 20 50  1  0
 21 51  1  0
 22 52  1  0
 23 53  1  0
 25 54  1  0
 26 55  1  1
 27 56  1  0
 27 57  1  0
 31 58  1  0
 32 59  1  0
 32 60  1  0
 34 61  1  0
 35 62  1  0
 36 63  1  0
 37 64  1  0
 38 65  1  0
 39 66  1  0
 39 67  1  0
 40 68  1  0
 40 69  1  0
M  END
$$$$
