
     RDKit          3D

 53 55  0  0  0  0  0  0  0  0999 V2000
    7.8335    0.7346   -1.1922 C   0  0  0  0  0  0  0  0  0  0  0  0
    7.0348    1.1530   -0.0929 O   0  0  0  0  0  0  0  0  0  0  0  0
    6.2666    0.1966    0.5120 C   0  0  0  0  0  0  0  0  0  0  0  0
    5.4832    0.6605    1.5706 C   0  0  0  0  0  0  0  0  0  0  0  0
    4.6499   -0.2103    2.2765 C   0  0  0  0  0  0  0  0  0  0  0  0
    4.5942   -1.5675    1.9374 C   0  0  0  0  0  0  0  0  0  0  0  0
    3.6750   -2.5014    2.6801 C   0  0  0  0  0  0  0  0  0  0  0  0
    2.3643   -2.5101    2.0861 N   0  0  0  0  0  0  0  0  0  0  0  0
    1.3499   -1.6987    2.5347 C   0  0  0  0  0  0  0  0  0  0  0  0
    1.3627   -1.0057    3.5423 O   0  0  0  0  0  0  0  0  0  0  0  0
    0.1102   -1.7022    1.6113 C   0  0  0  0  0  0  0  0  0  0  0  0
    0.1231   -2.3345    0.5650 O   0  0  0  0  0  0  0  0  0  0  0  0
   -0.9291   -0.9290    2.0727 N   0  0  0  0  0  0  0  0  0  0  0  0
   -2.0865   -0.6405    1.2424 C   0  0  0  0  0  0  0  0  0  0  0  0
   -1.7783    0.3138    0.0681 C   0  0  0  0  0  0  0  0  0  0  0  0
   -1.1847    1.5245    0.6020 O   0  0  0  0  0  0  0  0  0  0  0  0
   -2.0817    2.6031    0.3301 C   0  0  0  0  0  0  0  0  0  0  0  0
   -2.8557    2.1623   -0.8885 C   0  0  0  0  0  0  0  0  0  0  0  0
   -3.0215    0.7264   -0.6255 N   0  0  0  0  0  0  0  0  0  0  0  0
   -3.4344   -0.2580   -1.9349 S   0  0  0  0  0  6  0  0  0  0  0  0
   -3.6377   -1.6008   -1.4390 O   0  0  0  0  0  0  0  0  0  0  0  0
   -2.5019    0.0183   -3.0063 O   0  0  0  0  0  0  0  0  0  0  0  0
   -5.0249    0.3820   -2.3968 C   0  0  0  0  0  0  0  0  0  0  0  0
   -5.1764    1.0899   -3.5922 C   0  0  0  0  0  0  0  0  0  0  0  0
   -6.4337    1.5847   -3.9386 C   0  0  0  0  0  0  0  0  0  0  0  0
   -7.5274    1.3668   -3.0979 C   0  0  0  0  0  0  0  0  0  0  0  0
   -7.3715    0.6498   -1.9099 C   0  0  0  0  0  0  0  0  0  0  0  0
   -6.1183    0.1514   -1.5560 C   0  0  0  0  0  0  0  0  0  0  0  0
    5.3739   -2.0280    0.8682 C   0  0  0  0  0  0  0  0  0  0  0  0
    6.2078   -1.1524    0.1623 C   0  0  0  0  0  0  0  0  0  0  0  0
    7.2121    0.3559   -2.0106 H   0  0  0  0  0  0  0  0  0  0  0  0
    8.3752    1.6098   -1.5640 H   0  0  0  0  0  0  0  0  0  0  0  0
    8.5752   -0.0084   -0.8812 H   0  0  0  0  0  0  0  0  0  0  0  0
    5.5176    1.7118    1.8456 H   0  0  0  0  0  0  0  0  0  0  0  0
    4.0392    0.1784    3.0898 H   0  0  0  0  0  0  0  0  0  0  0  0
    4.0616   -3.5257    2.6423 H   0  0  0  0  0  0  0  0  0  0  0  0
    3.6130   -2.2157    3.7364 H   0  0  0  0  0  0  0  0  0  0  0  0
    2.2359   -2.9128    1.1621 H   0  0  0  0  0  0  0  0  0  0  0  0
   -0.7075   -0.3124    2.8506 H   0  0  0  0  0  0  0  0  0  0  0  0
   -2.4857   -1.5905    0.8747 H   0  0  0  0  0  0  0  0  0  0  0  0
   -2.8327   -0.1926    1.9083 H   0  0  0  0  0  0  0  0  0  0  0  0
   -1.0427   -0.1166   -0.6195 H   0  0  0  0  0  0  0  0  0  0  0  0
   -2.7365    2.7283    1.1997 H   0  0  0  0  0  0  0  0  0  0  0  0
   -1.5225    3.5286    0.1703 H   0  0  0  0  0  0  0  0  0  0  0  0
   -3.8102    2.6868   -0.9704 H   0  0  0  0  0  0  0  0  0  0  0  0
   -2.2591    2.3290   -1.7915 H   0  0  0  0  0  0  0  0  0  0  0  0
   -4.3308    1.2546   -4.2562 H   0  0  0  0  0  0  0  0  0  0  0  0
   -6.5647    2.1347   -4.8678 H   0  0  0  0  0  0  0  0  0  0  0  0
   -8.5073    1.7498   -3.3742 H   0  0  0  0  0  0  0  0  0  0  0  0
   -8.2291    0.4745   -1.2645 H   0  0  0  0  0  0  0  0  0  0  0  0
   -5.9982   -0.4148   -0.6350 H   0  0  0  0  0  0  0  0  0  0  0  0
    5.3377   -3.0747    0.5737 H   0  0  0  0  0  0  0  0  0  0  0  0
    6.7941   -1.5566   -0.6558 H   0  0  0  0  0  0  0  0  0  0  0  0
  1  2  1  0
  2  3  1  0
  3  4  2  0
  4  5  1  0
  5  6  2  0
  6  7  1  0
  7  8  1  0
  8  9  1  0
  9 10  2  0
  9 11  1  0
 11 12  2  0
 11 13  1  0
 13 14  1  0
 14 15  1  0
 15 16  1  0
 16 17  1  0
 17 18  1  0
 18 19  1  0
 19 20  1  0
 20 21  2  0
 20 22  2  0
 20 23  1  0
 23 24  2  0
 24 25  1  0
 25 26  2  0
 26 27  1  0
 27 28  2  0
  6 29  1  0
 29 30  2  0
 30  3  1  0
 19 15  1  0
 28 23  1  0
  1 31  1  0
  1 32  1  0
  1 33  1  0
  4 34  1  0
  5 35  1  0
  7 36  1  0
  7 37  1  0
  8 38  1  0
 13 39  1  0
 14 40  1  0
 14 41  1  0
 15 42  1  0
 17 43  1  0
 17 44  1  0
 18 45  1  0
 18 46  1  0
 24 47  1  0
 25 48  1  0
 26 49  1  0
 27 50  1  0
 28 51  1  0
 29 52  1  0
 30 53  1  0
M  END
$$$$
