
     RDKit          3D

 59 64  0  0  0  0  0  0  0  0999 V2000
    2.9497    0.8602   -2.6393 O   0  0  0  0  0  0  0  0  0  0  0  0
    3.0709    0.0315   -1.7403 C   0  0  0  0  0  0  0  0  0  0  0  0
    4.1274    0.1967   -0.7099 C   0  0  0  0  0  0  0  0  0  0  0  0
    4.5858    1.4278   -0.4368 C   0  0  0  0  0  0  0  0  0  0  0  0
    5.6162    1.7109    0.5116 C   0  0  0  0  0  0  0  0  0  0  0  0
    6.2679    2.9239    0.6833 C   0  0  0  0  0  0  0  0  0  0  0  0
    7.2455    2.9026    1.7195 C   0  0  0  0  0  0  0  0  0  0  0  0
    7.3175    1.6721    2.3268 C   0  0  0  0  0  0  0  0  0  0  0  0
    6.2129    0.5609    1.6513 S   0  0  0  0  0  0  0  0  0  0  0  0
    2.2622   -1.0935   -1.6287 N   0  0  0  0  0  0  0  0  0  0  0  0
    1.2462   -1.3046   -2.6539 C   0  0  0  0  0  0  0  0  0  0  0  0
   -0.0991   -0.7552   -2.1775 C   0  0  0  0  0  0  0  0  0  0  0  0
   -0.5187   -1.3629   -0.8064 C   0  0  0  0  0  0  0  0  0  0  0  0
    0.6559   -1.2354    0.2047 C   0  0  0  0  0  0  0  0  0  0  0  0
    1.9680   -1.7751   -0.3708 C   0  0  0  0  0  0  0  0  0  0  0  0
   -0.7154   -2.7733   -1.1022 O   0  0  0  0  0  0  0  0  0  0  0  0
   -1.4883   -3.5064   -0.2529 C   0  0  0  0  0  0  0  0  0  0  0  0
   -1.4569   -4.8900   -0.4373 C   0  0  0  0  0  0  0  0  0  0  0  0
   -2.1978   -5.7239    0.4019 C   0  0  0  0  0  0  0  0  0  0  0  0
   -2.9671   -5.1678    1.4191 C   0  0  0  0  0  0  0  0  0  0  0  0
   -3.6717   -5.9716    2.2251 F   0  0  0  0  0  0  0  0  0  0  0  0
   -3.0169   -3.7934    1.6087 C   0  0  0  0  0  0  0  0  0  0  0  0
   -2.2804   -2.9670    0.7562 C   0  0  0  0  0  0  0  0  0  0  0  0
   -2.3212   -1.5080    0.9127 C   0  0  0  0  0  0  0  0  0  0  0  0
   -2.7248   -1.0218    1.9656 O   0  0  0  0  0  0  0  0  0  0  0  0
   -1.8221   -0.6979   -0.2782 C   0  0  0  0  0  0  0  0  0  0  0  0
   -1.7102    0.7796    0.0712 C   0  0  0  0  0  0  0  0  0  0  0  0
   -3.0274    1.2422   -0.4524 C   0  0  0  0  0  0  0  0  0  0  0  0
   -3.5696    2.5861   -0.1413 C   0  0  0  0  0  0  0  0  0  0  0  0
   -2.8344    3.5208    0.5967 C   0  0  0  0  0  0  0  0  0  0  0  0
   -3.3763    4.7802    0.8685 C   0  0  0  0  0  0  0  0  0  0  0  0
   -4.6491    5.1108    0.4050 C   0  0  0  0  0  0  0  0  0  0  0  0
   -5.3844    4.1846   -0.3322 C   0  0  0  0  0  0  0  0  0  0  0  0
   -4.8468    2.9255   -0.6057 C   0  0  0  0  0  0  0  0  0  0  0  0
   -3.6363    0.3935   -1.2184 N   0  0  0  0  0  0  0  0  0  0  0  0
   -2.8409   -0.7693   -1.2897 O   0  0  0  0  0  0  0  0  0  0  0  0
    4.5293   -0.6983   -0.2582 H   0  0  0  0  0  0  0  0  0  0  0  0
    4.1686    2.2786   -0.9744 H   0  0  0  0  0  0  0  0  0  0  0  0
    6.0537    3.7983    0.0792 H   0  0  0  0  0  0  0  0  0  0  0  0
    7.8625    3.7469    2.0020 H   0  0  0  0  0  0  0  0  0  0  0  0
    7.9661    1.3708    3.1379 H   0  0  0  0  0  0  0  0  0  0  0  0
    1.5362   -0.8220   -3.5935 H   0  0  0  0  0  0  0  0  0  0  0  0
    1.1859   -2.3808   -2.8533 H   0  0  0  0  0  0  0  0  0  0  0  0
   -0.8490   -0.9887   -2.9431 H   0  0  0  0  0  0  0  0  0  0  0  0
   -0.0218    0.3347   -2.1149 H   0  0  0  0  0  0  0  0  0  0  0  0
    0.4407   -1.7872    1.1267 H   0  0  0  0  0  0  0  0  0  0  0  0
    0.7996   -0.1838    0.4806 H   0  0  0  0  0  0  0  0  0  0  0  0
    1.8977   -2.8496   -0.5752 H   0  0  0  0  0  0  0  0  0  0  0  0
    2.7611   -1.6392    0.3666 H   0  0  0  0  0  0  0  0  0  0  0  0
   -0.8524   -5.3206   -1.2322 H   0  0  0  0  0  0  0  0  0  0  0  0
   -2.1802   -6.8016    0.2697 H   0  0  0  0  0  0  0  0  0  0  0  0
   -3.6315   -3.3800    2.4030 H   0  0  0  0  0  0  0  0  0  0  0  0
   -1.5882    0.9780    1.1385 H   0  0  0  0  0  0  0  0  0  0  0  0
   -0.9259    1.3064   -0.4774 H   0  0  0  0  0  0  0  0  0  0  0  0
   -1.8396    3.2974    0.9693 H   0  0  0  0  0  0  0  0  0  0  0  0
   -2.8049    5.5053    1.4430 H   0  0  0  0  0  0  0  0  0  0  0  0
   -5.0686    6.0909    0.6183 H   0  0  0  0  0  0  0  0  0  0  0  0
   -6.3771    4.4400   -0.6948 H   0  0  0  0  0  0  0  0  0  0  0  0
   -5.4325    2.2118   -1.1819 H   0  0  0  0  0  0  0  0  0  0  0  0
  1  2  2  0
  2  3  1  0
  3  4  2  3
  4  5  1  0
  5  6  2  0
  6  7  1  0
  7  8  2  0
  8  9  1  0
  2 10  1  0
 10 11  1  0
 11 12  1  0
 12 13  1  0
 13 14  1  0
 14 15  1  0
 13 16  1  0
 16 17  1  0
 17 18  2  0
 18 19  1  0
 19 20  2  0
 20 21  1  0
 20 22  1  0
 22 23  2  0
 23 24  1  0
 24 25  2  0
 24 26  1  0
 26 27  1  0
 27 28  1  0
 28 29  1  0
 29 30  2  0
 30 31  1  0
 31 32  2  0
 32 33  1  0
 33 34  2  0
 28 35  2  0
 35 36  1  0
  9  5  1  0
 15 10  1  0
 23 17  1  0
 36 26  1  0
 26 13  1  0
 34 29  1  0
  3 37  1  0
  4 38  1  0
  6 39  1  0
  7 40  1  0
  8 41  1  0
 11 42  1  0
 11 43  1  0
 12 44  1  0
 12 45  1  0
 14 46  1  0
 14 47  1  0
 15 48  1  0
 15 49  1  0
 18 50  1  0
 19 51  1  0
 22 52  1  0
 27 53  1  0
 27 54  1  0
 30 55  1  0
 31 56  1  0
 32 57  1  0
 33 58  1  0
 34 59  1  0
M  END
$$$$
