
     RDKit          3D

 61 66  0  0  0  0  0  0  0  0999 V2000
   -3.6185    1.9656   -2.9373 C   0  0  0  0  0  0  0  0  0  0  0  0
   -2.5559    1.8343   -1.8400 C   0  0  0  0  0  0  0  0  0  0  0  0
   -2.0005    3.2124   -1.4639 C   0  0  0  0  0  0  0  0  0  0  0  0
   -3.0689    1.1059   -0.6000 C   0  0  0  0  0  0  0  0  0  0  0  0
   -4.2345    1.5804    0.0368 C   0  0  0  0  0  0  0  0  0  0  0  0
   -4.6889    1.0291    1.2391 C   0  0  0  0  0  0  0  0  0  0  0  0
   -3.9813   -0.0040    1.8468 C   0  0  0  0  0  0  0  0  0  0  0  0
   -2.8252   -0.4972    1.2468 C   0  0  0  0  0  0  0  0  0  0  0  0
   -2.3787    0.0410    0.0260 C   0  0  0  0  0  0  0  0  0  0  0  0
   -1.2271   -0.5465   -0.5516 N   0  0  0  0  0  0  0  0  0  0  0  0
    0.0529   -0.5756   -0.0346 C   0  0  0  0  0  0  0  0  0  0  0  0
    0.5240    0.1106    1.4856 S   0  0  0  0  0  0  0  0  0  0  0  0
    1.7059    1.3851    0.9541 C   0  0  0  0  0  0  0  0  0  0  0  0
    2.9952    0.8334    0.3939 C   0  0  0  0  0  0  0  0  0  0  0  0
    3.2609    1.1209   -0.8948 C   0  0  0  0  0  0  0  0  0  0  0  0
    4.3600    0.5331   -1.6617 C   0  0  0  0  0  0  0  0  0  0  0  0
    4.6429    0.9445   -2.7801 O   0  0  0  0  0  0  0  0  0  0  0  0
    5.0044   -0.5241   -1.0663 O   0  0  0  0  0  0  0  0  0  0  0  0
    4.8241   -0.7977    0.3065 C   0  0  0  0  0  0  0  0  0  0  0  0
    5.6476   -1.8112    0.7839 C   0  0  0  0  0  0  0  0  0  0  0  0
    5.6247   -2.1221    2.1315 C   0  0  0  0  0  0  0  0  0  0  0  0
    4.8318   -1.3860    3.0146 C   0  0  0  0  0  0  0  0  0  0  0  0
    4.8988   -1.7111    4.3803 C   0  0  0  0  0  0  0  0  0  0  0  0
    4.1886   -0.9866    5.3295 C   0  0  0  0  0  0  0  0  0  0  0  0
    3.4202    0.0887    4.9204 C   0  0  0  0  0  0  0  0  0  0  0  0
    3.3378    0.4141    3.5601 C   0  0  0  0  0  0  0  0  0  0  0  0
    3.9990   -0.3244    2.5422 C   0  0  0  0  0  0  0  0  0  0  0  0
    3.9332   -0.0742    1.1239 C   0  0  0  0  0  0  0  0  0  0  0  0
    0.8749   -1.1202   -0.8971 N   0  0  0  0  0  0  0  0  0  0  0  0
    0.1432   -1.4966   -1.9906 N   0  0  0  0  0  0  0  0  0  0  0  0
   -1.1289   -1.2113   -1.7718 C   0  0  0  0  0  0  0  0  0  0  0  0
   -2.2160   -1.5639   -2.6839 C   0  0  0  0  0  0  0  0  0  0  0  0
   -3.4646   -2.0216   -2.2549 C   0  0  0  0  0  0  0  0  0  0  0  0
   -4.4480   -2.3441   -3.1900 C   0  0  0  0  0  0  0  0  0  0  0  0
   -4.1503   -2.2076   -4.5346 C   0  0  0  0  0  0  0  0  0  0  0  0
   -2.9554   -1.7834   -4.9928 N   0  0  0  0  0  0  0  0  0  0  0  0
   -2.0153   -1.4866   -4.0605 C   0  0  0  0  0  0  0  0  0  0  0  0
   -3.1717    2.3712   -3.8525 H   0  0  0  0  0  0  0  0  0  0  0  0
   -4.4338    2.6377   -2.6471 H   0  0  0  0  0  0  0  0  0  0  0  0
   -4.0593    0.9941   -3.1826 H   0  0  0  0  0  0  0  0  0  0  0  0
   -1.7217    1.2842   -2.2830 H   0  0  0  0  0  0  0  0  0  0  0  0
   -1.2347    3.1274   -0.6821 H   0  0  0  0  0  0  0  0  0  0  0  0
   -2.7853    3.8832   -1.0941 H   0  0  0  0  0  0  0  0  0  0  0  0
   -1.5362    3.6900   -2.3357 H   0  0  0  0  0  0  0  0  0  0  0  0
   -4.7961    2.4132   -0.3865 H   0  0  0  0  0  0  0  0  0  0  0  0
   -5.5890    1.4219    1.7085 H   0  0  0  0  0  0  0  0  0  0  0  0
   -4.3296   -0.4267    2.7877 H   0  0  0  0  0  0  0  0  0  0  0  0
   -2.2964   -1.3188    1.7305 H   0  0  0  0  0  0  0  0  0  0  0  0
    1.8971    2.0915    1.7641 H   0  0  0  0  0  0  0  0  0  0  0  0
    1.1808    1.9931    0.2044 H   0  0  0  0  0  0  0  0  0  0  0  0
    2.6230    1.7669   -1.4901 H   0  0  0  0  0  0  0  0  0  0  0  0
    6.3031   -2.3509    0.1070 H   0  0  0  0  0  0  0  0  0  0  0  0
    6.2662   -2.9246    2.4915 H   0  0  0  0  0  0  0  0  0  0  0  0
    5.5217   -2.5360    4.7221 H   0  0  0  0  0  0  0  0  0  0  0  0
    4.2558   -1.2476    6.3821 H   0  0  0  0  0  0  0  0  0  0  0  0
    2.8848    0.6873    5.6540 H   0  0  0  0  0  0  0  0  0  0  0  0
    2.7630    1.3001    3.3320 H   0  0  0  0  0  0  0  0  0  0  0  0
   -3.6885   -2.1489   -1.1999 H   0  0  0  0  0  0  0  0  0  0  0  0
   -5.4223   -2.6986   -2.8748 H   0  0  0  0  0  0  0  0  0  0  0  0
   -4.8831   -2.4484   -5.3004 H   0  0  0  0  0  0  0  0  0  0  0  0
   -1.0595   -1.1645   -4.4709 H   0  0  0  0  0  0  0  0  0  0  0  0
  1  2  1  0
  2  3  1  0
  2  4  1  0
  4  5  2  0
  5  6  1  0
  6  7  2  0
  7  8  1  0
  8  9  2  0
  9 10  1  0
 10 11  1  0
 11 12  1  0
 12 13  1  0
 13 14  1  0
 14 15  2  0
 15 16  1  0
 16 17  2  0
 16 18  1  0
 18 19  1  0
 19 20  2  0
 20 21  1  0
 21 22  2  0
 22 23  1  0
 23 24  2  0
 24 25  1  0
 25 26  2  0
 26 27  1  0
 27 28  2  0
 11 29  2  0
 29 30  1  0
 30 31  2  0
 31 32  1  0
 32 33  2  0
 33 34  1  0
 34 35  2  0
 35 36  1  0
 36 37  2  0
  9  4  1  0
 31 10  1  0
 37 32  1  0
 28 14  1  0
 28 19  1  0
 27 22  1  0
  1 38  1  0
  1 39  1  0
  1 40  1  0
  2 41  1  0
  3 42  1  0
  3 43  1  0
  3 44  1  0
  5 45  1  0
  6 46  1  0
  7 47  1  0
  8 48  1  0
 13 49  1  0
 13 50  1  0
 15 51  1  0
 20 52  1  0
 21 53  1  0
 23 54  1  0
 24 55  1  0
 25 56  1  0
 26 57  1  0
 33 58  1  0
 34 59  1  0
 35 60  1  0
 37 61  1  0
M  END
$$$$
