
     RDKit          3D

 40 41  0  0  0  0  0  0  0  0999 V2000
   -6.8967   -0.1335   -0.6994 C   0  0  0  0  0  0  0  0  0  0  0  0
   -5.4303   -0.0857   -0.3838 C   0  0  0  0  0  0  0  0  0  0  0  0
   -4.7361    1.1186   -0.4236 C   0  0  0  0  0  0  0  0  0  0  0  0
   -3.3731    1.1315   -0.1562 C   0  0  0  0  0  0  0  0  0  0  0  0
   -2.7036   -0.0619    0.1370 C   0  0  0  0  0  0  0  0  0  0  0  0
   -1.2713   -0.0452    0.4470 C   0  0  0  0  0  0  0  0  0  0  0  0
   -0.3492    0.3376   -0.4507 C   0  0  0  0  0  0  0  0  0  0  0  0
    1.0912    0.3929   -0.1653 C   0  0  0  0  0  0  0  0  0  0  0  0
    1.8576    1.4001   -0.7498 C   0  0  0  0  0  0  0  0  0  0  0  0
    3.2402    1.4776   -0.5176 C   0  0  0  0  0  0  0  0  0  0  0  0
    3.9228    0.5485    0.2847 C   0  0  0  0  0  0  0  0  0  0  0  0
    5.2940    0.6425    0.5334 N   0  0  0  0  0  0  0  0  0  0  0  0
    6.1089    1.5676   -0.2539 C   0  0  0  0  0  0  0  0  0  0  0  0
    6.0051   -0.5104    1.0850 C   0  0  0  0  0  0  0  0  0  0  0  0
    3.1275   -0.4596    0.8554 C   0  0  0  0  0  0  0  0  0  0  0  0
    1.7434   -0.5466    0.6322 C   0  0  0  0  0  0  0  0  0  0  0  0
   -3.3954   -1.2336    0.1566 N   0  0  0  0  0  4  0  0  0  0  0  0
   -2.7047   -2.5104    0.4287 C   0  0  0  0  0  0  0  0  0  0  0  0
   -4.7255   -1.2548   -0.1015 C   0  0  0  0  0  0  0  0  0  0  0  0
   -7.3935    0.7908   -0.3862 H   0  0  0  0  0  0  0  0  0  0  0  0
   -7.3831   -0.9594   -0.1697 H   0  0  0  0  0  0  0  0  0  0  0  0
   -7.0435   -0.2680   -1.7755 H   0  0  0  0  0  0  0  0  0  0  0  0
   -5.2492    2.0516   -0.6563 H   0  0  0  0  0  0  0  0  0  0  0  0
   -2.8348    2.0784   -0.1705 H   0  0  0  0  0  0  0  0  0  0  0  0
   -0.9950   -0.3382    1.4564 H   0  0  0  0  0  0  0  0  0  0  0  0
   -0.6330    0.6603   -1.4519 H   0  0  0  0  0  0  0  0  0  0  0  0
    1.3994    2.1545   -1.3856 H   0  0  0  0  0  0  0  0  0  0  0  0
    3.7694    2.2998   -0.9909 H   0  0  0  0  0  0  0  0  0  0  0  0
    5.7704    2.6014   -0.1257 H   0  0  0  0  0  0  0  0  0  0  0  0
    7.1554    1.5526    0.0708 H   0  0  0  0  0  0  0  0  0  0  0  0
    6.0880    1.3018   -1.3165 H   0  0  0  0  0  0  0  0  0  0  0  0
    5.9118   -1.3810    0.4264 H   0  0  0  0  0  0  0  0  0  0  0  0
    5.6338   -0.7631    2.0839 H   0  0  0  0  0  0  0  0  0  0  0  0
    7.0741   -0.3016    1.2056 H   0  0  0  0  0  0  0  0  0  0  0  0
    3.5689   -1.2132    1.5013 H   0  0  0  0  0  0  0  0  0  0  0  0
    1.2048   -1.3675    1.0954 H   0  0  0  0  0  0  0  0  0  0  0  0
   -2.3147   -2.4754    1.4492 H   0  0  0  0  0  0  0  0  0  0  0  0
   -3.4061   -3.3437    0.3378 H   0  0  0  0  0  0  0  0  0  0  0  0
   -1.9052   -2.6337   -0.3065 H   0  0  0  0  0  0  0  0  0  0  0  0
   -5.2226   -2.2214   -0.0814 H   0  0  0  0  0  0  0  0  0  0  0  0
  1  2  1  0
  2  3  2  0
  3  4  1  0
  4  5  2  0
  5  6  1  0
  6  7  2  3
  7  8  1  0
  8  9  2  0
  9 10  1  0
 10 11  2  0
 11 12  1  0
 12 13  1  0
 12 14  1  0
 11 15  1  0
 15 16  2  0
  5 17  1  0
 17 18  1  0
 17 19  2  0
 19  2  1  0
 16  8  1  0
  1 20  1  0
  1 21  1  0
  1 22  1  0
  3 23  1  0
  4 24  1  0
  6 25  1  0
  7 26  1  0
  9 27  1  0
 10 28  1  0
 13 29  1  0
 13 30  1  0
 13 31  1  0
 14 32  1  0
 14 33  1  0
 14 34  1  0
 15 35  1  0
 16 36  1  0
 18 37  1  0
 18 38  1  0
 18 39  1  0
 19 40  1  0
M  CHG  1  17   1
M  END
$$$$
