
     RDKit          3D

 58 62  0  0  0  0  0  0  0  0999 V2000
    7.0453    3.7232    0.8853 C   0  0  0  0  0  0  0  0  0  0  0  0
    6.7872    2.6060    0.0470 O   0  0  0  0  0  0  0  0  0  0  0  0
    5.4971    2.1465    0.0186 C   0  0  0  0  0  0  0  0  0  0  0  0
    5.3074    0.9730   -0.7130 C   0  0  0  0  0  0  0  0  0  0  0  0
    4.0401    0.3934   -0.8216 C   0  0  0  0  0  0  0  0  0  0  0  0
    2.9409    0.9854   -0.1991 C   0  0  0  0  0  0  0  0  0  0  0  0
    1.5657    0.3698   -0.3105 C   0  0  0  0  0  0  0  0  0  0  0  0
    1.0523   -0.1491    1.0387 C   0  0  0  0  0  0  0  0  0  0  0  0
   -0.3056   -0.7118    0.9026 N   0  0  0  0  0  0  0  0  0  0  0  0
   -1.4002    0.1611    0.9656 C   0  0  0  0  0  0  0  0  0  0  0  0
   -1.2109    1.4470    1.0885 N   0  0  0  0  0  0  0  0  0  0  0  0
   -2.7920   -0.3995    0.8983 C   0  0  0  0  0  0  0  0  0  0  0  0
   -4.0354    0.4070    0.8712 C   0  0  0  0  0  0  0  0  0  0  0  0
   -5.0342    0.0940    1.5109 O   0  0  0  0  0  0  0  0  0  0  0  0
   -3.9701    1.4906    0.0284 N   0  0  0  0  0  0  0  0  0  0  0  0
   -5.1446    2.2961   -0.2198 C   0  0  0  0  0  0  0  0  0  0  0  0
   -4.8831    3.1684   -1.3940 C   0  0  0  0  0  0  0  0  0  0  0  0
   -4.5394    4.5021   -1.5436 C   0  0  0  0  0  0  0  0  0  0  0  0
   -4.4332    4.7268   -2.9446 C   0  0  0  0  0  0  0  0  0  0  0  0
   -4.7101    3.5209   -3.5537 C   0  0  0  0  0  0  0  0  0  0  0  0
   -4.9842    2.5684   -2.6225 O   0  0  0  0  0  0  0  0  0  0  0  0
   -2.8980   -1.7363    0.8156 C   0  0  0  0  0  0  0  0  0  0  0  0
   -1.7336   -2.6071    0.7230 C   0  0  0  0  0  0  0  0  0  0  0  0
   -1.9265   -4.0776    0.5708 C   0  0  0  0  0  0  0  0  0  0  0  0
   -3.0592   -4.5541    0.6191 O   0  0  0  0  0  0  0  0  0  0  0  0
   -0.7774   -4.8273    0.3906 N   0  0  0  0  0  0  0  0  0  0  0  0
   -0.8756   -6.2014    0.1919 C   0  0  0  0  0  0  0  0  0  0  0  0
    0.2084   -6.9700    0.0310 C   0  0  0  0  0  0  0  0  0  0  0  0
    1.5195   -6.3771    0.0793 C   0  0  0  0  0  0  0  0  0  0  0  0
    1.6611   -5.0604    0.2740 C   0  0  0  0  0  0  0  0  0  0  0  0
    0.4548   -4.1994    0.4357 C   0  0  0  0  0  0  0  0  0  0  0  0
    0.6226   -2.9268    0.6075 N   0  0  0  0  0  0  0  0  0  0  0  0
   -0.4757   -2.1082    0.7434 C   0  0  0  0  0  0  0  0  0  0  0  0
    3.1322    2.1695    0.5261 C   0  0  0  0  0  0  0  0  0  0  0  0
    4.4026    2.7447    0.6376 C   0  0  0  0  0  0  0  0  0  0  0  0
    6.7479    3.5254    1.9194 H   0  0  0  0  0  0  0  0  0  0  0  0
    8.1252    3.9049    0.8795 H   0  0  0  0  0  0  0  0  0  0  0  0
    6.5527    4.6196    0.4959 H   0  0  0  0  0  0  0  0  0  0  0  0
    6.1537    0.5072   -1.2087 H   0  0  0  0  0  0  0  0  0  0  0  0
    3.9238   -0.5213   -1.3983 H   0  0  0  0  0  0  0  0  0  0  0  0
    0.8834    1.1228   -0.7279 H   0  0  0  0  0  0  0  0  0  0  0  0
    1.5783   -0.4541   -1.0382 H   0  0  0  0  0  0  0  0  0  0  0  0
    1.7499   -0.8962    1.4427 H   0  0  0  0  0  0  0  0  0  0  0  0
    1.0494    0.6517    1.7923 H   0  0  0  0  0  0  0  0  0  0  0  0
   -2.1020    1.9542    1.1625 H   0  0  0  0  0  0  0  0  0  0  0  0
   -3.2049    1.5571   -0.6415 H   0  0  0  0  0  0  0  0  0  0  0  0
   -6.0102    1.6417   -0.3961 H   0  0  0  0  0  0  0  0  0  0  0  0
   -5.3438    2.8895    0.6832 H   0  0  0  0  0  0  0  0  0  0  0  0
   -4.3850    5.2244   -0.7476 H   0  0  0  0  0  0  0  0  0  0  0  0
   -4.1827    5.6528   -3.4453 H   0  0  0  0  0  0  0  0  0  0  0  0
   -4.7550    3.1914   -4.5872 H   0  0  0  0  0  0  0  0  0  0  0  0
   -3.8782   -2.2073    0.7686 H   0  0  0  0  0  0  0  0  0  0  0  0
   -1.8768   -6.6276    0.1677 H   0  0  0  0  0  0  0  0  0  0  0  0
    0.1213   -8.0403   -0.1279 H   0  0  0  0  0  0  0  0  0  0  0  0
    2.3864   -7.0203   -0.0394 H   0  0  0  0  0  0  0  0  0  0  0  0
    2.6320   -4.5798    0.3245 H   0  0  0  0  0  0  0  0  0  0  0  0
    2.2895    2.6536    1.0150 H   0  0  0  0  0  0  0  0  0  0  0  0
    4.4976    3.6630    1.2078 H   0  0  0  0  0  0  0  0  0  0  0  0
  1  2  1  0
  2  3  1  0
  3  4  2  0
  4  5  1  0
  5  6  2  0
  6  7  1  0
  7  8  1  0
  8  9  1  0
  9 10  1  0
 10 11  2  3
 10 12  1  0
 12 13  1  0
 13 14  2  0
 13 15  1  0
 15 16  1  0
 16 17  1  0
 17 18  2  0
 18 19  1  0
 19 20  2  0
 20 21  1  0
 12 22  2  0
 22 23  1  0
 23 24  1  0
 24 25  2  0
 24 26  1  0
 26 27  1  0
 27 28  2  0
 28 29  1  0
 29 30  2  0
 30 31  1  0
 31 32  2  0
 32 33  1  0
  6 34  1  0
 34 35  2  0
 35  3  1  0
 33  9  1  0
 21 17  1  0
 33 23  2  0
 31 26  1  0
  1 36  1  0
  1 37  1  0
  1 38  1  0
  4 39  1  0
  5 40  1  0
  7 41  1  0
  7 42  1  0
  8 43  1  0
  8 44  1  0
 11 45  1  0
 15 46  1  0
 16 47  1  0
 16 48  1  0
 18 49  1  0
 19 50  1  0
 20 51  1  0
 22 52  1  0
 27 53  1  0
 28 54  1  0
 29 55  1  0
 30 56  1  0
 34 57  1  0
 35 58  1  0
M  END
$$$$
