
     RDKit          3D

 52 51  0  0  0  0  0  0  0  0999 V2000
   -6.0361    2.5137   -0.9224 C   0  0  0  0  0  0  0  0  0  0  0  0
   -5.6321    1.4004   -1.1246 C   0  0  0  0  0  0  0  0  0  0  0  0
   -5.1416    0.0455   -1.3881 C   0  0  0  0  0  0  0  0  0  0  0  0
   -4.6303   -0.6442   -0.1109 N   0  0  0  0  0  4  0  0  0  0  0  0
   -4.1068   -2.0273   -0.4909 C   0  0  0  0  0  0  0  0  0  0  0  0
   -5.8025   -0.8446    0.8580 C   0  0  0  0  0  0  0  0  0  0  0  0
   -3.5435    0.1662    0.6230 C   0  0  0  0  0  0  0  0  0  0  0  0
   -2.3191    0.4818   -0.2379 C   0  0  0  0  0  0  0  0  0  0  0  0
   -1.2844    1.2732    0.5705 C   0  0  0  0  0  0  0  0  0  0  0  0
   -0.0498    1.5953   -0.2740 C   0  0  0  0  0  0  0  0  0  0  0  0
    0.9728    2.4729    0.4537 C   0  0  0  0  0  0  0  0  0  0  0  0
    1.5588    1.8839    1.7411 C   0  0  0  0  0  0  0  0  0  0  0  0
    2.2214    0.5100    1.6028 C   0  0  0  0  0  0  0  0  0  0  0  0
    3.4030    0.5002    0.6309 C   0  0  0  0  0  0  0  0  0  0  0  0
    4.0910   -0.8666    0.6098 C   0  0  0  0  0  0  0  0  0  0  0  0
    5.2703   -0.8809   -0.3643 C   0  0  0  0  0  0  0  0  0  0  0  0
    5.9574   -2.2460   -0.3854 C   0  0  0  0  0  0  0  0  0  0  0  0
    7.1302   -2.2645   -1.3527 C   0  0  0  0  0  0  0  0  0  0  0  0
   -6.3976    3.5049   -0.7568 H   0  0  0  0  0  0  0  0  0  0  0  0
   -5.9414   -0.5846   -1.7945 H   0  0  0  0  0  0  0  0  0  0  0  0
   -4.3213    0.0536   -2.1130 H   0  0  0  0  0  0  0  0  0  0  0  0
   -4.9422   -2.6190   -0.8783 H   0  0  0  0  0  0  0  0  0  0  0  0
   -3.6893   -2.4995    0.4031 H   0  0  0  0  0  0  0  0  0  0  0  0
   -3.3426   -1.9203   -1.2645 H   0  0  0  0  0  0  0  0  0  0  0  0
   -6.1599    0.1318    1.1964 H   0  0  0  0  0  0  0  0  0  0  0  0
   -5.4441   -1.4267    1.7127 H   0  0  0  0  0  0  0  0  0  0  0  0
   -6.5972   -1.3868    0.3370 H   0  0  0  0  0  0  0  0  0  0  0  0
   -3.2498   -0.4273    1.4978 H   0  0  0  0  0  0  0  0  0  0  0  0
   -4.0088    1.0887    0.9886 H   0  0  0  0  0  0  0  0  0  0  0  0
   -1.8516   -0.4402   -0.5985 H   0  0  0  0  0  0  0  0  0  0  0  0
   -2.6034    1.0722   -1.1148 H   0  0  0  0  0  0  0  0  0  0  0  0
   -1.7358    2.2052    0.9316 H   0  0  0  0  0  0  0  0  0  0  0  0
   -0.9954    0.6883    1.4509 H   0  0  0  0  0  0  0  0  0  0  0  0
    0.4233    0.6662   -0.6117 H   0  0  0  0  0  0  0  0  0  0  0  0
   -0.3659    2.1258   -1.1812 H   0  0  0  0  0  0  0  0  0  0  0  0
    1.7877    2.7084   -0.2412 H   0  0  0  0  0  0  0  0  0  0  0  0
    0.5027    3.4337    0.6993 H   0  0  0  0  0  0  0  0  0  0  0  0
    0.7709    1.8163    2.5006 H   0  0  0  0  0  0  0  0  0  0  0  0
    2.2961    2.5933    2.1381 H   0  0  0  0  0  0  0  0  0  0  0  0
    1.4802   -0.2367    1.2956 H   0  0  0  0  0  0  0  0  0  0  0  0
    2.5730    0.2027    2.5959 H   0  0  0  0  0  0  0  0  0  0  0  0
    3.0599    0.7435   -0.3808 H   0  0  0  0  0  0  0  0  0  0  0  0
    4.1262    1.2708    0.9238 H   0  0  0  0  0  0  0  0  0  0  0  0
    3.3664   -1.6377    0.3209 H   0  0  0  0  0  0  0  0  0  0  0  0
    4.4446   -1.1160    1.6177 H   0  0  0  0  0  0  0  0  0  0  0  0
    5.9946   -0.1093   -0.0758 H   0  0  0  0  0  0  0  0  0  0  0  0
    4.9173   -0.6317   -1.3724 H   0  0  0  0  0  0  0  0  0  0  0  0
    5.2385   -3.0204   -0.6772 H   0  0  0  0  0  0  0  0  0  0  0  0
    6.3160   -2.4981    0.6194 H   0  0  0  0  0  0  0  0  0  0  0  0
    6.8001   -2.0477   -2.3736 H   0  0  0  0  0  0  0  0  0  0  0  0
    7.6067   -3.2498   -1.3518 H   0  0  0  0  0  0  0  0  0  0  0  0
    7.8837   -1.5224   -1.0699 H   0  0  0  0  0  0  0  0  0  0  0  0
  1  2  3  0
  2  3  1  0
  3  4  1  0
  4  5  1  0
  4  6  1  0
  4  7  1  0
  7  8  1  0
  8  9  1  0
  9 10  1  0
 10 11  1  0
 11 12  1  0
 12 13  1  0
 13 14  1  0
 14 15  1  0
 15 16  1  0
 16 17  1  0
 17 18  1  0
  1 19  1  0
  3 20  1  0
  3 21  1  0
  5 22  1  0
  5 23  1  0
  5 24  1  0
  6 25  1  0
  6 26  1  0
  6 27  1  0
  7 28  1  0
  7 29  1  0
  8 30  1  0
  8 31  1  0
  9 32  1  0
  9 33  1  0
 10 34  1  0
 10 35  1  0
 11 36  1  0
 11 37  1  0
 12 38  1  0
 12 39  1  0
 13 40  1  0
 13 41  1  0
 14 42  1  0
 14 43  1  0
 15 44  1  0
 15 45  1  0
 16 46  1  0
 16 47  1  0
 17 48  1  0
 17 49  1  0
 18 50  1  0
 18 51  1  0
 18 52  1  0
M  CHG  1   4   1
M  END
$$$$
