
     RDKit          3D

 43 45  0  0  0  0  0  0  0  0999 V2000
    1.9836   -1.7869    3.1930 O   0  0  0  0  0  0  0  0  0  0  0  0
    2.5631   -0.9184    2.5470 C   0  0  0  0  0  0  0  0  0  0  0  0
    4.0630   -0.7033    2.6981 C   0  0  0  0  0  0  0  0  0  0  0  0
    5.0037   -1.7567    1.5458 S   0  0  0  0  0  0  0  0  0  0  0  0
    4.6293   -0.9470    0.0013 C   0  0  0  0  0  0  0  0  0  0  0  0
    5.1988    0.2970   -0.2957 C   0  0  0  0  0  0  0  0  0  0  0  0
    4.8842    0.9493   -1.4917 C   0  0  0  0  0  0  0  0  0  0  0  0
    4.0039    0.3617   -2.4006 C   0  0  0  0  0  0  0  0  0  0  0  0
    3.4442   -0.8832   -2.1191 C   0  0  0  0  0  0  0  0  0  0  0  0
    3.7635   -1.5320   -0.9288 C   0  0  0  0  0  0  0  0  0  0  0  0
    3.2027   -2.7253   -0.6834 F   0  0  0  0  0  0  0  0  0  0  0  0
    1.9802   -0.0370    1.6473 N   0  0  0  0  0  0  0  0  0  0  0  0
    0.6288    0.0210    1.2529 C   0  0  0  0  0  0  0  0  0  0  0  0
    0.2865    0.9570    0.2764 C   0  0  0  0  0  0  0  0  0  0  0  0
   -1.0377    1.0743   -0.1719 C   0  0  0  0  0  0  0  0  0  0  0  0
   -2.0683    0.2681    0.3312 C   0  0  0  0  0  0  0  0  0  0  0  0
   -3.3722    0.3909   -0.1106 N   0  0  0  0  0  0  0  0  0  0  0  0
   -3.7006    0.9813   -1.4184 C   0  0  0  0  0  0  0  0  0  0  0  0
   -4.9884    0.3522   -1.9774 C   0  0  0  0  0  0  0  0  0  0  0  0
   -6.1337    0.5153   -1.1301 O   0  0  0  0  0  0  0  0  0  0  0  0
   -5.8022    0.5727    0.2647 C   0  0  0  0  0  0  0  0  0  0  0  0
   -4.5084   -0.1717    0.6370 C   0  0  0  0  0  0  0  0  0  0  0  0
   -1.6980   -0.6611    1.3141 C   0  0  0  0  0  0  0  0  0  0  0  0
   -0.3751   -0.7885    1.7692 C   0  0  0  0  0  0  0  0  0  0  0  0
    4.3412   -0.9714    3.7229 H   0  0  0  0  0  0  0  0  0  0  0  0
    4.3222    0.3520    2.5652 H   0  0  0  0  0  0  0  0  0  0  0  0
    5.9000    0.7634    0.3931 H   0  0  0  0  0  0  0  0  0  0  0  0
    5.3350    1.9131   -1.7195 H   0  0  0  0  0  0  0  0  0  0  0  0
    3.7626    0.8678   -3.3325 H   0  0  0  0  0  0  0  0  0  0  0  0
    2.7611   -1.3570   -2.8176 H   0  0  0  0  0  0  0  0  0  0  0  0
    2.6002    0.5999    1.1637 H   0  0  0  0  0  0  0  0  0  0  0  0
    1.0362    1.6146   -0.1548 H   0  0  0  0  0  0  0  0  0  0  0  0
   -1.2496    1.8375   -0.9156 H   0  0  0  0  0  0  0  0  0  0  0  0
   -3.8373    2.0615   -1.2929 H   0  0  0  0  0  0  0  0  0  0  0  0
   -2.9011    0.8090   -2.1479 H   0  0  0  0  0  0  0  0  0  0  0  0
   -5.2325    0.7964   -2.9477 H   0  0  0  0  0  0  0  0  0  0  0  0
   -4.8462   -0.7231   -2.1384 H   0  0  0  0  0  0  0  0  0  0  0  0
   -5.7210    1.6312    0.5393 H   0  0  0  0  0  0  0  0  0  0  0  0
   -6.6487    0.1565    0.8204 H   0  0  0  0  0  0  0  0  0  0  0  0
   -4.6068   -1.2359    0.3928 H   0  0  0  0  0  0  0  0  0  0  0  0
   -4.3602   -0.0676    1.7179 H   0  0  0  0  0  0  0  0  0  0  0  0
   -2.4326   -1.3378    1.7421 H   0  0  0  0  0  0  0  0  0  0  0  0
   -0.1735   -1.5396    2.5261 H   0  0  0  0  0  0  0  0  0  0  0  0
  1  2  2  0
  2  3  1  0
  3  4  1  0
  4  5  1  0
  5  6  2  0
  6  7  1  0
  7  8  2  0
  8  9  1  0
  9 10  2  0
 10 11  1  0
  2 12  1  0
 12 13  1  0
 13 14  2  0
 14 15  1  0
 15 16  2  0
 16 17  1  0
 17 18  1  0
 18 19  1  0
 19 20  1  0
 20 21  1  0
 21 22  1  0
 16 23  1  0
 23 24  2  0
 10  5  1  0
 24 13  1  0
 22 17  1  0
  3 25  1  0
  3 26  1  0
  6 27  1  0
  7 28  1  0
  8 29  1  0
  9 30  1  0
 12 31  1  0
 14 32  1  0
 15 33  1  0
 18 34  1  0
 18 35  1  0
 19 36  1  0
 19 37  1  0
 21 38  1  0
 21 39  1  0
 22 40  1  0
 22 41  1  0
 23 42  1  0
 24 43  1  0
M  END
$$$$
