
     RDKit          3D

 61 65  0  0  0  0  0  0  0  0999 V2000
    6.3175   -4.1679    2.5343 C   0  0  0  0  0  0  0  0  0  0  0  0
    5.1475   -3.3686    2.0398 C   0  0  0  0  0  0  0  0  0  0  0  0
    4.7404   -2.2158    2.7163 C   0  0  0  0  0  0  0  0  0  0  0  0
    3.6311   -1.4875    2.2744 C   0  0  0  0  0  0  0  0  0  0  0  0
    2.8940   -1.8990    1.1522 C   0  0  0  0  0  0  0  0  0  0  0  0
    1.7278   -1.1332    0.6886 C   0  0  0  0  0  0  0  0  0  0  0  0
    1.8078    0.2354    0.4443 C   0  0  0  0  0  0  0  0  0  0  0  0
    0.6925    0.9630    0.0047 C   0  0  0  0  0  0  0  0  0  0  0  0
    0.7928    2.4092   -0.2177 C   0  0  0  0  0  0  0  0  0  0  0  0
    0.3279    3.3227    0.7421 C   0  0  0  0  0  0  0  0  0  0  0  0
    0.4285    4.6993    0.5251 C   0  0  0  0  0  0  0  0  0  0  0  0
    0.9978    5.1922   -0.6528 C   0  0  0  0  0  0  0  0  0  0  0  0
    1.1379    6.6717   -0.8679 C   0  0  0  0  0  0  0  0  0  0  0  0
    1.4953    4.2894   -1.5971 C   0  0  0  0  0  0  0  0  0  0  0  0
    1.3951    2.9125   -1.3824 C   0  0  0  0  0  0  0  0  0  0  0  0
   -0.5061    0.3343   -0.1998 N   0  0  0  0  0  4  0  0  0  0  0  0
   -1.6523    1.0869   -0.6532 C   0  0  0  0  0  0  0  0  0  0  0  0
   -1.7311    1.4504   -1.9991 C   0  0  0  0  0  0  0  0  0  0  0  0
   -2.8395    2.1769   -2.4282 C   0  0  0  0  0  0  0  0  0  0  0  0
   -3.8427    2.5245   -1.5187 C   0  0  0  0  0  0  0  0  0  0  0  0
   -3.7470    2.1510   -0.1750 C   0  0  0  0  0  0  0  0  0  0  0  0
   -2.6438    1.4261    0.2697 C   0  0  0  0  0  0  0  0  0  0  0  0
   -0.6136   -1.0111    0.0284 C   0  0  0  0  0  0  0  0  0  0  0  0
   -1.8926   -1.6827   -0.2244 C   0  0  0  0  0  0  0  0  0  0  0  0
   -2.7428   -2.0252    0.8397 C   0  0  0  0  0  0  0  0  0  0  0  0
   -3.9609   -2.6672    0.6024 C   0  0  0  0  0  0  0  0  0  0  0  0
   -4.3542   -2.9821   -0.7017 C   0  0  0  0  0  0  0  0  0  0  0  0
   -5.6475   -3.7034   -0.9514 C   0  0  0  0  0  0  0  0  0  0  0  0
   -3.4971   -2.6766   -1.7630 C   0  0  0  0  0  0  0  0  0  0  0  0
   -2.2785   -2.0348   -1.5280 C   0  0  0  0  0  0  0  0  0  0  0  0
    0.4953   -1.7447    0.4739 C   0  0  0  0  0  0  0  0  0  0  0  0
    3.3038   -3.0673    0.4897 C   0  0  0  0  0  0  0  0  0  0  0  0
    4.4133   -3.7960    0.9305 C   0  0  0  0  0  0  0  0  0  0  0  0
    7.0715   -3.5154    2.9870 H   0  0  0  0  0  0  0  0  0  0  0  0
    5.9843   -4.8961    3.2802 H   0  0  0  0  0  0  0  0  0  0  0  0
    6.8029   -4.7021    1.7107 H   0  0  0  0  0  0  0  0  0  0  0  0
    5.2855   -1.8774    3.5957 H   0  0  0  0  0  0  0  0  0  0  0  0
    3.3452   -0.5994    2.8342 H   0  0  0  0  0  0  0  0  0  0  0  0
    2.7548    0.7567    0.5940 H   0  0  0  0  0  0  0  0  0  0  0  0
   -0.1127    2.9798    1.6768 H   0  0  0  0  0  0  0  0  0  0  0  0
    0.0644    5.3899    1.2847 H   0  0  0  0  0  0  0  0  0  0  0  0
    2.0871    7.0219   -0.4509 H   0  0  0  0  0  0  0  0  0  0  0  0
    1.1079    6.9155   -1.9350 H   0  0  0  0  0  0  0  0  0  0  0  0
    0.3172    7.2149   -0.3876 H   0  0  0  0  0  0  0  0  0  0  0  0
    1.9697    4.6572   -2.5061 H   0  0  0  0  0  0  0  0  0  0  0  0
    1.7985    2.2416   -2.1397 H   0  0  0  0  0  0  0  0  0  0  0  0
   -0.9584    1.1787   -2.7108 H   0  0  0  0  0  0  0  0  0  0  0  0
   -2.9306    2.4772   -3.4707 H   0  0  0  0  0  0  0  0  0  0  0  0
   -4.7078    3.0922   -1.8606 H   0  0  0  0  0  0  0  0  0  0  0  0
   -4.5383    2.4300    0.5188 H   0  0  0  0  0  0  0  0  0  0  0  0
   -2.5725    1.1438    1.3150 H   0  0  0  0  0  0  0  0  0  0  0  0
   -2.4700   -1.8008    1.8699 H   0  0  0  0  0  0  0  0  0  0  0  0
   -4.6032   -2.9264    1.4432 H   0  0  0  0  0  0  0  0  0  0  0  0
   -6.0472   -3.4579   -1.9409 H   0  0  0  0  0  0  0  0  0  0  0  0
   -5.4902   -4.7846   -0.8915 H   0  0  0  0  0  0  0  0  0  0  0  0
   -6.4038   -3.4129   -0.2146 H   0  0  0  0  0  0  0  0  0  0  0  0
   -3.7745   -2.9439   -2.7819 H   0  0  0  0  0  0  0  0  0  0  0  0
   -1.6351   -1.8234   -2.3806 H   0  0  0  0  0  0  0  0  0  0  0  0
    0.3839   -2.8151    0.6555 H   0  0  0  0  0  0  0  0  0  0  0  0
    2.7712   -3.4262   -0.3886 H   0  0  0  0  0  0  0  0  0  0  0  0
    4.7037   -4.7002    0.3982 H   0  0  0  0  0  0  0  0  0  0  0  0
  1  2  1  0
  2  3  2  0
  3  4  1  0
  4  5  2  0
  5  6  1  0
  6  7  2  0
  7  8  1  0
  8  9  1  0
  9 10  2  0
 10 11  1  0
 11 12  2  0
 12 13  1  0
 12 14  1  0
 14 15  2  0
  8 16  2  0
 16 17  1  0
 17 18  2  0
 18 19  1  0
 19 20  2  0
 20 21  1  0
 21 22  2  0
 16 23  1  0
 23 24  1  0
 24 25  2  0
 25 26  1  0
 26 27  2  0
 27 28  1  0
 27 29  1  0
 29 30  2  0
 23 31  2  0
  5 32  1  0
 32 33  2  0
 33  2  1  0
 31  6  1  0
 15  9  1  0
 22 17  1  0
 30 24  1  0
  1 34  1  0
  1 35  1  0
  1 36  1  0
  3 37  1  0
  4 38  1  0
  7 39  1  0
 10 40  1  0
 11 41  1  0
 13 42  1  0
 13 43  1  0
 13 44  1  0
 14 45  1  0
 15 46  1  0
 18 47  1  0
 19 48  1  0
 20 49  1  0
 21 50  1  0
 22 51  1  0
 25 52  1  0
 26 53  1  0
 28 54  1  0
 28 55  1  0
 28 56  1  0
 29 57  1  0
 30 58  1  0
 31 59  1  0
 32 60  1  0
 33 61  1  0
M  CHG  1  16   1
M  END
$$$$
