
     RDKit          3D

 39 41  0  0  0  0  0  0  0  0999 V2000
    5.4255   -0.2917    0.5111 C   0  0  0  0  0  0  0  0  0  0  0  0
    4.4941    0.8589    0.8490 C   0  0  0  0  0  0  0  0  0  0  0  0
    3.7833    1.3534   -0.3195 N   0  0  0  0  0  0  0  0  0  0  0  0
    4.3634    2.3382   -1.0449 N   0  0  0  0  0  0  0  0  0  0  0  0
    3.4951    2.5652   -2.0289 C   0  0  0  0  0  0  0  0  0  0  0  0
    2.3581    1.7589   -1.9111 C   0  0  0  0  0  0  0  0  0  0  0  0
    0.9589    1.7804   -3.1556 Br  0  0  0  0  0  0  0  0  0  0  0  0
    2.5337    0.9853   -0.7800 C   0  0  0  0  0  0  0  0  0  0  0  0
    1.7034   -0.0324   -0.1635 C   0  0  0  0  0  0  0  0  0  0  0  0
    2.2060   -0.9513    0.4710 O   0  0  0  0  0  0  0  0  0  0  0  0
    0.3482    0.1894   -0.3253 N   0  0  0  0  0  0  0  0  0  0  0  0
   -0.7063   -0.6073    0.1020 C   0  0  0  0  0  0  0  0  0  0  0  0
   -0.4117   -2.1723    0.7526 S   0  0  0  0  0  0  0  0  0  0  0  0
   -2.0414   -2.4413    0.9471 C   0  0  0  0  0  0  0  0  0  0  0  0
   -2.8239   -1.3997    0.5430 C   0  0  0  0  0  0  0  0  0  0  0  0
   -2.0706   -0.3001    0.0375 C   0  0  0  0  0  0  0  0  0  0  0  0
   -2.6633    0.9418   -0.4576 C   0  0  0  0  0  0  0  0  0  0  0  0
   -3.8734    1.1197   -0.5387 O   0  0  0  0  0  0  0  0  0  0  0  0
   -1.7345    1.8835   -0.8106 O   0  0  0  0  0  0  0  0  0  0  0  0
   -2.3039    3.1103   -1.2731 C   0  0  0  0  0  0  0  0  0  0  0  0
   -4.2646   -1.7089    0.7428 C   0  0  0  0  0  0  0  0  0  0  0  0
   -4.2100   -2.9745    1.6554 C   0  0  0  0  0  0  0  0  0  0  0  0
   -2.7944   -3.6021    1.4733 C   0  0  0  0  0  0  0  0  0  0  0  0
    5.9418   -0.6387    1.4114 H   0  0  0  0  0  0  0  0  0  0  0  0
    4.8793   -1.1378    0.0824 H   0  0  0  0  0  0  0  0  0  0  0  0
    6.1825    0.0168   -0.2179 H   0  0  0  0  0  0  0  0  0  0  0  0
    3.7626    0.5744    1.6106 H   0  0  0  0  0  0  0  0  0  0  0  0
    5.0675    1.6980    1.2609 H   0  0  0  0  0  0  0  0  0  0  0  0
    3.7374    3.3027   -2.7833 H   0  0  0  0  0  0  0  0  0  0  0  0
    0.0724    1.0622   -0.7639 H   0  0  0  0  0  0  0  0  0  0  0  0
   -2.9356    3.5583   -0.4997 H   0  0  0  0  0  0  0  0  0  0  0  0
   -2.8719    2.9439   -2.1936 H   0  0  0  0  0  0  0  0  0  0  0  0
   -1.4853    3.8016   -1.4913 H   0  0  0  0  0  0  0  0  0  0  0  0
   -4.7410   -1.9466   -0.2140 H   0  0  0  0  0  0  0  0  0  0  0  0
   -4.8107   -0.8971    1.2310 H   0  0  0  0  0  0  0  0  0  0  0  0
   -4.3301   -2.6638    2.7018 H   0  0  0  0  0  0  0  0  0  0  0  0
   -5.0121   -3.6842    1.4301 H   0  0  0  0  0  0  0  0  0  0  0  0
   -2.4034   -3.9802    2.4218 H   0  0  0  0  0  0  0  0  0  0  0  0
   -2.8254   -4.4124    0.7378 H   0  0  0  0  0  0  0  0  0  0  0  0
  1  2  1  0
  2  3  1  0
  3  4  1  0
  4  5  2  0
  5  6  1  0
  6  7  1  0
  6  8  2  0
  8  9  1  0
  9 10  2  0
  9 11  1  0
 11 12  1  0
 12 13  1  0
 13 14  1  0
 14 15  2  0
 15 16  1  0
 16 17  1  0
 17 18  2  0
 17 19  1  0
 19 20  1  0
 15 21  1  0
 21 22  1  0
 22 23  1  0
  8  3  1  0
 16 12  2  0
 23 14  1  0
  1 24  1  0
  1 25  1  0
  1 26  1  0
  2 27  1  0
  2 28  1  0
  5 29  1  0
 11 30  1  0
 20 31  1  0
 20 32  1  0
 20 33  1  0
 21 34  1  0
 21 35  1  0
 22 36  1  0
 22 37  1  0
 23 38  1  0
 23 39  1  0
M  END
$$$$
