
     RDKit          3D

 36 37  0  0  0  0  0  0  0  0999 V2000
    0.7028    0.9730    0.5757 O   0  0  0  0  0  0  0  0  0  0  0  0
   -0.0830    0.2348   -0.0147 C   0  0  0  0  0  0  0  0  0  0  0  0
    0.3496   -1.0309   -0.7630 C   0  0  0  0  0  0  0  0  0  0  0  0
    1.6724   -1.4429   -0.4274 O   0  0  0  0  0  0  0  0  0  0  0  0
    1.7721   -1.9789    0.8114 C   0  0  0  0  0  0  0  0  0  0  0  0
    0.8701   -2.2064    1.5984 O   0  0  0  0  0  0  0  0  0  0  0  0
    3.1943   -2.1620    1.1239 C   0  0  0  0  0  0  0  0  0  0  0  0
    3.7317   -1.3374    2.1230 C   0  0  0  0  0  0  0  0  0  0  0  0
    5.0749   -1.4540    2.4697 C   0  0  0  0  0  0  0  0  0  0  0  0
    5.8748   -2.3961    1.8237 C   0  0  0  0  0  0  0  0  0  0  0  0
    5.3337   -3.2282    0.8340 C   0  0  0  0  0  0  0  0  0  0  0  0
    6.4015   -4.3741    0.0981 Cl  0  0  0  0  0  0  0  0  0  0  0  0
    3.9820   -3.1212    0.4760 C   0  0  0  0  0  0  0  0  0  0  0  0
    3.2906   -4.1748   -0.7153 Cl  0  0  0  0  0  0  0  0  0  0  0  0
   -1.4370    0.4845   -0.0775 N   0  0  0  0  0  0  0  0  0  0  0  0
   -2.0248    1.6218    0.6052 C   0  0  0  0  0  0  0  0  0  0  0  0
   -3.5448    1.7179    0.4211 C   0  0  0  0  0  0  0  0  0  0  0  0
   -3.9354    1.9778   -0.9563 N   0  0  0  0  0  0  0  0  0  0  0  0
   -4.1244    3.2206   -1.5146 C   0  0  0  0  0  0  0  0  0  0  0  0
   -4.1157    4.3537   -0.7599 O   0  0  0  0  0  0  0  0  0  0  0  0
   -4.3127    3.2173   -2.8374 C   0  0  0  0  0  0  0  0  0  0  0  0
   -4.2691    1.6082   -3.4833 S   0  0  0  0  0  0  0  0  0  0  0  0
   -3.9252    0.9382   -1.8832 C   0  0  0  0  0  0  0  0  0  0  0  0
   -3.6789   -0.2404   -1.6721 O   0  0  0  0  0  0  0  0  0  0  0  0
    0.3402   -0.8008   -1.8337 H   0  0  0  0  0  0  0  0  0  0  0  0
   -0.3635   -1.8459   -0.5909 H   0  0  0  0  0  0  0  0  0  0  0  0
    3.1018   -0.6008    2.6206 H   0  0  0  0  0  0  0  0  0  0  0  0
    5.4979   -0.8121    3.2395 H   0  0  0  0  0  0  0  0  0  0  0  0
    6.9243   -2.4823    2.0986 H   0  0  0  0  0  0  0  0  0  0  0  0
   -2.0506   -0.2026   -0.5163 H   0  0  0  0  0  0  0  0  0  0  0  0
   -1.5296    2.5288    0.2399 H   0  0  0  0  0  0  0  0  0  0  0  0
   -1.7898    1.5207    1.6709 H   0  0  0  0  0  0  0  0  0  0  0  0
   -3.9535    2.4899    1.0795 H   0  0  0  0  0  0  0  0  0  0  0  0
   -4.0035    0.7685    0.7254 H   0  0  0  0  0  0  0  0  0  0  0  0
   -4.4992    4.1402    0.1042 H   0  0  0  0  0  0  0  0  0  0  0  0
   -4.4739    4.0958   -3.4460 H   0  0  0  0  0  0  0  0  0  0  0  0
  1  2  2  0
  2  3  1  0
  3  4  1  0
  4  5  1  0
  5  6  2  0
  5  7  1  0
  7  8  2  0
  8  9  1  0
  9 10  2  0
 10 11  1  0
 11 12  1  0
 11 13  2  0
 13 14  1  0
  2 15  1  0
 15 16  1  0
 16 17  1  0
 17 18  1  0
 18 19  1  0
 19 20  1  0
 19 21  2  0
 21 22  1  0
 22 23  1  0
 23 24  2  0
 13  7  1  0
 23 18  1  0
  3 25  1  0
  3 26  1  0
  8 27  1  0
  9 28  1  0
 10 29  1  0
 15 30  1  0
 16 31  1  0
 16 32  1  0
 17 33  1  0
 17 34  1  0
 20 35  1  0
 21 36  1  0
M  END
$$$$
