
     RDKit          3D

 43 46  0  0  0  0  0  0  0  0999 V2000
    6.0524    1.4941    1.6837 C   0  0  0  0  0  0  0  0  0  0  0  0
    4.6820    1.2462    1.1231 C   0  0  0  0  0  0  0  0  0  0  0  0
    4.5193    0.5060   -0.0518 C   0  0  0  0  0  0  0  0  0  0  0  0
    3.2423    0.2456   -0.5596 C   0  0  0  0  0  0  0  0  0  0  0  0
    2.1116    0.7135    0.1103 C   0  0  0  0  0  0  0  0  0  0  0  0
    0.6714    0.4314   -0.4493 C   0  0  0  0  0  0  0  0  0  0  0  0
   -0.5246    0.9043    0.0777 C   0  0  0  0  0  0  0  0  0  0  0  0
   -1.5836    0.4497   -0.7138 N   0  0  0  0  0  4  0  0  0  0  0  0
   -3.0032    0.7284   -0.5190 C   0  0  0  0  0  0  0  0  0  0  0  0
   -3.4738    0.0478    0.7422 C   0  0  0  0  0  0  0  0  0  0  0  0
   -4.0053    0.7953    1.8026 C   0  0  0  0  0  0  0  0  0  0  0  0
   -4.4379    0.1611    2.9721 C   0  0  0  0  0  0  0  0  0  0  0  0
   -4.3477   -1.2277    3.1001 C   0  0  0  0  0  0  0  0  0  0  0  0
   -4.8926   -1.9393    4.5741 Cl  0  0  0  0  0  0  0  0  0  0  0  0
   -3.8258   -1.9843    2.0484 C   0  0  0  0  0  0  0  0  0  0  0  0
   -3.6736   -3.7026    2.1219 Cl  0  0  0  0  0  0  0  0  0  0  0  0
   -3.3960   -1.3486    0.8763 C   0  0  0  0  0  0  0  0  0  0  0  0
   -1.0561   -0.2711   -1.6966 C   0  0  0  0  0  0  0  0  0  0  0  0
    0.2635   -0.3091   -1.5451 N   0  0  0  0  0  0  0  0  0  0  0  0
    0.9074   -1.1162   -2.5720 C   0  0  0  0  0  0  0  0  0  0  0  0
   -0.2803   -1.8530   -3.2516 C   0  0  0  0  0  0  0  0  0  0  0  0
   -1.5318   -1.0368   -2.8716 C   0  0  0  0  0  0  0  0  0  0  0  0
    2.2685    1.4461    1.2926 C   0  0  0  0  0  0  0  0  0  0  0  0
    3.5466    1.7036    1.7975 C   0  0  0  0  0  0  0  0  0  0  0  0
    6.3334    0.6793    2.3580 H   0  0  0  0  0  0  0  0  0  0  0  0
    6.7954    1.5632    0.8821 H   0  0  0  0  0  0  0  0  0  0  0  0
    6.0829    2.4387    2.2368 H   0  0  0  0  0  0  0  0  0  0  0  0
    5.3929    0.1294   -0.5821 H   0  0  0  0  0  0  0  0  0  0  0  0
    3.1762   -0.3155   -1.4823 H   0  0  0  0  0  0  0  0  0  0  0  0
   -0.7630    1.5219    0.9272 H   0  0  0  0  0  0  0  0  0  0  0  0
   -3.1309    1.8154   -0.4651 H   0  0  0  0  0  0  0  0  0  0  0  0
   -3.5776    0.3656   -1.3778 H   0  0  0  0  0  0  0  0  0  0  0  0
   -4.0947    1.8793    1.7366 H   0  0  0  0  0  0  0  0  0  0  0  0
   -4.8492    0.7573    3.7854 H   0  0  0  0  0  0  0  0  0  0  0  0
   -2.9948   -1.9549    0.0672 H   0  0  0  0  0  0  0  0  0  0  0  0
    1.4151   -0.4513   -3.2767 H   0  0  0  0  0  0  0  0  0  0  0  0
    1.6080   -1.8280   -2.1300 H   0  0  0  0  0  0  0  0  0  0  0  0
   -0.3655   -2.8592   -2.8242 H   0  0  0  0  0  0  0  0  0  0  0  0
   -0.1515   -1.9575   -4.3322 H   0  0  0  0  0  0  0  0  0  0  0  0
   -2.3800   -1.6550   -2.5759 H   0  0  0  0  0  0  0  0  0  0  0  0
   -1.8031   -0.3031   -3.6335 H   0  0  0  0  0  0  0  0  0  0  0  0
    1.4207    1.8251    1.8553 H   0  0  0  0  0  0  0  0  0  0  0  0
    3.6532    2.2653    2.7245 H   0  0  0  0  0  0  0  0  0  0  0  0
  1  2  1  0
  2  3  2  0
  3  4  1  0
  4  5  2  0
  5  6  1  0
  6  7  2  0
  7  8  1  0
  8  9  1  0
  9 10  1  0
 10 11  2  0
 11 12  1  0
 12 13  2  0
 13 14  1  0
 13 15  1  0
 15 16  1  0
 15 17  2  0
  8 18  2  0
 18 19  1  0
 19 20  1  0
 20 21  1  0
 21 22  1  0
  5 23  1  0
 23 24  2  0
 24  2  1  0
 19  6  1  0
 17 10  1  0
 22 18  1  0
  1 25  1  0
  1 26  1  0
  1 27  1  0
  3 28  1  0
  4 29  1  0
  7 30  1  0
  9 31  1  0
  9 32  1  0
 11 33  1  0
 12 34  1  0
 17 35  1  0
 20 36  1  0
 20 37  1  0
 21 38  1  0
 21 39  1  0
 22 40  1  0
 22 41  1  0
 23 42  1  0
 24 43  1  0
M  CHG  1   8   1
M  END
$$$$
