
     RDKit          3D

 49 51  0  0  0  0  0  0  0  0999 V2000
    3.9385   -0.5733    1.2433 O   0  0  0  0  0  0  0  0  0  0  0  0
    3.5874   -0.0951    0.1738 C   0  0  0  0  0  0  0  0  0  0  0  0
    4.2509   -0.1956   -1.0253 N   0  0  0  0  0  0  0  0  0  0  0  0
    5.3935   -1.0527   -1.2031 C   0  0  0  0  0  0  0  0  0  0  0  0
    4.9801   -2.3904   -1.7583 C   0  0  0  0  0  0  0  0  0  0  0  0
    4.9593   -2.6158   -3.1421 C   0  0  0  0  0  0  0  0  0  0  0  0
    4.5528   -3.8504   -3.6514 C   0  0  0  0  0  0  0  0  0  0  0  0
    4.1565   -4.8676   -2.7848 C   0  0  0  0  0  0  0  0  0  0  0  0
    4.1625   -4.6512   -1.4082 C   0  0  0  0  0  0  0  0  0  0  0  0
    4.5688   -3.4179   -0.8968 C   0  0  0  0  0  0  0  0  0  0  0  0
    2.2666    0.7022    0.0777 C   0  0  0  0  0  0  0  0  0  0  0  0
    1.8674    1.1067   -1.0048 O   0  0  0  0  0  0  0  0  0  0  0  0
    1.6244    0.8623    1.2827 N   0  0  0  0  0  0  0  0  0  0  0  0
    0.2815    1.4113    1.3631 C   0  0  0  0  0  0  0  0  0  0  0  0
   -0.8024    0.4735    0.7968 C   0  0  0  0  0  0  0  0  0  0  0  0
   -0.7423   -0.7887    1.4957 O   0  0  0  0  0  0  0  0  0  0  0  0
   -2.0584   -1.3298    1.3761 C   0  0  0  0  0  0  0  0  0  0  0  0
   -2.9504   -0.1292    1.5968 C   0  0  0  0  0  0  0  0  0  0  0  0
   -2.1625    1.0033    1.0628 N   0  0  0  0  0  0  0  0  0  0  0  0
   -2.8168    1.8540   -0.2410 S   0  0  0  0  0  6  0  0  0  0  0  0
   -3.2319    0.8779   -1.2257 O   0  0  0  0  0  0  0  0  0  0  0  0
   -1.9167    2.9345   -0.5734 O   0  0  0  0  0  0  0  0  0  0  0  0
   -4.2696    2.5838    0.4756 C   0  0  0  0  0  0  0  0  0  0  0  0
   -5.5393    2.2161    0.0205 C   0  0  0  0  0  0  0  0  0  0  0  0
   -6.6692    2.8003    0.5964 C   0  0  0  0  0  0  0  0  0  0  0  0
   -6.5199    3.7457    1.6132 C   0  0  0  0  0  0  0  0  0  0  0  0
   -8.0532    4.5326    2.3903 Br  0  0  0  0  0  0  0  0  0  0  0  0
   -5.2510    4.1179    2.0604 C   0  0  0  0  0  0  0  0  0  0  0  0
   -4.1180    3.5372    1.4884 C   0  0  0  0  0  0  0  0  0  0  0  0
    3.7521    0.1472   -1.8414 H   0  0  0  0  0  0  0  0  0  0  0  0
    5.9249   -1.1823   -0.2533 H   0  0  0  0  0  0  0  0  0  0  0  0
    6.0792   -0.5490   -1.8932 H   0  0  0  0  0  0  0  0  0  0  0  0
    5.2591   -1.8307   -3.8325 H   0  0  0  0  0  0  0  0  0  0  0  0
    4.5421   -4.0180   -4.7253 H   0  0  0  0  0  0  0  0  0  0  0  0
    3.8387   -5.8277   -3.1825 H   0  0  0  0  0  0  0  0  0  0  0  0
    3.8474   -5.4411   -0.7315 H   0  0  0  0  0  0  0  0  0  0  0  0
    4.5594   -3.2570    0.1801 H   0  0  0  0  0  0  0  0  0  0  0  0
    1.9821    0.3033    2.0536 H   0  0  0  0  0  0  0  0  0  0  0  0
    0.0966    1.6056    2.4256 H   0  0  0  0  0  0  0  0  0  0  0  0
    0.2726    2.3706    0.8357 H   0  0  0  0  0  0  0  0  0  0  0  0
   -0.6393    0.2642   -0.2669 H   0  0  0  0  0  0  0  0  0  0  0  0
   -2.2144   -2.1179    2.1172 H   0  0  0  0  0  0  0  0  0  0  0  0
   -2.1791   -1.7505    0.3713 H   0  0  0  0  0  0  0  0  0  0  0  0
   -3.9312   -0.2634    1.1349 H   0  0  0  0  0  0  0  0  0  0  0  0
   -3.1001    0.0512    2.6672 H   0  0  0  0  0  0  0  0  0  0  0  0
   -5.6579    1.4864   -0.7776 H   0  0  0  0  0  0  0  0  0  0  0  0
   -7.6584    2.5177    0.2440 H   0  0  0  0  0  0  0  0  0  0  0  0
   -5.1355    4.8599    2.8468 H   0  0  0  0  0  0  0  0  0  0  0  0
   -3.1266    3.8301    1.8277 H   0  0  0  0  0  0  0  0  0  0  0  0
  1  2  2  0
  2  3  1  0
  3  4  1  0
  4  5  1  0
  5  6  2  0
  6  7  1  0
  7  8  2  0
  8  9  1  0
  9 10  2  0
  2 11  1  0
 11 12  2  0
 11 13  1  0
 13 14  1  0
 14 15  1  0
 15 16  1  0
 16 17  1  0
 17 18  1  0
 18 19  1  0
 19 20  1  0
 20 21  2  0
 20 22  2  0
 20 23  1  0
 23 24  2  0
 24 25  1  0
 25 26  2  0
 26 27  1  0
 26 28  1  0
 28 29  2  0
 10  5  1  0
 19 15  1  0
 29 23  1  0
  3 30  1  0
  4 31  1  0
  4 32  1  0
  6 33  1  0
  7 34  1  0
  8 35  1  0
  9 36  1  0
 10 37  1  0
 13 38  1  0
 14 39  1  0
 14 40  1  0
 15 41  1  0
 17 42  1  0
 17 43  1  0
 18 44  1  0
 18 45  1  0
 24 46  1  0
 25 47  1  0
 28 48  1  0
 29 49  1  0
M  END
$$$$
