
     RDKit          3D

 65 68  0  0  0  0  0  0  0  0999 V2000
    9.7448   -1.3684    2.9919 C   0  0  0  0  0  0  0  0  0  0  0  0
    8.6297   -0.6525    2.3499 C   0  0  0  0  0  0  0  0  0  0  0  0
    7.2969   -0.9232    2.1573 C   0  0  0  0  0  0  0  0  0  0  0  0
    6.8019    0.2051    1.4649 C   0  0  0  0  0  0  0  0  0  0  0  0
    5.5273    0.4750    1.0206 N   0  0  0  0  0  0  0  0  0  0  0  0
    4.4432   -0.3638    1.1531 C   0  0  0  0  0  0  0  0  0  0  0  0
    4.4520   -1.4713    1.6823 O   0  0  0  0  0  0  0  0  0  0  0  0
    3.1878    0.2488    0.5665 C   0  0  0  0  0  0  0  0  0  0  0  0
    2.0096   -0.7205    0.5972 C   0  0  0  0  0  0  0  0  0  0  0  0
    0.7417   -0.0698    0.0713 C   0  0  0  0  0  0  0  0  0  0  0  0
    0.7961    1.0476   -0.4464 O   0  0  0  0  0  0  0  0  0  0  0  0
   -0.4485   -0.7800    0.2023 N   0  0  0  0  0  0  0  0  0  0  0  0
   -0.4889   -2.2206    0.4693 C   0  0  0  0  0  0  0  0  0  0  0  0
   -1.3381   -2.5231    1.6709 C   0  0  0  0  0  0  0  0  0  0  0  0
   -2.5454   -3.1969    1.7153 C   0  0  0  0  0  0  0  0  0  0  0  0
   -3.0662   -3.2945    3.0366 C   0  0  0  0  0  0  0  0  0  0  0  0
   -2.2374   -2.7004    3.9612 C   0  0  0  0  0  0  0  0  0  0  0  0
   -0.8281   -2.0524    3.2410 S   0  0  0  0  0  0  0  0  0  0  0  0
   -1.6936   -0.1613   -0.3014 C   0  0  0  0  0  0  0  0  0  0  0  0
   -1.7155   -0.0508   -1.8547 C   0  0  0  0  0  0  0  0  0  0  0  0
   -0.9949   -0.7442   -2.5760 O   0  0  0  0  0  0  0  0  0  0  0  0
   -2.7038    0.7626   -2.3810 N   0  0  0  0  0  0  0  0  0  0  0  0
   -2.9388    0.8745   -3.8107 C   0  0  0  0  0  0  0  0  0  0  0  0
   -3.8837   -0.2173   -4.3095 C   0  0  0  0  0  0  0  0  0  0  0  0
   -5.2860    0.3000   -3.9881 C   0  0  0  0  0  0  0  0  0  0  0  0
   -5.1606    1.8179   -3.8456 C   0  0  0  0  0  0  0  0  0  0  0  0
   -3.7034    2.1505   -4.1520 C   0  0  0  0  0  0  0  0  0  0  0  0
   -2.1377    1.0673    0.4967 C   0  0  0  0  0  0  0  0  0  0  0  0
   -1.7703    2.3765    0.1454 C   0  0  0  0  0  0  0  0  0  0  0  0
   -2.2089    3.4728    0.8917 C   0  0  0  0  0  0  0  0  0  0  0  0
   -3.0148    3.2798    2.0103 C   0  0  0  0  0  0  0  0  0  0  0  0
   -3.3799    1.9888    2.3853 C   0  0  0  0  0  0  0  0  0  0  0  0
   -2.9448    0.8936    1.6359 C   0  0  0  0  0  0  0  0  0  0  0  0
    7.7769    1.0976    1.2447 N   0  0  0  0  0  0  0  0  0  0  0  0
    8.9183    0.5606    1.8101 O   0  0  0  0  0  0  0  0  0  0  0  0
   10.4318   -1.7612    2.2357 H   0  0  0  0  0  0  0  0  0  0  0  0
    9.3801   -2.2082    3.5928 H   0  0  0  0  0  0  0  0  0  0  0  0
   10.3044   -0.6985    3.6520 H   0  0  0  0  0  0  0  0  0  0  0  0
    6.7659   -1.8070    2.4746 H   0  0  0  0  0  0  0  0  0  0  0  0
    5.4325    1.3687    0.5545 H   0  0  0  0  0  0  0  0  0  0  0  0
    2.9502    1.1516    1.1431 H   0  0  0  0  0  0  0  0  0  0  0  0
    3.3969    0.5521   -0.4670 H   0  0  0  0  0  0  0  0  0  0  0  0
    2.2485   -1.5870   -0.0295 H   0  0  0  0  0  0  0  0  0  0  0  0
    1.8363   -1.0566    1.6246 H   0  0  0  0  0  0  0  0  0  0  0  0
   -0.8942   -2.7118   -0.4247 H   0  0  0  0  0  0  0  0  0  0  0  0
    0.5054   -2.6471    0.6224 H   0  0  0  0  0  0  0  0  0  0  0  0
   -3.0353   -3.6001    0.8361 H   0  0  0  0  0  0  0  0  0  0  0  0
   -4.0010   -3.7765    3.2984 H   0  0  0  0  0  0  0  0  0  0  0  0
   -2.3803   -2.6264    5.0306 H   0  0  0  0  0  0  0  0  0  0  0  0
   -2.4960   -0.8965   -0.1379 H   0  0  0  0  0  0  0  0  0  0  0  0
   -3.3375    1.2318   -1.7451 H   0  0  0  0  0  0  0  0  0  0  0  0
   -1.9744    0.8354   -4.3275 H   0  0  0  0  0  0  0  0  0  0  0  0
   -3.7838   -0.3215   -5.3981 H   0  0  0  0  0  0  0  0  0  0  0  0
   -3.6982   -1.1990   -3.8598 H   0  0  0  0  0  0  0  0  0  0  0  0
   -5.9962    0.0275   -4.7770 H   0  0  0  0  0  0  0  0  0  0  0  0
   -5.6516   -0.1374   -3.0503 H   0  0  0  0  0  0  0  0  0  0  0  0
   -5.8443    2.3478   -4.5168 H   0  0  0  0  0  0  0  0  0  0  0  0
   -5.4105    2.1183   -2.8215 H   0  0  0  0  0  0  0  0  0  0  0  0
   -3.5973    2.3671   -5.2218 H   0  0  0  0  0  0  0  0  0  0  0  0
   -3.3583    3.0257   -3.5930 H   0  0  0  0  0  0  0  0  0  0  0  0
   -1.1277    2.5599   -0.7150 H   0  0  0  0  0  0  0  0  0  0  0  0
   -1.9110    4.4784    0.6010 H   0  0  0  0  0  0  0  0  0  0  0  0
   -3.3484    4.1334    2.5947 H   0  0  0  0  0  0  0  0  0  0  0  0
   -4.0007    1.8332    3.2637 H   0  0  0  0  0  0  0  0  0  0  0  0
   -3.2422   -0.1039    1.9518 H   0  0  0  0  0  0  0  0  0  0  0  0
  1  2  1  0
  2  3  2  0
  3  4  1  0
  4  5  1  0
  5  6  1  0
  6  7  2  0
  6  8  1  0
  8  9  1  0
  9 10  1  0
 10 11  2  0
 10 12  1  0
 12 13  1  0
 13 14  1  0
 14 15  2  0
 15 16  1  0
 16 17  2  0
 17 18  1  0
 12 19  1  0
 19 20  1  0
 20 21  2  0
 20 22  1  0
 22 23  1  0
 23 24  1  0
 24 25  1  0
 25 26  1  0
 26 27  1  0
 19 28  1  0
 28 29  2  0
 29 30  1  0
 30 31  2  0
 31 32  1  0
 32 33  2  0
  4 34  2  0
 34 35  1  0
 35  2  1  0
 18 14  1  0
 27 23  1  0
 33 28  1  0
  1 36  1  0
  1 37  1  0
  1 38  1  0
  3 39  1  0
  5 40  1  0
  8 41  1  0
  8 42  1  0
  9 43  1  0
  9 44  1  0
 13 45  1  0
 13 46  1  0
 15 47  1  0
 16 48  1  0
 17 49  1  0
 19 50  1  0
 22 51  1  0
 23 52  1  0
 24 53  1  0
 24 54  1  0
 25 55  1  0
 25 56  1  0
 26 57  1  0
 26 58  1  0
 27 59  1  0
 27 60  1  0
 29 61  1  0
 30 62  1  0
 31 63  1  0
 32 64  1  0
 33 65  1  0
M  END
$$$$
