
     RDKit          3D

 37 39  0  0  0  0  0  0  0  0999 V2000
    4.7609    3.0017   -3.4257 C   0  0  0  0  0  0  0  0  0  0  0  0
    5.1057    2.1062   -2.3766 O   0  0  0  0  0  0  0  0  0  0  0  0
    4.0758    1.5543   -1.6626 C   0  0  0  0  0  0  0  0  0  0  0  0
    2.7195    1.7907   -1.8717 C   0  0  0  0  0  0  0  0  0  0  0  0
    1.7487    1.1641   -1.0728 C   0  0  0  0  0  0  0  0  0  0  0  0
    2.1405    0.2767   -0.0472 C   0  0  0  0  0  0  0  0  0  0  0  0
    1.4616   -0.5160    0.9316 C   0  0  0  0  0  0  0  0  0  0  0  0
    0.0635   -0.6857    1.1705 C   0  0  0  0  0  0  0  0  0  0  0  0
   -0.8910   -0.6922    0.2250 C   0  0  0  0  0  0  0  0  0  0  0  0
   -2.3191   -0.8846    0.5001 C   0  0  0  0  0  0  0  0  0  0  0  0
   -2.7810   -1.8280    1.4169 C   0  0  0  0  0  0  0  0  0  0  0  0
   -4.1482   -1.9869    1.6144 C   0  0  0  0  0  0  0  0  0  0  0  0
   -5.0354   -1.2372    0.9236 N   0  0  0  0  0  4  0  0  0  0  0  0
   -6.4790   -1.4295    1.1438 C   0  0  0  0  0  0  0  0  0  0  0  0
   -4.6125   -0.3328    0.0126 C   0  0  0  0  0  0  0  0  0  0  0  0
   -3.2546   -0.1425   -0.2186 C   0  0  0  0  0  0  0  0  0  0  0  0
    2.4209   -1.1366    1.7030 C   0  0  0  0  0  0  0  0  0  0  0  0
    3.6505   -0.7876    1.2105 N   0  0  0  0  0  0  0  0  0  0  0  0
    3.5083    0.0741    0.1481 C   0  0  0  0  0  0  0  0  0  0  0  0
    4.4873    0.6899   -0.6422 C   0  0  0  0  0  0  0  0  0  0  0  0
    5.6898    3.3472   -3.8894 H   0  0  0  0  0  0  0  0  0  0  0  0
    4.1710    2.4966   -4.1977 H   0  0  0  0  0  0  0  0  0  0  0  0
    4.2354    3.8805   -3.0375 H   0  0  0  0  0  0  0  0  0  0  0  0
    2.3746    2.4649   -2.6487 H   0  0  0  0  0  0  0  0  0  0  0  0
    0.7004    1.3814   -1.2469 H   0  0  0  0  0  0  0  0  0  0  0  0
   -0.2129   -0.8443    2.2110 H   0  0  0  0  0  0  0  0  0  0  0  0
   -0.6221   -0.5544   -0.8201 H   0  0  0  0  0  0  0  0  0  0  0  0
   -2.0861   -2.4547    1.9729 H   0  0  0  0  0  0  0  0  0  0  0  0
   -4.5412   -2.7155    2.3181 H   0  0  0  0  0  0  0  0  0  0  0  0
   -6.8161   -2.2011    0.4473 H   0  0  0  0  0  0  0  0  0  0  0  0
   -6.9982   -0.4852    0.9610 H   0  0  0  0  0  0  0  0  0  0  0  0
   -6.6452   -1.7388    2.1789 H   0  0  0  0  0  0  0  0  0  0  0  0
   -5.3672    0.2314   -0.5282 H   0  0  0  0  0  0  0  0  0  0  0  0
   -2.9341    0.5922   -0.9554 H   0  0  0  0  0  0  0  0  0  0  0  0
    2.3448   -1.8076    2.5483 H   0  0  0  0  0  0  0  0  0  0  0  0
    4.5398   -1.1022    1.5755 H   0  0  0  0  0  0  0  0  0  0  0  0
    5.5447    0.5114   -0.4704 H   0  0  0  0  0  0  0  0  0  0  0  0
  1  2  1  0
  2  3  1  0
  3  4  2  0
  4  5  1  0
  5  6  2  0
  6  7  1  0
  7  8  1  0
  8  9  2  3
  9 10  1  0
 10 11  2  0
 11 12  1  0
 12 13  2  0
 13 14  1  0
 13 15  1  0
 15 16  2  0
  7 17  2  0
 17 18  1  0
 18 19  1  0
 19 20  2  0
 20  3  1  0
 19  6  1  0
 16 10  1  0
  1 21  1  0
  1 22  1  0
  1 23  1  0
  4 24  1  0
  5 25  1  0
  8 26  1  0
  9 27  1  0
 11 28  1  0
 12 29  1  0
 14 30  1  0
 14 31  1  0
 14 32  1  0
 15 33  1  0
 16 34  1  0
 17 35  1  0
 18 36  1  0
 20 37  1  0
M  CHG  1  13   1
M  END
$$$$
