
     RDKit          3D

 33 34  0  0  0  0  0  0  0  0999 V2000
    0.1342   -1.0295    2.5739 O   0  0  0  0  0  0  0  0  0  0  0  0
   -0.0079   -0.9576    1.3596 C   0  0  0  0  0  0  0  0  0  0  0  0
   -1.2824   -0.4544    0.7931 C   0  0  0  0  0  0  0  0  0  0  0  0
   -1.7867   -0.8671   -0.3797 C   0  0  0  0  0  0  0  0  0  0  0  0
   -3.0663   -0.3459   -0.8887 C   0  0  0  0  0  0  0  0  0  0  0  0
   -4.2924   -0.9294   -0.5194 C   0  0  0  0  0  0  0  0  0  0  0  0
   -4.3721   -2.3070    0.5267 Cl  0  0  0  0  0  0  0  0  0  0  0  0
   -5.5041   -0.4180   -0.9986 C   0  0  0  0  0  0  0  0  0  0  0  0
   -5.5127    0.6810   -1.8547 C   0  0  0  0  0  0  0  0  0  0  0  0
   -4.3087    1.2685   -2.2360 C   0  0  0  0  0  0  0  0  0  0  0  0
   -3.0951    0.7602   -1.7589 C   0  0  0  0  0  0  0  0  0  0  0  0
   -1.6425    1.5407   -2.2908 Cl  0  0  0  0  0  0  0  0  0  0  0  0
    0.9637   -1.2470    0.4387 N   0  0  0  0  0  0  0  0  0  0  0  0
    2.3108   -1.5800    0.8412 C   0  0  0  0  0  0  0  0  0  0  0  0
    3.2207   -0.3872    0.7010 C   0  0  0  0  0  0  0  0  0  0  0  0
    3.2503    0.5981    1.6986 C   0  0  0  0  0  0  0  0  0  0  0  0
    4.0734    1.7169    1.5655 C   0  0  0  0  0  0  0  0  0  0  0  0
    4.8707    1.8650    0.4323 C   0  0  0  0  0  0  0  0  0  0  0  0
    4.8436    0.8965   -0.5699 C   0  0  0  0  0  0  0  0  0  0  0  0
    4.0202   -0.2234   -0.4390 C   0  0  0  0  0  0  0  0  0  0  0  0
   -1.8146    0.2359    1.4400 H   0  0  0  0  0  0  0  0  0  0  0  0
   -1.2928   -1.6040   -1.0052 H   0  0  0  0  0  0  0  0  0  0  0  0
   -6.4467   -0.8760   -0.7064 H   0  0  0  0  0  0  0  0  0  0  0  0
   -6.4554    1.0769   -2.2255 H   0  0  0  0  0  0  0  0  0  0  0  0
   -4.3197    2.1246   -2.9072 H   0  0  0  0  0  0  0  0  0  0  0  0
    0.8347   -0.9402   -0.5146 H   0  0  0  0  0  0  0  0  0  0  0  0
    2.6495   -2.3954    0.1925 H   0  0  0  0  0  0  0  0  0  0  0  0
    2.3315   -1.9556    1.8705 H   0  0  0  0  0  0  0  0  0  0  0  0
    2.6241    0.4957    2.5841 H   0  0  0  0  0  0  0  0  0  0  0  0
    4.0891    2.4732    2.3459 H   0  0  0  0  0  0  0  0  0  0  0  0
    5.5113    2.7368    0.3294 H   0  0  0  0  0  0  0  0  0  0  0  0
    5.4636    1.0149   -1.4548 H   0  0  0  0  0  0  0  0  0  0  0  0
    4.0086   -0.9674   -1.2320 H   0  0  0  0  0  0  0  0  0  0  0  0
  1  2  2  0
  2  3  1  0
  3  4  2  3
  4  5  1  0
  5  6  2  0
  6  7  1  0
  6  8  1  0
  8  9  2  0
  9 10  1  0
 10 11  2  0
 11 12  1  0
  2 13  1  0
 13 14  1  0
 14 15  1  0
 15 16  2  0
 16 17  1  0
 17 18  2  0
 18 19  1  0
 19 20  2  0
 11  5  1  0
 20 15  1  0
  3 21  1  0
  4 22  1  0
  8 23  1  0
  9 24  1  0
 10 25  1  0
 13 26  1  0
 14 27  1  0
 14 28  1  0
 16 29  1  0
 17 30  1  0
 18 31  1  0
 19 32  1  0
 20 33  1  0
M  END
$$$$
