
     RDKit          3D

 21 21  0  0  0  0  0  0  0  0999 V2000
    3.0580   -0.3204   -0.4931 C   0  0  0  0  0  0  0  0  0  0  0  0
    1.5948   -0.0335   -0.2932 C   0  0  0  0  0  0  0  0  0  0  0  0
    1.1131    1.2470   -0.5786 C   0  0  0  0  0  0  0  0  0  0  0  0
   -0.2352    1.5228   -0.4140 C   0  0  0  0  0  0  0  0  0  0  0  0
   -0.6585    2.8104   -0.6124 O   0  0  0  0  0  0  0  0  0  0  0  0
   -1.1615    0.5432   -0.0214 C   0  0  0  0  0  0  0  0  0  0  0  0
   -2.5182    0.9286    0.1088 N   0  0  0  0  0  0  0  0  0  0  0  0
   -0.6797   -0.7135    0.3907 C   0  0  0  0  0  0  0  0  0  0  0  0
   -1.6187   -1.7536    0.9487 C   0  0  0  0  0  0  0  0  0  0  0  0
    0.6961   -1.0046    0.2006 C   0  0  0  0  0  0  0  0  0  0  0  0
    1.3060   -2.5936    0.5657 Cl  0  0  0  0  0  0  0  0  0  0  0  0
    3.5847    0.5481   -0.9035 H   0  0  0  0  0  0  0  0  0  0  0  0
    3.5322   -0.5699    0.4615 H   0  0  0  0  0  0  0  0  0  0  0  0
    3.1942   -1.1447   -1.2005 H   0  0  0  0  0  0  0  0  0  0  0  0
    1.7799    2.0372   -0.9130 H   0  0  0  0  0  0  0  0  0  0  0  0
   -1.4452    2.8944   -0.0403 H   0  0  0  0  0  0  0  0  0  0  0  0
   -3.1505    0.1338    0.1437 H   0  0  0  0  0  0  0  0  0  0  0  0
   -2.7947    1.5356   -0.6628 H   0  0  0  0  0  0  0  0  0  0  0  0
   -2.0040   -2.3822    0.1401 H   0  0  0  0  0  0  0  0  0  0  0  0
   -1.1308   -2.3867    1.6958 H   0  0  0  0  0  0  0  0  0  0  0  0
   -2.4620   -1.2983    1.4770 H   0  0  0  0  0  0  0  0  0  0  0  0
  1  2  1  0
  2  3  2  0
  3  4  1  0
  4  5  1  0
  4  6  2  0
  6  7  1  0
  6  8  1  0
  8  9  1  0
  8 10  2  0
 10 11  1  0
 10  2  1  0
  1 12  1  0
  1 13  1  0
  1 14  1  0
  3 15  1  0
  5 16  1  0
  7 17  1  0
  7 18  1  0
  9 19  1  0
  9 20  1  0
  9 21  1  0
M  END
$$$$
