
     RDKit          3D

 39 39  0  0  0  0  0  0  0  0999 V2000
   -5.7448    2.0777   -1.2301 C   0  0  0  0  0  0  0  0  0  0  0  0
   -4.4312    1.3857   -1.4275 C   0  0  0  0  0  0  0  0  0  0  0  0
   -4.3085    0.2256   -1.7935 O   0  0  0  0  0  0  0  0  0  0  0  0
   -3.4089    2.2338   -1.1290 O   0  0  0  0  0  0  0  0  0  0  0  0
   -2.0856    1.6986   -1.3058 C   0  0  0  0  0  0  0  0  0  0  0  0
   -1.6541    0.9430   -0.0497 C   0  0  0  0  0  0  0  0  0  0  0  0
   -0.2572    0.3209   -0.2070 C   0  0  0  0  0  0  0  0  0  0  0  0
    0.7392    1.4078   -0.2655 N   0  0  0  0  0  0  0  0  0  0  0  0
    2.1109    1.1480   -1.1864 S   0  0  0  0  0  6  0  0  0  0  0  0
    1.7004    0.7160   -2.5011 O   0  0  0  0  0  0  0  0  0  0  0  0
    2.9483    2.3097   -0.9974 O   0  0  0  0  0  0  0  0  0  0  0  0
    2.8378   -0.0973   -0.4562 O   0  0  0  0  0  0  0  0  0  0  0  0
    4.1561   -0.4283   -0.8851 C   0  0  0  0  0  0  0  0  0  0  0  0
    4.6041   -1.7889   -0.3353 C   0  0  0  0  0  0  0  0  0  0  0  0
    4.5682   -1.7970    1.4546 Cl  0  0  0  0  0  0  0  0  0  0  0  0
    6.2841   -2.1212   -0.8693 Cl  0  0  0  0  0  0  0  0  0  0  0  0
    3.5490   -3.0987   -0.9501 Cl  0  0  0  0  0  0  0  0  0  0  0  0
    0.0421   -0.6449    0.9274 C   0  0  0  0  0  0  0  0  0  0  0  0
    0.3170   -1.9910    0.6398 C   0  0  0  0  0  0  0  0  0  0  0  0
    0.6245   -2.8901    1.6622 C   0  0  0  0  0  0  0  0  0  0  0  0
    0.6589   -2.4575    2.9851 C   0  0  0  0  0  0  0  0  0  0  0  0
    0.3818   -1.1268    3.2884 C   0  0  0  0  0  0  0  0  0  0  0  0
    0.0744   -0.2251    2.2677 C   0  0  0  0  0  0  0  0  0  0  0  0
   -5.8586    2.3642   -0.1817 H   0  0  0  0  0  0  0  0  0  0  0  0
   -6.5573    1.3957   -1.4967 H   0  0  0  0  0  0  0  0  0  0  0  0
   -5.8026    2.9559   -1.8781 H   0  0  0  0  0  0  0  0  0  0  0  0
   -1.4253    2.5537   -1.4848 H   0  0  0  0  0  0  0  0  0  0  0  0
   -2.0389    1.0661   -2.2005 H   0  0  0  0  0  0  0  0  0  0  0  0
   -1.6946    1.6285    0.8071 H   0  0  0  0  0  0  0  0  0  0  0  0
   -2.3900    0.1582    0.1682 H   0  0  0  0  0  0  0  0  0  0  0  0
   -0.2580   -0.2310   -1.1553 H   0  0  0  0  0  0  0  0  0  0  0  0
    0.9869    1.8114    0.6355 H   0  0  0  0  0  0  0  0  0  0  0  0
    4.1881   -0.4394   -1.9823 H   0  0  0  0  0  0  0  0  0  0  0  0
    4.8349    0.3618   -0.5406 H   0  0  0  0  0  0  0  0  0  0  0  0
    0.3011   -2.3533   -0.3867 H   0  0  0  0  0  0  0  0  0  0  0  0
    0.8416   -3.9287    1.4243 H   0  0  0  0  0  0  0  0  0  0  0  0
    0.9016   -3.1584    3.7797 H   0  0  0  0  0  0  0  0  0  0  0  0
    0.4058   -0.7916    4.3223 H   0  0  0  0  0  0  0  0  0  0  0  0
   -0.1409    0.8070    2.5335 H   0  0  0  0  0  0  0  0  0  0  0  0
  1  2  1  0
  2  3  2  0
  2  4  1  0
  4  5  1  0
  5  6  1  0
  6  7  1  0
  7  8  1  0
  8  9  1  0
  9 10  2  0
  9 11  2  0
  9 12  1  0
 12 13  1  0
 13 14  1  0
 14 15  1  0
 14 16  1  0
 14 17  1  0
  7 18  1  0
 18 19  2  0
 19 20  1  0
 20 21  2  0
 21 22  1  0
 22 23  2  0
 23 18  1  0
  1 24  1  0
  1 25  1  0
  1 26  1  0
  5 27  1  0
  5 28  1  0
  6 29  1  0
  6 30  1  0
  7 31  1  0
  8 32  1  0
 13 33  1  0
 13 34  1  0
 19 35  1  0
 20 36  1  0
 21 37  1  0
 22 38  1  0
 23 39  1  0
M  END
$$$$
