
     RDKit          3D

 54 57  0  0  0  0  0  0  0  0999 V2000
   -4.4248   -0.8971   -4.2939 C   0  0  0  0  0  0  0  0  0  0  0  0
   -3.7765   -1.4755   -3.1683 O   0  0  0  0  0  0  0  0  0  0  0  0
   -3.3030   -0.6157   -2.2158 C   0  0  0  0  0  0  0  0  0  0  0  0
   -2.7039   -1.2404   -1.1156 C   0  0  0  0  0  0  0  0  0  0  0  0
   -2.1767   -0.4857   -0.0668 C   0  0  0  0  0  0  0  0  0  0  0  0
   -2.2377    0.9057   -0.1335 C   0  0  0  0  0  0  0  0  0  0  0  0
   -1.6833    1.7220    0.9651 C   0  0  0  0  0  0  0  0  0  0  0  0
   -2.5099    2.1430    1.8686 N   0  0  0  0  0  0  0  0  0  0  0  0
   -2.0168    2.9186    2.9222 C   0  0  0  0  0  0  0  0  0  0  0  0
   -2.9086    3.3842    3.8913 C   0  0  0  0  0  0  0  0  0  0  0  0
   -2.4560    4.1585    4.9636 C   0  0  0  0  0  0  0  0  0  0  0  0
   -1.1022    4.4737    5.0752 C   0  0  0  0  0  0  0  0  0  0  0  0
   -0.2026    4.0143    4.1142 C   0  0  0  0  0  0  0  0  0  0  0  0
   -0.6686    3.2401    3.0443 C   0  0  0  0  0  0  0  0  0  0  0  0
    0.2510    2.7368    2.0113 C   0  0  0  0  0  0  0  0  0  0  0  0
    1.4546    2.9655    2.1077 O   0  0  0  0  0  0  0  0  0  0  0  0
   -0.3193    2.0021    0.9724 N   0  0  0  0  0  0  0  0  0  0  0  0
    0.6051    1.5269   -0.0648 C   0  0  0  0  0  0  0  0  0  0  0  0
    1.3915    0.2874    0.3727 C   0  0  0  0  0  0  0  0  0  0  0  0
    2.0329   -0.2582   -0.7812 O   0  0  0  0  0  0  0  0  0  0  0  0
    2.6662   -1.4648   -0.6364 C   0  0  0  0  0  0  0  0  0  0  0  0
    2.9247   -2.0880    0.5870 C   0  0  0  0  0  0  0  0  0  0  0  0
    3.5803   -3.3224    0.6293 C   0  0  0  0  0  0  0  0  0  0  0  0
    4.0003   -3.9450   -0.5487 C   0  0  0  0  0  0  0  0  0  0  0  0
    4.6732   -5.2848   -0.5060 C   0  0  0  0  0  0  0  0  0  0  0  0
    3.7361   -3.3238   -1.7745 C   0  0  0  0  0  0  0  0  0  0  0  0
    3.0803   -2.0830   -1.8290 C   0  0  0  0  0  0  0  0  0  0  0  0
    2.8159   -1.4377   -3.1615 C   0  0  0  0  0  0  0  0  0  0  0  0
   -2.8489    1.5437   -1.2149 C   0  0  0  0  0  0  0  0  0  0  0  0
   -3.3773    0.7793   -2.2598 C   0  0  0  0  0  0  0  0  0  0  0  0
   -4.7498   -1.7120   -4.9481 H   0  0  0  0  0  0  0  0  0  0  0  0
   -5.3161   -0.3373   -3.9918 H   0  0  0  0  0  0  0  0  0  0  0  0
   -3.7358   -0.2660   -4.8652 H   0  0  0  0  0  0  0  0  0  0  0  0
   -2.6559   -2.3263   -1.0751 H   0  0  0  0  0  0  0  0  0  0  0  0
   -1.7334   -0.9837    0.7904 H   0  0  0  0  0  0  0  0  0  0  0  0
   -3.9642    3.1381    3.8071 H   0  0  0  0  0  0  0  0  0  0  0  0
   -3.1620    4.5137    5.7102 H   0  0  0  0  0  0  0  0  0  0  0  0
   -0.7487    5.0757    5.9088 H   0  0  0  0  0  0  0  0  0  0  0  0
    0.8541    4.2579    4.1973 H   0  0  0  0  0  0  0  0  0  0  0  0
    0.0741    1.3234   -0.9996 H   0  0  0  0  0  0  0  0  0  0  0  0
    1.3129    2.3304   -0.3069 H   0  0  0  0  0  0  0  0  0  0  0  0
    0.7058   -0.4503    0.8052 H   0  0  0  0  0  0  0  0  0  0  0  0
    2.1408    0.5682    1.1219 H   0  0  0  0  0  0  0  0  0  0  0  0
    2.6359   -1.6383    1.5313 H   0  0  0  0  0  0  0  0  0  0  0  0
    3.7643   -3.7917    1.5933 H   0  0  0  0  0  0  0  0  0  0  0  0
    5.2210   -5.4187    0.4327 H   0  0  0  0  0  0  0  0  0  0  0  0
    3.9278   -6.0811   -0.5966 H   0  0  0  0  0  0  0  0  0  0  0  0
    5.3980   -5.3828   -1.3211 H   0  0  0  0  0  0  0  0  0  0  0  0
    4.0463   -3.8096   -2.6979 H   0  0  0  0  0  0  0  0  0  0  0  0
    1.7378   -1.3444   -3.3294 H   0  0  0  0  0  0  0  0  0  0  0  0
    3.2318   -2.0287   -3.9845 H   0  0  0  0  0  0  0  0  0  0  0  0
    3.2781   -0.4460   -3.2019 H   0  0  0  0  0  0  0  0  0  0  0  0
   -2.9168    2.6282   -1.2447 H   0  0  0  0  0  0  0  0  0  0  0  0
   -3.8420    1.3016   -3.0894 H   0  0  0  0  0  0  0  0  0  0  0  0
  1  2  1  0
  2  3  1  0
  3  4  2  0
  4  5  1  0
  5  6  2  0
  6  7  1  0
  7  8  2  0
  8  9  1  0
  9 10  2  0
 10 11  1  0
 11 12  2  0
 12 13  1  0
 13 14  2  0
 14 15  1  0
 15 16  2  0
 15 17  1  0
 17 18  1  0
 18 19  1  0
 19 20  1  0
 20 21  1  0
 21 22  2  0
 22 23  1  0
 23 24  2  0
 24 25  1  0
 24 26  1  0
 26 27  2  0
 27 28  1  0
  6 29  1  0
 29 30  2  0
 30  3  1  0
 17  7  1  0
 27 21  1  0
 14  9  1  0
  1 31  1  0
  1 32  1  0
  1 33  1  0
  4 34  1  0
  5 35  1  0
 10 36  1  0
 11 37  1  0
 12 38  1  0
 13 39  1  0
 18 40  1  0
 18 41  1  0
 19 42  1  0
 19 43  1  0
 22 44  1  0
 23 45  1  0
 25 46  1  0
 25 47  1  0
 25 48  1  0
 26 49  1  0
 28 50  1  0
 28 51  1  0
 28 52  1  0
 29 53  1  0
 30 54  1  0
M  END
$$$$
