
     RDKit          3D

 49 52  0  0  0  0  0  0  0  0999 V2000
   -3.8460    4.3224   -0.8035 C   0  0  0  0  0  0  0  0  0  0  0  0
   -3.0275    3.0887   -0.5596 C   0  0  0  0  0  0  0  0  0  0  0  0
   -3.4511    2.1255    0.3631 C   0  0  0  0  0  0  0  0  0  0  0  0
   -2.7072    0.9605    0.5649 C   0  0  0  0  0  0  0  0  0  0  0  0
   -1.5382    0.7443   -0.1732 C   0  0  0  0  0  0  0  0  0  0  0  0
   -0.7771   -0.4299    0.0374 N   0  0  0  0  0  0  0  0  0  0  0  0
   -0.2569   -1.2964   -0.9176 C   0  0  0  0  0  0  0  0  0  0  0  0
   -0.5332   -1.2618   -2.3861 C   0  0  0  0  0  0  0  0  0  0  0  0
   -1.9223   -1.7319   -2.7175 C   0  0  0  0  0  0  0  0  0  0  0  0
   -2.4393   -3.0085   -2.5968 C   0  0  0  0  0  0  0  0  0  0  0  0
   -3.7979   -3.0859   -3.0164 C   0  0  0  0  0  0  0  0  0  0  0  0
   -4.2737   -1.8674   -3.4454 C   0  0  0  0  0  0  0  0  0  0  0  0
   -3.0854   -0.6423   -3.3488 S   0  0  0  0  0  0  0  0  0  0  0  0
    0.4210   -2.2572   -0.3145 N   0  0  0  0  0  0  0  0  0  0  0  0
    0.3399   -2.0631    1.0350 N   0  0  0  0  0  0  0  0  0  0  0  0
   -0.3722   -0.9807    1.2401 C   0  0  0  0  0  0  0  0  0  0  0  0
   -0.5390   -0.2737    2.8167 S   0  0  0  0  0  0  0  0  0  0  0  0
    0.4853    1.2183    2.6645 C   0  0  0  0  0  0  0  0  0  0  0  0
    1.8497    0.9922    2.0264 C   0  0  0  0  0  0  0  0  0  0  0  0
    2.3004    1.8261    1.2425 O   0  0  0  0  0  0  0  0  0  0  0  0
    2.4964   -0.1583    2.4400 N   0  0  0  0  0  0  0  0  0  0  0  0
    3.7809   -0.6000    2.0638 C   0  0  0  0  0  0  0  0  0  0  0  0
    4.7188    0.2039    1.4041 C   0  0  0  0  0  0  0  0  0  0  0  0
    5.9786   -0.3035    1.0659 C   0  0  0  0  0  0  0  0  0  0  0  0
    6.3022   -1.6136    1.3925 C   0  0  0  0  0  0  0  0  0  0  0  0
    7.5104   -2.0945    1.0694 F   0  0  0  0  0  0  0  0  0  0  0  0
    5.3810   -2.4148    2.0522 C   0  0  0  0  0  0  0  0  0  0  0  0
    5.6937   -3.6788    2.3703 F   0  0  0  0  0  0  0  0  0  0  0  0
    4.1253   -1.9172    2.3922 C   0  0  0  0  0  0  0  0  0  0  0  0
   -1.1108    1.6976   -1.1024 C   0  0  0  0  0  0  0  0  0  0  0  0
   -1.8582    2.8615   -1.2956 C   0  0  0  0  0  0  0  0  0  0  0  0
   -4.5339    4.1549   -1.6383 H   0  0  0  0  0  0  0  0  0  0  0  0
   -3.2014    5.1757   -1.0397 H   0  0  0  0  0  0  0  0  0  0  0  0
   -4.4282    4.5903    0.0838 H   0  0  0  0  0  0  0  0  0  0  0  0
   -4.3710    2.2729    0.9263 H   0  0  0  0  0  0  0  0  0  0  0  0
   -3.0818    0.2222    1.2706 H   0  0  0  0  0  0  0  0  0  0  0  0
    0.1750   -1.9400   -2.8820 H   0  0  0  0  0  0  0  0  0  0  0  0
   -0.3241   -0.2781   -2.8135 H   0  0  0  0  0  0  0  0  0  0  0  0
   -1.8625   -3.8499   -2.2252 H   0  0  0  0  0  0  0  0  0  0  0  0
   -4.3939   -3.9911   -3.0058 H   0  0  0  0  0  0  0  0  0  0  0  0
   -5.2628   -1.6364   -3.8161 H   0  0  0  0  0  0  0  0  0  0  0  0
   -0.0589    1.9625    2.0752 H   0  0  0  0  0  0  0  0  0  0  0  0
    0.6437    1.6373    3.6635 H   0  0  0  0  0  0  0  0  0  0  0  0
    1.9129   -0.8442    2.9124 H   0  0  0  0  0  0  0  0  0  0  0  0
    4.5027    1.2368    1.1466 H   0  0  0  0  0  0  0  0  0  0  0  0
    6.7051    0.3199    0.5549 H   0  0  0  0  0  0  0  0  0  0  0  0
    3.4275   -2.5782    2.8965 H   0  0  0  0  0  0  0  0  0  0  0  0
   -0.1793    1.5866   -1.6523 H   0  0  0  0  0  0  0  0  0  0  0  0
   -1.5166    3.5978   -2.0206 H   0  0  0  0  0  0  0  0  0  0  0  0
  1  2  1  0
  2  3  2  0
  3  4  1  0
  4  5  2  0
  5  6  1  0
  6  7  1  0
  7  8  1  0
  8  9  1  0
  9 10  2  0
 10 11  1  0
 11 12  2  0
 12 13  1  0
  7 14  2  0
 14 15  1  0
 15 16  2  0
 16 17  1  0
 17 18  1  0
 18 19  1  0
 19 20  2  0
 19 21  1  0
 21 22  1  0
 22 23  2  0
 23 24  1  0
 24 25  2  0
 25 26  1  0
 25 27  1  0
 27 28  1  0
 27 29  2  0
  5 30  1  0
 30 31  2  0
 31  2  1  0
 16  6  1  0
 29 22  1  0
 13  9  1  0
  1 32  1  0
  1 33  1  0
  1 34  1  0
  3 35  1  0
  4 36  1  0
  8 37  1  0
  8 38  1  0
 10 39  1  0
 11 40  1  0
 12 41  1  0
 18 42  1  0
 18 43  1  0
 21 44  1  0
 23 45  1  0
 24 46  1  0
 29 47  1  0
 30 48  1  0
 31 49  1  0
M  END
$$$$
