
     RDKit          3D

 60 65  0  0  0  0  0  0  0  0999 V2000
   -1.9089    2.3269   -2.9773 O   0  0  0  0  0  0  0  0  0  0  0  0
   -2.1598    2.0488   -1.8101 C   0  0  0  0  0  0  0  0  0  0  0  0
   -1.1715    1.6231   -0.9296 N   0  0  0  0  0  0  0  0  0  0  0  0
   -1.3968    1.3062    0.4060 C   0  0  0  0  0  0  0  0  0  0  0  0
   -0.1838    0.8655    1.2130 C   0  0  0  0  0  0  0  0  0  0  0  0
    0.3831   -0.4468    0.6630 C   0  0  0  0  0  0  0  0  0  0  0  0
    1.6603   -0.8521    1.3912 C   0  0  0  0  0  0  0  0  0  0  0  0
    2.6080    0.2768    1.5175 N   0  0  0  0  0  0  0  0  0  0  0  0
    4.2573   -0.1054    1.6791 S   0  0  0  0  0  6  0  0  0  0  0  0
    4.9640    1.0981    2.0614 O   0  0  0  0  0  0  0  0  0  0  0  0
    4.3597   -1.3183    2.4615 O   0  0  0  0  0  0  0  0  0  0  0  0
    4.7373   -0.4927    0.0076 C   0  0  0  0  0  0  0  0  0  0  0  0
    5.2023    0.5284   -0.8302 C   0  0  0  0  0  0  0  0  0  0  0  0
    5.5966    0.2241   -2.1340 C   0  0  0  0  0  0  0  0  0  0  0  0
    5.5422   -1.0942   -2.5855 C   0  0  0  0  0  0  0  0  0  0  0  0
    5.0741   -2.1100   -1.7433 C   0  0  0  0  0  0  0  0  0  0  0  0
    4.6941   -1.8174   -0.4360 C   0  0  0  0  0  0  0  0  0  0  0  0
    4.9706   -3.4208   -2.1319 O   0  0  0  0  0  0  0  0  0  0  0  0
    5.0795   -3.5599   -3.5533 C   0  0  0  0  0  0  0  0  0  0  0  0
    6.2199   -2.7129   -4.0947 C   0  0  0  0  0  0  0  0  0  0  0  0
    5.9642   -1.3214   -3.8701 O   0  0  0  0  0  0  0  0  0  0  0  0
    2.2504    1.5215    0.8189 C   0  0  0  0  0  0  0  0  0  0  0  0
    0.8751    1.9779    1.2975 C   0  0  0  0  0  0  0  0  0  0  0  0
   -2.5656    1.3640    0.9839 N   0  0  0  0  0  0  0  0  0  0  0  0
   -3.5500    1.7714    0.1438 C   0  0  0  0  0  0  0  0  0  0  0  0
   -3.4507    2.1158   -1.1828 C   0  0  0  0  0  0  0  0  0  0  0  0
   -4.6636    2.4842   -1.6762 N   0  0  0  0  0  0  0  0  0  0  0  0
   -5.5437    2.3808   -0.6800 N   0  0  0  0  0  0  0  0  0  0  0  0
   -4.8797    1.9349    0.4159 N   0  0  0  0  0  0  0  0  0  0  0  0
   -5.5636    1.7469    1.6796 C   0  0  0  0  0  0  0  0  0  0  0  0
   -6.1256    0.3576    1.8012 C   0  0  0  0  0  0  0  0  0  0  0  0
   -5.3120   -0.7258    2.1661 C   0  0  0  0  0  0  0  0  0  0  0  0
   -5.8477   -2.0131    2.2546 C   0  0  0  0  0  0  0  0  0  0  0  0
   -7.1980   -2.2319    1.9796 C   0  0  0  0  0  0  0  0  0  0  0  0
   -8.0142   -1.1632    1.6157 C   0  0  0  0  0  0  0  0  0  0  0  0
   -7.4747    0.1164    1.5285 C   0  0  0  0  0  0  0  0  0  0  0  0
   -8.2789    1.1326    1.1879 F   0  0  0  0  0  0  0  0  0  0  0  0
   -0.2512    1.5675   -1.3380 H   0  0  0  0  0  0  0  0  0  0  0  0
   -0.5393    0.6718    2.2351 H   0  0  0  0  0  0  0  0  0  0  0  0
    0.5941   -0.3603   -0.4103 H   0  0  0  0  0  0  0  0  0  0  0  0
   -0.3627   -1.2461    0.7566 H   0  0  0  0  0  0  0  0  0  0  0  0
    2.1112   -1.6942    0.8573 H   0  0  0  0  0  0  0  0  0  0  0  0
    1.4108   -1.1948    2.4021 H   0  0  0  0  0  0  0  0  0  0  0  0
    5.2719    1.5537   -0.4727 H   0  0  0  0  0  0  0  0  0  0  0  0
    5.9653    1.0075   -2.7911 H   0  0  0  0  0  0  0  0  0  0  0  0
    4.3638   -2.6179    0.2216 H   0  0  0  0  0  0  0  0  0  0  0  0
    5.2580   -4.6178   -3.7690 H   0  0  0  0  0  0  0  0  0  0  0  0
    4.1209   -3.2754   -4.0044 H   0  0  0  0  0  0  0  0  0  0  0  0
    6.3214   -2.8617   -5.1743 H   0  0  0  0  0  0  0  0  0  0  0  0
    7.1746   -2.9739   -3.6217 H   0  0  0  0  0  0  0  0  0  0  0  0
    2.2492    1.3624   -0.2644 H   0  0  0  0  0  0  0  0  0  0  0  0
    2.9700    2.3159    1.0375 H   0  0  0  0  0  0  0  0  0  0  0  0
    0.5765    2.8761    0.7438 H   0  0  0  0  0  0  0  0  0  0  0  0
    0.9572    2.2907    2.3475 H   0  0  0  0  0  0  0  0  0  0  0  0
   -4.8506    1.9444    2.4890 H   0  0  0  0  0  0  0  0  0  0  0  0
   -6.3463    2.5107    1.7563 H   0  0  0  0  0  0  0  0  0  0  0  0
   -4.2550   -0.5744    2.3791 H   0  0  0  0  0  0  0  0  0  0  0  0
   -5.2100   -2.8481    2.5357 H   0  0  0  0  0  0  0  0  0  0  0  0
   -7.6136   -3.2341    2.0469 H   0  0  0  0  0  0  0  0  0  0  0  0
   -9.0663   -1.3181    1.3986 H   0  0  0  0  0  0  0  0  0  0  0  0
  1  2  2  0
  2  3  1  0
  3  4  1  0
  4  5  1  0
  5  6  1  0
  6  7  1  0
  7  8  1  0
  8  9  1  0
  9 10  2  0
  9 11  2  0
  9 12  1  0
 12 13  2  0
 13 14  1  0
 14 15  2  0
 15 16  1  0
 16 17  2  0
 16 18  1  0
 18 19  1  0
 19 20  1  0
 20 21  1  0
  8 22  1  0
 22 23  1  0
  4 24  2  0
 24 25  1  0
 25 26  2  0
 26 27  1  0
 27 28  2  0
 28 29  1  0
 29 30  1  0
 30 31  1  0
 31 32  2  0
 32 33  1  0
 33 34  2  0
 34 35  1  0
 35 36  2  0
 36 37  1  0
 26  2  1  0
 36 31  1  0
 23  5  1  0
 29 25  1  0
 17 12  1  0
 21 15  1  0
  3 38  1  0
  5 39  1  0
  6 40  1  0
  6 41  1  0
  7 42  1  0
  7 43  1  0
 13 44  1  0
 14 45  1  0
 17 46  1  0
 19 47  1  0
 19 48  1  0
 20 49  1  0
 20 50  1  0
 22 51  1  0
 22 52  1  0
 23 53  1  0
 23 54  1  0
 30 55  1  0
 30 56  1  0
 32 57  1  0
 33 58  1  0
 34 59  1  0
 35 60  1  0
M  END
$$$$
