
     RDKit          3D

 61 63  0  0  0  0  0  0  0  0999 V2000
   -9.7554   -2.1304    0.1472 C   0  0  0  0  0  0  0  0  0  0  0  0
   -9.4965   -0.8789    0.7707 O   0  0  0  0  0  0  0  0  0  0  0  0
   -8.2311   -0.6781    1.2493 C   0  0  0  0  0  0  0  0  0  0  0  0
   -7.1746   -1.5857    1.1841 C   0  0  0  0  0  0  0  0  0  0  0  0
   -5.9248   -1.2496    1.7166 C   0  0  0  0  0  0  0  0  0  0  0  0
   -5.7158   -0.0051    2.3267 C   0  0  0  0  0  0  0  0  0  0  0  0
   -4.3605    0.3572    2.8741 C   0  0  0  0  0  0  0  0  0  0  0  0
   -3.5173    0.8971    1.8406 N   0  0  0  0  0  0  0  0  0  0  0  0
   -2.6225    0.1255    1.1393 C   0  0  0  0  0  0  0  0  0  0  0  0
   -2.3219   -1.0362    1.3771 O   0  0  0  0  0  0  0  0  0  0  0  0
   -1.9732    0.8668   -0.0512 C   0  0  0  0  0  0  0  0  0  0  0  0
   -2.1899    2.0587   -0.2186 O   0  0  0  0  0  0  0  0  0  0  0  0
   -1.1777    0.0620   -0.8329 N   0  0  0  0  0  0  0  0  0  0  0  0
   -0.2276    0.6162   -1.7867 C   0  0  0  0  0  0  0  0  0  0  0  0
    1.1838    0.7918   -1.1838 C   0  0  0  0  0  0  0  0  0  0  0  0
    1.1568    1.7585   -0.1184 O   0  0  0  0  0  0  0  0  0  0  0  0
    2.0873    1.3002    0.8654 C   0  0  0  0  0  0  0  0  0  0  0  0
    1.9569   -0.2057    0.8255 C   0  0  0  0  0  0  0  0  0  0  0  0
    1.6552   -0.4697   -0.5833 N   0  0  0  0  0  0  0  0  0  0  0  0
    2.6473   -1.4582   -1.4986 S   0  0  0  0  0  6  0  0  0  0  0  0
    2.8816   -2.6712   -0.7458 O   0  0  0  0  0  0  0  0  0  0  0  0
    2.1061   -1.4992   -2.8401 O   0  0  0  0  0  0  0  0  0  0  0  0
    4.1932   -0.5759   -1.5731 C   0  0  0  0  0  0  0  0  0  0  0  0
    4.4547    0.2795   -2.6442 C   0  0  0  0  0  0  0  0  0  0  0  0
    5.6695    0.9662   -2.6988 C   0  0  0  0  0  0  0  0  0  0  0  0
    6.6322    0.7827   -1.6990 C   0  0  0  0  0  0  0  0  0  0  0  0
    7.8470    1.4202   -1.6666 O   0  0  0  0  0  0  0  0  0  0  0  0
    8.1464    2.3293   -2.7163 C   0  0  0  0  0  0  0  0  0  0  0  0
    6.3802   -0.1206   -0.6442 C   0  0  0  0  0  0  0  0  0  0  0  0
    7.3757   -0.2527    0.2920 O   0  0  0  0  0  0  0  0  0  0  0  0
    7.3070   -1.3718    1.1658 C   0  0  0  0  0  0  0  0  0  0  0  0
    5.1603   -0.8007   -0.5879 C   0  0  0  0  0  0  0  0  0  0  0  0
   -6.7771    0.9059    2.3793 C   0  0  0  0  0  0  0  0  0  0  0  0
   -8.0239    0.5669    1.8475 C   0  0  0  0  0  0  0  0  0  0  0  0
   -9.6241   -2.9576    0.8525 H   0  0  0  0  0  0  0  0  0  0  0  0
   -9.1311   -2.2651   -0.7423 H   0  0  0  0  0  0  0  0  0  0  0  0
  -10.8006   -2.1326   -0.1769 H   0  0  0  0  0  0  0  0  0  0  0  0
   -7.2846   -2.5617    0.7237 H   0  0  0  0  0  0  0  0  0  0  0  0
   -5.1077   -1.9667    1.6483 H   0  0  0  0  0  0  0  0  0  0  0  0
   -3.8893   -0.5198    3.3323 H   0  0  0  0  0  0  0  0  0  0  0  0
   -4.4549    1.1203    3.6544 H   0  0  0  0  0  0  0  0  0  0  0  0
   -3.7257    1.8104    1.4472 H   0  0  0  0  0  0  0  0  0  0  0  0
   -1.0042   -0.8752   -0.4765 H   0  0  0  0  0  0  0  0  0  0  0  0
   -0.1982   -0.0761   -2.6334 H   0  0  0  0  0  0  0  0  0  0  0  0
   -0.6020    1.5843   -2.1360 H   0  0  0  0  0  0  0  0  0  0  0  0
    1.8673    1.1750   -1.9457 H   0  0  0  0  0  0  0  0  0  0  0  0
    1.8426    1.7229    1.8432 H   0  0  0  0  0  0  0  0  0  0  0  0
    3.0906    1.6296    0.5735 H   0  0  0  0  0  0  0  0  0  0  0  0
    1.0980   -0.5363    1.4202 H   0  0  0  0  0  0  0  0  0  0  0  0
    2.8466   -0.7083    1.2079 H   0  0  0  0  0  0  0  0  0  0  0  0
    3.7270    0.4183   -3.4412 H   0  0  0  0  0  0  0  0  0  0  0  0
    5.8387    1.6328   -3.5388 H   0  0  0  0  0  0  0  0  0  0  0  0
    9.1407    2.7441   -2.5258 H   0  0  0  0  0  0  0  0  0  0  0  0
    7.4364    3.1626   -2.7322 H   0  0  0  0  0  0  0  0  0  0  0  0
    8.1794    1.8180   -3.6838 H   0  0  0  0  0  0  0  0  0  0  0  0
    7.2108   -2.3101    0.6088 H   0  0  0  0  0  0  0  0  0  0  0  0
    8.2438   -1.4134    1.7296 H   0  0  0  0  0  0  0  0  0  0  0  0
    6.4910   -1.2543    1.8860 H   0  0  0  0  0  0  0  0  0  0  0  0
    4.9449   -1.5027    0.2114 H   0  0  0  0  0  0  0  0  0  0  0  0
   -6.6444    1.8853    2.8327 H   0  0  0  0  0  0  0  0  0  0  0  0
   -8.8423    1.2811    1.8968 H   0  0  0  0  0  0  0  0  0  0  0  0
  1  2  1  0
  2  3  1  0
  3  4  2  0
  4  5  1  0
  5  6  2  0
  6  7  1  0
  7  8  1  0
  8  9  1  0
  9 10  2  0
  9 11  1  0
 11 12  2  0
 11 13  1  0
 13 14  1  0
 14 15  1  0
 15 16  1  0
 16 17  1  0
 17 18  1  0
 18 19  1  0
 19 20  1  0
 20 21  2  0
 20 22  2  0
 20 23  1  0
 23 24  2  0
 24 25  1  0
 25 26  2  0
 26 27  1  0
 27 28  1  0
 26 29  1  0
 29 30  1  0
 30 31  1  0
 29 32  2  0
  6 33  1  0
 33 34  2  0
 34  3  1  0
 19 15  1  0
 32 23  1  0
  1 35  1  0
  1 36  1  0
  1 37  1  0
  4 38  1  0
  5 39  1  0
  7 40  1  0
  7 41  1  0
  8 42  1  0
 13 43  1  0
 14 44  1  0
 14 45  1  0
 15 46  1  0
 17 47  1  0
 17 48  1  0
 18 49  1  0
 18 50  1  0
 24 51  1  0
 25 52  1  0
 28 53  1  0
 28 54  1  0
 28 55  1  0
 31 56  1  0
 31 57  1  0
 31 58  1  0
 32 59  1  0
 33 60  1  0
 34 61  1  0
M  END
$$$$
