
     RDKit          3D

 51 53  0  0  0  0  0  0  0  0999 V2000
   -9.6060   -1.2713   -0.4088 C   0  0  0  0  0  0  0  0  0  0  0  0
   -8.2050   -0.7562   -0.2679 C   0  0  0  0  0  0  0  0  0  0  0  0
   -7.9745    0.5708    0.1084 C   0  0  0  0  0  0  0  0  0  0  0  0
   -6.6701    1.0691    0.2106 C   0  0  0  0  0  0  0  0  0  0  0  0
   -5.5767    0.2514   -0.0712 C   0  0  0  0  0  0  0  0  0  0  0  0
   -4.2373    0.6752    0.0003 N   0  0  0  0  0  0  0  0  0  0  0  0
   -3.7497    1.9219    0.3464 C   0  0  0  0  0  0  0  0  0  0  0  0
   -4.4110    2.9059    0.6673 O   0  0  0  0  0  0  0  0  0  0  0  0
   -2.2197    1.9976    0.3018 C   0  0  0  0  0  0  0  0  0  0  0  0
   -1.6475    0.7688   -0.1446 O   0  0  0  0  0  0  0  0  0  0  0  0
   -0.2823    0.7049   -0.1918 C   0  0  0  0  0  0  0  0  0  0  0  0
    0.2316   -0.5392   -0.5658 C   0  0  0  0  0  0  0  0  0  0  0  0
    1.6110   -0.7434   -0.6495 C   0  0  0  0  0  0  0  0  0  0  0  0
    2.4909    0.2924   -0.3391 C   0  0  0  0  0  0  0  0  0  0  0  0
    3.9005    0.0515   -0.5217 N   0  0  0  0  0  0  0  0  0  0  0  0
    4.4130    0.4942   -1.8414 C   0  0  0  0  0  0  0  0  0  0  0  0
    4.8759    0.4949    0.8202 S   0  0  0  0  0  6  0  0  0  0  0  0
    4.2777   -0.0101    2.0385 O   0  0  0  0  0  0  0  0  0  0  0  0
    5.2264    1.8946    0.6789 O   0  0  0  0  0  0  0  0  0  0  0  0
    6.3491   -0.4679    0.5452 C   0  0  0  0  0  0  0  0  0  0  0  0
    7.5555    0.1641    0.2212 C   0  0  0  0  0  0  0  0  0  0  0  0
    8.6989   -0.6105    0.0214 C   0  0  0  0  0  0  0  0  0  0  0  0
    8.6258   -1.9950    0.1572 C   0  0  0  0  0  0  0  0  0  0  0  0
    9.7273   -2.7333   -0.0319 F   0  0  0  0  0  0  0  0  0  0  0  0
    7.4297   -2.6252    0.4911 C   0  0  0  0  0  0  0  0  0  0  0  0
    6.2807   -1.8596    0.6896 C   0  0  0  0  0  0  0  0  0  0  0  0
    1.9813    1.5493   -0.0046 C   0  0  0  0  0  0  0  0  0  0  0  0
    0.5984    1.7516    0.0826 C   0  0  0  0  0  0  0  0  0  0  0  0
   -5.8076   -1.0735   -0.4594 C   0  0  0  0  0  0  0  0  0  0  0  0
   -7.1101   -1.5726   -0.5612 C   0  0  0  0  0  0  0  0  0  0  0  0
  -10.0081   -0.9978   -1.3891 H   0  0  0  0  0  0  0  0  0  0  0  0
  -10.2525   -0.8540    0.3707 H   0  0  0  0  0  0  0  0  0  0  0  0
   -9.6373   -2.3611   -0.3082 H   0  0  0  0  0  0  0  0  0  0  0  0
   -8.8096    1.2339    0.3241 H   0  0  0  0  0  0  0  0  0  0  0  0
   -6.5457    2.1047    0.5098 H   0  0  0  0  0  0  0  0  0  0  0  0
   -3.5228   -0.0079   -0.2351 H   0  0  0  0  0  0  0  0  0  0  0  0
   -1.8808    2.2258    1.3191 H   0  0  0  0  0  0  0  0  0  0  0  0
   -1.9619    2.8049   -0.3930 H   0  0  0  0  0  0  0  0  0  0  0  0
   -0.4441   -1.3591   -0.7938 H   0  0  0  0  0  0  0  0  0  0  0  0
    1.9944   -1.7156   -0.9459 H   0  0  0  0  0  0  0  0  0  0  0  0
    3.8049    0.0614   -2.6441 H   0  0  0  0  0  0  0  0  0  0  0  0
    5.4362    0.1440   -2.0007 H   0  0  0  0  0  0  0  0  0  0  0  0
    4.3842    1.5843   -1.9350 H   0  0  0  0  0  0  0  0  0  0  0  0
    7.6138    1.2458    0.1285 H   0  0  0  0  0  0  0  0  0  0  0  0
    9.6479   -0.1467   -0.2311 H   0  0  0  0  0  0  0  0  0  0  0  0
    7.4039   -3.7056    0.6024 H   0  0  0  0  0  0  0  0  0  0  0  0
    5.3440   -2.3422    0.9618 H   0  0  0  0  0  0  0  0  0  0  0  0
    2.6467    2.3854    0.1962 H   0  0  0  0  0  0  0  0  0  0  0  0
    0.2505    2.7401    0.3642 H   0  0  0  0  0  0  0  0  0  0  0  0
   -4.9784   -1.7374   -0.6896 H   0  0  0  0  0  0  0  0  0  0  0  0
   -7.2614   -2.6035   -0.8730 H   0  0  0  0  0  0  0  0  0  0  0  0
  1  2  1  0
  2  3  2  0
  3  4  1  0
  4  5  2  0
  5  6  1  0
  6  7  1  0
  7  8  2  0
  7  9  1  0
  9 10  1  0
 10 11  1  0
 11 12  2  0
 12 13  1  0
 13 14  2  0
 14 15  1  0
 15 16  1  0
 15 17  1  0
 17 18  2  0
 17 19  2  0
 17 20  1  0
 20 21  2  0
 21 22  1  0
 22 23  2  0
 23 24  1  0
 23 25  1  0
 25 26  2  0
 14 27  1  0
 27 28  2  0
  5 29  1  0
 29 30  2  0
 30  2  1  0
 28 11  1  0
 26 20  1  0
  1 31  1  0
  1 32  1  0
  1 33  1  0
  3 34  1  0
  4 35  1  0
  6 36  1  0
  9 37  1  0
  9 38  1  0
 12 39  1  0
 13 40  1  0
 16 41  1  0
 16 42  1  0
 16 43  1  0
 21 44  1  0
 22 45  1  0
 25 46  1  0
 26 47  1  0
 27 48  1  0
 28 49  1  0
 29 50  1  0
 30 51  1  0
M  END
$$$$
