
     RDKit          3D

 49 52  0  0  0  0  0  0  0  0999 V2000
   -5.1969    2.4958   -0.3034 O   0  0  0  0  0  0  0  0  0  0  0  0
   -4.4443    1.7853    0.3590 C   0  0  0  0  0  0  0  0  0  0  0  0
   -3.0118    1.7602    0.1194 C   0  0  0  0  0  0  0  0  0  0  0  0
   -2.2788    2.6347   -0.6982 C   0  0  0  0  0  0  0  0  0  0  0  0
   -0.9764    2.3568   -0.7159 N   0  0  0  0  0  0  0  0  0  0  0  0
   -0.8330    1.2642    0.0810 N   0  0  0  0  0  0  0  0  0  0  0  0
    0.4765    0.7168    0.2768 C   0  0  0  0  0  0  0  0  0  0  0  0
    1.5718    1.4555   -0.2250 C   0  0  0  0  0  0  0  0  0  0  0  0
    2.8912    1.0160   -0.0606 C   0  0  0  0  0  0  0  0  0  0  0  0
    3.1426   -0.1885    0.5943 C   0  0  0  0  0  0  0  0  0  0  0  0
    4.8177   -0.7508    0.8148 S   0  0  0  0  0  6  0  0  0  0  0  0
    4.8313   -1.5656    2.0114 O   0  0  0  0  0  0  0  0  0  0  0  0
    5.6931    0.3913    0.6729 O   0  0  0  0  0  0  0  0  0  0  0  0
    5.0365   -1.8089   -0.4765 N   0  0  0  0  0  0  0  0  0  0  0  0
    4.7713   -1.3762   -1.8038 C   0  0  0  0  0  0  0  0  0  0  0  0
    5.4880   -0.3262   -2.3765 C   0  0  0  0  0  0  0  0  0  0  0  0
    5.1817    0.1045   -3.6682 C   0  0  0  0  0  0  0  0  0  0  0  0
    4.1607   -0.5163   -4.3867 C   0  0  0  0  0  0  0  0  0  0  0  0
    3.4488   -1.5716   -3.8173 C   0  0  0  0  0  0  0  0  0  0  0  0
    3.7551   -2.0045   -2.5261 C   0  0  0  0  0  0  0  0  0  0  0  0
    2.0897   -0.9429    1.1101 C   0  0  0  0  0  0  0  0  0  0  0  0
    0.7703   -0.4859    0.9378 C   0  0  0  0  0  0  0  0  0  0  0  0
   -0.2488   -1.3856    1.4174 N   0  0  0  0  0  4  0  0  0  0  0  0
   -0.4793   -1.3752    2.6326 O   0  0  0  0  0  0  0  0  0  0  0  0
   -0.7964   -2.1076    0.5763 O   0  0  0  0  0  1  0  0  0  0  0  0
   -2.0530    0.8864    0.5978 C   0  0  0  0  0  0  0  0  0  0  0  0
   -5.0448    0.8890    1.3717 C   0  0  0  0  0  0  0  0  0  0  0  0
   -6.0884    0.0542    0.9560 C   0  0  0  0  0  0  0  0  0  0  0  0
   -6.6859   -0.7968    1.8766 C   0  0  0  0  0  0  0  0  0  0  0  0
   -7.6767   -1.6058    1.4806 F   0  0  0  0  0  0  0  0  0  0  0  0
   -6.2724   -0.8240    3.2051 C   0  0  0  0  0  0  0  0  0  0  0  0
   -5.2489    0.0247    3.6305 C   0  0  0  0  0  0  0  0  0  0  0  0
   -4.6426    0.8878    2.7147 C   0  0  0  0  0  0  0  0  0  0  0  0
   -3.6705    1.7472    3.1411 O   0  0  0  0  0  0  0  0  0  0  0  0
   -2.6495    3.4724   -1.2774 H   0  0  0  0  0  0  0  0  0  0  0  0
    1.4184    2.4022   -0.7465 H   0  0  0  0  0  0  0  0  0  0  0  0
    3.7083    1.6195   -0.4537 H   0  0  0  0  0  0  0  0  0  0  0  0
    4.8426   -2.7786   -0.2355 H   0  0  0  0  0  0  0  0  0  0  0  0
    6.2947    0.1587   -1.8320 H   0  0  0  0  0  0  0  0  0  0  0  0
    5.7425    0.9228   -4.1141 H   0  0  0  0  0  0  0  0  0  0  0  0
    3.9226   -0.1799   -5.3932 H   0  0  0  0  0  0  0  0  0  0  0  0
    2.6547   -2.0552   -4.3816 H   0  0  0  0  0  0  0  0  0  0  0  0
    3.1888   -2.8248   -2.0953 H   0  0  0  0  0  0  0  0  0  0  0  0
    2.2879   -1.8792    1.6304 H   0  0  0  0  0  0  0  0  0  0  0  0
   -2.1797    0.0661    1.2819 H   0  0  0  0  0  0  0  0  0  0  0  0
   -6.4380    0.0634   -0.0723 H   0  0  0  0  0  0  0  0  0  0  0  0
   -6.7580   -1.5008    3.9025 H   0  0  0  0  0  0  0  0  0  0  0  0
   -4.9450    0.0027    4.6731 H   0  0  0  0  0  0  0  0  0  0  0  0
   -3.5675    1.6725    4.1059 H   0  0  0  0  0  0  0  0  0  0  0  0
  1  2  2  0
  2  3  1  0
  3  4  1  0
  4  5  2  0
  5  6  1  0
  6  7  1  0
  7  8  2  0
  8  9  1  0
  9 10  2  0
 10 11  1  0
 11 12  2  0
 11 13  2  0
 11 14  1  0
 14 15  1  0
 15 16  2  0
 16 17  1  0
 17 18  2  0
 18 19  1  0
 19 20  2  0
 10 21  1  0
 21 22  2  0
 22 23  1  0
 23 24  2  0
 23 25  1  0
  6 26  1  0
  2 27  1  0
 27 28  2  0
 28 29  1  0
 29 30  1  0
 29 31  2  0
 31 32  1  0
 32 33  2  0
 33 34  1  0
 26  3  2  0
 33 27  1  0
 22  7  1  0
 20 15  1  0
  4 35  1  0
  8 36  1  0
  9 37  1  0
 14 38  1  0
 16 39  1  0
 17 40  1  0
 18 41  1  0
 19 42  1  0
 20 43  1  0
 21 44  1  0
 26 45  1  0
 28 46  1  0
 31 47  1  0
 32 48  1  0
 34 49  1  0
M  CHG  2  23   1  25  -1
M  END
$$$$
