
     RDKit          3D

 31 32  0  0  0  0  0  0  0  0999 V2000
   -2.3415    2.3928   -0.9673 C   0  0  0  0  0  0  0  0  0  0  0  0
   -2.3487    0.9466   -0.6707 N   0  0  0  0  0  4  0  0  0  0  0  0
   -2.9862    0.1107   -1.5258 C   0  0  0  0  0  0  0  0  0  0  0  0
   -3.0136   -1.2604   -1.3062 C   0  0  0  0  0  0  0  0  0  0  0  0
   -2.3802   -1.7827   -0.1909 C   0  0  0  0  0  0  0  0  0  0  0  0
   -1.7305   -0.9206    0.6822 C   0  0  0  0  0  0  0  0  0  0  0  0
   -1.7114    0.4577    0.4294 C   0  0  0  0  0  0  0  0  0  0  0  0
   -1.0418    1.3717    1.3648 C   0  0  0  0  0  0  0  0  0  0  0  0
    0.2763    1.4024    1.6259 C   0  0  0  0  0  0  0  0  0  0  0  0
    1.2882    0.5460    1.0011 C   0  0  0  0  0  0  0  0  0  0  0  0
    1.8913   -0.4687    1.7554 C   0  0  0  0  0  0  0  0  0  0  0  0
    2.8493   -1.3067    1.1764 C   0  0  0  0  0  0  0  0  0  0  0  0
    3.2088   -1.1210   -0.1643 C   0  0  0  0  0  0  0  0  0  0  0  0
    4.2049   -2.0056   -0.7832 N   0  0  0  0  0  4  0  0  0  0  0  0
    4.7366   -2.8626   -0.0653 O   0  0  0  0  0  0  0  0  0  0  0  0
    4.4380   -1.8472   -1.9894 O   0  0  0  0  0  1  0  0  0  0  0  0
    2.6211   -0.0992   -0.9225 C   0  0  0  0  0  0  0  0  0  0  0  0
    1.6635    0.7335   -0.3354 C   0  0  0  0  0  0  0  0  0  0  0  0
   -2.8709    2.9078   -0.1615 H   0  0  0  0  0  0  0  0  0  0  0  0
   -1.3027    2.7236   -1.0454 H   0  0  0  0  0  0  0  0  0  0  0  0
   -2.8505    2.5843   -1.9153 H   0  0  0  0  0  0  0  0  0  0  0  0
   -3.4764    0.5471   -2.3922 H   0  0  0  0  0  0  0  0  0  0  0  0
   -3.5290   -1.9190   -2.0026 H   0  0  0  0  0  0  0  0  0  0  0  0
   -2.3930   -2.8548    0.0011 H   0  0  0  0  0  0  0  0  0  0  0  0
   -1.2391   -1.3275    1.5647 H   0  0  0  0  0  0  0  0  0  0  0  0
   -1.6970    2.0572    1.8989 H   0  0  0  0  0  0  0  0  0  0  0  0
    0.6636    2.0987    2.3700 H   0  0  0  0  0  0  0  0  0  0  0  0
    1.6247   -0.6171    2.8010 H   0  0  0  0  0  0  0  0  0  0  0  0
    3.3056   -2.0899    1.7802 H   0  0  0  0  0  0  0  0  0  0  0  0
    2.9064    0.0648   -1.9605 H   0  0  0  0  0  0  0  0  0  0  0  0
    1.2341    1.5378   -0.9278 H   0  0  0  0  0  0  0  0  0  0  0  0
  1  2  1  0
  2  3  2  0
  3  4  1  0
  4  5  2  0
  5  6  1  0
  6  7  2  0
  7  8  1  0
  8  9  2  3
  9 10  1  0
 10 11  2  0
 11 12  1  0
 12 13  2  0
 13 14  1  0
 14 15  2  0
 14 16  1  0
 13 17  1  0
 17 18  2  0
  7  2  1  0
 18 10  1  0
  1 19  1  0
  1 20  1  0
  1 21  1  0
  3 22  1  0
  4 23  1  0
  5 24  1  0
  6 25  1  0
  8 26  1  0
  9 27  1  0
 11 28  1  0
 12 29  1  0
 17 30  1  0
 18 31  1  0
M  CHG  3   2   1  14   1  16  -1
M  END
$$$$
