
     RDKit          3D

 40 41  0  0  0  0  0  0  0  0999 V2000
    4.8463    1.2038    3.1625 C   0  0  0  0  0  0  0  0  0  0  0  0
    5.8472   -0.2631    2.8177 S   0  0  0  0  0  0  0  0  0  0  0  0
    5.8630   -0.1993    0.9989 C   0  0  0  0  0  0  0  0  0  0  0  0
    4.5070   -0.4218    0.3759 C   0  0  0  0  0  0  0  0  0  0  0  0
    3.9032   -1.6876    0.4175 C   0  0  0  0  0  0  0  0  0  0  0  0
    2.6513   -1.8975   -0.1653 C   0  0  0  0  0  0  0  0  0  0  0  0
    1.9800   -0.8416   -0.7903 C   0  0  0  0  0  0  0  0  0  0  0  0
    0.6476   -1.1085   -1.3993 C   0  0  0  0  0  0  0  0  0  0  0  0
    0.3591   -2.2348   -1.7855 O   0  0  0  0  0  0  0  0  0  0  0  0
   -0.2227   -0.0354   -1.4550 N   0  0  0  0  0  0  0  0  0  0  0  0
   -1.6027   -0.2404   -1.8706 C   0  0  0  0  0  0  0  0  0  0  0  0
   -2.2656    1.0717   -2.2854 C   0  0  0  0  0  0  0  0  0  0  0  0
   -3.9879    0.8353   -2.8462 S   0  0  0  0  0  0  0  0  0  0  0  0
   -4.7746    0.4455   -1.2954 C   0  0  0  0  0  0  0  0  0  0  0  0
   -4.8857    1.4032   -0.2820 C   0  0  0  0  0  0  0  0  0  0  0  0
   -5.5094    1.0814    0.9265 C   0  0  0  0  0  0  0  0  0  0  0  0
   -6.0283   -0.1980    1.1171 C   0  0  0  0  0  0  0  0  0  0  0  0
   -6.8709   -0.6342    2.7516 Br  0  0  0  0  0  0  0  0  0  0  0  0
   -5.9345   -1.1555    0.1094 C   0  0  0  0  0  0  0  0  0  0  0  0
   -5.3118   -0.8307   -1.0987 C   0  0  0  0  0  0  0  0  0  0  0  0
    2.5815    0.4211   -0.8509 C   0  0  0  0  0  0  0  0  0  0  0  0
    3.8361    0.6283   -0.2686 C   0  0  0  0  0  0  0  0  0  0  0  0
    5.2691    2.0826    2.6687 H   0  0  0  0  0  0  0  0  0  0  0  0
    4.8402    1.3842    4.2409 H   0  0  0  0  0  0  0  0  0  0  0  0
    3.8138    1.0550    2.8371 H   0  0  0  0  0  0  0  0  0  0  0  0
    6.2901    0.7589    0.6825 H   0  0  0  0  0  0  0  0  0  0  0  0
    6.5490   -0.9735    0.6361 H   0  0  0  0  0  0  0  0  0  0  0  0
    4.4069   -2.5203    0.9060 H   0  0  0  0  0  0  0  0  0  0  0  0
    2.1996   -2.8871   -0.1282 H   0  0  0  0  0  0  0  0  0  0  0  0
   -0.0346    0.7347   -0.8267 H   0  0  0  0  0  0  0  0  0  0  0  0
   -2.1180   -0.6989   -1.0196 H   0  0  0  0  0  0  0  0  0  0  0  0
   -1.6159   -0.9581   -2.6993 H   0  0  0  0  0  0  0  0  0  0  0  0
   -2.2333    1.8008   -1.4686 H   0  0  0  0  0  0  0  0  0  0  0  0
   -1.7082    1.5134   -3.1192 H   0  0  0  0  0  0  0  0  0  0  0  0
   -4.5002    2.4094   -0.4268 H   0  0  0  0  0  0  0  0  0  0  0  0
   -5.5908    1.8345    1.7058 H   0  0  0  0  0  0  0  0  0  0  0  0
   -6.3427   -2.1530    0.2500 H   0  0  0  0  0  0  0  0  0  0  0  0
   -5.2472   -1.5835   -1.8816 H   0  0  0  0  0  0  0  0  0  0  0  0
    2.1025    1.2445   -1.3730 H   0  0  0  0  0  0  0  0  0  0  0  0
    4.2916    1.6147   -0.3311 H   0  0  0  0  0  0  0  0  0  0  0  0
  1  2  1  0
  2  3  1  0
  3  4  1  0
  4  5  2  0
  5  6  1  0
  6  7  2  0
  7  8  1  0
  8  9  2  0
  8 10  1  0
 10 11  1  0
 11 12  1  0
 12 13  1  0
 13 14  1  0
 14 15  2  0
 15 16  1  0
 16 17  2  0
 17 18  1  0
 17 19  1  0
 19 20  2  0
  7 21  1  0
 21 22  2  0
 22  4  1  0
 20 14  1  0
  1 23  1  0
  1 24  1  0
  1 25  1  0
  3 26  1  0
  3 27  1  0
  5 28  1  0
  6 29  1  0
 10 30  1  0
 11 31  1  0
 11 32  1  0
 12 33  1  0
 12 34  1  0
 15 35  1  0
 16 36  1  0
 19 37  1  0
 20 38  1  0
 21 39  1  0
 22 40  1  0
M  END
$$$$
