
     RDKit          3D

 63 67  0  0  0  0  0  0  0  0999 V2000
    1.9442    5.2857   -3.6589 C   0  0  0  0  0  0  0  0  0  0  0  0
    3.1154    4.7413   -3.0648 O   0  0  0  0  0  0  0  0  0  0  0  0
    3.0803    3.4153   -2.7322 C   0  0  0  0  0  0  0  0  0  0  0  0
    1.9993    2.5523   -2.9101 C   0  0  0  0  0  0  0  0  0  0  0  0
    2.0987    1.2104   -2.5219 C   0  0  0  0  0  0  0  0  0  0  0  0
    3.2780    0.7142   -1.9515 C   0  0  0  0  0  0  0  0  0  0  0  0
    3.3662   -0.6903   -1.5320 C   0  0  0  0  0  0  0  0  0  0  0  0
    4.5033   -1.7015   -2.3160 S   0  0  0  0  0  0  0  0  0  0  0  0
    4.0475   -3.0800   -1.4011 C   0  0  0  0  0  0  0  0  0  0  0  0
    4.5907   -4.3756   -1.4987 C   0  0  0  0  0  0  0  0  0  0  0  0
    4.1015   -5.3884   -0.6657 C   0  0  0  0  0  0  0  0  0  0  0  0
    3.0935   -5.1242    0.2511 C   0  0  0  0  0  0  0  0  0  0  0  0
    2.5366   -6.0251    1.1172 O   0  0  0  0  0  0  0  0  0  0  0  0
    3.0635   -7.3459    1.1009 C   0  0  0  0  0  0  0  0  0  0  0  0
    2.5617   -3.8318    0.3365 C   0  0  0  0  0  0  0  0  0  0  0  0
    3.0289   -2.7807   -0.4966 C   0  0  0  0  0  0  0  0  0  0  0  0
    2.6348   -1.3900   -0.5831 C   0  0  0  0  0  0  0  0  0  0  0  0
    1.5952   -0.7489    0.2176 C   0  0  0  0  0  0  0  0  0  0  0  0
    0.2585   -1.1332    0.0652 C   0  0  0  0  0  0  0  0  0  0  0  0
   -0.7461   -0.5289    0.8305 C   0  0  0  0  0  0  0  0  0  0  0  0
   -0.4220    0.4611    1.7581 C   0  0  0  0  0  0  0  0  0  0  0  0
   -1.2955    1.1361    2.5639 O   0  0  0  0  0  0  0  0  0  0  0  0
   -2.6686    0.7331    2.5803 C   0  0  0  0  0  0  0  0  0  0  0  0
   -3.4691    1.4938    1.5085 C   0  0  0  0  0  0  0  0  0  0  0  0
   -4.8782    1.0752    1.4225 N   0  0  0  0  0  0  0  0  0  0  0  0
   -5.4698    1.5203    0.1398 C   0  0  0  0  0  0  0  0  0  0  0  0
   -7.0032    1.5633    0.2033 C   0  0  0  0  0  0  0  0  0  0  0  0
   -7.4903    2.5252    1.1493 O   0  0  0  0  0  0  0  0  0  0  0  0
   -6.5773    2.7645    2.2278 C   0  0  0  0  0  0  0  0  0  0  0  0
   -5.7002    1.5460    2.5601 C   0  0  0  0  0  0  0  0  0  0  0  0
    0.9140    0.8443    1.9066 C   0  0  0  0  0  0  0  0  0  0  0  0
    1.9202    0.2430    1.1462 C   0  0  0  0  0  0  0  0  0  0  0  0
    4.3588    1.5861   -1.7738 C   0  0  0  0  0  0  0  0  0  0  0  0
    4.2576    2.9248   -2.1630 C   0  0  0  0  0  0  0  0  0  0  0  0
    1.0909    5.2277   -2.9752 H   0  0  0  0  0  0  0  0  0  0  0  0
    1.7217    4.7962   -4.6128 H   0  0  0  0  0  0  0  0  0  0  0  0
    2.1344    6.3437   -3.8646 H   0  0  0  0  0  0  0  0  0  0  0  0
    1.0639    2.8871   -3.3450 H   0  0  0  0  0  0  0  0  0  0  0  0
    1.2443    0.5533   -2.6692 H   0  0  0  0  0  0  0  0  0  0  0  0
    5.3825   -4.5888   -2.2118 H   0  0  0  0  0  0  0  0  0  0  0  0
    4.5395   -6.3763   -0.7650 H   0  0  0  0  0  0  0  0  0  0  0  0
    2.5275   -7.9291    1.8558 H   0  0  0  0  0  0  0  0  0  0  0  0
    4.1253   -7.3510    1.3684 H   0  0  0  0  0  0  0  0  0  0  0  0
    2.8973   -7.8246    0.1301 H   0  0  0  0  0  0  0  0  0  0  0  0
    1.7766   -3.6321    1.0627 H   0  0  0  0  0  0  0  0  0  0  0  0
   -0.0125   -1.9034   -0.6538 H   0  0  0  0  0  0  0  0  0  0  0  0
   -1.7681   -0.8545    0.6679 H   0  0  0  0  0  0  0  0  0  0  0  0
   -2.7827   -0.3544    2.5013 H   0  0  0  0  0  0  0  0  0  0  0  0
   -3.0414    0.9969    3.5757 H   0  0  0  0  0  0  0  0  0  0  0  0
   -3.3859    2.5753    1.6810 H   0  0  0  0  0  0  0  0  0  0  0  0
   -2.9822    1.3166    0.5412 H   0  0  0  0  0  0  0  0  0  0  0  0
   -5.1093    2.5253   -0.1179 H   0  0  0  0  0  0  0  0  0  0  0  0
   -5.1545    0.8348   -0.6545 H   0  0  0  0  0  0  0  0  0  0  0  0
   -7.4122    0.5816    0.4701 H   0  0  0  0  0  0  0  0  0  0  0  0
   -7.4140    1.8313   -0.7757 H   0  0  0  0  0  0  0  0  0  0  0  0
   -5.9564    3.6290    1.9658 H   0  0  0  0  0  0  0  0  0  0  0  0
   -7.1728    3.0467    3.1022 H   0  0  0  0  0  0  0  0  0  0  0  0
   -6.3613    0.7146    2.8346 H   0  0  0  0  0  0  0  0  0  0  0  0
   -5.0968    1.7636    3.4467 H   0  0  0  0  0  0  0  0  0  0  0  0
    1.1761    1.6177    2.6247 H   0  0  0  0  0  0  0  0  0  0  0  0
    2.9522    0.5553    1.2858 H   0  0  0  0  0  0  0  0  0  0  0  0
    5.2853    1.2342   -1.3261 H   0  0  0  0  0  0  0  0  0  0  0  0
    5.1044    3.5917   -2.0194 H   0  0  0  0  0  0  0  0  0  0  0  0
  1  2  1  0
  2  3  1  0
  3  4  2  0
  4  5  1  0
  5  6  2  0
  6  7  1  0
  7  8  1  0
  8  9  1  0
  9 10  2  0
 10 11  1  0
 11 12  2  0
 12 13  1  0
 13 14  1  0
 12 15  1  0
 15 16  2  0
 16 17  1  0
 17 18  1  0
 18 19  2  0
 19 20  1  0
 20 21  2  0
 21 22  1  0
 22 23  1  0
 23 24  1  0
 24 25  1  0
 25 26  1  0
 26 27  1  0
 27 28  1  0
 28 29  1  0
 29 30  1  0
 21 31  1  0
 31 32  2  0
  6 33  1  0
 33 34  2  0
 34  3  1  0
 17  7  2  0
 32 18  1  0
 16  9  1  0
 30 25  1  0
  1 35  1  0
  1 36  1  0
  1 37  1  0
  4 38  1  0
  5 39  1  0
 10 40  1  0
 11 41  1  0
 14 42  1  0
 14 43  1  0
 14 44  1  0
 15 45  1  0
 19 46  1  0
 20 47  1  0
 23 48  1  0
 23 49  1  0
 24 50  1  0
 24 51  1  0
 26 52  1  0
 26 53  1  0
 27 54  1  0
 27 55  1  0
 29 56  1  0
 29 57  1  0
 30 58  1  0
 30 59  1  0
 31 60  1  0
 32 61  1  0
 33 62  1  0
 34 63  1  0
M  END
$$$$
