
     RDKit          3D

 67 72  0  0  0  0  0  0  0  0999 V2000
   -3.9750    5.1944    0.4044 C   0  0  0  0  0  0  0  0  0  0  0  0
   -3.3871    4.0449   -0.3500 C   0  0  0  0  0  0  0  0  0  0  0  0
   -3.5809    3.9078   -1.7329 C   0  0  0  0  0  0  0  0  0  0  0  0
   -3.0234    2.8294   -2.4457 C   0  0  0  0  0  0  0  0  0  0  0  0
   -2.2597    1.8592   -1.7942 C   0  0  0  0  0  0  0  0  0  0  0  0
   -2.0710    1.9856   -0.4273 C   0  0  0  0  0  0  0  0  0  0  0  0
   -2.6236    3.0680    0.2699 C   0  0  0  0  0  0  0  0  0  0  0  0
   -2.2756    2.9981    1.6172 N   0  0  0  0  0  0  0  0  0  0  0  0
   -1.4863    1.8774    1.8857 C   0  0  0  0  0  0  0  0  0  0  0  0
   -1.0223    1.5965    2.9816 O   0  0  0  0  0  0  0  0  0  0  0  0
   -1.3072    1.1313    0.5382 C   0  0  1  0  0  0  0  0  0  0  0  0
   -1.8597   -0.2473    0.5468 C   0  0  0  0  0  0  0  0  0  0  0  0
   -0.8194   -1.1897    0.6193 C   0  0  0  0  0  0  0  0  0  0  0  0
   -1.3611   -2.4469    0.6515 C   0  0  0  0  0  0  0  0  0  0  0  0
   -0.7680   -3.6360    0.7121 O   0  0  0  0  0  0  0  0  0  0  0  0
   -2.7596   -2.2946    0.5394 N   0  0  0  0  0  0  0  0  0  0  0  0
   -3.7209   -3.3450    0.3851 C   0  0  0  0  0  0  0  0  0  0  0  0
   -3.5076   -4.6052    0.9564 C   0  0  0  0  0  0  0  0  0  0  0  0
   -4.4576   -5.6188    0.8016 C   0  0  0  0  0  0  0  0  0  0  0  0
   -5.6192   -5.3865    0.0683 C   0  0  0  0  0  0  0  0  0  0  0  0
   -5.8324   -4.1414   -0.5180 C   0  0  0  0  0  0  0  0  0  0  0  0
   -4.8876   -3.1237   -0.3643 C   0  0  0  0  0  0  0  0  0  0  0  0
   -3.0529   -0.9144    0.5909 C   0  0  0  0  0  0  0  0  0  0  0  0
   -4.2762   -0.4017    0.7188 O   0  0  0  0  0  0  0  0  0  0  0  0
    0.4794   -0.4881    0.7048 C   0  0  1  0  0  0  0  0  0  0  0  0
    1.6661   -1.0136   -0.0927 C   0  0  0  0  0  0  0  0  0  0  0  0
    2.7862   -0.0575   -0.0481 N   0  0  0  0  0  0  0  0  0  0  0  0
    4.0606   -0.5497   -0.2731 C   0  0  0  0  0  0  0  0  0  0  0  0
    4.3235   -1.7451   -0.3072 O   0  0  0  0  0  0  0  0  0  0  0  0
    4.9695    0.4435   -0.4457 O   0  0  0  0  0  0  0  0  0  0  0  0
    6.3680    0.1463   -0.6897 C   0  0  0  0  0  0  0  0  0  0  0  0
    6.5551   -0.6202   -2.0036 C   0  0  0  0  0  0  0  0  0  0  0  0
    6.9981   -0.5876    0.4990 C   0  0  0  0  0  0  0  0  0  0  0  0
    7.0380    1.5224   -0.8266 C   0  0  0  0  0  0  0  0  0  0  0  0
    2.4535    1.3639   -0.2706 C   0  0  0  0  0  0  0  0  0  0  0  0
    1.1423    1.8244    0.4191 C   0  0  0  0  0  0  0  0  0  0  0  0
    0.0979    0.8500    0.1554 N   0  0  0  0  0  0  0  0  0  0  0  0
   -4.5683    5.8423   -0.2493 H   0  0  0  0  0  0  0  0  0  0  0  0
   -3.1803    5.8037    0.8467 H   0  0  0  0  0  0  0  0  0  0  0  0
   -4.6352    4.8301    1.1982 H   0  0  0  0  0  0  0  0  0  0  0  0
   -4.1721    4.6418   -2.2774 H   0  0  0  0  0  0  0  0  0  0  0  0
   -3.1922    2.7499   -3.5173 H   0  0  0  0  0  0  0  0  0  0  0  0
   -1.8296    1.0257   -2.3408 H   0  0  0  0  0  0  0  0  0  0  0  0
   -2.5506    3.6543    2.3309 H   0  0  0  0  0  0  0  0  0  0  0  0
    0.1935   -3.4984    0.7624 H   0  0  0  0  0  0  0  0  0  0  0  0
   -2.6262   -4.8169    1.5553 H   0  0  0  0  0  0  0  0  0  0  0  0
   -4.2874   -6.5915    1.2566 H   0  0  0  0  0  0  0  0  0  0  0  0
   -6.3524   -6.1795   -0.0542 H   0  0  0  0  0  0  0  0  0  0  0  0
   -6.7274   -3.9664   -1.1099 H   0  0  0  0  0  0  0  0  0  0  0  0
   -5.0589   -2.1829   -0.8839 H   0  0  0  0  0  0  0  0  0  0  0  0
   -4.8636   -1.0880    1.0841 H   0  0  0  0  0  0  0  0  0  0  0  0
    0.7557   -0.3956    1.7652 H   0  0  0  0  0  0  0  0  0  0  0  0
    1.4079   -1.1669   -1.1486 H   0  0  0  0  0  0  0  0  0  0  0  0
    1.9876   -1.9836    0.3028 H   0  0  0  0  0  0  0  0  0  0  0  0
    6.1604   -1.6388   -1.9438 H   0  0  0  0  0  0  0  0  0  0  0  0
    7.6142   -0.6958   -2.2730 H   0  0  0  0  0  0  0  0  0  0  0  0
    6.0217   -0.1242   -2.8222 H   0  0  0  0  0  0  0  0  0  0  0  0
    6.6093   -1.6048    0.6050 H   0  0  0  0  0  0  0  0  0  0  0  0
    8.0854   -0.6630    0.3896 H   0  0  0  0  0  0  0  0  0  0  0  0
    6.7774   -0.0676    1.4381 H   0  0  0  0  0  0  0  0  0  0  0  0
    8.1131    1.4351   -1.0152 H   0  0  0  0  0  0  0  0  0  0  0  0
    6.5881    2.0951   -1.6461 H   0  0  0  0  0  0  0  0  0  0  0  0
    6.8931    2.1184    0.0822 H   0  0  0  0  0  0  0  0  0  0  0  0
    3.2779    1.9985    0.0715 H   0  0  0  0  0  0  0  0  0  0  0  0
    2.3655    1.4957   -1.3565 H   0  0  0  0  0  0  0  0  0  0  0  0
    0.8694    2.8099    0.0257 H   0  0  0  0  0  0  0  0  0  0  0  0
    1.3202    1.9332    1.4957 H   0  0  0  0  0  0  0  0  0  0  0  0
  1  2  1  0
  2  3  2  0
  3  4  1  0
  4  5  2  0
  5  6  1  0
  6  7  2  0
  7  8  1  0
  8  9  1  0
  9 10  2  0
  9 11  1  0
 11 12  1  0
 12 13  1  0
 13 14  2  0
 14 15  1  0
 14 16  1  0
 16 17  1  0
 17 18  2  0
 18 19  1  0
 19 20  2  0
 20 21  1  0
 21 22  2  0
 16 23  1  0
 23 24  1  0
 13 25  1  0
 25 26  1  0
 26 27  1  0
 27 28  1  0
 28 29  2  0
 28 30  1  0
 30 31  1  0
 31 32  1  0
 31 33  1  0
 31 34  1  0
 27 35  1  0
 35 36  1  0
 36 37  1  0
  7  2  1  0
 11 37  1  6
 11  6  1  0
 23 12  2  0
 37 25  1  0
 22 17  1  0
  1 38  1  0
  1 39  1  0
  1 40  1  0
  3 41  1  0
  4 42  1  0
  5 43  1  0
  8 44  1  0
 15 45  1  0
 18 46  1  0
 19 47  1  0
 20 48  1  0
 21 49  1  0
 22 50  1  0
 24 51  1  0
 25 52  1  1
 26 53  1  0
 26 54  1  0
 32 55  1  0
 32 56  1  0
 32 57  1  0
 33 58  1  0
 33 59  1  0
 33 60  1  0
 34 61  1  0
 34 62  1  0
 34 63  1  0
 35 64  1  0
 35 65  1  0
 36 66  1  0
 36 67  1  0
M  END
$$$$
