
     RDKit          3D

 88 93  0  0  0  0  0  0  0  0999 V2000
    3.0919    1.2361   -2.1711 C   0  0  0  0  0  0  0  0  0  0  0  0
    2.7408    0.1388   -1.2086 C   0  0  0  0  0  0  0  0  0  0  0  0
    3.4192   -0.8604   -1.0215 O   0  0  0  0  0  0  0  0  0  0  0  0
    1.5686    0.4374   -0.5875 O   0  0  0  0  0  0  0  0  0  0  0  0
    1.0429   -0.5312    0.3392 C   0  0  1  0  0  0  0  0  0  0  0  0
    0.9723    0.0643    1.7668 C   0  0  1  0  0  0  0  0  0  0  0  0
    1.9343    1.2198    2.0500 C   0  0  0  0  0  0  0  0  0  0  0  0
    3.2989    0.8453    1.8199 O   0  0  0  0  0  0  0  0  0  0  0  0
    3.9229    0.2132    2.8460 C   0  0  0  0  0  0  0  0  0  0  0  0
    3.4040   -0.1099    3.9039 O   0  0  0  0  0  0  0  0  0  0  0  0
    5.3607   -0.0236    2.5218 C   0  0  0  0  0  0  0  0  0  0  0  0
    5.8985    0.2418    1.2562 C   0  0  0  0  0  0  0  0  0  0  0  0
    7.2535    0.0069    1.0070 C   0  0  0  0  0  0  0  0  0  0  0  0
    8.0761   -0.4891    2.0171 C   0  0  0  0  0  0  0  0  0  0  0  0
    7.5493   -0.7587    3.2790 C   0  0  0  0  0  0  0  0  0  0  0  0
    6.1960   -0.5308    3.5280 C   0  0  0  0  0  0  0  0  0  0  0  0
   -0.4984    0.4883    1.9877 C   0  0  0  0  0  0  0  0  0  0  0  0
   -1.1875    0.3600    0.6211 C   0  0  2  0  0  0  0  0  0  0  0  0
   -0.8935    1.5195   -0.2042 O   0  0  0  0  0  0  0  0  0  0  0  0
   -1.4306    2.7140    0.1213 C   0  0  0  0  0  0  0  0  0  0  0  0
   -2.0076    2.9920    1.1634 O   0  0  0  0  0  0  0  0  0  0  0  0
   -1.2099    3.7157   -0.9443 C   0  0  0  0  0  0  0  0  0  0  0  0
   -0.6622    3.4281   -2.1367 C   0  0  0  0  0  0  0  0  0  0  0  0
   -0.4321    4.3794   -3.2396 C   0  0  0  0  0  0  0  0  0  0  0  0
    0.1143    3.8855   -4.4343 C   0  0  0  0  0  0  0  0  0  0  0  0
    0.3694    4.7376   -5.5135 C   0  0  0  0  0  0  0  0  0  0  0  0
    0.0757    6.0956   -5.4157 C   0  0  0  0  0  0  0  0  0  0  0  0
   -0.4646    6.6023   -4.2382 C   0  0  0  0  0  0  0  0  0  0  0  0
   -0.7180    5.7502   -3.1578 C   0  0  0  0  0  0  0  0  0  0  0  0
   -2.7101    0.1320    0.5796 C   0  0  0  0  0  0  0  0  0  0  0  0
   -3.3554    0.3727   -0.4493 O   0  0  0  0  0  0  0  0  0  0  0  0
   -3.4764   -0.2710    1.7956 C   0  0  0  0  0  0  0  0  0  0  0  0
   -4.4430    0.7867    2.2598 C   0  0  0  0  0  0  0  0  0  0  0  0
   -3.3814   -1.4713    2.3956 C   0  0  0  0  0  0  0  0  0  0  0  0
   -2.5144   -2.6232    2.1387 C   0  0  0  0  0  0  0  0  0  0  0  0
   -2.4388   -3.4374    0.8647 C   0  0  2  0  0  0  0  0  0  0  0  0
   -3.1557   -3.1088   -0.4173 C   0  0  0  0  0  0  0  0  0  0  0  0
   -2.2762   -3.2863   -1.6557 C   0  0  0  0  0  0  0  0  0  0  0  0
   -1.5417   -2.0672   -2.1999 C   0  0  2  0  0  0  0  0  0  0  0  0
   -1.8552   -1.7445   -3.6430 C   0  0  0  0  0  0  0  0  0  0  0  0
   -0.1183   -2.2308   -1.9855 O   0  0  0  0  0  0  0  0  0  0  0  0
   -0.6723   -1.0214   -1.4701 C   0  0  2  0  0  0  0  0  0  0  0  0
   -0.4359   -0.8398   -0.0018 C   0  0  1  0  0  0  0  0  0  0  0  0
   -3.1624   -4.0008    2.0806 C   0  0  0  0  0  0  0  0  0  0  0  0
   -2.4777   -5.1022    2.8576 C   0  0  0  0  0  0  0  0  0  0  0  0
   -4.6706   -4.1454    2.0608 C   0  0  0  0  0  0  0  0  0  0  0  0
    3.1527    2.1892   -1.6404 H   0  0  0  0  0  0  0  0  0  0  0  0
    4.0683    1.0272   -2.6122 H   0  0  0  0  0  0  0  0  0  0  0  0
    2.3457    1.2814   -2.9689 H   0  0  0  0  0  0  0  0  0  0  0  0
    1.6279   -1.4584    0.3321 H   0  0  0  0  0  0  0  0  0  0  0  0
    1.1898   -0.7499    2.4708 H   0  0  0  0  0  0  0  0  0  0  0  0
    1.7217    2.0672    1.3886 H   0  0  0  0  0  0  0  0  0  0  0  0
    1.8126    1.5956    3.0738 H   0  0  0  0  0  0  0  0  0  0  0  0
    5.2781    0.6295    0.4553 H   0  0  0  0  0  0  0  0  0  0  0  0
    7.6681    0.2111    0.0215 H   0  0  0  0  0  0  0  0  0  0  0  0
    9.1316   -0.6628    1.8245 H   0  0  0  0  0  0  0  0  0  0  0  0
    8.1922   -1.1351    4.0733 H   0  0  0  0  0  0  0  0  0  0  0  0
    5.7925   -0.7365    4.5174 H   0  0  0  0  0  0  0  0  0  0  0  0
   -0.5617    1.4931    2.4152 H   0  0  0  0  0  0  0  0  0  0  0  0
   -0.9363   -0.1894    2.7279 H   0  0  0  0  0  0  0  0  0  0  0  0
   -1.5586    4.7078   -0.6804 H   0  0  0  0  0  0  0  0  0  0  0  0
   -0.3542    2.4092   -2.3513 H   0  0  0  0  0  0  0  0  0  0  0  0
    0.3506    2.8276   -4.5453 H   0  0  0  0  0  0  0  0  0  0  0  0
    0.7982    4.3378   -6.4300 H   0  0  0  0  0  0  0  0  0  0  0  0
    0.2678    6.7575   -6.2577 H   0  0  0  0  0  0  0  0  0  0  0  0
   -0.6915    7.6630   -4.1551 H   0  0  0  0  0  0  0  0  0  0  0  0
   -1.1411    6.1850   -2.2576 H   0  0  0  0  0  0  0  0  0  0  0  0
   -4.9139    0.5184    3.2127 H   0  0  0  0  0  0  0  0  0  0  0  0
   -5.2399    0.9449    1.5193 H   0  0  0  0  0  0  0  0  0  0  0  0
   -3.9164    1.7321    2.4210 H   0  0  0  0  0  0  0  0  0  0  0  0
   -4.0243   -1.6114    3.2658 H   0  0  0  0  0  0  0  0  0  0  0  0
   -1.5881   -2.5621    2.7087 H   0  0  0  0  0  0  0  0  0  0  0  0
   -1.4771   -3.8998    0.6557 H   0  0  0  0  0  0  0  0  0  0  0  0
   -3.9820   -3.8191   -0.5206 H   0  0  0  0  0  0  0  0  0  0  0  0
   -3.6136   -2.1286   -0.4077 H   0  0  0  0  0  0  0  0  0  0  0  0
   -2.9476   -3.6296   -2.4526 H   0  0  0  0  0  0  0  0  0  0  0  0
   -1.5704   -4.1169   -1.5200 H   0  0  0  0  0  0  0  0  0  0  0  0
   -2.7895   -1.1802   -3.7150 H   0  0  0  0  0  0  0  0  0  0  0  0
   -1.9485   -2.6553   -4.2485 H   0  0  0  0  0  0  0  0  0  0  0  0
   -1.0578   -1.1361   -4.0883 H   0  0  0  0  0  0  0  0  0  0  0  0
   -0.3948   -0.1292   -2.0230 H   0  0  0  0  0  0  0  0  0  0  0  0
   -0.6893   -1.7537    0.5276 H   0  0  0  0  0  0  0  0  0  0  0  0
   -1.3882   -5.0639    2.7506 H   0  0  0  0  0  0  0  0  0  0  0  0
   -2.8115   -6.0852    2.5066 H   0  0  0  0  0  0  0  0  0  0  0  0
   -2.7172   -5.0106    3.9217 H   0  0  0  0  0  0  0  0  0  0  0  0
   -5.0641   -4.1075    3.0829 H   0  0  0  0  0  0  0  0  0  0  0  0
   -4.9507   -5.1093    1.6196 H   0  0  0  0  0  0  0  0  0  0  0  0
   -5.1689   -3.3567    1.4851 H   0  0  0  0  0  0  0  0  0  0  0  0
  1  2  1  0
  2  3  2  0
  2  4  1  0
  4  5  1  0
  5  6  1  0
  6  7  1  0
  7  8  1  0
  8  9  1  0
  9 10  2  0
  9 11  1  0
 11 12  2  0
 12 13  1  0
 13 14  2  0
 14 15  1  0
 15 16  2  0
  6 17  1  0
 17 18  1  0
 18 19  1  6
 19 20  1  0
 20 21  2  0
 20 22  1  0
 22 23  2  0
 23 24  1  0
 24 25  2  0
 25 26  1  0
 26 27  2  0
 27 28  1  0
 28 29  2  0
 18 30  1  0
 30 31  2  0
 30 32  1  0
 32 33  1  0
 32 34  2  3
 34 35  1  0
 35 36  1  0
 36 37  1  0
 37 38  1  0
 38 39  1  0
 39 40  1  6
 39 41  1  0
 41 42  1  0
 42 43  1  0
 36 44  1  0
 44 45  1  0
 44 46  1  0
 43  5  1  0
 16 11  1  0
 43 18  1  0
 29 24  1  0
 44 35  1  0
 42 39  1  0
  1 47  1  0
  1 48  1  0
  1 49  1  0
  5 50  1  1
  6 51  1  1
  7 52  1  0
  7 53  1  0
 12 54  1  0
 13 55  1  0
 14 56  1  0
 15 57  1  0
 16 58  1  0
 17 59  1  0
 17 60  1  0
 22 61  1  0
 23 62  1  0
 25 63  1  0
 26 64  1  0
 27 65  1  0
 28 66  1  0
 29 67  1  0
 33 68  1  0
 33 69  1  0
 33 70  1  0
 34 71  1  0
 35 72  1  0
 36 73  1  6
 37 74  1  0
 37 75  1  0
 38 76  1  0
 38 77  1  0
 40 78  1  0
 40 79  1  0
 40 80  1  0
 42 81  1  1
 43 82  1  1
 45 83  1  0
 45 84  1  0
 45 85  1  0
 46 86  1  0
 46 87  1  0
 46 88  1  0
M  END
$$$$
