
     RDKit          3D

 36 38  0  0  0  0  0  0  0  0999 V2000
   -5.1369   -0.7668   -0.9341 C   0  0  0  0  0  0  0  0  0  0  0  0
   -4.0308    0.1037   -0.4078 C   0  0  0  0  0  0  0  0  0  0  0  0
   -4.2901    1.4478   -0.0847 C   0  0  0  0  0  0  0  0  0  0  0  0
   -3.2699    2.2828    0.3716 C   0  0  0  0  0  0  0  0  0  0  0  0
   -1.9917    1.7602    0.4912 C   0  0  0  0  0  0  0  0  0  0  0  0
   -1.7003    0.4185    0.1703 C   0  0  0  0  0  0  0  0  0  0  0  0
   -2.7252   -0.4048   -0.2922 C   0  0  0  0  0  0  0  0  0  0  0  0
   -0.3254    0.0532    0.3356 N   0  0  0  0  0  0  0  0  0  0  0  0
   -0.1701   -1.2909    0.9020 C   0  0  0  0  0  0  0  0  0  0  0  0
    0.4098    1.1656    0.7775 C   0  0  0  0  0  0  0  0  0  0  0  0
    1.7437    1.2996    0.8924 C   0  0  0  0  0  0  0  0  0  0  0  0
    2.7387    0.3008    0.5070 C   0  0  0  0  0  0  0  0  0  0  0  0
    3.5558   -0.2548    1.5004 C   0  0  0  0  0  0  0  0  0  0  0  0
    4.4981   -1.2193    1.1694 C   0  0  0  0  0  0  0  0  0  0  0  0
    4.6191   -1.6179   -0.1517 C   0  0  0  0  0  0  0  0  0  0  0  0
    3.8070   -1.0362   -1.1166 C   0  0  0  0  0  0  0  0  0  0  0  0
    2.8975   -0.0859   -0.7906 N   0  0  0  0  0  4  0  0  0  0  0  0
    2.1027    0.5167   -1.8841 C   0  0  0  0  0  0  0  0  0  0  0  0
   -0.5535    2.6371    1.0709 S   0  0  0  0  0  0  0  0  0  0  0  0
   -4.9714   -1.8146   -0.6623 H   0  0  0  0  0  0  0  0  0  0  0  0
   -5.1881   -0.6869   -2.0242 H   0  0  0  0  0  0  0  0  0  0  0  0
   -6.1023   -0.4704   -0.5106 H   0  0  0  0  0  0  0  0  0  0  0  0
   -5.2971    1.8500   -0.1876 H   0  0  0  0  0  0  0  0  0  0  0  0
   -3.4797    3.3170    0.6272 H   0  0  0  0  0  0  0  0  0  0  0  0
   -2.5330   -1.4332   -0.5803 H   0  0  0  0  0  0  0  0  0  0  0  0
    0.8788   -1.5316    1.0914 H   0  0  0  0  0  0  0  0  0  0  0  0
   -0.7037   -1.3843    1.8554 H   0  0  0  0  0  0  0  0  0  0  0  0
   -0.5330   -2.0577    0.2094 H   0  0  0  0  0  0  0  0  0  0  0  0
    2.1708    2.2333    1.2562 H   0  0  0  0  0  0  0  0  0  0  0  0
    3.4505    0.0548    2.5396 H   0  0  0  0  0  0  0  0  0  0  0  0
    5.1309   -1.6588    1.9395 H   0  0  0  0  0  0  0  0  0  0  0  0
    5.3487   -2.3755   -0.4315 H   0  0  0  0  0  0  0  0  0  0  0  0
    3.8831   -1.3242   -2.1620 H   0  0  0  0  0  0  0  0  0  0  0  0
    1.9572    1.5822   -1.6947 H   0  0  0  0  0  0  0  0  0  0  0  0
    1.1567   -0.0236   -1.9511 H   0  0  0  0  0  0  0  0  0  0  0  0
    2.6530    0.4141   -2.8240 H   0  0  0  0  0  0  0  0  0  0  0  0
  1  2  1  0
  2  3  2  0
  3  4  1  0
  4  5  2  0
  5  6  1  0
  6  7  2  0
  6  8  1  0
  8  9  1  0
  8 10  1  0
 10 11  2  3
 11 12  1  0
 12 13  2  0
 13 14  1  0
 14 15  2  0
 15 16  1  0
 16 17  2  0
 17 18  1  0
 10 19  1  0
  7  2  1  0
 17 12  1  0
 19  5  1  0
  1 20  1  0
  1 21  1  0
  1 22  1  0
  3 23  1  0
  4 24  1  0
  7 25  1  0
  9 26  1  0
  9 27  1  0
  9 28  1  0
 11 29  1  0
 13 30  1  0
 14 31  1  0
 15 32  1  0
 16 33  1  0
 18 34  1  0
 18 35  1  0
 18 36  1  0
M  CHG  1  17   1
M  END
$$$$
