
     RDKit          3D

 61 66  0  0  0  0  0  0  0  0999 V2000
   -6.8461    2.5102   -1.5775 F   0  0  0  0  0  0  0  0  0  0  0  0
   -6.9723    1.2290   -1.2071 C   0  0  0  0  0  0  0  0  0  0  0  0
   -8.1867    0.7813   -0.7016 C   0  0  0  0  0  0  0  0  0  0  0  0
   -8.3174   -0.5499   -0.3122 C   0  0  0  0  0  0  0  0  0  0  0  0
   -7.2319   -1.4224   -0.4338 C   0  0  0  0  0  0  0  0  0  0  0  0
   -6.0062   -0.9725   -0.9493 C   0  0  0  0  0  0  0  0  0  0  0  0
   -4.8303   -1.9143   -1.0708 C   0  0  0  0  0  0  0  0  0  0  0  0
   -3.8561   -1.8386    0.1214 C   0  0  0  0  0  0  0  0  0  0  0  0
   -3.0519   -0.6062    0.1575 N   0  0  0  0  0  0  0  0  0  0  0  0
   -2.5248   -0.3674    1.5220 C   0  0  0  0  0  0  0  0  0  0  0  0
   -1.2959    0.5657    1.5385 C   0  0  0  0  0  0  0  0  0  0  0  0
   -0.1550   -0.0712    0.8405 N   0  0  0  0  0  0  0  0  0  0  0  0
    0.9828    0.6736    0.6573 C   0  0  0  0  0  0  0  0  0  0  0  0
    1.0980    2.0210    0.3688 C   0  0  0  0  0  0  0  0  0  0  0  0
    2.4495    2.2937    0.0711 C   0  0  0  0  0  0  0  0  0  0  0  0
    3.1609    1.1234    0.2472 C   0  0  0  0  0  0  0  0  0  0  0  0
    4.5575    0.7985    0.0473 C   0  0  0  0  0  0  0  0  0  0  0  0
    5.5148    1.8249   -0.4356 C   0  0  0  0  0  0  0  0  0  0  0  0
    6.3312    1.5246   -1.5316 C   0  0  0  0  0  0  0  0  0  0  0  0
    7.2522    2.4669   -1.9911 C   0  0  0  0  0  0  0  0  0  0  0  0
    7.3674    3.7003   -1.3486 C   0  0  0  0  0  0  0  0  0  0  0  0
    6.5696    3.9920   -0.2412 C   0  0  0  0  0  0  0  0  0  0  0  0
    5.6465    3.0528    0.2219 C   0  0  0  0  0  0  0  0  0  0  0  0
    5.0016   -0.4038    0.2640 N   0  0  0  0  0  0  0  0  0  0  0  0
    4.1250   -1.3756    0.7841 C   0  0  0  0  0  0  0  0  0  0  0  0
    4.6609   -2.6286    1.0966 C   0  0  0  0  0  0  0  0  0  0  0  0
    3.8665   -3.6239    1.6668 C   0  0  0  0  0  0  0  0  0  0  0  0
    2.5261   -3.3661    1.9450 C   0  0  0  0  0  0  0  0  0  0  0  0
    1.9723   -2.1215    1.6371 C   0  0  0  0  0  0  0  0  0  0  0  0
    2.7621   -1.1385    1.0339 C   0  0  0  0  0  0  0  0  0  0  0  0
    2.2763    0.1448    0.6768 N   0  0  0  0  0  0  0  0  0  0  0  0
   -0.5558   -0.9447   -0.2969 C   0  0  0  0  0  0  0  0  0  0  0  0
   -1.9584   -0.5874   -0.8423 C   0  0  0  0  0  0  0  0  0  0  0  0
   -5.8861    0.3691   -1.3334 C   0  0  0  0  0  0  0  0  0  0  0  0
   -9.0191    1.4714   -0.6126 H   0  0  0  0  0  0  0  0  0  0  0  0
   -9.2621   -0.9092    0.0875 H   0  0  0  0  0  0  0  0  0  0  0  0
   -7.3496   -2.4580   -0.1221 H   0  0  0  0  0  0  0  0  0  0  0  0
   -5.2102   -2.9423   -1.1397 H   0  0  0  0  0  0  0  0  0  0  0  0
   -4.3192   -1.7350   -2.0240 H   0  0  0  0  0  0  0  0  0  0  0  0
   -3.1937   -2.7139    0.1037 H   0  0  0  0  0  0  0  0  0  0  0  0
   -4.4513   -1.9165    1.0417 H   0  0  0  0  0  0  0  0  0  0  0  0
   -2.2387   -1.3172    1.9947 H   0  0  0  0  0  0  0  0  0  0  0  0
   -3.3209    0.0758    2.1310 H   0  0  0  0  0  0  0  0  0  0  0  0
   -1.0114    0.7670    2.5780 H   0  0  0  0  0  0  0  0  0  0  0  0
   -1.5658    1.5217    1.0728 H   0  0  0  0  0  0  0  0  0  0  0  0
    0.2781    2.7217    0.2885 H   0  0  0  0  0  0  0  0  0  0  0  0
    2.8445    3.2439   -0.2633 H   0  0  0  0  0  0  0  0  0  0  0  0
    6.2503    0.5587   -2.0246 H   0  0  0  0  0  0  0  0  0  0  0  0
    7.8844    2.2363   -2.8450 H   0  0  0  0  0  0  0  0  0  0  0  0
    8.0892    4.4316   -1.7046 H   0  0  0  0  0  0  0  0  0  0  0  0
    6.6752    4.9471    0.2672 H   0  0  0  0  0  0  0  0  0  0  0  0
    5.0506    3.2763    1.1029 H   0  0  0  0  0  0  0  0  0  0  0  0
    5.7135   -2.8195    0.9033 H   0  0  0  0  0  0  0  0  0  0  0  0
    4.3002   -4.5902    1.9099 H   0  0  0  0  0  0  0  0  0  0  0  0
    1.9119   -4.1307    2.4138 H   0  0  0  0  0  0  0  0  0  0  0  0
    0.9386   -1.9382    1.9071 H   0  0  0  0  0  0  0  0  0  0  0  0
   -0.5652   -1.9847    0.0497 H   0  0  0  0  0  0  0  0  0  0  0  0
    0.1696   -0.8885   -1.1182 H   0  0  0  0  0  0  0  0  0  0  0  0
   -1.9157    0.4317   -1.2480 H   0  0  0  0  0  0  0  0  0  0  0  0
   -2.1811   -1.2346   -1.6976 H   0  0  0  0  0  0  0  0  0  0  0  0
   -4.9484    0.7561   -1.7208 H   0  0  0  0  0  0  0  0  0  0  0  0
  1  2  1  0
  2  3  2  0
  3  4  1  0
  4  5  2  0
  5  6  1  0
  6  7  1  0
  7  8  1  0
  8  9  1  0
  9 10  1  0
 10 11  1  0
 11 12  1  0
 12 13  1  0
 13 14  2  0
 14 15  1  0
 15 16  2  0
 16 17  1  0
 17 18  1  0
 18 19  2  0
 19 20  1  0
 20 21  2  0
 21 22  1  0
 22 23  2  0
 17 24  2  0
 24 25  1  0
 25 26  2  0
 26 27  1  0
 27 28  2  0
 28 29  1  0
 29 30  2  0
 30 31  1  0
 12 32  1  0
 32 33  1  0
  6 34  2  0
 34  2  1  0
 33  9  1  0
 31 13  1  0
 31 16  1  0
 23 18  1  0
 30 25  1  0
  3 35  1  0
  4 36  1  0
  5 37  1  0
  7 38  1  0
  7 39  1  0
  8 40  1  0
  8 41  1  0
 10 42  1  0
 10 43  1  0
 11 44  1  0
 11 45  1  0
 14 46  1  0
 15 47  1  0
 19 48  1  0
 20 49  1  0
 21 50  1  0
 22 51  1  0
 23 52  1  0
 26 53  1  0
 27 54  1  0
 28 55  1  0
 29 56  1  0
 32 57  1  0
 32 58  1  0
 33 59  1  0
 33 60  1  0
 34 61  1  0
M  END
$$$$
