
     RDKit          3D

 54 58  0  0  0  0  0  0  0  0999 V2000
    1.3109   -2.0776    0.1696 O   0  0  0  0  0  0  0  0  0  0  0  0
    1.9270   -1.1860    0.7450 C   0  0  0  0  0  0  0  0  0  0  0  0
    1.6480   -0.7769    2.1862 C   0  0  0  0  0  0  0  0  0  0  0  0
   -0.1331   -0.5586    2.4956 S   0  0  0  0  0  0  0  0  0  0  0  0
   -0.5718    0.2286    0.9827 C   0  0  0  0  0  0  0  0  0  0  0  0
    0.0900    1.3161    0.7109 N   0  0  0  0  0  0  0  0  0  0  0  0
   -0.2293    1.9013   -0.5188 C   0  0  0  0  0  0  0  0  0  0  0  0
   -1.1977    1.3962   -1.3319 C   0  0  0  0  0  0  0  0  0  0  0  0
   -1.3510    2.2748   -2.7677 S   0  0  0  0  0  0  0  0  0  0  0  0
   -0.0852    3.3640   -2.3094 C   0  0  0  0  0  0  0  0  0  0  0  0
    0.4141    4.4467   -3.0570 C   0  0  0  0  0  0  0  0  0  0  0  0
    1.4382    5.2283   -2.5144 C   0  0  0  0  0  0  0  0  0  0  0  0
    1.9580    4.9433   -1.2592 C   0  0  0  0  0  0  0  0  0  0  0  0
    1.4661    3.8632   -0.5224 C   0  0  0  0  0  0  0  0  0  0  0  0
    0.4305    3.0502   -1.0456 C   0  0  0  0  0  0  0  0  0  0  0  0
   -1.9742    0.2395   -0.9947 C   0  0  0  0  0  0  0  0  0  0  0  0
   -2.9108   -0.1782   -1.6712 O   0  0  0  0  0  0  0  0  0  0  0  0
   -1.5650   -0.3631    0.2018 N   0  0  0  0  0  0  0  0  0  0  0  0
   -2.2623   -1.6012    0.5706 C   0  0  0  0  0  0  0  0  0  0  0  0
   -3.5133   -1.3226    1.4098 C   0  0  0  0  0  0  0  0  0  0  0  0
   -4.1252   -2.5994    1.9254 C   0  0  0  0  0  0  0  0  0  0  0  0
   -4.9952   -3.3460    1.1188 C   0  0  0  0  0  0  0  0  0  0  0  0
   -5.5359   -4.5446    1.5855 C   0  0  0  0  0  0  0  0  0  0  0  0
   -5.2109   -5.0084    2.8601 C   0  0  0  0  0  0  0  0  0  0  0  0
   -4.3436   -4.2739    3.6678 C   0  0  0  0  0  0  0  0  0  0  0  0
   -3.8005   -3.0756    3.2025 C   0  0  0  0  0  0  0  0  0  0  0  0
    2.9180   -0.4504    0.1311 N   0  0  0  0  0  0  0  0  0  0  0  0
    3.1747   -0.6144   -1.2827 C   0  0  0  0  0  0  0  0  0  0  0  0
    4.2911    0.2822   -1.6641 C   0  0  0  0  0  0  0  0  0  0  0  0
    4.3538    1.5794   -2.1375 C   0  0  0  0  0  0  0  0  0  0  0  0
    5.7275    1.8889   -2.2800 C   0  0  0  0  0  0  0  0  0  0  0  0
    6.4152    0.7601   -1.8985 C   0  0  0  0  0  0  0  0  0  0  0  0
    5.5521   -0.2163   -1.5200 O   0  0  0  0  0  0  0  0  0  0  0  0
    2.1619    0.1550    2.4352 H   0  0  0  0  0  0  0  0  0  0  0  0
    2.0300   -1.5643    2.8411 H   0  0  0  0  0  0  0  0  0  0  0  0
    0.0071    4.6761   -4.0378 H   0  0  0  0  0  0  0  0  0  0  0  0
    1.8234    6.0724   -3.0810 H   0  0  0  0  0  0  0  0  0  0  0  0
    2.7485    5.5651   -0.8440 H   0  0  0  0  0  0  0  0  0  0  0  0
    1.8741    3.6469    0.4615 H   0  0  0  0  0  0  0  0  0  0  0  0
   -1.5799   -2.2767    1.0968 H   0  0  0  0  0  0  0  0  0  0  0  0
   -2.5474   -2.1380   -0.3428 H   0  0  0  0  0  0  0  0  0  0  0  0
   -4.2554   -0.7734    0.8139 H   0  0  0  0  0  0  0  0  0  0  0  0
   -3.2774   -0.6647    2.2552 H   0  0  0  0  0  0  0  0  0  0  0  0
   -5.2535   -2.9989    0.1199 H   0  0  0  0  0  0  0  0  0  0  0  0
   -6.2089   -5.1197    0.9534 H   0  0  0  0  0  0  0  0  0  0  0  0
   -5.6284   -5.9452    3.2212 H   0  0  0  0  0  0  0  0  0  0  0  0
   -4.0860   -4.6373    4.6594 H   0  0  0  0  0  0  0  0  0  0  0  0
   -3.1191   -2.5182    3.8431 H   0  0  0  0  0  0  0  0  0  0  0  0
    3.1878    0.4357    0.5420 H   0  0  0  0  0  0  0  0  0  0  0  0
    3.4171   -1.6635   -1.4825 H   0  0  0  0  0  0  0  0  0  0  0  0
    2.2629   -0.3620   -1.8331 H   0  0  0  0  0  0  0  0  0  0  0  0
    3.5080    2.2227   -2.3485 H   0  0  0  0  0  0  0  0  0  0  0  0
    6.1610    2.8147   -2.6228 H   0  0  0  0  0  0  0  0  0  0  0  0
    7.4641    0.5037   -1.8383 H   0  0  0  0  0  0  0  0  0  0  0  0
  1  2  2  0
  2  3  1  0
  3  4  1  0
  4  5  1  0
  5  6  2  0
  6  7  1  0
  7  8  2  0
  8  9  1  0
  9 10  1  0
 10 11  2  0
 11 12  1  0
 12 13  2  0
 13 14  1  0
 14 15  2  0
  8 16  1  0
 16 17  2  0
 16 18  1  0
 18 19  1  0
 19 20  1  0
 20 21  1  0
 21 22  2  0
 22 23  1  0
 23 24  2  0
 24 25  1  0
 25 26  2  0
  2 27  1  0
 27 28  1  0
 28 29  1  0
 29 30  2  0
 30 31  1  0
 31 32  2  0
 32 33  1  0
 18  5  1  0
 26 21  1  0
 33 29  1  0
 15  7  1  0
 15 10  1  0
  3 34  1  0
  3 35  1  0
 11 36  1  0
 12 37  1  0
 13 38  1  0
 14 39  1  0
 19 40  1  0
 19 41  1  0
 20 42  1  0
 20 43  1  0
 22 44  1  0
 23 45  1  0
 24 46  1  0
 25 47  1  0
 26 48  1  0
 27 49  1  0
 28 50  1  0
 28 51  1  0
 30 52  1  0
 31 53  1  0
 32 54  1  0
M  END
$$$$
