
     RDKit          3D

 39 40  0  0  0  0  0  0  0  0999 V2000
   -3.0102    3.7236    0.8770 C   0  0  0  0  0  0  0  0  0  0  0  0
   -1.8458    3.1483    0.1175 C   0  0  0  0  0  0  0  0  0  0  0  0
   -0.8008    3.7714   -0.0338 O   0  0  0  0  0  0  0  0  0  0  0  0
   -2.1059    1.9228   -0.4417 N   0  0  0  0  0  0  0  0  0  0  0  0
   -1.1544    1.0335   -0.4014 C   0  0  0  0  0  0  0  0  0  0  0  0
   -1.3480   -0.3289   -1.0177 C   0  0  0  0  0  0  0  0  0  0  0  0
   -2.1168   -1.2561   -0.1115 C   0  0  0  0  0  0  0  0  0  0  0  0
   -3.4976   -1.4267   -0.2808 C   0  0  0  0  0  0  0  0  0  0  0  0
   -4.2145   -2.2703    0.5673 C   0  0  0  0  0  0  0  0  0  0  0  0
   -3.5603   -2.9457    1.5950 C   0  0  0  0  0  0  0  0  0  0  0  0
   -2.1913   -2.7705    1.7833 C   0  0  0  0  0  0  0  0  0  0  0  0
   -1.4710   -1.9303    0.9338 C   0  0  0  0  0  0  0  0  0  0  0  0
    0.1885    1.2419    0.2698 C   0  0  0  0  0  0  0  0  0  0  0  0
    0.3254    1.1779    1.4765 O   0  0  0  0  0  0  0  0  0  0  0  0
    1.1086    1.4594   -0.6838 O   0  0  0  0  0  0  0  0  0  0  0  0
    2.4376    1.6962   -0.2133 C   0  0  0  0  0  0  0  0  0  0  0  0
    3.2728    0.4831   -0.5304 C   0  0  0  0  0  0  0  0  0  0  0  0
    3.8461    0.3288   -1.8002 C   0  0  0  0  0  0  0  0  0  0  0  0
    4.5990   -0.8068   -2.1040 C   0  0  0  0  0  0  0  0  0  0  0  0
    4.7783   -1.8022   -1.1450 C   0  0  0  0  0  0  0  0  0  0  0  0
    4.2008   -1.6660    0.1157 C   0  0  0  0  0  0  0  0  0  0  0  0
    3.4480   -0.5303    0.4221 C   0  0  0  0  0  0  0  0  0  0  0  0
   -3.7641    4.0767    0.1683 H   0  0  0  0  0  0  0  0  0  0  0  0
   -2.6680    4.5630    1.4898 H   0  0  0  0  0  0  0  0  0  0  0  0
   -3.4484    2.9674    1.5354 H   0  0  0  0  0  0  0  0  0  0  0  0
   -1.8775   -0.2058   -1.9701 H   0  0  0  0  0  0  0  0  0  0  0  0
   -0.3778   -0.7757   -1.2672 H   0  0  0  0  0  0  0  0  0  0  0  0
   -4.0233   -0.9009   -1.0739 H   0  0  0  0  0  0  0  0  0  0  0  0
   -5.2859   -2.3952    0.4324 H   0  0  0  0  0  0  0  0  0  0  0  0
   -4.1203   -3.6014    2.2570 H   0  0  0  0  0  0  0  0  0  0  0  0
   -1.6833   -3.2893    2.5925 H   0  0  0  0  0  0  0  0  0  0  0  0
   -0.4006   -1.8110    1.0937 H   0  0  0  0  0  0  0  0  0  0  0  0
    2.4856    1.9407    0.8564 H   0  0  0  0  0  0  0  0  0  0  0  0
    2.8282    2.5704   -0.7462 H   0  0  0  0  0  0  0  0  0  0  0  0
    3.7064    1.0941   -2.5610 H   0  0  0  0  0  0  0  0  0  0  0  0
    5.0431   -0.9158   -3.0899 H   0  0  0  0  0  0  0  0  0  0  0  0
    5.3646   -2.6858   -1.3826 H   0  0  0  0  0  0  0  0  0  0  0  0
    4.3354   -2.4450    0.8616 H   0  0  0  0  0  0  0  0  0  0  0  0
    2.9975   -0.4394    1.4096 H   0  0  0  0  0  0  0  0  0  0  0  0
  1  2  1  0
  2  3  2  0
  2  4  1  0
  4  5  2  3
  5  6  1  0
  6  7  1  0
  7  8  2  0
  8  9  1  0
  9 10  2  0
 10 11  1  0
 11 12  2  0
  5 13  1  0
 13 14  2  0
 13 15  1  0
 15 16  1  0
 16 17  1  0
 17 18  2  0
 18 19  1  0
 19 20  2  0
 20 21  1  0
 21 22  2  0
 12  7  1  0
 22 17  1  0
  1 23  1  0
  1 24  1  0
  1 25  1  0
  6 26  1  0
  6 27  1  0
  8 28  1  0
  9 29  1  0
 10 30  1  0
 11 31  1  0
 12 32  1  0
 16 33  1  0
 16 34  1  0
 18 35  1  0
 19 36  1  0
 20 37  1  0
 21 38  1  0
 22 39  1  0
M  END
$$$$
