
     RDKit          3D

 33 35  0  0  0  0  0  0  0  0999 V2000
    6.0102   -0.5482    0.3576 C   0  0  0  0  0  0  0  0  0  0  0  0
    4.9257    0.0132   -0.3717 O   0  0  0  0  0  0  0  0  0  0  0  0
    3.6661   -0.2595    0.0852 C   0  0  0  0  0  0  0  0  0  0  0  0
    3.3478   -1.0292    1.2034 C   0  0  0  0  0  0  0  0  0  0  0  0
    2.0097   -1.2344    1.5549 C   0  0  0  0  0  0  0  0  0  0  0  0
    0.9810   -0.6639    0.7956 C   0  0  0  0  0  0  0  0  0  0  0  0
    1.2907    0.1191   -0.3238 C   0  0  0  0  0  0  0  0  0  0  0  0
    2.6362    0.3050   -0.6750 C   0  0  0  0  0  0  0  0  0  0  0  0
    0.1977    0.6996   -1.1757 C   0  0  0  0  0  0  0  0  0  0  0  0
   -1.0337    1.0381   -0.3390 C   0  0  0  0  0  0  0  0  0  0  0  0
   -1.4987   -0.1436    0.4649 C   0  0  0  0  0  0  0  0  0  0  0  0
   -2.7551   -0.6034    0.6132 C   0  0  0  0  0  0  0  0  0  0  0  0
   -3.9151    0.0018    0.0584 C   0  0  0  0  0  0  0  0  0  0  0  0
   -4.3042    1.3356   -0.0212 C   0  0  0  0  0  0  0  0  0  0  0  0
   -5.5730    1.3872   -0.6458 C   0  0  0  0  0  0  0  0  0  0  0  0
   -5.9139    0.0852   -0.9029 C   0  0  0  0  0  0  0  0  0  0  0  0
   -4.9383   -0.7510   -0.4761 O   0  0  0  0  0  0  0  0  0  0  0  0
   -0.4321   -0.9190    1.1835 C   0  0  0  0  0  0  0  0  0  0  0  0
   -0.6930   -1.7244    2.0711 O   0  0  0  0  0  0  0  0  0  0  0  0
    5.9713   -1.6424    0.3433 H   0  0  0  0  0  0  0  0  0  0  0  0
    6.9382   -0.2417   -0.1348 H   0  0  0  0  0  0  0  0  0  0  0  0
    6.0357   -0.1659    1.3834 H   0  0  0  0  0  0  0  0  0  0  0  0
    4.1121   -1.4896    1.8208 H   0  0  0  0  0  0  0  0  0  0  0  0
    1.7726   -1.8461    2.4239 H   0  0  0  0  0  0  0  0  0  0  0  0
    2.8952    0.8949   -1.5525 H   0  0  0  0  0  0  0  0  0  0  0  0
   -0.0593   -0.0235   -1.9599 H   0  0  0  0  0  0  0  0  0  0  0  0
    0.5481    1.6137   -1.6699 H   0  0  0  0  0  0  0  0  0  0  0  0
   -0.8017    1.8602    0.3506 H   0  0  0  0  0  0  0  0  0  0  0  0
   -1.8048    1.4022   -1.0240 H   0  0  0  0  0  0  0  0  0  0  0  0
   -2.9377   -1.5184    1.1747 H   0  0  0  0  0  0  0  0  0  0  0  0
   -3.7354    2.1778    0.3478 H   0  0  0  0  0  0  0  0  0  0  0  0
   -6.1682    2.2617   -0.8665 H   0  0  0  0  0  0  0  0  0  0  0  0
   -6.7738   -0.3913   -1.3525 H   0  0  0  0  0  0  0  0  0  0  0  0
  1  2  1  0
  2  3  1  0
  3  4  2  0
  4  5  1  0
  5  6  2  0
  6  7  1  0
  7  8  2  0
  7  9  1  0
  9 10  1  0
 10 11  1  0
 11 12  2  3
 12 13  1  0
 13 14  2  0
 14 15  1  0
 15 16  2  0
 16 17  1  0
 11 18  1  0
 18 19  2  0
  8  3  1  0
 17 13  1  0
 18  6  1  0
  1 20  1  0
  1 21  1  0
  1 22  1  0
  4 23  1  0
  5 24  1  0
  8 25  1  0
  9 26  1  0
  9 27  1  0
 10 28  1  0
 10 29  1  0
 12 30  1  0
 14 31  1  0
 15 32  1  0
 16 33  1  0
M  END
$$$$
