
     RDKit          3D

 60 63  0  0  0  0  0  0  0  0999 V2000
   -5.6968   -0.1060    4.8502 C   0  0  0  0  0  0  0  0  0  0  0  0
   -4.8986    0.9644    4.3700 O   0  0  0  0  0  0  0  0  0  0  0  0
   -4.1074    0.7093    3.2845 C   0  0  0  0  0  0  0  0  0  0  0  0
   -3.2811    1.7688    2.9015 C   0  0  0  0  0  0  0  0  0  0  0  0
   -2.4043    1.6410    1.8190 C   0  0  0  0  0  0  0  0  0  0  0  0
   -2.3655    0.4443    1.0977 C   0  0  0  0  0  0  0  0  0  0  0  0
   -1.4567    0.2891    0.0212 N   0  0  0  0  0  0  0  0  0  0  0  0
   -1.7044   -0.2491   -1.2360 C   0  0  0  0  0  0  0  0  0  0  0  0
   -3.0566   -0.5287   -1.8151 C   0  0  0  0  0  0  0  0  0  0  0  0
   -3.8608    0.7217   -2.0340 C   0  0  0  0  0  0  0  0  0  0  0  0
   -3.4604    1.9275   -2.5922 C   0  0  0  0  0  0  0  0  0  0  0  0
   -4.5615    2.8105   -2.5579 C   0  0  0  0  0  0  0  0  0  0  0  0
   -5.6168    2.1249   -2.0046 C   0  0  0  0  0  0  0  0  0  0  0  0
   -5.2007    0.8480   -1.7154 N   0  0  0  0  0  0  0  0  0  0  0  0
   -6.0680   -0.1832   -1.1815 C   0  0  0  0  0  0  0  0  0  0  0  0
   -0.5698   -0.3362   -1.9064 N   0  0  0  0  0  0  0  0  0  0  0  0
    0.4318    0.1818   -1.1345 N   0  0  0  0  0  0  0  0  0  0  0  0
   -0.1035    0.5769   -0.0043 C   0  0  0  0  0  0  0  0  0  0  0  0
    0.8458    1.1288    1.3378 S   0  0  0  0  0  0  0  0  0  0  0  0
    1.4977   -0.4608    1.9209 C   0  0  0  0  0  0  0  0  0  0  0  0
    2.8371   -0.8552    1.3242 C   0  0  0  0  0  0  0  0  0  0  0  0
    3.6288   -1.5410    1.9764 O   0  0  0  0  0  0  0  0  0  0  0  0
    3.0866   -0.4843    0.0223 N   0  0  0  0  0  0  0  0  0  0  0  0
    4.2810   -0.9056   -0.6848 C   0  0  0  0  0  0  0  0  0  0  0  0
    5.5468   -0.1986   -0.1801 C   0  0  0  0  0  0  0  0  0  0  0  0
    6.7675   -0.5894   -0.9767 C   0  0  0  0  0  0  0  0  0  0  0  0
    7.3492   -1.8539   -0.8040 C   0  0  0  0  0  0  0  0  0  0  0  0
    8.4702   -2.2241   -1.5484 C   0  0  0  0  0  0  0  0  0  0  0  0
    9.0197   -1.3340   -2.4714 C   0  0  0  0  0  0  0  0  0  0  0  0
    8.4490   -0.0736   -2.6507 C   0  0  0  0  0  0  0  0  0  0  0  0
    7.3277    0.2976   -1.9068 C   0  0  0  0  0  0  0  0  0  0  0  0
   -3.1991   -0.6187    1.4676 C   0  0  0  0  0  0  0  0  0  0  0  0
   -4.0638   -0.4844    2.5626 C   0  0  0  0  0  0  0  0  0  0  0  0
   -5.0775   -0.9546    5.1592 H   0  0  0  0  0  0  0  0  0  0  0  0
   -6.4377   -0.4040    4.1007 H   0  0  0  0  0  0  0  0  0  0  0  0
   -6.2379    0.2457    5.7325 H   0  0  0  0  0  0  0  0  0  0  0  0
   -3.3179    2.7058    3.4543 H   0  0  0  0  0  0  0  0  0  0  0  0
   -1.7908    2.4980    1.5431 H   0  0  0  0  0  0  0  0  0  0  0  0
   -2.9236   -1.0150   -2.7916 H   0  0  0  0  0  0  0  0  0  0  0  0
   -3.5893   -1.2567   -1.1970 H   0  0  0  0  0  0  0  0  0  0  0  0
   -2.4653    2.1513   -2.9698 H   0  0  0  0  0  0  0  0  0  0  0  0
   -4.5799    3.8348   -2.8988 H   0  0  0  0  0  0  0  0  0  0  0  0
   -6.6313    2.4422   -1.8044 H   0  0  0  0  0  0  0  0  0  0  0  0
   -7.1106    0.1344   -1.2729 H   0  0  0  0  0  0  0  0  0  0  0  0
   -5.9204   -1.1017   -1.7554 H   0  0  0  0  0  0  0  0  0  0  0  0
   -5.8178   -0.3311   -0.1286 H   0  0  0  0  0  0  0  0  0  0  0  0
    1.6403   -0.3627    2.9999 H   0  0  0  0  0  0  0  0  0  0  0  0
    0.7841   -1.2706    1.7508 H   0  0  0  0  0  0  0  0  0  0  0  0
    2.3182   -0.1053   -0.5338 H   0  0  0  0  0  0  0  0  0  0  0  0
    4.1143   -0.6838   -1.7492 H   0  0  0  0  0  0  0  0  0  0  0  0
    4.3723   -1.9981   -0.5809 H   0  0  0  0  0  0  0  0  0  0  0  0
    5.4053    0.8903   -0.2224 H   0  0  0  0  0  0  0  0  0  0  0  0
    5.7288   -0.4307    0.8767 H   0  0  0  0  0  0  0  0  0  0  0  0
    6.9291   -2.5559   -0.0853 H   0  0  0  0  0  0  0  0  0  0  0  0
    8.9139   -3.2071   -1.4067 H   0  0  0  0  0  0  0  0  0  0  0  0
    9.8939   -1.6212   -3.0502 H   0  0  0  0  0  0  0  0  0  0  0  0
    8.8786    0.6207   -3.3707 H   0  0  0  0  0  0  0  0  0  0  0  0
    6.8949    1.2851   -2.0558 H   0  0  0  0  0  0  0  0  0  0  0  0
   -3.1562   -1.5816    0.9617 H   0  0  0  0  0  0  0  0  0  0  0  0
   -4.6807   -1.3360    2.8331 H   0  0  0  0  0  0  0  0  0  0  0  0
  1  2  1  0
  2  3  1  0
  3  4  2  0
  4  5  1  0
  5  6  2  0
  6  7  1  0
  7  8  1  0
  8  9  1  0
  9 10  1  0
 10 11  2  0
 11 12  1  0
 12 13  2  0
 13 14  1  0
 14 15  1  0
  8 16  2  0
 16 17  1  0
 17 18  2  0
 18 19  1  0
 19 20  1  0
 20 21  1  0
 21 22  2  0
 21 23  1  0
 23 24  1  0
 24 25  1  0
 25 26  1  0
 26 27  2  0
 27 28  1  0
 28 29  2  0
 29 30  1  0
 30 31  2  0
  6 32  1  0
 32 33  2  0
 33  3  1  0
 18  7  1  0
 31 26  1  0
 14 10  1  0
  1 34  1  0
  1 35  1  0
  1 36  1  0
  4 37  1  0
  5 38  1  0
  9 39  1  0
  9 40  1  0
 11 41  1  0
 12 42  1  0
 13 43  1  0
 15 44  1  0
 15 45  1  0
 15 46  1  0
 20 47  1  0
 20 48  1  0
 23 49  1  0
 24 50  1  0
 24 51  1  0
 25 52  1  0
 25 53  1  0
 27 54  1  0
 28 55  1  0
 29 56  1  0
 30 57  1  0
 31 58  1  0
 32 59  1  0
 33 60  1  0
M  END
$$$$
