
     RDKit          3D

 32 33  0  0  0  0  0  0  0  0999 V2000
   -4.3375    0.6151    1.6234 C   0  0  0  0  0  0  0  0  0  0  0  0
   -3.1910   -0.1565    0.9879 C   0  0  0  0  0  0  0  0  0  0  0  0
   -3.4037   -0.3331   -0.5155 C   0  0  0  0  0  0  0  0  0  0  0  0
   -2.3054   -1.1619   -1.1933 C   0  0  0  0  0  0  0  0  0  0  0  0
   -0.9945   -0.5115   -1.1809 N   0  0  0  0  0  0  0  0  0  0  0  0
   -0.7455    0.5665   -1.9721 C   0  0  0  0  0  0  0  0  0  0  0  0
   -1.4764    1.1240   -2.7650 O   0  0  0  0  0  0  0  0  0  0  0  0
    0.6926    0.9775   -1.6822 C   0  0  0  0  0  0  0  0  0  0  0  0
    1.2215    1.9243   -2.2320 O   0  0  0  0  0  0  0  0  0  0  0  0
    1.1641    0.0634   -0.7726 N   0  0  0  0  0  0  0  0  0  0  0  0
    2.5132    0.0932   -0.3028 C   0  0  0  0  0  0  0  0  0  0  0  0
    3.1918    1.3170   -0.1685 C   0  0  0  0  0  0  0  0  0  0  0  0
    4.5155    1.3722    0.2818 C   0  0  0  0  0  0  0  0  0  0  0  0
    5.1943    0.2013    0.5964 C   0  0  0  0  0  0  0  0  0  0  0  0
    4.5518   -1.0227    0.4510 C   0  0  0  0  0  0  0  0  0  0  0  0
    3.2269   -1.0751    0.0006 C   0  0  0  0  0  0  0  0  0  0  0  0
    0.1348   -0.8274   -0.4354 C   0  0  0  0  0  0  0  0  0  0  0  0
    0.1566   -2.0397    0.7265 S   0  0  0  0  0  0  0  0  0  0  0  0
   -5.2880    0.0898    1.4861 H   0  0  0  0  0  0  0  0  0  0  0  0
   -4.4294    1.6135    1.1840 H   0  0  0  0  0  0  0  0  0  0  0  0
   -4.1661    0.7313    2.6982 H   0  0  0  0  0  0  0  0  0  0  0  0
   -3.1103   -1.1369    1.4708 H   0  0  0  0  0  0  0  0  0  0  0  0
   -2.2571    0.3837    1.1775 H   0  0  0  0  0  0  0  0  0  0  0  0
   -3.4784    0.6527   -0.9898 H   0  0  0  0  0  0  0  0  0  0  0  0
   -4.3640   -0.8363   -0.6840 H   0  0  0  0  0  0  0  0  0  0  0  0
   -2.5839   -1.3011   -2.2454 H   0  0  0  0  0  0  0  0  0  0  0  0
   -2.2507   -2.1570   -0.7436 H   0  0  0  0  0  0  0  0  0  0  0  0
    2.7005    2.2633   -0.3858 H   0  0  0  0  0  0  0  0  0  0  0  0
    5.0117    2.3343    0.3849 H   0  0  0  0  0  0  0  0  0  0  0  0
    6.2233    0.2419    0.9440 H   0  0  0  0  0  0  0  0  0  0  0  0
    5.0832   -1.9446    0.6760 H   0  0  0  0  0  0  0  0  0  0  0  0
    2.7999   -2.0615   -0.1507 H   0  0  0  0  0  0  0  0  0  0  0  0
  1  2  1  0
  2  3  1  0
  3  4  1  0
  4  5  1  0
  5  6  1  0
  6  7  2  0
  6  8  1  0
  8  9  2  0
  8 10  1  0
 10 11  1  0
 11 12  2  0
 12 13  1  0
 13 14  2  0
 14 15  1  0
 15 16  2  0
 10 17  1  0
 17 18  2  0
 17  5  1  0
 16 11  1  0
  1 19  1  0
  1 20  1  0
  1 21  1  0
  2 22  1  0
  2 23  1  0
  3 24  1  0
  3 25  1  0
  4 26  1  0
  4 27  1  0
 12 28  1  0
 13 29  1  0
 14 30  1  0
 15 31  1  0
 16 32  1  0
M  END
$$$$
