
     RDKit          3D

 56 59  0  0  0  0  0  0  0  0999 V2000
   -4.9474    0.8081    3.1998 C   0  0  0  0  0  0  0  0  0  0  0  0
   -3.6306    1.0502    2.4709 C   0  0  0  0  0  0  0  0  0  0  0  0
   -3.2378   -0.1257    1.5638 C   0  0  0  0  0  0  0  0  0  0  0  0
   -3.9519   -0.1259    0.1917 C   0  0  0  0  0  0  0  0  0  0  0  0
   -5.0016    0.4785   -0.0077 O   0  0  0  0  0  0  0  0  0  0  0  0
   -3.3641   -1.0128   -0.6990 N   0  0  0  0  0  0  0  0  0  0  0  0
   -3.7381   -1.3036   -2.0244 C   0  0  0  0  0  0  0  0  0  0  0  0
   -4.8133   -0.7134   -2.6868 C   0  0  0  0  0  0  0  0  0  0  0  0
   -5.0916   -1.0769   -4.0043 C   0  0  0  0  0  0  0  0  0  0  0  0
   -6.1269   -0.5105   -4.6378 F   0  0  0  0  0  0  0  0  0  0  0  0
   -4.3157   -2.0152   -4.6806 C   0  0  0  0  0  0  0  0  0  0  0  0
   -3.2382   -2.6074   -4.0285 C   0  0  0  0  0  0  0  0  0  0  0  0
   -2.9598   -2.2479   -2.7120 C   0  0  0  0  0  0  0  0  0  0  0  0
   -1.9158   -2.8219   -2.0908 F   0  0  0  0  0  0  0  0  0  0  0  0
   -1.7789   -0.2527    1.3496 N   0  0  0  0  0  0  0  0  0  0  0  0
   -1.2648   -1.5535    1.4943 N   0  0  0  0  0  0  0  0  0  0  0  0
    0.0014   -1.8079    1.3070 C   0  0  0  0  0  0  0  0  0  0  0  0
    0.4820   -3.2174    1.5039 C   0  0  0  0  0  0  0  0  0  0  0  0
    0.8840   -0.7415    0.9078 C   0  0  0  0  0  0  0  0  0  0  0  0
    2.2265   -0.6742    0.5729 C   0  0  0  0  0  0  0  0  0  0  0  0
    3.2174   -1.7653    0.3835 C   0  0  0  0  0  0  0  0  0  0  0  0
    2.4898    0.6864    0.3664 N   0  0  0  0  0  0  0  0  0  0  0  0
    3.7281    1.3826    0.2073 C   0  0  0  0  0  0  0  0  0  0  0  0
    3.7097    2.6862   -0.3166 C   0  0  0  0  0  0  0  0  0  0  0  0
    4.8963    3.4060   -0.4848 C   0  0  0  0  0  0  0  0  0  0  0  0
    6.1235    2.8411   -0.1288 C   0  0  0  0  0  0  0  0  0  0  0  0
    7.3930    3.6260   -0.2754 C   0  0  0  0  0  0  0  0  0  0  0  0
    6.1405    1.5599    0.4315 C   0  0  0  0  0  0  0  0  0  0  0  0
    4.9537    0.8353    0.6009 C   0  0  0  0  0  0  0  0  0  0  0  0
    1.3322    1.4004    0.3265 N   0  0  0  0  0  0  0  0  0  0  0  0
    0.3833    0.5503    0.7216 C   0  0  0  0  0  0  0  0  0  0  0  0
   -1.0278    0.8613    0.9105 C   0  0  0  0  0  0  0  0  0  0  0  0
   -1.5114    1.9684    0.6952 O   0  0  0  0  0  0  0  0  0  0  0  0
   -5.7767    0.6721    2.5000 H   0  0  0  0  0  0  0  0  0  0  0  0
   -5.1845    1.6635    3.8406 H   0  0  0  0  0  0  0  0  0  0  0  0
   -4.8848   -0.0814    3.8353 H   0  0  0  0  0  0  0  0  0  0  0  0
   -2.8528    1.2125    3.2272 H   0  0  0  0  0  0  0  0  0  0  0  0
   -3.7197    1.9773    1.8936 H   0  0  0  0  0  0  0  0  0  0  0  0
   -3.5527   -1.0544    2.0605 H   0  0  0  0  0  0  0  0  0  0  0  0
   -2.5447   -1.5077   -0.3467 H   0  0  0  0  0  0  0  0  0  0  0  0
   -5.4500    0.0289   -2.2185 H   0  0  0  0  0  0  0  0  0  0  0  0
   -4.5587   -2.2731   -5.7066 H   0  0  0  0  0  0  0  0  0  0  0  0
   -2.6147   -3.3386   -4.5326 H   0  0  0  0  0  0  0  0  0  0  0  0
    1.3873   -3.2276    2.1162 H   0  0  0  0  0  0  0  0  0  0  0  0
    0.6879   -3.6714    0.5310 H   0  0  0  0  0  0  0  0  0  0  0  0
   -0.2852   -3.8126    2.0084 H   0  0  0  0  0  0  0  0  0  0  0  0
    3.9615   -1.5172   -0.3790 H   0  0  0  0  0  0  0  0  0  0  0  0
    2.7296   -2.6769    0.0267 H   0  0  0  0  0  0  0  0  0  0  0  0
    3.7204   -2.0013    1.3261 H   0  0  0  0  0  0  0  0  0  0  0  0
    2.7727    3.1590   -0.6099 H   0  0  0  0  0  0  0  0  0  0  0  0
    4.8498    4.4131   -0.8938 H   0  0  0  0  0  0  0  0  0  0  0  0
    7.5886    4.1956    0.6384 H   0  0  0  0  0  0  0  0  0  0  0  0
    8.2421    2.9615   -0.4677 H   0  0  0  0  0  0  0  0  0  0  0  0
    7.3274    4.3213   -1.1191 H   0  0  0  0  0  0  0  0  0  0  0  0
    7.0818    1.1189    0.7533 H   0  0  0  0  0  0  0  0  0  0  0  0
    5.0301   -0.1283    1.0890 H   0  0  0  0  0  0  0  0  0  0  0  0
  1  2  1  0
  2  3  1  0
  3  4  1  0
  4  5  2  0
  4  6  1  0
  6  7  1  0
  7  8  2  0
  8  9  1  0
  9 10  1  0
  9 11  2  0
 11 12  1  0
 12 13  2  0
 13 14  1  0
  3 15  1  0
 15 16  1  0
 16 17  2  0
 17 18  1  0
 17 19  1  0
 19 20  2  0
 20 21  1  0
 20 22  1  0
 22 23  1  0
 23 24  2  0
 24 25  1  0
 25 26  2  0
 26 27  1  0
 26 28  1  0
 28 29  2  0
 22 30  1  0
 30 31  2  0
 31 32  1  0
 32 33  2  0
 13  7  1  0
 32 15  1  0
 31 19  1  0
 29 23  1  0
  1 34  1  0
  1 35  1  0
  1 36  1  0
  2 37  1  0
  2 38  1  0
  3 39  1  0
  6 40  1  0
  8 41  1  0
 11 42  1  0
 12 43  1  0
 18 44  1  0
 18 45  1  0
 18 46  1  0
 21 47  1  0
 21 48  1  0
 21 49  1  0
 24 50  1  0
 25 51  1  0
 27 52  1  0
 27 53  1  0
 27 54  1  0
 28 55  1  0
 29 56  1  0
M  END
$$$$
