
     RDKit          3D

 37 37  0  0  0  0  0  0  0  0999 V2000
   -1.1941   -4.0926   -0.2593 C   0  0  0  0  0  0  0  0  0  0  0  0
   -1.6003   -2.7663   -0.5974 O   0  0  0  0  0  0  0  0  0  0  0  0
   -0.9872   -1.7953    0.1344 C   0  0  0  0  0  0  0  0  0  0  0  0
   -0.1878   -1.9916    1.0444 O   0  0  0  0  0  0  0  0  0  0  0  0
   -1.4786   -0.4077   -0.2879 C   0  0  0  0  0  0  0  0  0  0  0  0
   -2.7610   -0.0737    0.4790 C   0  0  0  0  0  0  0  0  0  0  0  0
   -3.4049    1.2049   -0.0527 C   0  0  0  0  0  0  0  0  0  0  0  0
   -4.9975    1.5504    0.7676 S   0  0  0  0  0  0  0  0  0  0  0  0
   -4.3920    2.1484    2.3650 C   0  0  0  0  0  0  0  0  0  0  0  0
   -0.4176    0.5582    0.0165 N   0  0  0  0  0  0  0  0  0  0  0  0
    0.5473    0.8090   -0.9270 C   0  0  0  0  0  0  0  0  0  0  0  0
    0.5030    0.3847   -2.0732 O   0  0  0  0  0  0  0  0  0  0  0  0
    1.5292    1.6257   -0.4430 N   0  0  0  0  0  0  0  0  0  0  0  0
    2.7036    1.9413   -1.2235 C   0  0  0  0  0  0  0  0  0  0  0  0
    3.8004    1.0066   -0.8215 C   0  0  0  0  0  0  0  0  0  0  0  0
    4.0145   -0.2893   -1.2512 C   0  0  0  0  0  0  0  0  0  0  0  0
    5.1619   -0.8789   -0.6479 C   0  0  0  0  0  0  0  0  0  0  0  0
    5.7876   -0.0141    0.2214 C   0  0  0  0  0  0  0  0  0  0  0  0
    4.9910    1.4963    0.3099 S   0  0  0  0  0  0  0  0  0  0  0  0
   -1.4488   -4.3175    0.7811 H   0  0  0  0  0  0  0  0  0  0  0  0
   -0.1212   -4.2209   -0.4329 H   0  0  0  0  0  0  0  0  0  0  0  0
   -1.7357   -4.7884   -0.9061 H   0  0  0  0  0  0  0  0  0  0  0  0
   -1.6609   -0.4177   -1.3688 H   0  0  0  0  0  0  0  0  0  0  0  0
   -3.4675   -0.9085    0.3813 H   0  0  0  0  0  0  0  0  0  0  0  0
   -2.5332    0.0241    1.5478 H   0  0  0  0  0  0  0  0  0  0  0  0
   -3.6115    1.0972   -1.1230 H   0  0  0  0  0  0  0  0  0  0  0  0
   -2.7459    2.0709    0.0661 H   0  0  0  0  0  0  0  0  0  0  0  0
   -3.7031    2.9853    2.2246 H   0  0  0  0  0  0  0  0  0  0  0  0
   -5.2410    2.4963    2.9597 H   0  0  0  0  0  0  0  0  0  0  0  0
   -3.8943    1.3473    2.9162 H   0  0  0  0  0  0  0  0  0  0  0  0
   -0.0470    0.4796    0.9549 H   0  0  0  0  0  0  0  0  0  0  0  0
    1.5859    1.7752    0.5512 H   0  0  0  0  0  0  0  0  0  0  0  0
    2.9628    2.9851   -1.0181 H   0  0  0  0  0  0  0  0  0  0  0  0
    2.4927    1.8489   -2.2942 H   0  0  0  0  0  0  0  0  0  0  0  0
    3.3675   -0.7900   -1.9636 H   0  0  0  0  0  0  0  0  0  0  0  0
    5.5089   -1.8864   -0.8417 H   0  0  0  0  0  0  0  0  0  0  0  0
    6.6749   -0.1965    0.8120 H   0  0  0  0  0  0  0  0  0  0  0  0
  1  2  1  0
  2  3  1  0
  3  4  2  0
  3  5  1  0
  5  6  1  0
  6  7  1  0
  7  8  1  0
  8  9  1  0
  5 10  1  0
 10 11  1  0
 11 12  2  0
 11 13  1  0
 13 14  1  0
 14 15  1  0
 15 16  2  0
 16 17  1  0
 17 18  2  0
 18 19  1  0
 19 15  1  0
  1 20  1  0
  1 21  1  0
  1 22  1  0
  5 23  1  0
  6 24  1  0
  6 25  1  0
  7 26  1  0
  7 27  1  0
  9 28  1  0
  9 29  1  0
  9 30  1  0
 10 31  1  0
 13 32  1  0
 14 33  1  0
 14 34  1  0
 16 35  1  0
 17 36  1  0
 18 37  1  0
M  END
$$$$
