
     RDKit          3D

 39 41  0  0  0  0  0  0  0  0999 V2000
    3.4321   -1.8571   -0.6591 C   0  0  0  0  0  0  0  0  0  0  0  0
    3.8394   -0.4586   -0.5268 N   0  0  0  0  0  0  0  0  0  0  0  0
    5.0631   -0.3757    0.2764 C   0  0  0  0  0  0  0  0  0  0  0  0
    2.7858    0.3830    0.0765 C   0  0  0  0  0  0  0  0  0  0  0  0
    1.5266    0.5595   -0.8031 C   0  0  0  0  0  0  0  0  0  0  0  0
    0.3700   -0.3096   -0.3639 C   0  0  0  0  0  0  0  0  0  0  0  0
   -0.9307    0.0266   -0.1992 C   0  0  0  0  0  0  0  0  0  0  0  0
   -1.4503    1.3936   -0.4661 C   0  0  0  0  0  0  0  0  0  0  0  0
   -1.1946    2.0634   -1.6725 C   0  0  0  0  0  0  0  0  0  0  0  0
   -1.7107    3.3405   -1.9013 C   0  0  0  0  0  0  0  0  0  0  0  0
   -2.5058    3.9539   -0.9369 C   0  0  0  0  0  0  0  0  0  0  0  0
   -2.8040    3.2830    0.2495 C   0  0  0  0  0  0  0  0  0  0  0  0
   -2.2966    1.9981    0.4834 C   0  0  0  0  0  0  0  0  0  0  0  0
   -2.7794    1.1573    1.9922 S   0  0  0  0  0  0  0  0  0  0  0  0
   -2.7055   -0.5532    1.4576 C   0  0  0  0  0  0  0  0  0  0  0  0
   -3.5514   -1.4792    2.0825 C   0  0  0  0  0  0  0  0  0  0  0  0
   -3.5449   -2.8182    1.6876 C   0  0  0  0  0  0  0  0  0  0  0  0
   -2.6966   -3.2321    0.6639 C   0  0  0  0  0  0  0  0  0  0  0  0
   -2.7015   -4.8795    0.1667 Cl  0  0  0  0  0  0  0  0  0  0  0  0
   -1.8441   -2.3239    0.0373 C   0  0  0  0  0  0  0  0  0  0  0  0
   -1.8256   -0.9792    0.4414 C   0  0  0  0  0  0  0  0  0  0  0  0
    2.6043   -1.9612   -1.3672 H   0  0  0  0  0  0  0  0  0  0  0  0
    3.1329   -2.2938    0.3004 H   0  0  0  0  0  0  0  0  0  0  0  0
    4.2513   -2.4602   -1.0677 H   0  0  0  0  0  0  0  0  0  0  0  0
    4.9137   -0.7488    1.2962 H   0  0  0  0  0  0  0  0  0  0  0  0
    5.4180    0.6594    0.3350 H   0  0  0  0  0  0  0  0  0  0  0  0
    5.8697   -0.9537   -0.1886 H   0  0  0  0  0  0  0  0  0  0  0  0
    2.5200    0.0246    1.0802 H   0  0  0  0  0  0  0  0  0  0  0  0
    3.2073    1.3887    0.2106 H   0  0  0  0  0  0  0  0  0  0  0  0
    1.7576    0.3502   -1.8543 H   0  0  0  0  0  0  0  0  0  0  0  0
    1.2536    1.6181   -0.7479 H   0  0  0  0  0  0  0  0  0  0  0  0
    0.6782   -1.3197   -0.0984 H   0  0  0  0  0  0  0  0  0  0  0  0
   -0.5950    1.5921   -2.4478 H   0  0  0  0  0  0  0  0  0  0  0  0
   -1.4953    3.8529   -2.8357 H   0  0  0  0  0  0  0  0  0  0  0  0
   -2.9080    4.9482   -1.1144 H   0  0  0  0  0  0  0  0  0  0  0  0
   -3.4468    3.7636    0.9833 H   0  0  0  0  0  0  0  0  0  0  0  0
   -4.2260   -1.1625    2.8750 H   0  0  0  0  0  0  0  0  0  0  0  0
   -4.2081   -3.5274    2.1759 H   0  0  0  0  0  0  0  0  0  0  0  0
   -1.2027   -2.6632   -0.7720 H   0  0  0  0  0  0  0  0  0  0  0  0
  1  2  1  0
  2  3  1  0
  2  4  1  0
  4  5  1  0
  5  6  1  0
  6  7  2  3
  7  8  1  0
  8  9  2  0
  9 10  1  0
 10 11  2  0
 11 12  1  0
 12 13  2  0
 13 14  1  0
 14 15  1  0
 15 16  2  0
 16 17  1  0
 17 18  2  0
 18 19  1  0
 18 20  1  0
 20 21  2  0
 21  7  1  0
 13  8  1  0
 21 15  1  0
  1 22  1  0
  1 23  1  0
  1 24  1  0
  3 25  1  0
  3 26  1  0
  3 27  1  0
  4 28  1  0
  4 29  1  0
  5 30  1  0
  5 31  1  0
  6 32  1  0
  9 33  1  0
 10 34  1  0
 11 35  1  0
 12 36  1  0
 16 37  1  0
 17 38  1  0
 20 39  1  0
M  END
$$$$
