
     RDKit          3D

 43 46  0  0  0  0  0  0  0  0999 V2000
   -7.4336   -0.4932    2.1224 C   0  0  0  0  0  0  0  0  0  0  0  0
   -7.0992   -1.0029    0.8375 O   0  0  0  0  0  0  0  0  0  0  0  0
   -5.8539   -0.7002    0.3604 C   0  0  0  0  0  0  0  0  0  0  0  0
   -4.8982    0.0875    1.0002 C   0  0  0  0  0  0  0  0  0  0  0  0
   -3.6575    0.3180    0.3931 C   0  0  0  0  0  0  0  0  0  0  0  0
   -3.3583   -0.2248   -0.8634 C   0  0  0  0  0  0  0  0  0  0  0  0
   -2.0519    0.0341   -1.4564 C   0  0  0  0  0  0  0  0  0  0  0  0
   -0.9207    0.0236   -0.6531 N   0  0  0  0  0  0  0  0  0  0  0  0
    0.1373    0.2696   -1.3746 C   0  0  0  0  0  0  0  0  0  0  0  0
    1.4423    0.3443   -0.9987 N   0  0  0  0  0  0  0  0  0  0  0  0
    1.8658    0.1797    0.3016 C   0  0  0  0  0  0  0  0  0  0  0  0
    1.1664   -0.0391    1.2840 O   0  0  0  0  0  0  0  0  0  0  0  0
    3.3388    0.3114    0.3833 C   0  0  0  0  0  0  0  0  0  0  0  0
    4.1001    0.5674   -0.7423 N   0  0  0  0  0  0  0  0  0  0  0  0
    5.3312    0.6144   -0.2859 C   0  0  0  0  0  0  0  0  0  0  0  0
    6.4907    0.8379   -0.9713 N   0  0  0  0  0  0  0  0  0  0  0  0
    7.5756    0.8288   -0.2604 C   0  0  0  0  0  0  0  0  0  0  0  0
    7.6692    0.6013    1.2083 C   0  0  0  0  0  0  0  0  0  0  0  0
    6.5045    0.3857    1.8454 C   0  0  0  0  0  0  0  0  0  0  0  0
    6.4109    0.1394    3.3189 C   0  0  0  0  0  0  0  0  0  0  0  0
    5.3191    0.3907    1.0985 N   0  0  0  0  0  0  0  0  0  0  0  0
    4.0482    0.2006    1.5164 N   0  0  0  0  0  0  0  0  0  0  0  0
   -0.1256    0.5460   -3.0342 S   0  0  0  0  0  0  0  0  0  0  0  0
   -1.8195    0.3485   -2.7888 C   0  0  0  0  0  0  0  0  0  0  0  0
   -2.7557    0.5331   -3.9318 C   0  0  0  0  0  0  0  0  0  0  0  0
   -4.3133   -1.0316   -1.4904 C   0  0  0  0  0  0  0  0  0  0  0  0
   -5.5531   -1.2591   -0.8838 C   0  0  0  0  0  0  0  0  0  0  0  0
   -8.4455   -0.8329    2.3634 H   0  0  0  0  0  0  0  0  0  0  0  0
   -7.4415    0.6018    2.1225 H   0  0  0  0  0  0  0  0  0  0  0  0
   -6.7592   -0.8849    2.8911 H   0  0  0  0  0  0  0  0  0  0  0  0
   -5.0767    0.5335    1.9727 H   0  0  0  0  0  0  0  0  0  0  0  0
   -2.9147    0.9223    0.9126 H   0  0  0  0  0  0  0  0  0  0  0  0
    2.1395    0.5364   -1.7077 H   0  0  0  0  0  0  0  0  0  0  0  0
    8.5407    1.0040   -0.7653 H   0  0  0  0  0  0  0  0  0  0  0  0
    8.6404    0.6190    1.6836 H   0  0  0  0  0  0  0  0  0  0  0  0
    7.3968    0.1583    3.7958 H   0  0  0  0  0  0  0  0  0  0  0  0
    5.9659   -0.8411    3.5190 H   0  0  0  0  0  0  0  0  0  0  0  0
    5.7962    0.9072    3.8005 H   0  0  0  0  0  0  0  0  0  0  0  0
   -2.9832   -0.4314   -4.3968 H   0  0  0  0  0  0  0  0  0  0  0  0
   -3.6938    0.9902   -3.6012 H   0  0  0  0  0  0  0  0  0  0  0  0
   -2.3341    1.1884   -4.7016 H   0  0  0  0  0  0  0  0  0  0  0  0
   -4.1031   -1.5107   -2.4422 H   0  0  0  0  0  0  0  0  0  0  0  0
   -6.2876   -1.8881   -1.3810 H   0  0  0  0  0  0  0  0  0  0  0  0
  1  2  1  0
  2  3  1  0
  3  4  2  0
  4  5  1  0
  5  6  2  0
  6  7  1  0
  7  8  1  0
  8  9  2  0
  9 10  1  0
 10 11  1  0
 11 12  2  0
 11 13  1  0
 13 14  1  0
 14 15  2  0
 15 16  1  0
 16 17  2  0
 17 18  1  0
 18 19  2  0
 19 20  1  0
 19 21  1  0
 21 22  1  0
  9 23  1  0
 23 24  1  0
 24 25  1  0
  6 26  1  0
 26 27  2  0
 27  3  1  0
 24  7  2  0
 22 13  2  0
 21 15  1  0
  1 28  1  0
  1 29  1  0
  1 30  1  0
  4 31  1  0
  5 32  1  0
 10 33  1  0
 17 34  1  0
 18 35  1  0
 20 36  1  0
 20 37  1  0
 20 38  1  0
 25 39  1  0
 25 40  1  0
 25 41  1  0
 26 42  1  0
 27 43  1  0
M  END
$$$$
