
     RDKit          3D

 31 32  0  0  0  0  0  0  0  0999 V2000
   -1.2633    2.1275   -0.9177 C   0  0  0  0  0  0  0  0  0  0  0  0
   -1.9089    0.8231   -0.6734 N   0  0  0  0  0  4  0  0  0  0  0  0
   -2.4736    0.1813   -1.7250 C   0  0  0  0  0  0  0  0  0  0  0  0
   -3.1243   -1.0348   -1.5617 C   0  0  0  0  0  0  0  0  0  0  0  0
   -3.1961   -1.6036   -0.3008 C   0  0  0  0  0  0  0  0  0  0  0  0
   -2.6029   -0.9485    0.7700 C   0  0  0  0  0  0  0  0  0  0  0  0
   -1.9423    0.2703    0.5700 C   0  0  0  0  0  0  0  0  0  0  0  0
   -1.2955    0.9192    1.7155 C   0  0  0  0  0  0  0  0  0  0  0  0
    0.0222    0.9381    1.9803 C   0  0  0  0  0  0  0  0  0  0  0  0
    1.0889    0.3223    1.1821 C   0  0  0  0  0  0  0  0  0  0  0  0
    2.1497    1.1230    0.7359 C   0  0  0  0  0  0  0  0  0  0  0  0
    3.1893    0.5707   -0.0197 C   0  0  0  0  0  0  0  0  0  0  0  0
    3.1748   -0.7971   -0.3188 C   0  0  0  0  0  0  0  0  0  0  0  0
    4.2558   -1.3807   -1.1244 N   0  0  0  0  0  4  0  0  0  0  0  0
    4.1797   -2.5866   -1.3952 O   0  0  0  0  0  0  0  0  0  0  0  0
    5.1613   -0.6249   -1.5006 O   0  0  0  0  0  1  0  0  0  0  0  0
    2.1335   -1.6119    0.1430 C   0  0  0  0  0  0  0  0  0  0  0  0
    1.0986   -1.0499    0.8980 C   0  0  0  0  0  0  0  0  0  0  0  0
   -0.1907    1.9567   -1.0255 H   0  0  0  0  0  0  0  0  0  0  0  0
   -1.6633    2.5637   -1.8375 H   0  0  0  0  0  0  0  0  0  0  0  0
   -1.4863    2.8080   -0.0929 H   0  0  0  0  0  0  0  0  0  0  0  0
   -2.4030    0.6523   -2.7022 H   0  0  0  0  0  0  0  0  0  0  0  0
   -3.5764   -1.5354   -2.4159 H   0  0  0  0  0  0  0  0  0  0  0  0
   -3.7055   -2.5548   -0.1520 H   0  0  0  0  0  0  0  0  0  0  0  0
   -2.6461   -1.3972    1.7615 H   0  0  0  0  0  0  0  0  0  0  0  0
   -1.9797    1.3994    2.4143 H   0  0  0  0  0  0  0  0  0  0  0  0
    0.3708    1.4614    2.8724 H   0  0  0  0  0  0  0  0  0  0  0  0
    2.1857    2.1846    0.9778 H   0  0  0  0  0  0  0  0  0  0  0  0
    4.0032    1.2125   -0.3547 H   0  0  0  0  0  0  0  0  0  0  0  0
    2.1232   -2.6819   -0.0607 H   0  0  0  0  0  0  0  0  0  0  0  0
    0.3213   -1.7071    1.2827 H   0  0  0  0  0  0  0  0  0  0  0  0
  1  2  1  0
  2  3  2  0
  3  4  1  0
  4  5  2  0
  5  6  1  0
  6  7  2  0
  7  8  1  0
  8  9  2  3
  9 10  1  0
 10 11  2  0
 11 12  1  0
 12 13  2  0
 13 14  1  0
 14 15  2  0
 14 16  1  0
 13 17  1  0
 17 18  2  0
  7  2  1  0
 18 10  1  0
  1 19  1  0
  1 20  1  0
  1 21  1  0
  3 22  1  0
  4 23  1  0
  5 24  1  0
  6 25  1  0
  8 26  1  0
  9 27  1  0
 11 28  1  0
 12 29  1  0
 17 30  1  0
 18 31  1  0
M  CHG  3   2   1  14   1  16  -1
M  END
$$$$
