
     RDKit          3D

 62 66  0  0  0  0  0  0  0  0999 V2000
   -3.2941    5.9116   -2.7795 C   0  0  0  0  0  0  0  0  0  0  0  0
   -2.5871    4.7879   -2.2713 O   0  0  0  0  0  0  0  0  0  0  0  0
   -3.3361    3.7270   -1.8406 C   0  0  0  0  0  0  0  0  0  0  0  0
   -4.7213    3.6412   -1.8671 C   0  0  0  0  0  0  0  0  0  0  0  0
   -5.3741    2.4969   -1.3942 C   0  0  0  0  0  0  0  0  0  0  0  0
   -4.6113    1.4286   -0.8847 C   0  0  0  0  0  0  0  0  0  0  0  0
   -5.2048   -0.0563   -0.2568 S   0  0  0  0  0  0  0  0  0  0  0  0
   -3.6352   -0.6387    0.0857 C   0  0  0  0  0  0  0  0  0  0  0  0
   -3.5019   -1.9646    0.7020 C   0  0  0  0  0  0  0  0  0  0  0  0
   -3.6035   -3.1061   -0.1088 C   0  0  0  0  0  0  0  0  0  0  0  0
   -3.4657   -4.3805    0.4401 C   0  0  0  0  0  0  0  0  0  0  0  0
   -3.2160   -4.5252    1.8013 C   0  0  0  0  0  0  0  0  0  0  0  0
   -3.1149   -3.3987    2.6198 C   0  0  0  0  0  0  0  0  0  0  0  0
   -3.2714   -2.1154    2.0829 C   0  0  0  0  0  0  0  0  0  0  0  0
   -3.1771   -0.9691    2.8327 O   0  0  0  0  0  0  0  0  0  0  0  0
   -3.5889   -1.0878    4.1912 C   0  0  0  0  0  0  0  0  0  0  0  0
   -2.6598    0.2739   -0.2795 C   0  0  0  0  0  0  0  0  0  0  0  0
   -1.2425   -0.0022   -0.0813 C   0  0  0  0  0  0  0  0  0  0  0  0
   -0.5455    0.6271    0.9549 C   0  0  0  0  0  0  0  0  0  0  0  0
    0.8182    0.3761    1.1452 C   0  0  0  0  0  0  0  0  0  0  0  0
    1.4929   -0.5038    0.2976 C   0  0  0  0  0  0  0  0  0  0  0  0
    2.8160   -0.8392    0.3745 O   0  0  0  0  0  0  0  0  0  0  0  0
    3.6213   -0.0993    1.2964 C   0  0  0  0  0  0  0  0  0  0  0  0
    5.0937   -0.5264    1.1481 C   0  0  0  0  0  0  0  0  0  0  0  0
    5.7990    0.1371    0.0391 N   0  0  0  0  0  0  0  0  0  0  0  0
    7.2096   -0.2497   -0.0209 C   0  0  0  0  0  0  0  0  0  0  0  0
    7.6354    0.2668   -1.3848 C   0  0  0  0  0  0  0  0  0  0  0  0
    6.3783    0.1855   -2.2410 C   0  0  0  0  0  0  0  0  0  0  0  0
    5.2607   -0.2027   -1.2812 C   0  0  0  0  0  0  0  0  0  0  0  0
    0.7921   -1.1348   -0.7340 C   0  0  0  0  0  0  0  0  0  0  0  0
   -0.5681   -0.8843   -0.9288 C   0  0  0  0  0  0  0  0  0  0  0  0
   -3.2179    1.4829   -0.8420 C   0  0  0  0  0  0  0  0  0  0  0  0
   -2.5891    2.6561   -1.3363 C   0  0  0  0  0  0  0  0  0  0  0  0
   -2.5577    6.6677   -3.0685 H   0  0  0  0  0  0  0  0  0  0  0  0
   -3.9396    6.3520   -2.0129 H   0  0  0  0  0  0  0  0  0  0  0  0
   -3.8659    5.6448   -3.6737 H   0  0  0  0  0  0  0  0  0  0  0  0
   -5.3371    4.4478   -2.2508 H   0  0  0  0  0  0  0  0  0  0  0  0
   -6.4584    2.4354   -1.4187 H   0  0  0  0  0  0  0  0  0  0  0  0
   -3.7885   -3.0016   -1.1751 H   0  0  0  0  0  0  0  0  0  0  0  0
   -3.5454   -5.2566   -0.1956 H   0  0  0  0  0  0  0  0  0  0  0  0
   -3.0946   -5.5174    2.2281 H   0  0  0  0  0  0  0  0  0  0  0  0
   -2.8959   -3.5478    3.6713 H   0  0  0  0  0  0  0  0  0  0  0  0
   -3.7259   -0.0771    4.5877 H   0  0  0  0  0  0  0  0  0  0  0  0
   -2.8141   -1.5810    4.7919 H   0  0  0  0  0  0  0  0  0  0  0  0
   -4.5477   -1.6114    4.2785 H   0  0  0  0  0  0  0  0  0  0  0  0
   -1.0646    1.3063    1.6270 H   0  0  0  0  0  0  0  0  0  0  0  0
    1.3182    0.8784    1.9667 H   0  0  0  0  0  0  0  0  0  0  0  0
    3.2982   -0.3362    2.3170 H   0  0  0  0  0  0  0  0  0  0  0  0
    3.5261    0.9802    1.1261 H   0  0  0  0  0  0  0  0  0  0  0  0
    5.1536   -1.6179    1.0467 H   0  0  0  0  0  0  0  0  0  0  0  0
    5.6061   -0.2496    2.0780 H   0  0  0  0  0  0  0  0  0  0  0  0
    7.3347   -1.3389    0.0224 H   0  0  0  0  0  0  0  0  0  0  0  0
    7.7988    0.2029    0.7826 H   0  0  0  0  0  0  0  0  0  0  0  0
    8.4571   -0.3194   -1.8064 H   0  0  0  0  0  0  0  0  0  0  0  0
    7.9679    1.3091   -1.3152 H   0  0  0  0  0  0  0  0  0  0  0  0
    6.1808    1.1533   -2.7104 H   0  0  0  0  0  0  0  0  0  0  0  0
    6.4853   -0.5587   -3.0351 H   0  0  0  0  0  0  0  0  0  0  0  0
    4.3415    0.3436   -1.5088 H   0  0  0  0  0  0  0  0  0  0  0  0
    5.0621   -1.2774   -1.3724 H   0  0  0  0  0  0  0  0  0  0  0  0
    1.3115   -1.8241   -1.3948 H   0  0  0  0  0  0  0  0  0  0  0  0
   -1.0936   -1.3804   -1.7405 H   0  0  0  0  0  0  0  0  0  0  0  0
   -1.5036    2.7281   -1.3239 H   0  0  0  0  0  0  0  0  0  0  0  0
  1  2  1  0
  2  3  1  0
  3  4  2  0
  4  5  1  0
  5  6  2  0
  6  7  1  0
  7  8  1  0
  8  9  1  0
  9 10  2  0
 10 11  1  0
 11 12  2  0
 12 13  1  0
 13 14  2  0
 14 15  1  0
 15 16  1  0
  8 17  2  0
 17 18  1  0
 18 19  2  0
 19 20  1  0
 20 21  2  0
 21 22  1  0
 22 23  1  0
 23 24  1  0
 24 25  1  0
 25 26  1  0
 26 27  1  0
 27 28  1  0
 28 29  1  0
 21 30  1  0
 30 31  2  0
 17 32  1  0
 32 33  2  0
 33  3  1  0
 32  6  1  0
 14  9  1  0
 31 18  1  0
 29 25  1  0
  1 34  1  0
  1 35  1  0
  1 36  1  0
  4 37  1  0
  5 38  1  0
 10 39  1  0
 11 40  1  0
 12 41  1  0
 13 42  1  0
 16 43  1  0
 16 44  1  0
 16 45  1  0
 19 46  1  0
 20 47  1  0
 23 48  1  0
 23 49  1  0
 24 50  1  0
 24 51  1  0
 26 52  1  0
 26 53  1  0
 27 54  1  0
 27 55  1  0
 28 56  1  0
 28 57  1  0
 29 58  1  0
 29 59  1  0
 30 60  1  0
 31 61  1  0
 33 62  1  0
M  END
$$$$
