
     RDKit          3D

 49 52  0  0  0  0  0  0  0  0999 V2000
   -8.3883   -5.0354    0.8204 C   0  0  0  0  0  0  0  0  0  0  0  0
   -7.0411   -4.5621    0.7842 O   0  0  0  0  0  0  0  0  0  0  0  0
   -6.7932   -3.6562   -0.2073 C   0  0  0  0  0  0  0  0  0  0  0  0
   -7.6456   -3.2774   -1.0025 O   0  0  0  0  0  0  0  0  0  0  0  0
   -5.4108   -3.2311   -0.1662 C   0  0  0  0  0  0  0  0  0  0  0  0
   -4.8655   -2.0568   -1.3002 S   0  0  0  0  0  0  0  0  0  0  0  0
   -3.3111   -2.1151   -0.6266 C   0  0  0  0  0  0  0  0  0  0  0  0
   -2.2599   -1.3648   -1.0818 N   0  0  0  0  0  0  0  0  0  0  0  0
   -2.2810   -0.4105   -2.0775 C   0  0  0  0  0  0  0  0  0  0  0  0
   -3.2526   -0.0516   -2.7356 O   0  0  0  0  0  0  0  0  0  0  0  0
   -0.9131    0.2055   -2.3173 C   0  0  0  0  0  0  0  0  0  0  0  0
   -0.5815    1.4491   -1.0339 S   0  0  0  0  0  0  0  0  0  0  0  0
    1.0094    1.9380   -1.4934 C   0  0  0  0  0  0  0  0  0  0  0  0
    1.7643    1.3562   -2.3942 N   0  0  0  0  0  0  0  0  0  0  0  0
    2.9623    2.0213   -2.4290 N   0  0  0  0  0  0  0  0  0  0  0  0
    2.9193    2.9962   -1.5404 C   0  0  0  0  0  0  0  0  0  0  0  0
    4.0337    3.9311   -1.2390 C   0  0  0  0  0  0  0  0  0  0  0  0
    4.6033    3.6485    0.0627 N   0  0  0  0  0  0  0  0  0  0  0  0
    4.3229    4.4561    1.1067 N   0  0  0  0  0  0  0  0  0  0  0  0
    4.9715    3.9820    2.1622 N   0  0  0  0  0  0  0  0  0  0  0  0
    5.6645    2.8666    1.7719 C   0  0  0  0  0  0  0  0  0  0  0  0
    6.4974    2.0050    2.4989 C   0  0  0  0  0  0  0  0  0  0  0  0
    7.0774    0.9175    1.8328 C   0  0  0  0  0  0  0  0  0  0  0  0
    6.8308    0.6935    0.4755 C   0  0  0  0  0  0  0  0  0  0  0  0
    6.0032    1.5453   -0.2656 C   0  0  0  0  0  0  0  0  0  0  0  0
    5.4412    2.6261    0.4212 C   0  0  0  0  0  0  0  0  0  0  0  0
    1.6791    2.9936   -0.9384 N   0  0  0  0  0  0  0  0  0  0  0  0
    1.2017    3.8977    0.0780 C   0  0  0  0  0  0  0  0  0  0  0  0
   -3.1516   -2.9474    0.3727 N   0  0  0  0  0  0  0  0  0  0  0  0
   -4.3493   -3.5949    0.6526 C   0  0  0  0  0  0  0  0  0  0  0  0
   -4.3458   -4.5786    1.7698 C   0  0  0  0  0  0  0  0  0  0  0  0
   -9.0820   -4.2072    0.9955 H   0  0  0  0  0  0  0  0  0  0  0  0
   -8.4763   -5.7408    1.6513 H   0  0  0  0  0  0  0  0  0  0  0  0
   -8.6347   -5.5608   -0.1077 H   0  0  0  0  0  0  0  0  0  0  0  0
   -1.4084   -1.5219   -0.5596 H   0  0  0  0  0  0  0  0  0  0  0  0
   -0.1532   -0.5830   -2.3010 H   0  0  0  0  0  0  0  0  0  0  0  0
   -0.9045    0.6700   -3.3089 H   0  0  0  0  0  0  0  0  0  0  0  0
    4.8383    3.8272   -1.9752 H   0  0  0  0  0  0  0  0  0  0  0  0
    3.7023    4.9745   -1.2602 H   0  0  0  0  0  0  0  0  0  0  0  0
    6.6827    2.1804    3.5528 H   0  0  0  0  0  0  0  0  0  0  0  0
    7.7252    0.2373    2.3817 H   0  0  0  0  0  0  0  0  0  0  0  0
    7.2882   -0.1633   -0.0164 H   0  0  0  0  0  0  0  0  0  0  0  0
    5.8048    1.3609   -1.3171 H   0  0  0  0  0  0  0  0  0  0  0  0
    1.3867    3.4444    1.0550 H   0  0  0  0  0  0  0  0  0  0  0  0
    1.7214    4.8542   -0.0043 H   0  0  0  0  0  0  0  0  0  0  0  0
    0.1342    4.0820   -0.0621 H   0  0  0  0  0  0  0  0  0  0  0  0
   -4.6346   -5.5717    1.4126 H   0  0  0  0  0  0  0  0  0  0  0  0
   -3.3474   -4.6620    2.2116 H   0  0  0  0  0  0  0  0  0  0  0  0
   -5.0347   -4.2675    2.5609 H   0  0  0  0  0  0  0  0  0  0  0  0
  1  2  1  0
  2  3  1  0
  3  4  2  0
  3  5  1  0
  5  6  1  0
  6  7  1  0
  7  8  1  0
  8  9  1  0
  9 10  2  0
  9 11  1  0
 11 12  1  0
 12 13  1  0
 13 14  2  0
 14 15  1  0
 15 16  2  0
 16 17  1  0
 17 18  1  0
 18 19  1  0
 19 20  2  0
 20 21  1  0
 21 22  2  0
 22 23  1  0
 23 24  2  0
 24 25  1  0
 25 26  2  0
 16 27  1  0
 27 28  1  0
  7 29  2  0
 29 30  1  0
 30 31  1  0
 30  5  2  0
 27 13  1  0
 26 18  1  0
 26 21  1  0
  1 32  1  0
  1 33  1  0
  1 34  1  0
  8 35  1  0
 11 36  1  0
 11 37  1  0
 17 38  1  0
 17 39  1  0
 22 40  1  0
 23 41  1  0
 24 42  1  0
 25 43  1  0
 28 44  1  0
 28 45  1  0
 28 46  1  0
 31 47  1  0
 31 48  1  0
 31 49  1  0
M  END
$$$$
