
     RDKit          3D

 54 57  0  0  0  0  0  0  0  0999 V2000
   -3.9988    5.3703    1.7654 C   0  0  0  0  0  0  0  0  0  0  0  0
   -3.1905    4.5330    2.5841 O   0  0  0  0  0  0  0  0  0  0  0  0
   -2.5614    3.4862    1.9693 C   0  0  0  0  0  0  0  0  0  0  0  0
   -2.6957    3.1141    0.6307 C   0  0  0  0  0  0  0  0  0  0  0  0
   -1.9921    2.0122    0.1283 C   0  0  0  0  0  0  0  0  0  0  0  0
   -1.1470    1.2732    0.9639 C   0  0  0  0  0  0  0  0  0  0  0  0
   -0.4361    0.1484    0.4694 N   0  0  0  0  0  0  0  0  0  0  0  0
   -0.2775   -1.0919    1.0870 C   0  0  0  0  0  0  0  0  0  0  0  0
   -1.0550   -1.6023    2.2591 C   0  0  0  0  0  0  0  0  0  0  0  0
   -2.5096   -1.7911    1.9398 C   0  0  0  0  0  0  0  0  0  0  0  0
   -3.5943   -1.0247    2.3283 C   0  0  0  0  0  0  0  0  0  0  0  0
   -4.7542   -1.5918    1.7556 C   0  0  0  0  0  0  0  0  0  0  0  0
   -4.3596   -2.6936    1.0344 C   0  0  0  0  0  0  0  0  0  0  0  0
   -3.0016   -2.8268    1.1707 N   0  0  0  0  0  0  0  0  0  0  0  0
   -2.2275   -3.9160    0.6088 C   0  0  0  0  0  0  0  0  0  0  0  0
    0.5462   -1.8386    0.3740 N   0  0  0  0  0  0  0  0  0  0  0  0
    0.8613   -1.1599   -0.7625 N   0  0  0  0  0  0  0  0  0  0  0  0
    0.2409   -0.0018   -0.7285 C   0  0  0  0  0  0  0  0  0  0  0  0
    0.4210    1.1945   -1.9740 S   0  0  0  0  0  0  0  0  0  0  0  0
    0.9650    0.1563   -3.3659 C   0  0  0  0  0  0  0  0  0  0  0  0
    2.4794    0.1492   -3.4997 C   0  0  0  0  0  0  0  0  0  0  0  0
    3.0100    0.6590   -4.4825 O   0  0  0  0  0  0  0  0  0  0  0  0
    3.1366   -0.4981   -2.4710 N   0  0  0  0  0  0  0  0  0  0  0  0
    4.5279   -0.6951   -2.3276 C   0  0  0  0  0  0  0  0  0  0  0  0
    5.4789   -0.3491   -3.2955 C   0  0  0  0  0  0  0  0  0  0  0  0
    6.8374   -0.6012   -3.0735 C   0  0  0  0  0  0  0  0  0  0  0  0
    7.2625   -1.1904   -1.8818 C   0  0  0  0  0  0  0  0  0  0  0  0
    6.3272   -1.5305   -0.9071 C   0  0  0  0  0  0  0  0  0  0  0  0
    4.9747   -1.2871   -1.1373 C   0  0  0  0  0  0  0  0  0  0  0  0
    4.0878   -1.6237   -0.1830 F   0  0  0  0  0  0  0  0  0  0  0  0
   -1.0075    1.6495    2.3055 C   0  0  0  0  0  0  0  0  0  0  0  0
   -1.7170    2.7471    2.8001 C   0  0  0  0  0  0  0  0  0  0  0  0
   -4.8609    4.8190    1.3638 H   0  0  0  0  0  0  0  0  0  0  0  0
   -4.3837    6.1794    2.3976 H   0  0  0  0  0  0  0  0  0  0  0  0
   -3.4061    5.8288    0.9617 H   0  0  0  0  0  0  0  0  0  0  0  0
   -3.3484    3.6519   -0.0494 H   0  0  0  0  0  0  0  0  0  0  0  0
   -2.1631    1.7289   -0.9081 H   0  0  0  0  0  0  0  0  0  0  0  0
   -0.6321   -2.5664    2.5689 H   0  0  0  0  0  0  0  0  0  0  0  0
   -0.9396   -0.9531    3.1297 H   0  0  0  0  0  0  0  0  0  0  0  0
   -3.5550   -0.1413    2.9526 H   0  0  0  0  0  0  0  0  0  0  0  0
   -5.7696   -1.2325    1.8601 H   0  0  0  0  0  0  0  0  0  0  0  0
   -4.9381   -3.4004    0.4528 H   0  0  0  0  0  0  0  0  0  0  0  0
   -2.8984   -4.6158    0.1084 H   0  0  0  0  0  0  0  0  0  0  0  0
   -1.5233   -3.5071   -0.1207 H   0  0  0  0  0  0  0  0  0  0  0  0
   -1.7073   -4.4236    1.4254 H   0  0  0  0  0  0  0  0  0  0  0  0
    0.5860   -0.8718   -3.3018 H   0  0  0  0  0  0  0  0  0  0  0  0
    0.5483    0.5912   -4.2812 H   0  0  0  0  0  0  0  0  0  0  0  0
    2.5698   -0.8454   -1.6939 H   0  0  0  0  0  0  0  0  0  0  0  0
    5.1988    0.1096   -4.2419 H   0  0  0  0  0  0  0  0  0  0  0  0
    7.5602   -0.3380   -3.8410 H   0  0  0  0  0  0  0  0  0  0  0  0
    8.3184   -1.3842   -1.7162 H   0  0  0  0  0  0  0  0  0  0  0  0
    6.6398   -1.9857    0.0266 H   0  0  0  0  0  0  0  0  0  0  0  0
   -0.3227    1.1386    2.9783 H   0  0  0  0  0  0  0  0  0  0  0  0
   -1.6043    3.0385    3.8439 H   0  0  0  0  0  0  0  0  0  0  0  0
  1  2  1  0
  2  3  1  0
  3  4  2  0
  4  5  1  0
  5  6  2  0
  6  7  1  0
  7  8  1  0
  8  9  1  0
  9 10  1  0
 10 11  2  0
 11 12  1  0
 12 13  2  0
 13 14  1  0
 14 15  1  0
  8 16  2  0
 16 17  1  0
 17 18  2  0
 18 19  1  0
 19 20  1  0
 20 21  1  0
 21 22  2  0
 21 23  1  0
 23 24  1  0
 24 25  2  0
 25 26  1  0
 26 27  2  0
 27 28  1  0
 28 29  2  0
 29 30  1  0
  6 31  1  0
 31 32  2  0
 32  3  1  0
 18  7  1  0
 29 24  1  0
 14 10  1  0
  1 33  1  0
  1 34  1  0
  1 35  1  0
  4 36  1  0
  5 37  1  0
  9 38  1  0
  9 39  1  0
 11 40  1  0
 12 41  1  0
 13 42  1  0
 15 43  1  0
 15 44  1  0
 15 45  1  0
 20 46  1  0
 20 47  1  0
 23 48  1  0
 25 49  1  0
 26 50  1  0
 27 51  1  0
 28 52  1  0
 31 53  1  0
 32 54  1  0
M  END
$$$$
