
     RDKit          3D

 31 32  0  0  0  0  0  0  0  0999 V2000
   -3.0529   -1.9581    0.4878 C   0  0  0  0  0  0  0  0  0  0  0  0
   -2.5410   -0.7677    1.2843 C   0  0  0  0  0  0  0  0  0  0  0  0
   -1.7130    0.1184    0.4534 N   0  0  0  0  0  0  0  0  0  0  0  0
   -2.4276    1.1612   -0.2996 C   0  0  0  0  0  0  0  0  0  0  0  0
   -2.4517    0.8632   -1.7929 C   0  0  0  0  0  0  0  0  0  0  0  0
   -0.3290   -0.0066    0.4100 C   0  0  0  0  0  0  0  0  0  0  0  0
    0.3396   -1.1422    0.8977 C   0  0  0  0  0  0  0  0  0  0  0  0
    1.7404   -1.2789    0.8590 C   0  0  0  0  0  0  0  0  0  0  0  0
    2.5467   -0.2738    0.3247 C   0  0  0  0  0  0  0  0  0  0  0  0
    4.0115   -0.3190    0.2382 C   0  0  0  0  0  0  0  0  0  0  0  0
    4.8133   -1.7365    0.8509 Cl  0  0  0  0  0  0  0  0  0  0  0  0
    4.7018    0.7039   -0.2970 C   0  0  0  0  0  0  0  0  0  0  0  0
    6.5800    0.7361   -0.4505 Br  0  0  0  0  0  0  0  0  0  0  0  0
    3.9961    1.9076   -0.8149 C   0  0  0  0  0  0  0  0  0  0  0  0
    4.5857    2.8626   -1.3108 O   0  0  0  0  0  0  0  0  0  0  0  0
    2.6121    1.9185   -0.7179 O   0  0  0  0  0  0  0  0  0  0  0  0
    1.8937    0.8481   -0.1592 C   0  0  0  0  0  0  0  0  0  0  0  0
    0.4990    0.9897   -0.1241 C   0  0  0  0  0  0  0  0  0  0  0  0
   -3.7121   -1.6346   -0.3236 H   0  0  0  0  0  0  0  0  0  0  0  0
   -2.2342   -2.5327    0.0440 H   0  0  0  0  0  0  0  0  0  0  0  0
   -3.6264   -2.6273    1.1369 H   0  0  0  0  0  0  0  0  0  0  0  0
   -3.4016   -0.2117    1.6772 H   0  0  0  0  0  0  0  0  0  0  0  0
   -2.0030   -1.1053    2.1776 H   0  0  0  0  0  0  0  0  0  0  0  0
   -2.0026    2.1521   -0.1046 H   0  0  0  0  0  0  0  0  0  0  0  0
   -3.4678    1.2281    0.0432 H   0  0  0  0  0  0  0  0  0  0  0  0
   -3.0268    1.6316   -2.3195 H   0  0  0  0  0  0  0  0  0  0  0  0
   -1.4467    0.8441   -2.2242 H   0  0  0  0  0  0  0  0  0  0  0  0
   -2.9177   -0.1057   -1.9962 H   0  0  0  0  0  0  0  0  0  0  0  0
   -0.2160   -1.9789    1.3125 H   0  0  0  0  0  0  0  0  0  0  0  0
    2.1646   -2.1978    1.2573 H   0  0  0  0  0  0  0  0  0  0  0  0
    0.0855    1.9117   -0.5197 H   0  0  0  0  0  0  0  0  0  0  0  0
  1  2  1  0
  2  3  1  0
  3  4  1  0
  4  5  1  0
  3  6  1  0
  6  7  2  0
  7  8  1  0
  8  9  2  0
  9 10  1  0
 10 11  1  0
 10 12  2  0
 12 13  1  0
 12 14  1  0
 14 15  2  0
 14 16  1  0
 16 17  1  0
 17 18  2  0
 18  6  1  0
 17  9  1  0
  1 19  1  0
  1 20  1  0
  1 21  1  0
  2 22  1  0
  2 23  1  0
  4 24  1  0
  4 25  1  0
  5 26  1  0
  5 27  1  0
  5 28  1  0
  7 29  1  0
  8 30  1  0
 18 31  1  0
M  END
$$$$
