
     RDKit          3D

 43 46  0  0  0  0  0  0  0  0999 V2000
    1.8878    2.4610    1.7208 O   0  0  0  0  0  0  0  0  0  0  0  0
    2.3275    1.3112    1.7735 C   0  0  0  0  0  0  0  0  0  0  0  0
    2.7565    0.5827    0.5168 C   0  0  0  0  0  0  0  0  0  0  0  0
    2.0999   -1.1007    0.3602 S   0  0  0  0  0  0  0  0  0  0  0  0
    0.4042   -0.7936    0.4463 C   0  0  0  0  0  0  0  0  0  0  0  0
   -0.2353   -0.4165    1.5254 N   0  0  0  0  0  0  0  0  0  0  0  0
   -1.5579   -0.2680    1.1930 N   0  0  0  0  0  0  0  0  0  0  0  0
   -1.7072   -0.5846   -0.0792 C   0  0  0  0  0  0  0  0  0  0  0  0
   -2.9556   -0.5299   -0.8189 C   0  0  0  0  0  0  0  0  0  0  0  0
   -3.6038   -1.6848   -1.2620 C   0  0  0  0  0  0  0  0  0  0  0  0
   -4.7902   -1.5742   -1.9843 C   0  0  0  0  0  0  0  0  0  0  0  0
   -5.2893   -0.3071   -2.2398 C   0  0  0  0  0  0  0  0  0  0  0  0
   -4.6936    0.8302   -1.8223 N   0  0  0  0  0  0  0  0  0  0  0  0
   -3.5537    0.6930   -1.1022 C   0  0  0  0  0  0  0  0  0  0  0  0
   -0.4719   -0.9263   -0.5945 N   0  0  0  0  0  0  0  0  0  0  0  0
   -0.1783   -1.3119   -1.9605 C   0  0  0  0  0  0  0  0  0  0  0  0
    0.0672   -0.1163   -2.8027 C   0  0  0  0  0  0  0  0  0  0  0  0
   -0.7419    0.6726   -3.5954 C   0  0  0  0  0  0  0  0  0  0  0  0
    0.0926    1.6778   -4.1406 C   0  0  0  0  0  0  0  0  0  0  0  0
    1.3555    1.4337   -3.6561 C   0  0  0  0  0  0  0  0  0  0  0  0
    1.3513    0.3430   -2.8481 O   0  0  0  0  0  0  0  0  0  0  0  0
    2.5073    0.6877    3.1143 C   0  0  0  0  0  0  0  0  0  0  0  0
    3.5566   -0.1959    3.3868 C   0  0  0  0  0  0  0  0  0  0  0  0
    3.6870   -0.7465    4.6650 C   0  0  0  0  0  0  0  0  0  0  0  0
    2.7783   -0.4123    5.6750 C   0  0  0  0  0  0  0  0  0  0  0  0
    3.0079   -1.1324    7.2286 Cl  0  0  0  0  0  0  0  0  0  0  0  0
    1.7352    0.4811    5.4060 C   0  0  0  0  0  0  0  0  0  0  0  0
    0.5840    0.9448    6.6079 Cl  0  0  0  0  0  0  0  0  0  0  0  0
    1.6039    1.0324    4.1286 C   0  0  0  0  0  0  0  0  0  0  0  0
    2.4141    1.1629   -0.3469 H   0  0  0  0  0  0  0  0  0  0  0  0
    3.8497    0.5586    0.4753 H   0  0  0  0  0  0  0  0  0  0  0  0
   -3.2042   -2.6696   -1.0339 H   0  0  0  0  0  0  0  0  0  0  0  0
   -5.3188   -2.4552   -2.3318 H   0  0  0  0  0  0  0  0  0  0  0  0
   -6.2118   -0.1690   -2.7973 H   0  0  0  0  0  0  0  0  0  0  0  0
   -3.1140    1.6274   -0.7594 H   0  0  0  0  0  0  0  0  0  0  0  0
   -1.0193   -1.8946   -2.3476 H   0  0  0  0  0  0  0  0  0  0  0  0
    0.6857   -1.9835   -1.9637 H   0  0  0  0  0  0  0  0  0  0  0  0
   -1.8049    0.5488   -3.7571 H   0  0  0  0  0  0  0  0  0  0  0  0
   -0.1913    2.4832   -4.8039 H   0  0  0  0  0  0  0  0  0  0  0  0
    2.3132    1.9191   -3.7849 H   0  0  0  0  0  0  0  0  0  0  0  0
    4.2865   -0.4630    2.6276 H   0  0  0  0  0  0  0  0  0  0  0  0
    4.5032   -1.4360    4.8702 H   0  0  0  0  0  0  0  0  0  0  0  0
    0.7877    1.7207    3.9125 H   0  0  0  0  0  0  0  0  0  0  0  0
  1  2  2  0
  2  3  1  0
  3  4  1  0
  4  5  1  0
  5  6  2  0
  6  7  1  0
  7  8  2  0
  8  9  1  0
  9 10  2  0
 10 11  1  0
 11 12  2  0
 12 13  1  0
 13 14  2  0
  8 15  1  0
 15 16  1  0
 16 17  1  0
 17 18  2  0
 18 19  1  0
 19 20  2  0
 20 21  1  0
  2 22  1  0
 22 23  2  0
 23 24  1  0
 24 25  2  0
 25 26  1  0
 25 27  1  0
 27 28  1  0
 27 29  2  0
 15  5  1  0
 21 17  1  0
 29 22  1  0
 14  9  1  0
  3 30  1  0
  3 31  1  0
 10 32  1  0
 11 33  1  0
 12 34  1  0
 14 35  1  0
 16 36  1  0
 16 37  1  0
 18 38  1  0
 19 39  1  0
 20 40  1  0
 23 41  1  0
 24 42  1  0
 29 43  1  0
M  END
$$$$
