
     RDKit          3D

 45 47  0  0  0  0  0  0  0  0999 V2000
   -6.9326    1.6374    0.9462 C   0  0  0  0  0  0  0  0  0  0  0  0
   -6.7381    0.8477   -0.3362 C   0  0  0  0  0  0  0  0  0  0  0  0
   -6.0082   -0.3493   -0.0823 O   0  0  0  0  0  0  0  0  0  0  0  0
   -4.6449   -0.3531   -0.2323 C   0  0  0  0  0  0  0  0  0  0  0  0
   -3.8582    0.7928   -0.3771 C   0  0  0  0  0  0  0  0  0  0  0  0
   -2.4711    0.6874   -0.5114 C   0  0  0  0  0  0  0  0  0  0  0  0
   -1.8524   -0.5642   -0.4897 C   0  0  0  0  0  0  0  0  0  0  0  0
   -0.3998   -0.6957   -0.6449 C   0  0  0  0  0  0  0  0  0  0  0  0
    0.5276   -0.2552    0.2161 C   0  0  0  0  0  0  0  0  0  0  0  0
    0.2838    0.5538    1.7211 S   0  0  0  0  0  0  0  0  0  0  0  0
    2.0106    0.6914    2.0462 C   0  0  0  0  0  0  0  0  0  0  0  0
    2.6334    1.3733    3.4353 S   0  0  0  0  0  0  0  0  0  0  0  0
    2.6991    0.1159    0.9985 N   0  0  0  0  0  0  0  0  0  0  0  0
    4.1050    0.1355    0.9150 N   0  0  0  0  0  0  0  0  0  0  0  0
    4.6552    1.2065    0.2294 C   0  0  0  0  0  0  0  0  0  0  0  0
    4.0103    2.1876   -0.1270 O   0  0  0  0  0  0  0  0  0  0  0  0
    6.0984    1.0962   -0.1037 C   0  0  0  0  0  0  0  0  0  0  0  0
    6.9808    0.3459    0.6749 C   0  0  0  0  0  0  0  0  0  0  0  0
    8.3085    0.3079    0.2877 C   0  0  0  0  0  0  0  0  0  0  0  0
    8.7924    0.9526   -0.7946 N   0  0  0  0  0  0  0  0  0  0  0  0
    7.9194    1.6858   -1.5181 C   0  0  0  0  0  0  0  0  0  0  0  0
    6.5757    1.7921   -1.2145 C   0  0  0  0  0  0  0  0  0  0  0  0
    1.9807   -0.4542   -0.0372 C   0  0  0  0  0  0  0  0  0  0  0  0
    2.4469   -1.0651   -0.9902 O   0  0  0  0  0  0  0  0  0  0  0  0
   -2.6350   -1.7162   -0.3469 C   0  0  0  0  0  0  0  0  0  0  0  0
   -4.0259   -1.6201   -0.2105 C   0  0  0  0  0  0  0  0  0  0  0  0
   -4.8661   -2.6970   -0.0618 O   0  0  0  0  0  0  0  0  0  0  0  0
   -4.2798   -3.9873    0.0237 C   0  0  0  0  0  0  0  0  0  0  0  0
   -5.9757    1.9574    1.3689 H   0  0  0  0  0  0  0  0  0  0  0  0
   -7.5479    2.5233    0.7652 H   0  0  0  0  0  0  0  0  0  0  0  0
   -7.4223    1.0188    1.7057 H   0  0  0  0  0  0  0  0  0  0  0  0
   -6.2980    1.4516   -1.1373 H   0  0  0  0  0  0  0  0  0  0  0  0
   -7.7234    0.5378   -0.7029 H   0  0  0  0  0  0  0  0  0  0  0  0
   -4.2893    1.7877   -0.3787 H   0  0  0  0  0  0  0  0  0  0  0  0
   -1.8830    1.5950   -0.6305 H   0  0  0  0  0  0  0  0  0  0  0  0
   -0.0898   -1.2176   -1.5497 H   0  0  0  0  0  0  0  0  0  0  0  0
    4.5330   -0.7788    0.8074 H   0  0  0  0  0  0  0  0  0  0  0  0
    6.6702   -0.1732    1.5737 H   0  0  0  0  0  0  0  0  0  0  0  0
    9.0449   -0.2532    0.8571 H   0  0  0  0  0  0  0  0  0  0  0  0
    8.3441    2.2025   -2.3745 H   0  0  0  0  0  0  0  0  0  0  0  0
    5.9181    2.3990   -1.8287 H   0  0  0  0  0  0  0  0  0  0  0  0
   -2.1388   -2.6811   -0.3412 H   0  0  0  0  0  0  0  0  0  0  0  0
   -3.6063   -4.0605    0.8840 H   0  0  0  0  0  0  0  0  0  0  0  0
   -3.7650   -4.2487   -0.9066 H   0  0  0  0  0  0  0  0  0  0  0  0
   -5.0862   -4.7121    0.1712 H   0  0  0  0  0  0  0  0  0  0  0  0
  1  2  1  0
  2  3  1  0
  3  4  1  0
  4  5  2  0
  5  6  1  0
  6  7  2  0
  7  8  1  0
  8  9  2  3
  9 10  1  0
 10 11  1  0
 11 12  2  0
 11 13  1  0
 13 14  1  0
 14 15  1  0
 15 16  2  0
 15 17  1  0
 17 18  2  0
 18 19  1  0
 19 20  2  0
 20 21  1  0
 21 22  2  0
 13 23  1  0
 23 24  2  0
  7 25  1  0
 25 26  2  0
 26 27  1  0
 27 28  1  0
 26  4  1  0
 23  9  1  0
 22 17  1  0
  1 29  1  0
  1 30  1  0
  1 31  1  0
  2 32  1  0
  2 33  1  0
  5 34  1  0
  6 35  1  0
  8 36  1  0
 14 37  1  0
 18 38  1  0
 19 39  1  0
 21 40  1  0
 22 41  1  0
 25 42  1  0
 28 43  1  0
 28 44  1  0
 28 45  1  0
M  END
$$$$
