
     RDKit          3D

 52 51  0  0  0  0  0  0  0  0999 V2000
   -3.5775    4.2957    0.0811 C   0  0  0  0  0  0  0  0  0  0  0  0
   -3.5444    3.1813    0.5289 C   0  0  0  0  0  0  0  0  0  0  0  0
   -3.4926    1.8280    1.0919 C   0  0  0  0  0  0  0  0  0  0  0  0
   -4.0632    0.7692    0.1249 N   0  0  0  0  0  4  0  0  0  0  0  0
   -5.5210    1.1222   -0.2081 C   0  0  0  0  0  0  0  0  0  0  0  0
   -3.2707    0.7410   -1.1732 C   0  0  0  0  0  0  0  0  0  0  0  0
   -4.0853   -0.6146    0.8117 C   0  0  0  0  0  0  0  0  0  0  0  0
   -2.7076   -1.2238    1.1057 C   0  0  0  0  0  0  0  0  0  0  0  0
   -2.2472   -2.2225    0.0363 C   0  0  0  0  0  0  0  0  0  0  0  0
   -0.9830   -2.9956    0.4308 C   0  0  0  0  0  0  0  0  0  0  0  0
    0.2634   -2.1494    0.7137 C   0  0  0  0  0  0  0  0  0  0  0  0
    0.7268   -1.3274   -0.4912 C   0  0  0  0  0  0  0  0  0  0  0  0
    1.9666   -0.4720   -0.2053 C   0  0  0  0  0  0  0  0  0  0  0  0
    3.2390   -1.2961    0.0086 C   0  0  0  0  0  0  0  0  0  0  0  0
    4.4770   -0.4373    0.2926 C   0  0  0  0  0  0  0  0  0  0  0  0
    4.9044    0.4256   -0.8978 C   0  0  0  0  0  0  0  0  0  0  0  0
    6.2605    1.1060   -0.6923 C   0  0  0  0  0  0  0  0  0  0  0  0
    6.2631    2.1229    0.4387 C   0  0  0  0  0  0  0  0  0  0  0  0
   -3.6002    5.2914   -0.3048 H   0  0  0  0  0  0  0  0  0  0  0  0
   -2.4562    1.5583    1.3110 H   0  0  0  0  0  0  0  0  0  0  0  0
   -4.0761    1.7681    2.0172 H   0  0  0  0  0  0  0  0  0  0  0  0
   -6.0812    1.1959    0.7287 H   0  0  0  0  0  0  0  0  0  0  0  0
   -5.9313    0.3264   -0.8376 H   0  0  0  0  0  0  0  0  0  0  0  0
   -5.5514    2.0690   -0.7538 H   0  0  0  0  0  0  0  0  0  0  0  0
   -3.4369    1.6753   -1.7172 H   0  0  0  0  0  0  0  0  0  0  0  0
   -3.6276   -0.0997   -1.7751 H   0  0  0  0  0  0  0  0  0  0  0  0
   -2.2096    0.6340   -0.9366 H   0  0  0  0  0  0  0  0  0  0  0  0
   -4.6304   -0.4719    1.7529 H   0  0  0  0  0  0  0  0  0  0  0  0
   -4.6813   -1.2821    0.1781 H   0  0  0  0  0  0  0  0  0  0  0  0
   -2.7908   -1.7739    2.0523 H   0  0  0  0  0  0  0  0  0  0  0  0
   -1.9450   -0.4593    1.2644 H   0  0  0  0  0  0  0  0  0  0  0  0
   -2.0870   -1.7221   -0.9223 H   0  0  0  0  0  0  0  0  0  0  0  0
   -3.0454   -2.9564   -0.1333 H   0  0  0  0  0  0  0  0  0  0  0  0
   -0.7515   -3.7108   -0.3686 H   0  0  0  0  0  0  0  0  0  0  0  0
   -1.2016   -3.5951    1.3235 H   0  0  0  0  0  0  0  0  0  0  0  0
    1.0612   -2.8364    1.0176 H   0  0  0  0  0  0  0  0  0  0  0  0
    0.0843   -1.4891    1.5696 H   0  0  0  0  0  0  0  0  0  0  0  0
    0.9243   -1.9912   -1.3414 H   0  0  0  0  0  0  0  0  0  0  0  0
   -0.0755   -0.6482   -0.7988 H   0  0  0  0  0  0  0  0  0  0  0  0
    1.7821    0.1628    0.6697 H   0  0  0  0  0  0  0  0  0  0  0  0
    2.1073    0.1994   -1.0599 H   0  0  0  0  0  0  0  0  0  0  0  0
    3.1024   -1.9694    0.8619 H   0  0  0  0  0  0  0  0  0  0  0  0
    3.4234   -1.9287   -0.8680 H   0  0  0  0  0  0  0  0  0  0  0  0
    5.3020   -1.1084    0.5619 H   0  0  0  0  0  0  0  0  0  0  0  0
    4.2826    0.1941    1.1670 H   0  0  0  0  0  0  0  0  0  0  0  0
    4.9693   -0.2037   -1.7938 H   0  0  0  0  0  0  0  0  0  0  0  0
    4.1481    1.1920   -1.1007 H   0  0  0  0  0  0  0  0  0  0  0  0
    7.0328    0.3508   -0.5055 H   0  0  0  0  0  0  0  0  0  0  0  0
    6.5366    1.6177   -1.6220 H   0  0  0  0  0  0  0  0  0  0  0  0
    6.1073    1.6434    1.4095 H   0  0  0  0  0  0  0  0  0  0  0  0
    7.2270    2.6405    0.4759 H   0  0  0  0  0  0  0  0  0  0  0  0
    5.4806    2.8744    0.2934 H   0  0  0  0  0  0  0  0  0  0  0  0
  1  2  3  0
  2  3  1  0
  3  4  1  0
  4  5  1  0
  4  6  1  0
  4  7  1  0
  7  8  1  0
  8  9  1  0
  9 10  1  0
 10 11  1  0
 11 12  1  0
 12 13  1  0
 13 14  1  0
 14 15  1  0
 15 16  1  0
 16 17  1  0
 17 18  1  0
  1 19  1  0
  3 20  1  0
  3 21  1  0
  5 22  1  0
  5 23  1  0
  5 24  1  0
  6 25  1  0
  6 26  1  0
  6 27  1  0
  7 28  1  0
  7 29  1  0
  8 30  1  0
  8 31  1  0
  9 32  1  0
  9 33  1  0
 10 34  1  0
 10 35  1  0
 11 36  1  0
 11 37  1  0
 12 38  1  0
 12 39  1  0
 13 40  1  0
 13 41  1  0
 14 42  1  0
 14 43  1  0
 15 44  1  0
 15 45  1  0
 16 46  1  0
 16 47  1  0
 17 48  1  0
 17 49  1  0
 18 50  1  0
 18 51  1  0
 18 52  1  0
M  CHG  1   4   1
M  END
$$$$
