
     RDKit          3D

 42 44  0  0  0  0  0  0  0  0999 V2000
   -4.2268   -2.0799   -0.6163 C   0  0  0  0  0  0  0  0  0  0  0  0
   -4.0941   -0.9200    0.3716 C   0  0  0  0  0  0  0  0  0  0  0  0
   -4.1134   -1.4126    1.8193 C   0  0  0  0  0  0  0  0  0  0  0  0
   -2.9069   -0.1081    0.0934 N   0  0  0  0  0  0  0  0  0  0  0  0
   -1.6133   -0.5732    0.1662 C   0  0  0  0  0  0  0  0  0  0  0  0
   -0.7608    0.4580   -0.1589 C   0  0  0  0  0  0  0  0  0  0  0  0
    0.6678    0.3918   -0.2092 C   0  0  0  0  0  0  0  0  0  0  0  0
    1.4237   -0.6610    0.1479 C   0  0  0  0  0  0  0  0  0  0  0  0
    2.8886   -0.6687    0.0783 C   0  0  0  0  0  0  0  0  0  0  0  0
    3.5802   -0.1817   -1.0298 C   0  0  0  0  0  0  0  0  0  0  0  0
    4.9691   -0.2373   -1.0542 C   0  0  0  0  0  0  0  0  0  0  0  0
    5.6552   -0.7708   -0.0190 N   0  0  0  0  0  4  0  0  0  0  0  0
    7.1270   -0.8059   -0.0617 C   0  0  0  0  0  0  0  0  0  0  0  0
    5.0057   -1.2550    1.0630 C   0  0  0  0  0  0  0  0  0  0  0  0
    3.6173   -1.2226    1.1288 C   0  0  0  0  0  0  0  0  0  0  0  0
   -1.5675    1.6030   -0.4447 C   0  0  0  0  0  0  0  0  0  0  0  0
   -1.2849    2.9340   -0.8285 C   0  0  0  0  0  0  0  0  0  0  0  0
   -2.3300    3.8389   -1.0370 C   0  0  0  0  0  0  0  0  0  0  0  0
   -3.6496    3.4392   -0.8691 C   0  0  0  0  0  0  0  0  0  0  0  0
   -3.9606    2.1307   -0.4893 C   0  0  0  0  0  0  0  0  0  0  0  0
   -2.9064    1.2236   -0.2802 C   0  0  0  0  0  0  0  0  0  0  0  0
   -4.2179   -1.7155   -1.6495 H   0  0  0  0  0  0  0  0  0  0  0  0
   -5.1677   -2.6169   -0.4561 H   0  0  0  0  0  0  0  0  0  0  0  0
   -3.4084   -2.8002   -0.5101 H   0  0  0  0  0  0  0  0  0  0  0  0
   -4.9674   -0.2743    0.2357 H   0  0  0  0  0  0  0  0  0  0  0  0
   -3.2916   -2.1074    2.0237 H   0  0  0  0  0  0  0  0  0  0  0  0
   -5.0525   -1.9324    2.0370 H   0  0  0  0  0  0  0  0  0  0  0  0
   -4.0223   -0.5738    2.5182 H   0  0  0  0  0  0  0  0  0  0  0  0
   -1.4200   -1.6012    0.4403 H   0  0  0  0  0  0  0  0  0  0  0  0
    1.1619    1.2955   -0.5590 H   0  0  0  0  0  0  0  0  0  0  0  0
    0.9605   -1.5653    0.5357 H   0  0  0  0  0  0  0  0  0  0  0  0
    3.0467    0.2343   -1.8827 H   0  0  0  0  0  0  0  0  0  0  0  0
    5.5394    0.1397   -1.8986 H   0  0  0  0  0  0  0  0  0  0  0  0
    7.4821   -1.6668    0.5105 H   0  0  0  0  0  0  0  0  0  0  0  0
    7.4531   -0.9033   -1.1004 H   0  0  0  0  0  0  0  0  0  0  0  0
    7.4890    0.1283    0.3746 H   0  0  0  0  0  0  0  0  0  0  0  0
    5.6048   -1.6658    1.8709 H   0  0  0  0  0  0  0  0  0  0  0  0
    3.1115   -1.6189    2.0077 H   0  0  0  0  0  0  0  0  0  0  0  0
   -0.2601    3.2650   -0.9625 H   0  0  0  0  0  0  0  0  0  0  0  0
   -2.1088    4.8617   -1.3315 H   0  0  0  0  0  0  0  0  0  0  0  0
   -4.4538    4.1531   -1.0343 H   0  0  0  0  0  0  0  0  0  0  0  0
   -4.9990    1.8417   -0.3637 H   0  0  0  0  0  0  0  0  0  0  0  0
  1  2  1  0
  2  3  1  0
  2  4  1  0
  4  5  1  0
  5  6  2  0
  6  7  1  0
  7  8  2  3
  8  9  1  0
  9 10  2  0
 10 11  1  0
 11 12  2  0
 12 13  1  0
 12 14  1  0
 14 15  2  0
  6 16  1  0
 16 17  2  0
 17 18  1  0
 18 19  2  0
 19 20  1  0
 20 21  2  0
 21  4  1  0
 15  9  1  0
 21 16  1  0
  1 22  1  0
  1 23  1  0
  1 24  1  0
  2 25  1  0
  3 26  1  0
  3 27  1  0
  3 28  1  0
  5 29  1  0
  7 30  1  0
  8 31  1  0
 10 32  1  0
 11 33  1  0
 13 34  1  0
 13 35  1  0
 13 36  1  0
 14 37  1  0
 15 38  1  0
 17 39  1  0
 18 40  1  0
 19 41  1  0
 20 42  1  0
M  CHG  1  12   1
M  END
$$$$
