
     RDKit          3D

 55 60  0  0  0  0  0  0  0  0999 V2000
   -3.7846    0.1059    2.4265 O   0  0  0  0  0  0  0  0  0  0  0  0
   -3.7081    0.5697    1.2902 C   0  0  0  0  0  0  0  0  0  0  0  0
   -4.6550    1.5810    0.8463 C   0  0  0  0  0  0  0  0  0  0  0  0
   -5.3342    2.5440    1.6496 C   0  0  0  0  0  0  0  0  0  0  0  0
   -6.1566    3.2524    0.8066 C   0  0  0  0  0  0  0  0  0  0  0  0
   -6.0551    2.7768   -0.4602 O   0  0  0  0  0  0  0  0  0  0  0  0
   -5.1646    1.7527   -0.4259 C   0  0  0  0  0  0  0  0  0  0  0  0
   -2.7330    0.1258    0.3741 N   0  0  0  0  0  0  0  0  0  0  0  0
   -1.9784    1.1124   -0.3969 C   0  0  0  0  0  0  0  0  0  0  0  0
   -1.1976    0.4902   -1.5444 C   0  0  0  0  0  0  0  0  0  0  0  0
   -0.3998   -0.8011   -1.2174 C   0  0  0  0  0  0  0  0  0  0  0  0
   -1.2976   -1.7367   -0.3767 C   0  0  0  0  0  0  0  0  0  0  0  0
   -1.9861   -1.0522    0.7935 C   0  0  0  0  0  0  0  0  0  0  0  0
   -0.2788   -1.4084   -2.5454 O   0  0  0  0  0  0  0  0  0  0  0  0
    0.6440   -2.3910   -2.7321 C   0  0  0  0  0  0  0  0  0  0  0  0
    0.5304   -3.1271   -3.9129 C   0  0  0  0  0  0  0  0  0  0  0  0
    1.4240   -4.1667   -4.1770 C   0  0  0  0  0  0  0  0  0  0  0  0
    2.4272   -4.4600   -3.2589 C   0  0  0  0  0  0  0  0  0  0  0  0
    3.2793   -5.4610   -3.5129 F   0  0  0  0  0  0  0  0  0  0  0  0
    2.5596   -3.7287   -2.0863 C   0  0  0  0  0  0  0  0  0  0  0  0
    1.6660   -2.6838   -1.8379 C   0  0  0  0  0  0  0  0  0  0  0  0
    1.7804   -1.8732   -0.6216 C   0  0  0  0  0  0  0  0  0  0  0  0
    2.4436   -2.2945    0.3230 O   0  0  0  0  0  0  0  0  0  0  0  0
    1.0195   -0.5449   -0.6186 C   0  0  0  0  0  0  0  0  0  0  0  0
    1.1204    0.0992    0.7536 C   0  0  0  0  0  0  0  0  0  0  0  0
    2.3446    0.9237    0.5329 C   0  0  0  0  0  0  0  0  0  0  0  0
    3.0950    1.5398    1.6519 C   0  0  0  0  0  0  0  0  0  0  0  0
    4.2792    2.2333    1.3717 C   0  0  0  0  0  0  0  0  0  0  0  0
    5.0066    2.8302    2.4031 C   0  0  0  0  0  0  0  0  0  0  0  0
    4.5544    2.7387    3.7180 C   0  0  0  0  0  0  0  0  0  0  0  0
    3.3753    2.0515    4.0034 C   0  0  0  0  0  0  0  0  0  0  0  0
    2.6439    1.4526    2.9739 C   0  0  0  0  0  0  0  0  0  0  0  0
    2.6627    1.0873   -0.7119 N   0  0  0  0  0  0  0  0  0  0  0  0
    1.7387    0.3528   -1.4857 O   0  0  0  0  0  0  0  0  0  0  0  0
   -5.2280    2.6919    2.7158 H   0  0  0  0  0  0  0  0  0  0  0  0
   -6.8495    4.0707    0.9460 H   0  0  0  0  0  0  0  0  0  0  0  0
   -5.0055    1.2472   -1.3686 H   0  0  0  0  0  0  0  0  0  0  0  0
   -1.3303    1.6552    0.2951 H   0  0  0  0  0  0  0  0  0  0  0  0
   -2.6419    1.8763   -0.8083 H   0  0  0  0  0  0  0  0  0  0  0  0
   -1.9304    0.2476   -2.3293 H   0  0  0  0  0  0  0  0  0  0  0  0
   -0.5485    1.2458   -2.0026 H   0  0  0  0  0  0  0  0  0  0  0  0
   -2.0739   -2.1576   -1.0320 H   0  0  0  0  0  0  0  0  0  0  0  0
   -0.7353   -2.6034   -0.0109 H   0  0  0  0  0  0  0  0  0  0  0  0
   -2.6794   -1.7661    1.2555 H   0  0  0  0  0  0  0  0  0  0  0  0
   -1.2778   -0.7583    1.5737 H   0  0  0  0  0  0  0  0  0  0  0  0
   -0.2576   -2.8955   -4.6256 H   0  0  0  0  0  0  0  0  0  0  0  0
    1.3438   -4.7488   -5.0901 H   0  0  0  0  0  0  0  0  0  0  0  0
    3.3559   -3.9684   -1.3878 H   0  0  0  0  0  0  0  0  0  0  0  0
    1.2258   -0.6096    1.5778 H   0  0  0  0  0  0  0  0  0  0  0  0
    0.3188    0.7948    0.9837 H   0  0  0  0  0  0  0  0  0  0  0  0
    4.6452    2.3112    0.3498 H   0  0  0  0  0  0  0  0  0  0  0  0
    5.9265    3.3646    2.1785 H   0  0  0  0  0  0  0  0  0  0  0  0
    5.1223    3.2023    4.5210 H   0  0  0  0  0  0  0  0  0  0  0  0
    3.0255    1.9813    5.0307 H   0  0  0  0  0  0  0  0  0  0  0  0
    1.7292    0.9281    3.2318 H   0  0  0  0  0  0  0  0  0  0  0  0
  1  2  2  0
  2  3  1  0
  3  4  1  0
  4  5  2  0
  5  6  1  0
  6  7  1  0
  2  8  1  0
  8  9  1  0
  9 10  1  0
 10 11  1  0
 11 12  1  0
 12 13  1  0
 11 14  1  0
 14 15  1  0
 15 16  2  0
 16 17  1  0
 17 18  2  0
 18 19  1  0
 18 20  1  0
 20 21  2  0
 21 22  1  0
 22 23  2  0
 22 24  1  0
 24 25  1  0
 25 26  1  0
 26 27  1  0
 27 28  2  0
 28 29  1  0
 29 30  2  0
 30 31  1  0
 31 32  2  0
 26 33  2  0
 33 34  1  0
  7  3  2  0
 13  8  1  0
 21 15  1  0
 34 24  1  0
 24 11  1  0
 32 27  1  0
  4 35  1  0
  5 36  1  0
  7 37  1  0
  9 38  1  0
  9 39  1  0
 10 40  1  0
 10 41  1  0
 12 42  1  0
 12 43  1  0
 13 44  1  0
 13 45  1  0
 16 46  1  0
 17 47  1  0
 20 48  1  0
 25 49  1  0
 25 50  1  0
 28 51  1  0
 29 52  1  0
 30 53  1  0
 31 54  1  0
 32 55  1  0
M  END
$$$$
