
     RDKit          3D

 33 35  0  0  0  0  0  0  0  0999 V2000
    0.7062    1.5343    1.3501 O   0  0  0  0  0  0  0  0  0  0  0  0
    0.4905    0.3725    1.0255 C   0  0  0  0  0  0  0  0  0  0  0  0
   -0.8311   -0.0957    0.4981 C   0  0  0  0  0  0  0  0  0  0  0  0
   -1.6061    0.8602   -0.0475 C   0  0  0  0  0  0  0  0  0  0  0  0
   -2.8788    0.6255   -0.6370 C   0  0  0  0  0  0  0  0  0  0  0  0
   -3.8658    1.5597   -0.9380 C   0  0  0  0  0  0  0  0  0  0  0  0
   -4.9476    0.8784   -1.5415 C   0  0  0  0  0  0  0  0  0  0  0  0
   -4.5736   -0.4382   -1.5945 C   0  0  0  0  0  0  0  0  0  0  0  0
   -3.3432   -0.6030   -1.0535 O   0  0  0  0  0  0  0  0  0  0  0  0
   -1.1494   -1.5538    0.6933 C   0  0  0  0  0  0  0  0  0  0  0  0
   -0.5025   -2.0773    1.9757 C   0  0  0  0  0  0  0  0  0  0  0  0
    1.0209   -1.9421    1.9421 C   0  0  0  0  0  0  0  0  0  0  0  0
    1.4994   -0.7076    1.2270 C   0  0  0  0  0  0  0  0  0  0  0  0
    2.7636   -0.6037    0.7796 C   0  0  0  0  0  0  0  0  0  0  0  0
    3.2447    0.4521   -0.0418 C   0  0  0  0  0  0  0  0  0  0  0  0
    4.5339    0.9691   -0.1224 C   0  0  0  0  0  0  0  0  0  0  0  0
    4.5401    1.9755   -1.1169 C   0  0  0  0  0  0  0  0  0  0  0  0
    3.2617    2.0216   -1.6063 C   0  0  0  0  0  0  0  0  0  0  0  0
    2.4809    1.1093   -0.9794 O   0  0  0  0  0  0  0  0  0  0  0  0
   -1.2506    1.8902   -0.0698 H   0  0  0  0  0  0  0  0  0  0  0  0
   -3.8002    2.6203   -0.7380 H   0  0  0  0  0  0  0  0  0  0  0  0
   -5.8770    1.2965   -1.9021 H   0  0  0  0  0  0  0  0  0  0  0  0
   -5.0443   -1.3366   -1.9671 H   0  0  0  0  0  0  0  0  0  0  0  0
   -2.2271   -1.7198    0.7828 H   0  0  0  0  0  0  0  0  0  0  0  0
   -0.7931   -2.1281   -0.1703 H   0  0  0  0  0  0  0  0  0  0  0  0
   -0.8968   -1.5225    2.8378 H   0  0  0  0  0  0  0  0  0  0  0  0
   -0.7748   -3.1280    2.1320 H   0  0  0  0  0  0  0  0  0  0  0  0
    1.4343   -2.8285    1.4423 H   0  0  0  0  0  0  0  0  0  0  0  0
    1.4025   -1.9482    2.9703 H   0  0  0  0  0  0  0  0  0  0  0  0
    3.4709   -1.3965    1.0039 H   0  0  0  0  0  0  0  0  0  0  0  0
    5.3719    0.6587    0.4862 H   0  0  0  0  0  0  0  0  0  0  0  0
    5.3715    2.5894   -1.4345 H   0  0  0  0  0  0  0  0  0  0  0  0
    2.7690    2.6163   -2.3617 H   0  0  0  0  0  0  0  0  0  0  0  0
  1  2  2  0
  2  3  1  0
  3  4  2  3
  4  5  1  0
  5  6  2  0
  6  7  1  0
  7  8  2  0
  8  9  1  0
  3 10  1  0
 10 11  1  0
 11 12  1  0
 12 13  1  0
 13 14  2  3
 14 15  1  0
 15 16  2  0
 16 17  1  0
 17 18  2  0
 18 19  1  0
 13  2  1  0
 19 15  1  0
  9  5  1  0
  4 20  1  0
  6 21  1  0
  7 22  1  0
  8 23  1  0
 10 24  1  0
 10 25  1  0
 11 26  1  0
 11 27  1  0
 12 28  1  0
 12 29  1  0
 14 30  1  0
 16 31  1  0
 17 32  1  0
 18 33  1  0
M  END
$$$$
