
     RDKit          3D

 46 48  0  0  0  0  0  0  0  0999 V2000
   -2.2610    2.5278   -1.7298 C   0  0  0  0  0  0  0  0  0  0  0  0
   -2.3839    1.3430   -2.3458 C   0  0  0  0  0  0  0  0  0  0  0  0
   -2.4390   -0.0291   -1.7275 C   0  0  0  0  0  0  0  0  0  0  0  0
   -2.3147   -0.0734   -0.2810 N   0  0  0  0  0  0  0  0  0  0  0  0
   -1.1528   -0.1395    0.4445 C   0  0  0  0  0  0  0  0  0  0  0  0
    0.4289   -0.0249   -0.2431 S   0  0  0  0  0  0  0  0  0  0  0  0
    1.4442   -0.0647    1.2651 C   0  0  0  0  0  0  0  0  0  0  0  0
    2.9140    0.0430    0.9358 C   0  0  0  0  0  0  0  0  0  0  0  0
    3.5245    1.2990    0.8097 C   0  0  0  0  0  0  0  0  0  0  0  0
    4.8812    1.3991    0.4902 C   0  0  0  0  0  0  0  0  0  0  0  0
    5.6485    0.2450    0.2870 C   0  0  0  0  0  0  0  0  0  0  0  0
    7.0887    0.4093   -0.0513 C   0  0  0  0  0  0  0  0  0  0  0  0
    7.6394    1.4949   -0.1483 O   0  0  0  0  0  0  0  0  0  0  0  0
    7.6810   -0.7982   -0.2310 O   0  0  0  0  0  0  0  0  0  0  0  0
    9.0688   -0.7196   -0.5590 C   0  0  0  0  0  0  0  0  0  0  0  0
    5.0414   -1.0116    0.4051 C   0  0  0  0  0  0  0  0  0  0  0  0
    3.6837   -1.1103    0.7250 C   0  0  0  0  0  0  0  0  0  0  0  0
   -1.4280   -0.3073    1.7154 N   0  0  0  0  0  0  0  0  0  0  0  0
   -2.7928   -0.3604    1.8407 N   0  0  0  0  0  0  0  0  0  0  0  0
   -3.3281   -0.1989    0.6450 C   0  0  0  0  0  0  0  0  0  0  0  0
   -4.7409   -0.2188    0.4168 C   0  0  0  0  0  0  0  0  0  0  0  0
   -5.5581    0.9525   -0.5316 S   0  0  0  0  0  0  0  0  0  0  0  0
   -7.0485    0.1727   -0.2189 C   0  0  0  0  0  0  0  0  0  0  0  0
   -8.2025    0.6269   -0.7368 N   0  0  0  0  0  0  0  0  0  0  0  0
   -6.9828   -0.8713    0.5652 N   0  0  0  0  0  0  0  0  0  0  0  0
   -5.6699   -1.0970    0.9562 C   0  0  0  0  0  0  0  0  0  0  0  0
   -5.3994   -2.2324    1.8795 C   0  0  0  0  0  0  0  0  0  0  0  0
   -2.2317    3.4478   -2.3079 H   0  0  0  0  0  0  0  0  0  0  0  0
   -2.1851    2.6298   -0.6513 H   0  0  0  0  0  0  0  0  0  0  0  0
   -2.4518    1.3477   -3.4335 H   0  0  0  0  0  0  0  0  0  0  0  0
   -1.6430   -0.6515   -2.1511 H   0  0  0  0  0  0  0  0  0  0  0  0
   -3.3765   -0.5219   -2.0056 H   0  0  0  0  0  0  0  0  0  0  0  0
    1.1572    0.7599    1.9282 H   0  0  0  0  0  0  0  0  0  0  0  0
    1.2579   -0.9967    1.8116 H   0  0  0  0  0  0  0  0  0  0  0  0
    2.9458    2.2091    0.9566 H   0  0  0  0  0  0  0  0  0  0  0  0
    5.3364    2.3835    0.3975 H   0  0  0  0  0  0  0  0  0  0  0  0
    9.6296   -0.2590    0.2603 H   0  0  0  0  0  0  0  0  0  0  0  0
    9.2132   -0.1626   -1.4902 H   0  0  0  0  0  0  0  0  0  0  0  0
    9.4407   -1.7378   -0.7047 H   0  0  0  0  0  0  0  0  0  0  0  0
    5.6111   -1.9245    0.2497 H   0  0  0  0  0  0  0  0  0  0  0  0
    3.2289   -2.0958    0.8071 H   0  0  0  0  0  0  0  0  0  0  0  0
   -8.2474    1.6141   -0.9579 H   0  0  0  0  0  0  0  0  0  0  0  0
   -9.0319    0.2861   -0.2618 H   0  0  0  0  0  0  0  0  0  0  0  0
   -6.2908   -2.8560    2.0020 H   0  0  0  0  0  0  0  0  0  0  0  0
   -5.1078   -1.8607    2.8665 H   0  0  0  0  0  0  0  0  0  0  0  0
   -4.5969   -2.8673    1.4908 H   0  0  0  0  0  0  0  0  0  0  0  0
  1  2  2  0
  2  3  1  0
  3  4  1  0
  4  5  1  0
  5  6  1  0
  6  7  1  0
  7  8  1  0
  8  9  2  0
  9 10  1  0
 10 11  2  0
 11 12  1  0
 12 13  2  0
 12 14  1  0
 14 15  1  0
 11 16  1  0
 16 17  2  0
  5 18  2  0
 18 19  1  0
 19 20  2  0
 20 21  1  0
 21 22  1  0
 22 23  1  0
 23 24  1  0
 23 25  2  0
 25 26  1  0
 26 27  1  0
 20  4  1  0
 26 21  2  0
 17  8  1  0
  1 28  1  0
  1 29  1  0
  2 30  1  0
  3 31  1  0
  3 32  1  0
  7 33  1  0
  7 34  1  0
  9 35  1  0
 10 36  1  0
 15 37  1  0
 15 38  1  0
 15 39  1  0
 16 40  1  0
 17 41  1  0
 24 42  1  0
 24 43  1  0
 27 44  1  0
 27 45  1  0
 27 46  1  0
M  END
$$$$
