
     RDKit          3D

 43 45  0  0  0  0  0  0  0  0999 V2000
    6.5805   -1.9139   -0.1129 C   0  0  0  0  0  0  0  0  0  0  0  0
    5.6646   -0.7530    0.1452 C   0  0  0  0  0  0  0  0  0  0  0  0
    6.1923    0.5155    0.4132 C   0  0  0  0  0  0  0  0  0  0  0  0
    5.3464    1.6113    0.6115 C   0  0  0  0  0  0  0  0  0  0  0  0
    5.9105    2.9635    0.9334 C   0  0  0  0  0  0  0  0  0  0  0  0
    3.9587    1.4206    0.5538 C   0  0  0  0  0  0  0  0  0  0  0  0
    3.4121    0.1593    0.2802 C   0  0  0  0  0  0  0  0  0  0  0  0
    2.0048    0.0664    0.2242 N   0  0  0  0  0  0  0  0  0  0  0  0
    1.2447   -1.0786    0.0726 C   0  0  0  0  0  0  0  0  0  0  0  0
    1.6499   -2.2339    0.0370 O   0  0  0  0  0  0  0  0  0  0  0  0
   -0.2268   -0.8496   -0.0031 C   0  0  0  0  0  0  0  0  0  0  0  0
   -1.0824   -1.8102    0.5433 C   0  0  0  0  0  0  0  0  0  0  0  0
   -2.4685   -1.6343    0.4824 C   0  0  0  0  0  0  0  0  0  0  0  0
   -3.0211   -0.5024   -0.1319 C   0  0  0  0  0  0  0  0  0  0  0  0
   -4.4289   -0.4073   -0.1475 N   0  0  0  0  0  0  0  0  0  0  0  0
   -5.2109    0.6090   -0.6842 C   0  0  0  0  0  0  0  0  0  0  0  0
   -4.7552    1.6090   -1.2312 O   0  0  0  0  0  0  0  0  0  0  0  0
   -6.6465    0.3906   -0.5432 C   0  0  0  0  0  0  0  0  0  0  0  0
   -7.4158   -0.5861    0.0720 C   0  0  0  0  0  0  0  0  0  0  0  0
   -8.7744   -0.2433   -0.1446 C   0  0  0  0  0  0  0  0  0  0  0  0
   -8.7616    0.9184   -0.8762 C   0  0  0  0  0  0  0  0  0  0  0  0
   -7.4875    1.3098   -1.1196 O   0  0  0  0  0  0  0  0  0  0  0  0
   -2.1609    0.4453   -0.6921 C   0  0  0  0  0  0  0  0  0  0  0  0
   -0.7711    0.2734   -0.6345 C   0  0  0  0  0  0  0  0  0  0  0  0
    4.2736   -0.9181    0.0663 C   0  0  0  0  0  0  0  0  0  0  0  0
    6.8914   -1.9168   -1.1624 H   0  0  0  0  0  0  0  0  0  0  0  0
    6.0861   -2.8659    0.1104 H   0  0  0  0  0  0  0  0  0  0  0  0
    7.4725   -1.8529    0.5210 H   0  0  0  0  0  0  0  0  0  0  0  0
    7.2710    0.6482    0.4642 H   0  0  0  0  0  0  0  0  0  0  0  0
    6.9428    3.0554    0.5810 H   0  0  0  0  0  0  0  0  0  0  0  0
    5.3285    3.7506    0.4434 H   0  0  0  0  0  0  0  0  0  0  0  0
    5.8946    3.1286    2.0148 H   0  0  0  0  0  0  0  0  0  0  0  0
    3.3062    2.2733    0.7263 H   0  0  0  0  0  0  0  0  0  0  0  0
    1.5062    0.9316    0.3870 H   0  0  0  0  0  0  0  0  0  0  0  0
   -0.6712   -2.7005    1.0149 H   0  0  0  0  0  0  0  0  0  0  0  0
   -3.1031   -2.4016    0.9184 H   0  0  0  0  0  0  0  0  0  0  0  0
   -4.9195   -1.1810    0.2750 H   0  0  0  0  0  0  0  0  0  0  0  0
   -7.0591   -1.4481    0.6170 H   0  0  0  0  0  0  0  0  0  0  0  0
   -9.6536   -0.7756    0.1912 H   0  0  0  0  0  0  0  0  0  0  0  0
   -9.5324    1.5603   -1.2804 H   0  0  0  0  0  0  0  0  0  0  0  0
   -2.5359    1.3284   -1.2016 H   0  0  0  0  0  0  0  0  0  0  0  0
   -0.1368    1.0096   -1.1217 H   0  0  0  0  0  0  0  0  0  0  0  0
    3.8858   -1.9047   -0.1675 H   0  0  0  0  0  0  0  0  0  0  0  0
  1  2  1  0
  2  3  2  0
  3  4  1  0
  4  5  1  0
  4  6  2  0
  6  7  1  0
  7  8  1  0
  8  9  1  0
  9 10  2  0
  9 11  1  0
 11 12  2  0
 12 13  1  0
 13 14  2  0
 14 15  1  0
 15 16  1  0
 16 17  2  0
 16 18  1  0
 18 19  2  0
 19 20  1  0
 20 21  2  0
 21 22  1  0
 14 23  1  0
 23 24  2  0
  7 25  2  0
 25  2  1  0
 24 11  1  0
 22 18  1  0
  1 26  1  0
  1 27  1  0
  1 28  1  0
  3 29  1  0
  5 30  1  0
  5 31  1  0
  5 32  1  0
  6 33  1  0
  8 34  1  0
 12 35  1  0
 13 36  1  0
 15 37  1  0
 19 38  1  0
 20 39  1  0
 21 40  1  0
 23 41  1  0
 24 42  1  0
 25 43  1  0
M  END
$$$$
