
     RDKit          3D

 63 66  0  0  0  0  0  0  0  0999 V2000
    2.0970    4.3309   -1.8312 C   0  0  0  0  0  0  0  0  0  0  0  0
    2.1418    3.3135   -0.7248 C   0  0  0  0  0  0  0  0  0  0  0  0
    1.0705    3.1418   -0.0005 N   0  0  0  0  0  0  0  0  0  0  0  0
    1.0384    2.1895    1.0269 N   0  0  0  0  0  0  0  0  0  0  0  0
   -0.2201    2.0556    1.7561 C   0  0  0  0  0  0  0  0  0  0  0  0
   -1.4751    2.2100    0.9037 C   0  0  0  0  0  0  0  0  0  0  0  0
   -1.6350    1.0853   -0.0981 C   0  0  0  0  0  0  0  0  0  0  0  0
   -0.8276    0.1751   -0.2456 O   0  0  0  0  0  0  0  0  0  0  0  0
   -2.8030    1.1886   -0.8304 N   0  0  0  0  0  0  0  0  0  0  0  0
   -3.2284    0.1261   -1.7135 C   0  0  0  0  0  0  0  0  0  0  0  0
   -4.1358   -0.8372   -0.9921 C   0  0  0  0  0  0  0  0  0  0  0  0
   -5.5273   -0.7075   -1.0607 C   0  0  0  0  0  0  0  0  0  0  0  0
   -6.3523   -1.5936   -0.3613 C   0  0  0  0  0  0  0  0  0  0  0  0
   -5.8071   -2.6107    0.4277 C   0  0  0  0  0  0  0  0  0  0  0  0
   -6.7319   -3.3977    1.0550 O   0  0  0  0  0  0  0  0  0  0  0  0
   -6.2896   -4.3304    2.0475 C   0  0  0  0  0  0  0  0  0  0  0  0
   -5.9716   -5.6698    1.3902 C   0  0  0  0  0  0  0  0  0  0  0  0
   -7.4418   -4.4903    3.0365 C   0  0  0  0  0  0  0  0  0  0  0  0
   -4.4219   -2.7452    0.4971 C   0  0  0  0  0  0  0  0  0  0  0  0
   -3.5932   -1.8625   -0.2046 C   0  0  0  0  0  0  0  0  0  0  0  0
    2.1479    1.4258    1.4567 C   0  0  0  0  0  0  0  0  0  0  0  0
    2.1296    0.6833    2.4376 O   0  0  0  0  0  0  0  0  0  0  0  0
    3.3256    1.6271    0.6219 C   0  0  0  0  0  0  0  0  0  0  0  0
    4.5139    1.0369    0.7721 N   0  0  0  0  0  0  0  0  0  0  0  0
    5.2535    1.4579   -0.2891 N   0  0  0  0  0  0  0  0  0  0  0  0
    6.5056    0.8153   -0.5492 C   0  0  0  0  0  0  0  0  0  0  0  0
    7.1386    0.8836   -1.7962 C   0  0  0  0  0  0  0  0  0  0  0  0
    8.3572    0.2270   -2.0076 C   0  0  0  0  0  0  0  0  0  0  0  0
    8.9479   -0.5110   -0.9835 C   0  0  0  0  0  0  0  0  0  0  0  0
    8.3155   -0.6074    0.2527 C   0  0  0  0  0  0  0  0  0  0  0  0
    7.0980    0.0441    0.4674 C   0  0  0  0  0  0  0  0  0  0  0  0
    4.6075    2.5033   -0.9629 C   0  0  0  0  0  0  0  0  0  0  0  0
    5.2521    3.3869   -1.9690 C   0  0  0  0  0  0  0  0  0  0  0  0
    3.3253    2.5396   -0.4387 C   0  0  0  0  0  0  0  0  0  0  0  0
    1.0649    4.6484   -2.0162 H   0  0  0  0  0  0  0  0  0  0  0  0
    2.4974    3.9063   -2.7549 H   0  0  0  0  0  0  0  0  0  0  0  0
    2.6832    5.2084   -1.5424 H   0  0  0  0  0  0  0  0  0  0  0  0
   -0.2435    1.0873    2.2716 H   0  0  0  0  0  0  0  0  0  0  0  0
   -0.2107    2.8292    2.5334 H   0  0  0  0  0  0  0  0  0  0  0  0
   -1.4782    3.1647    0.3662 H   0  0  0  0  0  0  0  0  0  0  0  0
   -2.3507    2.1948    1.5637 H   0  0  0  0  0  0  0  0  0  0  0  0
   -3.5099    1.8384   -0.5184 H   0  0  0  0  0  0  0  0  0  0  0  0
   -2.3621   -0.4026   -2.1270 H   0  0  0  0  0  0  0  0  0  0  0  0
   -3.7574    0.5910   -2.5522 H   0  0  0  0  0  0  0  0  0  0  0  0
   -5.9821    0.0792   -1.6583 H   0  0  0  0  0  0  0  0  0  0  0  0
   -7.4330   -1.4884   -0.4254 H   0  0  0  0  0  0  0  0  0  0  0  0
   -5.4294   -3.9493    2.6122 H   0  0  0  0  0  0  0  0  0  0  0  0
   -6.8291   -6.0344    0.8153 H   0  0  0  0  0  0  0  0  0  0  0  0
   -5.7024   -6.4218    2.1357 H   0  0  0  0  0  0  0  0  0  0  0  0
   -5.1411   -5.5788    0.6838 H   0  0  0  0  0  0  0  0  0  0  0  0
   -7.7103   -3.5215    3.4730 H   0  0  0  0  0  0  0  0  0  0  0  0
   -8.3415   -4.8638    2.5343 H   0  0  0  0  0  0  0  0  0  0  0  0
   -7.1775   -5.1767    3.8488 H   0  0  0  0  0  0  0  0  0  0  0  0
   -3.9456   -3.5261    1.0804 H   0  0  0  0  0  0  0  0  0  0  0  0
   -2.5117   -1.9767   -0.1299 H   0  0  0  0  0  0  0  0  0  0  0  0
    6.6950    1.3923   -2.6442 H   0  0  0  0  0  0  0  0  0  0  0  0
    8.8392    0.2790   -2.9812 H   0  0  0  0  0  0  0  0  0  0  0  0
    9.8918   -1.0231   -1.1537 H   0  0  0  0  0  0  0  0  0  0  0  0
    8.7624   -1.1925    1.0527 H   0  0  0  0  0  0  0  0  0  0  0  0
    6.6244   -0.0523    1.4437 H   0  0  0  0  0  0  0  0  0  0  0  0
    5.0942    3.0026   -2.9802 H   0  0  0  0  0  0  0  0  0  0  0  0
    6.3242    3.5056   -1.7852 H   0  0  0  0  0  0  0  0  0  0  0  0
    4.8349    4.3971   -1.9247 H   0  0  0  0  0  0  0  0  0  0  0  0
  1  2  1  0
  2  3  2  0
  3  4  1  0
  4  5  1  0
  5  6  1  0
  6  7  1  0
  7  8  2  0
  7  9  1  0
  9 10  1  0
 10 11  1  0
 11 12  2  0
 12 13  1  0
 13 14  2  0
 14 15  1  0
 15 16  1  0
 16 17  1  0
 16 18  1  0
 14 19  1  0
 19 20  2  0
  4 21  1  0
 21 22  2  0
 21 23  1  0
 23 24  2  0
 24 25  1  0
 25 26  1  0
 26 27  2  0
 27 28  1  0
 28 29  2  0
 29 30  1  0
 30 31  2  0
 25 32  1  0
 32 33  1  0
 32 34  2  0
 34  2  1  0
 20 11  1  0
 34 23  1  0
 31 26  1  0
  1 35  1  0
  1 36  1  0
  1 37  1  0
  5 38  1  0
  5 39  1  0
  6 40  1  0
  6 41  1  0
  9 42  1  0
 10 43  1  0
 10 44  1  0
 12 45  1  0
 13 46  1  0
 16 47  1  0
 17 48  1  0
 17 49  1  0
 17 50  1  0
 18 51  1  0
 18 52  1  0
 18 53  1  0
 19 54  1  0
 20 55  1  0
 27 56  1  0
 28 57  1  0
 29 58  1  0
 30 59  1  0
 31 60  1  0
 33 61  1  0
 33 62  1  0
 33 63  1  0
M  END
$$$$
