
     RDKit          3D

 60 63  0  0  0  0  0  0  0  0999 V2000
   -0.8993    3.9701    3.5636 C   0  0  0  0  0  0  0  0  0  0  0  0
   -2.2362    3.9187    3.4748 C   0  0  0  0  0  0  0  0  0  0  0  0
   -3.0183    4.2493    2.2361 C   0  0  0  0  0  0  0  0  0  0  0  0
   -3.6032    3.0287    1.7012 N   0  0  0  0  0  0  0  0  0  0  0  0
   -4.8395    2.6012    2.1683 C   0  0  0  0  0  0  0  0  0  0  0  0
   -5.4932    3.2165    3.0055 O   0  0  0  0  0  0  0  0  0  0  0  0
   -5.3999    1.3375    1.6079 C   0  0  0  0  0  0  0  0  0  0  0  0
   -6.6730    0.9252    2.0307 C   0  0  0  0  0  0  0  0  0  0  0  0
   -7.2447   -0.2339    1.5122 C   0  0  0  0  0  0  0  0  0  0  0  0
   -6.5510   -0.9801    0.5633 C   0  0  0  0  0  0  0  0  0  0  0  0
   -5.2794   -0.5807    0.1371 C   0  0  0  0  0  0  0  0  0  0  0  0
   -4.6902    0.5708    0.6696 C   0  0  0  0  0  0  0  0  0  0  0  0
   -3.4116    1.0448    0.3042 N   0  0  0  0  0  0  0  0  0  0  0  0
   -2.3891    0.5650   -0.4911 C   0  0  0  0  0  0  0  0  0  0  0  0
   -2.2539   -1.0002   -1.2187 S   0  0  0  0  0  0  0  0  0  0  0  0
   -1.6704   -1.9675    0.2044 C   0  0  0  0  0  0  0  0  0  0  0  0
   -0.3465   -1.4554    0.7501 C   0  0  0  0  0  0  0  0  0  0  0  0
   -0.2782   -1.0858    1.9188 O   0  0  0  0  0  0  0  0  0  0  0  0
    0.6774   -1.5408   -0.1730 N   0  0  0  0  0  0  0  0  0  0  0  0
    2.0080   -1.1810   -0.0084 C   0  0  0  0  0  0  0  0  0  0  0  0
    2.5469   -0.4651    1.4219 S   0  0  0  0  0  0  0  0  0  0  0  0
    4.1440   -0.3189    0.8483 C   0  0  0  0  0  0  0  0  0  0  0  0
    5.1736    0.3121    1.7330 C   0  0  0  0  0  0  0  0  0  0  0  0
    4.2966   -0.8465   -0.4283 C   0  0  0  0  0  0  0  0  0  0  0  0
    5.6235   -0.8763   -1.1502 C   0  0  0  0  0  0  0  0  0  0  0  0
    5.7973    0.2968   -2.1029 C   0  0  0  0  0  0  0  0  0  0  0  0
    3.0221   -1.3423   -0.9486 C   0  0  0  0  0  0  0  0  0  0  0  0
    2.7392   -1.9488   -2.2591 C   0  0  0  0  0  0  0  0  0  0  0  0
    1.6141   -2.3205   -2.5854 O   0  0  0  0  0  0  0  0  0  0  0  0
    3.8323   -2.0648   -3.0631 O   0  0  0  0  0  0  0  0  0  0  0  0
    3.6137   -2.6317   -4.3633 C   0  0  0  0  0  0  0  0  0  0  0  0
    3.6500   -4.1480   -4.2930 C   0  0  0  0  0  0  0  0  0  0  0  0
   -1.4293    1.4582   -0.5816 N   0  0  0  0  0  0  0  0  0  0  0  0
   -1.7620    2.5146    0.2222 N   0  0  0  0  0  0  0  0  0  0  0  0
   -2.9234    2.2490    0.7798 C   0  0  0  0  0  0  0  0  0  0  0  0
   -0.2823    4.2354    2.7106 H   0  0  0  0  0  0  0  0  0  0  0  0
   -0.3933    3.7211    4.4896 H   0  0  0  0  0  0  0  0  0  0  0  0
   -2.8152    3.6356    4.3508 H   0  0  0  0  0  0  0  0  0  0  0  0
   -2.3924    4.7241    1.4697 H   0  0  0  0  0  0  0  0  0  0  0  0
   -3.8114    4.9634    2.4902 H   0  0  0  0  0  0  0  0  0  0  0  0
   -7.2268    1.5111    2.7645 H   0  0  0  0  0  0  0  0  0  0  0  0
   -8.2340   -0.5470    1.8406 H   0  0  0  0  0  0  0  0  0  0  0  0
   -7.0062   -1.8760    0.1453 H   0  0  0  0  0  0  0  0  0  0  0  0
   -4.8124   -1.1904   -0.6263 H   0  0  0  0  0  0  0  0  0  0  0  0
   -1.5484   -3.0132   -0.0944 H   0  0  0  0  0  0  0  0  0  0  0  0
   -2.4227   -1.9366    0.9997 H   0  0  0  0  0  0  0  0  0  0  0  0
    0.4457   -1.8932   -1.1030 H   0  0  0  0  0  0  0  0  0  0  0  0
    5.7307   -0.4618    2.2704 H   0  0  0  0  0  0  0  0  0  0  0  0
    5.8828    0.9032    1.1442 H   0  0  0  0  0  0  0  0  0  0  0  0
    4.7273    0.9877    2.4715 H   0  0  0  0  0  0  0  0  0  0  0  0
    6.4429   -0.8594   -0.4226 H   0  0  0  0  0  0  0  0  0  0  0  0
    5.7467   -1.8250   -1.6821 H   0  0  0  0  0  0  0  0  0  0  0  0
    5.7947    1.2493   -1.5596 H   0  0  0  0  0  0  0  0  0  0  0  0
    6.7505    0.2144   -2.6356 H   0  0  0  0  0  0  0  0  0  0  0  0
    4.9942    0.3405   -2.8452 H   0  0  0  0  0  0  0  0  0  0  0  0
    2.6768   -2.2696   -4.8013 H   0  0  0  0  0  0  0  0  0  0  0  0
    4.4281   -2.2763   -5.0043 H   0  0  0  0  0  0  0  0  0  0  0  0
    2.8188   -4.5332   -3.6922 H   0  0  0  0  0  0  0  0  0  0  0  0
    4.5744   -4.4910   -3.8168 H   0  0  0  0  0  0  0  0  0  0  0  0
    3.5851   -4.5830   -5.2957 H   0  0  0  0  0  0  0  0  0  0  0  0
  1  2  2  0
  2  3  1  0
  3  4  1  0
  4  5  1  0
  5  6  2  0
  5  7  1  0
  7  8  2  0
  8  9  1  0
  9 10  2  0
 10 11  1  0
 11 12  2  0
 12 13  1  0
 13 14  1  0
 14 15  1  0
 15 16  1  0
 16 17  1  0
 17 18  2  0
 17 19  1  0
 19 20  1  0
 20 21  1  0
 21 22  1  0
 22 23  1  0
 22 24  2  0
 24 25  1  0
 25 26  1  0
 24 27  1  0
 27 28  1  0
 28 29  2  0
 28 30  1  0
 30 31  1  0
 31 32  1  0
 14 33  2  0
 33 34  1  0
 34 35  2  0
 35  4  1  0
 12  7  1  0
 35 13  1  0
 27 20  2  0
  1 36  1  0
  1 37  1  0
  2 38  1  0
  3 39  1  0
  3 40  1  0
  8 41  1  0
  9 42  1  0
 10 43  1  0
 11 44  1  0
 16 45  1  0
 16 46  1  0
 19 47  1  0
 23 48  1  0
 23 49  1  0
 23 50  1  0
 25 51  1  0
 25 52  1  0
 26 53  1  0
 26 54  1  0
 26 55  1  0
 31 56  1  0
 31 57  1  0
 32 58  1  0
 32 59  1  0
 32 60  1  0
M  END
$$$$
