
     RDKit          3D

 61 67  0  0  0  0  0  0  0  0999 V2000
    3.8525   -2.0498    2.1722 O   0  0  0  0  0  0  0  0  0  0  0  0
    3.4488   -1.2574    1.3250 C   0  0  0  0  0  0  0  0  0  0  0  0
    4.4619   -0.4994    0.5706 C   0  0  0  0  0  0  0  0  0  0  0  0
    5.1914    0.5089    1.2326 C   0  0  0  0  0  0  0  0  0  0  0  0
    6.1766    1.2235    0.5452 C   0  0  0  0  0  0  0  0  0  0  0  0
    6.4056    0.8898   -0.7747 C   0  0  0  0  0  0  0  0  0  0  0  0
    5.7001   -0.1094   -1.4093 C   0  0  0  0  0  0  0  0  0  0  0  0
    4.7197   -0.8312   -0.7647 C   0  0  0  0  0  0  0  0  0  0  0  0
    6.0934   -0.2815   -2.7003 O   0  0  0  0  0  0  0  0  0  0  0  0
    7.1406    0.7073   -2.8012 C   0  0  0  0  0  0  0  0  0  0  0  0
    7.3283    1.4692   -1.5901 O   0  0  0  0  0  0  0  0  0  0  0  0
    2.0993   -1.0388    1.0484 N   0  0  0  0  0  0  0  0  0  0  0  0
    1.5742    0.0167    0.1880 C   0  0  0  0  0  0  0  0  0  0  0  0
    0.3859   -0.4712   -0.6339 C   0  0  0  0  0  0  0  0  0  0  0  0
   -0.7407   -1.1333    0.2215 C   0  0  0  0  0  0  0  0  0  0  0  0
   -0.2855   -1.2959    1.6941 C   0  0  0  0  0  0  0  0  0  0  0  0
    1.1341   -1.8450    1.7845 C   0  0  0  0  0  0  0  0  0  0  0  0
   -0.8657   -2.4634   -0.3583 O   0  0  0  0  0  0  0  0  0  0  0  0
   -2.0165   -3.1581   -0.1317 C   0  0  0  0  0  0  0  0  0  0  0  0
   -1.9932   -4.5104   -0.4777 C   0  0  0  0  0  0  0  0  0  0  0  0
   -3.1180   -5.3073   -0.2568 C   0  0  0  0  0  0  0  0  0  0  0  0
   -4.2594   -4.7459    0.3074 C   0  0  0  0  0  0  0  0  0  0  0  0
   -5.3341   -5.5154    0.5208 F   0  0  0  0  0  0  0  0  0  0  0  0
   -4.3019   -3.4002    0.6475 C   0  0  0  0  0  0  0  0  0  0  0  0
   -3.1748   -2.6088    0.4119 C   0  0  0  0  0  0  0  0  0  0  0  0
   -3.1849   -1.1773    0.7403 C   0  0  0  0  0  0  0  0  0  0  0  0
   -4.0450   -0.7271    1.4930 O   0  0  0  0  0  0  0  0  0  0  0  0
   -2.0771   -0.3447    0.1074 C   0  0  0  0  0  0  0  0  0  0  0  0
   -2.0390    1.0627    0.6852 C   0  0  0  0  0  0  0  0  0  0  0  0
   -2.8602    1.7592   -0.3458 C   0  0  0  0  0  0  0  0  0  0  0  0
   -3.3771    3.1342   -0.1460 C   0  0  0  0  0  0  0  0  0  0  0  0
   -4.1180    3.7349   -1.1738 C   0  0  0  0  0  0  0  0  0  0  0  0
   -4.6083    5.0355   -1.0241 C   0  0  0  0  0  0  0  0  0  0  0  0
   -4.3593    5.7373    0.1536 C   0  0  0  0  0  0  0  0  0  0  0  0
   -4.9545    7.3403    0.3385 Cl  0  0  0  0  0  0  0  0  0  0  0  0
   -3.6268    5.1486    1.1832 C   0  0  0  0  0  0  0  0  0  0  0  0
   -3.1334    3.8474    1.0351 C   0  0  0  0  0  0  0  0  0  0  0  0
   -3.0425    1.0874   -1.4382 N   0  0  0  0  0  0  0  0  0  0  0  0
   -2.4241   -0.1707   -1.2774 O   0  0  0  0  0  0  0  0  0  0  0  0
    4.9954    0.7229    2.2813 H   0  0  0  0  0  0  0  0  0  0  0  0
    6.7517    2.0028    1.0335 H   0  0  0  0  0  0  0  0  0  0  0  0
    4.1821   -1.6266   -1.2679 H   0  0  0  0  0  0  0  0  0  0  0  0
    8.0808    0.1992   -3.0451 H   0  0  0  0  0  0  0  0  0  0  0  0
    6.8927    1.3987   -3.6149 H   0  0  0  0  0  0  0  0  0  0  0  0
    1.2795    0.8462    0.8406 H   0  0  0  0  0  0  0  0  0  0  0  0
    2.3403    0.4108   -0.4825 H   0  0  0  0  0  0  0  0  0  0  0  0
    0.7582   -1.1876   -1.3791 H   0  0  0  0  0  0  0  0  0  0  0  0
    0.0071    0.3798   -1.2112 H   0  0  0  0  0  0  0  0  0  0  0  0
   -0.9464   -1.9779    2.2408 H   0  0  0  0  0  0  0  0  0  0  0  0
   -0.3235   -0.3327    2.2171 H   0  0  0  0  0  0  0  0  0  0  0  0
    1.1853   -2.8643    1.3836 H   0  0  0  0  0  0  0  0  0  0  0  0
    1.4392   -1.8968    2.8367 H   0  0  0  0  0  0  0  0  0  0  0  0
   -1.0971   -4.9467   -0.9138 H   0  0  0  0  0  0  0  0  0  0  0  0
   -3.1105   -6.3610   -0.5195 H   0  0  0  0  0  0  0  0  0  0  0  0
   -5.2064   -2.9803    1.0785 H   0  0  0  0  0  0  0  0  0  0  0  0
   -1.0405    1.5092    0.6720 H   0  0  0  0  0  0  0  0  0  0  0  0
   -2.4567    1.1425    1.6915 H   0  0  0  0  0  0  0  0  0  0  0  0
   -4.3193    3.1961   -2.0990 H   0  0  0  0  0  0  0  0  0  0  0  0
   -5.1799    5.4909   -1.8288 H   0  0  0  0  0  0  0  0  0  0  0  0
   -3.4366    5.6966    2.1038 H   0  0  0  0  0  0  0  0  0  0  0  0
   -2.5679    3.4177    1.8564 H   0  0  0  0  0  0  0  0  0  0  0  0
  1  2  2  0
  2  3  1  0
  3  4  2  0
  4  5  1  0
  5  6  2  0
  6  7  1  0
  7  8  2  0
  7  9  1  0
  9 10  1  0
 10 11  1  0
  2 12  1  0
 12 13  1  0
 13 14  1  0
 14 15  1  0
 15 16  1  0
 16 17  1  0
 15 18  1  0
 18 19  1  0
 19 20  2  0
 20 21  1  0
 21 22  2  0
 22 23  1  0
 22 24  1  0
 24 25  2  0
 25 26  1  0
 26 27  2  0
 26 28  1  0
 28 29  1  0
 29 30  1  0
 30 31  1  0
 31 32  2  0
 32 33  1  0
 33 34  2  0
 34 35  1  0
 34 36  1  0
 36 37  2  0
 30 38  2  0
 38 39  1  0
  8  3  1  0
 17 12  1  0
 25 19  1  0
 39 28  1  0
 11  6  1  0
 28 15  1  0
 37 31  1  0
  4 40  1  0
  5 41  1  0
  8 42  1  0
 10 43  1  0
 10 44  1  0
 13 45  1  0
 13 46  1  0
 14 47  1  0
 14 48  1  0
 16 49  1  0
 16 50  1  0
 17 51  1  0
 17 52  1  0
 20 53  1  0
 21 54  1  0
 24 55  1  0
 29 56  1  0
 29 57  1  0
 32 58  1  0
 33 59  1  0
 36 60  1  0
 37 61  1  0
M  END
$$$$
