
     RDKit          3D

 50 53  0  0  0  0  0  0  0  0999 V2000
   -3.0788    3.3375    2.7139 C   0  0  0  0  0  0  0  0  0  0  0  0
   -3.2023    1.8793    3.1175 C   0  0  0  0  0  0  0  0  0  0  0  0
   -1.8449    1.2072    3.2145 C   0  0  0  0  0  0  0  0  0  0  0  0
   -1.3999    0.9173    4.3284 O   0  0  0  0  0  0  0  0  0  0  0  0
   -1.1328    0.9556    2.0450 N   0  0  0  0  0  0  0  0  0  0  0  0
   -1.7656    0.8640    0.7221 C   0  0  0  0  0  0  0  0  0  0  0  0
   -1.9813   -0.5535    0.2375 C   0  0  0  0  0  0  0  0  0  0  0  0
   -2.5571   -1.5313    1.0600 C   0  0  0  0  0  0  0  0  0  0  0  0
   -2.7645   -2.8295    0.5865 C   0  0  0  0  0  0  0  0  0  0  0  0
   -2.4072   -3.1746   -0.7204 C   0  0  0  0  0  0  0  0  0  0  0  0
   -2.6462   -4.5601   -1.2433 C   0  0  0  0  0  0  0  0  0  0  0  0
   -1.8548   -2.1963   -1.5532 C   0  0  0  0  0  0  0  0  0  0  0  0
   -1.6481   -0.8982   -1.0806 C   0  0  0  0  0  0  0  0  0  0  0  0
    0.2194    0.4092    2.2286 C   0  0  0  0  0  0  0  0  0  0  0  0
    1.1527    0.6959    1.0891 C   0  0  0  0  0  0  0  0  0  0  0  0
    1.5832   -0.2559    0.2407 C   0  0  0  0  0  0  0  0  0  0  0  0
    2.5014    0.0615   -0.8512 C   0  0  0  0  0  0  0  0  0  0  0  0
    2.9232   -0.9216   -1.7529 C   0  0  0  0  0  0  0  0  0  0  0  0
    3.7920   -0.5381   -2.7535 C   0  0  0  0  0  0  0  0  0  0  0  0
    4.2378    0.7586   -2.8758 C   0  0  0  0  0  0  0  0  0  0  0  0
    3.8417    1.7523   -2.0064 C   0  0  0  0  0  0  0  0  0  0  0  0
    2.9614    1.3894   -0.9856 C   0  0  0  0  0  0  0  0  0  0  0  0
    2.5204    2.3542   -0.0738 N   0  0  0  0  0  0  0  0  0  0  0  0
    1.6530    2.0972    0.9554 C   0  0  0  0  0  0  0  0  0  0  0  0
    1.3056    2.9923    1.7186 O   0  0  0  0  0  0  0  0  0  0  0  0
    5.0852    0.9176   -3.9277 O   0  0  0  0  0  0  0  0  0  0  0  0
    5.1284   -0.4269   -4.4503 C   0  0  0  0  0  0  0  0  0  0  0  0
    4.3036   -1.3541   -3.7137 O   0  0  0  0  0  0  0  0  0  0  0  0
   -2.4478    3.8830    3.4237 H   0  0  0  0  0  0  0  0  0  0  0  0
   -4.0647    3.8122    2.6993 H   0  0  0  0  0  0  0  0  0  0  0  0
   -2.6310    3.4534    1.7228 H   0  0  0  0  0  0  0  0  0  0  0  0
   -3.6713    1.8243    4.1078 H   0  0  0  0  0  0  0  0  0  0  0  0
   -3.8629    1.3228    2.4474 H   0  0  0  0  0  0  0  0  0  0  0  0
   -2.7364    1.3628    0.7039 H   0  0  0  0  0  0  0  0  0  0  0  0
   -1.1390    1.4230    0.0180 H   0  0  0  0  0  0  0  0  0  0  0  0
   -2.8460   -1.2950    2.0818 H   0  0  0  0  0  0  0  0  0  0  0  0
   -3.2103   -3.5685    1.2490 H   0  0  0  0  0  0  0  0  0  0  0  0
   -2.9088   -5.2523   -0.4361 H   0  0  0  0  0  0  0  0  0  0  0  0
   -1.7426   -4.9459   -1.7270 H   0  0  0  0  0  0  0  0  0  0  0  0
   -3.4667   -4.5511   -1.9676 H   0  0  0  0  0  0  0  0  0  0  0  0
   -1.5859   -2.4391   -2.5790 H   0  0  0  0  0  0  0  0  0  0  0  0
   -1.2189   -0.1571   -1.7521 H   0  0  0  0  0  0  0  0  0  0  0  0
    0.1085   -0.6719    2.3822 H   0  0  0  0  0  0  0  0  0  0  0  0
    0.6588    0.7996    3.1550 H   0  0  0  0  0  0  0  0  0  0  0  0
    1.2451   -1.2837    0.3374 H   0  0  0  0  0  0  0  0  0  0  0  0
    2.5888   -1.9505   -1.6799 H   0  0  0  0  0  0  0  0  0  0  0  0
    4.2063    2.7655   -2.1235 H   0  0  0  0  0  0  0  0  0  0  0  0
    2.8439    3.3101   -0.1422 H   0  0  0  0  0  0  0  0  0  0  0  0
    6.1652   -0.7812   -4.4224 H   0  0  0  0  0  0  0  0  0  0  0  0
    4.7903   -0.4089   -5.4927 H   0  0  0  0  0  0  0  0  0  0  0  0
  1  2  1  0
  2  3  1  0
  3  4  2  0
  3  5  1  0
  5  6  1  0
  6  7  1  0
  7  8  2  0
  8  9  1  0
  9 10  2  0
 10 11  1  0
 10 12  1  0
 12 13  2  0
  5 14  1  0
 14 15  1  0
 15 16  2  0
 16 17  1  0
 17 18  2  0
 18 19  1  0
 19 20  2  0
 20 21  1  0
 21 22  2  0
 22 23  1  0
 23 24  1  0
 24 25  2  0
 20 26  1  0
 26 27  1  0
 27 28  1  0
 13  7  1  0
 24 15  1  0
 22 17  1  0
 28 19  1  0
  1 29  1  0
  1 30  1  0
  1 31  1  0
  2 32  1  0
  2 33  1  0
  6 34  1  0
  6 35  1  0
  8 36  1  0
  9 37  1  0
 11 38  1  0
 11 39  1  0
 11 40  1  0
 12 41  1  0
 13 42  1  0
 14 43  1  0
 14 44  1  0
 16 45  1  0
 18 46  1  0
 21 47  1  0
 23 48  1  0
 27 49  1  0
 27 50  1  0
M  END
$$$$
