
     RDKit          3D

 43 43  0  0  0  0  0  0  0  0999 V2000
   -4.5089    2.9296    2.8439 C   0  0  0  0  0  0  0  0  0  0  0  0
   -3.4495    2.1620    2.1115 C   0  0  0  0  0  0  0  0  0  0  0  0
   -2.1891    3.1487    1.4534 Cl  0  0  0  0  0  0  0  0  0  0  0  0
   -3.4623    0.8268    1.9590 C   0  0  0  0  0  0  0  0  0  0  0  0
   -2.4259   -0.0185    1.2831 C   0  0  0  0  0  0  0  0  0  0  0  0
   -2.8247   -0.5734   -0.0940 N   0  0  0  0  0  4  0  0  0  0  0  0
   -3.0420    0.5685   -1.0886 C   0  0  0  0  0  0  0  0  0  0  0  0
   -4.0890   -1.4140   -0.0102 C   0  0  0  0  0  0  0  0  0  0  0  0
   -1.6696   -1.5007   -0.6121 C   0  0  0  0  0  0  0  0  0  0  0  0
   -0.3230   -0.8206   -0.8328 C   0  0  0  0  0  0  0  0  0  0  0  0
   -0.1194    0.0017   -1.7143 O   0  0  0  0  0  0  0  0  0  0  0  0
    0.5662   -1.2046    0.1213 O   0  0  0  0  0  0  0  0  0  0  0  0
    1.8689   -0.5881    0.0492 C   0  0  0  0  0  0  0  0  0  0  0  0
    2.7676   -1.3519   -0.9223 C   0  0  0  0  0  0  0  0  0  0  0  0
    4.1462   -0.7546   -0.9999 C   0  0  0  0  0  0  0  0  0  0  0  0
    4.4778    0.1331   -2.0326 C   0  0  0  0  0  0  0  0  0  0  0  0
    5.7516    0.7005   -2.0941 C   0  0  0  0  0  0  0  0  0  0  0  0
    6.7022    0.3911   -1.1233 C   0  0  0  0  0  0  0  0  0  0  0  0
    6.3810   -0.4868   -0.0899 C   0  0  0  0  0  0  0  0  0  0  0  0
    5.1095   -1.0589   -0.0267 C   0  0  0  0  0  0  0  0  0  0  0  0
   -5.2934    2.2713    3.2311 H   0  0  0  0  0  0  0  0  0  0  0  0
   -4.0762    3.4657    3.6952 H   0  0  0  0  0  0  0  0  0  0  0  0
   -4.9868    3.6563    2.1784 H   0  0  0  0  0  0  0  0  0  0  0  0
   -4.2804    0.2773    2.4222 H   0  0  0  0  0  0  0  0  0  0  0  0
   -1.4822    0.5185    1.1494 H   0  0  0  0  0  0  0  0  0  0  0  0
   -2.2109   -0.8860    1.9194 H   0  0  0  0  0  0  0  0  0  0  0  0
   -3.1548    0.1360   -2.0873 H   0  0  0  0  0  0  0  0  0  0  0  0
   -2.1856    1.2449   -1.0508 H   0  0  0  0  0  0  0  0  0  0  0  0
   -3.9546    1.1039   -0.8107 H   0  0  0  0  0  0  0  0  0  0  0  0
   -4.9247   -0.7764    0.2911 H   0  0  0  0  0  0  0  0  0  0  0  0
   -3.9284   -2.2098    0.7231 H   0  0  0  0  0  0  0  0  0  0  0  0
   -4.2875   -1.8405   -0.9986 H   0  0  0  0  0  0  0  0  0  0  0  0
   -1.9983   -1.9325   -1.5649 H   0  0  0  0  0  0  0  0  0  0  0  0
   -1.5704   -2.3181    0.1121 H   0  0  0  0  0  0  0  0  0  0  0  0
    2.2851   -0.6214    1.0624 H   0  0  0  0  0  0  0  0  0  0  0  0
    1.7811    0.4726   -0.2185 H   0  0  0  0  0  0  0  0  0  0  0  0
    2.8338   -2.4046   -0.6197 H   0  0  0  0  0  0  0  0  0  0  0  0
    2.3114   -1.3770   -1.9200 H   0  0  0  0  0  0  0  0  0  0  0  0
    3.7504    0.3870   -2.8002 H   0  0  0  0  0  0  0  0  0  0  0  0
    6.0048    1.3834   -2.9013 H   0  0  0  0  0  0  0  0  0  0  0  0
    7.6945    0.8325   -1.1735 H   0  0  0  0  0  0  0  0  0  0  0  0
    7.1253   -0.7287    0.6656 H   0  0  0  0  0  0  0  0  0  0  0  0
    4.8801   -1.7443    0.7867 H   0  0  0  0  0  0  0  0  0  0  0  0
  1  2  1  0
  2  3  1  0
  2  4  2  3
  4  5  1  0
  5  6  1  0
  6  7  1  0
  6  8  1  0
  6  9  1  0
  9 10  1  0
 10 11  2  0
 10 12  1  0
 12 13  1  0
 13 14  1  0
 14 15  1  0
 15 16  2  0
 16 17  1  0
 17 18  2  0
 18 19  1  0
 19 20  2  0
 20 15  1  0
  1 21  1  0
  1 22  1  0
  1 23  1  0
  4 24  1  0
  5 25  1  0
  5 26  1  0
  7 27  1  0
  7 28  1  0
  7 29  1  0
  8 30  1  0
  8 31  1  0
  8 32  1  0
  9 33  1  0
  9 34  1  0
 13 35  1  0
 13 36  1  0
 14 37  1  0
 14 38  1  0
 16 39  1  0
 17 40  1  0
 18 41  1  0
 19 42  1  0
 20 43  1  0
M  CHG  1   6   1
M  END
$$$$
