
     RDKit          3D

 57 59  0  0  0  0  0  0  0  0999 V2000
   -8.9105   -1.9392    0.1192 C   0  0  0  0  0  0  0  0  0  0  0  0
   -7.6803   -2.2812   -0.5010 O   0  0  0  0  0  0  0  0  0  0  0  0
   -6.6717   -1.3513   -0.4730 C   0  0  0  0  0  0  0  0  0  0  0  0
   -6.7277   -0.1454    0.2364 C   0  0  0  0  0  0  0  0  0  0  0  0
   -5.6472    0.7385    0.2126 C   0  0  0  0  0  0  0  0  0  0  0  0
   -4.5040    0.4043   -0.5128 C   0  0  0  0  0  0  0  0  0  0  0  0
   -3.1097    1.4978   -0.5332 S   0  0  0  0  0  6  0  0  0  0  0  0
   -3.3919    2.6281    0.3257 O   0  0  0  0  0  0  0  0  0  0  0  0
   -2.7189    1.6796   -1.9139 O   0  0  0  0  0  0  0  0  0  0  0  0
   -1.9142    0.5813    0.2250 N   0  0  0  0  0  0  0  0  0  0  0  0
   -2.1068    0.2520    1.6527 C   0  0  0  0  0  0  0  0  0  0  0  0
   -1.0049    1.0182    2.3468 C   0  0  0  0  0  0  0  0  0  0  0  0
    0.0629    0.9941    1.4004 O   0  0  0  0  0  0  0  0  0  0  0  0
   -0.5603    1.1772    0.1170 C   0  0  0  0  0  0  0  0  0  0  0  0
    0.2557    0.4692   -0.9843 C   0  0  0  0  0  0  0  0  0  0  0  0
    1.5846    1.0285   -1.1630 N   0  0  0  0  0  0  0  0  0  0  0  0
    2.6726    0.5604   -0.4603 C   0  0  0  0  0  0  0  0  0  0  0  0
    2.7177   -0.4485    0.2300 O   0  0  0  0  0  0  0  0  0  0  0  0
    3.9269    1.4508   -0.6058 C   0  0  0  0  0  0  0  0  0  0  0  0
    3.8519    2.5281   -1.1804 O   0  0  0  0  0  0  0  0  0  0  0  0
    5.0526    0.9153   -0.0274 N   0  0  0  0  0  0  0  0  0  0  0  0
    6.2733    1.6673    0.0785 C   0  0  0  0  0  0  0  0  0  0  0  0
    7.4161    0.7806    0.4961 C   0  0  0  0  0  0  0  0  0  0  0  0
    7.7859    0.6781    1.8470 C   0  0  0  0  0  0  0  0  0  0  0  0
    8.8326   -0.1629    2.2292 C   0  0  0  0  0  0  0  0  0  0  0  0
    9.5035   -0.9058    1.2649 C   0  0  0  0  0  0  0  0  0  0  0  0
   10.5080   -1.7121    1.6341 F   0  0  0  0  0  0  0  0  0  0  0  0
    9.1453   -0.8284   -0.0757 C   0  0  0  0  0  0  0  0  0  0  0  0
    8.0992    0.0114   -0.4606 C   0  0  0  0  0  0  0  0  0  0  0  0
   -4.4325   -0.7896   -1.2352 C   0  0  0  0  0  0  0  0  0  0  0  0
   -5.5205   -1.6653   -1.2260 C   0  0  0  0  0  0  0  0  0  0  0  0
   -5.5317   -2.8633   -1.8976 O   0  0  0  0  0  0  0  0  0  0  0  0
   -4.7194   -2.9397   -3.0632 C   0  0  0  0  0  0  0  0  0  0  0  0
   -9.3404   -1.0348   -0.3249 H   0  0  0  0  0  0  0  0  0  0  0  0
   -9.6128   -2.7605   -0.0544 H   0  0  0  0  0  0  0  0  0  0  0  0
   -8.7879   -1.8297    1.2020 H   0  0  0  0  0  0  0  0  0  0  0  0
   -7.5988    0.1333    0.8203 H   0  0  0  0  0  0  0  0  0  0  0  0
   -5.7075    1.6743    0.7633 H   0  0  0  0  0  0  0  0  0  0  0  0
   -3.0937    0.5007    2.0505 H   0  0  0  0  0  0  0  0  0  0  0  0
   -1.9581   -0.8287    1.7629 H   0  0  0  0  0  0  0  0  0  0  0  0
   -1.2873    2.0601    2.5355 H   0  0  0  0  0  0  0  0  0  0  0  0
   -0.6907    0.5547    3.2858 H   0  0  0  0  0  0  0  0  0  0  0  0
   -0.5979    2.2576   -0.0682 H   0  0  0  0  0  0  0  0  0  0  0  0
   -0.2517    0.5477   -1.9507 H   0  0  0  0  0  0  0  0  0  0  0  0
    0.3585   -0.5950   -0.7416 H   0  0  0  0  0  0  0  0  0  0  0  0
    1.7013    1.9289   -1.6226 H   0  0  0  0  0  0  0  0  0  0  0  0
    4.9186    0.0744    0.5294 H   0  0  0  0  0  0  0  0  0  0  0  0
    6.1161    2.4716    0.8073 H   0  0  0  0  0  0  0  0  0  0  0  0
    6.4894    2.1495   -0.8826 H   0  0  0  0  0  0  0  0  0  0  0  0
    7.2606    1.2520    2.6081 H   0  0  0  0  0  0  0  0  0  0  0  0
    9.1270   -0.2451    3.2706 H   0  0  0  0  0  0  0  0  0  0  0  0
    9.6793   -1.4232   -0.8108 H   0  0  0  0  0  0  0  0  0  0  0  0
    7.8149    0.0635   -1.5098 H   0  0  0  0  0  0  0  0  0  0  0  0
   -3.5242   -1.0210   -1.7844 H   0  0  0  0  0  0  0  0  0  0  0  0
   -3.6652   -3.0679   -2.7943 H   0  0  0  0  0  0  0  0  0  0  0  0
   -5.0289   -3.8243   -3.6285 H   0  0  0  0  0  0  0  0  0  0  0  0
   -4.8573   -2.0658   -3.7106 H   0  0  0  0  0  0  0  0  0  0  0  0
  1  2  1  0
  2  3  1  0
  3  4  2  0
  4  5  1  0
  5  6  2  0
  6  7  1  0
  7  8  2  0
  7  9  2  0
  7 10  1  0
 10 11  1  0
 11 12  1  0
 12 13  1  0
 13 14  1  0
 14 15  1  0
 15 16  1  0
 16 17  1  0
 17 18  2  0
 17 19  1  0
 19 20  2  0
 19 21  1  0
 21 22  1  0
 22 23  1  0
 23 24  2  0
 24 25  1  0
 25 26  2  0
 26 27  1  0
 26 28  1  0
 28 29  2  0
  6 30  1  0
 30 31  2  0
 31 32  1  0
 32 33  1  0
 31  3  1  0
 14 10  1  0
 29 23  1  0
  1 34  1  0
  1 35  1  0
  1 36  1  0
  4 37  1  0
  5 38  1  0
 11 39  1  0
 11 40  1  0
 12 41  1  0
 12 42  1  0
 14 43  1  0
 15 44  1  0
 15 45  1  0
 16 46  1  0
 21 47  1  0
 22 48  1  0
 22 49  1  0
 24 50  1  0
 25 51  1  0
 28 52  1  0
 29 53  1  0
 30 54  1  0
 33 55  1  0
 33 56  1  0
 33 57  1  0
M  END
$$$$
