
     RDKit          3D

 61 67  0  0  0  0  0  0  0  0999 V2000
    3.1801   -2.7679   -2.3277 O   0  0  0  0  0  0  0  0  0  0  0  0
    3.0461   -1.7516   -1.6501 C   0  0  0  0  0  0  0  0  0  0  0  0
    4.2626   -1.1552   -1.0598 C   0  0  0  0  0  0  0  0  0  0  0  0
    5.3426   -0.8386   -1.9094 C   0  0  0  0  0  0  0  0  0  0  0  0
    6.5176   -0.2967   -1.3808 C   0  0  0  0  0  0  0  0  0  0  0  0
    6.5763   -0.1064   -0.0158 C   0  0  0  0  0  0  0  0  0  0  0  0
    5.5279   -0.4390    0.8130 C   0  0  0  0  0  0  0  0  0  0  0  0
    4.3558   -0.9747    0.3264 C   0  0  0  0  0  0  0  0  0  0  0  0
    5.7989   -0.1807    2.1203 O   0  0  0  0  0  0  0  0  0  0  0  0
    7.1403    0.3434    2.0228 C   0  0  0  0  0  0  0  0  0  0  0  0
    7.6345    0.4046    0.6683 O   0  0  0  0  0  0  0  0  0  0  0  0
    1.8099   -1.1575   -1.4017 N   0  0  0  0  0  0  0  0  0  0  0  0
    0.6306   -1.8601   -1.8864 C   0  0  0  0  0  0  0  0  0  0  0  0
   -0.6774   -1.1775   -1.4845 C   0  0  0  0  0  0  0  0  0  0  0  0
   -0.6269   -0.6604   -0.0261 C   0  0  0  0  0  0  0  0  0  0  0  0
    0.5858    0.3073    0.1571 C   0  0  0  0  0  0  0  0  0  0  0  0
    1.6131    0.2194   -0.9707 C   0  0  0  0  0  0  0  0  0  0  0  0
   -0.3002   -1.7814    0.8413 O   0  0  0  0  0  0  0  0  0  0  0  0
   -1.3114   -2.6039    1.2356 C   0  0  0  0  0  0  0  0  0  0  0  0
   -0.9246   -3.8097    1.8237 C   0  0  0  0  0  0  0  0  0  0  0  0
   -1.8916   -4.7257    2.2409 C   0  0  0  0  0  0  0  0  0  0  0  0
   -3.2396   -4.4277    2.0692 C   0  0  0  0  0  0  0  0  0  0  0  0
   -4.1646   -5.3106    2.4658 F   0  0  0  0  0  0  0  0  0  0  0  0
   -3.6399   -3.2284    1.4952 C   0  0  0  0  0  0  0  0  0  0  0  0
   -2.6643   -2.3140    1.0898 C   0  0  0  0  0  0  0  0  0  0  0  0
   -3.0489   -1.0291    0.4927 C   0  0  0  0  0  0  0  0  0  0  0  0
   -4.1977   -0.8642    0.0897 O   0  0  0  0  0  0  0  0  0  0  0  0
   -1.9519    0.0257    0.4071 C   0  0  0  0  0  0  0  0  0  0  0  0
   -2.3845    1.1914   -0.4731 C   0  0  0  0  0  0  0  0  0  0  0  0
   -2.8725    2.1149    0.5908 C   0  0  0  0  0  0  0  0  0  0  0  0
   -3.6649    3.3291    0.2806 C   0  0  0  0  0  0  0  0  0  0  0  0
   -4.1007    4.1409    1.3372 C   0  0  0  0  0  0  0  0  0  0  0  0
   -4.8460    5.2954    1.0812 C   0  0  0  0  0  0  0  0  0  0  0  0
   -5.1567    5.6399   -0.2315 C   0  0  0  0  0  0  0  0  0  0  0  0
   -6.0729    7.0602   -0.5506 Cl  0  0  0  0  0  0  0  0  0  0  0  0
   -4.7280    4.8400   -1.2898 C   0  0  0  0  0  0  0  0  0  0  0  0
   -3.9809    3.6843   -1.0362 C   0  0  0  0  0  0  0  0  0  0  0  0
   -2.5173    1.7937    1.7940 N   0  0  0  0  0  0  0  0  0  0  0  0
   -1.7928    0.5846    1.7217 O   0  0  0  0  0  0  0  0  0  0  0  0
    5.2621   -1.0233   -2.9788 H   0  0  0  0  0  0  0  0  0  0  0  0
    7.3577   -0.0439   -2.0181 H   0  0  0  0  0  0  0  0  0  0  0  0
    3.5472   -1.2516    0.9932 H   0  0  0  0  0  0  0  0  0  0  0  0
    7.1528    1.3542    2.4463 H   0  0  0  0  0  0  0  0  0  0  0  0
    7.8100   -0.2936    2.6123 H   0  0  0  0  0  0  0  0  0  0  0  0
    0.6925   -1.9290   -2.9790 H   0  0  0  0  0  0  0  0  0  0  0  0
    0.6647   -2.8850   -1.4976 H   0  0  0  0  0  0  0  0  0  0  0  0
   -0.8700   -0.3434   -2.1705 H   0  0  0  0  0  0  0  0  0  0  0  0
   -1.4920   -1.8956   -1.6320 H   0  0  0  0  0  0  0  0  0  0  0  0
    0.2724    1.3541    0.2282 H   0  0  0  0  0  0  0  0  0  0  0  0
    1.0928    0.0814    1.1048 H   0  0  0  0  0  0  0  0  0  0  0  0
    1.2604    0.7792   -1.8463 H   0  0  0  0  0  0  0  0  0  0  0  0
    2.5452    0.7015   -0.6686 H   0  0  0  0  0  0  0  0  0  0  0  0
    0.1310   -4.0400    1.9499 H   0  0  0  0  0  0  0  0  0  0  0  0
   -1.6025   -5.6686    2.6953 H   0  0  0  0  0  0  0  0  0  0  0  0
   -4.6982   -3.0139    1.3783 H   0  0  0  0  0  0  0  0  0  0  0  0
   -3.1566    0.9370   -1.2025 H   0  0  0  0  0  0  0  0  0  0  0  0
   -1.5537    1.6797   -0.9906 H   0  0  0  0  0  0  0  0  0  0  0  0
   -3.8654    3.8798    2.3675 H   0  0  0  0  0  0  0  0  0  0  0  0
   -5.1795    5.9155    1.9094 H   0  0  0  0  0  0  0  0  0  0  0  0
   -4.9741    5.1095   -2.3139 H   0  0  0  0  0  0  0  0  0  0  0  0
   -3.6628    3.0824   -1.8818 H   0  0  0  0  0  0  0  0  0  0  0  0
  1  2  2  0
  2  3  1  0
  3  4  2  0
  4  5  1  0
  5  6  2  0
  6  7  1  0
  7  8  2  0
  7  9  1  0
  9 10  1  0
 10 11  1  0
  2 12  1  0
 12 13  1  0
 13 14  1  0
 14 15  1  0
 15 16  1  0
 16 17  1  0
 15 18  1  0
 18 19  1  0
 19 20  2  0
 20 21  1  0
 21 22  2  0
 22 23  1  0
 22 24  1  0
 24 25  2  0
 25 26  1  0
 26 27  2  0
 26 28  1  0
 28 29  1  0
 29 30  1  0
 30 31  1  0
 31 32  2  0
 32 33  1  0
 33 34  2  0
 34 35  1  0
 34 36  1  0
 36 37  2  0
 30 38  2  0
 38 39  1  0
  8  3  1  0
 17 12  1  0
 25 19  1  0
 39 28  1  0
 11  6  1  0
 28 15  1  0
 37 31  1  0
  4 40  1  0
  5 41  1  0
  8 42  1  0
 10 43  1  0
 10 44  1  0
 13 45  1  0
 13 46  1  0
 14 47  1  0
 14 48  1  0
 16 49  1  0
 16 50  1  0
 17 51  1  0
 17 52  1  0
 20 53  1  0
 21 54  1  0
 24 55  1  0
 29 56  1  0
 29 57  1  0
 32 58  1  0
 33 59  1  0
 36 60  1  0
 37 61  1  0
M  END
$$$$
