
     RDKit          3D

 69 73  0  0  0  0  0  0  0  0999 V2000
    3.5843   -5.2012    0.2676 C   0  0  0  0  0  0  0  0  0  0  0  0
    3.4543   -3.9295    0.8914 O   0  0  0  0  0  0  0  0  0  0  0  0
    3.8415   -2.8403    0.1596 C   0  0  0  0  0  0  0  0  0  0  0  0
    4.4106   -2.8672   -1.1134 C   0  0  0  0  0  0  0  0  0  0  0  0
    4.7687   -1.6791   -1.7608 C   0  0  0  0  0  0  0  0  0  0  0  0
    5.3147   -1.8525   -3.0046 O   0  0  0  0  0  0  0  0  0  0  0  0
    5.7393   -0.6813   -3.6911 C   0  0  0  0  0  0  0  0  0  0  0  0
    4.5516   -0.4550   -1.1271 C   0  0  0  0  0  0  0  0  0  0  0  0
    3.9831   -0.4117    0.1549 C   0  0  0  0  0  0  0  0  0  0  0  0
    3.7386    0.8740    0.8218 C   0  0  0  0  0  0  0  0  0  0  0  0
    5.0869    1.8460    1.2312 S   0  0  0  0  0  0  0  0  0  0  0  0
    4.1097    3.0634    1.9443 C   0  0  0  0  0  0  0  0  0  0  0  0
    4.5517    4.2612    2.5383 C   0  0  0  0  0  0  0  0  0  0  0  0
    3.6109    5.1488    3.0734 C   0  0  0  0  0  0  0  0  0  0  0  0
    2.2547    4.8581    3.0203 C   0  0  0  0  0  0  0  0  0  0  0  0
    1.2433    5.6414    3.5057 O   0  0  0  0  0  0  0  0  0  0  0  0
    1.6185    6.8504    4.1536 C   0  0  0  0  0  0  0  0  0  0  0  0
    1.8289    3.6653    2.4235 C   0  0  0  0  0  0  0  0  0  0  0  0
    2.7551    2.7380    1.8765 C   0  0  0  0  0  0  0  0  0  0  0  0
    2.5487    1.4620    1.2245 C   0  0  0  0  0  0  0  0  0  0  0  0
    1.2551    0.8261    0.9919 C   0  0  0  0  0  0  0  0  0  0  0  0
    0.7575    0.6781   -0.3071 C   0  0  0  0  0  0  0  0  0  0  0  0
   -0.4869    0.0755   -0.5249 C   0  0  0  0  0  0  0  0  0  0  0  0
   -1.2451   -0.3781    0.5549 C   0  0  0  0  0  0  0  0  0  0  0  0
   -2.4718   -0.9777    0.4820 O   0  0  0  0  0  0  0  0  0  0  0  0
   -3.0614   -1.0998   -0.8172 C   0  0  0  0  0  0  0  0  0  0  0  0
   -4.4325   -1.7772   -0.6527 C   0  0  0  0  0  0  0  0  0  0  0  0
   -5.1198   -2.0649   -1.9253 N   0  0  0  0  0  0  0  0  0  0  0  0
   -6.2468   -2.9931   -1.7321 C   0  0  0  0  0  0  0  0  0  0  0  0
   -7.4585   -2.3660   -1.0376 C   0  0  0  0  0  0  0  0  0  0  0  0
   -7.9198   -1.1056   -1.7613 C   0  0  0  0  0  0  0  0  0  0  0  0
   -6.7549   -0.1482   -1.9896 C   0  0  0  0  0  0  0  0  0  0  0  0
   -5.5689   -0.8624   -2.6435 C   0  0  0  0  0  0  0  0  0  0  0  0
   -0.7461   -0.2289    1.8514 C   0  0  0  0  0  0  0  0  0  0  0  0
    0.4957    0.3712    2.0732 C   0  0  0  0  0  0  0  0  0  0  0  0
    3.6327   -1.6112    0.7876 C   0  0  0  0  0  0  0  0  0  0  0  0
    3.2078   -5.9555    0.9653 H   0  0  0  0  0  0  0  0  0  0  0  0
    4.6345   -5.4333    0.0610 H   0  0  0  0  0  0  0  0  0  0  0  0
    2.9790   -5.2588   -0.6435 H   0  0  0  0  0  0  0  0  0  0  0  0
    4.5929   -3.8020   -1.6334 H   0  0  0  0  0  0  0  0  0  0  0  0
    6.1694   -0.9924   -4.6479 H   0  0  0  0  0  0  0  0  0  0  0  0
    6.5194   -0.1553   -3.1309 H   0  0  0  0  0  0  0  0  0  0  0  0
    4.8918   -0.0220   -3.9061 H   0  0  0  0  0  0  0  0  0  0  0  0
    4.8091    0.4815   -1.6112 H   0  0  0  0  0  0  0  0  0  0  0  0
    5.6118    4.4959    2.5823 H   0  0  0  0  0  0  0  0  0  0  0  0
    3.9822    6.0636    3.5241 H   0  0  0  0  0  0  0  0  0  0  0  0
    2.2421    6.6515    5.0312 H   0  0  0  0  0  0  0  0  0  0  0  0
    0.7048    7.3416    4.5006 H   0  0  0  0  0  0  0  0  0  0  0  0
    2.1196    7.5309    3.4575 H   0  0  0  0  0  0  0  0  0  0  0  0
    0.7638    3.4480    2.3801 H   0  0  0  0  0  0  0  0  0  0  0  0
    1.3333    1.0294   -1.1600 H   0  0  0  0  0  0  0  0  0  0  0  0
   -0.8302   -0.0247   -1.5491 H   0  0  0  0  0  0  0  0  0  0  0  0
   -3.1815   -0.1027   -1.2539 H   0  0  0  0  0  0  0  0  0  0  0  0
   -2.4252   -1.7211   -1.4592 H   0  0  0  0  0  0  0  0  0  0  0  0
   -4.2518   -2.7215   -0.1208 H   0  0  0  0  0  0  0  0  0  0  0  0
   -5.0509   -1.1793    0.0277 H   0  0  0  0  0  0  0  0  0  0  0  0
   -6.5566   -3.3679   -2.7166 H   0  0  0  0  0  0  0  0  0  0  0  0
   -5.9188   -3.8800   -1.1761 H   0  0  0  0  0  0  0  0  0  0  0  0
   -8.2797   -3.0914   -1.0069 H   0  0  0  0  0  0  0  0  0  0  0  0
   -7.2138   -2.1240    0.0035 H   0  0  0  0  0  0  0  0  0  0  0  0
   -8.3559   -1.3831   -2.7290 H   0  0  0  0  0  0  0  0  0  0  0  0
   -8.7084   -0.6082   -1.1858 H   0  0  0  0  0  0  0  0  0  0  0  0
   -6.4499    0.2977   -1.0356 H   0  0  0  0  0  0  0  0  0  0  0  0
   -7.0833    0.6783   -2.6306 H   0  0  0  0  0  0  0  0  0  0  0  0
   -4.7445   -0.1560   -2.7857 H   0  0  0  0  0  0  0  0  0  0  0  0
   -5.8585   -1.1630   -3.6594 H   0  0  0  0  0  0  0  0  0  0  0  0
   -1.3300   -0.5834    2.6971 H   0  0  0  0  0  0  0  0  0  0  0  0
    0.8639    0.4749    3.0909 H   0  0  0  0  0  0  0  0  0  0  0  0
    3.1901   -1.5964    1.7813 H   0  0  0  0  0  0  0  0  0  0  0  0
  1  2  1  0
  2  3  1  0
  3  4  2  0
  4  5  1  0
  5  6  1  0
  6  7  1  0
  5  8  2  0
  8  9  1  0
  9 10  1  0
 10 11  1  0
 11 12  1  0
 12 13  2  0
 13 14  1  0
 14 15  2  0
 15 16  1  0
 16 17  1  0
 15 18  1  0
 18 19  2  0
 19 20  1  0
 20 21  1  0
 21 22  2  0
 22 23  1  0
 23 24  2  0
 24 25  1  0
 25 26  1  0
 26 27  1  0
 27 28  1  0
 28 29  1  0
 29 30  1  0
 30 31  1  0
 31 32  1  0
 32 33  1  0
 24 34  1  0
 34 35  2  0
  9 36  2  0
 36  3  1  0
 20 10  2  0
 35 21  1  0
 19 12  1  0
 33 28  1  0
  1 37  1  0
  1 38  1  0
  1 39  1  0
  4 40  1  0
  7 41  1  0
  7 42  1  0
  7 43  1  0
  8 44  1  0
 13 45  1  0
 14 46  1  0
 17 47  1  0
 17 48  1  0
 17 49  1  0
 18 50  1  0
 22 51  1  0
 23 52  1  0
 26 53  1  0
 26 54  1  0
 27 55  1  0
 27 56  1  0
 29 57  1  0
 29 58  1  0
 30 59  1  0
 30 60  1  0
 31 61  1  0
 31 62  1  0
 32 63  1  0
 32 64  1  0
 33 65  1  0
 33 66  1  0
 34 67  1  0
 35 68  1  0
 36 69  1  0
M  END
$$$$
