
     RDKit          3D

 36 37  0  0  0  0  0  0  0  0999 V2000
    7.6921    0.1888    0.3917 C   0  0  0  0  0  0  0  0  0  0  0  0
    6.3107    0.6742    0.0282 C   0  0  0  0  0  0  0  0  0  0  0  0
    6.1579    1.7110   -0.6068 O   0  0  0  0  0  0  0  0  0  0  0  0
    5.3214   -0.1870    0.4691 N   0  0  0  0  0  0  0  0  0  0  0  0
    3.9284   -0.0533    0.2970 C   0  0  0  0  0  0  0  0  0  0  0  0
    3.3223    1.0076   -0.3781 C   0  0  0  0  0  0  0  0  0  0  0  0
    1.9290    1.0659   -0.5064 C   0  0  0  0  0  0  0  0  0  0  0  0
    1.1233    0.0684    0.0508 C   0  0  0  0  0  0  0  0  0  0  0  0
   -0.3554    0.1687   -0.1108 C   0  0  0  0  0  0  0  0  0  0  0  0
   -0.8078    0.7348   -1.1007 O   0  0  0  0  0  0  0  0  0  0  0  0
   -1.0952   -0.3795    0.9333 N   0  0  0  0  0  0  0  0  0  0  0  0
   -2.4576   -0.2882    1.0691 N   0  0  0  0  0  0  0  0  0  0  0  0
   -3.1799   -0.3371   -0.0058 C   0  0  0  0  0  0  0  0  0  0  0  0
   -4.6505   -0.1969    0.0430 C   0  0  0  0  0  0  0  0  0  0  0  0
   -5.3167   -0.0100    1.2603 C   0  0  0  0  0  0  0  0  0  0  0  0
   -6.7067    0.1175    1.2766 C   0  0  0  0  0  0  0  0  0  0  0  0
   -7.4151    0.0585    0.0807 C   0  0  0  0  0  0  0  0  0  0  0  0
   -8.7486    0.1806    0.0983 F   0  0  0  0  0  0  0  0  0  0  0  0
   -6.7610   -0.1247   -1.1339 C   0  0  0  0  0  0  0  0  0  0  0  0
   -5.3708   -0.2531   -1.1562 C   0  0  0  0  0  0  0  0  0  0  0  0
    1.7243   -1.0057    0.7159 C   0  0  0  0  0  0  0  0  0  0  0  0
    3.1179   -1.0607    0.8386 C   0  0  0  0  0  0  0  0  0  0  0  0
    8.3870    1.0335    0.3880 H   0  0  0  0  0  0  0  0  0  0  0  0
    7.7000   -0.2520    1.3928 H   0  0  0  0  0  0  0  0  0  0  0  0
    8.0197   -0.5536   -0.3407 H   0  0  0  0  0  0  0  0  0  0  0  0
    5.6303   -1.0110    0.9691 H   0  0  0  0  0  0  0  0  0  0  0  0
    3.9030    1.8094   -0.8245 H   0  0  0  0  0  0  0  0  0  0  0  0
    1.4777    1.8990   -1.0432 H   0  0  0  0  0  0  0  0  0  0  0  0
   -0.6217   -0.5082    1.8221 H   0  0  0  0  0  0  0  0  0  0  0  0
   -2.7503   -0.5145   -1.0066 H   0  0  0  0  0  0  0  0  0  0  0  0
   -4.7600    0.0385    2.1931 H   0  0  0  0  0  0  0  0  0  0  0  0
   -7.2390    0.2636    2.2111 H   0  0  0  0  0  0  0  0  0  0  0  0
   -7.3372   -0.1636   -2.0530 H   0  0  0  0  0  0  0  0  0  0  0  0
   -4.8610   -0.3906   -2.1066 H   0  0  0  0  0  0  0  0  0  0  0  0
    1.1301   -1.8214    1.1194 H   0  0  0  0  0  0  0  0  0  0  0  0
    3.5589   -1.9088    1.3571 H   0  0  0  0  0  0  0  0  0  0  0  0
  1  2  1  0
  2  3  2  0
  2  4  1  0
  4  5  1  0
  5  6  2  0
  6  7  1  0
  7  8  2  0
  8  9  1  0
  9 10  2  0
  9 11  1  0
 11 12  1  0
 12 13  2  3
 13 14  1  0
 14 15  2  0
 15 16  1  0
 16 17  2  0
 17 18  1  0
 17 19  1  0
 19 20  2  0
  8 21  1  0
 21 22  2  0
 22  5  1  0
 20 14  1  0
  1 23  1  0
  1 24  1  0
  1 25  1  0
  4 26  1  0
  6 27  1  0
  7 28  1  0
 11 29  1  0
 13 30  1  0
 15 31  1  0
 16 32  1  0
 19 33  1  0
 20 34  1  0
 21 35  1  0
 22 36  1  0
M  END
$$$$
