
     RDKit          3D

 38 40  0  0  0  0  0  0  0  0999 V2000
    0.6767    0.8435   -2.4241 O   0  0  0  0  0  0  0  0  0  0  0  0
    0.4682    0.3954   -1.2991 C   0  0  0  0  0  0  0  0  0  0  0  0
    1.4925    0.1194   -0.4335 N   0  0  0  0  0  0  0  0  0  0  0  0
    2.8551    0.3379   -0.8632 C   0  0  0  0  0  0  0  0  0  0  0  0
    3.8154    0.0778    0.2680 C   0  0  0  0  0  0  0  0  0  0  0  0
    4.5721   -1.1022    0.3089 C   0  0  0  0  0  0  0  0  0  0  0  0
    5.4455   -1.3454    1.3719 C   0  0  0  0  0  0  0  0  0  0  0  0
    5.5621   -0.4130    2.4008 C   0  0  0  0  0  0  0  0  0  0  0  0
    6.6359   -0.7158    3.7106 Cl  0  0  0  0  0  0  0  0  0  0  0  0
    4.8121    0.7605    2.3777 C   0  0  0  0  0  0  0  0  0  0  0  0
    3.9392    1.0040    1.3151 C   0  0  0  0  0  0  0  0  0  0  0  0
   -0.8036    0.1442   -0.8162 N   0  0  0  0  0  0  0  0  0  0  0  0
   -1.1216   -0.4040    0.5027 C   0  0  0  0  0  0  0  0  0  0  0  0
   -2.3811    0.2251    1.0935 C   0  0  0  0  0  0  0  0  0  0  0  0
   -3.5349    0.1238    0.1359 C   0  0  0  0  0  0  0  0  0  0  0  0
   -4.8528    0.0905    0.6103 C   0  0  0  0  0  0  0  0  0  0  0  0
   -5.9208    0.0233   -0.2833 C   0  0  0  0  0  0  0  0  0  0  0  0
   -5.6806    0.0007   -1.6547 C   0  0  0  0  0  0  0  0  0  0  0  0
   -4.3714    0.0495   -2.1340 C   0  0  0  0  0  0  0  0  0  0  0  0
   -3.2865    0.1143   -1.2460 C   0  0  0  0  0  0  0  0  0  0  0  0
   -1.8829    0.1881   -1.8018 C   0  0  0  0  0  0  0  0  0  0  0  0
    1.3555   -0.6999    0.1352 H   0  0  0  0  0  0  0  0  0  0  0  0
    2.9622    1.3678   -1.2246 H   0  0  0  0  0  0  0  0  0  0  0  0
    3.0598   -0.3250   -1.7125 H   0  0  0  0  0  0  0  0  0  0  0  0
    4.4888   -1.8385   -0.4881 H   0  0  0  0  0  0  0  0  0  0  0  0
    6.0304   -2.2612    1.3909 H   0  0  0  0  0  0  0  0  0  0  0  0
    4.9003    1.4874    3.1806 H   0  0  0  0  0  0  0  0  0  0  0  0
    3.3507    1.9200    1.3048 H   0  0  0  0  0  0  0  0  0  0  0  0
   -0.2986   -0.2430    1.2046 H   0  0  0  0  0  0  0  0  0  0  0  0
   -1.2452   -1.4871    0.3789 H   0  0  0  0  0  0  0  0  0  0  0  0
   -2.2047    1.2857    1.3109 H   0  0  0  0  0  0  0  0  0  0  0  0
   -2.6214   -0.2785    2.0369 H   0  0  0  0  0  0  0  0  0  0  0  0
   -5.0543    0.1177    1.6787 H   0  0  0  0  0  0  0  0  0  0  0  0
   -6.9410   -0.0060    0.0902 H   0  0  0  0  0  0  0  0  0  0  0  0
   -6.5130   -0.0475   -2.3519 H   0  0  0  0  0  0  0  0  0  0  0  0
   -4.1990    0.0429   -3.2085 H   0  0  0  0  0  0  0  0  0  0  0  0
   -1.7260   -0.6625   -2.4774 H   0  0  0  0  0  0  0  0  0  0  0  0
   -1.7829    1.1100   -2.3878 H   0  0  0  0  0  0  0  0  0  0  0  0
  1  2  2  0
  2  3  1  0
  3  4  1  0
  4  5  1  0
  5  6  2  0
  6  7  1  0
  7  8  2  0
  8  9  1  0
  8 10  1  0
 10 11  2  0
  2 12  1  0
 12 13  1  0
 13 14  1  0
 14 15  1  0
 15 16  2  0
 16 17  1  0
 17 18  2  0
 18 19  1  0
 19 20  2  0
 20 21  1  0
 11  5  1  0
 21 12  1  0
 20 15  1  0
  3 22  1  0
  4 23  1  0
  4 24  1  0
  6 25  1  0
  7 26  1  0
 10 27  1  0
 11 28  1  0
 13 29  1  0
 13 30  1  0
 14 31  1  0
 14 32  1  0
 16 33  1  0
 17 34  1  0
 18 35  1  0
 19 36  1  0
 21 37  1  0
 21 38  1  0
M  END
$$$$
