
     RDKit          3D

 33 34  0  0  0  0  0  0  0  0999 V2000
   -6.5695    1.0753    0.4800 N   0  0  0  0  0  0  0  0  0  0  0  0
   -5.1756    0.9911    0.4090 C   0  0  0  0  0  0  0  0  0  0  0  0
   -4.3990    2.1519    0.4224 C   0  0  0  0  0  0  0  0  0  0  0  0
   -3.0031    2.0778    0.4731 C   0  0  0  0  0  0  0  0  0  0  0  0
   -2.3643    0.8350    0.5546 C   0  0  0  0  0  0  0  0  0  0  0  0
   -0.8773    0.8093    0.6077 C   0  0  0  0  0  0  0  0  0  0  0  0
   -0.1843    1.8141    0.5832 O   0  0  0  0  0  0  0  0  0  0  0  0
   -0.4232   -0.4673    0.6739 O   0  0  0  0  0  0  0  0  0  0  0  0
    1.0059   -0.6122    0.7434 C   0  0  0  0  0  0  0  0  0  0  0  0
    1.6172   -0.5604   -0.6557 C   0  0  0  0  0  0  0  0  0  0  0  0
    3.1082   -0.7722   -0.6271 C   0  0  0  0  0  0  0  0  0  0  0  0
    3.6519   -2.0495   -0.8156 C   0  0  0  0  0  0  0  0  0  0  0  0
    5.0334   -2.2426   -0.7679 C   0  0  0  0  0  0  0  0  0  0  0  0
    5.8819   -1.1633   -0.5277 C   0  0  0  0  0  0  0  0  0  0  0  0
    5.3503    0.1103   -0.3340 C   0  0  0  0  0  0  0  0  0  0  0  0
    3.9694    0.3058   -0.3815 C   0  0  0  0  0  0  0  0  0  0  0  0
   -3.1409   -0.3283    0.6020 C   0  0  0  0  0  0  0  0  0  0  0  0
   -4.5371   -0.2436    0.5500 C   0  0  0  0  0  0  0  0  0  0  0  0
   -6.9541    1.9230    0.0744 H   0  0  0  0  0  0  0  0  0  0  0  0
   -7.0523    0.2419    0.1591 H   0  0  0  0  0  0  0  0  0  0  0  0
   -4.8739    3.1294    0.3930 H   0  0  0  0  0  0  0  0  0  0  0  0
   -2.4195    2.9964    0.4628 H   0  0  0  0  0  0  0  0  0  0  0  0
    1.4400    0.1411    1.4130 H   0  0  0  0  0  0  0  0  0  0  0  0
    1.2005   -1.5871    1.2052 H   0  0  0  0  0  0  0  0  0  0  0  0
    1.1399   -1.3144   -1.2951 H   0  0  0  0  0  0  0  0  0  0  0  0
    1.3909    0.3974   -1.1404 H   0  0  0  0  0  0  0  0  0  0  0  0
    3.0032   -2.9023   -1.0021 H   0  0  0  0  0  0  0  0  0  0  0  0
    5.4482   -3.2359   -0.9180 H   0  0  0  0  0  0  0  0  0  0  0  0
    6.9575   -1.3144   -0.4910 H   0  0  0  0  0  0  0  0  0  0  0  0
    6.0107    0.9526   -0.1453 H   0  0  0  0  0  0  0  0  0  0  0  0
    3.5671    1.3052   -0.2259 H   0  0  0  0  0  0  0  0  0  0  0  0
   -2.6789   -1.3078    0.6940 H   0  0  0  0  0  0  0  0  0  0  0  0
   -5.1234   -1.1563    0.6217 H   0  0  0  0  0  0  0  0  0  0  0  0
  1  2  1  0
  2  3  2  0
  3  4  1  0
  4  5  2  0
  5  6  1  0
  6  7  2  0
  6  8  1  0
  8  9  1  0
  9 10  1  0
 10 11  1  0
 11 12  2  0
 12 13  1  0
 13 14  2  0
 14 15  1  0
 15 16  2  0
  5 17  1  0
 17 18  2  0
 18  2  1  0
 16 11  1  0
  1 19  1  0
  1 20  1  0
  3 21  1  0
  4 22  1  0
  9 23  1  0
  9 24  1  0
 10 25  1  0
 10 26  1  0
 12 27  1  0
 13 28  1  0
 14 29  1  0
 15 30  1  0
 16 31  1  0
 17 32  1  0
 18 33  1  0
M  END
$$$$
