
     RDKit          3D

 74 75  0  0  0  0  0  0  0  0999 V2000
   -1.7575    5.4381    3.3225 C   0  0  0  0  0  0  0  0  0  0  0  0
   -1.9227    4.0507    3.0669 O   0  0  0  0  0  0  0  0  0  0  0  0
   -0.7886    3.2805    2.9989 C   0  0  0  0  0  0  0  0  0  0  0  0
    0.4863    3.7275    3.3505 C   0  0  0  0  0  0  0  0  0  0  0  0
    1.5732    2.8581    3.2927 C   0  0  0  0  0  0  0  0  0  0  0  0
    1.3898    1.5344    2.8962 C   0  0  0  0  0  0  0  0  0  0  0  0
    0.1170    1.0413    2.5351 C   0  0  0  0  0  0  0  0  0  0  0  0
    0.0354   -0.4422    2.1323 C   0  0  0  0  0  0  0  0  0  0  0  0
   -1.3493   -1.1454    1.9812 C   0  0  0  0  0  0  0  0  0  0  0  0
   -1.6779   -1.7715    0.9734 O   0  0  0  0  0  0  0  0  0  0  0  0
   -2.1233   -1.1349    3.1370 N   0  0  0  0  0  0  0  0  0  0  0  0
   -3.4400   -1.7808    3.2557 C   0  0  0  0  0  0  0  0  0  0  0  0
   -4.4633   -1.1455    2.3021 C   0  0  0  0  0  0  0  0  0  0  0  0
   -3.3435   -3.2935    2.9942 C   0  0  0  0  0  0  0  0  0  0  0  0
   -3.9288   -1.5813    4.7026 C   0  0  0  0  0  0  0  0  0  0  0  0
    0.9635   -0.7904    1.0032 N   0  0  0  0  0  0  0  0  0  0  0  0
    0.6525   -0.1168   -0.1929 C   0  0  0  0  0  0  0  0  0  0  0  0
   -0.2766    0.6940   -0.2643 O   0  0  0  0  0  0  0  0  0  0  0  0
    1.5156   -0.3198   -1.4213 C   0  0  0  0  0  0  0  0  0  0  0  0
    0.9673    0.4499   -2.6232 C   0  0  0  0  0  0  0  0  0  0  0  0
    1.7792    0.1902   -3.8757 C   0  0  0  0  0  0  0  0  0  0  0  0
    2.7747   -0.5268   -3.8788 O   0  0  0  0  0  0  0  0  0  0  0  0
    1.2600    0.8527   -4.9647 N   0  0  0  0  0  0  0  0  0  0  0  0
    1.7600    0.7921   -6.2457 C   0  0  0  0  0  0  0  0  0  0  0  0
    2.8664    0.0715   -6.7455 C   0  0  0  0  0  0  0  0  0  0  0  0
    2.8973    0.3699   -8.0844 C   0  0  0  0  0  0  0  0  0  0  0  0
    3.7648   -0.0240   -9.2076 C   0  0  0  0  0  0  0  0  0  0  0  0
    1.8799    1.2232   -8.3731 O   0  0  0  0  0  0  0  0  0  0  0  0
    1.1624    1.4864   -7.2206 N   0  0  0  0  0  0  0  0  0  0  0  0
    1.8210   -2.0447    1.1141 C   0  0  0  0  0  0  0  0  0  0  0  0
    2.0435   -2.5127    2.5808 C   0  0  0  0  0  0  0  0  0  0  0  0
    1.1597   -3.2356    0.3895 C   0  0  0  0  0  0  0  0  0  0  0  0
    3.2501   -1.8161    0.5677 C   0  0  0  0  0  0  0  0  0  0  0  0
   -0.9606    1.9434    2.5731 C   0  0  0  0  0  0  0  0  0  0  0  0
   -2.2133    1.4825    2.2592 O   0  0  0  0  0  0  0  0  0  0  0  0
   -2.7213    2.0878    1.0667 C   0  0  0  0  0  0  0  0  0  0  0  0
   -1.1128    5.9067    2.5718 H   0  0  0  0  0  0  0  0  0  0  0  0
   -1.3774    5.6089    4.3345 H   0  0  0  0  0  0  0  0  0  0  0  0
   -2.7433    5.9092    3.2553 H   0  0  0  0  0  0  0  0  0  0  0  0
    0.6671    4.7437    3.6832 H   0  0  0  0  0  0  0  0  0  0  0  0
    2.5657    3.2102    3.5629 H   0  0  0  0  0  0  0  0  0  0  0  0
    2.2573    0.8771    2.8636 H   0  0  0  0  0  0  0  0  0  0  0  0
    0.4270   -0.9106    3.0388 H   0  0  0  0  0  0  0  0  0  0  0  0
   -2.0161   -0.2770    3.6703 H   0  0  0  0  0  0  0  0  0  0  0  0
   -5.4514   -1.6038    2.4217 H   0  0  0  0  0  0  0  0  0  0  0  0
   -4.1738   -1.2603    1.2528 H   0  0  0  0  0  0  0  0  0  0  0  0
   -4.5691   -0.0729    2.4973 H   0  0  0  0  0  0  0  0  0  0  0  0
   -2.5676   -3.7518    3.6175 H   0  0  0  0  0  0  0  0  0  0  0  0
   -4.2929   -3.7949    3.2151 H   0  0  0  0  0  0  0  0  0  0  0  0
   -3.0990   -3.5185    1.9523 H   0  0  0  0  0  0  0  0  0  0  0  0
   -4.9082   -2.0457    4.8638 H   0  0  0  0  0  0  0  0  0  0  0  0
   -3.2256   -2.0191    5.4205 H   0  0  0  0  0  0  0  0  0  0  0  0
   -4.0186   -0.5163    4.9462 H   0  0  0  0  0  0  0  0  0  0  0  0
    2.5211    0.0515   -1.2027 H   0  0  0  0  0  0  0  0  0  0  0  0
    1.5570   -1.3751   -1.6866 H   0  0  0  0  0  0  0  0  0  0  0  0
   -0.0704    0.1532   -2.8195 H   0  0  0  0  0  0  0  0  0  0  0  0
    0.9811    1.5273   -2.4197 H   0  0  0  0  0  0  0  0  0  0  0  0
    0.4388    1.4345   -4.8689 H   0  0  0  0  0  0  0  0  0  0  0  0
    3.5451   -0.5766   -6.2123 H   0  0  0  0  0  0  0  0  0  0  0  0
    4.4817   -0.7914   -8.8997 H   0  0  0  0  0  0  0  0  0  0  0  0
    3.1688   -0.4289  -10.0312 H   0  0  0  0  0  0  0  0  0  0  0  0
    4.3269    0.8381   -9.5789 H   0  0  0  0  0  0  0  0  0  0  0  0
    2.7241   -3.3722    2.6264 H   0  0  0  0  0  0  0  0  0  0  0  0
    1.1127   -2.8462    3.0534 H   0  0  0  0  0  0  0  0  0  0  0  0
    2.4849   -1.7171    3.1912 H   0  0  0  0  0  0  0  0  0  0  0  0
    0.9253   -3.0269   -0.6552 H   0  0  0  0  0  0  0  0  0  0  0  0
    0.2197   -3.5178    0.8742 H   0  0  0  0  0  0  0  0  0  0  0  0
    1.8108   -4.1173    0.4069 H   0  0  0  0  0  0  0  0  0  0  0  0
    3.3063   -1.8711   -0.5207 H   0  0  0  0  0  0  0  0  0  0  0  0
    3.6442   -0.8462    0.8908 H   0  0  0  0  0  0  0  0  0  0  0  0
    3.9442   -2.5881    0.9218 H   0  0  0  0  0  0  0  0  0  0  0  0
   -1.9618    2.6142    0.4770 H   0  0  0  0  0  0  0  0  0  0  0  0
   -3.5239    2.7824    1.3332 H   0  0  0  0  0  0  0  0  0  0  0  0
   -3.1513    1.2968    0.4443 H   0  0  0  0  0  0  0  0  0  0  0  0
  1  2  1  0
  2  3  1  0
  3  4  2  0
  4  5  1  0
  5  6  2  0
  6  7  1  0
  7  8  1  0
  8  9  1  0
  9 10  2  0
  9 11  1  0
 11 12  1  0
 12 13  1  0
 12 14  1  0
 12 15  1  0
  8 16  1  0
 16 17  1  0
 17 18  2  0
 17 19  1  0
 19 20  1  0
 20 21  1  0
 21 22  2  0
 21 23  1  0
 23 24  1  0
 24 25  1  0
 25 26  2  0
 26 27  1  0
 26 28  1  0
 28 29  1  0
 16 30  1  0
 30 31  1  0
 30 32  1  0
 30 33  1  0
  7 34  2  0
 34 35  1  0
 35 36  1  0
 34  3  1  0
 29 24  2  0
  1 37  1  0
  1 38  1  0
  1 39  1  0
  4 40  1  0
  5 41  1  0
  6 42  1  0
  8 43  1  0
 11 44  1  0
 13 45  1  0
 13 46  1  0
 13 47  1  0
 14 48  1  0
 14 49  1  0
 14 50  1  0
 15 51  1  0
 15 52  1  0
 15 53  1  0
 19 54  1  0
 19 55  1  0
 20 56  1  0
 20 57  1  0
 23 58  1  0
 25 59  1  0
 27 60  1  0
 27 61  1  0
 27 62  1  0
 31 63  1  0
 31 64  1  0
 31 65  1  0
 32 66  1  0
 32 67  1  0
 32 68  1  0
 33 69  1  0
 33 70  1  0
 33 71  1  0
 36 72  1  0
 36 73  1  0
 36 74  1  0
M  END
$$$$
