
     RDKit          3D

 79 84  0  0  0  0  0  0  0  0999 V2000
   -4.3364    4.7494   -2.2736 C   0  0  0  0  0  0  0  0  0  0  0  0
   -3.2217    4.1188   -2.6784 C   0  0  0  0  0  0  0  0  0  0  0  0
   -2.8939    4.0156   -4.1446 C   0  0  0  0  0  0  0  0  0  0  0  0
   -2.2066    3.4514   -1.7615 C   0  0  0  0  0  0  0  0  0  0  0  0
   -2.4543    3.5024   -0.2404 C   0  0  1  0  0  0  0  0  0  0  0  0
   -3.6066    2.7266    0.1106 O   0  0  0  0  0  0  0  0  0  0  0  0
   -1.2526    3.0101    0.5883 C   0  0  0  0  0  0  0  0  0  0  0  0
   -0.9690    1.6273    0.3660 O   0  0  0  0  0  0  0  0  0  0  0  0
   -0.0170    1.2148   -0.5227 C   0  0  0  0  0  0  0  0  0  0  0  0
    0.9333    2.0680   -1.0990 C   0  0  0  0  0  0  0  0  0  0  0  0
    1.8241    1.5353   -2.0039 C   0  0  0  0  0  0  0  0  0  0  0  0
    1.7991    0.2113   -2.3498 C   0  0  0  0  0  0  0  0  0  0  0  0
    0.8906   -0.6644   -1.7973 C   0  0  0  0  0  0  0  0  0  0  0  0
   -0.0333   -0.1827   -0.8413 C   0  0  0  0  0  0  0  0  0  0  0  0
   -1.0810   -1.1396   -0.1894 C   0  0  0  0  0  0  0  0  0  0  0  0
   -1.1810   -1.0496    1.3606 C   0  0  0  0  0  0  0  0  0  0  0  0
   -2.4454   -1.0093    1.9955 C   0  0  0  0  0  0  0  0  0  0  0  0
   -2.5060   -0.9430    3.3720 C   0  0  0  0  0  0  0  0  0  0  0  0
   -1.3758   -0.9327    4.1456 C   0  0  0  0  0  0  0  0  0  0  0  0
   -0.1204   -0.9931    3.5885 C   0  0  0  0  0  0  0  0  0  0  0  0
   -0.0203   -1.0370    2.1892 C   0  0  0  0  0  0  0  0  0  0  0  0
    1.2077   -1.1707    1.5924 O   0  0  0  0  0  0  0  0  0  0  0  0
    2.1908   -0.2147    2.0069 C   0  0  0  0  0  0  0  0  0  0  0  0
    3.3594   -0.9041    2.7261 C   0  0  2  0  0  0  0  0  0  0  0  0
    4.3065    0.0627    3.1942 O   0  0  0  0  0  0  0  0  0  0  0  0
    4.0745   -1.9785    1.8813 C   0  0  0  0  0  0  0  0  0  0  0  0
    4.5642   -1.5527    0.5104 C   0  0  0  0  0  0  0  0  0  0  0  0
    4.1235   -2.1484   -0.6103 C   0  0  0  0  0  0  0  0  0  0  0  0
    5.6014   -0.4661    0.4585 C   0  0  0  0  0  0  0  0  0  0  0  0
   -1.6540   -0.8772    5.4751 O   0  0  0  0  0  0  0  0  0  0  0  0
   -3.0961   -0.8285    5.4470 C   0  0  0  0  0  0  0  0  0  0  0  0
   -3.6443   -0.8966    4.1145 O   0  0  0  0  0  0  0  0  0  0  0  0
   -2.4694   -0.8073   -0.9090 C   0  0  0  0  0  0  0  0  0  0  0  0
   -3.1124    0.2345   -0.8915 O   0  0  0  0  0  0  0  0  0  0  0  0
   -2.8891   -1.9383   -1.5968 N   0  0  0  0  0  0  0  0  0  0  0  0
   -2.0247   -2.9982   -1.4128 C   0  0  0  0  0  0  0  0  0  0  0  0
   -2.1671   -4.2682   -1.9317 C   0  0  0  0  0  0  0  0  0  0  0  0
   -1.1861   -5.1964   -1.6027 C   0  0  0  0  0  0  0  0  0  0  0  0
   -1.2779   -6.4432   -2.0838 F   0  0  0  0  0  0  0  0  0  0  0  0
   -0.1058   -4.8614   -0.7785 C   0  0  0  0  0  0  0  0  0  0  0  0
    0.0148   -3.5665   -0.2645 C   0  0  0  0  0  0  0  0  0  0  0  0
   -0.9550   -2.6252   -0.5961 C   0  0  0  0  0  0  0  0  0  0  0  0
    2.7509   -0.1056   -3.2674 O   0  0  0  0  0  0  0  0  0  0  0  0
    3.3976    1.1717   -3.4388 C   0  0  0  0  0  0  0  0  0  0  0  0
    2.8003    2.2248   -2.6541 O   0  0  0  0  0  0  0  0  0  0  0  0
   -5.0258    5.1984   -2.9829 H   0  0  0  0  0  0  0  0  0  0  0  0
   -4.6153    4.8232   -1.2277 H   0  0  0  0  0  0  0  0  0  0  0  0
   -3.6417    4.5108   -4.7732 H   0  0  0  0  0  0  0  0  0  0  0  0
   -2.8468    2.9650   -4.4491 H   0  0  0  0  0  0  0  0  0  0  0  0
   -1.9255    4.4806   -4.3524 H   0  0  0  0  0  0  0  0  0  0  0  0
   -2.1377    2.4046   -2.0799 H   0  0  0  0  0  0  0  0  0  0  0  0
   -1.2374    3.9240   -1.9638 H   0  0  0  0  0  0  0  0  0  0  0  0
   -2.6588    4.5352    0.0649 H   0  0  0  0  0  0  0  0  0  0  0  0
   -3.4484    1.8177   -0.2352 H   0  0  0  0  0  0  0  0  0  0  0  0
   -1.5301    3.0736    1.6475 H   0  0  0  0  0  0  0  0  0  0  0  0
   -0.3843    3.6638    0.4732 H   0  0  0  0  0  0  0  0  0  0  0  0
    1.0079    3.1226   -0.8732 H   0  0  0  0  0  0  0  0  0  0  0  0
    0.9198   -1.7000   -2.1156 H   0  0  0  0  0  0  0  0  0  0  0  0
   -3.3795   -1.0231    1.4435 H   0  0  0  0  0  0  0  0  0  0  0  0
    0.7478   -1.0257    4.2335 H   0  0  0  0  0  0  0  0  0  0  0  0
    1.7734    0.5865    2.6315 H   0  0  0  0  0  0  0  0  0  0  0  0
    2.5563    0.2966    1.1093 H   0  0  0  0  0  0  0  0  0  0  0  0
    2.9770   -1.4154    3.6175 H   0  0  0  0  0  0  0  0  0  0  0  0
    3.8498    0.6397    3.8298 H   0  0  0  0  0  0  0  0  0  0  0  0
    3.3956   -2.8354    1.7768 H   0  0  0  0  0  0  0  0  0  0  0  0
    4.9451   -2.3451    2.4417 H   0  0  0  0  0  0  0  0  0  0  0  0
    3.3849   -2.9436   -0.5829 H   0  0  0  0  0  0  0  0  0  0  0  0
    4.4830   -1.8514   -1.5914 H   0  0  0  0  0  0  0  0  0  0  0  0
    5.1658    0.4997    0.7306 H   0  0  0  0  0  0  0  0  0  0  0  0
    6.4221   -0.6902    1.1471 H   0  0  0  0  0  0  0  0  0  0  0  0
    6.0345   -0.3600   -0.5422 H   0  0  0  0  0  0  0  0  0  0  0  0
   -3.4249    0.1065    5.9156 H   0  0  0  0  0  0  0  0  0  0  0  0
   -3.4859   -1.6695    6.0322 H   0  0  0  0  0  0  0  0  0  0  0  0
   -3.7485   -1.9593   -2.1247 H   0  0  0  0  0  0  0  0  0  0  0  0
   -2.9978   -4.5488   -2.5653 H   0  0  0  0  0  0  0  0  0  0  0  0
    0.6377   -5.6178   -0.5427 H   0  0  0  0  0  0  0  0  0  0  0  0
    0.8561   -3.3144    0.3723 H   0  0  0  0  0  0  0  0  0  0  0  0
    3.3460    1.4515   -4.4974 H   0  0  0  0  0  0  0  0  0  0  0  0
    4.4503    1.0741   -3.1500 H   0  0  0  0  0  0  0  0  0  0  0  0
  1  2  2  0
  2  3  1  0
  2  4  1  0
  4  5  1  0
  5  6  1  0
  5  7  1  0
  7  8  1  0
  8  9  1  0
  9 10  2  0
 10 11  1  0
 11 12  2  0
 12 13  1  0
 13 14  2  0
 14 15  1  0
 15 16  1  0
 16 17  2  0
 17 18  1  0
 18 19  2  0
 19 20  1  0
 20 21  2  0
 21 22  1  0
 22 23  1  0
 23 24  1  0
 24 25  1  0
 24 26  1  0
 26 27  1  0
 27 28  2  0
 27 29  1  0
 19 30  1  0
 30 31  1  0
 31 32  1  0
 15 33  1  0
 33 34  2  0
 33 35  1  0
 35 36  1  0
 36 37  2  0
 37 38  1  0
 38 39  1  0
 38 40  2  0
 40 41  1  0
 41 42  2  0
 12 43  1  0
 43 44  1  0
 44 45  1  0
 14  9  1  0
 42 15  1  0
 45 11  1  0
 21 16  1  0
 42 36  1  0
 32 18  1  0
  1 46  1  0
  1 47  1  0
  3 48  1  0
  3 49  1  0
  3 50  1  0
  4 51  1  0
  4 52  1  0
  5 53  1  1
  6 54  1  0
  7 55  1  0
  7 56  1  0
 10 57  1  0
 13 58  1  0
 17 59  1  0
 20 60  1  0
 23 61  1  0
 23 62  1  0
 24 63  1  1
 25 64  1  0
 26 65  1  0
 26 66  1  0
 28 67  1  0
 28 68  1  0
 29 69  1  0
 29 70  1  0
 29 71  1  0
 31 72  1  0
 31 73  1  0
 35 74  1  0
 37 75  1  0
 40 76  1  0
 41 77  1  0
 44 78  1  0
 44 79  1  0
M  END
$$$$
