
     RDKit          3D

 60 65  0  0  0  0  0  0  0  0999 V2000
    5.5608   -2.7046   -2.0252 C   0  0  0  0  0  0  0  0  0  0  0  0
    5.6188   -1.4715   -1.2016 C   0  0  0  0  0  0  0  0  0  0  0  0
    6.6766   -1.2519   -0.4087 N   0  0  0  0  0  0  0  0  0  0  0  0
    6.4528   -0.0195    0.1793 O   0  0  0  0  0  0  0  0  0  0  0  0
    5.2588    0.4799   -0.2431 C   0  0  0  0  0  0  0  0  0  0  0  0
    4.8915    1.8218    0.2525 C   0  0  0  0  0  0  0  0  0  0  0  0
    4.6646   -0.4286   -1.0940 C   0  0  0  0  0  0  0  0  0  0  0  0
    3.4006   -0.2848   -1.7772 C   0  0  0  0  0  0  0  0  0  0  0  0
    3.3447   -0.3486   -3.0022 O   0  0  0  0  0  0  0  0  0  0  0  0
    2.2571   -0.0807   -0.9800 N   0  0  0  0  0  0  0  0  0  0  0  0
    1.0103    0.0735   -1.7191 C   0  0  0  0  0  0  0  0  0  0  0  0
   -0.1166    0.6465   -0.8633 C   0  0  0  0  0  0  0  0  0  0  0  0
   -0.3468   -0.1815    0.4254 C   0  0  0  0  0  0  0  0  0  0  0  0
    1.0123   -0.1892    1.1733 C   0  0  0  0  0  0  0  0  0  0  0  0
    2.1415   -0.7524    0.3144 C   0  0  0  0  0  0  0  0  0  0  0  0
   -0.6844   -1.5172   -0.0203 O   0  0  0  0  0  0  0  0  0  0  0  0
   -1.1454   -2.3754    0.9399 C   0  0  0  0  0  0  0  0  0  0  0  0
   -1.1071   -3.7326    0.6183 C   0  0  0  0  0  0  0  0  0  0  0  0
   -1.5287   -4.6813    1.5516 C   0  0  0  0  0  0  0  0  0  0  0  0
   -1.9955   -4.2648    2.7949 C   0  0  0  0  0  0  0  0  0  0  0  0
   -2.3887   -5.1783    3.6892 F   0  0  0  0  0  0  0  0  0  0  0  0
   -2.0586   -2.9162    3.1206 C   0  0  0  0  0  0  0  0  0  0  0  0
   -1.6366   -1.9721    2.1811 C   0  0  0  0  0  0  0  0  0  0  0  0
   -1.7189   -0.5303    2.4813 C   0  0  0  0  0  0  0  0  0  0  0  0
   -1.9977   -0.1633    3.6175 O   0  0  0  0  0  0  0  0  0  0  0  0
   -1.4957    0.4025    1.2959 C   0  0  0  0  0  0  0  0  0  0  0  0
   -2.8355    0.5800    0.5900 C   0  0  0  0  0  0  0  0  0  0  0  0
   -2.8102    2.0557    0.3951 C   0  0  0  0  0  0  0  0  0  0  0  0
   -3.7831    2.7549   -0.4794 C   0  0  0  0  0  0  0  0  0  0  0  0
   -4.7764    2.0595   -1.1802 C   0  0  0  0  0  0  0  0  0  0  0  0
   -5.6654    2.7537   -2.0078 C   0  0  0  0  0  0  0  0  0  0  0  0
   -5.5630    4.1419   -2.1387 C   0  0  0  0  0  0  0  0  0  0  0  0
   -6.6542    4.9846   -3.1631 Cl  0  0  0  0  0  0  0  0  0  0  0  0
   -4.5824    4.8437   -1.4412 C   0  0  0  0  0  0  0  0  0  0  0  0
   -3.6951    4.1499   -0.6096 C   0  0  0  0  0  0  0  0  0  0  0  0
   -1.8789    2.6725    1.0488 N   0  0  0  0  0  0  0  0  0  0  0  0
   -1.1524    1.7050    1.7808 O   0  0  0  0  0  0  0  0  0  0  0  0
    6.5341   -2.9084   -2.4883 H   0  0  0  0  0  0  0  0  0  0  0  0
    4.8232   -2.6224   -2.8293 H   0  0  0  0  0  0  0  0  0  0  0  0
    5.2869   -3.5656   -1.4036 H   0  0  0  0  0  0  0  0  0  0  0  0
    4.5312    2.4534   -0.5705 H   0  0  0  0  0  0  0  0  0  0  0  0
    5.7517    2.3207    0.7060 H   0  0  0  0  0  0  0  0  0  0  0  0
    4.0968    1.7517    1.0077 H   0  0  0  0  0  0  0  0  0  0  0  0
    0.7345   -0.9066   -2.1288 H   0  0  0  0  0  0  0  0  0  0  0  0
    1.1796    0.7395   -2.5738 H   0  0  0  0  0  0  0  0  0  0  0  0
   -1.0188    0.6645   -1.4861 H   0  0  0  0  0  0  0  0  0  0  0  0
    0.1307    1.6844   -0.6068 H   0  0  0  0  0  0  0  0  0  0  0  0
    0.9610   -0.7883    2.0884 H   0  0  0  0  0  0  0  0  0  0  0  0
    1.2746    0.8321    1.4774 H   0  0  0  0  0  0  0  0  0  0  0  0
    3.0752   -0.6787    0.8761 H   0  0  0  0  0  0  0  0  0  0  0  0
    1.9815   -1.8188    0.1159 H   0  0  0  0  0  0  0  0  0  0  0  0
   -0.7322   -4.0560   -0.3503 H   0  0  0  0  0  0  0  0  0  0  0  0
   -1.4952   -5.7407    1.3208 H   0  0  0  0  0  0  0  0  0  0  0  0
   -2.4339   -2.6157    4.0941 H   0  0  0  0  0  0  0  0  0  0  0  0
   -2.9095    0.0252   -0.3492 H   0  0  0  0  0  0  0  0  0  0  0  0
   -3.6935    0.3284    1.2239 H   0  0  0  0  0  0  0  0  0  0  0  0
   -4.8823    0.9783   -1.1022 H   0  0  0  0  0  0  0  0  0  0  0  0
   -6.4334    2.2086   -2.5524 H   0  0  0  0  0  0  0  0  0  0  0  0
   -4.5016    5.9251   -1.5340 H   0  0  0  0  0  0  0  0  0  0  0  0
   -2.9338    4.7087   -0.0668 H   0  0  0  0  0  0  0  0  0  0  0  0
  1  2  1  0
  2  3  2  0
  3  4  1  0
  4  5  1  0
  5  6  1  0
  5  7  2  0
  7  8  1  0
  8  9  2  0
  8 10  1  0
 10 11  1  0
 11 12  1  0
 12 13  1  0
 13 14  1  0
 14 15  1  0
 13 16  1  0
 16 17  1  0
 17 18  2  0
 18 19  1  0
 19 20  2  0
 20 21  1  0
 20 22  1  0
 22 23  2  0
 23 24  1  0
 24 25  2  0
 24 26  1  0
 26 27  1  0
 27 28  1  0
 28 29  1  0
 29 30  2  0
 30 31  1  0
 31 32  2  0
 32 33  1  0
 32 34  1  0
 34 35  2  0
 28 36  2  0
 36 37  1  0
  7  2  1  0
 15 10  1  0
 23 17  1  0
 37 26  1  0
 26 13  1  0
 35 29  1  0
  1 38  1  0
  1 39  1  0
  1 40  1  0
  6 41  1  0
  6 42  1  0
  6 43  1  0
 11 44  1  0
 11 45  1  0
 12 46  1  0
 12 47  1  0
 14 48  1  0
 14 49  1  0
 15 50  1  0
 15 51  1  0
 18 52  1  0
 19 53  1  0
 22 54  1  0
 27 55  1  0
 27 56  1  0
 30 57  1  0
 31 58  1  0
 34 59  1  0
 35 60  1  0
M  END
$$$$
