
     RDKit          3D

 37 39  0  0  0  0  0  0  0  0999 V2000
   -0.3682   -1.6060    1.8395 C   0  0  0  0  0  0  0  0  0  0  0  0
   -0.8322   -0.6423    0.8628 N   0  0  0  0  0  0  0  0  0  0  0  0
   -0.1003    0.0495   -0.1117 C   0  0  0  0  0  0  0  0  0  0  0  0
    1.2283    0.1877   -0.2995 C   0  0  0  0  0  0  0  0  0  0  0  0
    2.3057   -0.2922    0.5418 C   0  0  0  0  0  0  0  0  0  0  0  0
    3.6135   -0.2721    0.2504 C   0  0  0  0  0  0  0  0  0  0  0  0
    4.3865    0.2835   -1.1902 S   0  0  0  0  0  0  0  0  0  0  0  0
    5.9801   -0.1110   -0.5878 C   0  0  0  0  0  0  0  0  0  0  0  0
    7.4157    0.1104   -1.3813 S   0  0  0  0  0  0  0  0  0  0  0  0
    5.8818   -0.6421    0.6613 N   0  0  0  0  0  0  0  0  0  0  0  0
    4.6363   -0.7773    1.2072 C   0  0  0  0  0  0  0  0  0  0  0  0
    4.4088   -1.2461    2.3105 O   0  0  0  0  0  0  0  0  0  0  0  0
   -1.1192    0.7635   -1.0670 C   0  0  0  0  0  0  0  0  0  0  0  0
   -1.0803    0.1614   -2.4788 C   0  0  0  0  0  0  0  0  0  0  0  0
   -0.9073    2.2847   -1.1109 C   0  0  0  0  0  0  0  0  0  0  0  0
   -2.4421    0.4384   -0.3931 C   0  0  0  0  0  0  0  0  0  0  0  0
   -3.7257    0.8354   -0.7491 C   0  0  0  0  0  0  0  0  0  0  0  0
   -4.7923    0.4092    0.0402 C   0  0  0  0  0  0  0  0  0  0  0  0
   -4.5640   -0.3966    1.1634 C   0  0  0  0  0  0  0  0  0  0  0  0
   -3.2662   -0.7920    1.5097 C   0  0  0  0  0  0  0  0  0  0  0  0
   -2.2013   -0.3793    0.7242 C   0  0  0  0  0  0  0  0  0  0  0  0
    0.4455   -2.2157    1.4332 H   0  0  0  0  0  0  0  0  0  0  0  0
   -0.0169   -1.0955    2.7419 H   0  0  0  0  0  0  0  0  0  0  0  0
   -1.1406   -2.3242    2.1332 H   0  0  0  0  0  0  0  0  0  0  0  0
    1.5462    0.7638   -1.1671 H   0  0  0  0  0  0  0  0  0  0  0  0
    2.0238   -0.6702    1.5196 H   0  0  0  0  0  0  0  0  0  0  0  0
    6.6956   -0.9383    1.1782 H   0  0  0  0  0  0  0  0  0  0  0  0
   -0.1198    0.3536   -2.9698 H   0  0  0  0  0  0  0  0  0  0  0  0
   -1.8643    0.5873   -3.1158 H   0  0  0  0  0  0  0  0  0  0  0  0
   -1.2314   -0.9248   -2.4589 H   0  0  0  0  0  0  0  0  0  0  0  0
    0.0489    2.5466   -1.5769 H   0  0  0  0  0  0  0  0  0  0  0  0
   -1.6945    2.7816   -1.6900 H   0  0  0  0  0  0  0  0  0  0  0  0
   -0.9181    2.7215   -0.1048 H   0  0  0  0  0  0  0  0  0  0  0  0
   -3.8999    1.4623   -1.6171 H   0  0  0  0  0  0  0  0  0  0  0  0
   -5.8069    0.7061   -0.2136 H   0  0  0  0  0  0  0  0  0  0  0  0
   -5.4044   -0.7163    1.7749 H   0  0  0  0  0  0  0  0  0  0  0  0
   -3.1206   -1.4044    2.3916 H   0  0  0  0  0  0  0  0  0  0  0  0
  1  2  1  0
  2  3  1  0
  3  4  2  3
  4  5  1  0
  5  6  2  3
  6  7  1  0
  7  8  1  0
  8  9  2  0
  8 10  1  0
 10 11  1  0
 11 12  2  0
  3 13  1  0
 13 14  1  0
 13 15  1  0
 13 16  1  0
 16 17  2  0
 17 18  1  0
 18 19  2  0
 19 20  1  0
 20 21  2  0
 21  2  1  0
 11  6  1  0
 21 16  1  0
  1 22  1  0
  1 23  1  0
  1 24  1  0
  4 25  1  0
  5 26  1  0
 10 27  1  0
 14 28  1  0
 14 29  1  0
 14 30  1  0
 15 31  1  0
 15 32  1  0
 15 33  1  0
 17 34  1  0
 18 35  1  0
 19 36  1  0
 20 37  1  0
M  END
$$$$
