
     RDKit          3D

 57 61  0  0  0  0  0  0  0  0999 V2000
   -5.6473   -2.8548   -0.4965 C   0  0  0  0  0  0  0  0  0  0  0  0
   -4.5974   -1.8247   -0.0711 C   0  0  0  0  0  0  0  0  0  0  0  0
   -5.2920   -0.5517    0.4086 C   0  0  0  0  0  0  0  0  0  0  0  0
   -3.6523   -1.5046   -1.2356 C   0  0  0  0  0  0  0  0  0  0  0  0
   -3.9879   -1.7483   -2.3970 O   0  0  0  0  0  0  0  0  0  0  0  0
   -2.4399   -0.8834   -0.9477 N   0  0  0  0  0  0  0  0  0  0  0  0
   -1.5988   -0.4551   -2.0631 C   0  0  0  0  0  0  0  0  0  0  0  0
   -0.8635    0.8352   -1.7185 C   0  0  0  0  0  0  0  0  0  0  0  0
    0.0540    0.7028   -0.4624 C   0  0  0  0  0  0  0  0  0  0  0  0
   -0.3543   -0.5565    0.3490 C   0  0  0  0  0  0  0  0  0  0  0  0
   -1.8706   -0.7389    0.3902 C   0  0  0  0  0  0  0  0  0  0  0  0
   -0.2212    1.8119    0.4371 O   0  0  0  0  0  0  0  0  0  0  0  0
    0.2624    3.0305    0.0520 C   0  0  0  0  0  0  0  0  0  0  0  0
   -0.3182    4.1428    0.6633 C   0  0  0  0  0  0  0  0  0  0  0  0
    0.1032    5.4271    0.3157 C   0  0  0  0  0  0  0  0  0  0  0  0
    1.1054    5.5887   -0.6359 C   0  0  0  0  0  0  0  0  0  0  0  0
    1.5058    6.8229   -0.9653 F   0  0  0  0  0  0  0  0  0  0  0  0
    1.7027    4.4907   -1.2412 C   0  0  0  0  0  0  0  0  0  0  0  0
    1.2812    3.2073   -0.8838 C   0  0  0  0  0  0  0  0  0  0  0  0
    1.9291    2.0193   -1.4689 C   0  0  0  0  0  0  0  0  0  0  0  0
    2.7407    2.1596   -2.3780 O   0  0  0  0  0  0  0  0  0  0  0  0
    1.5657    0.6828   -0.8288 C   0  0  0  0  0  0  0  0  0  0  0  0
    2.5311    0.4539    0.3283 C   0  0  0  0  0  0  0  0  0  0  0  0
    2.9143   -0.9573    0.0502 C   0  0  0  0  0  0  0  0  0  0  0  0
    3.6860   -1.7666    1.0219 C   0  0  0  0  0  0  0  0  0  0  0  0
    3.9186   -3.1193    0.7436 C   0  0  0  0  0  0  0  0  0  0  0  0
    4.6363   -3.9095    1.6433 C   0  0  0  0  0  0  0  0  0  0  0  0
    5.1259   -3.3522    2.8231 C   0  0  0  0  0  0  0  0  0  0  0  0
    4.9015   -2.0050    3.1038 C   0  0  0  0  0  0  0  0  0  0  0  0
    4.1837   -1.2103    2.2059 C   0  0  0  0  0  0  0  0  0  0  0  0
    2.5193   -1.4122   -1.0951 N   0  0  0  0  0  0  0  0  0  0  0  0
    1.8337   -0.3709   -1.7601 O   0  0  0  0  0  0  0  0  0  0  0  0
   -6.2866   -3.1294    0.3493 H   0  0  0  0  0  0  0  0  0  0  0  0
   -5.1675   -3.7673   -0.8668 H   0  0  0  0  0  0  0  0  0  0  0  0
   -6.2909   -2.4696   -1.2953 H   0  0  0  0  0  0  0  0  0  0  0  0
   -4.0338   -2.2720    0.7516 H   0  0  0  0  0  0  0  0  0  0  0  0
   -4.5776    0.1958    0.7625 H   0  0  0  0  0  0  0  0  0  0  0  0
   -5.8683   -0.0894   -0.4009 H   0  0  0  0  0  0  0  0  0  0  0  0
   -5.9794   -0.7705    1.2325 H   0  0  0  0  0  0  0  0  0  0  0  0
   -0.8969   -1.2662   -2.2891 H   0  0  0  0  0  0  0  0  0  0  0  0
   -2.2074   -0.2945   -2.9596 H   0  0  0  0  0  0  0  0  0  0  0  0
   -1.6127    1.6207   -1.5500 H   0  0  0  0  0  0  0  0  0  0  0  0
   -0.2909    1.1494   -2.5984 H   0  0  0  0  0  0  0  0  0  0  0  0
    0.0068   -0.4825    1.3818 H   0  0  0  0  0  0  0  0  0  0  0  0
    0.0795   -1.4636   -0.0856 H   0  0  0  0  0  0  0  0  0  0  0  0
   -2.1018   -1.6245    0.9873 H   0  0  0  0  0  0  0  0  0  0  0  0
   -2.3449    0.1250    0.8663 H   0  0  0  0  0  0  0  0  0  0  0  0
   -1.1075    4.0126    1.4000 H   0  0  0  0  0  0  0  0  0  0  0  0
   -0.3453    6.3023    0.7766 H   0  0  0  0  0  0  0  0  0  0  0  0
    2.4908    4.6431   -1.9735 H   0  0  0  0  0  0  0  0  0  0  0  0
    3.4302    1.0778    0.2711 H   0  0  0  0  0  0  0  0  0  0  0  0
    2.0729    0.5775    1.3120 H   0  0  0  0  0  0  0  0  0  0  0  0
    3.5454   -3.5671   -0.1757 H   0  0  0  0  0  0  0  0  0  0  0  0
    4.8149   -4.9586    1.4201 H   0  0  0  0  0  0  0  0  0  0  0  0
    5.6872   -3.9681    3.5218 H   0  0  0  0  0  0  0  0  0  0  0  0
    5.2910   -1.5725    4.0226 H   0  0  0  0  0  0  0  0  0  0  0  0
    4.0359   -0.1629    2.4502 H   0  0  0  0  0  0  0  0  0  0  0  0
  1  2  1  0
  2  3  1  0
  2  4  1  0
  4  5  2  0
  4  6  1  0
  6  7  1  0
  7  8  1  0
  8  9  1  0
  9 10  1  0
 10 11  1  0
  9 12  1  0
 12 13  1  0
 13 14  2  0
 14 15  1  0
 15 16  2  0
 16 17  1  0
 16 18  1  0
 18 19  2  0
 19 20  1  0
 20 21  2  0
 20 22  1  0
 22 23  1  0
 23 24  1  0
 24 25  1  0
 25 26  2  0
 26 27  1  0
 27 28  2  0
 28 29  1  0
 29 30  2  0
 24 31  2  0
 31 32  1  0
 11  6  1  0
 19 13  1  0
 32 22  1  0
 22  9  1  0
 30 25  1  0
  1 33  1  0
  1 34  1  0
  1 35  1  0
  2 36  1  0
  3 37  1  0
  3 38  1  0
  3 39  1  0
  7 40  1  0
  7 41  1  0
  8 42  1  0
  8 43  1  0
 10 44  1  0
 10 45  1  0
 11 46  1  0
 11 47  1  0
 14 48  1  0
 15 49  1  0
 18 50  1  0
 23 51  1  0
 23 52  1  0
 26 53  1  0
 27 54  1  0
 28 55  1  0
 29 56  1  0
 30 57  1  0
M  END
$$$$
