
     RDKit          3D

 52 55  0  0  0  0  0  0  0  0999 V2000
    7.4235   -2.2999    2.9028 C   0  0  0  0  0  0  0  0  0  0  0  0
    6.9325   -0.9668    3.0004 O   0  0  0  0  0  0  0  0  0  0  0  0
    5.6270   -0.7617    2.6513 C   0  0  0  0  0  0  0  0  0  0  0  0
    4.6993   -1.7466    2.3142 C   0  0  0  0  0  0  0  0  0  0  0  0
    3.3868   -1.3900    1.9756 C   0  0  0  0  0  0  0  0  0  0  0  0
    2.9815   -0.0487    1.9763 C   0  0  0  0  0  0  0  0  0  0  0  0
    1.6466    0.2193    1.6204 N   0  0  0  0  0  0  0  0  0  0  0  0
    1.0136    1.4431    1.5317 C   0  0  0  0  0  0  0  0  0  0  0  0
    1.5278    2.5332    1.7804 O   0  0  0  0  0  0  0  0  0  0  0  0
   -0.4550    1.3936    1.1210 C   0  0  0  0  0  0  0  0  0  0  0  0
   -1.0073   -0.2384    0.5248 S   0  0  0  0  0  0  0  0  0  0  0  0
   -2.5733    0.2479   -0.1374 C   0  0  0  0  0  0  0  0  0  0  0  0
   -3.2801    1.0522    0.5968 N   0  0  0  0  0  0  0  0  0  0  0  0
   -4.5387    1.3262    0.1551 C   0  0  0  0  0  0  0  0  0  0  0  0
   -5.1116    0.7757   -0.9115 C   0  0  0  0  0  0  0  0  0  0  0  0
   -4.3430   -0.1706   -1.7471 C   0  0  0  0  0  0  0  0  0  0  0  0
   -4.8630   -0.7236   -2.7167 O   0  0  0  0  0  0  0  0  0  0  0  0
   -3.0158   -0.3342   -1.3299 N   0  0  0  0  0  0  0  0  0  0  0  0
   -2.1346   -1.0324   -2.2145 C   0  0  0  0  0  0  0  0  0  0  0  0
   -2.4163   -2.3636   -2.5529 C   0  0  0  0  0  0  0  0  0  0  0  0
   -1.5703   -3.0665   -3.4079 C   0  0  0  0  0  0  0  0  0  0  0  0
   -0.4388   -2.4380   -3.9365 C   0  0  0  0  0  0  0  0  0  0  0  0
   -0.1637   -1.1031   -3.6314 C   0  0  0  0  0  0  0  0  0  0  0  0
   -1.0106   -0.3842   -2.7814 C   0  0  0  0  0  0  0  0  0  0  0  0
   -0.8614    0.9471   -2.4781 O   0  0  0  0  0  0  0  0  0  0  0  0
    0.1927    1.6534   -3.1232 C   0  0  0  0  0  0  0  0  0  0  0  0
   -6.7261    1.2641   -1.2149 S   0  0  0  0  0  0  0  0  0  0  0  0
   -6.6211    2.5969    0.0300 C   0  0  0  0  0  0  0  0  0  0  0  0
   -5.4197    2.2668    0.9244 C   0  0  0  0  0  0  0  0  0  0  0  0
    3.9119    0.9307    2.3205 C   0  0  0  0  0  0  0  0  0  0  0  0
    5.2238    0.5737    2.6553 C   0  0  0  0  0  0  0  0  0  0  0  0
    8.4889   -2.2828    3.1538 H   0  0  0  0  0  0  0  0  0  0  0  0
    7.3308   -2.6834    1.8806 H   0  0  0  0  0  0  0  0  0  0  0  0
    6.9215   -2.9589    3.6216 H   0  0  0  0  0  0  0  0  0  0  0  0
    4.9603   -2.8002    2.3054 H   0  0  0  0  0  0  0  0  0  0  0  0
    2.6858   -2.1813    1.7162 H   0  0  0  0  0  0  0  0  0  0  0  0
    1.0726   -0.5812    1.3733 H   0  0  0  0  0  0  0  0  0  0  0  0
   -1.0491    1.6880    1.9921 H   0  0  0  0  0  0  0  0  0  0  0  0
   -0.5907    2.1266    0.3209 H   0  0  0  0  0  0  0  0  0  0  0  0
   -3.2953   -2.8629   -2.1487 H   0  0  0  0  0  0  0  0  0  0  0  0
   -1.7966   -4.0993   -3.6682 H   0  0  0  0  0  0  0  0  0  0  0  0
    0.2186   -2.9868   -4.6065 H   0  0  0  0  0  0  0  0  0  0  0  0
    0.7104   -0.6540   -4.0888 H   0  0  0  0  0  0  0  0  0  0  0  0
    0.1350    2.6991   -2.8089 H   0  0  0  0  0  0  0  0  0  0  0  0
    1.1719    1.2667   -2.8179 H   0  0  0  0  0  0  0  0  0  0  0  0
    0.0758    1.6272   -4.2127 H   0  0  0  0  0  0  0  0  0  0  0  0
   -6.4588    3.5463   -0.4935 H   0  0  0  0  0  0  0  0  0  0  0  0
   -7.5498    2.6702    0.6052 H   0  0  0  0  0  0  0  0  0  0  0  0
   -4.8870    3.1894    1.2000 H   0  0  0  0  0  0  0  0  0  0  0  0
   -5.7533    1.7836    1.8567 H   0  0  0  0  0  0  0  0  0  0  0  0
    3.6551    1.9851    2.3430 H   0  0  0  0  0  0  0  0  0  0  0  0
    5.9369    1.3528    2.9189 H   0  0  0  0  0  0  0  0  0  0  0  0
  1  2  1  0
  2  3  1  0
  3  4  2  0
  4  5  1  0
  5  6  2  0
  6  7  1  0
  7  8  1  0
  8  9  2  0
  8 10  1  0
 10 11  1  0
 11 12  1  0
 12 13  2  0
 13 14  1  0
 14 15  2  0
 15 16  1  0
 16 17  2  0
 16 18  1  0
 18 19  1  0
 19 20  2  0
 20 21  1  0
 21 22  2  0
 22 23  1  0
 23 24  2  0
 24 25  1  0
 25 26  1  0
 15 27  1  0
 27 28  1  0
 28 29  1  0
  6 30  1  0
 30 31  2  0
 31  3  1  0
 18 12  1  0
 24 19  1  0
 29 14  1  0
  1 32  1  0
  1 33  1  0
  1 34  1  0
  4 35  1  0
  5 36  1  0
  7 37  1  0
 10 38  1  0
 10 39  1  0
 20 40  1  0
 21 41  1  0
 22 42  1  0
 23 43  1  0
 26 44  1  0
 26 45  1  0
 26 46  1  0
 28 47  1  0
 28 48  1  0
 29 49  1  0
 29 50  1  0
 30 51  1  0
 31 52  1  0
M  END
$$$$
