
     RDKit          3D

 47 50  0  0  0  0  0  0  0  0999 V2000
   -4.5367    2.8686    0.6004 C   0  0  0  0  0  0  0  0  0  0  0  0
   -4.3590    1.3606    0.7832 C   0  0  0  0  0  0  0  0  0  0  0  0
   -2.9111    1.0010    1.0818 C   0  0  0  0  0  0  0  0  0  0  0  0
   -2.0149    1.0481   -0.1363 C   0  0  0  0  0  0  0  0  0  0  0  0
   -1.3017    2.0364   -0.3423 O   0  0  0  0  0  0  0  0  0  0  0  0
   -1.9499   -0.0846   -0.9406 N   0  0  0  0  0  0  0  0  0  0  0  0
   -0.9574   -0.0960   -2.0220 C   0  0  0  0  0  0  0  0  0  0  0  0
    0.4545   -0.4151   -1.5139 C   0  0  0  0  0  0  0  0  0  0  0  0
    0.9608   -1.5152   -1.7192 O   0  0  0  0  0  0  0  0  0  0  0  0
    1.0297    0.6403   -0.8268 N   0  0  0  0  0  0  0  0  0  0  0  0
    2.3056    0.7000   -0.2348 C   0  0  0  0  0  0  0  0  0  0  0  0
    2.6220    1.8722    0.4674 C   0  0  0  0  0  0  0  0  0  0  0  0
    3.8685    2.0239    1.0805 C   0  0  0  0  0  0  0  0  0  0  0  0
    4.8100    1.0046    0.9915 C   0  0  0  0  0  0  0  0  0  0  0  0
    4.4942   -0.1770    0.3151 C   0  0  0  0  0  0  0  0  0  0  0  0
    3.2526   -0.3234   -0.3091 C   0  0  0  0  0  0  0  0  0  0  0  0
    5.3624   -1.2360    0.2148 O   0  0  0  0  0  0  0  0  0  0  0  0
    6.4336   -1.1248    1.1578 C   0  0  0  0  0  0  0  0  0  0  0  0
    7.0034    0.2837    1.1562 C   0  0  0  0  0  0  0  0  0  0  0  0
    6.0200    1.2274    1.5965 O   0  0  0  0  0  0  0  0  0  0  0  0
   -2.8351   -1.2023   -0.8232 C   0  0  0  0  0  0  0  0  0  0  0  0
   -2.3119   -2.5014   -0.9372 C   0  0  0  0  0  0  0  0  0  0  0  0
   -3.1343   -3.6235   -0.8121 C   0  0  0  0  0  0  0  0  0  0  0  0
   -4.4971   -3.4669   -0.5901 C   0  0  0  0  0  0  0  0  0  0  0  0
   -5.0412   -2.1866   -0.5037 C   0  0  0  0  0  0  0  0  0  0  0  0
   -4.2242   -1.0508   -0.6146 C   0  0  0  0  0  0  0  0  0  0  0  0
   -5.0647    0.5285   -0.6832 S   0  0  0  0  0  0  0  0  0  0  0  0
   -3.9832    3.2464   -0.2666 H   0  0  0  0  0  0  0  0  0  0  0  0
   -4.1737    3.4065    1.4835 H   0  0  0  0  0  0  0  0  0  0  0  0
   -5.5926    3.1342    0.4750 H   0  0  0  0  0  0  0  0  0  0  0  0
   -4.9660    1.0561    1.6442 H   0  0  0  0  0  0  0  0  0  0  0  0
   -2.8388    0.0117    1.5505 H   0  0  0  0  0  0  0  0  0  0  0  0
   -2.4954    1.6879    1.8307 H   0  0  0  0  0  0  0  0  0  0  0  0
   -1.2343   -0.8169   -2.8001 H   0  0  0  0  0  0  0  0  0  0  0  0
   -0.9393    0.8876   -2.5081 H   0  0  0  0  0  0  0  0  0  0  0  0
    0.4297    1.4561   -0.6863 H   0  0  0  0  0  0  0  0  0  0  0  0
    1.9021    2.6842    0.5437 H   0  0  0  0  0  0  0  0  0  0  0  0
    4.1059    2.9392    1.6152 H   0  0  0  0  0  0  0  0  0  0  0  0
    3.0543   -1.2495   -0.8378 H   0  0  0  0  0  0  0  0  0  0  0  0
    6.0566   -1.4050    2.1493 H   0  0  0  0  0  0  0  0  0  0  0  0
    7.2052   -1.8456    0.8699 H   0  0  0  0  0  0  0  0  0  0  0  0
    7.3459    0.5777    0.1563 H   0  0  0  0  0  0  0  0  0  0  0  0
    7.8547    0.3484    1.8411 H   0  0  0  0  0  0  0  0  0  0  0  0
   -1.2482   -2.6700   -1.0893 H   0  0  0  0  0  0  0  0  0  0  0  0
   -2.7047   -4.6199   -0.8889 H   0  0  0  0  0  0  0  0  0  0  0  0
   -5.1399   -4.3393   -0.5025 H   0  0  0  0  0  0  0  0  0  0  0  0
   -6.1162   -2.0818   -0.3701 H   0  0  0  0  0  0  0  0  0  0  0  0
  1  2  1  0
  2  3  1  0
  3  4  1  0
  4  5  2  0
  4  6  1  0
  6  7  1  0
  7  8  1  0
  8  9  2  0
  8 10  1  0
 10 11  1  0
 11 12  2  0
 12 13  1  0
 13 14  2  0
 14 15  1  0
 15 16  2  0
 15 17  1  0
 17 18  1  0
 18 19  1  0
 19 20  1  0
  6 21  1  0
 21 22  2  0
 22 23  1  0
 23 24  2  0
 24 25  1  0
 25 26  2  0
 26 27  1  0
 27  2  1  0
 16 11  1  0
 26 21  1  0
 20 14  1  0
  1 28  1  0
  1 29  1  0
  1 30  1  0
  2 31  1  0
  3 32  1  0
  3 33  1  0
  7 34  1  0
  7 35  1  0
 10 36  1  0
 12 37  1  0
 13 38  1  0
 16 39  1  0
 18 40  1  0
 18 41  1  0
 19 42  1  0
 19 43  1  0
 22 44  1  0
 23 45  1  0
 24 46  1  0
 25 47  1  0
M  END
$$$$
