
     RDKit          3D

 37 39  0  0  0  0  0  0  0  0999 V2000
    6.0722    3.1170   -2.1703 C   0  0  0  0  0  0  0  0  0  0  0  0
    4.7437    3.5142   -1.8548 O   0  0  0  0  0  0  0  0  0  0  0  0
    3.8705    2.5267   -1.4826 C   0  0  0  0  0  0  0  0  0  0  0  0
    2.5848    2.9808   -1.1883 C   0  0  0  0  0  0  0  0  0  0  0  0
    1.5727    2.0973   -0.7914 C   0  0  0  0  0  0  0  0  0  0  0  0
    1.8565    0.7202   -0.6859 C   0  0  0  0  0  0  0  0  0  0  0  0
    1.0999   -0.4397   -0.3224 C   0  0  0  0  0  0  0  0  0  0  0  0
   -0.2766   -0.4640    0.0678 C   0  0  0  0  0  0  0  0  0  0  0  0
   -1.0031   -1.5623    0.3381 C   0  0  0  0  0  0  0  0  0  0  0  0
   -2.4159   -1.5232    0.7302 C   0  0  0  0  0  0  0  0  0  0  0  0
   -3.3016   -2.4473    0.1797 C   0  0  0  0  0  0  0  0  0  0  0  0
   -4.6388   -2.4324    0.5604 C   0  0  0  0  0  0  0  0  0  0  0  0
   -5.0848   -1.5413    1.4737 N   0  0  0  0  0  4  0  0  0  0  0  0
   -6.5079   -1.5366    1.8533 C   0  0  0  0  0  0  0  0  0  0  0  0
   -4.2423   -0.6416    2.0285 C   0  0  0  0  0  0  0  0  0  0  0  0
   -2.8979   -0.6186    1.6753 C   0  0  0  0  0  0  0  0  0  0  0  0
    1.9442   -1.5257   -0.4112 C   0  0  0  0  0  0  0  0  0  0  0  0
    3.1752   -1.0739   -0.8127 N   0  0  0  0  0  0  0  0  0  0  0  0
    3.1500    0.2909   -0.9867 C   0  0  0  0  0  0  0  0  0  0  0  0
    4.1746    1.1651   -1.3857 C   0  0  0  0  0  0  0  0  0  0  0  0
    6.0877    2.4389   -3.0299 H   0  0  0  0  0  0  0  0  0  0  0  0
    6.6334    4.0154   -2.4450 H   0  0  0  0  0  0  0  0  0  0  0  0
    6.5664    2.6680   -1.3025 H   0  0  0  0  0  0  0  0  0  0  0  0
    2.3636    4.0429   -1.2694 H   0  0  0  0  0  0  0  0  0  0  0  0
    0.5829    2.4834   -0.5717 H   0  0  0  0  0  0  0  0  0  0  0  0
   -0.7578    0.5096    0.1300 H   0  0  0  0  0  0  0  0  0  0  0  0
   -0.5600   -2.5517    0.2505 H   0  0  0  0  0  0  0  0  0  0  0  0
   -2.9607   -3.1734   -0.5565 H   0  0  0  0  0  0  0  0  0  0  0  0
   -5.3587   -3.1287    0.1393 H   0  0  0  0  0  0  0  0  0  0  0  0
   -7.0249   -0.8535    1.1749 H   0  0  0  0  0  0  0  0  0  0  0  0
   -6.9065   -2.5505    1.7640 H   0  0  0  0  0  0  0  0  0  0  0  0
   -6.6009   -1.2019    2.8897 H   0  0  0  0  0  0  0  0  0  0  0  0
   -4.6522    0.0539    2.7557 H   0  0  0  0  0  0  0  0  0  0  0  0
   -2.2332    0.1018    2.1489 H   0  0  0  0  0  0  0  0  0  0  0  0
    1.7949   -2.5803   -0.2255 H   0  0  0  0  0  0  0  0  0  0  0  0
    3.9902   -1.6540   -0.9599 H   0  0  0  0  0  0  0  0  0  0  0  0
    5.1603    0.7745   -1.6061 H   0  0  0  0  0  0  0  0  0  0  0  0
  1  2  1  0
  2  3  1  0
  3  4  2  0
  4  5  1  0
  5  6  2  0
  6  7  1  0
  7  8  1  0
  8  9  2  3
  9 10  1  0
 10 11  2  0
 11 12  1  0
 12 13  2  0
 13 14  1  0
 13 15  1  0
 15 16  2  0
  7 17  2  0
 17 18  1  0
 18 19  1  0
 19 20  2  0
 20  3  1  0
 19  6  1  0
 16 10  1  0
  1 21  1  0
  1 22  1  0
  1 23  1  0
  4 24  1  0
  5 25  1  0
  8 26  1  0
  9 27  1  0
 11 28  1  0
 12 29  1  0
 14 30  1  0
 14 31  1  0
 14 32  1  0
 15 33  1  0
 16 34  1  0
 17 35  1  0
 18 36  1  0
 20 37  1  0
M  CHG  1  13   1
M  END
$$$$
