
     RDKit          3D

 37 39  0  0  0  0  0  0  0  0999 V2000
    7.9420    0.8021   -0.7977 C   0  0  0  0  0  0  0  0  0  0  0  0
    6.5825    0.8207   -0.1170 C   0  0  0  0  0  0  0  0  0  0  0  0
    5.9614   -0.5753   -0.0697 C   0  0  0  0  0  0  0  0  0  0  0  0
    4.6372   -0.5583    0.6207 C   0  0  0  0  0  0  0  0  0  0  0  0
    4.4681   -0.6559    1.9234 N   0  0  0  0  0  0  0  0  0  0  0  0
    3.1338   -0.6087    2.2739 N   0  0  0  0  0  0  0  0  0  0  0  0
    2.3493   -0.4788    1.2269 C   0  0  0  0  0  0  0  0  0  0  0  0
    0.9843   -0.4117    1.3535 N   0  0  0  0  0  0  0  0  0  0  0  0
    0.0608   -0.2761    0.3339 C   0  0  0  0  0  0  0  0  0  0  0  0
    0.3103   -0.1922   -0.8634 O   0  0  0  0  0  0  0  0  0  0  0  0
   -1.3734   -0.2398    0.8821 C   0  0  0  0  0  0  0  0  0  0  0  0
   -2.3254   -0.1007   -0.1602 O   0  0  0  0  0  0  0  0  0  0  0  0
   -3.6463   -0.0563    0.1930 C   0  0  0  0  0  0  0  0  0  0  0  0
   -4.1509   -0.1343    1.5051 C   0  0  0  0  0  0  0  0  0  0  0  0
   -5.5305   -0.0778    1.7434 C   0  0  0  0  0  0  0  0  0  0  0  0
   -6.3674    0.0558    0.6577 C   0  0  0  0  0  0  0  0  0  0  0  0
   -5.8789    0.1323   -0.6236 C   0  0  0  0  0  0  0  0  0  0  0  0
   -4.5270    0.0794   -0.8869 C   0  0  0  0  0  0  0  0  0  0  0  0
   -6.8672    0.2605   -1.5485 O   0  0  0  0  0  0  0  0  0  0  0  0
   -8.0345    0.2561   -0.7012 C   0  0  0  0  0  0  0  0  0  0  0  0
   -7.7241    0.1264    0.7024 O   0  0  0  0  0  0  0  0  0  0  0  0
    3.1716   -0.4047   -0.2611 S   0  0  0  0  0  0  0  0  0  0  0  0
    8.6395    0.1495   -0.2630 H   0  0  0  0  0  0  0  0  0  0  0  0
    7.8592    0.4459   -1.8294 H   0  0  0  0  0  0  0  0  0  0  0  0
    8.3687    1.8097   -0.8195 H   0  0  0  0  0  0  0  0  0  0  0  0
    6.6947    1.2176    0.8995 H   0  0  0  0  0  0  0  0  0  0  0  0
    5.9214    1.5111   -0.6548 H   0  0  0  0  0  0  0  0  0  0  0  0
    6.6292   -1.2574    0.4712 H   0  0  0  0  0  0  0  0  0  0  0  0
    5.8612   -0.9776   -1.0852 H   0  0  0  0  0  0  0  0  0  0  0  0
    0.6758   -0.4724    2.3140 H   0  0  0  0  0  0  0  0  0  0  0  0
   -1.5409   -1.1811    1.4201 H   0  0  0  0  0  0  0  0  0  0  0  0
   -1.4393    0.6145    1.5671 H   0  0  0  0  0  0  0  0  0  0  0  0
   -3.4969   -0.2396    2.3641 H   0  0  0  0  0  0  0  0  0  0  0  0
   -5.9308   -0.1368    2.7494 H   0  0  0  0  0  0  0  0  0  0  0  0
   -4.1562    0.1410   -1.9044 H   0  0  0  0  0  0  0  0  0  0  0  0
   -8.6790   -0.5800   -0.9961 H   0  0  0  0  0  0  0  0  0  0  0  0
   -8.5823    1.1932   -0.8537 H   0  0  0  0  0  0  0  0  0  0  0  0
  1  2  1  0
  2  3  1  0
  3  4  1  0
  4  5  2  0
  5  6  1  0
  6  7  2  0
  7  8  1  0
  8  9  1  0
  9 10  2  0
  9 11  1  0
 11 12  1  0
 12 13  1  0
 13 14  2  0
 14 15  1  0
 15 16  2  0
 16 17  1  0
 17 18  2  0
 17 19  1  0
 19 20  1  0
 20 21  1  0
  7 22  1  0
 22  4  1  0
 18 13  1  0
 21 16  1  0
  1 23  1  0
  1 24  1  0
  1 25  1  0
  2 26  1  0
  2 27  1  0
  3 28  1  0
  3 29  1  0
  8 30  1  0
 11 31  1  0
 11 32  1  0
 14 33  1  0
 15 34  1  0
 18 35  1  0
 20 36  1  0
 20 37  1  0
M  END
$$$$
