
     RDKit          3D

 55 57  0  0  0  0  0  0  0  0999 V2000
   -2.7076    1.5384    2.0758 C   0  0  0  0  0  0  0  0  0  0  0  0
   -2.8121    0.8808    0.8160 O   0  0  0  0  0  0  0  0  0  0  0  0
   -3.9647    0.1747    0.5819 C   0  0  0  0  0  0  0  0  0  0  0  0
   -5.0416    0.0625    1.4641 C   0  0  0  0  0  0  0  0  0  0  0  0
   -6.1802   -0.6887    1.1147 C   0  0  0  0  0  0  0  0  0  0  0  0
   -7.3027   -0.7640    2.0985 C   0  0  0  0  0  0  0  0  0  0  0  0
   -8.5097   -1.6078    1.7733 C   0  0  0  0  0  0  0  0  0  0  0  0
   -7.2288   -0.1357    3.1524 O   0  0  0  0  0  0  0  0  0  0  0  0
   -6.2399   -1.3264   -0.1313 C   0  0  0  0  0  0  0  0  0  0  0  0
   -5.1696   -1.2173   -1.0198 C   0  0  0  0  0  0  0  0  0  0  0  0
   -4.0409   -0.4840   -0.6536 C   0  0  0  0  0  0  0  0  0  0  0  0
   -3.0162   -0.3641   -1.5556 O   0  0  0  0  0  0  0  0  0  0  0  0
   -2.1129   -1.4693   -1.4448 C   0  0  0  0  0  0  0  0  0  0  0  0
   -0.6609   -0.9942   -1.5245 C   0  0  0  0  0  0  0  0  0  0  0  0
    0.2308   -1.7570   -1.8881 O   0  0  0  0  0  0  0  0  0  0  0  0
   -0.4985    0.3130   -1.0974 N   0  0  0  0  0  0  0  0  0  0  0  0
    0.6820    1.0731   -1.0496 C   0  0  0  0  0  0  0  0  0  0  0  0
    0.5759    2.3755   -0.5523 C   0  0  0  0  0  0  0  0  0  0  0  0
    1.7019    3.1987   -0.4653 C   0  0  0  0  0  0  0  0  0  0  0  0
    2.9541    2.7367   -0.8810 C   0  0  0  0  0  0  0  0  0  0  0  0
    4.2776    3.8276   -0.6978 Cl  0  0  0  0  0  0  0  0  0  0  0  0
    3.0636    1.4409   -1.3864 C   0  0  0  0  0  0  0  0  0  0  0  0
    4.6139    0.8023   -1.9552 S   0  0  0  0  0  6  0  0  0  0  0  0
    5.1610    1.7438   -2.9062 O   0  0  0  0  0  0  0  0  0  0  0  0
    4.4406   -0.5866   -2.3269 O   0  0  0  0  0  0  0  0  0  0  0  0
    5.5897    0.8004   -0.5566 N   0  0  0  0  0  0  0  0  0  0  0  0
    5.0759   -0.0202    0.5894 C   0  0  0  0  0  0  0  0  0  0  0  0
    6.2061   -0.3145    1.5808 C   0  0  0  0  0  0  0  0  0  0  0  0
    7.2478   -1.1158    1.0087 O   0  0  0  0  0  0  0  0  0  0  0  0
    7.4334   -0.8829   -0.3959 C   0  0  0  0  0  0  0  0  0  0  0  0
    7.0416    0.5328   -0.8337 C   0  0  0  0  0  0  0  0  0  0  0  0
    1.9295    0.6114   -1.4723 C   0  0  0  0  0  0  0  0  0  0  0  0
   -1.7308    2.0327    2.1162 H   0  0  0  0  0  0  0  0  0  0  0  0
   -2.7486    0.8198    2.9024 H   0  0  0  0  0  0  0  0  0  0  0  0
   -3.4767    2.3104    2.1807 H   0  0  0  0  0  0  0  0  0  0  0  0
   -5.0283    0.5541    2.4338 H   0  0  0  0  0  0  0  0  0  0  0  0
   -8.2176   -2.6503    1.6354 H   0  0  0  0  0  0  0  0  0  0  0  0
   -9.0142   -1.2198    0.8832 H   0  0  0  0  0  0  0  0  0  0  0  0
   -9.2153   -1.5636    2.6114 H   0  0  0  0  0  0  0  0  0  0  0  0
   -7.1080   -1.9022   -0.4398 H   0  0  0  0  0  0  0  0  0  0  0  0
   -5.2177   -1.6944   -1.9970 H   0  0  0  0  0  0  0  0  0  0  0  0
   -2.2224   -2.0276   -0.5058 H   0  0  0  0  0  0  0  0  0  0  0  0
   -2.3003   -2.1392   -2.2924 H   0  0  0  0  0  0  0  0  0  0  0  0
   -1.3609    0.7661   -0.7935 H   0  0  0  0  0  0  0  0  0  0  0  0
   -0.3853    2.7685   -0.2261 H   0  0  0  0  0  0  0  0  0  0  0  0
    1.5916    4.2058   -0.0698 H   0  0  0  0  0  0  0  0  0  0  0  0
    4.6625   -0.9660    0.2228 H   0  0  0  0  0  0  0  0  0  0  0  0
    4.2884    0.5428    1.0996 H   0  0  0  0  0  0  0  0  0  0  0  0
    5.8173   -0.8531    2.4519 H   0  0  0  0  0  0  0  0  0  0  0  0
    6.6545    0.6195    1.9453 H   0  0  0  0  0  0  0  0  0  0  0  0
    8.4882   -1.0697   -0.6204 H   0  0  0  0  0  0  0  0  0  0  0  0
    6.8460   -1.6279   -0.9438 H   0  0  0  0  0  0  0  0  0  0  0  0
    7.2783    0.6692   -1.8940 H   0  0  0  0  0  0  0  0  0  0  0  0
    7.6199    1.2821   -0.2781 H   0  0  0  0  0  0  0  0  0  0  0  0
    2.0408   -0.3885   -1.8832 H   0  0  0  0  0  0  0  0  0  0  0  0
  1  2  1  0
  2  3  1  0
  3  4  2  0
  4  5  1  0
  5  6  1  0
  6  7  1  0
  6  8  2  0
  5  9  2  0
  9 10  1  0
 10 11  2  0
 11 12  1  0
 12 13  1  0
 13 14  1  0
 14 15  2  0
 14 16  1  0
 16 17  1  0
 17 18  2  0
 18 19  1  0
 19 20  2  0
 20 21  1  0
 20 22  1  0
 22 23  1  0
 23 24  2  0
 23 25  2  0
 23 26  1  0
 26 27  1  0
 27 28  1  0
 28 29  1  0
 29 30  1  0
 30 31  1  0
 22 32  2  0
 11  3  1  0
 32 17  1  0
 31 26  1  0
  1 33  1  0
  1 34  1  0
  1 35  1  0
  4 36  1  0
  7 37  1  0
  7 38  1  0
  7 39  1  0
  9 40  1  0
 10 41  1  0
 13 42  1  0
 13 43  1  0
 16 44  1  0
 18 45  1  0
 19 46  1  0
 27 47  1  0
 27 48  1  0
 28 49  1  0
 28 50  1  0
 30 51  1  0
 30 52  1  0
 31 53  1  0
 31 54  1  0
 32 55  1  0
M  END
$$$$
