
     RDKit          3D

 56 58  0  0  0  0  0  0  0  0999 V2000
    7.3068    1.3834    2.7694 C   0  0  0  0  0  0  0  0  0  0  0  0
    7.6449    0.6840    1.5777 O   0  0  0  0  0  0  0  0  0  0  0  0
    6.7357    0.7314    0.5570 C   0  0  0  0  0  0  0  0  0  0  0  0
    5.4977    1.3711    0.5884 C   0  0  0  0  0  0  0  0  0  0  0  0
    4.6620    1.3406   -0.5336 C   0  0  0  0  0  0  0  0  0  0  0  0
    5.0527    0.6726   -1.7019 C   0  0  0  0  0  0  0  0  0  0  0  0
    4.1365    0.6343   -2.8955 C   0  0  0  0  0  0  0  0  0  0  0  0
    3.0333   -0.2591   -2.6587 N   0  0  0  0  0  0  0  0  0  0  0  0
    1.7197    0.1229   -2.7851 C   0  0  0  0  0  0  0  0  0  0  0  0
    1.3091    1.2273   -3.1162 O   0  0  0  0  0  0  0  0  0  0  0  0
    0.7138   -1.0018   -2.4500 C   0  0  0  0  0  0  0  0  0  0  0  0
    1.1135   -2.0736   -2.0185 O   0  0  0  0  0  0  0  0  0  0  0  0
   -0.5978   -0.6516   -2.6901 N   0  0  0  0  0  0  0  0  0  0  0  0
   -1.7027   -1.4704   -2.2236 C   0  0  0  0  0  0  0  0  0  0  0  0
   -2.1651   -1.1130   -0.7895 C   0  0  0  0  0  0  0  0  0  0  0  0
   -1.0899   -1.2761    0.1559 O   0  0  0  0  0  0  0  0  0  0  0  0
   -1.2716   -2.5616    0.7601 C   0  0  0  0  0  0  0  0  0  0  0  0
   -2.7758   -2.6966    0.8643 C   0  0  0  0  0  0  0  0  0  0  0  0
   -3.2250   -2.0308   -0.3579 N   0  0  0  0  0  0  0  0  0  0  0  0
   -4.8196   -1.5664   -0.5402 S   0  0  0  0  0  6  0  0  0  0  0  0
   -4.9462   -0.9607   -1.8499 O   0  0  0  0  0  0  0  0  0  0  0  0
   -5.6498   -2.6867   -0.1517 O   0  0  0  0  0  0  0  0  0  0  0  0
   -5.0564   -0.2825    0.6707 C   0  0  0  0  0  0  0  0  0  0  0  0
   -5.4996   -0.6166    1.9542 C   0  0  0  0  0  0  0  0  0  0  0  0
   -5.7159    0.3916    2.8954 C   0  0  0  0  0  0  0  0  0  0  0  0
   -5.5213    1.7361    2.5520 C   0  0  0  0  0  0  0  0  0  0  0  0
   -5.7279    2.8200    3.5697 C   0  0  0  0  0  0  0  0  0  0  0  0
   -5.0951    2.0596    1.2563 C   0  0  0  0  0  0  0  0  0  0  0  0
   -4.8764    1.0556    0.3107 C   0  0  0  0  0  0  0  0  0  0  0  0
    6.2930    0.0264   -1.7245 C   0  0  0  0  0  0  0  0  0  0  0  0
    7.1255    0.0595   -0.6027 C   0  0  0  0  0  0  0  0  0  0  0  0
    7.1815    2.4542    2.5776 H   0  0  0  0  0  0  0  0  0  0  0  0
    6.4127    0.9571    3.2361 H   0  0  0  0  0  0  0  0  0  0  0  0
    8.1369    1.2668    3.4726 H   0  0  0  0  0  0  0  0  0  0  0  0
    5.1489    1.8994    1.4680 H   0  0  0  0  0  0  0  0  0  0  0  0
    3.6963    1.8407   -0.4915 H   0  0  0  0  0  0  0  0  0  0  0  0
    4.6670    0.2636   -3.7796 H   0  0  0  0  0  0  0  0  0  0  0  0
    3.7830    1.6444   -3.1298 H   0  0  0  0  0  0  0  0  0  0  0  0
    3.2096   -1.2072   -2.3381 H   0  0  0  0  0  0  0  0  0  0  0  0
   -0.7573    0.3188   -2.9556 H   0  0  0  0  0  0  0  0  0  0  0  0
   -1.3908   -2.5207   -2.2655 H   0  0  0  0  0  0  0  0  0  0  0  0
   -2.5214   -1.3356   -2.9371 H   0  0  0  0  0  0  0  0  0  0  0  0
   -2.4615   -0.0627   -0.7423 H   0  0  0  0  0  0  0  0  0  0  0  0
   -0.8324   -3.3242    0.1065 H   0  0  0  0  0  0  0  0  0  0  0  0
   -0.7744   -2.5957    1.7337 H   0  0  0  0  0  0  0  0  0  0  0  0
   -3.0898   -3.7418    0.9096 H   0  0  0  0  0  0  0  0  0  0  0  0
   -3.1299   -2.1646    1.7515 H   0  0  0  0  0  0  0  0  0  0  0  0
   -5.6814   -1.6536    2.2282 H   0  0  0  0  0  0  0  0  0  0  0  0
   -6.0477    0.1229    3.8966 H   0  0  0  0  0  0  0  0  0  0  0  0
   -4.7699    3.0992    4.0176 H   0  0  0  0  0  0  0  0  0  0  0  0
   -6.1777    3.7046    3.1070 H   0  0  0  0  0  0  0  0  0  0  0  0
   -6.4056    2.4908    4.3650 H   0  0  0  0  0  0  0  0  0  0  0  0
   -4.9420    3.0997    0.9740 H   0  0  0  0  0  0  0  0  0  0  0  0
   -4.5740    1.3282   -0.6979 H   0  0  0  0  0  0  0  0  0  0  0  0
    6.6238   -0.5078   -2.6117 H   0  0  0  0  0  0  0  0  0  0  0  0
    8.0879   -0.4452   -0.6316 H   0  0  0  0  0  0  0  0  0  0  0  0
  1  2  1  0
  2  3  1  0
  3  4  2  0
  4  5  1  0
  5  6  2  0
  6  7  1  0
  7  8  1  0
  8  9  1  0
  9 10  2  0
  9 11  1  0
 11 12  2  0
 11 13  1  0
 13 14  1  0
 14 15  1  0
 15 16  1  0
 16 17  1  0
 17 18  1  0
 18 19  1  0
 19 20  1  0
 20 21  2  0
 20 22  2  0
 20 23  1  0
 23 24  2  0
 24 25  1  0
 25 26  2  0
 26 27  1  0
 26 28  1  0
 28 29  2  0
  6 30  1  0
 30 31  2  0
 31  3  1  0
 19 15  1  0
 29 23  1  0
  1 32  1  0
  1 33  1  0
  1 34  1  0
  4 35  1  0
  5 36  1  0
  7 37  1  0
  7 38  1  0
  8 39  1  0
 13 40  1  0
 14 41  1  0
 14 42  1  0
 15 43  1  0
 17 44  1  0
 17 45  1  0
 18 46  1  0
 18 47  1  0
 24 48  1  0
 25 49  1  0
 27 50  1  0
 27 51  1  0
 27 52  1  0
 28 53  1  0
 29 54  1  0
 30 55  1  0
 31 56  1  0
M  END
$$$$
