
     RDKit          3D

 50 53  0  0  0  0  0  0  0  0999 V2000
    8.3886   -1.0610    0.0195 C   0  0  0  0  0  0  0  0  0  0  0  0
    7.6706   -0.2734    1.1022 C   0  0  0  0  0  0  0  0  0  0  0  0
    6.3612   -0.8129    1.3057 O   0  0  0  0  0  0  0  0  0  0  0  0
    5.2959   -0.1001    0.8359 C   0  0  0  0  0  0  0  0  0  0  0  0
    5.3377    0.6950   -0.3123 C   0  0  0  0  0  0  0  0  0  0  0  0
    4.1821    1.3420   -0.7718 C   0  0  0  0  0  0  0  0  0  0  0  0
    2.9592    1.1837   -0.1058 C   0  0  0  0  0  0  0  0  0  0  0  0
    1.7625    1.8966   -0.6326 C   0  0  0  0  0  0  0  0  0  0  0  0
    1.9320    3.0027   -1.1288 O   0  0  0  0  0  0  0  0  0  0  0  0
    0.5731    1.1993   -0.5237 N   0  0  0  0  0  0  0  0  0  0  0  0
   -0.7140    1.6443   -0.8986 C   0  0  0  0  0  0  0  0  0  0  0  0
   -0.9862    2.9244   -1.3811 C   0  0  0  0  0  0  0  0  0  0  0  0
   -2.2894    3.2872   -1.7314 C   0  0  0  0  0  0  0  0  0  0  0  0
   -3.3353    2.3755   -1.5946 C   0  0  0  0  0  0  0  0  0  0  0  0
   -3.0884    1.0899   -1.1023 C   0  0  0  0  0  0  0  0  0  0  0  0
   -4.1985    0.1294   -0.9376 C   0  0  0  0  0  0  0  0  0  0  0  0
   -4.4696   -0.3341    0.2945 C   0  0  0  0  0  0  0  0  0  0  0  0
   -5.5580   -1.2721    0.5115 C   0  0  0  0  0  0  0  0  0  0  0  0
   -5.8619   -1.7780    1.7773 C   0  0  0  0  0  0  0  0  0  0  0  0
   -6.9200   -2.6790    1.9350 C   0  0  0  0  0  0  0  0  0  0  0  0
   -7.6772   -3.0769    0.8305 C   0  0  0  0  0  0  0  0  0  0  0  0
   -7.3792   -2.5751   -0.4350 C   0  0  0  0  0  0  0  0  0  0  0  0
   -6.3228   -1.6785   -0.5762 C   0  0  0  0  0  0  0  0  0  0  0  0
   -6.0544   -1.1907   -1.8670 O   0  0  0  0  0  0  0  0  0  0  0  0
   -5.0202   -0.2920   -2.1116 C   0  0  0  0  0  0  0  0  0  0  0  0
   -4.8049    0.1240   -3.2459 O   0  0  0  0  0  0  0  0  0  0  0  0
   -1.7721    0.7334   -0.7604 C   0  0  0  0  0  0  0  0  0  0  0  0
    2.8975    0.3973    1.0454 C   0  0  0  0  0  0  0  0  0  0  0  0
    4.0669   -0.2345    1.4953 C   0  0  0  0  0  0  0  0  0  0  0  0
    3.9688   -1.0410    2.6984 N   0  0  0  0  0  4  0  0  0  0  0  0
    4.6928   -0.7389    3.6562 O   0  0  0  0  0  0  0  0  0  0  0  0
    3.1100   -1.9357    2.6962 O   0  0  0  0  0  1  0  0  0  0  0  0
    7.8572   -0.9978   -0.9355 H   0  0  0  0  0  0  0  0  0  0  0  0
    8.4349   -2.1228    0.2854 H   0  0  0  0  0  0  0  0  0  0  0  0
    9.4084   -0.6894   -0.1193 H   0  0  0  0  0  0  0  0  0  0  0  0
    7.6653    0.8025    0.8904 H   0  0  0  0  0  0  0  0  0  0  0  0
    8.2127   -0.3974    2.0473 H   0  0  0  0  0  0  0  0  0  0  0  0
    6.2512    0.8182   -0.8869 H   0  0  0  0  0  0  0  0  0  0  0  0
    4.2365    1.9655   -1.6644 H   0  0  0  0  0  0  0  0  0  0  0  0
    0.6244    0.2384   -0.2120 H   0  0  0  0  0  0  0  0  0  0  0  0
   -0.2053    3.6689   -1.5022 H   0  0  0  0  0  0  0  0  0  0  0  0
   -2.4858    4.2850   -2.1169 H   0  0  0  0  0  0  0  0  0  0  0  0
   -4.3407    2.6779   -1.8814 H   0  0  0  0  0  0  0  0  0  0  0  0
   -3.8975   -0.0181    1.1618 H   0  0  0  0  0  0  0  0  0  0  0  0
   -5.2857   -1.4800    2.6500 H   0  0  0  0  0  0  0  0  0  0  0  0
   -7.1551   -3.0711    2.9220 H   0  0  0  0  0  0  0  0  0  0  0  0
   -8.4992   -3.7771    0.9579 H   0  0  0  0  0  0  0  0  0  0  0  0
   -7.9632   -2.8774   -1.2998 H   0  0  0  0  0  0  0  0  0  0  0  0
   -1.5774   -0.2714   -0.3918 H   0  0  0  0  0  0  0  0  0  0  0  0
    1.9729    0.2955    1.6085 H   0  0  0  0  0  0  0  0  0  0  0  0
  1  2  1  0
  2  3  1  0
  3  4  1  0
  4  5  2  0
  5  6  1  0
  6  7  2  0
  7  8  1  0
  8  9  2  0
  8 10  1  0
 10 11  1  0
 11 12  2  0
 12 13  1  0
 13 14  2  0
 14 15  1  0
 15 16  1  0
 16 17  2  0
 17 18  1  0
 18 19  2  0
 19 20  1  0
 20 21  2  0
 21 22  1  0
 22 23  2  0
 23 24  1  0
 24 25  1  0
 25 26  2  0
 15 27  2  0
  7 28  1  0
 28 29  2  0
 29 30  1  0
 30 31  2  0
 30 32  1  0
 29  4  1  0
 27 11  1  0
 25 16  1  0
 23 18  1  0
  1 33  1  0
  1 34  1  0
  1 35  1  0
  2 36  1  0
  2 37  1  0
  5 38  1  0
  6 39  1  0
 10 40  1  0
 12 41  1  0
 13 42  1  0
 14 43  1  0
 17 44  1  0
 19 45  1  0
 20 46  1  0
 21 47  1  0
 22 48  1  0
 27 49  1  0
 28 50  1  0
M  CHG  2  30   1  32  -1
M  END
$$$$
