
     RDKit          3D

 60 63  0  0  0  0  0  0  0  0999 V2000
    8.1003   -1.1538   -3.0929 C   0  0  0  0  0  0  0  0  0  0  0  0
    7.0619   -0.1849   -3.1819 O   0  0  0  0  0  0  0  0  0  0  0  0
    6.3414    0.0601   -2.0440 C   0  0  0  0  0  0  0  0  0  0  0  0
    5.3530    1.0376   -2.1788 C   0  0  0  0  0  0  0  0  0  0  0  0
    4.5395    1.3874   -1.0974 C   0  0  0  0  0  0  0  0  0  0  0  0
    4.7084    0.7638    0.1426 C   0  0  0  0  0  0  0  0  0  0  0  0
    3.8294    1.1169    1.3104 C   0  0  0  0  0  0  0  0  0  0  0  0
    2.7306    0.1912    1.4253 N   0  0  0  0  0  0  0  0  0  0  0  0
    2.6991   -0.8126    2.3715 C   0  0  0  0  0  0  0  0  0  0  0  0
    3.6342   -1.0127    3.1461 O   0  0  0  0  0  0  0  0  0  0  0  0
    1.4915   -1.7665    2.2657 C   0  0  0  0  0  0  0  0  0  0  0  0
    1.2886   -2.5630    3.5535 C   0  0  0  0  0  0  0  0  0  0  0  0
    0.2567   -1.0637    1.8800 N   0  0  0  0  0  0  0  0  0  0  0  0
   -0.1588   -0.0345    2.7407 N   0  0  0  0  0  0  0  0  0  0  0  0
   -1.2739    0.6089    2.5405 C   0  0  0  0  0  0  0  0  0  0  0  0
   -1.6441    1.7065    3.4970 C   0  0  0  0  0  0  0  0  0  0  0  0
   -2.1060    0.2449    1.4208 C   0  0  0  0  0  0  0  0  0  0  0  0
   -3.3462    0.6609    0.9666 C   0  0  0  0  0  0  0  0  0  0  0  0
   -4.3267    1.5808    1.5951 C   0  0  0  0  0  0  0  0  0  0  0  0
   -3.5580   -0.0378   -0.2280 N   0  0  0  0  0  0  0  0  0  0  0  0
   -4.5652    0.1159   -1.2290 C   0  0  0  0  0  0  0  0  0  0  0  0
   -5.3101    1.2920   -1.3653 C   0  0  0  0  0  0  0  0  0  0  0  0
   -6.2910    1.3943   -2.3585 C   0  0  0  0  0  0  0  0  0  0  0  0
   -6.5418    0.3292   -3.2322 C   0  0  0  0  0  0  0  0  0  0  0  0
   -7.5732    0.4613   -4.3134 C   0  0  0  0  0  0  0  0  0  0  0  0
   -5.7682   -0.8293   -3.1239 C   0  0  0  0  0  0  0  0  0  0  0  0
   -4.7869   -0.9351   -2.1352 C   0  0  0  0  0  0  0  0  0  0  0  0
   -2.6133   -1.0021   -0.4004 N   0  0  0  0  0  0  0  0  0  0  0  0
   -1.7128   -0.7831    0.5587 C   0  0  0  0  0  0  0  0  0  0  0  0
   -0.4712   -1.5180    0.7597 C   0  0  0  0  0  0  0  0  0  0  0  0
   -0.0959   -2.4315    0.0283 O   0  0  0  0  0  0  0  0  0  0  0  0
    5.6949   -0.2232    0.2716 C   0  0  0  0  0  0  0  0  0  0  0  0
    6.5092   -0.5709   -0.8127 C   0  0  0  0  0  0  0  0  0  0  0  0
    8.5580   -1.2409   -4.0813 H   0  0  0  0  0  0  0  0  0  0  0  0
    7.7075   -2.1367   -2.8231 H   0  0  0  0  0  0  0  0  0  0  0  0
    8.8773   -0.8352   -2.3932 H   0  0  0  0  0  0  0  0  0  0  0  0
    5.2157    1.5316   -3.1371 H   0  0  0  0  0  0  0  0  0  0  0  0
    3.7782    2.1504   -1.2337 H   0  0  0  0  0  0  0  0  0  0  0  0
    3.4005    2.1165    1.1783 H   0  0  0  0  0  0  0  0  0  0  0  0
    4.4174    1.1413    2.2333 H   0  0  0  0  0  0  0  0  0  0  0  0
    1.9783    0.2452    0.7534 H   0  0  0  0  0  0  0  0  0  0  0  0
    1.7575   -2.4800    1.4754 H   0  0  0  0  0  0  0  0  0  0  0  0
    1.0987   -1.9016    4.4063 H   0  0  0  0  0  0  0  0  0  0  0  0
    0.4367   -3.2458    3.4608 H   0  0  0  0  0  0  0  0  0  0  0  0
    2.1766   -3.1581    3.7895 H   0  0  0  0  0  0  0  0  0  0  0  0
   -0.7899    1.9672    4.1258 H   0  0  0  0  0  0  0  0  0  0  0  0
   -1.9535    2.6002    2.9500 H   0  0  0  0  0  0  0  0  0  0  0  0
   -2.4580    1.3692    4.1423 H   0  0  0  0  0  0  0  0  0  0  0  0
   -4.2655    1.5258    2.6829 H   0  0  0  0  0  0  0  0  0  0  0  0
   -5.3565    1.3168    1.3519 H   0  0  0  0  0  0  0  0  0  0  0  0
   -4.1346    2.6156    1.3002 H   0  0  0  0  0  0  0  0  0  0  0  0
   -5.1282    2.1695   -0.7551 H   0  0  0  0  0  0  0  0  0  0  0  0
   -6.8544    2.3205   -2.4550 H   0  0  0  0  0  0  0  0  0  0  0  0
   -8.4270    1.0521   -3.9687 H   0  0  0  0  0  0  0  0  0  0  0  0
   -7.1371    0.9486   -5.1898 H   0  0  0  0  0  0  0  0  0  0  0  0
   -7.9568   -0.5170   -4.6082 H   0  0  0  0  0  0  0  0  0  0  0  0
   -5.9189   -1.6596   -3.8103 H   0  0  0  0  0  0  0  0  0  0  0  0
   -4.2062   -1.8554   -2.0793 H   0  0  0  0  0  0  0  0  0  0  0  0
    5.8304   -0.7303    1.2263 H   0  0  0  0  0  0  0  0  0  0  0  0
    7.2586   -1.3387   -0.6594 H   0  0  0  0  0  0  0  0  0  0  0  0
  1  2  1  0
  2  3  1  0
  3  4  2  0
  4  5  1  0
  5  6  2  0
  6  7  1  0
  7  8  1  0
  8  9  1  0
  9 10  2  0
  9 11  1  0
 11 12  1  0
 11 13  1  0
 13 14  1  0
 14 15  2  0
 15 16  1  0
 15 17  1  0
 17 18  2  0
 18 19  1  0
 18 20  1  0
 20 21  1  0
 21 22  2  0
 22 23  1  0
 23 24  2  0
 24 25  1  0
 24 26  1  0
 26 27  2  0
 20 28  1  0
 28 29  2  0
 29 30  1  0
 30 31  2  0
  6 32  1  0
 32 33  2  0
 33  3  1  0
 30 13  1  0
 29 17  1  0
 27 21  1  0
  1 34  1  0
  1 35  1  0
  1 36  1  0
  4 37  1  0
  5 38  1  0
  7 39  1  0
  7 40  1  0
  8 41  1  0
 11 42  1  0
 12 43  1  0
 12 44  1  0
 12 45  1  0
 16 46  1  0
 16 47  1  0
 16 48  1  0
 19 49  1  0
 19 50  1  0
 19 51  1  0
 22 52  1  0
 23 53  1  0
 25 54  1  0
 25 55  1  0
 25 56  1  0
 26 57  1  0
 27 58  1  0
 32 59  1  0
 33 60  1  0
M  END
$$$$
