
     RDKit          3D

 56 61  0  0  0  0  0  0  0  0999 V2000
    0.8133    0.7864   -2.4843 O   0  0  0  0  0  0  0  0  0  0  0  0
    0.6664    1.6510   -1.6332 C   0  0  0  0  0  0  0  0  0  0  0  0
    0.4610    3.0067   -1.8992 N   0  0  0  0  0  0  0  0  0  0  0  0
    0.4433    3.7525   -0.7277 C   0  0  0  0  0  0  0  0  0  0  0  0
    0.2986    5.1194   -0.6179 C   0  0  0  0  0  0  0  0  0  0  0  0
    0.3237    5.6655    0.6676 C   0  0  0  0  0  0  0  0  0  0  0  0
    0.4963    4.8437    1.7967 C   0  0  0  0  0  0  0  0  0  0  0  0
    0.6435    3.4603    1.6604 C   0  0  0  0  0  0  0  0  0  0  0  0
    0.6082    2.9206    0.3844 C   0  0  0  0  0  0  0  0  0  0  0  0
    0.7239    1.5014   -0.0848 C   0  0  0  0  0  0  0  0  0  0  0  0
    1.9520    0.7805    0.3689 N   0  0  0  0  0  0  0  0  0  0  0  0
    1.5744   -0.6139    0.7934 C   0  0  2  0  0  0  0  0  0  0  0  0
    1.9302   -1.7012   -0.2429 C   0  0  0  0  0  0  0  0  0  0  0  0
    3.4034   -1.7828   -0.5693 C   0  0  0  0  0  0  0  0  0  0  0  0
    4.3261   -2.2377    0.3819 C   0  0  0  0  0  0  0  0  0  0  0  0
    5.6860   -2.2997    0.0732 C   0  0  0  0  0  0  0  0  0  0  0  0
    6.1352   -1.9101   -1.1873 C   0  0  0  0  0  0  0  0  0  0  0  0
    5.2254   -1.4595   -2.1416 C   0  0  0  0  0  0  0  0  0  0  0  0
    3.8656   -1.3965   -1.8356 C   0  0  0  0  0  0  0  0  0  0  0  0
    0.1103   -0.4996    0.9904 C   0  0  0  0  0  0  0  0  0  0  0  0
   -0.3796    0.7101    0.4824 C   0  0  0  0  0  0  0  0  0  0  0  0
   -1.7328    0.7565    0.7002 C   0  0  0  0  0  0  0  0  0  0  0  0
   -2.6461    1.6862    0.4476 O   0  0  0  0  0  0  0  0  0  0  0  0
   -2.0720   -0.4445    1.3054 N   0  0  0  0  0  0  0  0  0  0  0  0
   -3.4187   -0.8202    1.7163 C   0  0  0  0  0  0  0  0  0  0  0  0
   -4.1410   -1.5871    0.6354 C   0  0  0  0  0  0  0  0  0  0  0  0
   -4.0721   -2.9870    0.5862 C   0  0  0  0  0  0  0  0  0  0  0  0
   -4.7342   -3.6950   -0.4181 C   0  0  0  0  0  0  0  0  0  0  0  0
   -5.4676   -3.0117   -1.3862 C   0  0  0  0  0  0  0  0  0  0  0  0
   -5.5362   -1.6202   -1.3539 C   0  0  0  0  0  0  0  0  0  0  0  0
   -4.8748   -0.9109   -0.3501 C   0  0  0  0  0  0  0  0  0  0  0  0
   -0.9341   -1.2070    1.5229 C   0  0  0  0  0  0  0  0  0  0  0  0
   -0.9938   -2.3822    2.1357 O   0  0  0  0  0  0  0  0  0  0  0  0
    0.4070    3.3760   -2.8366 H   0  0  0  0  0  0  0  0  0  0  0  0
    0.1747    5.7542   -1.4877 H   0  0  0  0  0  0  0  0  0  0  0  0
    0.2154    6.7399    0.8006 H   0  0  0  0  0  0  0  0  0  0  0  0
    0.5190    5.2910    2.7885 H   0  0  0  0  0  0  0  0  0  0  0  0
    0.7806    2.8239    2.5299 H   0  0  0  0  0  0  0  0  0  0  0  0
    2.6060    0.7259   -0.4107 H   0  0  0  0  0  0  0  0  0  0  0  0
    2.0717   -0.8184    1.7483 H   0  0  0  0  0  0  0  0  0  0  0  0
    1.3563   -1.5495   -1.1668 H   0  0  0  0  0  0  0  0  0  0  0  0
    1.6093   -2.6832    0.1313 H   0  0  0  0  0  0  0  0  0  0  0  0
    3.9945   -2.5475    1.3699 H   0  0  0  0  0  0  0  0  0  0  0  0
    6.3960   -2.6526    0.8165 H   0  0  0  0  0  0  0  0  0  0  0  0
    7.1941   -1.9595   -1.4267 H   0  0  0  0  0  0  0  0  0  0  0  0
    5.5736   -1.1580   -3.1260 H   0  0  0  0  0  0  0  0  0  0  0  0
    3.1669   -1.0426   -2.5928 H   0  0  0  0  0  0  0  0  0  0  0  0
   -2.1799    2.4690    0.1028 H   0  0  0  0  0  0  0  0  0  0  0  0
   -3.9669    0.0912    1.9820 H   0  0  0  0  0  0  0  0  0  0  0  0
   -3.3452   -1.4123    2.6361 H   0  0  0  0  0  0  0  0  0  0  0  0
   -3.4920   -3.5316    1.3286 H   0  0  0  0  0  0  0  0  0  0  0  0
   -4.6718   -4.7794   -0.4478 H   0  0  0  0  0  0  0  0  0  0  0  0
   -5.9793   -3.5631   -2.1703 H   0  0  0  0  0  0  0  0  0  0  0  0
   -6.0994   -1.0855   -2.1139 H   0  0  0  0  0  0  0  0  0  0  0  0
   -4.9253    0.1762   -0.3434 H   0  0  0  0  0  0  0  0  0  0  0  0
   -0.0892   -2.7381    2.1715 H   0  0  0  0  0  0  0  0  0  0  0  0
  1  2  2  0
  2  3  1  0
  3  4  1  0
  4  5  2  0
  5  6  1  0
  6  7  2  0
  7  8  1  0
  8  9  2  0
  9 10  1  0
 10 11  1  0
 11 12  1  0
 12 13  1  0
 13 14  1  0
 14 15  2  0
 15 16  1  0
 16 17  2  0
 17 18  1  0
 18 19  2  0
 12 20  1  0
 20 21  1  0
 21 22  2  0
 22 23  1  0
 22 24  1  0
 24 25  1  0
 25 26  1  0
 26 27  2  0
 27 28  1  0
 28 29  2  0
 29 30  1  0
 30 31  2  0
 24 32  1  0
 32 33  1  0
 10  2  1  0
 19 14  1  0
 32 20  2  0
  9  4  1  0
 21 10  1  0
 31 26  1  0
  3 34  1  0
  5 35  1  0
  6 36  1  0
  7 37  1  0
  8 38  1  0
 11 39  1  0
 12 40  1  1
 13 41  1  0
 13 42  1  0
 15 43  1  0
 16 44  1  0
 17 45  1  0
 18 46  1  0
 19 47  1  0
 23 48  1  0
 25 49  1  0
 25 50  1  0
 27 51  1  0
 28 52  1  0
 29 53  1  0
 30 54  1  0
 31 55  1  0
 33 56  1  0
M  END
$$$$
