
     RDKit          3D

 46 49  0  0  0  0  0  0  0  0999 V2000
   -6.4905    1.5033   -0.2848 C   0  0  0  0  0  0  0  0  0  0  0  0
   -6.0987    0.0415   -0.4110 C   0  0  0  0  0  0  0  0  0  0  0  0
   -4.8660   -0.2125    0.2639 O   0  0  0  0  0  0  0  0  0  0  0  0
   -3.6913   -0.0727   -0.4318 C   0  0  0  0  0  0  0  0  0  0  0  0
   -3.5550    0.4268   -1.7233 C   0  0  0  0  0  0  0  0  0  0  0  0
   -2.2878    0.5257   -2.2965 C   0  0  0  0  0  0  0  0  0  0  0  0
   -1.1561    0.1236   -1.5809 C   0  0  0  0  0  0  0  0  0  0  0  0
   -1.2510   -0.3917   -0.2723 C   0  0  0  0  0  0  0  0  0  0  0  0
   -0.0329   -0.8089    0.4423 C   0  0  0  0  0  0  0  0  0  0  0  0
   -0.1078   -1.8715    1.2712 N   0  0  0  0  0  0  0  0  0  0  0  0
    1.0356   -2.2438    1.8933 C   0  0  0  0  0  0  0  0  0  0  0  0
    0.9428   -3.4013    2.8243 C   0  0  0  0  0  0  0  0  0  0  0  0
   -0.3107   -3.9291    2.9772 N   0  0  0  0  0  0  0  0  0  0  0  0
    1.9161   -3.8470    3.4190 O   0  0  0  0  0  0  0  0  0  0  0  0
    2.2137   -1.5955    1.6818 C   0  0  0  0  0  0  0  0  0  0  0  0
    3.4971   -1.7935    2.1647 N   0  0  0  0  0  0  0  0  0  0  0  0
    4.3427   -0.8348    1.5918 C   0  0  0  0  0  0  0  0  0  0  0  0
    5.5356   -0.7629    1.8361 O   0  0  0  0  0  0  0  0  0  0  0  0
    3.5259   -0.0277    0.7412 N   0  0  0  0  0  0  0  0  0  0  0  0
    3.9450    1.0733   -0.0544 C   0  0  0  0  0  0  0  0  0  0  0  0
    3.0394    1.9571   -0.6663 C   0  0  0  0  0  0  0  0  0  0  0  0
    3.4738    3.0373   -1.4463 C   0  0  0  0  0  0  0  0  0  0  0  0
    4.8317    3.2617   -1.6324 C   0  0  0  0  0  0  0  0  0  0  0  0
    5.7464    2.4058   -1.0327 C   0  0  0  0  0  0  0  0  0  0  0  0
    7.4323    2.6746   -1.2598 Cl  0  0  0  0  0  0  0  0  0  0  0  0
    5.3128    1.3285   -0.2524 C   0  0  0  0  0  0  0  0  0  0  0  0
    2.2007   -0.5295    0.8154 C   0  0  0  0  0  0  0  0  0  0  0  0
    1.1022   -0.1227    0.1705 N   0  0  0  0  0  0  0  0  0  0  0  0
   -2.5411   -0.4692    0.2803 C   0  0  0  0  0  0  0  0  0  0  0  0
   -2.7230   -0.9176    1.5698 O   0  0  0  0  0  0  0  0  0  0  0  0
   -6.5328    1.7985    0.7689 H   0  0  0  0  0  0  0  0  0  0  0  0
   -7.4694    1.6815   -0.7390 H   0  0  0  0  0  0  0  0  0  0  0  0
   -5.7587    2.1578   -0.7673 H   0  0  0  0  0  0  0  0  0  0  0  0
   -6.0886   -0.3029   -1.4508 H   0  0  0  0  0  0  0  0  0  0  0  0
   -6.8580   -0.5639    0.0970 H   0  0  0  0  0  0  0  0  0  0  0  0
   -4.4044    0.7600   -2.3089 H   0  0  0  0  0  0  0  0  0  0  0  0
   -2.1767    0.9190   -3.3047 H   0  0  0  0  0  0  0  0  0  0  0  0
   -0.1810    0.2108   -2.0601 H   0  0  0  0  0  0  0  0  0  0  0  0
   -0.4624   -4.6812    3.6334 H   0  0  0  0  0  0  0  0  0  0  0  0
   -1.1014   -3.4878    2.5156 H   0  0  0  0  0  0  0  0  0  0  0  0
    3.7817   -2.5156    2.8164 H   0  0  0  0  0  0  0  0  0  0  0  0
    1.9668    1.8596   -0.5376 H   0  0  0  0  0  0  0  0  0  0  0  0
    2.7444    3.7043   -1.8996 H   0  0  0  0  0  0  0  0  0  0  0  0
    5.1685    4.0994   -2.2364 H   0  0  0  0  0  0  0  0  0  0  0  0
    6.0755    0.6872    0.1790 H   0  0  0  0  0  0  0  0  0  0  0  0
   -3.6855   -0.8540    1.7287 H   0  0  0  0  0  0  0  0  0  0  0  0
  1  2  1  0
  2  3  1  0
  3  4  1  0
  4  5  2  0
  5  6  1  0
  6  7  2  0
  7  8  1  0
  8  9  1  0
  9 10  2  0
 10 11  1  0
 11 12  1  0
 12 13  1  0
 12 14  2  0
 11 15  2  0
 15 16  1  0
 16 17  1  0
 17 18  2  0
 17 19  1  0
 19 20  1  0
 20 21  2  0
 21 22  1  0
 22 23  2  0
 23 24  1  0
 24 25  1  0
 24 26  2  0
 19 27  1  0
 27 28  2  0
  8 29  2  0
 29 30  1  0
 29  4  1  0
 28  9  1  0
 27 15  1  0
 26 20  1  0
  1 31  1  0
  1 32  1  0
  1 33  1  0
  2 34  1  0
  2 35  1  0
  5 36  1  0
  6 37  1  0
  7 38  1  0
 13 39  1  0
 13 40  1  0
 16 41  1  0
 21 42  1  0
 22 43  1  0
 23 44  1  0
 26 45  1  0
 30 46  1  0
M  END
$$$$
