
     RDKit          3D

 37 38  0  0  0  0  0  0  0  0999 V2000
    0.9719   -0.8272   -0.6153 O   0  0  0  0  0  0  0  0  0  0  0  0
    0.9368    0.3424   -0.2556 C   0  0  0  0  0  0  0  0  0  0  0  0
   -0.3245    0.9866    0.3009 C   0  0  0  0  0  0  0  0  0  0  0  0
   -1.5045    0.0179    0.3516 C   0  0  0  0  0  0  0  0  0  0  0  0
   -2.7523    0.6991    0.9154 C   0  0  0  0  0  0  0  0  0  0  0  0
   -3.9286   -0.2418    0.9734 C   0  0  0  0  0  0  0  0  0  0  0  0
   -4.7972   -0.3619   -0.1196 C   0  0  0  0  0  0  0  0  0  0  0  0
   -5.8771   -1.2450   -0.0710 C   0  0  0  0  0  0  0  0  0  0  0  0
   -6.0958   -2.0188    1.0671 C   0  0  0  0  0  0  0  0  0  0  0  0
   -5.2335   -1.9125    2.1566 C   0  0  0  0  0  0  0  0  0  0  0  0
   -4.1530   -1.0300    2.1100 C   0  0  0  0  0  0  0  0  0  0  0  0
    1.9907    1.2429   -0.2904 N   0  0  0  0  0  0  0  0  0  0  0  0
    3.3077    1.0105   -0.7400 C   0  0  0  0  0  0  0  0  0  0  0  0
    4.1985    2.0929   -0.6724 C   0  0  0  0  0  0  0  0  0  0  0  0
    5.5246    1.9630   -1.0937 C   0  0  0  0  0  0  0  0  0  0  0  0
    5.9792    0.7445   -1.5901 C   0  0  0  0  0  0  0  0  0  0  0  0
    5.0955   -0.3403   -1.6606 C   0  0  0  0  0  0  0  0  0  0  0  0
    5.5764   -1.6260   -2.1848 N   0  0  0  0  0  4  0  0  0  0  0  0
    6.7630   -1.6930   -2.5391 O   0  0  0  0  0  0  0  0  0  0  0  0
    4.7750   -2.5678   -2.2442 O   0  0  0  0  0  1  0  0  0  0  0  0
    3.7626   -0.2130   -1.2380 C   0  0  0  0  0  0  0  0  0  0  0  0
   -0.5773    1.8459   -0.3317 H   0  0  0  0  0  0  0  0  0  0  0  0
   -0.1038    1.3549    1.3099 H   0  0  0  0  0  0  0  0  0  0  0  0
   -1.7098   -0.3670   -0.6557 H   0  0  0  0  0  0  0  0  0  0  0  0
   -1.2416   -0.8523    0.9668 H   0  0  0  0  0  0  0  0  0  0  0  0
   -3.0154    1.5718    0.3041 H   0  0  0  0  0  0  0  0  0  0  0  0
   -2.5488    1.0879    1.9214 H   0  0  0  0  0  0  0  0  0  0  0  0
   -4.6356    0.2293   -1.0178 H   0  0  0  0  0  0  0  0  0  0  0  0
   -6.5455   -1.3322   -0.9235 H   0  0  0  0  0  0  0  0  0  0  0  0
   -6.9350   -2.7082    1.1030 H   0  0  0  0  0  0  0  0  0  0  0  0
   -5.3997   -2.5204    3.0420 H   0  0  0  0  0  0  0  0  0  0  0  0
   -3.4847   -0.9642    2.9653 H   0  0  0  0  0  0  0  0  0  0  0  0
    1.7940    2.1775    0.0463 H   0  0  0  0  0  0  0  0  0  0  0  0
    3.8727    3.0576   -0.2892 H   0  0  0  0  0  0  0  0  0  0  0  0
    6.2009    2.8129   -1.0339 H   0  0  0  0  0  0  0  0  0  0  0  0
    7.0139    0.6553   -1.9152 H   0  0  0  0  0  0  0  0  0  0  0  0
    3.1004   -1.0713   -1.3044 H   0  0  0  0  0  0  0  0  0  0  0  0
  1  2  2  0
  2  3  1  0
  3  4  1  0
  4  5  1  0
  5  6  1  0
  6  7  2  0
  7  8  1  0
  8  9  2  0
  9 10  1  0
 10 11  2  0
  2 12  1  0
 12 13  1  0
 13 14  2  0
 14 15  1  0
 15 16  2  0
 16 17  1  0
 17 18  1  0
 18 19  2  0
 18 20  1  0
 17 21  2  0
 11  6  1  0
 21 13  1  0
  3 22  1  0
  3 23  1  0
  4 24  1  0
  4 25  1  0
  5 26  1  0
  5 27  1  0
  7 28  1  0
  8 29  1  0
  9 30  1  0
 10 31  1  0
 11 32  1  0
 12 33  1  0
 14 34  1  0
 15 35  1  0
 16 36  1  0
 21 37  1  0
M  CHG  2  18   1  20  -1
M  END
$$$$
