
     RDKit          3D

 21 21  0  0  0  0  0  0  0  0999 V2000
    3.0919   -0.2753   -0.3130 C   0  0  0  0  0  0  0  0  0  0  0  0
    1.6172    0.0047   -0.2110 C   0  0  0  0  0  0  0  0  0  0  0  0
    1.1278    1.2256   -0.6851 C   0  0  0  0  0  0  0  0  0  0  0  0
   -0.2240    1.5047   -0.5761 C   0  0  0  0  0  0  0  0  0  0  0  0
   -0.6917    2.7072   -1.0359 O   0  0  0  0  0  0  0  0  0  0  0  0
   -1.1336    0.6131    0.0133 C   0  0  0  0  0  0  0  0  0  0  0  0
   -2.5061    0.9719   -0.0492 N   0  0  0  0  0  0  0  0  0  0  0  0
   -0.6813   -0.6544    0.4178 C   0  0  0  0  0  0  0  0  0  0  0  0
   -1.6316   -1.6838    0.9743 C   0  0  0  0  0  0  0  0  0  0  0  0
    0.7092   -0.9277    0.3395 C   0  0  0  0  0  0  0  0  0  0  0  0
    1.3246   -2.4447    0.9314 Cl  0  0  0  0  0  0  0  0  0  0  0  0
    3.2719   -1.1519   -0.9436 H   0  0  0  0  0  0  0  0  0  0  0  0
    3.5199   -0.4404    0.6809 H   0  0  0  0  0  0  0  0  0  0  0  0
    3.6300    0.5662   -0.7630 H   0  0  0  0  0  0  0  0  0  0  0  0
    1.7881    1.9644   -1.1306 H   0  0  0  0  0  0  0  0  0  0  0  0
   -1.6327    2.7016   -0.7619 H   0  0  0  0  0  0  0  0  0  0  0  0
   -2.8945    0.6450   -0.9360 H   0  0  0  0  0  0  0  0  0  0  0  0
   -3.0380    0.5457    0.7071 H   0  0  0  0  0  0  0  0  0  0  0  0
   -1.4039   -2.6825    0.5877 H   0  0  0  0  0  0  0  0  0  0  0  0
   -2.6694   -1.4952    0.6862 H   0  0  0  0  0  0  0  0  0  0  0  0
   -1.5739   -1.6942    2.0672 H   0  0  0  0  0  0  0  0  0  0  0  0
  1  2  1  0
  2  3  2  0
  3  4  1  0
  4  5  1  0
  4  6  2  0
  6  7  1  0
  6  8  1  0
  8  9  1  0
  8 10  2  0
 10 11  1  0
 10  2  1  0
  1 12  1  0
  1 13  1  0
  1 14  1  0
  3 15  1  0
  5 16  1  0
  7 17  1  0
  7 18  1  0
  9 19  1  0
  9 20  1  0
  9 21  1  0
M  END
$$$$
