
     RDKit          3D

 38 38  0  0  0  0  0  0  0  0999 V2000
    2.0466    2.3118    3.0845 C   0  0  0  0  0  0  0  0  0  0  0  0
    2.3288    2.6760    1.7389 O   0  0  0  0  0  0  0  0  0  0  0  0
    3.5879    2.1756    1.2701 C   0  0  0  0  0  0  0  0  0  0  0  0
    3.4960    0.7022    0.8743 C   0  0  0  0  0  0  0  0  0  0  0  0
    2.4304    0.4803   -0.0869 N   0  0  0  0  0  0  0  0  0  0  0  0
    2.4113   -0.6250   -0.9032 C   0  0  0  0  0  0  0  0  0  0  0  0
    3.3157   -1.4460   -0.9704 O   0  0  0  0  0  0  0  0  0  0  0  0
    1.2015   -0.7293   -1.7454 C   0  0  0  0  0  0  0  0  0  0  0  0
    1.3919   -0.4563   -3.1290 C   0  0  0  0  0  0  0  0  0  0  0  0
    1.5059   -0.2256   -4.2618 N   0  0  0  0  0  0  0  0  0  0  0  0
   -0.0229   -1.0455   -1.2787 C   0  0  0  0  0  0  0  0  0  0  0  0
   -0.4727   -1.4482    0.0560 C   0  0  0  0  0  0  0  0  0  0  0  0
    0.5153   -2.0560    1.0197 C   0  0  0  0  0  0  0  0  0  0  0  0
   -1.7702   -1.3841    0.4255 C   0  0  0  0  0  0  0  0  0  0  0  0
   -2.8735   -0.8542   -0.3808 C   0  0  0  0  0  0  0  0  0  0  0  0
   -3.2027    0.5021   -0.3074 C   0  0  0  0  0  0  0  0  0  0  0  0
   -4.2312    1.0141   -1.0982 C   0  0  0  0  0  0  0  0  0  0  0  0
   -4.9290    0.1770   -1.9690 C   0  0  0  0  0  0  0  0  0  0  0  0
   -4.6072   -1.1774   -2.0428 C   0  0  0  0  0  0  0  0  0  0  0  0
   -3.5811   -1.6929   -1.2499 C   0  0  0  0  0  0  0  0  0  0  0  0
    1.1118    2.7983    3.3801 H   0  0  0  0  0  0  0  0  0  0  0  0
    1.9050    1.2322    3.1748 H   0  0  0  0  0  0  0  0  0  0  0  0
    2.8448    2.6490    3.7535 H   0  0  0  0  0  0  0  0  0  0  0  0
    3.8537    2.7680    0.3871 H   0  0  0  0  0  0  0  0  0  0  0  0
    4.3678    2.3382    2.0215 H   0  0  0  0  0  0  0  0  0  0  0  0
    4.4460    0.3570    0.4520 H   0  0  0  0  0  0  0  0  0  0  0  0
    3.2655    0.0780    1.7441 H   0  0  0  0  0  0  0  0  0  0  0  0
    1.6063    1.0668    0.0005 H   0  0  0  0  0  0  0  0  0  0  0  0
   -0.8251   -1.0301   -2.0230 H   0  0  0  0  0  0  0  0  0  0  0  0
    0.0118   -2.6027    1.8255 H   0  0  0  0  0  0  0  0  0  0  0  0
    1.1651   -2.7778    0.5177 H   0  0  0  0  0  0  0  0  0  0  0  0
    1.1264   -1.2836    1.4937 H   0  0  0  0  0  0  0  0  0  0  0  0
   -2.0794   -1.7259    1.4117 H   0  0  0  0  0  0  0  0  0  0  0  0
   -2.6557    1.1641    0.3581 H   0  0  0  0  0  0  0  0  0  0  0  0
   -4.4797    2.0686   -1.0432 H   0  0  0  0  0  0  0  0  0  0  0  0
   -5.7251    0.5791   -2.5897 H   0  0  0  0  0  0  0  0  0  0  0  0
   -5.1503   -1.8286   -2.7236 H   0  0  0  0  0  0  0  0  0  0  0  0
   -3.3299   -2.7490   -1.3227 H   0  0  0  0  0  0  0  0  0  0  0  0
  1  2  1  0
  2  3  1  0
  3  4  1  0
  4  5  1  0
  5  6  1  0
  6  7  2  0
  6  8  1  0
  8  9  1  0
  9 10  3  0
  8 11  2  3
 11 12  1  0
 12 13  1  0
 12 14  2  3
 14 15  1  0
 15 16  2  0
 16 17  1  0
 17 18  2  0
 18 19  1  0
 19 20  2  0
 20 15  1  0
  1 21  1  0
  1 22  1  0
  1 23  1  0
  3 24  1  0
  3 25  1  0
  4 26  1  0
  4 27  1  0
  5 28  1  0
 11 29  1  0
 13 30  1  0
 13 31  1  0
 13 32  1  0
 14 33  1  0
 16 34  1  0
 17 35  1  0
 18 36  1  0
 19 37  1  0
 20 38  1  0
M  END
$$$$
