
     RDKit          3D

 52 54  0  0  0  0  0  0  0  0999 V2000
   -2.4990   -0.1872    0.5163 C   0  0  0  0  0  0  0  0  0  0  0  0
   -3.0232   -0.5525   -0.7926 N   0  0  0  0  0  0  0  0  0  0  0  0
   -3.7184    0.5043   -1.5294 C   0  0  0  0  0  0  0  0  0  0  0  0
   -5.1167    0.7568   -1.0138 C   0  0  0  0  0  0  0  0  0  0  0  0
   -6.1130   -0.2220   -1.1516 C   0  0  0  0  0  0  0  0  0  0  0  0
   -7.4059    0.0089   -0.6809 C   0  0  0  0  0  0  0  0  0  0  0  0
   -7.7212    1.2237   -0.0739 C   0  0  0  0  0  0  0  0  0  0  0  0
   -6.7419    2.2080    0.0648 C   0  0  0  0  0  0  0  0  0  0  0  0
   -5.4465    1.9766   -0.4019 C   0  0  0  0  0  0  0  0  0  0  0  0
   -2.9185   -1.8078   -1.3802 C   0  0  0  0  0  0  0  0  0  0  0  0
   -3.5066   -2.0897   -2.4305 O   0  0  0  0  0  0  0  0  0  0  0  0
   -2.0815   -2.8806   -0.6663 C   0  0  0  0  0  0  0  0  0  0  0  0
   -0.7166   -2.5559   -0.3884 O   0  0  0  0  0  0  0  0  0  0  0  0
    0.0833   -2.4719   -1.4890 C   0  0  0  0  0  0  0  0  0  0  0  0
   -0.2918   -2.6305   -2.6436 O   0  0  0  0  0  0  0  0  0  0  0  0
    1.5380   -2.2845   -1.0981 C   0  0  0  0  0  0  0  0  0  0  0  0
    1.7419   -1.7569    0.2632 N   0  0  0  0  0  0  0  0  0  0  0  0
    1.5077   -0.1123    0.4897 S   0  0  0  0  0  6  0  0  0  0  0  0
    0.7460    0.4031   -0.6239 O   0  0  0  0  0  0  0  0  0  0  0  0
    1.0598    0.0467    1.8555 O   0  0  0  0  0  0  0  0  0  0  0  0
    3.1708    0.4977    0.3772 C   0  0  0  0  0  0  0  0  0  0  0  0
    3.5999    1.1430   -0.7832 C   0  0  0  0  0  0  0  0  0  0  0  0
    4.9150    1.5980   -0.8657 C   0  0  0  0  0  0  0  0  0  0  0  0
    5.8079    1.4244    0.2091 C   0  0  0  0  0  0  0  0  0  0  0  0
    7.1361    1.8708    0.1353 C   0  0  0  0  0  0  0  0  0  0  0  0
    8.0133    1.6935    1.2109 C   0  0  0  0  0  0  0  0  0  0  0  0
    7.5711    1.0675    2.3725 C   0  0  0  0  0  0  0  0  0  0  0  0
    6.2516    0.6162    2.4630 C   0  0  0  0  0  0  0  0  0  0  0  0
    5.3607    0.7864    1.3917 C   0  0  0  0  0  0  0  0  0  0  0  0
    4.0355    0.3320    1.4677 C   0  0  0  0  0  0  0  0  0  0  0  0
   -1.7149    0.5655    0.3771 H   0  0  0  0  0  0  0  0  0  0  0  0
   -2.0905   -1.0359    1.0695 H   0  0  0  0  0  0  0  0  0  0  0  0
   -3.3075    0.2486    1.1138 H   0  0  0  0  0  0  0  0  0  0  0  0
   -3.1074    1.4130   -1.4569 H   0  0  0  0  0  0  0  0  0  0  0  0
   -3.7784    0.2640   -2.5977 H   0  0  0  0  0  0  0  0  0  0  0  0
   -5.8815   -1.1710   -1.6327 H   0  0  0  0  0  0  0  0  0  0  0  0
   -8.1650   -0.7599   -0.7910 H   0  0  0  0  0  0  0  0  0  0  0  0
   -8.7298    1.4045    0.2892 H   0  0  0  0  0  0  0  0  0  0  0  0
   -6.9893    3.1573    0.5360 H   0  0  0  0  0  0  0  0  0  0  0  0
   -4.6964    2.7572   -0.2860 H   0  0  0  0  0  0  0  0  0  0  0  0
   -2.1220   -3.8108   -1.2543 H   0  0  0  0  0  0  0  0  0  0  0  0
   -2.5735   -3.1107    0.2851 H   0  0  0  0  0  0  0  0  0  0  0  0
    2.0104   -3.2732   -1.1403 H   0  0  0  0  0  0  0  0  0  0  0  0
    2.0322   -1.6401   -1.8336 H   0  0  0  0  0  0  0  0  0  0  0  0
    1.3110   -2.3040    1.0163 H   0  0  0  0  0  0  0  0  0  0  0  0
    2.9261    1.2888   -1.6257 H   0  0  0  0  0  0  0  0  0  0  0  0
    5.2436    2.0927   -1.7778 H   0  0  0  0  0  0  0  0  0  0  0  0
    7.5007    2.3626   -0.7643 H   0  0  0  0  0  0  0  0  0  0  0  0
    9.0396    2.0450    1.1395 H   0  0  0  0  0  0  0  0  0  0  0  0
    8.2522    0.9299    3.2104 H   0  0  0  0  0  0  0  0  0  0  0  0
    5.9259    0.1308    3.3807 H   0  0  0  0  0  0  0  0  0  0  0  0
    3.6770   -0.1602    2.3695 H   0  0  0  0  0  0  0  0  0  0  0  0
  1  2  1  0
  2  3  1  0
  3  4  1  0
  4  5  2  0
  5  6  1  0
  6  7  2  0
  7  8  1  0
  8  9  2  0
  2 10  1  0
 10 11  2  0
 10 12  1  0
 12 13  1  0
 13 14  1  0
 14 15  2  0
 14 16  1  0
 16 17  1  0
 17 18  1  0
 18 19  2  0
 18 20  2  0
 18 21  1  0
 21 22  2  0
 22 23  1  0
 23 24  2  0
 24 25  1  0
 25 26  2  0
 26 27  1  0
 27 28  2  0
 28 29  1  0
 29 30  2  0
  9  4  1  0
 30 21  1  0
 29 24  1  0
  1 31  1  0
  1 32  1  0
  1 33  1  0
  3 34  1  0
  3 35  1  0
  5 36  1  0
  6 37  1  0
  7 38  1  0
  8 39  1  0
  9 40  1  0
 12 41  1  0
 12 42  1  0
 16 43  1  0
 16 44  1  0
 17 45  1  0
 22 46  1  0
 23 47  1  0
 25 48  1  0
 26 49  1  0
 27 50  1  0
 28 51  1  0
 30 52  1  0
M  END
$$$$
