
     RDKit          3D

 52 55  0  0  0  0  0  0  0  0999 V2000
    7.0435   -1.6604    3.5232 C   0  0  0  0  0  0  0  0  0  0  0  0
    5.7160   -2.1301    3.7043 O   0  0  0  0  0  0  0  0  0  0  0  0
    4.7212   -1.4042    3.1149 C   0  0  0  0  0  0  0  0  0  0  0  0
    3.4317   -1.8421    3.4025 C   0  0  0  0  0  0  0  0  0  0  0  0
    2.3210   -1.1873    2.8643 C   0  0  0  0  0  0  0  0  0  0  0  0
    2.4856   -0.0809    2.0251 C   0  0  0  0  0  0  0  0  0  0  0  0
    1.3186    0.5275    1.5305 N   0  0  0  0  0  0  0  0  0  0  0  0
    1.2045    1.6246    0.6999 C   0  0  0  0  0  0  0  0  0  0  0  0
    2.1461    2.2644    0.2297 O   0  0  0  0  0  0  0  0  0  0  0  0
   -0.2275    2.0604    0.3951 C   0  0  0  0  0  0  0  0  0  0  0  0
   -1.4762    0.8097    0.8339 S   0  0  0  0  0  0  0  0  0  0  0  0
   -2.5886    1.0838   -0.5025 C   0  0  0  0  0  0  0  0  0  0  0  0
   -3.0669    2.2862   -0.5980 N   0  0  0  0  0  0  0  0  0  0  0  0
   -4.0261    2.4793   -1.5463 C   0  0  0  0  0  0  0  0  0  0  0  0
   -4.5427    1.5267   -2.3167 C   0  0  0  0  0  0  0  0  0  0  0  0
   -4.0306    0.1456   -2.2078 C   0  0  0  0  0  0  0  0  0  0  0  0
   -4.5080   -0.7578   -2.8914 O   0  0  0  0  0  0  0  0  0  0  0  0
   -2.9766    0.0045   -1.2992 N   0  0  0  0  0  0  0  0  0  0  0  0
   -2.2925   -1.2520   -1.2764 C   0  0  0  0  0  0  0  0  0  0  0  0
   -3.0088   -2.4188   -0.9720 C   0  0  0  0  0  0  0  0  0  0  0  0
   -2.3617   -3.6515   -0.9253 C   0  0  0  0  0  0  0  0  0  0  0  0
   -0.9990   -3.7289   -1.1935 C   0  0  0  0  0  0  0  0  0  0  0  0
   -0.2800   -2.5801   -1.5327 C   0  0  0  0  0  0  0  0  0  0  0  0
   -0.9194   -1.3391   -1.5983 C   0  0  0  0  0  0  0  0  0  0  0  0
   -0.3113   -0.1763   -2.0034 O   0  0  0  0  0  0  0  0  0  0  0  0
    1.0442   -0.2585   -2.4244 C   0  0  0  0  0  0  0  0  0  0  0  0
   -5.7843    2.0295   -3.3850 S   0  0  0  0  0  0  0  0  0  0  0  0
   -5.4837    3.7920   -3.0129 C   0  0  0  0  0  0  0  0  0  0  0  0
   -4.6267    3.8383   -1.7441 C   0  0  0  0  0  0  0  0  0  0  0  0
    3.7748    0.3572    1.7395 C   0  0  0  0  0  0  0  0  0  0  0  0
    4.8892   -0.3003    2.2806 C   0  0  0  0  0  0  0  0  0  0  0  0
    7.7096   -2.3160    4.0920 H   0  0  0  0  0  0  0  0  0  0  0  0
    7.1600   -0.6473    3.9153 H   0  0  0  0  0  0  0  0  0  0  0  0
    7.3383   -1.7160    2.4715 H   0  0  0  0  0  0  0  0  0  0  0  0
    3.2881   -2.6999    4.0553 H   0  0  0  0  0  0  0  0  0  0  0  0
    1.3322   -1.5492    3.1217 H   0  0  0  0  0  0  0  0  0  0  0  0
    0.4380    0.1009    1.7997 H   0  0  0  0  0  0  0  0  0  0  0  0
   -0.4384    2.9747    0.9583 H   0  0  0  0  0  0  0  0  0  0  0  0
   -0.2730    2.2829   -0.6749 H   0  0  0  0  0  0  0  0  0  0  0  0
   -4.0722   -2.3720   -0.7550 H   0  0  0  0  0  0  0  0  0  0  0  0
   -2.9214   -4.5510   -0.6814 H   0  0  0  0  0  0  0  0  0  0  0  0
   -0.4961   -4.6911   -1.1584 H   0  0  0  0  0  0  0  0  0  0  0  0
    0.7748   -2.6967   -1.7626 H   0  0  0  0  0  0  0  0  0  0  0  0
    1.6925   -0.5355   -1.5859 H   0  0  0  0  0  0  0  0  0  0  0  0
    1.1671   -0.9455   -3.2692 H   0  0  0  0  0  0  0  0  0  0  0  0
    1.3497    0.7346   -2.7650 H   0  0  0  0  0  0  0  0  0  0  0  0
   -4.9463    4.2366   -3.8571 H   0  0  0  0  0  0  0  0  0  0  0  0
   -6.4284    4.3269   -2.8820 H   0  0  0  0  0  0  0  0  0  0  0  0
   -3.8496    4.6069   -1.8454 H   0  0  0  0  0  0  0  0  0  0  0  0
   -5.2421    4.1020   -0.8745 H   0  0  0  0  0  0  0  0  0  0  0  0
    3.9583    1.2087    1.0927 H   0  0  0  0  0  0  0  0  0  0  0  0
    5.8732    0.0845    2.0316 H   0  0  0  0  0  0  0  0  0  0  0  0
  1  2  1  0
  2  3  1  0
  3  4  2  0
  4  5  1  0
  5  6  2  0
  6  7  1  0
  7  8  1  0
  8  9  2  0
  8 10  1  0
 10 11  1  0
 11 12  1  0
 12 13  2  0
 13 14  1  0
 14 15  2  0
 15 16  1  0
 16 17  2  0
 16 18  1  0
 18 19  1  0
 19 20  2  0
 20 21  1  0
 21 22  2  0
 22 23  1  0
 23 24  2  0
 24 25  1  0
 25 26  1  0
 15 27  1  0
 27 28  1  0
 28 29  1  0
  6 30  1  0
 30 31  2  0
 31  3  1  0
 18 12  1  0
 24 19  1  0
 29 14  1  0
  1 32  1  0
  1 33  1  0
  1 34  1  0
  4 35  1  0
  5 36  1  0
  7 37  1  0
 10 38  1  0
 10 39  1  0
 20 40  1  0
 21 41  1  0
 22 42  1  0
 23 43  1  0
 26 44  1  0
 26 45  1  0
 26 46  1  0
 28 47  1  0
 28 48  1  0
 29 49  1  0
 29 50  1  0
 30 51  1  0
 31 52  1  0
M  END
$$$$
