
     RDKit          3D

 41 42  0  0  0  0  0  0  0  0999 V2000
   -0.1096    4.4475    1.4021 C   0  0  0  0  0  0  0  0  0  0  0  0
    1.0124    3.4280    1.4245 C   0  0  0  0  0  0  0  0  0  0  0  0
    0.5412    2.2370    0.7768 O   0  0  0  0  0  0  0  0  0  0  0  0
    1.4619    1.2085    0.7417 C   0  0  0  0  0  0  0  0  0  0  0  0
    2.5876    1.3210    1.2064 O   0  0  0  0  0  0  0  0  0  0  0  0
    0.8634   -0.0266    0.0037 C   0  0  0  0  0  0  0  0  0  0  0  0
   -0.6185    0.1563   -0.0008 N   0  0  0  0  0  0  0  0  0  0  0  0
   -1.4687   -0.7127   -0.6361 C   0  0  0  0  0  0  0  0  0  0  0  0
   -1.1010   -1.8142   -1.0237 O   0  0  0  0  0  0  0  0  0  0  0  0
   -2.8712   -0.2622   -0.8370 C   0  0  0  0  0  0  0  0  0  0  0  0
   -3.5993   -0.8185   -1.8977 C   0  0  0  0  0  0  0  0  0  0  0  0
   -4.9187   -0.4253   -2.1283 C   0  0  0  0  0  0  0  0  0  0  0  0
   -5.5177    0.5189   -1.2950 C   0  0  0  0  0  0  0  0  0  0  0  0
   -4.7974    1.0594   -0.2305 C   0  0  0  0  0  0  0  0  0  0  0  0
   -5.5440    2.2138    0.8049 Cl  0  0  0  0  0  0  0  0  0  0  0  0
   -3.4785    0.6734    0.0086 C   0  0  0  0  0  0  0  0  0  0  0  0
    1.0412   -1.2783    0.7669 N   0  0  0  0  0  0  0  0  0  0  0  0
    2.2480   -1.8952    0.7744 C   0  0  0  0  0  0  0  0  0  0  0  0
    3.4131   -1.3568    0.5009 N   0  0  0  0  0  0  0  0  0  0  0  0
    4.4540   -2.2596    0.5635 N   0  0  0  0  0  0  0  0  0  0  0  0
    4.0418   -3.4629    0.8940 C   0  0  0  0  0  0  0  0  0  0  0  0
    4.9180   -4.6497    1.0488 C   0  0  0  0  0  0  0  0  0  0  0  0
    2.3490   -3.5782    1.1409 S   0  0  0  0  0  0  0  0  0  0  0  0
    1.4757    0.0493   -1.4335 C   0  0  0  0  0  0  0  0  0  0  0  0
    1.3333   -1.1092   -2.1220 F   0  0  0  0  0  0  0  0  0  0  0  0
    0.8253    1.0060   -2.1599 F   0  0  0  0  0  0  0  0  0  0  0  0
    2.7827    0.3800   -1.4740 F   0  0  0  0  0  0  0  0  0  0  0  0
   -0.4103    4.6670    0.3723 H   0  0  0  0  0  0  0  0  0  0  0  0
   -0.9948    4.0575    1.9154 H   0  0  0  0  0  0  0  0  0  0  0  0
    0.1988    5.3782    1.8864 H   0  0  0  0  0  0  0  0  0  0  0  0
    1.2868    3.2019    2.4608 H   0  0  0  0  0  0  0  0  0  0  0  0
    1.8817    3.8211    0.8858 H   0  0  0  0  0  0  0  0  0  0  0  0
   -0.9047    1.1245    0.0954 H   0  0  0  0  0  0  0  0  0  0  0  0
   -3.1384   -1.5588   -2.5505 H   0  0  0  0  0  0  0  0  0  0  0  0
   -5.4783   -0.8569   -2.9552 H   0  0  0  0  0  0  0  0  0  0  0  0
   -6.5460    0.8225   -1.4758 H   0  0  0  0  0  0  0  0  0  0  0  0
   -2.9530    1.0855    0.8646 H   0  0  0  0  0  0  0  0  0  0  0  0
    0.2801   -1.9213    0.5476 H   0  0  0  0  0  0  0  0  0  0  0  0
    4.6348   -5.4380    0.3442 H   0  0  0  0  0  0  0  0  0  0  0  0
    5.9619   -4.3836    0.8540 H   0  0  0  0  0  0  0  0  0  0  0  0
    4.8572   -5.0493    2.0661 H   0  0  0  0  0  0  0  0  0  0  0  0
  1  2  1  0
  2  3  1  0
  3  4  1  0
  4  5  2  0
  4  6  1  0
  6  7  1  0
  7  8  1  0
  8  9  2  0
  8 10  1  0
 10 11  2  0
 11 12  1  0
 12 13  2  0
 13 14  1  0
 14 15  1  0
 14 16  2  0
  6 17  1  0
 17 18  1  0
 18 19  2  0
 19 20  1  0
 20 21  2  0
 21 22  1  0
 21 23  1  0
  6 24  1  0
 24 25  1  0
 24 26  1  0
 24 27  1  0
 16 10  1  0
 23 18  1  0
  1 28  1  0
  1 29  1  0
  1 30  1  0
  2 31  1  0
  2 32  1  0
  7 33  1  0
 11 34  1  0
 12 35  1  0
 13 36  1  0
 16 37  1  0
 17 38  1  0
 22 39  1  0
 22 40  1  0
 22 41  1  0
M  END
$$$$
