
     RDKit          3D

 63 67  0  0  0  0  0  0  0  0999 V2000
    2.7974    5.5839   -2.9998 C   0  0  0  0  0  0  0  0  0  0  0  0
    2.5733    5.0066   -1.7200 O   0  0  0  0  0  0  0  0  0  0  0  0
    2.8317    3.6701   -1.5907 C   0  0  0  0  0  0  0  0  0  0  0  0
    2.5655    3.1439   -0.3250 C   0  0  0  0  0  0  0  0  0  0  0  0
    2.7813    1.7898   -0.0550 C   0  0  0  0  0  0  0  0  0  0  0  0
    3.2692    0.9380   -1.0521 C   0  0  0  0  0  0  0  0  0  0  0  0
    3.4690   -0.4908   -0.7766 C   0  0  0  0  0  0  0  0  0  0  0  0
    5.0557   -1.1247   -0.8741 S   0  0  0  0  0  0  0  0  0  0  0  0
    4.5518   -2.7039   -0.4287 C   0  0  0  0  0  0  0  0  0  0  0  0
    5.3682   -3.8430   -0.2894 C   0  0  0  0  0  0  0  0  0  0  0  0
    4.7868   -5.0620    0.0782 C   0  0  0  0  0  0  0  0  0  0  0  0
    3.4201   -5.1545    0.3015 C   0  0  0  0  0  0  0  0  0  0  0  0
    2.7374   -6.2848    0.6598 O   0  0  0  0  0  0  0  0  0  0  0  0
    3.4964   -7.4781    0.8047 C   0  0  0  0  0  0  0  0  0  0  0  0
    2.6204   -4.0138    0.1602 C   0  0  0  0  0  0  0  0  0  0  0  0
    3.1761   -2.7589   -0.2049 C   0  0  0  0  0  0  0  0  0  0  0  0
    2.5549   -1.4667   -0.4053 C   0  0  0  0  0  0  0  0  0  0  0  0
    1.1338   -1.1691   -0.2470 C   0  0  0  0  0  0  0  0  0  0  0  0
    0.5385   -1.2506    1.0151 C   0  0  0  0  0  0  0  0  0  0  0  0
   -0.8170   -0.9504    1.1687 C   0  0  0  0  0  0  0  0  0  0  0  0
   -1.5904   -0.5638    0.0712 C   0  0  0  0  0  0  0  0  0  0  0  0
   -2.8972   -0.2881    0.3626 O   0  0  0  0  0  0  0  0  0  0  0  0
   -3.6887    0.2841   -0.6815 C   0  0  0  0  0  0  0  0  0  0  0  0
   -5.0769    0.6644   -0.1286 C   0  0  0  0  0  0  0  0  0  0  0  0
   -5.1234    1.9694    0.5623 N   0  0  0  0  0  0  0  0  0  0  0  0
   -4.2389    2.0006    1.7504 C   0  0  0  0  0  0  0  0  0  0  0  0
   -4.6713    3.0766    2.7583 C   0  0  0  0  0  0  0  0  0  0  0  0
   -5.9749    2.8325    3.3070 O   0  0  0  0  0  0  0  0  0  0  0  0
   -6.8295    2.1014    2.4173 C   0  0  0  0  0  0  0  0  0  0  0  0
   -6.5053    2.3442    0.9352 C   0  0  0  0  0  0  0  0  0  0  0  0
   -1.0009   -0.4977   -1.1913 C   0  0  0  0  0  0  0  0  0  0  0  0
    0.3560   -0.8008   -1.3502 C   0  0  0  0  0  0  0  0  0  0  0  0
    3.5374    1.4702   -2.3205 C   0  0  0  0  0  0  0  0  0  0  0  0
    3.3214    2.8279   -2.5885 C   0  0  0  0  0  0  0  0  0  0  0  0
    2.1577    5.1219   -3.7592 H   0  0  0  0  0  0  0  0  0  0  0  0
    2.5306    6.6435   -2.9401 H   0  0  0  0  0  0  0  0  0  0  0  0
    3.8537    5.5221   -3.2809 H   0  0  0  0  0  0  0  0  0  0  0  0
    2.1827    3.7929    0.4588 H   0  0  0  0  0  0  0  0  0  0  0  0
    2.5626    1.4071    0.9390 H   0  0  0  0  0  0  0  0  0  0  0  0
    6.4387   -3.7787   -0.4654 H   0  0  0  0  0  0  0  0  0  0  0  0
    5.4416   -5.9217    0.1783 H   0  0  0  0  0  0  0  0  0  0  0  0
    4.2356   -7.3807    1.6064 H   0  0  0  0  0  0  0  0  0  0  0  0
    2.8070   -8.2807    1.0835 H   0  0  0  0  0  0  0  0  0  0  0  0
    3.9721   -7.7609   -0.1399 H   0  0  0  0  0  0  0  0  0  0  0  0
    1.5492   -4.0966    0.3322 H   0  0  0  0  0  0  0  0  0  0  0  0
    1.1233   -1.5386    1.8854 H   0  0  0  0  0  0  0  0  0  0  0  0
   -1.2723   -1.0112    2.1541 H   0  0  0  0  0  0  0  0  0  0  0  0
   -3.8287   -0.4665   -1.4689 H   0  0  0  0  0  0  0  0  0  0  0  0
   -3.2029    1.1710   -1.1073 H   0  0  0  0  0  0  0  0  0  0  0  0
   -5.7501    0.7235   -0.9928 H   0  0  0  0  0  0  0  0  0  0  0  0
   -5.4482   -0.1303    0.5310 H   0  0  0  0  0  0  0  0  0  0  0  0
   -3.2106    2.2017    1.4316 H   0  0  0  0  0  0  0  0  0  0  0  0
   -4.2583    1.0322    2.2670 H   0  0  0  0  0  0  0  0  0  0  0  0
   -3.9666    3.1119    3.5958 H   0  0  0  0  0  0  0  0  0  0  0  0
   -4.6745    4.0700    2.2938 H   0  0  0  0  0  0  0  0  0  0  0  0
   -7.8591    2.4064    2.6303 H   0  0  0  0  0  0  0  0  0  0  0  0
   -6.7492    1.0362    2.6638 H   0  0  0  0  0  0  0  0  0  0  0  0
   -7.2470    1.8432    0.3019 H   0  0  0  0  0  0  0  0  0  0  0  0
   -6.6063    3.4181    0.7334 H   0  0  0  0  0  0  0  0  0  0  0  0
   -1.5649   -0.2151   -2.0736 H   0  0  0  0  0  0  0  0  0  0  0  0
    0.8006   -0.7419   -2.3410 H   0  0  0  0  0  0  0  0  0  0  0  0
    3.9107    0.8285   -3.1156 H   0  0  0  0  0  0  0  0  0  0  0  0
    3.5445    3.1911   -3.5859 H   0  0  0  0  0  0  0  0  0  0  0  0
  1  2  1  0
  2  3  1  0
  3  4  2  0
  4  5  1  0
  5  6  2  0
  6  7  1  0
  7  8  1  0
  8  9  1  0
  9 10  2  0
 10 11  1  0
 11 12  2  0
 12 13  1  0
 13 14  1  0
 12 15  1  0
 15 16  2  0
 16 17  1  0
 17 18  1  0
 18 19  2  0
 19 20  1  0
 20 21  2  0
 21 22  1  0
 22 23  1  0
 23 24  1  0
 24 25  1  0
 25 26  1  0
 26 27  1  0
 27 28  1  0
 28 29  1  0
 29 30  1  0
 21 31  1  0
 31 32  2  0
  6 33  1  0
 33 34  2  0
 34  3  1  0
 17  7  2  0
 32 18  1  0
 16  9  1  0
 30 25  1  0
  1 35  1  0
  1 36  1  0
  1 37  1  0
  4 38  1  0
  5 39  1  0
 10 40  1  0
 11 41  1  0
 14 42  1  0
 14 43  1  0
 14 44  1  0
 15 45  1  0
 19 46  1  0
 20 47  1  0
 23 48  1  0
 23 49  1  0
 24 50  1  0
 24 51  1  0
 26 52  1  0
 26 53  1  0
 27 54  1  0
 27 55  1  0
 29 56  1  0
 29 57  1  0
 30 58  1  0
 30 59  1  0
 31 60  1  0
 32 61  1  0
 33 62  1  0
 34 63  1  0
M  END
$$$$
