
     RDKit          3D

 39 41  0  0  0  0  0  0  0  0999 V2000
   -4.9442    2.8488   -1.9902 C   0  0  0  0  0  0  0  0  0  0  0  0
   -5.6893    1.7253   -1.5438 O   0  0  0  0  0  0  0  0  0  0  0  0
   -4.9880    0.6165   -1.1488 C   0  0  0  0  0  0  0  0  0  0  0  0
   -3.5977    0.4792   -1.2170 C   0  0  0  0  0  0  0  0  0  0  0  0
   -2.9760   -0.7011   -0.7827 C   0  0  0  0  0  0  0  0  0  0  0  0
   -1.5176   -0.8207   -0.8751 C   0  0  0  0  0  0  0  0  0  0  0  0
   -0.6678   -0.8277    0.1606 C   0  0  0  0  0  0  0  0  0  0  0  0
   -1.0412   -0.7009    1.8406 S   0  0  0  0  0  0  0  0  0  0  0  0
    0.6517   -0.7585    2.3269 C   0  0  0  0  0  0  0  0  0  0  0  0
    1.1528   -0.7363    3.9178 S   0  0  0  0  0  0  0  0  0  0  0  0
    1.4292   -0.8679    1.1924 N   0  0  0  0  0  0  0  0  0  0  0  0
    2.8312   -0.8506    1.2328 N   0  0  0  0  0  0  0  0  0  0  0  0
    3.4508    0.3793    1.1129 C   0  0  0  0  0  0  0  0  0  0  0  0
    2.8497    1.4462    1.1917 O   0  0  0  0  0  0  0  0  0  0  0  0
    4.9149    0.3663    0.9030 C   0  0  0  0  0  0  0  0  0  0  0  0
    5.5948   -0.6680    0.2551 C   0  0  0  0  0  0  0  0  0  0  0  0
    6.9789   -0.5842    0.1044 C   0  0  0  0  0  0  0  0  0  0  0  0
    7.6326    0.5326    0.6017 C   0  0  0  0  0  0  0  0  0  0  0  0
    7.0029    1.5536    1.2206 N   0  0  0  0  0  0  0  0  0  0  0  0
    5.6563    1.4537    1.3496 C   0  0  0  0  0  0  0  0  0  0  0  0
    0.8029   -0.9383   -0.0396 C   0  0  0  0  0  0  0  0  0  0  0  0
    1.3475   -1.1082   -1.1229 O   0  0  0  0  0  0  0  0  0  0  0  0
   -3.7521   -1.7545   -0.2879 C   0  0  0  0  0  0  0  0  0  0  0  0
   -5.1394   -1.6292   -0.2170 C   0  0  0  0  0  0  0  0  0  0  0  0
   -5.7474   -0.4496   -0.6460 C   0  0  0  0  0  0  0  0  0  0  0  0
   -7.1098   -0.3254   -0.5774 O   0  0  0  0  0  0  0  0  0  0  0  0
   -5.6533    3.6471   -2.2295 H   0  0  0  0  0  0  0  0  0  0  0  0
   -4.3874    2.6146   -2.9034 H   0  0  0  0  0  0  0  0  0  0  0  0
   -4.2782    3.2204   -1.2043 H   0  0  0  0  0  0  0  0  0  0  0  0
   -2.9758    1.2808   -1.6025 H   0  0  0  0  0  0  0  0  0  0  0  0
   -1.1328   -0.8831   -1.8923 H   0  0  0  0  0  0  0  0  0  0  0  0
    3.2976   -1.7310    1.0580 H   0  0  0  0  0  0  0  0  0  0  0  0
    5.0740   -1.5213   -0.1667 H   0  0  0  0  0  0  0  0  0  0  0  0
    7.5361   -1.3666   -0.4000 H   0  0  0  0  0  0  0  0  0  0  0  0
    8.7096    0.6422    0.5062 H   0  0  0  0  0  0  0  0  0  0  0  0
    5.1812    2.2982    1.8442 H   0  0  0  0  0  0  0  0  0  0  0  0
   -3.2851   -2.6788    0.0439 H   0  0  0  0  0  0  0  0  0  0  0  0
   -5.7270   -2.4552    0.1711 H   0  0  0  0  0  0  0  0  0  0  0  0
   -7.4844   -1.1295   -0.1868 H   0  0  0  0  0  0  0  0  0  0  0  0
  1  2  1  0
  2  3  1  0
  3  4  2  0
  4  5  1  0
  5  6  1  0
  6  7  2  3
  7  8  1  0
  8  9  1  0
  9 10  2  0
  9 11  1  0
 11 12  1  0
 12 13  1  0
 13 14  2  0
 13 15  1  0
 15 16  2  0
 16 17  1  0
 17 18  2  0
 18 19  1  0
 19 20  2  0
 11 21  1  0
 21 22  2  0
  5 23  2  0
 23 24  1  0
 24 25  2  0
 25 26  1  0
 25  3  1  0
 21  7  1  0
 20 15  1  0
  1 27  1  0
  1 28  1  0
  1 29  1  0
  4 30  1  0
  6 31  1  0
 12 32  1  0
 16 33  1  0
 17 34  1  0
 18 35  1  0
 20 36  1  0
 23 37  1  0
 24 38  1  0
 26 39  1  0
M  END
$$$$
