
     RDKit          3D

 39 40  0  0  0  0  0  0  0  0999 V2000
   -3.4292    3.5469   -2.8992 C   0  0  0  0  0  0  0  0  0  0  0  0
   -2.4585    2.4160   -2.6912 C   0  0  0  0  0  0  0  0  0  0  0  0
   -2.2593    1.5717   -3.5575 O   0  0  0  0  0  0  0  0  0  0  0  0
   -1.8082    2.4770   -1.4880 N   0  0  0  0  0  0  0  0  0  0  0  0
   -1.4696    1.3730   -0.8853 C   0  0  0  0  0  0  0  0  0  0  0  0
   -1.7527   -0.0469   -1.3362 C   0  0  0  0  0  0  0  0  0  0  0  0
   -1.7113   -1.0852   -0.2390 C   0  0  0  0  0  0  0  0  0  0  0  0
   -2.7489   -1.1689    0.7000 C   0  0  0  0  0  0  0  0  0  0  0  0
   -2.6965   -2.1127    1.7267 C   0  0  0  0  0  0  0  0  0  0  0  0
   -1.6108   -2.9810    1.8240 C   0  0  0  0  0  0  0  0  0  0  0  0
   -0.5753   -2.9069    0.8949 C   0  0  0  0  0  0  0  0  0  0  0  0
   -0.6234   -1.9632   -0.1316 C   0  0  0  0  0  0  0  0  0  0  0  0
   -0.6647    1.5308    0.3933 C   0  0  0  0  0  0  0  0  0  0  0  0
   -1.1382    1.9955    1.4132 O   0  0  0  0  0  0  0  0  0  0  0  0
    0.5930    1.1112    0.1671 O   0  0  0  0  0  0  0  0  0  0  0  0
    1.4277    1.1562    1.3245 C   0  0  0  0  0  0  0  0  0  0  0  0
    2.6362    0.2992    1.0497 C   0  0  0  0  0  0  0  0  0  0  0  0
    2.7649   -0.9639    1.6443 C   0  0  0  0  0  0  0  0  0  0  0  0
    3.8762   -1.7637    1.3732 C   0  0  0  0  0  0  0  0  0  0  0  0
    4.8659   -1.3117    0.5021 C   0  0  0  0  0  0  0  0  0  0  0  0
    4.7445   -0.0611   -0.1008 C   0  0  0  0  0  0  0  0  0  0  0  0
    3.6341    0.7404    0.1690 C   0  0  0  0  0  0  0  0  0  0  0  0
   -2.8831    4.4909   -2.9731 H   0  0  0  0  0  0  0  0  0  0  0  0
   -3.9909    3.3850   -3.8233 H   0  0  0  0  0  0  0  0  0  0  0  0
   -4.1346    3.5873   -2.0647 H   0  0  0  0  0  0  0  0  0  0  0  0
   -1.0262   -0.3002   -2.1177 H   0  0  0  0  0  0  0  0  0  0  0  0
   -2.7478   -0.0957   -1.7931 H   0  0  0  0  0  0  0  0  0  0  0  0
   -3.6043   -0.4987    0.6426 H   0  0  0  0  0  0  0  0  0  0  0  0
   -3.5040   -2.1704    2.4523 H   0  0  0  0  0  0  0  0  0  0  0  0
   -1.5731   -3.7165    2.6233 H   0  0  0  0  0  0  0  0  0  0  0  0
    0.2723   -3.5837    0.9687 H   0  0  0  0  0  0  0  0  0  0  0  0
    0.2001   -1.9152   -0.8424 H   0  0  0  0  0  0  0  0  0  0  0  0
    1.7404    2.1902    1.5121 H   0  0  0  0  0  0  0  0  0  0  0  0
    0.8982    0.7849    2.2110 H   0  0  0  0  0  0  0  0  0  0  0  0
    1.9972   -1.3344    2.3205 H   0  0  0  0  0  0  0  0  0  0  0  0
    3.9692   -2.7406    1.8405 H   0  0  0  0  0  0  0  0  0  0  0  0
    5.7306   -1.9352    0.2906 H   0  0  0  0  0  0  0  0  0  0  0  0
    5.5135    0.2893   -0.7845 H   0  0  0  0  0  0  0  0  0  0  0  0
    3.5465    1.7105   -0.3157 H   0  0  0  0  0  0  0  0  0  0  0  0
  1  2  1  0
  2  3  2  0
  2  4  1  0
  4  5  2  3
  5  6  1  0
  6  7  1  0
  7  8  2  0
  8  9  1  0
  9 10  2  0
 10 11  1  0
 11 12  2  0
  5 13  1  0
 13 14  2  0
 13 15  1  0
 15 16  1  0
 16 17  1  0
 17 18  2  0
 18 19  1  0
 19 20  2  0
 20 21  1  0
 21 22  2  0
 12  7  1  0
 22 17  1  0
  1 23  1  0
  1 24  1  0
  1 25  1  0
  6 26  1  0
  6 27  1  0
  8 28  1  0
  9 29  1  0
 10 30  1  0
 11 31  1  0
 12 32  1  0
 16 33  1  0
 16 34  1  0
 18 35  1  0
 19 36  1  0
 20 37  1  0
 21 38  1  0
 22 39  1  0
M  END
$$$$
