
     RDKit          3D

 56 59  0  0  0  0  0  0  0  0999 V2000
    9.0028    1.2549    3.0324 C   0  0  0  0  0  0  0  0  0  0  0  0
    8.5242   -0.0774    2.8972 O   0  0  0  0  0  0  0  0  0  0  0  0
    7.2128   -0.2309    2.5412 C   0  0  0  0  0  0  0  0  0  0  0  0
    6.3281    0.7972    2.2073 C   0  0  0  0  0  0  0  0  0  0  0  0
    5.0061    0.5003    1.8627 C   0  0  0  0  0  0  0  0  0  0  0  0
    4.5755   -0.8294    1.8461 C   0  0  0  0  0  0  0  0  0  0  0  0
    2.8877   -1.1806    1.4273 S   0  0  0  0  0  6  0  0  0  0  0  0
    2.0613   -0.2365    2.1454 O   0  0  0  0  0  0  0  0  0  0  0  0
    2.6698   -2.6071    1.5422 O   0  0  0  0  0  0  0  0  0  0  0  0
    2.8306   -0.8029   -0.2018 N   0  0  0  0  0  0  0  0  0  0  0  0
    3.6736   -1.5605   -1.1389 C   0  0  0  0  0  0  0  0  0  0  0  0
    2.7263   -1.9540   -2.2492 C   0  0  0  0  0  0  0  0  0  0  0  0
    1.7172   -0.9431   -2.2320 O   0  0  0  0  0  0  0  0  0  0  0  0
    1.5100   -0.6111   -0.8389 C   0  0  0  0  0  0  0  0  0  0  0  0
    0.3524   -1.4851   -0.2849 C   0  0  0  0  0  0  0  0  0  0  0  0
   -0.8745   -1.3802   -1.0584 N   0  0  0  0  0  0  0  0  0  0  0  0
   -1.6169   -0.2236   -1.0873 C   0  0  0  0  0  0  0  0  0  0  0  0
   -1.3943    0.7864   -0.4343 O   0  0  0  0  0  0  0  0  0  0  0  0
   -2.8153   -0.2706   -2.0627 C   0  0  0  0  0  0  0  0  0  0  0  0
   -2.9969   -1.2537   -2.7654 O   0  0  0  0  0  0  0  0  0  0  0  0
   -3.5886    0.8622   -2.0248 N   0  0  0  0  0  0  0  0  0  0  0  0
   -4.7919    1.0217   -2.7966 C   0  0  0  0  0  0  0  0  0  0  0  0
   -5.9615    1.3006   -1.8888 C   0  0  0  0  0  0  0  0  0  0  0  0
   -6.3947    2.6277   -1.6628 C   0  0  0  0  0  0  0  0  0  0  0  0
   -7.4572    2.8992   -0.7947 C   0  0  0  0  0  0  0  0  0  0  0  0
   -8.0592    1.8323   -0.1645 C   0  0  0  0  0  0  0  0  0  0  0  0
   -7.6412    0.5396   -0.3714 C   0  0  0  0  0  0  0  0  0  0  0  0
   -6.5988    0.2403   -1.2224 C   0  0  0  0  0  0  0  0  0  0  0  0
   -8.3612   -0.3598    0.3505 O   0  0  0  0  0  0  0  0  0  0  0  0
   -9.2697    0.5169    1.0476 C   0  0  0  0  0  0  0  0  0  0  0  0
   -9.0960    1.9091    0.7119 O   0  0  0  0  0  0  0  0  0  0  0  0
    5.4473   -1.8632    2.1849 C   0  0  0  0  0  0  0  0  0  0  0  0
    6.7662   -1.5569    2.5250 C   0  0  0  0  0  0  0  0  0  0  0  0
    8.9940    1.7744    2.0694 H   0  0  0  0  0  0  0  0  0  0  0  0
    8.4318    1.8088    3.7840 H   0  0  0  0  0  0  0  0  0  0  0  0
   10.0407    1.2053    3.3748 H   0  0  0  0  0  0  0  0  0  0  0  0
    6.6332    1.8390    2.2118 H   0  0  0  0  0  0  0  0  0  0  0  0
    4.3176    1.3048    1.6128 H   0  0  0  0  0  0  0  0  0  0  0  0
    4.4511   -0.8867   -1.5142 H   0  0  0  0  0  0  0  0  0  0  0  0
    4.1599   -2.4370   -0.7043 H   0  0  0  0  0  0  0  0  0  0  0  0
    2.2598   -2.9269   -2.0570 H   0  0  0  0  0  0  0  0  0  0  0  0
    3.2131   -1.9865   -3.2269 H   0  0  0  0  0  0  0  0  0  0  0  0
    1.2427    0.4494   -0.7990 H   0  0  0  0  0  0  0  0  0  0  0  0
    0.6230   -2.5461   -0.2944 H   0  0  0  0  0  0  0  0  0  0  0  0
    0.1096   -1.2014    0.7435 H   0  0  0  0  0  0  0  0  0  0  0  0
   -1.1023   -2.0835   -1.7566 H   0  0  0  0  0  0  0  0  0  0  0  0
   -3.3132    1.5816   -1.3621 H   0  0  0  0  0  0  0  0  0  0  0  0
   -4.9889    0.1355   -3.4096 H   0  0  0  0  0  0  0  0  0  0  0  0
   -4.6307    1.8605   -3.4826 H   0  0  0  0  0  0  0  0  0  0  0  0
   -5.8984    3.4573   -2.1630 H   0  0  0  0  0  0  0  0  0  0  0  0
   -7.7934    3.9142   -0.6155 H   0  0  0  0  0  0  0  0  0  0  0  0
   -6.2802   -0.7872   -1.3621 H   0  0  0  0  0  0  0  0  0  0  0  0
  -10.2969    0.2226    0.8039 H   0  0  0  0  0  0  0  0  0  0  0  0
   -9.1166    0.3952    2.1259 H   0  0  0  0  0  0  0  0  0  0  0  0
    5.1162   -2.8990    2.1902 H   0  0  0  0  0  0  0  0  0  0  0  0
    7.4541   -2.3567    2.7895 H   0  0  0  0  0  0  0  0  0  0  0  0
  1  2  1  0
  2  3  1  0
  3  4  2  0
  4  5  1  0
  5  6  2  0
  6  7  1  0
  7  8  2  0
  7  9  2  0
  7 10  1  0
 10 11  1  0
 11 12  1  0
 12 13  1  0
 13 14  1  0
 14 15  1  0
 15 16  1  0
 16 17  1  0
 17 18  2  0
 17 19  1  0
 19 20  2  0
 19 21  1  0
 21 22  1  0
 22 23  1  0
 23 24  2  0
 24 25  1  0
 25 26  2  0
 26 27  1  0
 27 28  2  0
 27 29  1  0
 29 30  1  0
 30 31  1  0
  6 32  1  0
 32 33  2  0
 33  3  1  0
 14 10  1  0
 28 23  1  0
 31 26  1  0
  1 34  1  0
  1 35  1  0
  1 36  1  0
  4 37  1  0
  5 38  1  0
 11 39  1  0
 11 40  1  0
 12 41  1  0
 12 42  1  0
 14 43  1  0
 15 44  1  0
 15 45  1  0
 16 46  1  0
 21 47  1  0
 22 48  1  0
 22 49  1  0
 24 50  1  0
 25 51  1  0
 28 52  1  0
 30 53  1  0
 30 54  1  0
 32 55  1  0
 33 56  1  0
M  END
$$$$
