
     RDKit          3D

 44 47  0  0  0  0  0  0  0  0999 V2000
   -1.2255    4.3085   -2.4976 N   0  0  0  0  0  0  0  0  0  0  0  0
   -2.3222    3.5992   -2.1690 C   0  0  0  0  0  0  0  0  0  0  0  0
   -3.5648    3.9415   -2.5064 N   0  0  0  0  0  0  0  0  0  0  0  0
   -4.3830    2.9581   -1.9620 O   0  0  0  0  0  0  0  0  0  0  0  0
   -3.6355    1.9999   -1.2809 N   0  0  0  0  0  0  0  0  0  0  0  0
   -2.3737    2.4025   -1.4285 C   0  0  0  0  0  0  0  0  0  0  0  0
   -1.2936    1.6686   -0.8730 N   0  0  0  0  0  0  0  0  0  0  0  0
   -0.0025    2.0945   -1.0201 N   0  0  0  0  0  0  0  0  0  0  0  0
    0.8048    1.2713   -0.3778 N   0  0  0  0  0  0  0  0  0  0  0  0
    0.0473    0.2776    0.1845 C   0  0  0  0  0  0  0  0  0  0  0  0
    0.6445   -0.7899    0.9856 C   0  0  0  0  0  0  0  0  0  0  0  0
   -0.0303   -1.6430    1.5515 O   0  0  0  0  0  0  0  0  0  0  0  0
    2.0275   -0.6931    1.0312 N   0  0  0  0  0  0  0  0  0  0  0  0
    2.7629   -1.5531    1.7893 N   0  0  0  0  0  0  0  0  0  0  0  0
    4.0536   -1.4101    1.8325 C   0  0  0  0  0  0  0  0  0  0  0  0
    4.8774   -0.3959    1.1547 C   0  0  0  0  0  0  0  0  0  0  0  0
    5.7330   -0.7956    0.1211 C   0  0  0  0  0  0  0  0  0  0  0  0
    5.8358   -2.4365   -0.4083 Cl  0  0  0  0  0  0  0  0  0  0  0  0
    6.5329    0.1484   -0.5292 C   0  0  0  0  0  0  0  0  0  0  0  0
    6.4903    1.4879   -0.1433 C   0  0  0  0  0  0  0  0  0  0  0  0
    5.6536    1.8847    0.9001 C   0  0  0  0  0  0  0  0  0  0  0  0
    4.8516    0.9454    1.5559 C   0  0  0  0  0  0  0  0  0  0  0  0
    3.8749    1.5054    2.8645 Cl  0  0  0  0  0  0  0  0  0  0  0  0
   -1.2874    0.4837   -0.1360 C   0  0  0  0  0  0  0  0  0  0  0  0
   -2.4879   -0.3324    0.1933 C   0  0  0  0  0  0  0  0  0  0  0  0
   -2.9378   -1.3763   -1.2217 S   0  0  0  0  0  0  0  0  0  0  0  0
   -4.1526   -2.3508   -0.4686 C   0  0  0  0  0  0  0  0  0  0  0  0
   -3.9891   -3.6160   -0.2792 N   0  0  0  0  0  0  0  0  0  0  0  0
   -5.2230   -4.1798    0.3041 C   0  0  0  0  0  0  0  0  0  0  0  0
   -5.9956   -3.0930    1.0350 C   0  0  0  0  0  0  0  0  0  0  0  0
   -5.6500   -1.6280    0.0447 S   0  0  0  0  0  0  0  0  0  0  0  0
   -0.2927    3.9130   -2.3934 H   0  0  0  0  0  0  0  0  0  0  0  0
   -1.3023    5.0247   -3.2124 H   0  0  0  0  0  0  0  0  0  0  0  0
    2.4679    0.0745    0.5361 H   0  0  0  0  0  0  0  0  0  0  0  0
    4.6183   -2.1518    2.4244 H   0  0  0  0  0  0  0  0  0  0  0  0
    7.1934   -0.1542   -1.3399 H   0  0  0  0  0  0  0  0  0  0  0  0
    7.1144    2.2214   -0.6505 H   0  0  0  0  0  0  0  0  0  0  0  0
    5.6364    2.9302    1.2023 H   0  0  0  0  0  0  0  0  0  0  0  0
   -3.3245    0.3021    0.4971 H   0  0  0  0  0  0  0  0  0  0  0  0
   -2.2905   -0.9816    1.0504 H   0  0  0  0  0  0  0  0  0  0  0  0
   -4.9663   -4.9887    0.9968 H   0  0  0  0  0  0  0  0  0  0  0  0
   -5.8276   -4.6202   -0.4989 H   0  0  0  0  0  0  0  0  0  0  0  0
   -5.5971   -2.9420    2.0432 H   0  0  0  0  0  0  0  0  0  0  0  0
   -7.0649   -3.3109    1.0984 H   0  0  0  0  0  0  0  0  0  0  0  0
  1  2  1  0
  2  3  2  0
  3  4  1  0
  4  5  1  0
  5  6  2  0
  6  7  1  0
  7  8  1  0
  8  9  2  0
  9 10  1  0
 10 11  1  0
 11 12  2  0
 11 13  1  0
 13 14  1  0
 14 15  2  3
 15 16  1  0
 16 17  2  0
 17 18  1  0
 17 19  1  0
 19 20  2  0
 20 21  1  0
 21 22  2  0
 22 23  1  0
 10 24  2  0
 24 25  1  0
 25 26  1  0
 26 27  1  0
 27 28  2  0
 28 29  1  0
 29 30  1  0
 30 31  1  0
  6  2  1  0
 24  7  1  0
 31 27  1  0
 22 16  1  0
  1 32  1  0
  1 33  1  0
 13 34  1  0
 15 35  1  0
 19 36  1  0
 20 37  1  0
 21 38  1  0
 25 39  1  0
 25 40  1  0
 29 41  1  0
 29 42  1  0
 30 43  1  0
 30 44  1  0
M  END
$$$$
