
     RDKit          3D

 38 39  0  0  0  0  0  0  0  0999 V2000
    4.6916    2.1842    0.4274 C   0  0  0  0  0  0  0  0  0  0  0  0
    4.2413    0.8360    0.0071 C   0  0  0  0  0  0  0  0  0  0  0  0
    4.6393   -0.4163    0.5238 C   0  0  0  0  0  0  0  0  0  0  0  0
    3.9289   -1.3551   -0.1938 C   0  0  0  0  0  0  0  0  0  0  0  0
    3.9163   -2.8353   -0.0948 C   0  0  0  0  0  0  0  0  0  0  0  0
    3.1728   -0.6381   -1.0844 N   0  0  0  0  0  0  0  0  0  0  0  0
    2.2380   -1.1309   -2.0794 C   0  0  0  0  0  0  0  0  0  0  0  0
    0.7910   -0.9229   -1.6846 C   0  0  0  0  0  0  0  0  0  0  0  0
   -0.0624   -1.7592   -1.9871 O   0  0  0  0  0  0  0  0  0  0  0  0
    0.5302    0.2937   -1.0574 N   0  0  0  0  0  0  0  0  0  0  0  0
   -0.7111    0.8073   -0.7883 N   0  0  0  0  0  0  0  0  0  0  0  0
   -1.6496   -0.0180   -0.4427 C   0  0  0  0  0  0  0  0  0  0  0  0
   -3.0275    0.4590   -0.1936 C   0  0  0  0  0  0  0  0  0  0  0  0
   -3.9800   -0.4780    0.2208 C   0  0  0  0  0  0  0  0  0  0  0  0
   -5.2955   -0.0554    0.4641 C   0  0  0  0  0  0  0  0  0  0  0  0
   -6.2984   -1.0308    0.9067 N   0  0  0  0  0  4  0  0  0  0  0  0
   -5.8969   -2.1572    1.2326 O   0  0  0  0  0  0  0  0  0  0  0  0
   -7.4834   -0.6690    0.9314 O   0  0  0  0  0  1  0  0  0  0  0  0
   -5.6632    1.2865    0.2949 C   0  0  0  0  0  0  0  0  0  0  0  0
   -4.7052    2.2130   -0.1197 C   0  0  0  0  0  0  0  0  0  0  0  0
   -3.3953    1.8008   -0.3614 C   0  0  0  0  0  0  0  0  0  0  0  0
   -2.5187    2.7706   -0.7624 O   0  0  0  0  0  0  0  0  0  0  0  0
    3.3367    0.6996   -0.9696 N   0  0  0  0  0  0  0  0  0  0  0  0
    5.5123    2.1183    1.1487 H   0  0  0  0  0  0  0  0  0  0  0  0
    3.8692    2.7311    0.8997 H   0  0  0  0  0  0  0  0  0  0  0  0
    5.0446    2.7625   -0.4334 H   0  0  0  0  0  0  0  0  0  0  0  0
    5.3477   -0.6101    1.3175 H   0  0  0  0  0  0  0  0  0  0  0  0
    4.3131   -3.2868   -1.0102 H   0  0  0  0  0  0  0  0  0  0  0  0
    2.8986   -3.2049    0.0666 H   0  0  0  0  0  0  0  0  0  0  0  0
    4.5328   -3.1771    0.7428 H   0  0  0  0  0  0  0  0  0  0  0  0
    2.4217   -2.1982   -2.2276 H   0  0  0  0  0  0  0  0  0  0  0  0
    2.4384   -0.6064   -3.0195 H   0  0  0  0  0  0  0  0  0  0  0  0
    1.2956    0.9793   -1.0381 H   0  0  0  0  0  0  0  0  0  0  0  0
   -1.4726   -1.0952   -0.2853 H   0  0  0  0  0  0  0  0  0  0  0  0
   -3.6992   -1.5213    0.3485 H   0  0  0  0  0  0  0  0  0  0  0  0
   -6.6809    1.6243    0.4814 H   0  0  0  0  0  0  0  0  0  0  0  0
   -4.9761    3.2576   -0.2551 H   0  0  0  0  0  0  0  0  0  0  0  0
   -1.6438    2.3425   -0.8994 H   0  0  0  0  0  0  0  0  0  0  0  0
  1  2  1  0
  2  3  1  0
  3  4  2  0
  4  5  1  0
  4  6  1  0
  6  7  1  0
  7  8  1  0
  8  9  2  0
  8 10  1  0
 10 11  1  0
 11 12  2  3
 12 13  1  0
 13 14  2  0
 14 15  1  0
 15 16  1  0
 16 17  2  0
 16 18  1  0
 15 19  2  0
 19 20  1  0
 20 21  2  0
 21 22  1  0
  6 23  1  0
 23  2  2  0
 21 13  1  0
  1 24  1  0
  1 25  1  0
  1 26  1  0
  3 27  1  0
  5 28  1  0
  5 29  1  0
  5 30  1  0
  7 31  1  0
  7 32  1  0
 10 33  1  0
 12 34  1  0
 14 35  1  0
 19 36  1  0
 20 37  1  0
 22 38  1  0
M  CHG  2  16   1  18  -1
M  END
$$$$
