
     RDKit          3D

 25 27  0  0  0  0  0  0  0  0999 V2000
    5.4057    2.4847    0.6142 O   0  0  0  0  0  0  0  0  0  0  0  0
    4.3263    1.9737    0.3710 C   0  0  0  0  0  0  0  0  0  0  0  0
    4.0812    0.6446    0.2494 N   0  0  0  0  0  0  0  0  0  0  0  0
    2.8029    0.2200   -0.0209 C   0  0  0  0  0  0  0  0  0  0  0  0
    2.5140   -1.4158   -0.1448 S   0  0  0  0  0  0  0  0  0  0  0  0
    1.9029    1.4109   -0.1435 C   0  0  0  0  0  0  0  0  0  0  0  0
    0.5882    1.4980   -0.4009 C   0  0  0  0  0  0  0  0  0  0  0  0
   -0.3296    0.4414   -0.6459 C   0  0  0  0  0  0  0  0  0  0  0  0
   -0.4881   -0.1903   -1.8582 C   0  0  0  0  0  0  0  0  0  0  0  0
   -1.4710   -1.1339   -1.7055 N   0  0  0  0  0  0  0  0  0  0  0  0
   -1.9783   -1.0944   -0.4254 C   0  0  0  0  0  0  0  0  0  0  0  0
   -2.9939   -1.8553    0.1657 C   0  0  0  0  0  0  0  0  0  0  0  0
   -3.3044   -1.5935    1.5035 C   0  0  0  0  0  0  0  0  0  0  0  0
   -2.6250   -0.6108    2.2197 C   0  0  0  0  0  0  0  0  0  0  0  0
   -1.6107    0.1404    1.6147 C   0  0  0  0  0  0  0  0  0  0  0  0
   -1.2779   -0.1040    0.2663 C   0  0  0  0  0  0  0  0  0  0  0  0
    2.8429    2.8579    0.1268 S   0  0  0  0  0  0  0  0  0  0  0  0
    4.8364   -0.0126    0.3721 H   0  0  0  0  0  0  0  0  0  0  0  0
    0.1329    2.4879   -0.4162 H   0  0  0  0  0  0  0  0  0  0  0  0
    0.0138   -0.0675   -2.8086 H   0  0  0  0  0  0  0  0  0  0  0  0
   -1.7891   -1.7660   -2.4269 H   0  0  0  0  0  0  0  0  0  0  0  0
   -3.5246   -2.6229   -0.3878 H   0  0  0  0  0  0  0  0  0  0  0  0
   -4.0880   -2.1682    1.9922 H   0  0  0  0  0  0  0  0  0  0  0  0
   -2.8819   -0.4256    3.2597 H   0  0  0  0  0  0  0  0  0  0  0  0
   -1.0849    0.9012    2.1835 H   0  0  0  0  0  0  0  0  0  0  0  0
  1  2  2  0
  2  3  1  0
  3  4  1  0
  4  5  2  0
  4  6  1  0
  6  7  2  3
  7  8  1  0
  8  9  2  0
  9 10  1  0
 10 11  1  0
 11 12  2  0
 12 13  1  0
 13 14  2  0
 14 15  1  0
 15 16  2  0
  6 17  1  0
 17  2  1  0
 16  8  1  0
 16 11  1  0
  3 18  1  0
  7 19  1  0
  9 20  1  0
 10 21  1  0
 12 22  1  0
 13 23  1  0
 14 24  1  0
 15 25  1  0
M  END
$$$$
