
     RDKit          3D

 44 46  0  0  0  0  0  0  0  0999 V2000
    7.6611   -3.2740   -0.7280 C   0  0  0  0  0  0  0  0  0  0  0  0
    6.5845   -2.2547   -0.4968 C   0  0  0  0  0  0  0  0  0  0  0  0
    6.8974   -0.8909   -0.4620 C   0  0  0  0  0  0  0  0  0  0  0  0
    5.8909    0.0609   -0.2808 C   0  0  0  0  0  0  0  0  0  0  0  0
    4.5579   -0.3394   -0.1332 C   0  0  0  0  0  0  0  0  0  0  0  0
    3.5213    0.7131    0.0576 C   0  0  0  0  0  0  0  0  0  0  0  0
    3.7198    1.8616   -0.3226 O   0  0  0  0  0  0  0  0  0  0  0  0
    2.3679    0.3336    0.7037 N   0  0  0  0  0  0  0  0  0  0  0  0
    1.3341    1.3093    1.0083 C   0  0  0  0  0  0  0  0  0  0  0  0
    0.1806    0.6420    1.7379 C   0  0  0  0  0  0  0  0  0  0  0  0
    0.1905   -0.5215    2.1272 O   0  0  0  0  0  0  0  0  0  0  0  0
   -0.8391    1.5225    1.9110 O   0  0  0  0  0  0  0  0  0  0  0  0
   -2.0021    0.9929    2.5685 C   0  0  0  0  0  0  0  0  0  0  0  0
   -2.9353    0.3215    1.6118 C   0  0  0  0  0  0  0  0  0  0  0  0
   -2.9730   -1.0244    1.3088 C   0  0  0  0  0  0  0  0  0  0  0  0
   -4.1942   -1.3342    0.1548 S   0  0  0  0  0  0  0  0  0  0  0  0
   -4.6052    0.3418    0.1255 C   0  0  0  0  0  0  0  0  0  0  0  0
   -5.6801    0.8767   -0.7380 C   0  0  0  0  0  0  0  0  0  0  0  0
   -5.8739    2.2690   -0.7916 C   0  0  0  0  0  0  0  0  0  0  0  0
   -6.8733    2.8349   -1.5884 C   0  0  0  0  0  0  0  0  0  0  0  0
   -7.7021    2.0162   -2.3487 C   0  0  0  0  0  0  0  0  0  0  0  0
   -7.5318    0.6351   -2.3111 C   0  0  0  0  0  0  0  0  0  0  0  0
   -6.5304    0.0700   -1.5128 C   0  0  0  0  0  0  0  0  0  0  0  0
   -3.8702    1.0886    0.9312 N   0  0  0  0  0  0  0  0  0  0  0  0
    4.2367   -1.7006   -0.1974 C   0  0  0  0  0  0  0  0  0  0  0  0
    5.2464   -2.6508   -0.3797 C   0  0  0  0  0  0  0  0  0  0  0  0
    7.7906   -3.4446   -1.8012 H   0  0  0  0  0  0  0  0  0  0  0  0
    8.6137   -2.9386   -0.3048 H   0  0  0  0  0  0  0  0  0  0  0  0
    7.4087   -4.2244   -0.2460 H   0  0  0  0  0  0  0  0  0  0  0  0
    7.9268   -0.5584   -0.5785 H   0  0  0  0  0  0  0  0  0  0  0  0
    6.1497    1.1178   -0.2558 H   0  0  0  0  0  0  0  0  0  0  0  0
    2.3123   -0.5605    1.1791 H   0  0  0  0  0  0  0  0  0  0  0  0
    1.7669    2.0873    1.6442 H   0  0  0  0  0  0  0  0  0  0  0  0
    0.9812    1.7399    0.0664 H   0  0  0  0  0  0  0  0  0  0  0  0
   -2.5153    1.8439    3.0308 H   0  0  0  0  0  0  0  0  0  0  0  0
   -1.7207    0.3239    3.3912 H   0  0  0  0  0  0  0  0  0  0  0  0
   -2.3476   -1.8165    1.6971 H   0  0  0  0  0  0  0  0  0  0  0  0
   -5.2358    2.9287   -0.2046 H   0  0  0  0  0  0  0  0  0  0  0  0
   -7.0004    3.9141   -1.6123 H   0  0  0  0  0  0  0  0  0  0  0  0
   -8.4799    2.4536   -2.9692 H   0  0  0  0  0  0  0  0  0  0  0  0
   -8.1790   -0.0073   -2.9033 H   0  0  0  0  0  0  0  0  0  0  0  0
   -6.4374   -1.0129   -1.5125 H   0  0  0  0  0  0  0  0  0  0  0  0
    3.2071   -2.0408   -0.1377 H   0  0  0  0  0  0  0  0  0  0  0  0
    4.9806   -3.7045   -0.4381 H   0  0  0  0  0  0  0  0  0  0  0  0
  1  2  1  0
  2  3  2  0
  3  4  1  0
  4  5  2  0
  5  6  1  0
  6  7  2  0
  6  8  1  0
  8  9  1  0
  9 10  1  0
 10 11  2  0
 10 12  1  0
 12 13  1  0
 13 14  1  0
 14 15  2  0
 15 16  1  0
 16 17  1  0
 17 18  1  0
 18 19  2  0
 19 20  1  0
 20 21  2  0
 21 22  1  0
 22 23  2  0
 17 24  2  0
  5 25  1  0
 25 26  2  0
 26  2  1  0
 24 14  1  0
 23 18  1  0
  1 27  1  0
  1 28  1  0
  1 29  1  0
  3 30  1  0
  4 31  1  0
  8 32  1  0
  9 33  1  0
  9 34  1  0
 13 35  1  0
 13 36  1  0
 15 37  1  0
 19 38  1  0
 20 39  1  0
 21 40  1  0
 22 41  1  0
 23 42  1  0
 25 43  1  0
 26 44  1  0
M  END
$$$$
