
     RDKit          3D

 35 37  0  0  0  0  0  0  0  0999 V2000
    6.6647   -0.2525    0.7566 C   0  0  0  0  0  0  0  0  0  0  0  0
    5.1747   -0.2042    0.9346 C   0  0  0  0  0  0  0  0  0  0  0  0
    4.6185   -0.1480    2.2217 C   0  0  0  0  0  0  0  0  0  0  0  0
    3.2326   -0.1338    2.4272 C   0  0  0  0  0  0  0  0  0  0  0  0
    2.4317   -0.1878    1.2863 C   0  0  0  0  0  0  0  0  0  0  0  0
    1.0721   -0.1988    1.1095 N   0  0  0  0  0  0  0  0  0  0  0  0
    0.8030   -0.2560   -0.2424 C   0  0  0  0  0  0  0  0  0  0  0  0
   -0.5459   -0.3029   -0.6990 C   0  0  0  0  0  0  0  0  0  0  0  0
   -0.8708   -1.2195   -1.7486 C   0  0  0  0  0  0  0  0  0  0  0  0
   -1.1916   -1.9878   -2.5588 N   0  0  0  0  0  0  0  0  0  0  0  0
   -1.4577    0.5429   -0.1713 C   0  0  0  0  0  0  0  0  0  0  0  0
   -2.8836    0.6520   -0.5289 C   0  0  0  0  0  0  0  0  0  0  0  0
   -3.4152    1.9316   -0.7652 C   0  0  0  0  0  0  0  0  0  0  0  0
   -4.7694    2.0980   -1.0662 C   0  0  0  0  0  0  0  0  0  0  0  0
   -5.5899    0.9836   -1.1267 C   0  0  0  0  0  0  0  0  0  0  0  0
   -6.9122    1.1445   -1.4232 O   0  0  0  0  0  0  0  0  0  0  0  0
   -5.0788   -0.2888   -0.8905 C   0  0  0  0  0  0  0  0  0  0  0  0
   -5.9431   -1.3458   -0.9762 O   0  0  0  0  0  0  0  0  0  0  0  0
   -3.7339   -0.4637   -0.5770 C   0  0  0  0  0  0  0  0  0  0  0  0
    1.9293   -0.3127   -0.9263 N   0  0  0  0  0  0  0  0  0  0  0  0
    2.9430   -0.2591   -0.0017 C   0  0  0  0  0  0  0  0  0  0  0  0
    4.3326   -0.2742   -0.1894 C   0  0  0  0  0  0  0  0  0  0  0  0
    7.0108   -1.2903    0.7829 H   0  0  0  0  0  0  0  0  0  0  0  0
    7.1705    0.3106    1.5479 H   0  0  0  0  0  0  0  0  0  0  0  0
    6.9590    0.1949   -0.1986 H   0  0  0  0  0  0  0  0  0  0  0  0
    5.2746   -0.1145    3.0907 H   0  0  0  0  0  0  0  0  0  0  0  0
    2.8143   -0.0873    3.4267 H   0  0  0  0  0  0  0  0  0  0  0  0
    0.3881   -0.1853    1.8515 H   0  0  0  0  0  0  0  0  0  0  0  0
   -1.1509    1.2818    0.5684 H   0  0  0  0  0  0  0  0  0  0  0  0
   -2.7787    2.8137   -0.7257 H   0  0  0  0  0  0  0  0  0  0  0  0
   -5.1778    3.0863   -1.2550 H   0  0  0  0  0  0  0  0  0  0  0  0
   -7.2774    0.2371   -1.4188 H   0  0  0  0  0  0  0  0  0  0  0  0
   -5.4220   -2.1677   -0.9523 H   0  0  0  0  0  0  0  0  0  0  0  0
   -3.3544   -1.4590   -0.3672 H   0  0  0  0  0  0  0  0  0  0  0  0
    4.7336   -0.3390   -1.1954 H   0  0  0  0  0  0  0  0  0  0  0  0
  1  2  1  0
  2  3  2  0
  3  4  1  0
  4  5  2  0
  5  6  1  0
  6  7  1  0
  7  8  1  0
  8  9  1  0
  9 10  3  0
  8 11  2  3
 11 12  1  0
 12 13  2  0
 13 14  1  0
 14 15  2  0
 15 16  1  0
 15 17  1  0
 17 18  1  0
 17 19  2  0
  7 20  2  0
 20 21  1  0
 21 22  2  0
 22  2  1  0
 21  5  1  0
 19 12  1  0
  1 23  1  0
  1 24  1  0
  1 25  1  0
  3 26  1  0
  4 27  1  0
  6 28  1  0
 11 29  1  0
 13 30  1  0
 14 31  1  0
 16 32  1  0
 18 33  1  0
 19 34  1  0
 22 35  1  0
M  END
$$$$
