
     RDKit          3D

 67 71  0  0  0  0  0  0  0  0999 V2000
   -4.2052   -3.9959    3.4289 C   0  0  0  0  0  0  0  0  0  0  0  0
   -3.5329   -4.4398    2.2572 O   0  0  0  0  0  0  0  0  0  0  0  0
   -3.2338   -3.4931    1.3161 C   0  0  0  0  0  0  0  0  0  0  0  0
   -2.6133   -3.9873    0.1668 C   0  0  0  0  0  0  0  0  0  0  0  0
   -2.2400   -3.1366   -0.8756 C   0  0  0  0  0  0  0  0  0  0  0  0
   -1.6298   -3.7552   -1.9322 O   0  0  0  0  0  0  0  0  0  0  0  0
   -1.0652   -2.9118   -2.9290 C   0  0  0  0  0  0  0  0  0  0  0  0
   -2.5096   -1.7730   -0.7718 C   0  0  0  0  0  0  0  0  0  0  0  0
   -3.1283   -1.2550    0.3773 C   0  0  0  0  0  0  0  0  0  0  0  0
   -3.3689    0.1922    0.4950 C   0  0  0  0  0  0  0  0  0  0  0  0
   -4.9790    0.7391    0.6946 S   0  0  0  0  0  0  0  0  0  0  0  0
   -4.5126    2.3898    0.7355 C   0  0  0  0  0  0  0  0  0  0  0  0
   -5.3608    3.5029    0.8916 C   0  0  0  0  0  0  0  0  0  0  0  0
   -4.8075    4.7883    0.9100 C   0  0  0  0  0  0  0  0  0  0  0  0
   -3.4378    4.9703    0.7788 C   0  0  0  0  0  0  0  0  0  0  0  0
   -2.7808    6.1705    0.7858 O   0  0  0  0  0  0  0  0  0  0  0  0
   -3.5694    7.3349    0.9982 C   0  0  0  0  0  0  0  0  0  0  0  0
   -2.6068    3.8549    0.6199 C   0  0  0  0  0  0  0  0  0  0  0  0
   -3.1332    2.5364    0.5916 C   0  0  0  0  0  0  0  0  0  0  0  0
   -2.4771    1.2548    0.4424 C   0  0  0  0  0  0  0  0  0  0  0  0
   -1.0435    1.0481    0.2545 C   0  0  0  0  0  0  0  0  0  0  0  0
   -0.4211    1.4992   -0.9152 C   0  0  0  0  0  0  0  0  0  0  0  0
    0.9469    1.2855   -1.1186 C   0  0  0  0  0  0  0  0  0  0  0  0
    1.7018    0.6186   -0.1537 C   0  0  0  0  0  0  0  0  0  0  0  0
    3.0364    0.3357   -0.2303 O   0  0  0  0  0  0  0  0  0  0  0  0
    3.7136    0.6911   -1.4389 C   0  0  0  0  0  0  0  0  0  0  0  0
    5.1758    0.2115   -1.3540 C   0  0  0  0  0  0  0  0  0  0  0  0
    5.4024   -1.1722   -1.8248 N   0  0  0  0  0  0  0  0  0  0  0  0
    4.6616   -2.1939   -1.0500 C   0  0  0  0  0  0  0  0  0  0  0  0
    5.2138   -2.4240    0.3655 C   0  0  0  0  0  0  0  0  0  0  0  0
    6.5993   -2.7921    0.3243 O   0  0  0  0  0  0  0  0  0  0  0  0
    7.3723   -1.7915   -0.3496 C   0  0  0  0  0  0  0  0  0  0  0  0
    6.8416   -1.5226   -1.7705 C   0  0  0  0  0  0  0  0  0  0  0  0
    1.0815    0.1807    1.0192 C   0  0  0  0  0  0  0  0  0  0  0  0
   -0.2829    0.3941    1.2273 C   0  0  0  0  0  0  0  0  0  0  0  0
   -3.4844   -2.1253    1.4209 C   0  0  0  0  0  0  0  0  0  0  0  0
   -4.3940   -4.8711    4.0579 H   0  0  0  0  0  0  0  0  0  0  0  0
   -3.5811   -3.3020    4.0016 H   0  0  0  0  0  0  0  0  0  0  0  0
   -5.1736   -3.5476    3.1837 H   0  0  0  0  0  0  0  0  0  0  0  0
   -2.4110   -5.0527    0.0844 H   0  0  0  0  0  0  0  0  0  0  0  0
   -1.8465   -2.3707   -3.4727 H   0  0  0  0  0  0  0  0  0  0  0  0
   -0.3316   -2.2216   -2.4987 H   0  0  0  0  0  0  0  0  0  0  0  0
   -0.5405   -3.5489   -3.6472 H   0  0  0  0  0  0  0  0  0  0  0  0
   -2.2468   -1.0897   -1.5728 H   0  0  0  0  0  0  0  0  0  0  0  0
   -6.4338    3.3679    0.9983 H   0  0  0  0  0  0  0  0  0  0  0  0
   -5.4865    5.6262    1.0310 H   0  0  0  0  0  0  0  0  0  0  0  0
   -4.0727    7.2999    1.9703 H   0  0  0  0  0  0  0  0  0  0  0  0
   -2.8968    8.1982    1.0019 H   0  0  0  0  0  0  0  0  0  0  0  0
   -4.2886    7.4768    0.1847 H   0  0  0  0  0  0  0  0  0  0  0  0
   -1.5339    4.0068    0.5236 H   0  0  0  0  0  0  0  0  0  0  0  0
   -0.9982    2.0138   -1.6805 H   0  0  0  0  0  0  0  0  0  0  0  0
    1.3877    1.6516   -2.0396 H   0  0  0  0  0  0  0  0  0  0  0  0
    3.2222    0.2510   -2.3152 H   0  0  0  0  0  0  0  0  0  0  0  0
    3.7145    1.7838   -1.5341 H   0  0  0  0  0  0  0  0  0  0  0  0
    5.5456    0.3562   -0.3330 H   0  0  0  0  0  0  0  0  0  0  0  0
    5.7587    0.8704   -2.0097 H   0  0  0  0  0  0  0  0  0  0  0  0
    4.7445   -3.1380   -1.6049 H   0  0  0  0  0  0  0  0  0  0  0  0
    3.5906   -1.9756   -1.0160 H   0  0  0  0  0  0  0  0  0  0  0  0
    5.0926   -1.5403    1.0010 H   0  0  0  0  0  0  0  0  0  0  0  0
    4.6721   -3.2476    0.8415 H   0  0  0  0  0  0  0  0  0  0  0  0
    8.4020   -2.1580   -0.4073 H   0  0  0  0  0  0  0  0  0  0  0  0
    7.3855   -0.8802    0.2578 H   0  0  0  0  0  0  0  0  0  0  0  0
    6.9771   -2.4343   -2.3675 H   0  0  0  0  0  0  0  0  0  0  0  0
    7.4457   -0.7483   -2.2588 H   0  0  0  0  0  0  0  0  0  0  0  0
    1.6645   -0.3366    1.7772 H   0  0  0  0  0  0  0  0  0  0  0  0
   -0.7431    0.0400    2.1465 H   0  0  0  0  0  0  0  0  0  0  0  0
   -3.9475   -1.7087    2.3095 H   0  0  0  0  0  0  0  0  0  0  0  0
  1  2  1  0
  2  3  1  0
  3  4  2  0
  4  5  1  0
  5  6  1  0
  6  7  1  0
  5  8  2  0
  8  9  1  0
  9 10  1  0
 10 11  1  0
 11 12  1  0
 12 13  2  0
 13 14  1  0
 14 15  2  0
 15 16  1  0
 16 17  1  0
 15 18  1  0
 18 19  2  0
 19 20  1  0
 20 21  1  0
 21 22  2  0
 22 23  1  0
 23 24  2  0
 24 25  1  0
 25 26  1  0
 26 27  1  0
 27 28  1  0
 28 29  1  0
 29 30  1  0
 30 31  1  0
 31 32  1  0
 32 33  1  0
 24 34  1  0
 34 35  2  0
  9 36  2  0
 36  3  1  0
 20 10  2  0
 35 21  1  0
 19 12  1  0
 33 28  1  0
  1 37  1  0
  1 38  1  0
  1 39  1  0
  4 40  1  0
  7 41  1  0
  7 42  1  0
  7 43  1  0
  8 44  1  0
 13 45  1  0
 14 46  1  0
 17 47  1  0
 17 48  1  0
 17 49  1  0
 18 50  1  0
 22 51  1  0
 23 52  1  0
 26 53  1  0
 26 54  1  0
 27 55  1  0
 27 56  1  0
 29 57  1  0
 29 58  1  0
 30 59  1  0
 30 60  1  0
 32 61  1  0
 32 62  1  0
 33 63  1  0
 33 64  1  0
 34 65  1  0
 35 66  1  0
 36 67  1  0
M  END
$$$$
