
     RDKit          3D

 46 49  0  0  0  0  0  0  0  0999 V2000
    3.2203   -0.6103    2.1246 O   0  0  0  0  0  0  0  0  0  0  0  0
    2.2794    0.1291    2.3993 C   0  0  0  0  0  0  0  0  0  0  0  0
    0.8539   -0.2527    2.0372 C   0  0  0  0  0  0  0  0  0  0  0  0
    0.3713    0.6154    0.5143 S   0  0  0  0  0  0  0  0  0  0  0  0
   -1.2549    0.0555    0.3563 C   0  0  0  0  0  0  0  0  0  0  0  0
   -1.9623   -0.5089    1.3047 N   0  0  0  0  0  0  0  0  0  0  0  0
   -3.1976   -0.7994    0.7863 N   0  0  0  0  0  0  0  0  0  0  0  0
   -3.2217   -0.4087   -0.4746 C   0  0  0  0  0  0  0  0  0  0  0  0
   -4.3896   -0.5391   -1.3982 C   0  0  0  0  0  0  0  0  0  0  0  0
   -4.2122   -1.6215   -2.4241 C   0  0  0  0  0  0  0  0  0  0  0  0
   -3.8224   -2.9343   -2.2338 C   0  0  0  0  0  0  0  0  0  0  0  0
   -3.7690   -3.6670   -3.4535 C   0  0  0  0  0  0  0  0  0  0  0  0
   -4.1360   -2.8968   -4.5336 C   0  0  0  0  0  0  0  0  0  0  0  0
   -4.5448   -1.3019   -4.0760 S   0  0  0  0  0  0  0  0  0  0  0  0
   -1.9965    0.1414   -0.7913 N   0  0  0  0  0  0  0  0  0  0  0  0
   -1.6000    0.7230   -2.0594 C   0  0  0  0  0  0  0  0  0  0  0  0
   -0.9530   -0.2646   -2.9596 C   0  0  0  0  0  0  0  0  0  0  0  0
   -0.2255   -1.4252   -2.7788 C   0  0  0  0  0  0  0  0  0  0  0  0
    0.1132   -1.8943   -4.0710 C   0  0  0  0  0  0  0  0  0  0  0  0
   -0.4234   -0.9927   -4.9584 C   0  0  0  0  0  0  0  0  0  0  0  0
   -1.0645    0.0024   -4.2950 O   0  0  0  0  0  0  0  0  0  0  0  0
    2.3585    1.3545    3.0461 N   0  0  0  0  0  0  0  0  0  0  0  0
    3.5167    2.0049    3.5212 C   0  0  0  0  0  0  0  0  0  0  0  0
    3.3377    3.2552    4.1301 C   0  0  0  0  0  0  0  0  0  0  0  0
    4.4290    3.9710    4.6300 C   0  0  0  0  0  0  0  0  0  0  0  0
    5.7126    3.4410    4.5260 C   0  0  0  0  0  0  0  0  0  0  0  0
    5.8953    2.1997    3.9222 C   0  0  0  0  0  0  0  0  0  0  0  0
    7.4856    1.5481    3.7932 Cl  0  0  0  0  0  0  0  0  0  0  0  0
    4.8069    1.4797    3.4226 C   0  0  0  0  0  0  0  0  0  0  0  0
    0.8072   -1.3365    1.8886 H   0  0  0  0  0  0  0  0  0  0  0  0
    0.1860    0.0098    2.8647 H   0  0  0  0  0  0  0  0  0  0  0  0
   -5.2811   -0.7786   -0.8044 H   0  0  0  0  0  0  0  0  0  0  0  0
   -4.5925    0.4309   -1.8658 H   0  0  0  0  0  0  0  0  0  0  0  0
   -3.5792   -3.3482   -1.2608 H   0  0  0  0  0  0  0  0  0  0  0  0
   -3.4786   -4.7073   -3.5336 H   0  0  0  0  0  0  0  0  0  0  0  0
   -4.1878   -3.1943   -5.5719 H   0  0  0  0  0  0  0  0  0  0  0  0
   -2.4938    1.1462   -2.5288 H   0  0  0  0  0  0  0  0  0  0  0  0
   -0.9263    1.5633   -1.8657 H   0  0  0  0  0  0  0  0  0  0  0  0
    0.0291   -1.8864   -1.8337 H   0  0  0  0  0  0  0  0  0  0  0  0
    0.6770   -2.7805   -4.3245 H   0  0  0  0  0  0  0  0  0  0  0  0
   -0.4350   -0.9193   -6.0371 H   0  0  0  0  0  0  0  0  0  0  0  0
    1.4870    1.8574    3.1632 H   0  0  0  0  0  0  0  0  0  0  0  0
    2.3462    3.6897    4.2284 H   0  0  0  0  0  0  0  0  0  0  0  0
    4.2767    4.9386    5.1008 H   0  0  0  0  0  0  0  0  0  0  0  0
    6.5626    3.9960    4.9139 H   0  0  0  0  0  0  0  0  0  0  0  0
    4.9956    0.5160    2.9619 H   0  0  0  0  0  0  0  0  0  0  0  0
  1  2  2  0
  2  3  1  0
  3  4  1  0
  4  5  1  0
  5  6  2  0
  6  7  1  0
  7  8  2  0
  8  9  1  0
  9 10  1  0
 10 11  2  0
 11 12  1  0
 12 13  2  0
 13 14  1  0
  8 15  1  0
 15 16  1  0
 16 17  1  0
 17 18  2  0
 18 19  1  0
 19 20  2  0
 20 21  1  0
  2 22  1  0
 22 23  1  0
 23 24  2  0
 24 25  1  0
 25 26  2  0
 26 27  1  0
 27 28  1  0
 27 29  2  0
 15  5  1  0
 21 17  1  0
 29 23  1  0
 14 10  1  0
  3 30  1  0
  3 31  1  0
  9 32  1  0
  9 33  1  0
 11 34  1  0
 12 35  1  0
 13 36  1  0
 16 37  1  0
 16 38  1  0
 18 39  1  0
 19 40  1  0
 20 41  1  0
 22 42  1  0
 24 43  1  0
 25 44  1  0
 26 45  1  0
 29 46  1  0
M  END
$$$$
