
     RDKit          3D

 34 35  0  0  0  0  0  0  0  0999 V2000
   -1.3200    1.9443    1.8236 C   0  0  0  0  0  0  0  0  0  0  0  0
    0.0051    1.4078    1.5459 N   0  0  0  0  0  0  0  0  0  0  0  0
    0.1721    0.5549    0.5862 C   0  0  0  0  0  0  0  0  0  0  0  0
    1.5558    0.0198    0.3259 C   0  0  0  0  0  0  0  0  0  0  0  0
    2.6158    0.4626    1.1305 C   0  0  0  0  0  0  0  0  0  0  0  0
    3.9140   -0.0092    0.9218 C   0  0  0  0  0  0  0  0  0  0  0  0
    4.1661   -0.9287   -0.0935 C   0  0  0  0  0  0  0  0  0  0  0  0
    3.1220   -1.3768   -0.9001 C   0  0  0  0  0  0  0  0  0  0  0  0
    1.8217   -0.9060   -0.6933 C   0  0  0  0  0  0  0  0  0  0  0  0
   -0.9411    0.0713   -0.2807 C   0  0  0  0  0  0  0  0  0  0  0  0
   -1.2421    0.7669   -1.4705 C   0  0  0  0  0  0  0  0  0  0  0  0
   -0.4653    1.9799   -1.9021 C   0  0  0  0  0  0  0  0  0  0  0  0
   -2.2754    0.2840   -2.2842 C   0  0  0  0  0  0  0  0  0  0  0  0
   -2.9934   -0.8552   -1.9202 C   0  0  0  0  0  0  0  0  0  0  0  0
   -2.6880   -1.5339   -0.7404 C   0  0  0  0  0  0  0  0  0  0  0  0
   -1.6614   -1.0808    0.0986 C   0  0  0  0  0  0  0  0  0  0  0  0
   -1.3341   -1.8488    1.3492 C   0  0  0  0  0  0  0  0  0  0  0  0
   -2.0256    1.1621    2.1184 H   0  0  0  0  0  0  0  0  0  0  0  0
   -1.7203    2.5076    0.9756 H   0  0  0  0  0  0  0  0  0  0  0  0
   -1.2460    2.6416    2.6644 H   0  0  0  0  0  0  0  0  0  0  0  0
    2.4359    1.1807    1.9280 H   0  0  0  0  0  0  0  0  0  0  0  0
    4.7251    0.3433    1.5537 H   0  0  0  0  0  0  0  0  0  0  0  0
    5.1763   -1.2958   -0.2558 H   0  0  0  0  0  0  0  0  0  0  0  0
    3.3185   -2.0945   -1.6927 H   0  0  0  0  0  0  0  0  0  0  0  0
    1.0343   -1.2783   -1.3421 H   0  0  0  0  0  0  0  0  0  0  0  0
   -0.4218    2.7246   -1.1021 H   0  0  0  0  0  0  0  0  0  0  0  0
    0.5512    1.6956   -2.1910 H   0  0  0  0  0  0  0  0  0  0  0  0
   -0.9336    2.4655   -2.7651 H   0  0  0  0  0  0  0  0  0  0  0  0
   -2.5294    0.7926   -3.2120 H   0  0  0  0  0  0  0  0  0  0  0  0
   -3.7937   -1.2178   -2.5611 H   0  0  0  0  0  0  0  0  0  0  0  0
   -3.2591   -2.4231   -0.4812 H   0  0  0  0  0  0  0  0  0  0  0  0
   -0.3669   -2.3497    1.2439 H   0  0  0  0  0  0  0  0  0  0  0  0
   -1.3095   -1.1888    2.2212 H   0  0  0  0  0  0  0  0  0  0  0  0
   -2.0875   -2.6177    1.5521 H   0  0  0  0  0  0  0  0  0  0  0  0
  1  2  1  0
  2  3  2  3
  3  4  1  0
  4  5  2  0
  5  6  1  0
  6  7  2  0
  7  8  1  0
  8  9  2  0
  3 10  1  0
 10 11  2  0
 11 12  1  0
 11 13  1  0
 13 14  2  0
 14 15  1  0
 15 16  2  0
 16 17  1  0
  9  4  1  0
 16 10  1  0
  1 18  1  0
  1 19  1  0
  1 20  1  0
  5 21  1  0
  6 22  1  0
  7 23  1  0
  8 24  1  0
  9 25  1  0
 12 26  1  0
 12 27  1  0
 12 28  1  0
 13 29  1  0
 14 30  1  0
 15 31  1  0
 17 32  1  0
 17 33  1  0
 17 34  1  0
M  END
$$$$
