
     RDKit          3D

 58 61  0  0  0  0  0  0  0  0999 V2000
   -3.5356    5.2994   -0.4283 C   0  0  0  0  0  0  0  0  0  0  0  0
   -3.3586    3.9020   -0.6208 O   0  0  0  0  0  0  0  0  0  0  0  0
   -3.3674    3.1161    0.4990 C   0  0  0  0  0  0  0  0  0  0  0  0
   -3.5559    3.5574    1.8088 C   0  0  0  0  0  0  0  0  0  0  0  0
   -3.5428    2.6434    2.8653 C   0  0  0  0  0  0  0  0  0  0  0  0
   -3.3416    1.2852    2.6170 C   0  0  0  0  0  0  0  0  0  0  0  0
   -3.1530    0.8260    1.3076 C   0  0  0  0  0  0  0  0  0  0  0  0
   -2.9263   -0.5992    1.0356 C   0  0  0  0  0  0  0  0  0  0  0  0
   -4.1813   -1.7053    1.3984 S   0  0  0  0  0  0  0  0  0  0  0  0
   -3.2836   -3.0532    0.8305 C   0  0  0  0  0  0  0  0  0  0  0  0
   -3.7006   -4.3981    0.8108 C   0  0  0  0  0  0  0  0  0  0  0  0
   -2.8328   -5.3774    0.3141 C   0  0  0  0  0  0  0  0  0  0  0  0
   -1.5720   -5.0333   -0.1532 C   0  0  0  0  0  0  0  0  0  0  0  0
   -0.6372   -5.8959   -0.6573 O   0  0  0  0  0  0  0  0  0  0  0  0
   -0.9917   -7.2719   -0.7113 C   0  0  0  0  0  0  0  0  0  0  0  0
   -1.1703   -3.6924   -0.1279 C   0  0  0  0  0  0  0  0  0  0  0  0
   -2.0263   -2.6711    0.3630 C   0  0  0  0  0  0  0  0  0  0  0  0
   -1.8286   -1.2420    0.4822 C   0  0  0  0  0  0  0  0  0  0  0  0
   -0.6282   -0.5131    0.0831 C   0  0  0  0  0  0  0  0  0  0  0  0
    0.1905    0.0903    1.0438 C   0  0  0  0  0  0  0  0  0  0  0  0
    1.3410    0.7874    0.6574 C   0  0  0  0  0  0  0  0  0  0  0  0
    1.6839    0.8814   -0.6916 C   0  0  0  0  0  0  0  0  0  0  0  0
    2.7740    1.5289   -1.2027 O   0  0  0  0  0  0  0  0  0  0  0  0
    3.6657    2.1438   -0.2713 C   0  0  0  0  0  0  0  0  0  0  0  0
    4.8313    2.8135   -1.0278 C   0  0  0  0  0  0  0  0  0  0  0  0
    5.9011    1.9584   -1.5787 N   0  0  0  0  0  0  0  0  0  0  0  0
    5.4085    1.0231   -2.5875 C   0  0  0  0  0  0  0  0  0  0  0  0
    6.6538    1.2551   -0.5445 C   0  0  0  0  0  0  0  0  0  0  0  0
    0.8669    0.2745   -1.6490 C   0  0  0  0  0  0  0  0  0  0  0  0
   -0.2828   -0.4213   -1.2680 C   0  0  0  0  0  0  0  0  0  0  0  0
   -3.1673    1.7534    0.2566 C   0  0  0  0  0  0  0  0  0  0  0  0
   -3.4928    5.7802   -1.4103 H   0  0  0  0  0  0  0  0  0  0  0  0
   -4.5169    5.5166    0.0062 H   0  0  0  0  0  0  0  0  0  0  0  0
   -2.7300    5.7192    0.1832 H   0  0  0  0  0  0  0  0  0  0  0  0
   -3.7165    4.6045    2.0422 H   0  0  0  0  0  0  0  0  0  0  0  0
   -3.6898    2.9909    3.8848 H   0  0  0  0  0  0  0  0  0  0  0  0
   -3.3283    0.5883    3.4520 H   0  0  0  0  0  0  0  0  0  0  0  0
   -4.6854   -4.6749    1.1773 H   0  0  0  0  0  0  0  0  0  0  0  0
   -3.1826   -6.4046    0.3117 H   0  0  0  0  0  0  0  0  0  0  0  0
   -1.8542   -7.4320   -1.3667 H   0  0  0  0  0  0  0  0  0  0  0  0
   -0.1447   -7.8188   -1.1365 H   0  0  0  0  0  0  0  0  0  0  0  0
   -1.1765   -7.6715    0.2914 H   0  0  0  0  0  0  0  0  0  0  0  0
   -0.1785   -3.4320   -0.4917 H   0  0  0  0  0  0  0  0  0  0  0  0
   -0.0619    0.0244    2.0996 H   0  0  0  0  0  0  0  0  0  0  0  0
    1.9419    1.2447    1.4358 H   0  0  0  0  0  0  0  0  0  0  0  0
    4.0444    1.4108    0.4491 H   0  0  0  0  0  0  0  0  0  0  0  0
    3.1256    2.9299    0.2712 H   0  0  0  0  0  0  0  0  0  0  0  0
    4.4188    3.4090   -1.8526 H   0  0  0  0  0  0  0  0  0  0  0  0
    5.3040    3.5355   -0.3495 H   0  0  0  0  0  0  0  0  0  0  0  0
    6.2511    0.5412   -3.0964 H   0  0  0  0  0  0  0  0  0  0  0  0
    4.7812    0.2330   -2.1615 H   0  0  0  0  0  0  0  0  0  0  0  0
    4.8369    1.5473   -3.3611 H   0  0  0  0  0  0  0  0  0  0  0  0
    7.5258    0.7567   -0.9828 H   0  0  0  0  0  0  0  0  0  0  0  0
    7.0397    1.9588    0.2012 H   0  0  0  0  0  0  0  0  0  0  0  0
    6.0571    0.4958   -0.0281 H   0  0  0  0  0  0  0  0  0  0  0  0
    1.1269    0.3460   -2.7023 H   0  0  0  0  0  0  0  0  0  0  0  0
   -0.9055   -0.8819   -2.0312 H   0  0  0  0  0  0  0  0  0  0  0  0
   -3.0223    1.4175   -0.7681 H   0  0  0  0  0  0  0  0  0  0  0  0
  1  2  1  0
  2  3  1  0
  3  4  2  0
  4  5  1  0
  5  6  2  0
  6  7  1  0
  7  8  1  0
  8  9  1  0
  9 10  1  0
 10 11  2  0
 11 12  1  0
 12 13  2  0
 13 14  1  0
 14 15  1  0
 13 16  1  0
 16 17  2  0
 17 18  1  0
 18 19  1  0
 19 20  2  0
 20 21  1  0
 21 22  2  0
 22 23  1  0
 23 24  1  0
 24 25  1  0
 25 26  1  0
 26 27  1  0
 26 28  1  0
 22 29  1  0
 29 30  2  0
  7 31  2  0
 31  3  1  0
 18  8  2  0
 30 19  1  0
 17 10  1  0
  1 32  1  0
  1 33  1  0
  1 34  1  0
  4 35  1  0
  5 36  1  0
  6 37  1  0
 11 38  1  0
 12 39  1  0
 15 40  1  0
 15 41  1  0
 15 42  1  0
 16 43  1  0
 20 44  1  0
 21 45  1  0
 24 46  1  0
 24 47  1  0
 25 48  1  0
 25 49  1  0
 27 50  1  0
 27 51  1  0
 27 52  1  0
 28 53  1  0
 28 54  1  0
 28 55  1  0
 29 56  1  0
 30 57  1  0
 31 58  1  0
M  END
$$$$
