
     RDKit          3D

 34 36  0  0  0  0  0  0  0  0999 V2000
    3.0514   -2.0530    0.8994 C   0  0  0  0  0  0  0  0  0  0  0  0
    3.8314   -0.8611    0.6487 N   0  0  0  0  0  0  0  0  0  0  0  0
    5.1399   -0.9999    0.3488 N   0  0  0  0  0  0  0  0  0  0  0  0
    5.5838    0.2580    0.2980 C   0  0  0  0  0  0  0  0  0  0  0  0
    4.5612    1.1931    0.5283 C   0  0  0  0  0  0  0  0  0  0  0  0
    4.7537    2.8766    0.5169 Cl  0  0  0  0  0  0  0  0  0  0  0  0
    3.4143    0.4477    0.7150 C   0  0  0  0  0  0  0  0  0  0  0  0
    2.0731    0.9083    0.9879 C   0  0  0  0  0  0  0  0  0  0  0  0
    1.8534    1.7364    1.8613 O   0  0  0  0  0  0  0  0  0  0  0  0
    1.1377    0.3303    0.1521 N   0  0  0  0  0  0  0  0  0  0  0  0
   -0.2415    0.4861    0.1724 C   0  0  0  0  0  0  0  0  0  0  0  0
   -1.0192    1.4244    1.3738 S   0  0  0  0  0  0  0  0  0  0  0  0
   -2.5115    1.0744    0.7234 C   0  0  0  0  0  0  0  0  0  0  0  0
   -2.4684    0.2670   -0.3798 C   0  0  0  0  0  0  0  0  0  0  0  0
   -1.1351   -0.0933   -0.7370 C   0  0  0  0  0  0  0  0  0  0  0  0
   -0.6720   -0.9403   -1.8336 C   0  0  0  0  0  0  0  0  0  0  0  0
   -1.5752   -1.2317   -2.8128 N   0  0  0  0  0  0  0  0  0  0  0  0
    0.4826   -1.3554   -1.9107 O   0  0  0  0  0  0  0  0  0  0  0  0
   -3.8460   -0.0134   -0.8669 C   0  0  0  0  0  0  0  0  0  0  0  0
   -4.7339    0.4647    0.3236 C   0  0  0  0  0  0  0  0  0  0  0  0
   -3.8748    1.4695    1.1455 C   0  0  0  0  0  0  0  0  0  0  0  0
    3.7096   -2.8335    1.2909 H   0  0  0  0  0  0  0  0  0  0  0  0
    2.6071   -2.3732   -0.0457 H   0  0  0  0  0  0  0  0  0  0  0  0
    2.2782   -1.8326    1.6389 H   0  0  0  0  0  0  0  0  0  0  0  0
    6.6305    0.4396    0.0915 H   0  0  0  0  0  0  0  0  0  0  0  0
    1.4769   -0.2522   -0.6120 H   0  0  0  0  0  0  0  0  0  0  0  0
   -2.4230   -0.6975   -2.9219 H   0  0  0  0  0  0  0  0  0  0  0  0
   -1.2097   -1.7008   -3.6309 H   0  0  0  0  0  0  0  0  0  0  0  0
   -4.0150   -1.0727   -1.0787 H   0  0  0  0  0  0  0  0  0  0  0  0
   -4.0626    0.5784   -1.7626 H   0  0  0  0  0  0  0  0  0  0  0  0
   -5.6799    0.9011   -0.0116 H   0  0  0  0  0  0  0  0  0  0  0  0
   -4.9757   -0.3996    0.9566 H   0  0  0  0  0  0  0  0  0  0  0  0
   -4.0925    2.4991    0.8435 H   0  0  0  0  0  0  0  0  0  0  0  0
   -4.0490    1.3555    2.2188 H   0  0  0  0  0  0  0  0  0  0  0  0
  1  2  1  0
  2  3  1  0
  3  4  2  0
  4  5  1  0
  5  6  1  0
  5  7  2  0
  7  8  1  0
  8  9  2  0
  8 10  1  0
 10 11  1  0
 11 12  1  0
 12 13  1  0
 13 14  2  0
 14 15  1  0
 15 16  1  0
 16 17  1  0
 16 18  2  0
 14 19  1  0
 19 20  1  0
 20 21  1  0
  7  2  1  0
 15 11  2  0
 21 13  1  0
  1 22  1  0
  1 23  1  0
  1 24  1  0
  4 25  1  0
 10 26  1  0
 17 27  1  0
 17 28  1  0
 19 29  1  0
 19 30  1  0
 20 31  1  0
 20 32  1  0
 21 33  1  0
 21 34  1  0
M  END
$$$$
