
     RDKit          3D

 36 38  0  0  0  0  0  0  0  0999 V2000
   -2.9175    2.8250    0.5515 C   0  0  0  0  0  0  0  0  0  0  0  0
   -2.3794    1.4988    0.1135 C   0  0  0  0  0  0  0  0  0  0  0  0
   -1.3185    1.0011    0.7840 N   0  0  0  0  0  0  0  0  0  0  0  0
   -0.8680   -0.2109    0.3714 C   0  0  0  0  0  0  0  0  0  0  0  0
    0.5683   -0.8450    1.2373 S   0  0  0  0  0  6  0  0  0  0  0  0
    0.6119   -2.2895    1.0600 O   0  0  0  0  0  0  0  0  0  0  0  0
    0.5867   -0.2735    2.5763 O   0  0  0  0  0  0  0  0  0  0  0  0
    1.8721   -0.1006    0.2688 C   0  0  0  0  0  0  0  0  0  0  0  0
    3.2140   -0.5028    0.8265 C   0  0  0  0  0  0  0  0  0  0  0  0
    3.8569   -1.6629    0.3686 C   0  0  0  0  0  0  0  0  0  0  0  0
    5.0987   -2.0365    0.8879 C   0  0  0  0  0  0  0  0  0  0  0  0
    5.7029   -1.2549    1.8695 C   0  0  0  0  0  0  0  0  0  0  0  0
    7.2336   -1.7145    2.5070 Cl  0  0  0  0  0  0  0  0  0  0  0  0
    5.0740   -0.1047    2.3398 C   0  0  0  0  0  0  0  0  0  0  0  0
    3.8323    0.2699    1.8214 C   0  0  0  0  0  0  0  0  0  0  0  0
   -1.3065   -0.9518   -0.6669 N   0  0  0  0  0  0  0  0  0  0  0  0
   -2.3603   -0.4083   -1.2794 C   0  0  0  0  0  0  0  0  0  0  0  0
   -2.9378    0.8015   -0.9317 C   0  0  0  0  0  0  0  0  0  0  0  0
   -4.0730    1.1394   -1.8367 C   0  0  0  0  0  0  0  0  0  0  0  0
   -4.3730   -0.2321   -2.4626 C   0  0  0  0  0  0  0  0  0  0  0  0
   -3.0491   -1.0084   -2.4728 C   0  0  0  0  0  0  0  0  0  0  0  0
   -2.8823    3.5415   -0.2750 H   0  0  0  0  0  0  0  0  0  0  0  0
   -2.3250    3.2315    1.3776 H   0  0  0  0  0  0  0  0  0  0  0  0
   -3.9513    2.7204    0.8947 H   0  0  0  0  0  0  0  0  0  0  0  0
    1.7664   -0.4351   -0.7683 H   0  0  0  0  0  0  0  0  0  0  0  0
    1.7485    0.9867    0.3002 H   0  0  0  0  0  0  0  0  0  0  0  0
    3.3901   -2.2938   -0.3864 H   0  0  0  0  0  0  0  0  0  0  0  0
    5.5832   -2.9403    0.5282 H   0  0  0  0  0  0  0  0  0  0  0  0
    5.5393    0.4997    3.1139 H   0  0  0  0  0  0  0  0  0  0  0  0
    3.3461    1.1628    2.2116 H   0  0  0  0  0  0  0  0  0  0  0  0
   -4.9429    1.5270   -1.2994 H   0  0  0  0  0  0  0  0  0  0  0  0
   -3.7504    1.8580   -2.5971 H   0  0  0  0  0  0  0  0  0  0  0  0
   -4.8170   -0.1487   -3.4594 H   0  0  0  0  0  0  0  0  0  0  0  0
   -5.0969   -0.7649   -1.8300 H   0  0  0  0  0  0  0  0  0  0  0  0
   -3.2046   -2.0850   -2.3648 H   0  0  0  0  0  0  0  0  0  0  0  0
   -2.4719   -0.7992   -3.3790 H   0  0  0  0  0  0  0  0  0  0  0  0
  1  2  1  0
  2  3  2  0
  3  4  1  0
  4  5  1  0
  5  6  2  0
  5  7  2  0
  5  8  1  0
  8  9  1  0
  9 10  2  0
 10 11  1  0
 11 12  2  0
 12 13  1  0
 12 14  1  0
 14 15  2  0
  4 16  2  0
 16 17  1  0
 17 18  2  0
 18 19  1  0
 19 20  1  0
 20 21  1  0
 18  2  1  0
 15  9  1  0
 21 17  1  0
  1 22  1  0
  1 23  1  0
  1 24  1  0
  8 25  1  0
  8 26  1  0
 10 27  1  0
 11 28  1  0
 14 29  1  0
 15 30  1  0
 19 31  1  0
 19 32  1  0
 20 33  1  0
 20 34  1  0
 21 35  1  0
 21 36  1  0
M  END
$$$$
