
     RDKit          3D

 49 50  0  0  0  0  0  0  0  0999 V2000
    5.1959   -1.8812   -0.1193 C   0  0  0  0  0  0  0  0  0  0  0  0
    4.0808   -1.2205    0.6920 C   0  0  0  0  0  0  0  0  0  0  0  0
    3.7803   -2.0584    1.9371 C   0  0  0  0  0  0  0  0  0  0  0  0
    2.7944   -1.0275   -0.1297 C   0  0  0  0  0  0  0  0  0  0  0  0
    2.9709   -0.0783   -1.3109 C   0  0  0  0  0  0  0  0  0  0  0  0
    1.6576    0.1374   -1.9794 N   0  0  0  0  0  4  0  0  0  0  0  0
    1.3100   -0.7253   -2.9689 C   0  0  0  0  0  0  0  0  0  0  0  0
    0.1109   -0.6006   -3.6553 C   0  0  0  0  0  0  0  0  0  0  0  0
   -0.7517    0.4295   -3.3281 C   0  0  0  0  0  0  0  0  0  0  0  0
   -0.3967    1.3084   -2.3139 C   0  0  0  0  0  0  0  0  0  0  0  0
    0.8139    1.1495   -1.6202 C   0  0  0  0  0  0  0  0  0  0  0  0
    1.1812    2.0990   -0.5584 C   0  0  0  0  0  0  0  0  0  0  0  0
    0.4670    2.3788    0.5459 C   0  0  0  0  0  0  0  0  0  0  0  0
   -0.8191    1.7819    0.9133 C   0  0  0  0  0  0  0  0  0  0  0  0
   -1.9790    2.5484    0.8351 C   0  0  0  0  0  0  0  0  0  0  0  0
   -3.2228    1.9897    1.1644 C   0  0  0  0  0  0  0  0  0  0  0  0
   -3.3618    0.6556    1.5844 C   0  0  0  0  0  0  0  0  0  0  0  0
   -4.5977    0.1112    1.9281 N   0  0  0  0  0  0  0  0  0  0  0  0
   -4.7364   -1.3275    2.1408 C   0  0  0  0  0  0  0  0  0  0  0  0
   -5.8298    0.8414    1.6356 C   0  0  0  0  0  0  0  0  0  0  0  0
   -2.1685   -0.0820    1.6773 C   0  0  0  0  0  0  0  0  0  0  0  0
   -0.9181    0.4642    1.3496 C   0  0  0  0  0  0  0  0  0  0  0  0
    5.5165   -1.2439   -0.9489 H   0  0  0  0  0  0  0  0  0  0  0  0
    4.8705   -2.8420   -0.5324 H   0  0  0  0  0  0  0  0  0  0  0  0
    6.0758   -2.0637    0.5072 H   0  0  0  0  0  0  0  0  0  0  0  0
    4.4353   -0.2373    1.0267 H   0  0  0  0  0  0  0  0  0  0  0  0
    4.6774   -2.1741    2.5545 H   0  0  0  0  0  0  0  0  0  0  0  0
    3.4231   -3.0580    1.6670 H   0  0  0  0  0  0  0  0  0  0  0  0
    3.0124   -1.5787    2.5533 H   0  0  0  0  0  0  0  0  0  0  0  0
    2.4304   -1.9987   -0.4884 H   0  0  0  0  0  0  0  0  0  0  0  0
    2.0127   -0.6356    0.5292 H   0  0  0  0  0  0  0  0  0  0  0  0
    3.6497   -0.4938   -2.0643 H   0  0  0  0  0  0  0  0  0  0  0  0
    3.3909    0.8847   -1.0116 H   0  0  0  0  0  0  0  0  0  0  0  0
    2.0068   -1.5256   -3.2054 H   0  0  0  0  0  0  0  0  0  0  0  0
   -0.1486   -1.3038   -4.4438 H   0  0  0  0  0  0  0  0  0  0  0  0
   -1.6972    0.5505   -3.8545 H   0  0  0  0  0  0  0  0  0  0  0  0
   -1.0750    2.1223   -2.0618 H   0  0  0  0  0  0  0  0  0  0  0  0
    2.1069    2.6478   -0.7170 H   0  0  0  0  0  0  0  0  0  0  0  0
    0.8271    3.1355    1.2431 H   0  0  0  0  0  0  0  0  0  0  0  0
   -1.9401    3.5898    0.5229 H   0  0  0  0  0  0  0  0  0  0  0  0
   -4.0882    2.6426    1.0910 H   0  0  0  0  0  0  0  0  0  0  0  0
   -4.1101   -1.6649    2.9737 H   0  0  0  0  0  0  0  0  0  0  0  0
   -4.4721   -1.8836    1.2346 H   0  0  0  0  0  0  0  0  0  0  0  0
   -5.7643   -1.5999    2.4048 H   0  0  0  0  0  0  0  0  0  0  0  0
   -5.8493    1.8059    2.1543 H   0  0  0  0  0  0  0  0  0  0  0  0
   -5.9421    1.0016    0.5577 H   0  0  0  0  0  0  0  0  0  0  0  0
   -6.7143    0.2944    1.9806 H   0  0  0  0  0  0  0  0  0  0  0  0
   -2.1800   -1.1098    2.0289 H   0  0  0  0  0  0  0  0  0  0  0  0
   -0.0355   -0.1551    1.4705 H   0  0  0  0  0  0  0  0  0  0  0  0
  1  2  1  0
  2  3  1  0
  2  4  1  0
  4  5  1  0
  5  6  1  0
  6  7  2  0
  7  8  1  0
  8  9  2  0
  9 10  1  0
 10 11  2  0
 11 12  1  0
 12 13  2  3
 13 14  1  0
 14 15  2  0
 15 16  1  0
 16 17  2  0
 17 18  1  0
 18 19  1  0
 18 20  1  0
 17 21  1  0
 21 22  2  0
 11  6  1  0
 22 14  1  0
  1 23  1  0
  1 24  1  0
  1 25  1  0
  2 26  1  0
  3 27  1  0
  3 28  1  0
  3 29  1  0
  4 30  1  0
  4 31  1  0
  5 32  1  0
  5 33  1  0
  7 34  1  0
  8 35  1  0
  9 36  1  0
 10 37  1  0
 12 38  1  0
 13 39  1  0
 15 40  1  0
 16 41  1  0
 19 42  1  0
 19 43  1  0
 19 44  1  0
 20 45  1  0
 20 46  1  0
 20 47  1  0
 21 48  1  0
 22 49  1  0
M  CHG  1   6   1
M  END
$$$$
