
     RDKit          3D

 43 45  0  0  0  0  0  0  0  0999 V2000
   -7.3413    0.7077    1.7139 C   0  0  0  0  0  0  0  0  0  0  0  0
   -6.0306    0.7046    1.0880 N   0  0  0  0  0  0  0  0  0  0  0  0
   -5.9148    1.4513   -0.1573 C   0  0  0  0  0  0  0  0  0  0  0  0
   -4.9509    0.2216    1.8255 C   0  0  0  0  0  0  0  0  0  0  0  0
   -5.0255   -0.0868    3.0133 O   0  0  0  0  0  0  0  0  0  0  0  0
   -3.6394    0.0474    1.1585 C   0  0  0  0  0  0  0  0  0  0  0  0
   -3.5285   -0.6669   -0.0375 C   0  0  0  0  0  0  0  0  0  0  0  0
   -2.2747   -0.8430   -0.6345 C   0  0  0  0  0  0  0  0  0  0  0  0
   -1.1243   -0.3254   -0.0332 C   0  0  0  0  0  0  0  0  0  0  0  0
    0.1701   -0.4596   -0.5666 N   0  0  0  0  0  0  0  0  0  0  0  0
    0.5565   -1.0668   -1.7486 C   0  0  0  0  0  0  0  0  0  0  0  0
   -0.1981   -1.5947   -2.5586 O   0  0  0  0  0  0  0  0  0  0  0  0
    1.9932   -1.0145   -1.9566 C   0  0  0  0  0  0  0  0  0  0  0  0
    2.7788   -1.4848   -2.9890 C   0  0  0  0  0  0  0  0  0  0  0  0
    4.1165   -1.1530   -2.6655 C   0  0  0  0  0  0  0  0  0  0  0  0
    4.0847   -0.4974   -1.4496 C   0  0  0  0  0  0  0  0  0  0  0  0
    5.1010    0.0944   -0.5809 C   0  0  0  0  0  0  0  0  0  0  0  0
    4.7682    0.6268    0.6755 C   0  0  0  0  0  0  0  0  0  0  0  0
    5.7465    1.1908    1.5019 C   0  0  0  0  0  0  0  0  0  0  0  0
    7.0715    1.2282    1.0787 C   0  0  0  0  0  0  0  0  0  0  0  0
    8.2757    1.9213    2.0920 Cl  0  0  0  0  0  0  0  0  0  0  0  0
    7.4254    0.7065   -0.1619 C   0  0  0  0  0  0  0  0  0  0  0  0
    6.4446    0.1426   -0.9860 C   0  0  0  0  0  0  0  0  0  0  0  0
    2.7895   -0.4118   -1.0166 O   0  0  0  0  0  0  0  0  0  0  0  0
   -1.2432    0.3639    1.1821 C   0  0  0  0  0  0  0  0  0  0  0  0
   -2.4933    0.5449    1.7810 C   0  0  0  0  0  0  0  0  0  0  0  0
   -7.5412    1.7096    2.1052 H   0  0  0  0  0  0  0  0  0  0  0  0
   -7.3963   -0.0129    2.5346 H   0  0  0  0  0  0  0  0  0  0  0  0
   -8.0957    0.4468    0.9659 H   0  0  0  0  0  0  0  0  0  0  0  0
   -4.8784    1.6409   -0.4404 H   0  0  0  0  0  0  0  0  0  0  0  0
   -6.4091    2.4203   -0.0342 H   0  0  0  0  0  0  0  0  0  0  0  0
   -6.4177    0.8880   -0.9483 H   0  0  0  0  0  0  0  0  0  0  0  0
   -4.4096   -1.1000   -0.5043 H   0  0  0  0  0  0  0  0  0  0  0  0
   -2.2324   -1.4020   -1.5642 H   0  0  0  0  0  0  0  0  0  0  0  0
    0.9340   -0.0622   -0.0307 H   0  0  0  0  0  0  0  0  0  0  0  0
    2.4169   -2.0042   -3.8664 H   0  0  0  0  0  0  0  0  0  0  0  0
    4.9966   -1.3719   -3.2536 H   0  0  0  0  0  0  0  0  0  0  0  0
    3.7401    0.6061    1.0294 H   0  0  0  0  0  0  0  0  0  0  0  0
    5.4657    1.5957    2.4706 H   0  0  0  0  0  0  0  0  0  0  0  0
    8.4594    0.7340   -0.4960 H   0  0  0  0  0  0  0  0  0  0  0  0
    6.7494   -0.2558   -1.9509 H   0  0  0  0  0  0  0  0  0  0  0  0
   -0.3661    0.7648    1.6840 H   0  0  0  0  0  0  0  0  0  0  0  0
   -2.5732    1.0673    2.7317 H   0  0  0  0  0  0  0  0  0  0  0  0
  1  2  1  0
  2  3  1  0
  2  4  1  0
  4  5  2  0
  4  6  1  0
  6  7  2  0
  7  8  1  0
  8  9  2  0
  9 10  1  0
 10 11  1  0
 11 12  2  0
 11 13  1  0
 13 14  2  0
 14 15  1  0
 15 16  2  0
 16 17  1  0
 17 18  2  0
 18 19  1  0
 19 20  2  0
 20 21  1  0
 20 22  1  0
 22 23  2  0
 16 24  1  0
  9 25  1  0
 25 26  2  0
 26  6  1  0
 24 13  1  0
 23 17  1  0
  1 27  1  0
  1 28  1  0
  1 29  1  0
  3 30  1  0
  3 31  1  0
  3 32  1  0
  7 33  1  0
  8 34  1  0
 10 35  1  0
 14 36  1  0
 15 37  1  0
 18 38  1  0
 19 39  1  0
 22 40  1  0
 23 41  1  0
 25 42  1  0
 26 43  1  0
M  END
$$$$
