
     RDKit          3D

 57 61  0  0  0  0  0  0  0  0999 V2000
   -6.7063    2.7094   -1.6992 C   0  0  0  0  0  0  0  0  0  0  0  0
   -6.0382    1.9091   -0.6208 C   0  0  0  0  0  0  0  0  0  0  0  0
   -5.2158    0.8235   -0.9421 C   0  0  0  0  0  0  0  0  0  0  0  0
   -4.6157    0.0667    0.0669 C   0  0  0  0  0  0  0  0  0  0  0  0
   -4.8412    0.3722    1.4168 C   0  0  0  0  0  0  0  0  0  0  0  0
   -4.1787   -0.4321    2.5064 C   0  0  0  0  0  0  0  0  0  0  0  0
   -2.9297    0.1702    2.9201 N   0  0  0  0  0  0  0  0  0  0  0  0
   -2.8733    1.0046    3.9891 N   0  0  0  0  0  0  0  0  0  0  0  0
   -1.6056    1.3943    4.1335 N   0  0  0  0  0  0  0  0  0  0  0  0
   -0.8799    0.7770    3.1614 C   0  0  0  0  0  0  0  0  0  0  0  0
    0.5222    0.8323    2.8511 C   0  0  0  0  0  0  0  0  0  0  0  0
    1.3673    1.4927    3.4448 O   0  0  0  0  0  0  0  0  0  0  0  0
    0.8511    0.0276    1.7647 N   0  0  0  0  0  0  0  0  0  0  0  0
   -0.0635   -0.7476    1.0604 C   0  0  0  0  0  0  0  0  0  0  0  0
    0.4834   -1.5790   -0.0920 C   0  0  0  0  0  0  0  0  0  0  0  0
    1.0613   -0.6871   -1.1939 C   0  0  0  0  0  0  0  0  0  0  0  0
    1.8615   -1.5125   -2.1912 C   0  0  0  0  0  0  0  0  0  0  0  0
    2.9618   -2.2450   -1.5290 N   0  0  0  0  0  0  0  0  0  0  0  0
    4.4971   -2.1946   -2.2626 S   0  0  0  0  0  6  0  0  0  0  0  0
    4.3114   -2.2662   -3.6957 O   0  0  0  0  0  0  0  0  0  0  0  0
    5.3620   -3.1276   -1.5678 O   0  0  0  0  0  0  0  0  0  0  0  0
    5.0663   -0.5505   -1.8683 C   0  0  0  0  0  0  0  0  0  0  0  0
    4.8479    0.4981   -2.7678 C   0  0  0  0  0  0  0  0  0  0  0  0
    5.3295    1.7744   -2.4670 C   0  0  0  0  0  0  0  0  0  0  0  0
    6.0356    1.9936   -1.2836 C   0  0  0  0  0  0  0  0  0  0  0  0
    6.2698    0.9387   -0.3988 C   0  0  0  0  0  0  0  0  0  0  0  0
    5.7930   -0.3400   -0.6935 C   0  0  0  0  0  0  0  0  0  0  0  0
    2.9118   -2.3467   -0.0567 C   0  0  0  0  0  0  0  0  0  0  0  0
    1.4846   -2.6373    0.3994 C   0  0  0  0  0  0  0  0  0  0  0  0
   -1.3376   -0.8053    1.3367 N   0  0  0  0  0  0  0  0  0  0  0  0
   -1.6866   -0.0211    2.3869 C   0  0  0  0  0  0  0  0  0  0  0  0
   -5.6698    1.4565    1.7362 C   0  0  0  0  0  0  0  0  0  0  0  0
   -6.2684    2.2130    0.7263 C   0  0  0  0  0  0  0  0  0  0  0  0
   -7.7308    2.3582   -1.8452 H   0  0  0  0  0  0  0  0  0  0  0  0
   -6.7295    3.7694   -1.4329 H   0  0  0  0  0  0  0  0  0  0  0  0
   -6.1692    2.6240   -2.6479 H   0  0  0  0  0  0  0  0  0  0  0  0
   -5.0323    0.5628   -1.9829 H   0  0  0  0  0  0  0  0  0  0  0  0
   -3.9648   -0.7606   -0.2097 H   0  0  0  0  0  0  0  0  0  0  0  0
   -3.9683   -1.4532    2.1695 H   0  0  0  0  0  0  0  0  0  0  0  0
   -4.8290   -0.5149    3.3849 H   0  0  0  0  0  0  0  0  0  0  0  0
    1.8279    0.0554    1.5141 H   0  0  0  0  0  0  0  0  0  0  0  0
   -0.3741   -2.1210   -0.5162 H   0  0  0  0  0  0  0  0  0  0  0  0
    1.7034    0.0966   -0.7778 H   0  0  0  0  0  0  0  0  0  0  0  0
    0.2453   -0.1671   -1.7085 H   0  0  0  0  0  0  0  0  0  0  0  0
    2.2310   -0.8511   -2.9804 H   0  0  0  0  0  0  0  0  0  0  0  0
    1.2124   -2.2508   -2.6745 H   0  0  0  0  0  0  0  0  0  0  0  0
    4.3234    0.3289   -3.7054 H   0  0  0  0  0  0  0  0  0  0  0  0
    5.1701    2.5961   -3.1633 H   0  0  0  0  0  0  0  0  0  0  0  0
    6.4257    2.9864   -1.0600 H   0  0  0  0  0  0  0  0  0  0  0  0
    6.8408    1.1096    0.5099 H   0  0  0  0  0  0  0  0  0  0  0  0
    6.0045   -1.1641   -0.0139 H   0  0  0  0  0  0  0  0  0  0  0  0
    3.2732   -1.4212    0.4007 H   0  0  0  0  0  0  0  0  0  0  0  0
    3.5535   -3.1651    0.2843 H   0  0  0  0  0  0  0  0  0  0  0  0
    1.1822   -3.6137   -0.0042 H   0  0  0  0  0  0  0  0  0  0  0  0
    1.4597   -2.7391    1.4925 H   0  0  0  0  0  0  0  0  0  0  0  0
   -5.8502    1.7254    2.7764 H   0  0  0  0  0  0  0  0  0  0  0  0
   -6.9122    3.0474    0.9981 H   0  0  0  0  0  0  0  0  0  0  0  0
  1  2  1  0
  2  3  2  0
  3  4  1  0
  4  5  2  0
  5  6  1  0
  6  7  1  0
  7  8  1  0
  8  9  2  0
  9 10  1  0
 10 11  1  0
 11 12  2  0
 11 13  1  0
 13 14  1  0
 14 15  1  0
 15 16  1  0
 16 17  1  0
 17 18  1  0
 18 19  1  0
 19 20  2  0
 19 21  2  0
 19 22  1  0
 22 23  2  0
 23 24  1  0
 24 25  2  0
 25 26  1  0
 26 27  2  0
 18 28  1  0
 28 29  1  0
 14 30  2  0
 30 31  1  0
  5 32  1  0
 32 33  2  0
 33  2  1  0
 31  7  1  0
 31 10  2  0
 29 15  1  0
 27 22  1  0
  1 34  1  0
  1 35  1  0
  1 36  1  0
  3 37  1  0
  4 38  1  0
  6 39  1  0
  6 40  1  0
 13 41  1  0
 15 42  1  0
 16 43  1  0
 16 44  1  0
 17 45  1  0
 17 46  1  0
 23 47  1  0
 24 48  1  0
 25 49  1  0
 26 50  1  0
 27 51  1  0
 28 52  1  0
 28 53  1  0
 29 54  1  0
 29 55  1  0
 32 56  1  0
 33 57  1  0
M  END
$$$$
