
     RDKit          3D

 54 58  0  0  0  0  0  0  0  0999 V2000
    4.2328    2.6806   -1.7417 F   0  0  0  0  0  0  0  0  0  0  0  0
    4.9958    2.2156   -0.7134 C   0  0  0  0  0  0  0  0  0  0  0  0
    5.9110    3.1953   -0.4632 F   0  0  0  0  0  0  0  0  0  0  0  0
    4.1801    2.1937    0.3781 F   0  0  0  0  0  0  0  0  0  0  0  0
    5.6167    0.8678   -1.0150 C   0  0  0  0  0  0  0  0  0  0  0  0
    7.0117    0.7846   -1.1923 C   0  0  0  0  0  0  0  0  0  0  0  0
    7.6301   -0.4316   -1.4810 C   0  0  0  0  0  0  0  0  0  0  0  0
    6.8658   -1.5862   -1.6005 C   0  0  0  0  0  0  0  0  0  0  0  0
    5.4832   -1.5263   -1.4336 C   0  0  0  0  0  0  0  0  0  0  0  0
    4.8412   -0.3081   -1.1454 C   0  0  0  0  0  0  0  0  0  0  0  0
    3.3351   -0.3169   -0.9596 C   0  0  0  0  0  0  0  0  0  0  0  0
    2.9398   -0.7365    0.4698 C   0  0  0  0  0  0  0  0  0  0  0  0
    1.5138   -0.6823    0.8186 N   0  0  0  0  0  0  0  0  0  0  0  0
    0.6601   -1.5237   -0.0388 C   0  0  0  0  0  0  0  0  0  0  0  0
   -0.8153   -1.5066    0.4173 C   0  0  0  0  0  0  0  0  0  0  0  0
   -1.3332   -0.1226    0.4518 N   0  0  0  0  0  0  0  0  0  0  0  0
   -2.7150    0.0427    0.5266 C   0  0  0  0  0  0  0  0  0  0  0  0
   -3.2389    0.5974    1.5906 N   0  0  0  0  0  0  0  0  0  0  0  0
   -4.6350    0.7494    1.7058 C   0  0  0  0  0  0  0  0  0  0  0  0
   -5.1445    1.3322    2.8677 C   0  0  0  0  0  0  0  0  0  0  0  0
   -6.5216    1.4987    3.0381 C   0  0  0  0  0  0  0  0  0  0  0  0
   -7.4061    1.0813    2.0427 C   0  0  0  0  0  0  0  0  0  0  0  0
   -6.9197    0.4966    0.8728 C   0  0  0  0  0  0  0  0  0  0  0  0
   -5.5397    0.3361    0.7171 C   0  0  0  0  0  0  0  0  0  0  0  0
   -4.9647   -0.2312   -0.4314 N   0  0  0  0  0  0  0  0  0  0  0  0
   -5.5685   -0.7056   -1.5721 C   0  0  0  0  0  0  0  0  0  0  0  0
   -4.5815   -1.1053   -2.4474 C   0  0  0  0  0  0  0  0  0  0  0  0
   -3.3396   -0.8778   -1.8105 C   0  0  0  0  0  0  0  0  0  0  0  0
   -3.6004   -0.3689   -0.5507 C   0  0  0  0  0  0  0  0  0  0  0  0
   -0.4950    0.7354    1.3185 C   0  0  0  0  0  0  0  0  0  0  0  0
    0.9805    0.6943    0.8629 C   0  0  0  0  0  0  0  0  0  0  0  0
    7.6299    1.6777   -1.1045 H   0  0  0  0  0  0  0  0  0  0  0  0
    8.7085   -0.4765   -1.6127 H   0  0  0  0  0  0  0  0  0  0  0  0
    7.3457   -2.5357   -1.8244 H   0  0  0  0  0  0  0  0  0  0  0  0
    4.9033   -2.4428   -1.5306 H   0  0  0  0  0  0  0  0  0  0  0  0
    2.9027   -1.0103   -1.6920 H   0  0  0  0  0  0  0  0  0  0  0  0
    2.9243    0.6644   -1.2133 H   0  0  0  0  0  0  0  0  0  0  0  0
    3.2890   -1.7629    0.6459 H   0  0  0  0  0  0  0  0  0  0  0  0
    3.4941   -0.1293    1.1976 H   0  0  0  0  0  0  0  0  0  0  0  0
    0.7030   -1.1849   -1.0814 H   0  0  0  0  0  0  0  0  0  0  0  0
    1.0173   -2.5598   -0.0106 H   0  0  0  0  0  0  0  0  0  0  0  0
   -1.3953   -2.1322   -0.2681 H   0  0  0  0  0  0  0  0  0  0  0  0
   -0.9052   -1.9551    1.4153 H   0  0  0  0  0  0  0  0  0  0  0  0
   -4.4581    1.6566    3.6453 H   0  0  0  0  0  0  0  0  0  0  0  0
   -6.9016    1.9543    3.9489 H   0  0  0  0  0  0  0  0  0  0  0  0
   -8.4766    1.2138    2.1797 H   0  0  0  0  0  0  0  0  0  0  0  0
   -7.6260    0.1823    0.1119 H   0  0  0  0  0  0  0  0  0  0  0  0
   -6.6424   -0.7102   -1.6884 H   0  0  0  0  0  0  0  0  0  0  0  0
   -4.7410   -1.5060   -3.4402 H   0  0  0  0  0  0  0  0  0  0  0  0
   -2.3573   -1.0616   -2.2250 H   0  0  0  0  0  0  0  0  0  0  0  0
   -0.5739    0.4064    2.3627 H   0  0  0  0  0  0  0  0  0  0  0  0
   -0.8418    1.7745    1.2637 H   0  0  0  0  0  0  0  0  0  0  0  0
    1.5718    1.2973    1.5621 H   0  0  0  0  0  0  0  0  0  0  0  0
    1.0506    1.1681   -0.1238 H   0  0  0  0  0  0  0  0  0  0  0  0
  1  2  1  0
  2  3  1  0
  2  4  1  0
  2  5  1  0
  5  6  2  0
  6  7  1  0
  7  8  2  0
  8  9  1  0
  9 10  2  0
 10 11  1  0
 11 12  1  0
 12 13  1  0
 13 14  1  0
 14 15  1  0
 15 16  1  0
 16 17  1  0
 17 18  2  0
 18 19  1  0
 19 20  2  0
 20 21  1  0
 21 22  2  0
 22 23  1  0
 23 24  2  0
 24 25  1  0
 25 26  1  0
 26 27  2  0
 27 28  1  0
 28 29  2  0
 16 30  1  0
 30 31  1  0
 10  5  1  0
 31 13  1  0
 29 17  1  0
 24 19  1  0
 29 25  1  0
  6 32  1  0
  7 33  1  0
  8 34  1  0
  9 35  1  0
 11 36  1  0
 11 37  1  0
 12 38  1  0
 12 39  1  0
 14 40  1  0
 14 41  1  0
 15 42  1  0
 15 43  1  0
 20 44  1  0
 21 45  1  0
 22 46  1  0
 23 47  1  0
 26 48  1  0
 27 49  1  0
 28 50  1  0
 30 51  1  0
 30 52  1  0
 31 53  1  0
 31 54  1  0
M  END
$$$$
