
     RDKit          3D

 34 36  0  0  0  0  0  0  0  0999 V2000
    3.8956   -0.3288   -1.0645 N   0  0  0  0  0  0  0  0  0  0  0  0
    2.7368    0.1317   -0.3018 C   0  0  0  0  0  0  0  0  0  0  0  0
    2.0983   -1.0392    0.4392 C   0  0  0  0  0  0  0  0  0  0  0  0
    0.9250   -0.6357    1.3466 C   0  0  0  0  0  0  0  0  0  0  0  0
   -0.2609   -0.1620    0.5875 N   0  0  0  0  0  0  0  0  0  0  0  0
   -1.1103   -1.1766    0.0344 C   0  0  0  0  0  0  0  0  0  0  0  0
   -0.8492   -2.5604    0.1904 C   0  0  0  0  0  0  0  0  0  0  0  0
   -1.6740   -3.5595   -0.3447 C   0  0  0  0  0  0  0  0  0  0  0  0
   -2.8025   -3.2127   -1.0629 C   0  0  0  0  0  0  0  0  0  0  0  0
   -3.0964   -1.8677   -1.2408 C   0  0  0  0  0  0  0  0  0  0  0  0
   -2.2683   -0.8584   -0.7036 C   0  0  0  0  0  0  0  0  0  0  0  0
   -2.8086    0.7954   -1.0396 S   0  0  0  0  0  0  0  0  0  0  0  0
   -1.5885    1.7782   -0.2101 C   0  0  0  0  0  0  0  0  0  0  0  0
   -1.8026    3.1709   -0.3044 C   0  0  0  0  0  0  0  0  0  0  0  0
   -0.9292    4.0747    0.2844 C   0  0  0  0  0  0  0  0  0  0  0  0
    0.1651    3.5835    0.9695 C   0  0  0  0  0  0  0  0  0  0  0  0
    1.2725    4.6798    1.7027 Cl  0  0  0  0  0  0  0  0  0  0  0  0
    0.3846    2.2035    1.0696 C   0  0  0  0  0  0  0  0  0  0  0  0
   -0.4814    1.2472    0.4880 C   0  0  0  0  0  0  0  0  0  0  0  0
    4.2919    0.4593   -1.5768 H   0  0  0  0  0  0  0  0  0  0  0  0
    3.5895   -0.9943   -1.7746 H   0  0  0  0  0  0  0  0  0  0  0  0
    2.0228    0.5947   -0.9897 H   0  0  0  0  0  0  0  0  0  0  0  0
    3.0725    0.8925    0.4096 H   0  0  0  0  0  0  0  0  0  0  0  0
    1.7830   -1.7940   -0.2901 H   0  0  0  0  0  0  0  0  0  0  0  0
    2.8577   -1.5187    1.0710 H   0  0  0  0  0  0  0  0  0  0  0  0
    0.6486   -1.4833    1.9863 H   0  0  0  0  0  0  0  0  0  0  0  0
    1.2724    0.0741    2.1012 H   0  0  0  0  0  0  0  0  0  0  0  0
    0.0151   -2.9273    0.7334 H   0  0  0  0  0  0  0  0  0  0  0  0
   -1.4237   -4.6067   -0.1940 H   0  0  0  0  0  0  0  0  0  0  0  0
   -3.4496   -3.9776   -1.4822 H   0  0  0  0  0  0  0  0  0  0  0  0
   -3.9869   -1.6017   -1.8079 H   0  0  0  0  0  0  0  0  0  0  0  0
   -2.6638    3.5585   -0.8469 H   0  0  0  0  0  0  0  0  0  0  0  0
   -1.1082    5.1424    0.2015 H   0  0  0  0  0  0  0  0  0  0  0  0
    1.2727    1.9184    1.6190 H   0  0  0  0  0  0  0  0  0  0  0  0
  1  2  1  0
  2  3  1  0
  3  4  1  0
  4  5  1  0
  5  6  1  0
  6  7  2  0
  7  8  1  0
  8  9  2  0
  9 10  1  0
 10 11  2  0
 11 12  1  0
 12 13  1  0
 13 14  2  0
 14 15  1  0
 15 16  2  0
 16 17  1  0
 16 18  1  0
 18 19  2  0
 19  5  1  0
 11  6  1  0
 19 13  1  0
  1 20  1  0
  1 21  1  0
  2 22  1  0
  2 23  1  0
  3 24  1  0
  3 25  1  0
  4 26  1  0
  4 27  1  0
  7 28  1  0
  8 29  1  0
  9 30  1  0
 10 31  1  0
 14 32  1  0
 15 33  1  0
 18 34  1  0
M  END
$$$$
