
     RDKit          3D

 52 55  0  0  0  0  0  0  0  0999 V2000
    6.2638   -1.0698   -2.4187 C   0  0  0  0  0  0  0  0  0  0  0  0
    5.5689   -0.6765   -1.1703 C   0  0  0  0  0  0  0  0  0  0  0  0
    4.1921   -0.7591   -0.8723 C   0  0  0  0  0  0  0  0  0  0  0  0
    4.0495   -0.2735    0.4181 C   0  0  0  0  0  0  0  0  0  0  0  0
    2.8796   -0.1178    1.2530 C   0  0  0  0  0  0  0  0  0  0  0  0
    2.9306    0.1899    2.4398 O   0  0  0  0  0  0  0  0  0  0  0  0
    1.6788   -0.3231    0.6126 N   0  0  0  0  0  0  0  0  0  0  0  0
    0.4167   -0.0790    1.2801 C   0  0  0  0  0  0  0  0  0  0  0  0
    0.1017    1.4361    1.3194 C   0  0  0  0  0  0  0  0  0  0  0  0
   -1.3993    1.7620    1.5747 C   0  0  0  0  0  0  0  0  0  0  0  0
   -1.5879    3.2907    1.5377 C   0  0  0  0  0  0  0  0  0  0  0  0
   -1.8324    1.2644    2.9689 C   0  0  0  0  0  0  0  0  0  0  0  0
   -2.2914    1.1210    0.4645 C   0  0  0  0  0  0  0  0  0  0  0  0
   -1.8621   -0.2771    0.1604 C   0  0  0  0  0  0  0  0  0  0  0  0
   -0.6470   -0.8182    0.5431 C   0  0  0  0  0  0  0  0  0  0  0  0
   -0.7258   -2.1643    0.1719 C   0  0  0  0  0  0  0  0  0  0  0  0
   -1.8720   -2.4544   -0.4369 N   0  0  0  0  0  0  0  0  0  0  0  0
   -2.5662   -1.2799   -0.4955 N   0  0  0  0  0  0  0  0  0  0  0  0
   -3.8211   -1.2577   -1.1796 C   0  0  0  0  0  0  0  0  0  0  0  0
   -4.4015   -2.4816   -1.5703 C   0  0  0  0  0  0  0  0  0  0  0  0
   -5.6288   -2.5171   -2.2407 C   0  0  0  0  0  0  0  0  0  0  0  0
   -6.2870   -1.3303   -2.5404 C   0  0  0  0  0  0  0  0  0  0  0  0
   -5.7091   -0.1232   -2.1705 C   0  0  0  0  0  0  0  0  0  0  0  0
   -6.3349    1.0226   -2.4719 F   0  0  0  0  0  0  0  0  0  0  0  0
   -4.4872   -0.0724   -1.5000 C   0  0  0  0  0  0  0  0  0  0  0  0
    5.3307    0.0470    0.8067 N   0  0  0  0  0  0  0  0  0  0  0  0
    5.7542    0.5902    2.0784 C   0  0  0  0  0  0  0  0  0  0  0  0
    6.2599   -0.1761   -0.1442 N   0  0  0  0  0  0  0  0  0  0  0  0
    6.9203   -1.9264   -2.2370 H   0  0  0  0  0  0  0  0  0  0  0  0
    6.8703   -0.2421   -2.8010 H   0  0  0  0  0  0  0  0  0  0  0  0
    5.5465   -1.3502   -3.1968 H   0  0  0  0  0  0  0  0  0  0  0  0
    3.4162   -1.1388   -1.5214 H   0  0  0  0  0  0  0  0  0  0  0  0
    1.6706   -0.3850   -0.3942 H   0  0  0  0  0  0  0  0  0  0  0  0
    0.4790   -0.4652    2.3051 H   0  0  0  0  0  0  0  0  0  0  0  0
    0.7308    1.9174    2.0794 H   0  0  0  0  0  0  0  0  0  0  0  0
    0.3955    1.8891    0.3607 H   0  0  0  0  0  0  0  0  0  0  0  0
   -1.2779    3.7062    0.5725 H   0  0  0  0  0  0  0  0  0  0  0  0
   -0.9935    3.7813    2.3165 H   0  0  0  0  0  0  0  0  0  0  0  0
   -2.6375    3.5631    1.6959 H   0  0  0  0  0  0  0  0  0  0  0  0
   -1.7731    0.1755    3.0622 H   0  0  0  0  0  0  0  0  0  0  0  0
   -1.2000    1.6980    3.7519 H   0  0  0  0  0  0  0  0  0  0  0  0
   -2.8681    1.5524    3.1830 H   0  0  0  0  0  0  0  0  0  0  0  0
   -2.1956    1.7124   -0.4548 H   0  0  0  0  0  0  0  0  0  0  0  0
   -3.3380    1.1484    0.7873 H   0  0  0  0  0  0  0  0  0  0  0  0
    0.0013   -2.9523    0.3263 H   0  0  0  0  0  0  0  0  0  0  0  0
   -3.9093   -3.4282   -1.3481 H   0  0  0  0  0  0  0  0  0  0  0  0
   -6.0634   -3.4722   -2.5256 H   0  0  0  0  0  0  0  0  0  0  0  0
   -7.2385   -1.3366   -3.0619 H   0  0  0  0  0  0  0  0  0  0  0  0
   -4.0952    0.9111   -1.2884 H   0  0  0  0  0  0  0  0  0  0  0  0
    5.2065    1.5169    2.2625 H   0  0  0  0  0  0  0  0  0  0  0  0
    6.8260    0.8039    2.0435 H   0  0  0  0  0  0  0  0  0  0  0  0
    5.5543   -0.1513    2.8549 H   0  0  0  0  0  0  0  0  0  0  0  0
  1  2  1  0
  2  3  1  0
  3  4  2  0
  4  5  1  0
  5  6  2  0
  5  7  1  0
  7  8  1  0
  8  9  1  0
  9 10  1  0
 10 11  1  0
 10 12  1  0
 10 13  1  0
 13 14  1  0
 14 15  2  0
 15 16  1  0
 16 17  2  0
 17 18  1  0
 18 19  1  0
 19 20  2  0
 20 21  1  0
 21 22  2  0
 22 23  1  0
 23 24  1  0
 23 25  2  0
  4 26  1  0
 26 27  1  0
 26 28  1  0
 28  2  2  0
 15  8  1  0
 25 19  1  0
 18 14  1  0
  1 29  1  0
  1 30  1  0
  1 31  1  0
  3 32  1  0
  7 33  1  0
  8 34  1  0
  9 35  1  0
  9 36  1  0
 11 37  1  0
 11 38  1  0
 11 39  1  0
 12 40  1  0
 12 41  1  0
 12 42  1  0
 13 43  1  0
 13 44  1  0
 16 45  1  0
 20 46  1  0
 21 47  1  0
 22 48  1  0
 25 49  1  0
 27 50  1  0
 27 51  1  0
 27 52  1  0
M  END
$$$$
