
     RDKit          3D

 32 33  0  0  0  0  0  0  0  0999 V2000
    4.1073    1.8229   -0.8244 C   0  0  0  0  0  0  0  0  0  0  0  0
    4.4084    0.4092    0.2044 S   0  0  0  0  0  6  0  0  0  0  0  0
    4.2698    0.8011    1.5926 O   0  0  0  0  0  0  0  0  0  0  0  0
    5.6237   -0.2239   -0.2740 O   0  0  0  0  0  0  0  0  0  0  0  0
    3.0610   -0.6944   -0.1546 C   0  0  0  0  0  0  0  0  0  0  0  0
    3.3222   -1.9770   -0.6406 C   0  0  0  0  0  0  0  0  0  0  0  0
    2.2568   -2.8369   -0.9020 C   0  0  0  0  0  0  0  0  0  0  0  0
    0.9444   -2.4065   -0.6844 C   0  0  0  0  0  0  0  0  0  0  0  0
   -0.3437   -3.5121   -1.0275 Cl  0  0  0  0  0  0  0  0  0  0  0  0
    0.6746   -1.1087   -0.2062 C   0  0  0  0  0  0  0  0  0  0  0  0
   -0.6751   -0.7255   -0.0155 N   0  0  0  0  0  0  0  0  0  0  0  0
   -1.1558    0.5416    0.2522 C   0  0  0  0  0  0  0  0  0  0  0  0
   -0.4955    1.5734    0.2807 O   0  0  0  0  0  0  0  0  0  0  0  0
   -2.6289    0.6287    0.4613 C   0  0  0  0  0  0  0  0  0  0  0  0
   -3.3506   -0.4080    1.0706 C   0  0  0  0  0  0  0  0  0  0  0  0
   -4.7303   -0.2860    1.2511 C   0  0  0  0  0  0  0  0  0  0  0  0
   -5.3901    0.8703    0.8329 C   0  0  0  0  0  0  0  0  0  0  0  0
   -4.6667    1.9066    0.2434 C   0  0  0  0  0  0  0  0  0  0  0  0
   -5.5635    3.4759   -0.3106 Br  0  0  0  0  0  0  0  0  0  0  0  0
   -3.2900    1.7959    0.0595 C   0  0  0  0  0  0  0  0  0  0  0  0
    1.7494   -0.2615    0.0760 C   0  0  0  0  0  0  0  0  0  0  0  0
    3.1750    2.3028   -0.5230 H   0  0  0  0  0  0  0  0  0  0  0  0
    4.9378    2.5196   -0.6900 H   0  0  0  0  0  0  0  0  0  0  0  0
    4.0609    1.5005   -1.8664 H   0  0  0  0  0  0  0  0  0  0  0  0
    4.3430   -2.3172   -0.8053 H   0  0  0  0  0  0  0  0  0  0  0  0
    2.4550   -3.8400   -1.2725 H   0  0  0  0  0  0  0  0  0  0  0  0
   -1.3529   -1.4547   -0.2147 H   0  0  0  0  0  0  0  0  0  0  0  0
   -2.8529   -1.3022    1.4372 H   0  0  0  0  0  0  0  0  0  0  0  0
   -5.2911   -1.0871    1.7276 H   0  0  0  0  0  0  0  0  0  0  0  0
   -6.4640    0.9584    0.9797 H   0  0  0  0  0  0  0  0  0  0  0  0
   -2.7278    2.6091   -0.3950 H   0  0  0  0  0  0  0  0  0  0  0  0
    1.5896    0.7258    0.4994 H   0  0  0  0  0  0  0  0  0  0  0  0
  1  2  1  0
  2  3  2  0
  2  4  2  0
  2  5  1  0
  5  6  2  0
  6  7  1  0
  7  8  2  0
  8  9  1  0
  8 10  1  0
 10 11  1  0
 11 12  1  0
 12 13  2  0
 12 14  1  0
 14 15  2  0
 15 16  1  0
 16 17  2  0
 17 18  1  0
 18 19  1  0
 18 20  2  0
 10 21  2  0
 21  5  1  0
 20 14  1  0
  1 22  1  0
  1 23  1  0
  1 24  1  0
  6 25  1  0
  7 26  1  0
 11 27  1  0
 15 28  1  0
 16 29  1  0
 17 30  1  0
 20 31  1  0
 21 32  1  0
M  END
$$$$
