
     RDKit          3D

 45 47  0  0  0  0  0  0  0  0999 V2000
   -7.7512   -0.9202   -0.7865 C   0  0  0  0  0  0  0  0  0  0  0  0
   -6.5061   -0.2627   -0.2166 C   0  0  0  0  0  0  0  0  0  0  0  0
   -5.9026   -1.1868    0.6941 O   0  0  0  0  0  0  0  0  0  0  0  0
   -4.5345   -1.0952    0.7585 C   0  0  0  0  0  0  0  0  0  0  0  0
   -3.8669   -2.3214    0.6684 C   0  0  0  0  0  0  0  0  0  0  0  0
   -2.4750   -2.3723    0.7172 C   0  0  0  0  0  0  0  0  0  0  0  0
   -1.7415   -1.1933    0.8729 C   0  0  0  0  0  0  0  0  0  0  0  0
   -0.2769   -1.2568    0.9141 C   0  0  0  0  0  0  0  0  0  0  0  0
    0.5473   -0.7777   -0.0276 C   0  0  0  0  0  0  0  0  0  0  0  0
    0.1242    0.0021   -1.5080 S   0  0  0  0  0  0  0  0  0  0  0  0
    1.8036    0.2075   -2.0013 C   0  0  0  0  0  0  0  0  0  0  0  0
    2.2566    0.8833   -3.4573 S   0  0  0  0  0  0  0  0  0  0  0  0
    2.6146   -0.3118   -1.0138 N   0  0  0  0  0  0  0  0  0  0  0  0
    4.0196   -0.2278   -1.0658 N   0  0  0  0  0  0  0  0  0  0  0  0
    4.5804    0.9078   -0.5037 C   0  0  0  0  0  0  0  0  0  0  0  0
    3.9215    1.8754   -0.1374 O   0  0  0  0  0  0  0  0  0  0  0  0
    6.0562    0.8948   -0.3254 C   0  0  0  0  0  0  0  0  0  0  0  0
    6.6134    1.7443    0.6317 C   0  0  0  0  0  0  0  0  0  0  0  0
    7.9855    1.7322    0.7931 C   0  0  0  0  0  0  0  0  0  0  0  0
    8.8141    0.9499    0.0697 N   0  0  0  0  0  0  0  0  0  0  0  0
    8.2524    0.1539   -0.8648 C   0  0  0  0  0  0  0  0  0  0  0  0
    6.8905    0.0890   -1.1021 C   0  0  0  0  0  0  0  0  0  0  0  0
    2.0256   -0.8982    0.0920 C   0  0  0  0  0  0  0  0  0  0  0  0
    2.6092   -1.4670    1.0047 O   0  0  0  0  0  0  0  0  0  0  0  0
   -2.4134    0.0335    1.0076 C   0  0  0  0  0  0  0  0  0  0  0  0
   -3.8128    0.0952    0.9581 C   0  0  0  0  0  0  0  0  0  0  0  0
   -4.5368    1.2475    1.1171 O   0  0  0  0  0  0  0  0  0  0  0  0
   -3.8208    2.4643    1.2889 C   0  0  0  0  0  0  0  0  0  0  0  0
   -8.4563   -1.1677    0.0153 H   0  0  0  0  0  0  0  0  0  0  0  0
   -8.2486   -0.2591   -1.5039 H   0  0  0  0  0  0  0  0  0  0  0  0
   -7.4940   -1.8605   -1.2885 H   0  0  0  0  0  0  0  0  0  0  0  0
   -5.8313   -0.0012   -1.0428 H   0  0  0  0  0  0  0  0  0  0  0  0
   -6.7983    0.6442    0.3224 H   0  0  0  0  0  0  0  0  0  0  0  0
   -4.4396   -3.2379    0.5420 H   0  0  0  0  0  0  0  0  0  0  0  0
   -1.9751   -3.3330    0.6244 H   0  0  0  0  0  0  0  0  0  0  0  0
    0.1316   -1.7573    1.7909 H   0  0  0  0  0  0  0  0  0  0  0  0
    4.4977   -1.1148   -0.9438 H   0  0  0  0  0  0  0  0  0  0  0  0
    5.9949    2.3975    1.2402 H   0  0  0  0  0  0  0  0  0  0  0  0
    8.4706    2.3695    1.5288 H   0  0  0  0  0  0  0  0  0  0  0  0
    8.9519   -0.4462   -1.4399 H   0  0  0  0  0  0  0  0  0  0  0  0
    6.5168   -0.5551   -1.8891 H   0  0  0  0  0  0  0  0  0  0  0  0
   -1.8200    0.9296    1.1591 H   0  0  0  0  0  0  0  0  0  0  0  0
   -4.5525    3.2750    1.3669 H   0  0  0  0  0  0  0  0  0  0  0  0
   -3.2382    2.4522    2.2172 H   0  0  0  0  0  0  0  0  0  0  0  0
   -3.1860    2.6752    0.4218 H   0  0  0  0  0  0  0  0  0  0  0  0
  1  2  1  0
  2  3  1  0
  3  4  1  0
  4  5  2  0
  5  6  1  0
  6  7  2  0
  7  8  1  0
  8  9  2  3
  9 10  1  0
 10 11  1  0
 11 12  2  0
 11 13  1  0
 13 14  1  0
 14 15  1  0
 15 16  2  0
 15 17  1  0
 17 18  2  0
 18 19  1  0
 19 20  2  0
 20 21  1  0
 21 22  2  0
 13 23  1  0
 23 24  2  0
  7 25  1  0
 25 26  2  0
 26 27  1  0
 27 28  1  0
 26  4  1  0
 23  9  1  0
 22 17  1  0
  1 29  1  0
  1 30  1  0
  1 31  1  0
  2 32  1  0
  2 33  1  0
  5 34  1  0
  6 35  1  0
  8 36  1  0
 14 37  1  0
 18 38  1  0
 19 39  1  0
 21 40  1  0
 22 41  1  0
 25 42  1  0
 28 43  1  0
 28 44  1  0
 28 45  1  0
M  END
$$$$
