
     RDKit          3D

 38 39  0  0  0  0  0  0  0  0999 V2000
    3.4353    2.5445    0.4846 C   0  0  0  0  0  0  0  0  0  0  0  0
    3.5440    1.1326    0.0463 C   0  0  0  0  0  0  0  0  0  0  0  0
    4.3669    0.5986   -0.9682 C   0  0  0  0  0  0  0  0  0  0  0  0
    4.1043   -0.7547   -0.9848 C   0  0  0  0  0  0  0  0  0  0  0  0
    4.6557   -1.8303   -1.8447 C   0  0  0  0  0  0  0  0  0  0  0  0
    3.1759   -0.9600    0.0024 N   0  0  0  0  0  0  0  0  0  0  0  0
    2.5616   -2.2082    0.4202 C   0  0  0  0  0  0  0  0  0  0  0  0
    1.1100   -2.2970    0.0088 C   0  0  0  0  0  0  0  0  0  0  0  0
    0.6424   -3.3312   -0.4689 O   0  0  0  0  0  0  0  0  0  0  0  0
    0.3694   -1.1576    0.2913 N   0  0  0  0  0  0  0  0  0  0  0  0
   -0.9496   -1.1040   -0.0308 N   0  0  0  0  0  0  0  0  0  0  0  0
   -1.5229    0.0375    0.1794 C   0  0  0  0  0  0  0  0  0  0  0  0
   -2.9537    0.2290   -0.1317 C   0  0  0  0  0  0  0  0  0  0  0  0
   -3.5182    1.4840    0.1199 C   0  0  0  0  0  0  0  0  0  0  0  0
   -4.8759    1.6942   -0.1669 C   0  0  0  0  0  0  0  0  0  0  0  0
   -5.4749    3.0096    0.0938 N   0  0  0  0  0  4  0  0  0  0  0  0
   -4.7380    3.8921    0.5565 O   0  0  0  0  0  0  0  0  0  0  0  0
   -6.6770    3.1590   -0.1636 O   0  0  0  0  0  1  0  0  0  0  0  0
   -5.6658    0.6659   -0.6990 C   0  0  0  0  0  0  0  0  0  0  0  0
   -5.0915   -0.5823   -0.9461 C   0  0  0  0  0  0  0  0  0  0  0  0
   -3.7432   -0.7994   -0.6644 C   0  0  0  0  0  0  0  0  0  0  0  0
   -3.2649   -2.0505   -0.9385 O   0  0  0  0  0  0  0  0  0  0  0  0
    2.8002    0.1834    0.6275 N   0  0  0  0  0  0  0  0  0  0  0  0
    4.0973    3.1916   -0.0995 H   0  0  0  0  0  0  0  0  0  0  0  0
    3.7112    2.6408    1.5396 H   0  0  0  0  0  0  0  0  0  0  0  0
    2.4099    2.9072    0.3594 H   0  0  0  0  0  0  0  0  0  0  0  0
    5.0595    1.1309   -1.6061 H   0  0  0  0  0  0  0  0  0  0  0  0
    5.2289   -2.5466   -1.2476 H   0  0  0  0  0  0  0  0  0  0  0  0
    3.8524   -2.3657   -2.3607 H   0  0  0  0  0  0  0  0  0  0  0  0
    5.3249   -1.4165   -2.6061 H   0  0  0  0  0  0  0  0  0  0  0  0
    2.6403   -2.2736    1.5104 H   0  0  0  0  0  0  0  0  0  0  0  0
    3.1182   -3.0398   -0.0202 H   0  0  0  0  0  0  0  0  0  0  0  0
    0.8678   -0.3130    0.5938 H   0  0  0  0  0  0  0  0  0  0  0  0
   -0.9720    0.9017    0.5937 H   0  0  0  0  0  0  0  0  0  0  0  0
   -2.9084    2.2845    0.5330 H   0  0  0  0  0  0  0  0  0  0  0  0
   -6.7196    0.8167   -0.9255 H   0  0  0  0  0  0  0  0  0  0  0  0
   -5.6922   -1.3899   -1.3592 H   0  0  0  0  0  0  0  0  0  0  0  0
   -2.3084   -2.0836   -0.7022 H   0  0  0  0  0  0  0  0  0  0  0  0
  1  2  1  0
  2  3  1  0
  3  4  2  0
  4  5  1  0
  4  6  1  0
  6  7  1  0
  7  8  1  0
  8  9  2  0
  8 10  1  0
 10 11  1  0
 11 12  2  3
 12 13  1  0
 13 14  2  0
 14 15  1  0
 15 16  1  0
 16 17  2  0
 16 18  1  0
 15 19  2  0
 19 20  1  0
 20 21  2  0
 21 22  1  0
  6 23  1  0
 23  2  2  0
 21 13  1  0
  1 24  1  0
  1 25  1  0
  1 26  1  0
  3 27  1  0
  5 28  1  0
  5 29  1  0
  5 30  1  0
  7 31  1  0
  7 32  1  0
 10 33  1  0
 12 34  1  0
 14 35  1  0
 19 36  1  0
 20 37  1  0
 22 38  1  0
M  CHG  2  16   1  18  -1
M  END
$$$$
