
     RDKit          3D

 41 44  0  0  0  0  0  0  0  0999 V2000
    0.2985   -2.2933   -1.7398 O   0  0  0  0  0  0  0  0  0  0  0  0
    0.1695   -1.0720   -1.6998 C   0  0  0  0  0  0  0  0  0  0  0  0
   -1.0560   -0.3997   -2.3332 C   0  0  0  0  0  0  0  0  0  0  0  0
   -1.8304    0.3795   -1.3550 N   0  0  0  0  0  0  0  0  0  0  0  0
   -1.4576    1.7036   -1.1488 C   0  0  0  0  0  0  0  0  0  0  0  0
   -0.4323    2.1809   -1.6430 O   0  0  0  0  0  0  0  0  0  0  0  0
   -2.3692    2.5550   -0.2984 C   0  0  0  0  0  0  0  0  0  0  0  0
   -1.9781    2.5024    1.1628 C   0  0  0  0  0  0  0  0  0  0  0  0
   -1.6248    0.8416    1.8148 S   0  0  0  0  0  0  0  0  0  0  0  0
   -2.8047   -0.1394    0.8901 C   0  0  0  0  0  0  0  0  0  0  0  0
   -3.7341   -0.8621    1.6554 C   0  0  0  0  0  0  0  0  0  0  0  0
   -4.6209   -1.7503    1.0503 C   0  0  0  0  0  0  0  0  0  0  0  0
   -4.5765   -1.9381   -0.3253 C   0  0  0  0  0  0  0  0  0  0  0  0
   -3.6484   -1.2356   -1.0979 C   0  0  0  0  0  0  0  0  0  0  0  0
   -2.7546   -0.3228   -0.5117 C   0  0  0  0  0  0  0  0  0  0  0  0
    1.0794   -0.1657   -1.1831 N   0  0  0  0  0  0  0  0  0  0  0  0
    2.2873   -0.4324   -0.5108 C   0  0  0  0  0  0  0  0  0  0  0  0
    2.7601   -1.7296   -0.2354 C   0  0  0  0  0  0  0  0  0  0  0  0
    3.9701   -1.9273    0.4436 C   0  0  0  0  0  0  0  0  0  0  0  0
    4.6788   -0.8140    0.8332 C   0  0  0  0  0  0  0  0  0  0  0  0
    4.2237    0.4546    0.5707 C   0  0  0  0  0  0  0  0  0  0  0  0
    3.0367    0.6787   -0.0959 C   0  0  0  0  0  0  0  0  0  0  0  0
    5.0662    1.4152    1.0378 O   0  0  0  0  0  0  0  0  0  0  0  0
    6.1029    0.6021    1.6263 C   0  0  0  0  0  0  0  0  0  0  0  0
    5.8642   -0.8146    1.4980 O   0  0  0  0  0  0  0  0  0  0  0  0
   -0.7032    0.2603   -3.1353 H   0  0  0  0  0  0  0  0  0  0  0  0
   -1.6694   -1.1656   -2.8147 H   0  0  0  0  0  0  0  0  0  0  0  0
   -3.4148    2.2620   -0.4475 H   0  0  0  0  0  0  0  0  0  0  0  0
   -2.3082    3.5880   -0.6622 H   0  0  0  0  0  0  0  0  0  0  0  0
   -2.7713    2.9512    1.7701 H   0  0  0  0  0  0  0  0  0  0  0  0
   -1.0752    3.1014    1.3247 H   0  0  0  0  0  0  0  0  0  0  0  0
   -3.7605   -0.7526    2.7381 H   0  0  0  0  0  0  0  0  0  0  0  0
   -5.3336   -2.3052    1.6555 H   0  0  0  0  0  0  0  0  0  0  0  0
   -5.2635   -2.6338   -0.8015 H   0  0  0  0  0  0  0  0  0  0  0  0
   -3.6706   -1.3918   -2.1730 H   0  0  0  0  0  0  0  0  0  0  0  0
    0.8426    0.8198   -1.3051 H   0  0  0  0  0  0  0  0  0  0  0  0
    2.2016   -2.6109   -0.5359 H   0  0  0  0  0  0  0  0  0  0  0  0
    4.3336   -2.9263    0.6560 H   0  0  0  0  0  0  0  0  0  0  0  0
    2.7074    1.6946   -0.2843 H   0  0  0  0  0  0  0  0  0  0  0  0
    6.1802    0.8497    2.6913 H   0  0  0  0  0  0  0  0  0  0  0  0
    7.0553    0.8426    1.1397 H   0  0  0  0  0  0  0  0  0  0  0  0
  1  2  2  0
  2  3  1  0
  3  4  1  0
  4  5  1  0
  5  6  2  0
  5  7  1  0
  7  8  1  0
  8  9  1  0
  9 10  1  0
 10 11  2  0
 11 12  1  0
 12 13  2  0
 13 14  1  0
 14 15  2  0
  2 16  1  0
 16 17  1  0
 17 18  2  0
 18 19  1  0
 19 20  2  0
 20 21  1  0
 21 22  2  0
 21 23  1  0
 23 24  1  0
 24 25  1  0
 15  4  1  0
 22 17  1  0
 15 10  1  0
 25 20  1  0
  3 26  1  0
  3 27  1  0
  7 28  1  0
  7 29  1  0
  8 30  1  0
  8 31  1  0
 11 32  1  0
 12 33  1  0
 13 34  1  0
 14 35  1  0
 16 36  1  0
 18 37  1  0
 19 38  1  0
 22 39  1  0
 24 40  1  0
 24 41  1  0
M  END
$$$$
