
     RDKit          3D

 79 84  0  0  0  0  0  0  0  0999 V2000
   -2.9411    3.5395   -5.6361 C   0  0  0  0  0  0  0  0  0  0  0  0
   -3.0693    3.7760   -4.3207 C   0  0  0  0  0  0  0  0  0  0  0  0
   -3.4276    5.1520   -3.8222 C   0  0  0  0  0  0  0  0  0  0  0  0
   -2.8856    2.7388   -3.2226 C   0  0  0  0  0  0  0  0  0  0  0  0
   -2.5781    1.2855   -3.6457 C   0  0  1  0  0  0  0  0  0  0  0  0
   -1.2507    1.1999   -4.1864 O   0  0  0  0  0  0  0  0  0  0  0  0
   -2.6886    0.3224   -2.4506 C   0  0  0  0  0  0  0  0  0  0  0  0
   -1.6716    0.6672   -1.4960 O   0  0  0  0  0  0  0  0  0  0  0  0
   -1.7842   -0.0490   -0.3360 C   0  0  0  0  0  0  0  0  0  0  0  0
   -2.8184    0.3106    0.5425 C   0  0  0  0  0  0  0  0  0  0  0  0
   -2.9321   -0.3812    1.7249 C   0  0  0  0  0  0  0  0  0  0  0  0
   -2.0646   -1.3908    2.0493 C   0  0  0  0  0  0  0  0  0  0  0  0
   -1.0237   -1.7482    1.2183 C   0  0  0  0  0  0  0  0  0  0  0  0
   -0.8337   -1.0481   -0.0021 C   0  0  0  0  0  0  0  0  0  0  0  0
    0.3607   -1.4564   -0.9123 C   0  0  0  0  0  0  0  0  0  0  0  0
    1.6641   -1.8082   -0.1221 C   0  0  0  0  0  0  0  0  0  0  0  0
    2.3689   -3.0097   -0.3637 C   0  0  0  0  0  0  0  0  0  0  0  0
    3.5141   -3.2683    0.3586 C   0  0  0  0  0  0  0  0  0  0  0  0
    3.9936   -2.3895    1.2933 C   0  0  0  0  0  0  0  0  0  0  0  0
    3.3629   -1.1947    1.5569 C   0  0  0  0  0  0  0  0  0  0  0  0
    2.2001   -0.8897    0.8362 C   0  0  0  0  0  0  0  0  0  0  0  0
    1.4787    0.2566    1.0319 O   0  0  0  0  0  0  0  0  0  0  0  0
    2.1179    1.3976    1.6161 C   0  0  0  0  0  0  0  0  0  0  0  0
    1.7369    1.4797    3.1017 C   0  0  2  0  0  0  0  0  0  0  0  0
    0.3183    1.6782    3.2006 O   0  0  0  0  0  0  0  0  0  0  0  0
    2.4730    2.6412    3.7870 C   0  0  0  0  0  0  0  0  0  0  0  0
    2.2971    2.6893    5.2944 C   0  0  0  0  0  0  0  0  0  0  0  0
    1.6293    3.6902    5.8916 C   0  0  0  0  0  0  0  0  0  0  0  0
    2.9346    1.5868    6.0942 C   0  0  0  0  0  0  0  0  0  0  0  0
    5.1263   -2.8391    1.8981 O   0  0  0  0  0  0  0  0  0  0  0  0
    5.3003   -4.1098    1.2369 C   0  0  0  0  0  0  0  0  0  0  0  0
    4.2844   -4.3840    0.2497 O   0  0  0  0  0  0  0  0  0  0  0  0
    0.7787   -0.3666   -1.9934 C   0  0  0  0  0  0  0  0  0  0  0  0
    1.2030    0.7695   -1.8278 O   0  0  0  0  0  0  0  0  0  0  0  0
    0.5960   -0.9253   -3.2569 N   0  0  0  0  0  0  0  0  0  0  0  0
    0.0530   -2.1922   -3.1881 C   0  0  0  0  0  0  0  0  0  0  0  0
   -0.3111   -2.9875   -4.2539 C   0  0  0  0  0  0  0  0  0  0  0  0
   -0.8755   -4.2219   -3.9523 C   0  0  0  0  0  0  0  0  0  0  0  0
   -1.2478   -5.0329   -4.9516 F   0  0  0  0  0  0  0  0  0  0  0  0
   -1.0733   -4.6371   -2.6287 C   0  0  0  0  0  0  0  0  0  0  0  0
   -0.6999   -3.8103   -1.5649 C   0  0  0  0  0  0  0  0  0  0  0  0
   -0.1248   -2.5766   -1.8578 C   0  0  0  0  0  0  0  0  0  0  0  0
   -2.3483   -1.9530    3.2537 O   0  0  0  0  0  0  0  0  0  0  0  0
   -3.4825   -1.1576    3.6635 C   0  0  0  0  0  0  0  0  0  0  0  0
   -3.8711   -0.1728    2.6847 O   0  0  0  0  0  0  0  0  0  0  0  0
   -3.0871    4.3274   -6.3695 H   0  0  0  0  0  0  0  0  0  0  0  0
   -2.6729    2.5648   -6.0292 H   0  0  0  0  0  0  0  0  0  0  0  0
   -2.6490    5.5269   -3.1501 H   0  0  0  0  0  0  0  0  0  0  0  0
   -4.3767    5.1202   -3.2742 H   0  0  0  0  0  0  0  0  0  0  0  0
   -3.5394    5.8709   -4.6408 H   0  0  0  0  0  0  0  0  0  0  0  0
   -2.0797    3.0983   -2.5667 H   0  0  0  0  0  0  0  0  0  0  0  0
   -3.8117    2.7300   -2.6306 H   0  0  0  0  0  0  0  0  0  0  0  0
   -3.2804    0.9539   -4.4179 H   0  0  0  0  0  0  0  0  0  0  0  0
   -0.6552    1.5033   -3.4673 H   0  0  0  0  0  0  0  0  0  0  0  0
   -2.5153   -0.7030   -2.7926 H   0  0  0  0  0  0  0  0  0  0  0  0
   -3.6931    0.3883   -2.0159 H   0  0  0  0  0  0  0  0  0  0  0  0
   -3.5035    1.1179    0.3102 H   0  0  0  0  0  0  0  0  0  0  0  0
   -0.3565   -2.5475    1.5261 H   0  0  0  0  0  0  0  0  0  0  0  0
    2.0535   -3.7412   -1.0988 H   0  0  0  0  0  0  0  0  0  0  0  0
    3.7775   -0.5438    2.3155 H   0  0  0  0  0  0  0  0  0  0  0  0
    3.2001    1.4051    1.4479 H   0  0  0  0  0  0  0  0  0  0  0  0
    1.7090    2.2682    1.0898 H   0  0  0  0  0  0  0  0  0  0  0  0
    1.9560    0.5288    3.5974 H   0  0  0  0  0  0  0  0  0  0  0  0
   -0.0916    0.9852    2.6494 H   0  0  0  0  0  0  0  0  0  0  0  0
    2.1267    3.5867    3.3483 H   0  0  0  0  0  0  0  0  0  0  0  0
    3.5490    2.5726    3.5778 H   0  0  0  0  0  0  0  0  0  0  0  0
    1.5097    3.7360    6.9698 H   0  0  0  0  0  0  0  0  0  0  0  0
    1.1653    4.4840    5.3142 H   0  0  0  0  0  0  0  0  0  0  0  0
    4.0036    1.5206    5.8689 H   0  0  0  0  0  0  0  0  0  0  0  0
    2.8351    1.7517    7.1726 H   0  0  0  0  0  0  0  0  0  0  0  0
    2.4696    0.6236    5.8655 H   0  0  0  0  0  0  0  0  0  0  0  0
    6.2798   -4.1178    0.7449 H   0  0  0  0  0  0  0  0  0  0  0  0
    5.2793   -4.9044    1.9926 H   0  0  0  0  0  0  0  0  0  0  0  0
    0.7386   -0.3948   -4.1067 H   0  0  0  0  0  0  0  0  0  0  0  0
   -0.1776   -2.6780   -5.2827 H   0  0  0  0  0  0  0  0  0  0  0  0
   -1.5248   -5.6071   -2.4399 H   0  0  0  0  0  0  0  0  0  0  0  0
   -0.8598   -4.1349   -0.5413 H   0  0  0  0  0  0  0  0  0  0  0  0
   -4.3322   -1.8260    3.8415 H   0  0  0  0  0  0  0  0  0  0  0  0
   -3.2342   -0.6461    4.5997 H   0  0  0  0  0  0  0  0  0  0  0  0
  1  2  2  0
  2  3  1  0
  2  4  1  0
  4  5  1  0
  5  6  1  0
  5  7  1  0
  7  8  1  0
  8  9  1  0
  9 10  2  0
 10 11  1  0
 11 12  2  0
 12 13  1  0
 13 14  2  0
 14 15  1  0
 15 16  1  0
 16 17  2  0
 17 18  1  0
 18 19  2  0
 19 20  1  0
 20 21  2  0
 21 22  1  0
 22 23  1  0
 23 24  1  0
 24 25  1  0
 24 26  1  0
 26 27  1  0
 27 28  2  0
 27 29  1  0
 19 30  1  0
 30 31  1  0
 31 32  1  0
 15 33  1  0
 33 34  2  0
 33 35  1  0
 35 36  1  0
 36 37  2  0
 37 38  1  0
 38 39  1  0
 38 40  2  0
 40 41  1  0
 41 42  2  0
 12 43  1  0
 43 44  1  0
 44 45  1  0
 14  9  1  0
 42 15  1  0
 45 11  1  0
 21 16  1  0
 42 36  1  0
 32 18  1  0
  1 46  1  0
  1 47  1  0
  3 48  1  0
  3 49  1  0
  3 50  1  0
  4 51  1  0
  4 52  1  0
  5 53  1  6
  6 54  1  0
  7 55  1  0
  7 56  1  0
 10 57  1  0
 13 58  1  0
 17 59  1  0
 20 60  1  0
 23 61  1  0
 23 62  1  0
 24 63  1  1
 25 64  1  0
 26 65  1  0
 26 66  1  0
 28 67  1  0
 28 68  1  0
 29 69  1  0
 29 70  1  0
 29 71  1  0
 31 72  1  0
 31 73  1  0
 35 74  1  0
 37 75  1  0
 40 76  1  0
 41 77  1  0
 44 78  1  0
 44 79  1  0
M  END
$$$$
