
     RDKit          3D

 35 36  0  0  0  0  0  0  0  0999 V2000
   -5.8410   -0.1038    0.7029 C   0  0  0  0  0  0  0  0  0  0  0  0
   -5.2442    0.4487   -0.5648 C   0  0  0  0  0  0  0  0  0  0  0  0
   -5.9364    0.6451   -1.5614 O   0  0  0  0  0  0  0  0  0  0  0  0
   -3.7863    0.7699   -0.5984 C   0  0  0  0  0  0  0  0  0  0  0  0
   -3.2107    1.1306   -1.8250 C   0  0  0  0  0  0  0  0  0  0  0  0
   -1.8501    1.4388   -1.9062 C   0  0  0  0  0  0  0  0  0  0  0  0
   -1.0624    1.4029   -0.7568 C   0  0  0  0  0  0  0  0  0  0  0  0
    0.3350    1.6733   -0.8498 N   0  0  0  0  0  0  0  0  0  0  0  0
    1.3702    0.3231   -0.9745 S   0  0  0  0  0  6  0  0  0  0  0  0
    0.5788   -0.8807   -1.1077 O   0  0  0  0  0  0  0  0  0  0  0  0
    2.3435    0.7131   -1.9747 O   0  0  0  0  0  0  0  0  0  0  0  0
    2.1515    0.3660    0.6431 C   0  0  0  0  0  0  0  0  0  0  0  0
    3.1871   -0.7265    0.7259 C   0  0  0  0  0  0  0  0  0  0  0  0
    4.5220   -0.4702    0.3775 C   0  0  0  0  0  0  0  0  0  0  0  0
    5.4803   -1.4839    0.4505 C   0  0  0  0  0  0  0  0  0  0  0  0
    5.1097   -2.7596    0.8688 C   0  0  0  0  0  0  0  0  0  0  0  0
    6.2910   -4.0070    0.9599 Cl  0  0  0  0  0  0  0  0  0  0  0  0
    3.7875   -3.0315    1.2115 C   0  0  0  0  0  0  0  0  0  0  0  0
    2.8282   -2.0187    1.1393 C   0  0  0  0  0  0  0  0  0  0  0  0
   -1.6222    1.0355    0.4663 C   0  0  0  0  0  0  0  0  0  0  0  0
   -2.9841    0.7241    0.5487 C   0  0  0  0  0  0  0  0  0  0  0  0
   -6.8749   -0.4069    0.5104 H   0  0  0  0  0  0  0  0  0  0  0  0
   -5.8456    0.6629    1.4817 H   0  0  0  0  0  0  0  0  0  0  0  0
   -5.2904   -0.9896    1.0303 H   0  0  0  0  0  0  0  0  0  0  0  0
   -3.8188    1.1618   -2.7280 H   0  0  0  0  0  0  0  0  0  0  0  0
   -1.4202    1.6914   -2.8716 H   0  0  0  0  0  0  0  0  0  0  0  0
    0.5915    2.3295   -1.5921 H   0  0  0  0  0  0  0  0  0  0  0  0
    1.3784    0.2258    1.4040 H   0  0  0  0  0  0  0  0  0  0  0  0
    2.6084    1.3516    0.7756 H   0  0  0  0  0  0  0  0  0  0  0  0
    4.8262    0.5177    0.0354 H   0  0  0  0  0  0  0  0  0  0  0  0
    6.5101   -1.2734    0.1739 H   0  0  0  0  0  0  0  0  0  0  0  0
    3.4954   -4.0293    1.5283 H   0  0  0  0  0  0  0  0  0  0  0  0
    1.7961   -2.2523    1.3963 H   0  0  0  0  0  0  0  0  0  0  0  0
   -1.0119    0.9967    1.3634 H   0  0  0  0  0  0  0  0  0  0  0  0
   -3.3920    0.4513    1.5175 H   0  0  0  0  0  0  0  0  0  0  0  0
  1  2  1  0
  2  3  2  0
  2  4  1  0
  4  5  2  0
  5  6  1  0
  6  7  2  0
  7  8  1  0
  8  9  1  0
  9 10  2  0
  9 11  2  0
  9 12  1  0
 12 13  1  0
 13 14  2  0
 14 15  1  0
 15 16  2  0
 16 17  1  0
 16 18  1  0
 18 19  2  0
  7 20  1  0
 20 21  2  0
 21  4  1  0
 19 13  1  0
  1 22  1  0
  1 23  1  0
  1 24  1  0
  5 25  1  0
  6 26  1  0
  8 27  1  0
 12 28  1  0
 12 29  1  0
 14 30  1  0
 15 31  1  0
 18 32  1  0
 19 33  1  0
 20 34  1  0
 21 35  1  0
M  END
$$$$
