
     RDKit          3D

 97 99  0  0  0  0  0  0  0  0999 V2000
   -0.4654    1.6687    1.3404 C   0  0  0  0  0  0  0  0  0  0  0  0
   -0.7167    0.6561    0.4847 C   0  0  0  0  0  0  0  0  0  0  0  0
   -1.9478   -0.2225    0.7639 C   0  0  1  0  0  0  0  0  0  0  0  0
   -3.0295    0.4097    0.0184 O   0  0  0  0  0  0  0  0  0  0  0  0
   -4.2906    0.2303    0.4867 C   0  0  0  0  0  0  0  0  0  0  0  0
   -4.5788   -0.4297    1.4740 O   0  0  0  0  0  0  0  0  0  0  0  0
   -5.2874    0.9345   -0.4104 C   0  0  0  0  0  0  0  0  0  0  0  0
   -6.0430   -0.0996   -1.2339 C   0  0  0  0  0  0  0  0  0  0  0  0
   -6.2293    1.7902    0.4274 C   0  0  0  0  0  0  0  0  0  0  0  0
   -1.9822   -1.7615    0.5418 C   0  0  0  0  0  0  0  0  0  0  0  0
   -2.2684   -2.0162   -0.8574 O   0  0  0  0  0  0  0  0  0  0  0  0
   -2.7727   -3.2486   -1.1371 C   0  0  0  0  0  0  0  0  0  0  0  0
   -2.8628   -3.4440   -2.6197 C   0  0  0  0  0  0  0  0  0  0  0  0
   -3.0940   -4.0832   -0.3026 O   0  0  0  0  0  0  0  0  0  0  0  0
   -0.7302   -2.5563    0.9280 C   0  0  0  0  0  0  0  0  0  0  0  0
   -0.0947   -3.1551    0.0431 O   0  0  0  0  0  0  0  0  0  0  0  0
   -0.2564   -2.6717    2.3993 C   0  0  0  0  0  0  0  0  0  0  0  0
   -1.0296   -1.8628    3.4425 C   0  0  0  0  0  0  0  0  0  0  0  0
   -0.3884   -4.1580    2.7898 C   0  0  0  0  0  0  0  0  0  0  0  0
    1.2196   -2.2961    2.3026 C   0  0  0  0  0  0  0  0  0  0  0  0
    1.7493   -1.0653    2.4210 C   0  0  0  0  0  0  0  0  0  0  0  0
    3.1556   -0.7318    1.9813 C   0  0  2  0  0  0  0  0  0  0  0  0
    3.9693   -0.3791    3.2370 C   0  0  0  0  0  0  0  0  0  0  0  0
    3.2362    0.4281    0.9369 C   0  0  2  0  0  0  0  0  0  0  0  0
    2.6688    1.6209    1.5329 O   0  0  0  0  0  0  0  0  0  0  0  0
    3.3232    2.7831    1.2694 C   0  0  0  0  0  0  0  0  0  0  0  0
    4.2544    2.9126    0.4870 O   0  0  0  0  0  0  0  0  0  0  0  0
    2.7562    3.9012    2.0579 C   0  0  0  0  0  0  0  0  0  0  0  0
    2.0451    3.6841    3.2453 C   0  0  0  0  0  0  0  0  0  0  0  0
    1.5524    4.7690    3.9722 C   0  0  0  0  0  0  0  0  0  0  0  0
    1.7735    6.0694    3.5193 C   0  0  0  0  0  0  0  0  0  0  0  0
    2.4825    6.2901    2.3404 C   0  0  0  0  0  0  0  0  0  0  0  0
    2.9795    5.2089    1.6117 C   0  0  0  0  0  0  0  0  0  0  0  0
    2.7163    0.1817   -0.5309 C   0  0  1  0  0  0  0  0  0  0  0  0
    2.8322    1.4138   -1.2714 O   0  0  0  0  0  0  0  0  0  0  0  0
    3.6663   -0.8292   -1.2471 C   0  0  0  0  0  0  0  0  0  0  0  0
    2.7731   -1.9002   -1.8819 C   0  0  2  0  0  0  0  0  0  0  0  0
    3.3958   -2.5295   -3.1187 C   0  0  0  0  0  0  0  0  0  0  0  0
    1.4507   -1.1715   -2.1247 C   0  0  2  0  0  0  0  0  0  0  0  0
    1.5886   -0.2744   -3.2408 O   0  0  0  0  0  0  0  0  0  0  0  0
    0.9127   -0.5747   -4.3787 C   0  0  0  0  0  0  0  0  0  0  0  0
    1.2040    0.4484   -5.4324 C   0  0  0  0  0  0  0  0  0  0  0  0
    0.1843   -1.5429   -4.5518 O   0  0  0  0  0  0  0  0  0  0  0  0
    1.2795   -0.3837   -0.8008 C   0  0  2  0  0  0  0  0  0  0  0  0
    0.0750    0.5966   -0.8292 C   0  0  1  0  0  0  0  0  0  0  0  0
   -0.8604    0.2202   -1.8595 O   0  0  0  0  0  0  0  0  0  0  0  0
   -1.5034    1.2294   -2.5071 C   0  0  0  0  0  0  0  0  0  0  0  0
   -2.4987    0.6637   -3.4730 C   0  0  0  0  0  0  0  0  0  0  0  0
   -1.3184    2.4282   -2.3493 O   0  0  0  0  0  0  0  0  0  0  0  0
    0.2958    2.4090    1.1204 H   0  0  0  0  0  0  0  0  0  0  0  0
   -1.0488    1.8325    2.2409 H   0  0  0  0  0  0  0  0  0  0  0  0
   -2.1851   -0.0685    1.8228 H   0  0  0  0  0  0  0  0  0  0  0  0
   -4.7428    1.5999   -1.0918 H   0  0  0  0  0  0  0  0  0  0  0  0
   -5.3503   -0.7166   -1.8159 H   0  0  0  0  0  0  0  0  0  0  0  0
   -6.7303    0.3879   -1.9325 H   0  0  0  0  0  0  0  0  0  0  0  0
   -6.6259   -0.7726   -0.5950 H   0  0  0  0  0  0  0  0  0  0  0  0
   -6.8081    1.1841    1.1318 H   0  0  0  0  0  0  0  0  0  0  0  0
   -6.9299    2.3363   -0.2139 H   0  0  0  0  0  0  0  0  0  0  0  0
   -5.6642    2.5234    1.0126 H   0  0  0  0  0  0  0  0  0  0  0  0
   -2.8140   -2.1744    1.1232 H   0  0  0  0  0  0  0  0  0  0  0  0
   -3.4116   -2.6148   -3.0734 H   0  0  0  0  0  0  0  0  0  0  0  0
   -3.4086   -4.3688   -2.8297 H   0  0  0  0  0  0  0  0  0  0  0  0
   -1.8582   -3.5180   -3.0461 H   0  0  0  0  0  0  0  0  0  0  0  0
   -2.1018   -2.0868    3.4062 H   0  0  0  0  0  0  0  0  0  0  0  0
   -0.6822   -2.1028    4.4557 H   0  0  0  0  0  0  0  0  0  0  0  0
   -0.9121   -0.7841    3.3255 H   0  0  0  0  0  0  0  0  0  0  0  0
    0.0251   -4.3473    3.7870 H   0  0  0  0  0  0  0  0  0  0  0  0
   -1.4411   -4.4635    2.7930 H   0  0  0  0  0  0  0  0  0  0  0  0
    0.1327   -4.8177    2.0870 H   0  0  0  0  0  0  0  0  0  0  0  0
    1.8635   -3.0959    1.9263 H   0  0  0  0  0  0  0  0  0  0  0  0
    1.1496   -0.2227    2.7542 H   0  0  0  0  0  0  0  0  0  0  0  0
    3.6222   -1.6210    1.5404 H   0  0  0  0  0  0  0  0  0  0  0  0
    3.5649    0.4968    3.7568 H   0  0  0  0  0  0  0  0  0  0  0  0
    5.0110   -0.1664    2.9732 H   0  0  0  0  0  0  0  0  0  0  0  0
    3.9718   -1.2160    3.9459 H   0  0  0  0  0  0  0  0  0  0  0  0
    4.3161    0.6110    0.8293 H   0  0  0  0  0  0  0  0  0  0  0  0
    1.8731    2.6776    3.6174 H   0  0  0  0  0  0  0  0  0  0  0  0
    0.9989    4.6009    4.8938 H   0  0  0  0  0  0  0  0  0  0  0  0
    1.3924    6.9141    4.0883 H   0  0  0  0  0  0  0  0  0  0  0  0
    2.6564    7.3067    1.9926 H   0  0  0  0  0  0  0  0  0  0  0  0
    3.5338    5.3908    0.6933 H   0  0  0  0  0  0  0  0  0  0  0  0
    3.6707    1.8563   -1.0215 H   0  0  0  0  0  0  0  0  0  0  0  0
    4.3688   -1.3138   -0.5635 H   0  0  0  0  0  0  0  0  0  0  0  0
    4.2690   -0.3172   -2.0078 H   0  0  0  0  0  0  0  0  0  0  0  0
    2.6059   -2.6898   -1.1385 H   0  0  0  0  0  0  0  0  0  0  0  0
    3.6615   -1.7779   -3.8695 H   0  0  0  0  0  0  0  0  0  0  0  0
    4.3126   -3.0674   -2.8540 H   0  0  0  0  0  0  0  0  0  0  0  0
    2.7042   -3.2436   -3.5797 H   0  0  0  0  0  0  0  0  0  0  0  0
    0.6307   -1.8849   -2.2686 H   0  0  0  0  0  0  0  0  0  0  0  0
    1.2267    1.4496   -4.9930 H   0  0  0  0  0  0  0  0  0  0  0  0
    0.4060    0.4313   -6.1818 H   0  0  0  0  0  0  0  0  0  0  0  0
    2.1594    0.2173   -5.9111 H   0  0  0  0  0  0  0  0  0  0  0  0
    1.0971   -1.1288   -0.0398 H   0  0  0  0  0  0  0  0  0  0  0  0
    0.4616    1.5955   -1.0610 H   0  0  0  0  0  0  0  0  0  0  0  0
   -3.1830    1.4575   -3.7887 H   0  0  0  0  0  0  0  0  0  0  0  0
   -3.0927   -0.1138   -2.9880 H   0  0  0  0  0  0  0  0  0  0  0  0
   -1.9862    0.2648   -4.3492 H   0  0  0  0  0  0  0  0  0  0  0  0
  1  2  2  0
  2  3  1  0
  3  4  1  0
  4  5  1  0
  5  6  2  0
  5  7  1  0
  7  8  1  0
  7  9  1  0
  3 10  1  0
 10 11  1  0
 11 12  1  0
 12 13  1  0
 12 14  2  0
 10 15  1  0
 15 16  2  0
 15 17  1  0
 17 18  1  0
 17 19  1  0
 17 20  1  0
 20 21  2  0
 21 22  1  0
 22 23  1  0
 22 24  1  0
 24 25  1  0
 25 26  1  0
 26 27  2  0
 26 28  1  0
 28 29  2  0
 29 30  1  0
 30 31  2  0
 31 32  1  0
 32 33  2  0
 24 34  1  0
 34 35  1  6
 34 36  1  0
 36 37  1  0
 37 38  1  0
 37 39  1  0
 39 40  1  0
 40 41  1  0
 41 42  1  0
 41 43  2  0
 39 44  1  0
 44 45  1  0
 45 46  1  0
 46 47  1  0
 47 48  1  0
 47 49  2  0
 45  2  1  0
 33 28  1  0
 44 34  1  0
  1 50  1  0
  1 51  1  0
  3 52  1  1
  7 53  1  0
  8 54  1  0
  8 55  1  0
  8 56  1  0
  9 57  1  0
  9 58  1  0
  9 59  1  0
 10 60  1  0
 13 61  1  0
 13 62  1  0
 13 63  1  0
 18 64  1  0
 18 65  1  0
 18 66  1  0
 19 67  1  0
 19 68  1  0
 19 69  1  0
 20 70  1  0
 21 71  1  0
 22 72  1  6
 23 73  1  0
 23 74  1  0
 23 75  1  0
 24 76  1  6
 29 77  1  0
 30 78  1  0
 31 79  1  0
 32 80  1  0
 33 81  1  0
 35 82  1  0
 36 83  1  0
 36 84  1  0
 37 85  1  1
 38 86  1  0
 38 87  1  0
 38 88  1  0
 39 89  1  6
 42 90  1  0
 42 91  1  0
 42 92  1  0
 44 93  1  1
 45 94  1  6
 48 95  1  0
 48 96  1  0
 48 97  1  0
M  END
$$$$
