
     RDKit          3D

 55 58  0  0  0  0  0  0  0  0999 V2000
    7.4564   -1.9316    0.5142 O   0  0  0  0  0  0  0  0  0  0  0  0
    6.4482   -1.8575   -0.4931 C   0  0  0  0  0  0  0  0  0  0  0  0
    5.0601   -2.0409    0.1416 C   0  0  0  0  0  0  0  0  0  0  0  0
    4.8755   -1.1811    1.3368 N   0  0  0  0  0  0  0  0  0  0  0  0
    3.6267   -1.5505    2.0489 C   0  0  0  0  0  0  0  0  0  0  0  0
    2.3337   -0.7856    1.6422 C   0  0  0  0  0  0  0  0  0  0  0  0
    2.3935   -0.2322    0.2804 N   0  0  0  0  0  0  0  0  0  0  0  0
    1.1569    0.4561   -0.1243 C   0  0  0  0  0  0  0  0  0  0  0  0
   -0.0280   -0.5030   -0.3522 C   0  0  0  0  0  0  0  0  0  0  0  0
   -1.2224    0.2308   -0.9160 C   0  0  0  0  0  0  0  0  0  0  0  0
   -2.4858    0.3067   -0.4370 C   0  0  0  0  0  0  0  0  0  0  0  0
   -2.9221   -0.3812    0.8059 C   0  0  0  0  0  0  0  0  0  0  0  0
   -2.7173   -1.7544    1.0073 C   0  0  0  0  0  0  0  0  0  0  0  0
   -3.1540   -2.3746    2.1795 C   0  0  0  0  0  0  0  0  0  0  0  0
   -3.8208   -1.6348    3.1527 C   0  0  0  0  0  0  0  0  0  0  0  0
   -4.0724   -0.2781    2.9459 C   0  0  0  0  0  0  0  0  0  0  0  0
   -3.6446    0.3496    1.7689 C   0  0  0  0  0  0  0  0  0  0  0  0
   -4.0729    2.0738    1.5206 S   0  0  0  0  0  0  0  0  0  0  0  0
   -4.1745    2.1337   -0.2699 C   0  0  0  0  0  0  0  0  0  0  0  0
   -5.0443    3.0612   -0.8551 C   0  0  0  0  0  0  0  0  0  0  0  0
   -5.1730    3.1318   -2.2443 C   0  0  0  0  0  0  0  0  0  0  0  0
   -4.4323    2.2771   -3.0724 C   0  0  0  0  0  0  0  0  0  0  0  0
   -4.5954    2.3232   -4.5721 C   0  0  0  0  0  0  0  0  0  0  0  0
   -5.5216    1.4322   -5.0195 F   0  0  0  0  0  0  0  0  0  0  0  0
   -4.9943    3.5421   -5.0310 F   0  0  0  0  0  0  0  0  0  0  0  0
   -3.4436    2.0347   -5.2401 F   0  0  0  0  0  0  0  0  0  0  0  0
   -3.5606    1.3465   -2.4822 C   0  0  0  0  0  0  0  0  0  0  0  0
   -3.4075    1.2811   -1.0872 C   0  0  0  0  0  0  0  0  0  0  0  0
    3.5551    0.6762    0.1613 C   0  0  0  0  0  0  0  0  0  0  0  0
    4.7976    0.2529    0.9896 C   0  0  0  0  0  0  0  0  0  0  0  0
    7.0239   -1.5824    1.3209 H   0  0  0  0  0  0  0  0  0  0  0  0
    6.5370   -0.8923   -1.0001 H   0  0  0  0  0  0  0  0  0  0  0  0
    6.6399   -2.6450   -1.2282 H   0  0  0  0  0  0  0  0  0  0  0  0
    4.2820   -1.9043   -0.6164 H   0  0  0  0  0  0  0  0  0  0  0  0
    5.0103   -3.0868    0.4716 H   0  0  0  0  0  0  0  0  0  0  0  0
    3.7949   -1.3675    3.1182 H   0  0  0  0  0  0  0  0  0  0  0  0
    3.4488   -2.6307    1.9695 H   0  0  0  0  0  0  0  0  0  0  0  0
    2.1617    0.0255    2.3628 H   0  0  0  0  0  0  0  0  0  0  0  0
    1.4989   -1.4869    1.7433 H   0  0  0  0  0  0  0  0  0  0  0  0
    0.8816    1.2240    0.6112 H   0  0  0  0  0  0  0  0  0  0  0  0
    1.3468    0.9804   -1.0710 H   0  0  0  0  0  0  0  0  0  0  0  0
    0.2617   -1.2832   -1.0665 H   0  0  0  0  0  0  0  0  0  0  0  0
   -0.2694   -0.9976    0.5892 H   0  0  0  0  0  0  0  0  0  0  0  0
   -0.9681    0.8100   -1.8046 H   0  0  0  0  0  0  0  0  0  0  0  0
   -2.2208   -2.3541    0.2478 H   0  0  0  0  0  0  0  0  0  0  0  0
   -2.9794   -3.4374    2.3285 H   0  0  0  0  0  0  0  0  0  0  0  0
   -4.1626   -2.1174    4.0650 H   0  0  0  0  0  0  0  0  0  0  0  0
   -4.6193    0.2813    3.7014 H   0  0  0  0  0  0  0  0  0  0  0  0
   -5.6356    3.7296   -0.2324 H   0  0  0  0  0  0  0  0  0  0  0  0
   -5.8621    3.8557   -2.6779 H   0  0  0  0  0  0  0  0  0  0  0  0
   -3.0035    0.6615   -3.1210 H   0  0  0  0  0  0  0  0  0  0  0  0
    3.8380    0.7153   -0.8976 H   0  0  0  0  0  0  0  0  0  0  0  0
    3.2875    1.6969    0.4652 H   0  0  0  0  0  0  0  0  0  0  0  0
    4.7810    0.8117    1.9359 H   0  0  0  0  0  0  0  0  0  0  0  0
    5.7105    0.5895    0.4859 H   0  0  0  0  0  0  0  0  0  0  0  0
  1  2  1  0
  2  3  1  0
  3  4  1  0
  4  5  1  0
  5  6  1  0
  6  7  1  0
  7  8  1  0
  8  9  1  0
  9 10  1  0
 10 11  2  3
 11 12  1  0
 12 13  2  0
 13 14  1  0
 14 15  2  0
 15 16  1  0
 16 17  2  0
 17 18  1  0
 18 19  1  0
 19 20  2  0
 20 21  1  0
 21 22  2  0
 22 23  1  0
 23 24  1  0
 23 25  1  0
 23 26  1  0
 22 27  1  0
 27 28  2  0
  7 29  1  0
 29 30  1  0
 30  4  1  0
 28 11  1  0
 17 12  1  0
 28 19  1  0
  1 31  1  0
  2 32  1  0
  2 33  1  0
  3 34  1  0
  3 35  1  0
  5 36  1  0
  5 37  1  0
  6 38  1  0
  6 39  1  0
  8 40  1  0
  8 41  1  0
  9 42  1  0
  9 43  1  0
 10 44  1  0
 13 45  1  0
 14 46  1  0
 15 47  1  0
 16 48  1  0
 20 49  1  0
 21 50  1  0
 27 51  1  0
 29 52  1  0
 29 53  1  0
 30 54  1  0
 30 55  1  0
M  END
$$$$
