
     RDKit          3D

 34 35  0  0  0  0  0  0  0  0999 V2000
    1.8482    0.6355   -1.4901 C   0  0  0  0  0  0  0  0  0  0  0  0
    2.0766    0.7021    0.0092 C   0  0  0  0  0  0  0  0  0  0  0  0
    1.1286    0.8107    0.8936 N   0  0  0  0  0  0  0  0  0  0  0  0
   -0.1768    0.8033    0.5083 N   0  0  0  0  0  0  0  0  0  0  0  0
   -1.1772    0.9139    1.4643 C   0  0  0  0  0  0  0  0  0  0  0  0
   -1.0051    1.1508    2.6572 O   0  0  0  0  0  0  0  0  0  0  0  0
   -2.5677    0.7724    0.8872 C   0  0  0  0  0  0  0  0  0  0  0  0
   -2.7832   -0.5462    0.1494 C   0  0  0  0  0  0  0  0  0  0  0  0
   -2.5123   -1.7704    1.0205 C   0  0  0  0  0  0  0  0  0  0  0  0
   -4.1600   -0.6111   -0.2792 O   0  0  0  0  0  0  0  0  0  0  0  0
   -4.1211   -0.4882   -1.6998 C   0  0  0  0  0  0  0  0  0  0  0  0
   -2.7864   -1.0812   -2.0595 C   0  0  0  0  0  0  0  0  0  0  0  0
   -1.9346   -0.5855   -1.0222 O   0  0  0  0  0  0  0  0  0  0  0  0
    3.4688    0.6281    0.4626 C   0  0  0  0  0  0  0  0  0  0  0  0
    4.6263    0.4899   -0.2886 C   0  0  0  0  0  0  0  0  0  0  0  0
    5.8076    0.4596    0.5122 C   0  0  0  0  0  0  0  0  0  0  0  0
    5.5218    0.5625    1.8545 C   0  0  0  0  0  0  0  0  0  0  0  0
    3.8448    0.7036    2.1408 S   0  0  0  0  0  0  0  0  0  0  0  0
    2.5334    1.3203   -2.0028 H   0  0  0  0  0  0  0  0  0  0  0  0
    0.8392    0.9238   -1.7868 H   0  0  0  0  0  0  0  0  0  0  0  0
    2.0383   -0.3835   -1.8395 H   0  0  0  0  0  0  0  0  0  0  0  0
   -0.4355    0.4263   -0.4015 H   0  0  0  0  0  0  0  0  0  0  0  0
   -3.2959    0.8703    1.6994 H   0  0  0  0  0  0  0  0  0  0  0  0
   -2.7362    1.6210    0.2125 H   0  0  0  0  0  0  0  0  0  0  0  0
   -2.8182   -2.6887    0.5030 H   0  0  0  0  0  0  0  0  0  0  0  0
   -1.4486   -1.8764    1.2631 H   0  0  0  0  0  0  0  0  0  0  0  0
   -3.0909   -1.7243    1.9495 H   0  0  0  0  0  0  0  0  0  0  0  0
   -4.1705    0.5762   -1.9522 H   0  0  0  0  0  0  0  0  0  0  0  0
   -4.9644   -1.0110   -2.1575 H   0  0  0  0  0  0  0  0  0  0  0  0
   -2.4198   -0.7734   -3.0427 H   0  0  0  0  0  0  0  0  0  0  0  0
   -2.8008   -2.1751   -1.9987 H   0  0  0  0  0  0  0  0  0  0  0  0
    4.6418    0.4149   -1.3702 H   0  0  0  0  0  0  0  0  0  0  0  0
    6.8135    0.3651    0.1234 H   0  0  0  0  0  0  0  0  0  0  0  0
    6.2163    0.5648    2.6858 H   0  0  0  0  0  0  0  0  0  0  0  0
  1  2  1  0
  2  3  2  3
  3  4  1  0
  4  5  1  0
  5  6  2  0
  5  7  1  0
  7  8  1  0
  8  9  1  0
  8 10  1  0
 10 11  1  0
 11 12  1  0
 12 13  1  0
  2 14  1  0
 14 15  2  0
 15 16  1  0
 16 17  2  0
 17 18  1  0
 13  8  1  0
 18 14  1  0
  1 19  1  0
  1 20  1  0
  1 21  1  0
  4 22  1  0
  7 23  1  0
  7 24  1  0
  9 25  1  0
  9 26  1  0
  9 27  1  0
 11 28  1  0
 11 29  1  0
 12 30  1  0
 12 31  1  0
 15 32  1  0
 16 33  1  0
 17 34  1  0
M  END
$$$$
