
     RDKit          3D

 60 65  0  0  0  0  0  0  0  0999 V2000
    0.2919   -0.8511    3.2814 O   0  0  0  0  0  0  0  0  0  0  0  0
    1.0610   -0.4926    2.3983 C   0  0  0  0  0  0  0  0  0  0  0  0
    0.7263   -0.5345    1.0474 N   0  0  0  0  0  0  0  0  0  0  0  0
    1.5636   -0.1193    0.0189 C   0  0  0  0  0  0  0  0  0  0  0  0
    1.0342   -0.1917   -1.4125 C   0  0  0  0  0  0  0  0  0  0  0  0
    0.0571    0.9562   -1.7005 C   0  0  0  0  0  0  0  0  0  0  0  0
   -1.3739    0.6563   -1.2740 C   0  0  0  0  0  0  0  0  0  0  0  0
   -1.8381   -0.6919   -1.7073 N   0  0  0  0  0  0  0  0  0  0  0  0
   -2.6679   -1.6100   -0.5287 S   0  0  0  0  0  6  0  0  0  0  0  0
   -1.7681   -1.6677    0.6078 O   0  0  0  0  0  0  0  0  0  0  0  0
   -3.1827   -2.8090   -1.1468 O   0  0  0  0  0  0  0  0  0  0  0  0
   -4.0456   -0.5764   -0.1212 C   0  0  0  0  0  0  0  0  0  0  0  0
   -4.2203   -0.1203    1.1894 C   0  0  0  0  0  0  0  0  0  0  0  0
   -5.2986    0.7157    1.4843 C   0  0  0  0  0  0  0  0  0  0  0  0
   -6.1866    1.0883    0.4753 C   0  0  0  0  0  0  0  0  0  0  0  0
   -6.0197    0.6003   -0.8268 C   0  0  0  0  0  0  0  0  0  0  0  0
   -4.9421   -0.2246   -1.1335 C   0  0  0  0  0  0  0  0  0  0  0  0
   -6.8720    0.9036   -1.8558 O   0  0  0  0  0  0  0  0  0  0  0  0
   -8.1071    1.4422   -1.3685 C   0  0  0  0  0  0  0  0  0  0  0  0
   -7.8459    2.5032   -0.3118 C   0  0  0  0  0  0  0  0  0  0  0  0
   -7.2080    1.9300    0.8358 O   0  0  0  0  0  0  0  0  0  0  0  0
   -0.8601   -1.4618   -2.5149 C   0  0  0  0  0  0  0  0  0  0  0  0
    0.4754   -1.5681   -1.7922 C   0  0  0  0  0  0  0  0  0  0  0  0
    2.7590    0.3740    0.2081 N   0  0  0  0  0  0  0  0  0  0  0  0
    3.1174    0.4083    1.5134 C   0  0  0  0  0  0  0  0  0  0  0  0
    2.3851    0.0260    2.6100 C   0  0  0  0  0  0  0  0  0  0  0  0
    3.0974    0.2209    3.7540 N   0  0  0  0  0  0  0  0  0  0  0  0
    4.2827    0.7204    3.4031 N   0  0  0  0  0  0  0  0  0  0  0  0
    4.3036    0.8175    2.0498 N   0  0  0  0  0  0  0  0  0  0  0  0
    5.4632    1.3403    1.3585 C   0  0  0  0  0  0  0  0  0  0  0  0
    6.3239    0.2303    0.8090 C   0  0  0  0  0  0  0  0  0  0  0  0
    7.2449   -0.4375    1.6333 C   0  0  0  0  0  0  0  0  0  0  0  0
    8.0247   -1.4831    1.1302 C   0  0  0  0  0  0  0  0  0  0  0  0
    7.8902   -1.8737   -0.2013 C   0  0  0  0  0  0  0  0  0  0  0  0
    6.9760   -1.2179   -1.0162 C   0  0  0  0  0  0  0  0  0  0  0  0
    6.8379   -1.5985   -2.2940 F   0  0  0  0  0  0  0  0  0  0  0  0
    6.1938   -0.1768   -0.5262 C   0  0  0  0  0  0  0  0  0  0  0  0
   -0.1821   -0.9614    0.8703 H   0  0  0  0  0  0  0  0  0  0  0  0
    1.9100   -0.0147   -2.0544 H   0  0  0  0  0  0  0  0  0  0  0  0
    0.3920    1.8828   -1.2189 H   0  0  0  0  0  0  0  0  0  0  0  0
    0.0657    1.1581   -2.7807 H   0  0  0  0  0  0  0  0  0  0  0  0
   -1.4473    0.7689   -0.1873 H   0  0  0  0  0  0  0  0  0  0  0  0
   -2.0488    1.4024   -1.7100 H   0  0  0  0  0  0  0  0  0  0  0  0
   -3.5308   -0.4049    1.9810 H   0  0  0  0  0  0  0  0  0  0  0  0
   -5.4436    1.0823    2.4977 H   0  0  0  0  0  0  0  0  0  0  0  0
   -4.8120   -0.5962   -2.1465 H   0  0  0  0  0  0  0  0  0  0  0  0
   -8.7149    0.6195   -0.9723 H   0  0  0  0  0  0  0  0  0  0  0  0
   -8.6370    1.8783   -2.2218 H   0  0  0  0  0  0  0  0  0  0  0  0
   -7.2069    3.3065   -0.6986 H   0  0  0  0  0  0  0  0  0  0  0  0
   -8.7899    2.9471    0.0206 H   0  0  0  0  0  0  0  0  0  0  0  0
   -1.2456   -2.4599   -2.7486 H   0  0  0  0  0  0  0  0  0  0  0  0
   -0.7397   -0.9627   -3.4841 H   0  0  0  0  0  0  0  0  0  0  0  0
    0.3813   -2.2262   -0.9228 H   0  0  0  0  0  0  0  0  0  0  0  0
    1.1903   -2.0722   -2.4540 H   0  0  0  0  0  0  0  0  0  0  0  0
    5.1093    2.0024    0.5593 H   0  0  0  0  0  0  0  0  0  0  0  0
    6.0338    1.9610    2.0592 H   0  0  0  0  0  0  0  0  0  0  0  0
    7.3519   -0.1531    2.6795 H   0  0  0  0  0  0  0  0  0  0  0  0
    8.7279   -1.9965    1.7807 H   0  0  0  0  0  0  0  0  0  0  0  0
    8.4848   -2.6863   -0.6057 H   0  0  0  0  0  0  0  0  0  0  0  0
    5.4791    0.2978   -1.1928 H   0  0  0  0  0  0  0  0  0  0  0  0
  1  2  2  0
  2  3  1  0
  3  4  1  0
  4  5  1  0
  5  6  1  0
  6  7  1  0
  7  8  1  0
  8  9  1  0
  9 10  2  0
  9 11  2  0
  9 12  1  0
 12 13  2  0
 13 14  1  0
 14 15  2  0
 15 16  1  0
 16 17  2  0
 16 18  1  0
 18 19  1  0
 19 20  1  0
 20 21  1  0
  8 22  1  0
 22 23  1  0
  4 24  2  0
 24 25  1  0
 25 26  2  0
 26 27  1  0
 27 28  2  0
 28 29  1  0
 29 30  1  0
 30 31  1  0
 31 32  2  0
 32 33  1  0
 33 34  2  0
 34 35  1  0
 35 36  1  0
 35 37  2  0
 26  2  1  0
 37 31  1  0
 23  5  1  0
 29 25  1  0
 17 12  1  0
 21 15  1  0
  3 38  1  0
  5 39  1  0
  6 40  1  0
  6 41  1  0
  7 42  1  0
  7 43  1  0
 13 44  1  0
 14 45  1  0
 17 46  1  0
 19 47  1  0
 19 48  1  0
 20 49  1  0
 20 50  1  0
 22 51  1  0
 22 52  1  0
 23 53  1  0
 23 54  1  0
 30 55  1  0
 30 56  1  0
 32 57  1  0
 33 58  1  0
 34 59  1  0
 37 60  1  0
M  END
$$$$
