
     RDKit          3D

 33 34  0  0  0  0  0  0  0  0999 V2000
   -1.3865   -0.8028   -1.1687 N   0  0  0  0  0  0  0  0  0  0  0  0
   -1.6413   -0.0525   -0.1357 C   0  0  0  0  0  0  0  0  0  0  0  0
   -0.6388    0.6676    0.4720 N   0  0  0  0  0  0  0  0  0  0  0  0
    0.6292    0.0774    0.3182 O   0  0  0  0  0  0  0  0  0  0  0  0
    1.4814    0.4090    1.3386 C   0  0  0  0  0  0  0  0  0  0  0  0
    1.1592    1.1005    2.3007 O   0  0  0  0  0  0  0  0  0  0  0  0
    2.8273   -0.2547    1.1829 C   0  0  0  0  0  0  0  0  0  0  0  0
    3.3735   -0.2239   -0.2237 C   0  0  0  0  0  0  0  0  0  0  0  0
    3.2591   -1.3446   -1.0582 C   0  0  0  0  0  0  0  0  0  0  0  0
    3.7414   -1.3020   -2.3670 C   0  0  0  0  0  0  0  0  0  0  0  0
    4.3396   -0.1414   -2.8537 C   0  0  0  0  0  0  0  0  0  0  0  0
    4.4555    0.9789   -2.0332 C   0  0  0  0  0  0  0  0  0  0  0  0
    3.9733    0.9404   -0.7243 C   0  0  0  0  0  0  0  0  0  0  0  0
   -3.0613    0.0417    0.3377 C   0  0  0  0  0  0  0  0  0  0  0  0
   -4.0670   -0.1624   -0.6250 C   0  0  0  0  0  0  0  0  0  0  0  0
   -5.4185   -0.0767   -0.2841 C   0  0  0  0  0  0  0  0  0  0  0  0
   -5.7854    0.2104    1.0262 C   0  0  0  0  0  0  0  0  0  0  0  0
   -4.8006    0.4038    1.9949 C   0  0  0  0  0  0  0  0  0  0  0  0
   -3.4418    0.3178    1.6587 C   0  0  0  0  0  0  0  0  0  0  0  0
   -2.3170    0.5199    2.9555 Cl  0  0  0  0  0  0  0  0  0  0  0  0
   -0.3794   -0.7079   -1.3531 H   0  0  0  0  0  0  0  0  0  0  0  0
   -0.8085    1.0002    1.4264 H   0  0  0  0  0  0  0  0  0  0  0  0
    3.5389    0.2514    1.8468 H   0  0  0  0  0  0  0  0  0  0  0  0
    2.7405   -1.2865    1.5427 H   0  0  0  0  0  0  0  0  0  0  0  0
    2.7895   -2.2583   -0.6994 H   0  0  0  0  0  0  0  0  0  0  0  0
    3.6476   -2.1741   -3.0092 H   0  0  0  0  0  0  0  0  0  0  0  0
    4.7133   -0.1093   -3.8739 H   0  0  0  0  0  0  0  0  0  0  0  0
    4.9199    1.8848   -2.4148 H   0  0  0  0  0  0  0  0  0  0  0  0
    4.0694    1.8265   -0.1000 H   0  0  0  0  0  0  0  0  0  0  0  0
   -3.7958   -0.3871   -1.6558 H   0  0  0  0  0  0  0  0  0  0  0  0
   -6.1796   -0.2365   -1.0443 H   0  0  0  0  0  0  0  0  0  0  0  0
   -6.8367    0.2760    1.2960 H   0  0  0  0  0  0  0  0  0  0  0  0
   -5.1005    0.6142    3.0193 H   0  0  0  0  0  0  0  0  0  0  0  0
  1  2  2  3
  2  3  1  0
  3  4  1  0
  4  5  1  0
  5  6  2  0
  5  7  1  0
  7  8  1  0
  8  9  2  0
  9 10  1  0
 10 11  2  0
 11 12  1  0
 12 13  2  0
  2 14  1  0
 14 15  2  0
 15 16  1  0
 16 17  2  0
 17 18  1  0
 18 19  2  0
 19 20  1  0
 13  8  1  0
 19 14  1  0
  1 21  1  0
  3 22  1  0
  7 23  1  0
  7 24  1  0
  9 25  1  0
 10 26  1  0
 11 27  1  0
 12 28  1  0
 13 29  1  0
 15 30  1  0
 16 31  1  0
 17 32  1  0
 18 33  1  0
M  END
$$$$
