
     RDKit          3D

 44 46  0  0  0  0  0  0  0  0999 V2000
    7.8591    4.4997    1.6815 C   0  0  0  0  0  0  0  0  0  0  0  0
    6.7133    4.3161    2.5034 O   0  0  0  0  0  0  0  0  0  0  0  0
    5.6772    3.6019    1.9705 C   0  0  0  0  0  0  0  0  0  0  0  0
    5.6366    3.0365    0.6980 C   0  0  0  0  0  0  0  0  0  0  0  0
    4.5036    2.3252    0.2773 C   0  0  0  0  0  0  0  0  0  0  0  0
    3.3919    2.1654    1.1179 C   0  0  0  0  0  0  0  0  0  0  0  0
    2.2208    1.4221    0.6647 C   0  0  0  0  0  0  0  0  0  0  0  0
    1.8761    0.7628   -0.4917 C   0  0  0  0  0  0  0  0  0  0  0  0
    0.5740    0.2558   -0.2540 C   0  0  0  0  0  0  0  0  0  0  0  0
   -0.2587   -0.5298   -1.1731 C   0  0  0  0  0  0  0  0  0  0  0  0
    0.1448   -0.8233   -2.2929 O   0  0  0  0  0  0  0  0  0  0  0  0
   -1.4832   -0.8668   -0.6249 N   0  0  0  0  0  0  0  0  0  0  0  0
   -2.5290   -1.6070   -1.2067 C   0  0  0  0  0  0  0  0  0  0  0  0
   -2.4805   -2.1388   -2.4931 C   0  0  0  0  0  0  0  0  0  0  0  0
   -3.5628   -2.8653   -3.0030 C   0  0  0  0  0  0  0  0  0  0  0  0
   -4.7093   -3.0694   -2.2315 C   0  0  0  0  0  0  0  0  0  0  0  0
   -5.8142   -3.7673   -2.6506 O   0  0  0  0  0  0  0  0  0  0  0  0
   -5.7871   -4.3192   -3.9589 C   0  0  0  0  0  0  0  0  0  0  0  0
   -4.7679   -2.5358   -0.9302 C   0  0  0  0  0  0  0  0  0  0  0  0
   -5.9264   -2.7774   -0.2328 O   0  0  0  0  0  0  0  0  0  0  0  0
   -6.0297   -2.2570    1.0842 C   0  0  0  0  0  0  0  0  0  0  0  0
   -3.6781   -1.8100   -0.4298 C   0  0  0  0  0  0  0  0  0  0  0  0
    0.1516    0.5890    0.9786 N   0  0  0  0  0  0  0  0  0  0  0  0
    1.1832    1.3156    1.5450 O   0  0  0  0  0  0  0  0  0  0  0  0
    3.4463    2.7393    2.3951 C   0  0  0  0  0  0  0  0  0  0  0  0
    4.5771    3.4489    2.8143 C   0  0  0  0  0  0  0  0  0  0  0  0
    8.5881    5.0851    2.2500 H   0  0  0  0  0  0  0  0  0  0  0  0
    7.6099    5.0652    0.7775 H   0  0  0  0  0  0  0  0  0  0  0  0
    8.3241    3.5400    1.4325 H   0  0  0  0  0  0  0  0  0  0  0  0
    6.4666    3.1279    0.0052 H   0  0  0  0  0  0  0  0  0  0  0  0
    4.5091    1.8982   -0.7231 H   0  0  0  0  0  0  0  0  0  0  0  0
    2.4630    0.6502   -1.3910 H   0  0  0  0  0  0  0  0  0  0  0  0
   -1.6236   -0.5244    0.3220 H   0  0  0  0  0  0  0  0  0  0  0  0
   -1.6142   -2.0098   -3.1344 H   0  0  0  0  0  0  0  0  0  0  0  0
   -3.4732   -3.2577   -4.0105 H   0  0  0  0  0  0  0  0  0  0  0  0
   -6.7377   -4.8356   -4.1238 H   0  0  0  0  0  0  0  0  0  0  0  0
   -4.9860   -5.0589   -4.0594 H   0  0  0  0  0  0  0  0  0  0  0  0
   -5.6999   -3.5343   -4.7173 H   0  0  0  0  0  0  0  0  0  0  0  0
   -7.0083   -2.5434    1.4814 H   0  0  0  0  0  0  0  0  0  0  0  0
   -5.2662   -2.6878    1.7403 H   0  0  0  0  0  0  0  0  0  0  0  0
   -5.9797   -1.1632    1.0819 H   0  0  0  0  0  0  0  0  0  0  0  0
   -3.7098   -1.3935    0.5709 H   0  0  0  0  0  0  0  0  0  0  0  0
    2.6111    2.6447    3.0860 H   0  0  0  0  0  0  0  0  0  0  0  0
    4.5977    3.8861    3.8100 H   0  0  0  0  0  0  0  0  0  0  0  0
  1  2  1  0
  2  3  1  0
  3  4  2  0
  4  5  1  0
  5  6  2  0
  6  7  1  0
  7  8  2  0
  8  9  1  0
  9 10  1  0
 10 11  2  0
 10 12  1  0
 12 13  1  0
 13 14  2  0
 14 15  1  0
 15 16  2  0
 16 17  1  0
 17 18  1  0
 16 19  1  0
 19 20  1  0
 20 21  1  0
 19 22  2  0
  9 23  2  0
 23 24  1  0
  6 25  1  0
 25 26  2  0
 26  3  1  0
 24  7  1  0
 22 13  1  0
  1 27  1  0
  1 28  1  0
  1 29  1  0
  4 30  1  0
  5 31  1  0
  8 32  1  0
 12 33  1  0
 14 34  1  0
 15 35  1  0
 18 36  1  0
 18 37  1  0
 18 38  1  0
 21 39  1  0
 21 40  1  0
 21 41  1  0
 22 42  1  0
 25 43  1  0
 26 44  1  0
M  END
$$$$
