
     RDKit          3D

 42 44  0  0  0  0  0  0  0  0999 V2000
   -5.9066    2.6267   -0.7127 C   0  0  0  0  0  0  0  0  0  0  0  0
   -4.9023    1.8262   -1.3260 O   0  0  0  0  0  0  0  0  0  0  0  0
   -4.1068    1.0871   -0.4929 C   0  0  0  0  0  0  0  0  0  0  0  0
   -4.1986    1.0413    0.8948 C   0  0  0  0  0  0  0  0  0  0  0  0
   -3.3179    0.2383    1.6164 C   0  0  0  0  0  0  0  0  0  0  0  0
   -3.4988    0.2154    2.9765 O   0  0  0  0  0  0  0  0  0  0  0  0
   -2.3131   -0.5001    0.9704 C   0  0  0  0  0  0  0  0  0  0  0  0
   -1.3844   -1.2854    1.8174 C   0  0  0  0  0  0  0  0  0  0  0  0
   -1.8350   -1.8596    2.8100 O   0  0  0  0  0  0  0  0  0  0  0  0
    0.0781   -1.3238    1.5613 C   0  0  0  0  0  0  0  0  0  0  0  0
    0.7684   -0.3233    0.9921 C   0  0  0  0  0  0  0  0  0  0  0  0
    2.2076   -0.3450    0.7605 C   0  0  0  0  0  0  0  0  0  0  0  0
    2.7123    0.4615   -0.2073 C   0  0  0  0  0  0  0  0  0  0  0  0
    4.1961    0.5376   -0.3655 C   0  0  2  0  0  0  0  0  0  0  0  0
    4.7184    0.8603   -1.6468 O   0  0  0  0  0  0  0  0  0  0  0  0
    6.0732    0.3546   -1.5343 C   0  0  0  0  0  0  0  0  0  0  0  0
    6.1813   -0.5480   -0.4046 O   0  0  0  0  0  0  0  0  0  0  0  0
    4.8149   -0.8307   -0.1438 C   0  0  1  0  0  0  0  0  0  0  0  0
    4.4378   -1.3185    1.2133 C   0  0  0  0  0  0  0  0  0  0  0  0
    3.1726   -1.0771    1.6175 C   0  0  0  0  0  0  0  0  0  0  0  0
   -2.2448   -0.4938   -0.4333 C   0  0  0  0  0  0  0  0  0  0  0  0
   -1.3191   -1.3159   -1.0195 O   0  0  0  0  0  0  0  0  0  0  0  0
   -1.1958   -1.2783   -2.4363 C   0  0  0  0  0  0  0  0  0  0  0  0
   -3.1398    0.3132   -1.1488 C   0  0  0  0  0  0  0  0  0  0  0  0
   -5.4629    3.3804   -0.0538 H   0  0  0  0  0  0  0  0  0  0  0  0
   -6.4444    3.1536   -1.5068 H   0  0  0  0  0  0  0  0  0  0  0  0
   -6.6310    2.0064   -0.1747 H   0  0  0  0  0  0  0  0  0  0  0  0
   -4.9455    1.6035    1.4448 H   0  0  0  0  0  0  0  0  0  0  0  0
   -3.0247   -0.5712    3.3301 H   0  0  0  0  0  0  0  0  0  0  0  0
    0.5646   -2.2184    1.9351 H   0  0  0  0  0  0  0  0  0  0  0  0
    0.2499    0.5737    0.6589 H   0  0  0  0  0  0  0  0  0  0  0  0
    2.0939    1.0900   -0.8374 H   0  0  0  0  0  0  0  0  0  0  0  0
    4.5838    1.2962    0.3315 H   0  0  0  0  0  0  0  0  0  0  0  0
    6.3298   -0.1796   -2.4541 H   0  0  0  0  0  0  0  0  0  0  0  0
    6.7635    1.1909   -1.3877 H   0  0  0  0  0  0  0  0  0  0  0  0
    4.4942   -1.5708   -0.8924 H   0  0  0  0  0  0  0  0  0  0  0  0
    5.1449   -1.8778    1.8125 H   0  0  0  0  0  0  0  0  0  0  0  0
    2.8306   -1.4300    2.5868 H   0  0  0  0  0  0  0  0  0  0  0  0
   -0.9187   -0.2770   -2.7823 H   0  0  0  0  0  0  0  0  0  0  0  0
   -2.1135   -1.6274   -2.9204 H   0  0  0  0  0  0  0  0  0  0  0  0
   -0.3896   -1.9622   -2.7186 H   0  0  0  0  0  0  0  0  0  0  0  0
   -3.1225    0.3571   -2.2338 H   0  0  0  0  0  0  0  0  0  0  0  0
  1  2  1  0
  2  3  1  0
  3  4  2  0
  4  5  1  0
  5  6  1  0
  5  7  2  0
  7  8  1  0
  8  9  2  0
  8 10  1  0
 10 11  2  0
 11 12  1  0
 12 13  2  0
 13 14  1  0
 14 15  1  0
 15 16  1  0
 16 17  1  0
 17 18  1  0
 18 19  1  0
 19 20  2  0
  7 21  1  0
 21 22  1  0
 22 23  1  0
 21 24  2  0
 24  3  1  0
 20 12  1  0
 18 14  1  0
  1 25  1  0
  1 26  1  0
  1 27  1  0
  4 28  1  0
  6 29  1  0
 10 30  1  0
 11 31  1  0
 13 32  1  0
 14 33  1  1
 16 34  1  0
 16 35  1  0
 18 36  1  6
 19 37  1  0
 20 38  1  0
 23 39  1  0
 23 40  1  0
 23 41  1  0
 24 42  1  0
M  END
$$$$
