
     RDKit          3D

 49 53  0  0  0  0  0  0  0  0999 V2000
   -0.2391    2.2451    2.7126 O   0  0  0  0  0  0  0  0  0  0  0  0
   -0.4481    1.3449    1.8992 C   0  0  0  0  0  0  0  0  0  0  0  0
   -1.7258    1.1932    1.2270 C   0  0  0  0  0  0  0  0  0  0  0  0
   -2.4362    0.0839    0.8010 C   0  0  0  0  0  0  0  0  0  0  0  0
   -3.6483    0.5533    0.2198 C   0  0  0  0  0  0  0  0  0  0  0  0
   -3.6027    1.9354    0.3482 C   0  0  0  0  0  0  0  0  0  0  0  0
   -4.6006    2.8000   -0.0902 C   0  0  0  0  0  0  0  0  0  0  0  0
   -5.7161    2.2149   -0.6996 C   0  0  0  0  0  0  0  0  0  0  0  0
   -5.8259    0.8234   -0.8596 C   0  0  0  0  0  0  0  0  0  0  0  0
   -6.9488    0.2451   -1.4705 C   0  0  0  0  0  0  0  0  0  0  0  0
   -7.0480   -1.1409   -1.6221 C   0  0  0  0  0  0  0  0  0  0  0  0
   -6.0278   -1.9733   -1.1659 C   0  0  0  0  0  0  0  0  0  0  0  0
   -4.8998   -1.4259   -0.5552 C   0  0  0  0  0  0  0  0  0  0  0  0
   -4.7885   -0.0296   -0.3977 C   0  0  0  0  0  0  0  0  0  0  0  0
   -2.4526    2.3219    0.9610 O   0  0  0  0  0  0  0  0  0  0  0  0
    0.5432    0.3884    1.6168 N   0  0  0  0  0  0  0  0  0  0  0  0
    0.8123   -0.0190    0.2304 C   0  0  0  0  0  0  0  0  0  0  0  0
    1.8141    0.9485   -0.4438 C   0  0  0  0  0  0  0  0  0  0  0  0
    3.0584    1.1022    0.3480 N   0  0  0  0  0  0  0  0  0  0  0  0
    4.0085    0.0980    0.1014 C   0  0  0  0  0  0  0  0  0  0  0  0
    4.1995   -0.8527    1.0493 N   0  0  0  0  0  0  0  0  0  0  0  0
    5.1100   -1.8304    0.8249 C   0  0  0  0  0  0  0  0  0  0  0  0
    5.8705   -1.9330   -0.3262 C   0  0  0  0  0  0  0  0  0  0  0  0
    6.8690   -3.0368   -0.4754 C   0  0  0  0  0  0  0  0  0  0  0  0
    7.1559   -3.3248   -1.7746 F   0  0  0  0  0  0  0  0  0  0  0  0
    6.4506   -4.2070    0.0805 F   0  0  0  0  0  0  0  0  0  0  0  0
    8.0576   -2.7437    0.1166 F   0  0  0  0  0  0  0  0  0  0  0  0
    5.6930   -0.9466   -1.2965 C   0  0  0  0  0  0  0  0  0  0  0  0
    4.7625    0.0750   -1.0877 C   0  0  0  0  0  0  0  0  0  0  0  0
    4.6407    1.3012   -2.3022 Cl  0  0  0  0  0  0  0  0  0  0  0  0
    2.8107    1.3987    1.7832 C   0  0  0  0  0  0  0  0  0  0  0  0
    1.7696    0.4536    2.4195 C   0  0  0  0  0  0  0  0  0  0  0  0
   -2.1181   -0.9432    0.9093 H   0  0  0  0  0  0  0  0  0  0  0  0
   -4.5130    3.8721    0.0391 H   0  0  0  0  0  0  0  0  0  0  0  0
   -6.5129    2.8681   -1.0517 H   0  0  0  0  0  0  0  0  0  0  0  0
   -7.7609    0.8711   -1.8343 H   0  0  0  0  0  0  0  0  0  0  0  0
   -7.9267   -1.5707   -2.0969 H   0  0  0  0  0  0  0  0  0  0  0  0
   -6.1123   -3.0505   -1.2851 H   0  0  0  0  0  0  0  0  0  0  0  0
   -4.1160   -2.0912   -0.2039 H   0  0  0  0  0  0  0  0  0  0  0  0
    1.2202   -1.0360    0.2607 H   0  0  0  0  0  0  0  0  0  0  0  0
   -0.0995   -0.0458   -0.3684 H   0  0  0  0  0  0  0  0  0  0  0  0
    2.0079    0.6072   -1.4664 H   0  0  0  0  0  0  0  0  0  0  0  0
    1.3514    1.9399   -0.5290 H   0  0  0  0  0  0  0  0  0  0  0  0
    5.2060   -2.5516    1.6350 H   0  0  0  0  0  0  0  0  0  0  0  0
    6.2857   -0.9643   -2.2093 H   0  0  0  0  0  0  0  0  0  0  0  0
    3.7446    1.3882    2.3589 H   0  0  0  0  0  0  0  0  0  0  0  0
    2.4341    2.4280    1.8377 H   0  0  0  0  0  0  0  0  0  0  0  0
    1.5387    0.7846    3.4381 H   0  0  0  0  0  0  0  0  0  0  0  0
    2.1531   -0.5687    2.4990 H   0  0  0  0  0  0  0  0  0  0  0  0
  1  2  2  0
  2  3  1  0
  3  4  2  0
  4  5  1  0
  5  6  2  0
  6  7  1  0
  7  8  2  0
  8  9  1  0
  9 10  2  0
 10 11  1  0
 11 12  2  0
 12 13  1  0
 13 14  2  0
  6 15  1  0
  2 16  1  0
 16 17  1  0
 17 18  1  0
 18 19  1  0
 19 20  1  0
 20 21  2  0
 21 22  1  0
 22 23  2  0
 23 24  1  0
 24 25  1  0
 24 26  1  0
 24 27  1  0
 23 28  1  0
 28 29  2  0
 29 30  1  0
 19 31  1  0
 31 32  1  0
 15  3  1  0
 32 16  1  0
 14  5  1  0
 29 20  1  0
 14  9  1  0
  4 33  1  0
  7 34  1  0
  8 35  1  0
 10 36  1  0
 11 37  1  0
 12 38  1  0
 13 39  1  0
 17 40  1  0
 17 41  1  0
 18 42  1  0
 18 43  1  0
 22 44  1  0
 28 45  1  0
 31 46  1  0
 31 47  1  0
 32 48  1  0
 32 49  1  0
M  END
$$$$
