
     RDKit          3D

 58 62  0  0  0  0  0  0  0  0999 V2000
   -1.2078   -1.5445   -2.0523 O   0  0  0  0  0  0  0  0  0  0  0  0
   -1.3619   -2.2121   -1.0342 C   0  0  0  0  0  0  0  0  0  0  0  0
   -2.6620   -2.9577   -0.7777 C   0  0  0  0  0  0  0  0  0  0  0  0
   -3.6701   -2.0265    0.4132 S   0  0  0  0  0  0  0  0  0  0  0  0
   -4.0074   -0.6229   -0.5994 C   0  0  0  0  0  0  0  0  0  0  0  0
   -4.8502   -0.8356   -1.5581 N   0  0  0  0  0  0  0  0  0  0  0  0
   -5.0925    0.1938   -2.4700 C   0  0  0  0  0  0  0  0  0  0  0  0
   -6.0216   -0.0149   -3.4932 C   0  0  0  0  0  0  0  0  0  0  0  0
   -6.2766    0.9819   -4.4400 C   0  0  0  0  0  0  0  0  0  0  0  0
   -5.5979    2.1990   -4.3733 C   0  0  0  0  0  0  0  0  0  0  0  0
   -4.6689    2.4188   -3.3574 C   0  0  0  0  0  0  0  0  0  0  0  0
   -4.4232    1.4131   -2.4110 C   0  0  0  0  0  0  0  0  0  0  0  0
   -3.4700    1.6261   -1.3054 C   0  0  0  0  0  0  0  0  0  0  0  0
   -2.9029    2.7185   -1.2333 O   0  0  0  0  0  0  0  0  0  0  0  0
   -3.3267    0.5755   -0.3898 N   0  0  0  0  0  0  0  0  0  0  0  0
   -2.4824    0.8117    0.7441 C   0  0  0  0  0  0  0  0  0  0  0  0
   -1.1593    1.2478    0.5623 C   0  0  0  0  0  0  0  0  0  0  0  0
   -0.3290    1.4726    1.6641 C   0  0  0  0  0  0  0  0  0  0  0  0
   -0.8233    1.2800    2.9488 C   0  0  0  0  0  0  0  0  0  0  0  0
   -0.0232    1.4880    3.9988 F   0  0  0  0  0  0  0  0  0  0  0  0
   -2.1368    0.8827    3.1565 C   0  0  0  0  0  0  0  0  0  0  0  0
   -2.9576    0.6590    2.0556 C   0  0  0  0  0  0  0  0  0  0  0  0
   -4.2435    0.3386    2.2785 F   0  0  0  0  0  0  0  0  0  0  0  0
   -0.4633   -2.3323    0.0147 N   0  0  0  0  0  0  0  0  0  0  0  0
    0.8105   -1.7386    0.1122 C   0  0  0  0  0  0  0  0  0  0  0  0
    1.4504   -1.7819    1.3496 C   0  0  0  0  0  0  0  0  0  0  0  0
    2.7080   -1.1787    1.5330 C   0  0  0  0  0  0  0  0  0  0  0  0
    3.3957   -0.5359    0.4887 C   0  0  0  0  0  0  0  0  0  0  0  0
    4.6379    0.0695    0.6489 N   0  0  0  0  0  0  0  0  0  0  0  0
    5.3962    0.0733    1.9150 C   0  0  0  0  0  0  0  0  0  0  0  0
    6.7966   -0.5212    1.6897 C   0  0  0  0  0  0  0  0  0  0  0  0
    7.5912    0.1880    0.7256 O   0  0  0  0  0  0  0  0  0  0  0  0
    6.8091    1.0016   -0.1581 C   0  0  0  0  0  0  0  0  0  0  0  0
    5.4641    0.3628   -0.5452 C   0  0  0  0  0  0  0  0  0  0  0  0
    2.7217   -0.5194   -0.7493 C   0  0  0  0  0  0  0  0  0  0  0  0
    1.4579   -1.1054   -0.9404 C   0  0  0  0  0  0  0  0  0  0  0  0
   -2.4387   -3.9462   -0.3647 H   0  0  0  0  0  0  0  0  0  0  0  0
   -3.1949   -3.1067   -1.7218 H   0  0  0  0  0  0  0  0  0  0  0  0
   -6.5455   -0.9656   -3.5567 H   0  0  0  0  0  0  0  0  0  0  0  0
   -7.0005    0.8045   -5.2313 H   0  0  0  0  0  0  0  0  0  0  0  0
   -5.7918    2.9749   -5.1114 H   0  0  0  0  0  0  0  0  0  0  0  0
   -4.1408    3.3699   -3.3022 H   0  0  0  0  0  0  0  0  0  0  0  0
   -0.7558    1.3924   -0.4395 H   0  0  0  0  0  0  0  0  0  0  0  0
    0.7010    1.7901    1.5217 H   0  0  0  0  0  0  0  0  0  0  0  0
   -2.5241    0.7591    4.1606 H   0  0  0  0  0  0  0  0  0  0  0  0
   -0.8141   -2.7638    0.8611 H   0  0  0  0  0  0  0  0  0  0  0  0
    0.9848   -2.2646    2.2074 H   0  0  0  0  0  0  0  0  0  0  0  0
    3.1190   -1.2449    2.5367 H   0  0  0  0  0  0  0  0  0  0  0  0
    5.4907    1.1170    2.2470 H   0  0  0  0  0  0  0  0  0  0  0  0
    4.9185   -0.4736    2.7313 H   0  0  0  0  0  0  0  0  0  0  0  0
    7.3578   -0.5288    2.6317 H   0  0  0  0  0  0  0  0  0  0  0  0
    6.7123   -1.5621    1.3501 H   0  0  0  0  0  0  0  0  0  0  0  0
    7.4128    1.1814   -1.0555 H   0  0  0  0  0  0  0  0  0  0  0  0
    6.6489    1.9753    0.3241 H   0  0  0  0  0  0  0  0  0  0  0  0
    4.9460    1.0611   -1.2118 H   0  0  0  0  0  0  0  0  0  0  0  0
    5.6601   -0.5741   -1.0792 H   0  0  0  0  0  0  0  0  0  0  0  0
    3.1568   -0.0280   -1.6165 H   0  0  0  0  0  0  0  0  0  0  0  0
    1.0167   -1.0423   -1.9316 H   0  0  0  0  0  0  0  0  0  0  0  0
  1  2  2  0
  2  3  1  0
  3  4  1  0
  4  5  1  0
  5  6  2  0
  6  7  1  0
  7  8  2  0
  8  9  1  0
  9 10  2  0
 10 11  1  0
 11 12  2  0
 12 13  1  0
 13 14  2  0
 13 15  1  0
 15 16  1  0
 16 17  2  0
 17 18  1  0
 18 19  2  0
 19 20  1  0
 19 21  1  0
 21 22  2  0
 22 23  1  0
  2 24  1  0
 24 25  1  0
 25 26  2  0
 26 27  1  0
 27 28  2  0
 28 29  1  0
 29 30  1  0
 30 31  1  0
 31 32  1  0
 32 33  1  0
 33 34  1  0
 28 35  1  0
 35 36  2  0
 15  5  1  0
 22 16  1  0
 36 25  1  0
 12  7  1  0
 34 29  1  0
  3 37  1  0
  3 38  1  0
  8 39  1  0
  9 40  1  0
 10 41  1  0
 11 42  1  0
 17 43  1  0
 18 44  1  0
 21 45  1  0
 24 46  1  0
 26 47  1  0
 27 48  1  0
 30 49  1  0
 30 50  1  0
 31 51  1  0
 31 52  1  0
 33 53  1  0
 33 54  1  0
 34 55  1  0
 34 56  1  0
 35 57  1  0
 36 58  1  0
M  END
$$$$
