
     RDKit          3D

 53 55  0  0  0  0  0  0  0  0999 V2000
   -7.5415   -4.0823    2.8842 C   0  0  0  0  0  0  0  0  0  0  0  0
   -7.2820   -2.6895    3.0088 O   0  0  0  0  0  0  0  0  0  0  0  0
   -6.2059   -2.1957    2.3244 C   0  0  0  0  0  0  0  0  0  0  0  0
   -5.3116   -2.9417    1.5527 C   0  0  0  0  0  0  0  0  0  0  0  0
   -4.2465   -2.3088    0.9043 C   0  0  0  0  0  0  0  0  0  0  0  0
   -4.0777   -0.9276    1.0355 C   0  0  0  0  0  0  0  0  0  0  0  0
   -2.7184   -0.1441    0.2054 S   0  0  0  0  0  6  0  0  0  0  0  0
   -2.6972   -0.6444   -1.1505 O   0  0  0  0  0  0  0  0  0  0  0  0
   -2.7572    1.2742    0.4916 O   0  0  0  0  0  0  0  0  0  0  0  0
   -1.3840   -0.7825    1.0212 N   0  0  0  0  0  0  0  0  0  0  0  0
   -1.2341   -0.4327    2.4508 C   0  0  0  0  0  0  0  0  0  0  0  0
    0.0794    0.3138    2.5074 C   0  0  0  0  0  0  0  0  0  0  0  0
    0.8463   -0.2877    1.4633 O   0  0  0  0  0  0  0  0  0  0  0  0
   -0.0889   -0.4566    0.3761 C   0  0  0  0  0  0  0  0  0  0  0  0
    0.3922   -1.6123   -0.5228 C   0  0  0  0  0  0  0  0  0  0  0  0
    1.7374   -1.4248   -1.0399 N   0  0  0  0  0  0  0  0  0  0  0  0
    2.0212   -0.4584   -1.9753 C   0  0  0  0  0  0  0  0  0  0  0  0
    1.2016    0.2332   -2.5625 O   0  0  0  0  0  0  0  0  0  0  0  0
    3.5323   -0.2613   -2.2340 C   0  0  0  0  0  0  0  0  0  0  0  0
    4.3546   -0.8922   -1.5850 O   0  0  0  0  0  0  0  0  0  0  0  0
    3.8003    0.6678   -3.2107 N   0  0  0  0  0  0  0  0  0  0  0  0
    5.1335    1.1343   -3.4847 C   0  0  0  0  0  0  0  0  0  0  0  0
    5.4321    2.3929   -2.7104 C   0  0  0  0  0  0  0  0  0  0  0  0
    5.9289    2.3148   -1.3988 C   0  0  0  0  0  0  0  0  0  0  0  0
    6.1836    3.4767   -0.6693 C   0  0  0  0  0  0  0  0  0  0  0  0
    5.9357    4.7157   -1.2467 C   0  0  0  0  0  0  0  0  0  0  0  0
    6.1793    5.8310   -0.5460 F   0  0  0  0  0  0  0  0  0  0  0  0
    5.4344    4.8156   -2.5392 C   0  0  0  0  0  0  0  0  0  0  0  0
    5.1783    3.6549   -3.2712 C   0  0  0  0  0  0  0  0  0  0  0  0
   -4.9694   -0.1706    1.7954 C   0  0  0  0  0  0  0  0  0  0  0  0
   -6.0285   -0.8121    2.4403 C   0  0  0  0  0  0  0  0  0  0  0  0
   -6.7178   -4.6747    3.2959 H   0  0  0  0  0  0  0  0  0  0  0  0
   -8.4387   -4.3087    3.4684 H   0  0  0  0  0  0  0  0  0  0  0  0
   -7.7442   -4.3551    1.8432 H   0  0  0  0  0  0  0  0  0  0  0  0
   -5.4165   -4.0152    1.4329 H   0  0  0  0  0  0  0  0  0  0  0  0
   -3.5568   -2.8929    0.2985 H   0  0  0  0  0  0  0  0  0  0  0  0
   -2.0530    0.1586    2.8668 H   0  0  0  0  0  0  0  0  0  0  0  0
   -1.1717   -1.3709    3.0133 H   0  0  0  0  0  0  0  0  0  0  0  0
   -0.0457    1.3799    2.2864 H   0  0  0  0  0  0  0  0  0  0  0  0
    0.5909    0.2030    3.4670 H   0  0  0  0  0  0  0  0  0  0  0  0
   -0.1250    0.4923   -0.1719 H   0  0  0  0  0  0  0  0  0  0  0  0
    0.4138   -2.5496    0.0446 H   0  0  0  0  0  0  0  0  0  0  0  0
   -0.2849   -1.7451   -1.3727 H   0  0  0  0  0  0  0  0  0  0  0  0
    2.5295   -1.7698   -0.5032 H   0  0  0  0  0  0  0  0  0  0  0  0
    3.0020    1.1888   -3.5628 H   0  0  0  0  0  0  0  0  0  0  0  0
    5.8664    0.3560   -3.2428 H   0  0  0  0  0  0  0  0  0  0  0  0
    5.2030    1.3236   -4.5615 H   0  0  0  0  0  0  0  0  0  0  0  0
    6.1132    1.3442   -0.9402 H   0  0  0  0  0  0  0  0  0  0  0  0
    6.5686    3.4219    0.3438 H   0  0  0  0  0  0  0  0  0  0  0  0
    5.2434    5.7949   -2.9660 H   0  0  0  0  0  0  0  0  0  0  0  0
    4.7791    3.7405   -4.2795 H   0  0  0  0  0  0  0  0  0  0  0  0
   -4.8548    0.9066    1.8898 H   0  0  0  0  0  0  0  0  0  0  0  0
   -6.7290   -0.2297    3.0352 H   0  0  0  0  0  0  0  0  0  0  0  0
  1  2  1  0
  2  3  1  0
  3  4  2  0
  4  5  1  0
  5  6  2  0
  6  7  1  0
  7  8  2  0
  7  9  2  0
  7 10  1  0
 10 11  1  0
 11 12  1  0
 12 13  1  0
 13 14  1  0
 14 15  1  0
 15 16  1  0
 16 17  1  0
 17 18  2  0
 17 19  1  0
 19 20  2  0
 19 21  1  0
 21 22  1  0
 22 23  1  0
 23 24  2  0
 24 25  1  0
 25 26  2  0
 26 27  1  0
 26 28  1  0
 28 29  2  0
  6 30  1  0
 30 31  2  0
 31  3  1  0
 14 10  1  0
 29 23  1  0
  1 32  1  0
  1 33  1  0
  1 34  1  0
  4 35  1  0
  5 36  1  0
 11 37  1  0
 11 38  1  0
 12 39  1  0
 12 40  1  0
 14 41  1  0
 15 42  1  0
 15 43  1  0
 16 44  1  0
 21 45  1  0
 22 46  1  0
 22 47  1  0
 24 48  1  0
 25 49  1  0
 28 50  1  0
 29 51  1  0
 30 52  1  0
 31 53  1  0
M  END
$$$$
