
     RDKit          3D

 47 50  0  0  0  0  0  0  0  0999 V2000
   -3.9708    2.9465    1.0590 C   0  0  0  0  0  0  0  0  0  0  0  0
   -3.9960    1.4174    1.0837 C   0  0  0  0  0  0  0  0  0  0  0  0
   -2.5953    0.8379    1.2144 C   0  0  0  0  0  0  0  0  0  0  0  0
   -1.7984    0.8926   -0.0704 C   0  0  0  0  0  0  0  0  0  0  0  0
   -0.9704    1.7928   -0.2478 O   0  0  0  0  0  0  0  0  0  0  0  0
   -1.9567   -0.1477   -0.9796 N   0  0  0  0  0  0  0  0  0  0  0  0
   -1.0616   -0.1771   -2.1425 C   0  0  0  0  0  0  0  0  0  0  0  0
    0.3247   -0.7361   -1.7975 C   0  0  0  0  0  0  0  0  0  0  0  0
    0.6528   -1.8645   -2.1563 O   0  0  0  0  0  0  0  0  0  0  0  0
    1.0955    0.1495   -1.0637 N   0  0  0  0  0  0  0  0  0  0  0  0
    2.4074   -0.0299   -0.5853 C   0  0  0  0  0  0  0  0  0  0  0  0
    3.1892   -1.1566   -0.8525 C   0  0  0  0  0  0  0  0  0  0  0  0
    4.4850   -1.2609   -0.3339 C   0  0  0  0  0  0  0  0  0  0  0  0
    5.0047   -0.2401    0.4556 C   0  0  0  0  0  0  0  0  0  0  0  0
    4.2409    0.9022    0.7034 C   0  0  0  0  0  0  0  0  0  0  0  0
    2.9442    1.0006    0.1976 C   0  0  0  0  0  0  0  0  0  0  0  0
    4.6964    1.9644    1.4432 O   0  0  0  0  0  0  0  0  0  0  0  0
    6.1181    1.9108    1.6093 C   0  0  0  0  0  0  0  0  0  0  0  0
    6.5605    0.5094    1.9968 C   0  0  0  0  0  0  0  0  0  0  0  0
    6.2716   -0.4206    0.9468 O   0  0  0  0  0  0  0  0  0  0  0  0
   -2.9802   -1.1431   -0.8879 C   0  0  0  0  0  0  0  0  0  0  0  0
   -2.6575   -2.4810   -1.1710 C   0  0  0  0  0  0  0  0  0  0  0  0
   -3.6189   -3.4900   -1.0776 C   0  0  0  0  0  0  0  0  0  0  0  0
   -4.9243   -3.1770   -0.7182 C   0  0  0  0  0  0  0  0  0  0  0  0
   -5.2725   -1.8519   -0.4624 C   0  0  0  0  0  0  0  0  0  0  0  0
   -4.3133   -0.8301   -0.5401 C   0  0  0  0  0  0  0  0  0  0  0  0
   -4.9240    0.8456   -0.3836 S   0  0  0  0  0  0  0  0  0  0  0  0
   -3.4679    3.3353    1.9516 H   0  0  0  0  0  0  0  0  0  0  0  0
   -3.4380    3.3356    0.1841 H   0  0  0  0  0  0  0  0  0  0  0  0
   -4.9848    3.3626    1.0555 H   0  0  0  0  0  0  0  0  0  0  0  0
   -4.5718    1.1084    1.9641 H   0  0  0  0  0  0  0  0  0  0  0  0
   -2.0296    1.3803    1.9833 H   0  0  0  0  0  0  0  0  0  0  0  0
   -2.6285   -0.1959    1.5799 H   0  0  0  0  0  0  0  0  0  0  0  0
   -1.4978   -0.7667   -2.9572 H   0  0  0  0  0  0  0  0  0  0  0  0
   -0.9396    0.8412   -2.5327 H   0  0  0  0  0  0  0  0  0  0  0  0
    0.6322    1.0190   -0.7892 H   0  0  0  0  0  0  0  0  0  0  0  0
    2.8211   -1.9760   -1.4617 H   0  0  0  0  0  0  0  0  0  0  0  0
    5.0807   -2.1456   -0.5415 H   0  0  0  0  0  0  0  0  0  0  0  0
    2.3643    1.8938    0.4155 H   0  0  0  0  0  0  0  0  0  0  0  0
    6.5911    2.2376    0.6749 H   0  0  0  0  0  0  0  0  0  0  0  0
    6.3870    2.6235    2.3953 H   0  0  0  0  0  0  0  0  0  0  0  0
    6.0600    0.1688    2.9118 H   0  0  0  0  0  0  0  0  0  0  0  0
    7.6409    0.4881    2.1708 H   0  0  0  0  0  0  0  0  0  0  0  0
   -1.6437   -2.7732   -1.4350 H   0  0  0  0  0  0  0  0  0  0  0  0
   -3.3428   -4.5211   -1.2867 H   0  0  0  0  0  0  0  0  0  0  0  0
   -5.6760   -3.9599   -0.6547 H   0  0  0  0  0  0  0  0  0  0  0  0
   -6.3081   -1.6190   -0.2220 H   0  0  0  0  0  0  0  0  0  0  0  0
  1  2  1  0
  2  3  1  0
  3  4  1  0
  4  5  2  0
  4  6  1  0
  6  7  1  0
  7  8  1  0
  8  9  2  0
  8 10  1  0
 10 11  1  0
 11 12  2  0
 12 13  1  0
 13 14  2  0
 14 15  1  0
 15 16  2  0
 15 17  1  0
 17 18  1  0
 18 19  1  0
 19 20  1  0
  6 21  1  0
 21 22  2  0
 22 23  1  0
 23 24  2  0
 24 25  1  0
 25 26  2  0
 26 27  1  0
 27  2  1  0
 16 11  1  0
 26 21  1  0
 20 14  1  0
  1 28  1  0
  1 29  1  0
  1 30  1  0
  2 31  1  0
  3 32  1  0
  3 33  1  0
  7 34  1  0
  7 35  1  0
 10 36  1  0
 12 37  1  0
 13 38  1  0
 16 39  1  0
 18 40  1  0
 18 41  1  0
 19 42  1  0
 19 43  1  0
 22 44  1  0
 23 45  1  0
 24 46  1  0
 25 47  1  0
M  END
$$$$
