
     RDKit          3D

 51 54  0  0  0  0  0  0  0  0999 V2000
    5.4014    0.0593   -3.1972 C   0  0  0  0  0  0  0  0  0  0  0  0
    5.3611    0.0875   -1.6775 C   0  0  0  0  0  0  0  0  0  0  0  0
    3.9988    0.4688   -1.1592 C   0  0  0  0  0  0  0  0  0  0  0  0
    3.6264    1.8102   -1.0487 C   0  0  0  0  0  0  0  0  0  0  0  0
    2.3545    2.1639   -0.5809 C   0  0  0  0  0  0  0  0  0  0  0  0
    1.4154    1.1917   -0.2088 C   0  0  0  0  0  0  0  0  0  0  0  0
    0.0890    1.5513    0.2595 N   0  0  0  0  0  0  0  0  0  0  0  0
   -0.5446    2.6611   -0.3147 C   0  0  0  0  0  0  0  0  0  0  0  0
   -0.0678    3.4066   -1.1708 O   0  0  0  0  0  0  0  0  0  0  0  0
   -1.9369    2.9297    0.0842 C   0  0  0  0  0  0  0  0  0  0  0  0
   -2.6365    3.9860   -0.5266 C   0  0  0  0  0  0  0  0  0  0  0  0
   -3.9673    4.2294   -0.2023 C   0  0  0  0  0  0  0  0  0  0  0  0
   -4.6034    3.4104    0.7202 C   0  0  0  0  0  0  0  0  0  0  0  0
   -3.9038    2.3620    1.3286 C   0  0  0  0  0  0  0  0  0  0  0  0
   -2.5529    2.1182    1.0294 C   0  0  0  0  0  0  0  0  0  0  0  0
   -1.8005    1.0925    1.6520 N   0  0  0  0  0  0  0  0  0  0  0  0
   -2.3928    0.2701    2.7128 C   0  0  0  0  0  0  0  0  0  0  0  0
   -3.0321   -0.9765    2.1045 C   0  0  0  0  0  0  0  0  0  0  0  0
   -4.2354   -1.0607    1.8781 O   0  0  0  0  0  0  0  0  0  0  0  0
   -2.1307   -1.9591    1.7739 N   0  0  0  0  0  0  0  0  0  0  0  0
   -2.5339   -3.1771    1.1165 C   0  0  0  0  0  0  0  0  0  0  0  0
   -1.3154   -3.9227    0.7264 C   0  0  0  0  0  0  0  0  0  0  0  0
   -0.5079   -3.8988   -0.3936 C   0  0  0  0  0  0  0  0  0  0  0  0
    0.5329   -4.8236   -0.1493 C   0  0  0  0  0  0  0  0  0  0  0  0
    0.2944   -5.3502    1.0982 C   0  0  0  0  0  0  0  0  0  0  0  0
   -0.8254   -4.8119    1.6379 O   0  0  0  0  0  0  0  0  0  0  0  0
   -0.4989    0.7718    1.2655 C   0  0  0  0  0  0  0  0  0  0  0  0
    0.0707   -0.1677    1.8327 O   0  0  0  0  0  0  0  0  0  0  0  0
    1.8012   -0.1551   -0.3366 C   0  0  0  0  0  0  0  0  0  0  0  0
    3.0728   -0.5126   -0.8028 C   0  0  0  0  0  0  0  0  0  0  0  0
    5.1922    1.0548   -3.6103 H   0  0  0  0  0  0  0  0  0  0  0  0
    4.6623   -0.6371   -3.6118 H   0  0  0  0  0  0  0  0  0  0  0  0
    6.3924   -0.2475   -3.5462 H   0  0  0  0  0  0  0  0  0  0  0  0
    5.6490   -0.8894   -1.2779 H   0  0  0  0  0  0  0  0  0  0  0  0
    6.1058    0.7992   -1.3051 H   0  0  0  0  0  0  0  0  0  0  0  0
    4.3247    2.5993   -1.3210 H   0  0  0  0  0  0  0  0  0  0  0  0
    2.1321    3.2243   -0.4888 H   0  0  0  0  0  0  0  0  0  0  0  0
   -2.1448    4.6185   -1.2632 H   0  0  0  0  0  0  0  0  0  0  0  0
   -4.5042    5.0464   -0.6749 H   0  0  0  0  0  0  0  0  0  0  0  0
   -5.6493    3.5785    0.9668 H   0  0  0  0  0  0  0  0  0  0  0  0
   -4.4653    1.7401    2.0194 H   0  0  0  0  0  0  0  0  0  0  0  0
   -3.1231    0.8215    3.3103 H   0  0  0  0  0  0  0  0  0  0  0  0
   -1.6217   -0.0438    3.4264 H   0  0  0  0  0  0  0  0  0  0  0  0
   -1.1371   -1.7834    1.9243 H   0  0  0  0  0  0  0  0  0  0  0  0
   -3.1584   -3.7526    1.8089 H   0  0  0  0  0  0  0  0  0  0  0  0
   -3.1395   -2.9227    0.2385 H   0  0  0  0  0  0  0  0  0  0  0  0
   -0.6525   -3.2836   -1.2711 H   0  0  0  0  0  0  0  0  0  0  0  0
    1.3582   -5.0724   -0.7987 H   0  0  0  0  0  0  0  0  0  0  0  0
    0.8059   -6.0755    1.7135 H   0  0  0  0  0  0  0  0  0  0  0  0
    1.1135   -0.9625   -0.1017 H   0  0  0  0  0  0  0  0  0  0  0  0
    3.3272   -1.5666   -0.8864 H   0  0  0  0  0  0  0  0  0  0  0  0
  1  2  1  0
  2  3  1  0
  3  4  2  0
  4  5  1  0
  5  6  2  0
  6  7  1  0
  7  8  1  0
  8  9  2  0
  8 10  1  0
 10 11  2  0
 11 12  1  0
 12 13  2  0
 13 14  1  0
 14 15  2  0
 15 16  1  0
 16 17  1  0
 17 18  1  0
 18 19  2  0
 18 20  1  0
 20 21  1  0
 21 22  1  0
 22 23  2  0
 23 24  1  0
 24 25  2  0
 25 26  1  0
 16 27  1  0
 27 28  2  0
  6 29  1  0
 29 30  2  0
 30  3  1  0
 27  7  1  0
 15 10  1  0
 26 22  1  0
  1 31  1  0
  1 32  1  0
  1 33  1  0
  2 34  1  0
  2 35  1  0
  4 36  1  0
  5 37  1  0
 11 38  1  0
 12 39  1  0
 13 40  1  0
 14 41  1  0
 17 42  1  0
 17 43  1  0
 20 44  1  0
 21 45  1  0
 21 46  1  0
 23 47  1  0
 24 48  1  0
 25 49  1  0
 29 50  1  0
 30 51  1  0
M  END
$$$$
