
     RDKit          3D

 50 53  0  0  0  0  0  0  0  0999 V2000
    7.7157    2.9278    0.9421 C   0  0  0  0  0  0  0  0  0  0  0  0
    7.5678    1.5709    0.5440 O   0  0  0  0  0  0  0  0  0  0  0  0
    6.2912    1.1054    0.3974 C   0  0  0  0  0  0  0  0  0  0  0  0
    5.1218    1.8295    0.6136 C   0  0  0  0  0  0  0  0  0  0  0  0
    3.8692    1.2249    0.4244 C   0  0  0  0  0  0  0  0  0  0  0  0
    3.7495   -0.1148    0.0117 C   0  0  0  0  0  0  0  0  0  0  0  0
    2.4381   -0.7674   -0.1962 C   0  0  0  0  0  0  0  0  0  0  0  0
    1.2976   -0.0787   -0.5691 C   0  0  0  0  0  0  0  0  0  0  0  0
    0.1080   -0.7922   -0.7238 C   0  0  0  0  0  0  0  0  0  0  0  0
   -1.0931    0.0066   -1.0579 C   0  0  0  0  0  0  0  0  0  0  0  0
   -1.0675    0.6832   -2.0765 O   0  0  0  0  0  0  0  0  0  0  0  0
   -2.0982   -0.0758   -0.1139 N   0  0  0  0  0  0  0  0  0  0  0  0
   -3.3553    0.5636   -0.1433 C   0  0  0  0  0  0  0  0  0  0  0  0
   -3.7867    1.3805   -1.1831 C   0  0  0  0  0  0  0  0  0  0  0  0
   -5.0377    2.0001   -1.1172 C   0  0  0  0  0  0  0  0  0  0  0  0
   -5.8881    1.7989   -0.0194 C   0  0  0  0  0  0  0  0  0  0  0  0
   -7.2066    2.5205    0.0244 C   0  0  0  0  0  0  0  0  0  0  0  0
   -5.4927    0.9189    1.0010 C   0  0  0  0  0  0  0  0  0  0  0  0
   -6.2546    0.7619    2.1705 N   0  0  0  0  0  0  0  0  0  0  0  0
   -4.2085    0.3542    0.9491 C   0  0  0  0  0  0  0  0  0  0  0  0
    0.0640   -2.1923   -0.5589 C   0  0  0  0  0  0  0  0  0  0  0  0
   -1.0805   -3.0055   -0.7669 C   0  0  0  0  0  0  0  0  0  0  0  0
   -1.0277   -4.3837   -0.5695 C   0  0  0  0  0  0  0  0  0  0  0  0
    0.1646   -4.9697   -0.1712 C   0  0  0  0  0  0  0  0  0  0  0  0
    1.2977   -4.1745    0.0152 C   0  0  0  0  0  0  0  0  0  0  0  0
    1.2728   -2.7998   -0.1786 C   0  0  0  0  0  0  0  0  0  0  0  0
    2.4111   -2.1095    0.0043 N   0  0  0  0  0  0  0  0  0  0  0  0
    4.9450   -0.8262   -0.1911 C   0  0  0  0  0  0  0  0  0  0  0  0
    6.1951   -0.2255   -0.0035 C   0  0  0  0  0  0  0  0  0  0  0  0
    7.2837    3.6069    0.1995 H   0  0  0  0  0  0  0  0  0  0  0  0
    8.7868    3.1426    1.0060 H   0  0  0  0  0  0  0  0  0  0  0  0
    7.2825    3.0977    1.9333 H   0  0  0  0  0  0  0  0  0  0  0  0
    5.1425    2.8658    0.9342 H   0  0  0  0  0  0  0  0  0  0  0  0
    2.9841    1.8249    0.6242 H   0  0  0  0  0  0  0  0  0  0  0  0
    1.3117    0.9913   -0.7498 H   0  0  0  0  0  0  0  0  0  0  0  0
   -1.9081   -0.6366    0.7084 H   0  0  0  0  0  0  0  0  0  0  0  0
   -3.1691    1.5739   -2.0544 H   0  0  0  0  0  0  0  0  0  0  0  0
   -5.3363    2.6569   -1.9317 H   0  0  0  0  0  0  0  0  0  0  0  0
   -8.0319    1.8027   -0.0201 H   0  0  0  0  0  0  0  0  0  0  0  0
   -7.3182    3.2084   -0.8206 H   0  0  0  0  0  0  0  0  0  0  0  0
   -7.2870    3.1140    0.9408 H   0  0  0  0  0  0  0  0  0  0  0  0
   -6.0616   -0.0960    2.6768 H   0  0  0  0  0  0  0  0  0  0  0  0
   -7.2499    0.9056    2.0357 H   0  0  0  0  0  0  0  0  0  0  0  0
   -3.8766   -0.2593    1.7823 H   0  0  0  0  0  0  0  0  0  0  0  0
   -2.0201   -2.5727   -1.1068 H   0  0  0  0  0  0  0  0  0  0  0  0
   -1.9108   -4.9956   -0.7362 H   0  0  0  0  0  0  0  0  0  0  0  0
    0.2244   -6.0440   -0.0162 H   0  0  0  0  0  0  0  0  0  0  0  0
    2.2328   -4.6436    0.3148 H   0  0  0  0  0  0  0  0  0  0  0  0
    4.9102   -1.8686   -0.5051 H   0  0  0  0  0  0  0  0  0  0  0  0
    7.0989   -0.8057   -0.1726 H   0  0  0  0  0  0  0  0  0  0  0  0
  1  2  1  0
  2  3  1  0
  3  4  2  0
  4  5  1  0
  5  6  2  0
  6  7  1  0
  7  8  2  0
  8  9  1  0
  9 10  1  0
 10 11  2  0
 10 12  1  0
 12 13  1  0
 13 14  2  0
 14 15  1  0
 15 16  2  0
 16 17  1  0
 16 18  1  0
 18 19  1  0
 18 20  2  0
  9 21  2  0
 21 22  1  0
 22 23  2  0
 23 24  1  0
 24 25  2  0
 25 26  1  0
 26 27  2  0
  6 28  1  0
 28 29  2  0
 29  3  1  0
 27  7  1  0
 20 13  1  0
 26 21  1  0
  1 30  1  0
  1 31  1  0
  1 32  1  0
  4 33  1  0
  5 34  1  0
  8 35  1  0
 12 36  1  0
 14 37  1  0
 15 38  1  0
 17 39  1  0
 17 40  1  0
 17 41  1  0
 19 42  1  0
 19 43  1  0
 20 44  1  0
 22 45  1  0
 23 46  1  0
 24 47  1  0
 25 48  1  0
 28 49  1  0
 29 50  1  0
M  END
$$$$
