
     RDKit          3D

 38 40  0  0  0  0  0  0  0  0999 V2000
   -2.8424    2.9478   -0.2547 C   0  0  0  0  0  0  0  0  0  0  0  0
   -2.3490    1.6260    0.2559 C   0  0  0  0  0  0  0  0  0  0  0  0
   -2.1647    0.5548   -0.6293 C   0  0  0  0  0  0  0  0  0  0  0  0
   -1.7748   -0.6994   -0.1545 C   0  0  0  0  0  0  0  0  0  0  0  0
   -1.5538   -0.8822    1.2125 C   0  0  0  0  0  0  0  0  0  0  0  0
   -1.1515   -2.5022    1.8349 S   0  0  0  0  0  6  0  0  0  0  0  0
   -1.5212   -2.5323    3.2354 O   0  0  0  0  0  0  0  0  0  0  0  0
   -1.6779   -3.4795    0.9054 O   0  0  0  0  0  0  0  0  0  0  0  0
    0.5364   -2.5366    1.8005 N   0  0  0  0  0  0  0  0  0  0  0  0
    1.2195   -2.3103    0.5738 C   0  0  0  0  0  0  0  0  0  0  0  0
    1.0736   -3.1862   -0.5010 C   0  0  0  0  0  0  0  0  0  0  0  0
    1.7225   -2.9257   -1.7094 C   0  0  0  0  0  0  0  0  0  0  0  0
    2.5127   -1.7824   -1.8384 C   0  0  0  0  0  0  0  0  0  0  0  0
    3.1390   -1.5294   -3.0291 O   0  0  0  0  0  0  0  0  0  0  0  0
    2.6681   -0.8938   -0.7644 C   0  0  0  0  0  0  0  0  0  0  0  0
    3.6644    0.5864   -0.9078 S   0  0  0  0  0  0  0  0  0  0  0  0
    2.4315    1.8168   -0.8157 C   0  0  0  0  0  0  0  0  0  0  0  0
    2.0946    2.6198   -1.8723 N   0  0  0  0  0  0  0  0  0  0  0  0
    1.1320    3.3649   -1.3833 C   0  0  0  0  0  0  0  0  0  0  0  0
    0.9099    3.0258   -0.0874 N   0  0  0  0  0  0  0  0  0  0  0  0
    1.7429    2.0539    0.3119 N   0  0  0  0  0  0  0  0  0  0  0  0
    2.0271   -1.1804    0.4503 C   0  0  0  0  0  0  0  0  0  0  0  0
   -1.7439    0.1743    2.1072 C   0  0  0  0  0  0  0  0  0  0  0  0
   -2.1441    1.4239    1.6272 C   0  0  0  0  0  0  0  0  0  0  0  0
   -2.5285    3.7645    0.4043 H   0  0  0  0  0  0  0  0  0  0  0  0
   -3.9348    2.9418   -0.3129 H   0  0  0  0  0  0  0  0  0  0  0  0
   -2.4336    3.1571   -1.2486 H   0  0  0  0  0  0  0  0  0  0  0  0
   -2.3420    0.6846   -1.6959 H   0  0  0  0  0  0  0  0  0  0  0  0
   -1.6601   -1.5263   -0.8518 H   0  0  0  0  0  0  0  0  0  0  0  0
    0.9399   -2.1388    2.6476 H   0  0  0  0  0  0  0  0  0  0  0  0
    0.4626   -4.0812   -0.4056 H   0  0  0  0  0  0  0  0  0  0  0  0
    1.5989   -3.6218   -2.5342 H   0  0  0  0  0  0  0  0  0  0  0  0
    2.9194   -2.2266   -3.6673 H   0  0  0  0  0  0  0  0  0  0  0  0
    0.5798    4.1338   -1.9031 H   0  0  0  0  0  0  0  0  0  0  0  0
    0.2327    3.3989    0.5694 H   0  0  0  0  0  0  0  0  0  0  0  0
    2.1413   -0.5000    1.2911 H   0  0  0  0  0  0  0  0  0  0  0  0
   -1.6100    0.0285    3.1761 H   0  0  0  0  0  0  0  0  0  0  0  0
   -2.3164    2.2316    2.3356 H   0  0  0  0  0  0  0  0  0  0  0  0
  1  2  1  0
  2  3  2  0
  3  4  1  0
  4  5  2  0
  5  6  1  0
  6  7  2  0
  6  8  2  0
  6  9  1  0
  9 10  1  0
 10 11  2  0
 11 12  1  0
 12 13  2  0
 13 14  1  0
 13 15  1  0
 15 16  1  0
 16 17  1  0
 17 18  1  0
 18 19  2  0
 19 20  1  0
 20 21  1  0
 15 22  2  0
  5 23  1  0
 23 24  2  0
 24  2  1  0
 22 10  1  0
 21 17  2  0
  1 25  1  0
  1 26  1  0
  1 27  1  0
  3 28  1  0
  4 29  1  0
  9 30  1  0
 11 31  1  0
 12 32  1  0
 14 33  1  0
 19 34  1  0
 20 35  1  0
 22 36  1  0
 23 37  1  0
 24 38  1  0
M  END
$$$$
