
     RDKit          3D

 34 36  0  0  0  0  0  0  0  0999 V2000
    4.7574    1.9669   -0.3427 C   0  0  0  0  0  0  0  0  0  0  0  0
    4.5475    0.5920    0.0577 N   0  0  0  0  0  0  0  0  0  0  0  0
    5.6196   -0.2244    0.1466 N   0  0  0  0  0  0  0  0  0  0  0  0
    5.0963   -1.3874    0.5314 C   0  0  0  0  0  0  0  0  0  0  0  0
    3.7004   -1.3214    0.6748 C   0  0  0  0  0  0  0  0  0  0  0  0
    2.7349   -2.6161    1.1928 Cl  0  0  0  0  0  0  0  0  0  0  0  0
    3.3461   -0.0250    0.3432 C   0  0  0  0  0  0  0  0  0  0  0  0
    2.0634    0.6540    0.3050 C   0  0  0  0  0  0  0  0  0  0  0  0
    2.0060    1.8770    0.3674 O   0  0  0  0  0  0  0  0  0  0  0  0
    0.9803   -0.1910    0.1564 N   0  0  0  0  0  0  0  0  0  0  0  0
   -0.3669    0.1474    0.1020 C   0  0  0  0  0  0  0  0  0  0  0  0
   -0.8936    1.7540    0.3859 S   0  0  0  0  0  0  0  0  0  0  0  0
   -2.4798    1.3128    0.1449 C   0  0  0  0  0  0  0  0  0  0  0  0
   -2.6565   -0.0141   -0.1322 C   0  0  0  0  0  0  0  0  0  0  0  0
   -1.4250   -0.7361   -0.1494 C   0  0  0  0  0  0  0  0  0  0  0  0
   -1.2059   -2.1564   -0.4096 C   0  0  0  0  0  0  0  0  0  0  0  0
   -2.2992   -2.9701   -0.3411 N   0  0  0  0  0  0  0  0  0  0  0  0
   -0.0982   -2.6320   -0.6430 O   0  0  0  0  0  0  0  0  0  0  0  0
   -4.0979   -0.3058   -0.3589 C   0  0  0  0  0  0  0  0  0  0  0  0
   -4.7130    1.1187   -0.5224 C   0  0  0  0  0  0  0  0  0  0  0  0
   -3.7272    2.1106    0.1613 C   0  0  0  0  0  0  0  0  0  0  0  0
    4.5373    2.6118    0.5112 H   0  0  0  0  0  0  0  0  0  0  0  0
    4.1054    2.1898   -1.1906 H   0  0  0  0  0  0  0  0  0  0  0  0
    5.7999    2.1008   -0.6447 H   0  0  0  0  0  0  0  0  0  0  0  0
    5.7536   -2.2311    0.6969 H   0  0  0  0  0  0  0  0  0  0  0  0
    1.1707   -1.1805   -0.0000 H   0  0  0  0  0  0  0  0  0  0  0  0
   -3.1442   -2.6730    0.1208 H   0  0  0  0  0  0  0  0  0  0  0  0
   -2.1120   -3.9630   -0.3825 H   0  0  0  0  0  0  0  0  0  0  0  0
   -4.2742   -0.9121   -1.2516 H   0  0  0  0  0  0  0  0  0  0  0  0
   -4.5290   -0.8058    0.5148 H   0  0  0  0  0  0  0  0  0  0  0  0
   -5.7247    1.1852   -0.1104 H   0  0  0  0  0  0  0  0  0  0  0  0
   -4.7763    1.3583   -1.5922 H   0  0  0  0  0  0  0  0  0  0  0  0
   -4.0420    2.3195    1.1888 H   0  0  0  0  0  0  0  0  0  0  0  0
   -3.6534    3.0464   -0.3992 H   0  0  0  0  0  0  0  0  0  0  0  0
  1  2  1  0
  2  3  1  0
  3  4  2  0
  4  5  1  0
  5  6  1  0
  5  7  2  0
  7  8  1  0
  8  9  2  0
  8 10  1  0
 10 11  1  0
 11 12  1  0
 12 13  1  0
 13 14  2  0
 14 15  1  0
 15 16  1  0
 16 17  1  0
 16 18  2  0
 14 19  1  0
 19 20  1  0
 20 21  1  0
  7  2  1  0
 15 11  2  0
 21 13  1  0
  1 22  1  0
  1 23  1  0
  1 24  1  0
  4 25  1  0
 10 26  1  0
 17 27  1  0
 17 28  1  0
 19 29  1  0
 19 30  1  0
 20 31  1  0
 20 32  1  0
 21 33  1  0
 21 34  1  0
M  END
$$$$
