
     RDKit          3D

 38 38  0  0  0  0  0  0  0  0999 V2000
    5.7250    0.2705   -1.1014 C   0  0  0  0  0  0  0  0  0  0  0  0
    4.8094   -0.0109   -2.2767 C   0  0  0  0  0  0  0  0  0  0  0  0
    3.4585    0.2043   -1.8519 O   0  0  0  0  0  0  0  0  0  0  0  0
    2.5244   -0.0623   -2.8061 C   0  0  0  0  0  0  0  0  0  0  0  0
    2.7660   -0.3769   -3.9645 O   0  0  0  0  0  0  0  0  0  0  0  0
    1.1415    0.1579   -2.2706 C   0  0  0  0  0  0  0  0  0  0  0  0
    0.7574   -0.7999   -1.1731 C   0  0  0  0  0  0  0  0  0  0  0  0
    1.3896   -1.8287   -0.9436 O   0  0  0  0  0  0  0  0  0  0  0  0
   -0.4504   -0.4968   -0.3443 C   0  0  0  0  0  0  0  0  0  0  0  0
   -1.3765    0.4904   -0.7114 C   0  0  0  0  0  0  0  0  0  0  0  0
   -2.4887    0.7434    0.0959 C   0  0  0  0  0  0  0  0  0  0  0  0
   -3.4442    1.6905   -0.1685 O   0  0  0  0  0  0  0  0  0  0  0  0
   -3.4816    2.2397   -1.4786 C   0  0  0  0  0  0  0  0  0  0  0  0
   -2.6534    0.0096    1.2835 C   0  0  0  0  0  0  0  0  0  0  0  0
   -3.7714    0.2306    2.0576 O   0  0  0  0  0  0  0  0  0  0  0  0
   -3.4801    1.1967    3.0659 C   0  0  0  0  0  0  0  0  0  0  0  0
   -1.7509   -1.0031    1.6475 C   0  0  0  0  0  0  0  0  0  0  0  0
   -2.0253   -1.6757    2.8095 O   0  0  0  0  0  0  0  0  0  0  0  0
   -1.2397   -2.8243    3.1012 C   0  0  0  0  0  0  0  0  0  0  0  0
   -0.6466   -1.2434    0.8293 C   0  0  0  0  0  0  0  0  0  0  0  0
    5.4835   -0.3861   -0.2590 H   0  0  0  0  0  0  0  0  0  0  0  0
    6.7723    0.1201   -1.3778 H   0  0  0  0  0  0  0  0  0  0  0  0
    5.5962    1.2996   -0.7500 H   0  0  0  0  0  0  0  0  0  0  0  0
    5.0481    0.6681   -3.1028 H   0  0  0  0  0  0  0  0  0  0  0  0
    4.9352   -1.0493   -2.6032 H   0  0  0  0  0  0  0  0  0  0  0  0
    0.4356    0.0345   -3.0995 H   0  0  0  0  0  0  0  0  0  0  0  0
    1.0903    1.1933   -1.9174 H   0  0  0  0  0  0  0  0  0  0  0  0
   -1.2328    1.0556   -1.6238 H   0  0  0  0  0  0  0  0  0  0  0  0
   -2.6165    2.8869   -1.6544 H   0  0  0  0  0  0  0  0  0  0  0  0
   -4.3809    2.8582   -1.5567 H   0  0  0  0  0  0  0  0  0  0  0  0
   -3.5492    1.4548   -2.2394 H   0  0  0  0  0  0  0  0  0  0  0  0
   -2.7020    0.8400    3.7494 H   0  0  0  0  0  0  0  0  0  0  0  0
   -4.3922    1.3575    3.6484 H   0  0  0  0  0  0  0  0  0  0  0  0
   -3.1868    2.1565    2.6265 H   0  0  0  0  0  0  0  0  0  0  0  0
   -1.2942   -3.5604    2.2922 H   0  0  0  0  0  0  0  0  0  0  0  0
   -1.6503   -3.2896    4.0025 H   0  0  0  0  0  0  0  0  0  0  0  0
   -0.2028   -2.5453    3.3145 H   0  0  0  0  0  0  0  0  0  0  0  0
    0.0835   -2.0061    1.0861 H   0  0  0  0  0  0  0  0  0  0  0  0
  1  2  1  0
  2  3  1  0
  3  4  1  0
  4  5  2  0
  4  6  1  0
  6  7  1  0
  7  8  2  0
  7  9  1  0
  9 10  2  0
 10 11  1  0
 11 12  1  0
 12 13  1  0
 11 14  2  0
 14 15  1  0
 15 16  1  0
 14 17  1  0
 17 18  1  0
 18 19  1  0
 17 20  2  0
 20  9  1  0
  1 21  1  0
  1 22  1  0
  1 23  1  0
  2 24  1  0
  2 25  1  0
  6 26  1  0
  6 27  1  0
 10 28  1  0
 13 29  1  0
 13 30  1  0
 13 31  1  0
 16 32  1  0
 16 33  1  0
 16 34  1  0
 19 35  1  0
 19 36  1  0
 19 37  1  0
 20 38  1  0
M  END
$$$$
