
     RDKit          3D

 59 62  0  0  0  0  0  0  0  0999 V2000
   -8.5358    3.0949    2.8209 C   0  0  0  0  0  0  0  0  0  0  0  0
   -7.7641    2.2190    1.8784 C   0  0  0  0  0  0  0  0  0  0  0  0
   -7.8309    2.4569    0.4962 C   0  0  0  0  0  0  0  0  0  0  0  0
   -7.1112    1.6577   -0.3943 C   0  0  0  0  0  0  0  0  0  0  0  0
   -6.2950    0.6310    0.1010 C   0  0  0  0  0  0  0  0  0  0  0  0
   -5.5498   -0.2065   -0.8661 C   0  0  0  0  0  0  0  0  0  0  0  0
   -6.2004   -0.8021   -1.7228 O   0  0  0  0  0  0  0  0  0  0  0  0
   -4.1650   -0.2781   -0.7700 N   0  0  0  0  0  0  0  0  0  0  0  0
   -3.4476   -1.1166   -1.7325 C   0  0  0  0  0  0  0  0  0  0  0  0
   -2.0329   -1.5100   -1.2640 C   0  0  0  0  0  0  0  0  0  0  0  0
   -1.2241   -0.3327   -0.8948 N   0  0  0  0  0  0  0  0  0  0  0  0
    0.1494   -0.3246   -1.0999 C   0  0  0  0  0  0  0  0  0  0  0  0
    0.9013   -1.5111   -1.1490 C   0  0  0  0  0  0  0  0  0  0  0  0
    2.2924   -1.5156   -1.3555 C   0  0  0  0  0  0  0  0  0  0  0  0
    2.9825   -0.3172   -1.5103 C   0  0  0  0  0  0  0  0  0  0  0  0
    4.3687   -0.2179   -1.7251 N   0  0  0  0  0  0  0  0  0  0  0  0
    5.3010   -1.2431   -1.8147 C   0  0  0  0  0  0  0  0  0  0  0  0
    5.0705   -2.4457   -1.7223 O   0  0  0  0  0  0  0  0  0  0  0  0
    6.7003   -0.7430   -2.1454 C   0  0  0  0  0  0  0  0  0  0  0  0
    7.2300    0.5978   -1.0284 S   0  0  0  0  0  0  0  0  0  0  0  0
    7.7602   -0.3738    0.3738 C   0  0  0  0  0  0  0  0  0  0  0  0
    9.1300   -0.5594    0.6009 C   0  0  0  0  0  0  0  0  0  0  0  0
    9.5725   -1.2927    1.7066 C   0  0  0  0  0  0  0  0  0  0  0  0
    8.6441   -1.8349    2.5909 C   0  0  0  0  0  0  0  0  0  0  0  0
    9.1894   -2.7341    3.9552 Cl  0  0  0  0  0  0  0  0  0  0  0  0
    7.2782   -1.6487    2.3781 C   0  0  0  0  0  0  0  0  0  0  0  0
    6.8338   -0.9172    1.2704 C   0  0  0  0  0  0  0  0  0  0  0  0
    2.2614    0.8757   -1.4543 C   0  0  0  0  0  0  0  0  0  0  0  0
    0.8731    0.8678   -1.2518 C   0  0  0  0  0  0  0  0  0  0  0  0
   -1.9527    0.8929   -0.5264 C   0  0  0  0  0  0  0  0  0  0  0  0
   -3.3349    0.5822    0.0809 C   0  0  0  0  0  0  0  0  0  0  0  0
   -6.2139    0.3844    1.4818 C   0  0  0  0  0  0  0  0  0  0  0  0
   -6.9397    1.1852    2.3677 C   0  0  0  0  0  0  0  0  0  0  0  0
   -9.5013    3.3673    2.3857 H   0  0  0  0  0  0  0  0  0  0  0  0
   -8.7386    2.5819    3.7642 H   0  0  0  0  0  0  0  0  0  0  0  0
   -7.9713    4.0093    3.0296 H   0  0  0  0  0  0  0  0  0  0  0  0
   -8.4594    3.2613    0.1019 H   0  0  0  0  0  0  0  0  0  0  0  0
   -7.1810    1.8342   -1.4661 H   0  0  0  0  0  0  0  0  0  0  0  0
   -3.3797   -0.5403   -2.6658 H   0  0  0  0  0  0  0  0  0  0  0  0
   -4.0345   -2.0191   -1.9466 H   0  0  0  0  0  0  0  0  0  0  0  0
   -1.5681   -2.0736   -2.0825 H   0  0  0  0  0  0  0  0  0  0  0  0
   -2.1044   -2.1703   -0.3903 H   0  0  0  0  0  0  0  0  0  0  0  0
    0.4203   -2.4741   -0.9990 H   0  0  0  0  0  0  0  0  0  0  0  0
    2.7980   -2.4761   -1.3779 H   0  0  0  0  0  0  0  0  0  0  0  0
    4.7452    0.7235   -1.7890 H   0  0  0  0  0  0  0  0  0  0  0  0
    7.4103   -1.5732   -2.1125 H   0  0  0  0  0  0  0  0  0  0  0  0
    6.6814   -0.3548   -3.1702 H   0  0  0  0  0  0  0  0  0  0  0  0
    9.8624   -0.1329   -0.0787 H   0  0  0  0  0  0  0  0  0  0  0  0
   10.6403   -1.4300    1.8733 H   0  0  0  0  0  0  0  0  0  0  0  0
    6.5523   -2.0647    3.0716 H   0  0  0  0  0  0  0  0  0  0  0  0
    5.7623   -0.7728    1.1285 H   0  0  0  0  0  0  0  0  0  0  0  0
    2.7591    1.8361   -1.5720 H   0  0  0  0  0  0  0  0  0  0  0  0
    0.3688    1.8297   -1.2379 H   0  0  0  0  0  0  0  0  0  0  0  0
   -2.0798    1.5208   -1.4207 H   0  0  0  0  0  0  0  0  0  0  0  0
   -1.3898    1.4634    0.2229 H   0  0  0  0  0  0  0  0  0  0  0  0
   -3.8521    1.5253    0.2871 H   0  0  0  0  0  0  0  0  0  0  0  0
   -3.2047    0.0480    1.0317 H   0  0  0  0  0  0  0  0  0  0  0  0
   -5.5995   -0.4301    1.8653 H   0  0  0  0  0  0  0  0  0  0  0  0
   -6.8770    0.9905    3.4367 H   0  0  0  0  0  0  0  0  0  0  0  0
  1  2  1  0
  2  3  2  0
  3  4  1  0
  4  5  2  0
  5  6  1  0
  6  7  2  0
  6  8  1  0
  8  9  1  0
  9 10  1  0
 10 11  1  0
 11 12  1  0
 12 13  2  0
 13 14  1  0
 14 15  2  0
 15 16  1  0
 16 17  1  0
 17 18  2  0
 17 19  1  0
 19 20  1  0
 20 21  1  0
 21 22  2  0
 22 23  1  0
 23 24  2  0
 24 25  1  0
 24 26  1  0
 26 27  2  0
 15 28  1  0
 28 29  2  0
 11 30  1  0
 30 31  1  0
  5 32  1  0
 32 33  2  0
 33  2  1  0
 31  8  1  0
 29 12  1  0
 27 21  1  0
  1 34  1  0
  1 35  1  0
  1 36  1  0
  3 37  1  0
  4 38  1  0
  9 39  1  0
  9 40  1  0
 10 41  1  0
 10 42  1  0
 13 43  1  0
 14 44  1  0
 16 45  1  0
 19 46  1  0
 19 47  1  0
 22 48  1  0
 23 49  1  0
 26 50  1  0
 27 51  1  0
 28 52  1  0
 29 53  1  0
 30 54  1  0
 30 55  1  0
 31 56  1  0
 31 57  1  0
 32 58  1  0
 33 59  1  0
M  END
$$$$
