
     RDKit          3D

 41 43  0  0  0  0  0  0  0  0999 V2000
    2.2192    1.2016   -0.4199 O   0  0  0  0  0  0  0  0  0  0  0  0
    1.2328    1.0085    0.2863 C   0  0  0  0  0  0  0  0  0  0  0  0
    1.2070    1.4562    1.7410 C   0  0  0  0  0  0  0  0  0  0  0  0
    1.7886    0.0972    2.8098 S   0  0  0  0  0  0  0  0  0  0  0  0
    3.5128    0.0502    2.3065 C   0  0  0  0  0  0  0  0  0  0  0  0
    4.0072   -1.1372    1.7399 C   0  0  0  0  0  0  0  0  0  0  0  0
    5.3363   -1.2259    1.3320 C   0  0  0  0  0  0  0  0  0  0  0  0
    6.1835   -0.1381    1.4917 C   0  0  0  0  0  0  0  0  0  0  0  0
    5.6908    1.0305    2.0665 C   0  0  0  0  0  0  0  0  0  0  0  0
    4.3704    1.1459    2.4843 N   0  0  0  0  0  4  0  0  0  0  0  0
    3.9897    2.2378    3.0262 O   0  0  0  0  0  1  0  0  0  0  0  0
    0.0728    0.3576   -0.0945 N   0  0  0  0  0  0  0  0  0  0  0  0
   -0.2444   -0.1910   -1.3565 C   0  0  0  0  0  0  0  0  0  0  0  0
    0.5817   -0.1009   -2.4775 C   0  0  0  0  0  0  0  0  0  0  0  0
    0.1913   -0.6768   -3.6926 C   0  0  0  0  0  0  0  0  0  0  0  0
   -1.0243   -1.3518   -3.7983 C   0  0  0  0  0  0  0  0  0  0  0  0
   -1.8609   -1.4484   -2.6897 C   0  0  0  0  0  0  0  0  0  0  0  0
   -1.4782   -0.8538   -1.4829 C   0  0  0  0  0  0  0  0  0  0  0  0
   -2.2774   -0.9698   -0.3629 O   0  0  0  0  0  0  0  0  0  0  0  0
   -3.5451   -0.4350   -0.4373 C   0  0  0  0  0  0  0  0  0  0  0  0
   -4.5473   -1.1230    0.2488 C   0  0  0  0  0  0  0  0  0  0  0  0
   -5.8533   -0.6319    0.2544 C   0  0  0  0  0  0  0  0  0  0  0  0
   -6.1543    0.5541   -0.4148 C   0  0  0  0  0  0  0  0  0  0  0  0
   -5.1495    1.2531   -1.0842 C   0  0  0  0  0  0  0  0  0  0  0  0
   -3.8419    0.7641   -1.0912 C   0  0  0  0  0  0  0  0  0  0  0  0
    1.8002    2.3669    1.8510 H   0  0  0  0  0  0  0  0  0  0  0  0
    0.1823    1.7113    2.0315 H   0  0  0  0  0  0  0  0  0  0  0  0
    3.3505   -1.9938    1.6035 H   0  0  0  0  0  0  0  0  0  0  0  0
    5.7067   -2.1456    0.8838 H   0  0  0  0  0  0  0  0  0  0  0  0
    7.2210   -0.1932    1.1736 H   0  0  0  0  0  0  0  0  0  0  0  0
    6.2700    1.9253    2.2377 H   0  0  0  0  0  0  0  0  0  0  0  0
   -0.6320    0.1976    0.6196 H   0  0  0  0  0  0  0  0  0  0  0  0
    1.5380    0.4113   -2.4430 H   0  0  0  0  0  0  0  0  0  0  0  0
    0.8462   -0.5995   -4.5576 H   0  0  0  0  0  0  0  0  0  0  0  0
   -1.3157   -1.8043   -4.7427 H   0  0  0  0  0  0  0  0  0  0  0  0
   -2.8029   -1.9842   -2.7656 H   0  0  0  0  0  0  0  0  0  0  0  0
   -4.3130   -2.0442    0.7754 H   0  0  0  0  0  0  0  0  0  0  0  0
   -6.6349   -1.1719    0.7827 H   0  0  0  0  0  0  0  0  0  0  0  0
   -7.1716    0.9378   -0.4095 H   0  0  0  0  0  0  0  0  0  0  0  0
   -5.3836    2.1827   -1.5969 H   0  0  0  0  0  0  0  0  0  0  0  0
   -3.0688    1.3306   -1.6028 H   0  0  0  0  0  0  0  0  0  0  0  0
  1  2  2  0
  2  3  1  0
  3  4  1  0
  4  5  1  0
  5  6  2  0
  6  7  1  0
  7  8  2  0
  8  9  1  0
  9 10  2  0
 10 11  1  0
  2 12  1  0
 12 13  1  0
 13 14  2  0
 14 15  1  0
 15 16  2  0
 16 17  1  0
 17 18  2  0
 18 19  1  0
 19 20  1  0
 20 21  2  0
 21 22  1  0
 22 23  2  0
 23 24  1  0
 24 25  2  0
 10  5  1  0
 18 13  1  0
 25 20  1  0
  3 26  1  0
  3 27  1  0
  6 28  1  0
  7 29  1  0
  8 30  1  0
  9 31  1  0
 12 32  1  0
 14 33  1  0
 15 34  1  0
 16 35  1  0
 17 36  1  0
 21 37  1  0
 22 38  1  0
 23 39  1  0
 24 40  1  0
 25 41  1  0
M  CHG  2  10   1  11  -1
M  END
$$$$
