
     RDKit          3D

 38 38  0  0  0  0  0  0  0  0999 V2000
    4.5794   -0.9493   -4.1883 C   0  0  0  0  0  0  0  0  0  0  0  0
    3.7047   -1.2885   -2.9971 C   0  0  0  0  0  0  0  0  0  0  0  0
    3.3533   -0.0659   -2.3335 O   0  0  0  0  0  0  0  0  0  0  0  0
    2.5154   -0.2285   -1.2693 C   0  0  0  0  0  0  0  0  0  0  0  0
    2.0300   -1.2934   -0.9172 O   0  0  0  0  0  0  0  0  0  0  0  0
    2.2329    1.1017   -0.6335 C   0  0  0  0  0  0  0  0  0  0  0  0
    1.6513    0.9526    0.7501 C   0  0  0  0  0  0  0  0  0  0  0  0
    2.3661    0.9745    1.7527 O   0  0  0  0  0  0  0  0  0  0  0  0
    0.1909    0.7085    0.9107 C   0  0  0  0  0  0  0  0  0  0  0  0
   -0.7601    1.3537    0.1085 C   0  0  0  0  0  0  0  0  0  0  0  0
   -2.1182    1.0948    0.2974 C   0  0  0  0  0  0  0  0  0  0  0  0
   -3.1275    1.6636   -0.4382 O   0  0  0  0  0  0  0  0  0  0  0  0
   -2.8224    2.8547   -1.1483 C   0  0  0  0  0  0  0  0  0  0  0  0
   -2.5089    0.1783    1.2894 C   0  0  0  0  0  0  0  0  0  0  0  0
   -3.8548   -0.0176    1.5213 O   0  0  0  0  0  0  0  0  0  0  0  0
   -4.3150   -1.1531    0.7886 C   0  0  0  0  0  0  0  0  0  0  0  0
   -1.5638   -0.4470    2.1220 C   0  0  0  0  0  0  0  0  0  0  0  0
   -2.0584   -1.2934    3.0787 O   0  0  0  0  0  0  0  0  0  0  0  0
   -1.1427   -1.7915    4.0458 C   0  0  0  0  0  0  0  0  0  0  0  0
   -0.2103   -0.1787    1.9199 C   0  0  0  0  0  0  0  0  0  0  0  0
    4.0427   -0.2981   -4.8879 H   0  0  0  0  0  0  0  0  0  0  0  0
    4.8895   -1.8564   -4.7168 H   0  0  0  0  0  0  0  0  0  0  0  0
    5.4745   -0.4044   -3.8669 H   0  0  0  0  0  0  0  0  0  0  0  0
    2.7990   -1.8051   -3.3388 H   0  0  0  0  0  0  0  0  0  0  0  0
    4.2628   -1.9281   -2.3020 H   0  0  0  0  0  0  0  0  0  0  0  0
    1.5721    1.6757   -1.2919 H   0  0  0  0  0  0  0  0  0  0  0  0
    3.1695    1.6701   -0.5341 H   0  0  0  0  0  0  0  0  0  0  0  0
   -0.4428    2.0646   -0.6422 H   0  0  0  0  0  0  0  0  0  0  0  0
   -3.7641    3.2740   -1.5210 H   0  0  0  0  0  0  0  0  0  0  0  0
   -2.3584    3.6038   -0.4955 H   0  0  0  0  0  0  0  0  0  0  0  0
   -2.1868    2.6401   -2.0125 H   0  0  0  0  0  0  0  0  0  0  0  0
   -4.1709   -1.0195   -0.2914 H   0  0  0  0  0  0  0  0  0  0  0  0
   -5.3892   -1.2564    0.9791 H   0  0  0  0  0  0  0  0  0  0  0  0
   -3.8256   -2.0740    1.1248 H   0  0  0  0  0  0  0  0  0  0  0  0
   -1.7157   -2.3578    4.7857 H   0  0  0  0  0  0  0  0  0  0  0  0
   -0.6344   -0.9770    4.5729 H   0  0  0  0  0  0  0  0  0  0  0  0
   -0.4217   -2.4754    3.5878 H   0  0  0  0  0  0  0  0  0  0  0  0
    0.5577   -0.6520    2.5262 H   0  0  0  0  0  0  0  0  0  0  0  0
  1  2  1  0
  2  3  1  0
  3  4  1  0
  4  5  2  0
  4  6  1  0
  6  7  1  0
  7  8  2  0
  7  9  1  0
  9 10  2  0
 10 11  1  0
 11 12  1  0
 12 13  1  0
 11 14  2  0
 14 15  1  0
 15 16  1  0
 14 17  1  0
 17 18  1  0
 18 19  1  0
 17 20  2  0
 20  9  1  0
  1 21  1  0
  1 22  1  0
  1 23  1  0
  2 24  1  0
  2 25  1  0
  6 26  1  0
  6 27  1  0
 10 28  1  0
 13 29  1  0
 13 30  1  0
 13 31  1  0
 16 32  1  0
 16 33  1  0
 16 34  1  0
 19 35  1  0
 19 36  1  0
 19 37  1  0
 20 38  1  0
M  END
$$$$
