
     RDKit          3D

 54 58  0  0  0  0  0  0  0  0999 V2000
    4.4532    1.8446   -0.5125 F   0  0  0  0  0  0  0  0  0  0  0  0
    5.4458    1.4453   -1.3574 C   0  0  0  0  0  0  0  0  0  0  0  0
    6.4518    2.3502   -1.1860 F   0  0  0  0  0  0  0  0  0  0  0  0
    4.9730    1.6569   -2.6171 F   0  0  0  0  0  0  0  0  0  0  0  0
    5.8747    0.0114   -1.1283 C   0  0  0  0  0  0  0  0  0  0  0  0
    7.2441   -0.2711   -0.9562 C   0  0  0  0  0  0  0  0  0  0  0  0
    7.6907   -1.5768   -0.7535 C   0  0  0  0  0  0  0  0  0  0  0  0
    6.7776   -2.6242   -0.7224 C   0  0  0  0  0  0  0  0  0  0  0  0
    5.4184   -2.3679   -0.8949 C   0  0  0  0  0  0  0  0  0  0  0  0
    4.9493   -1.0580   -1.1027 C   0  0  0  0  0  0  0  0  0  0  0  0
    3.4552   -0.8497   -1.2662 C   0  0  0  0  0  0  0  0  0  0  0  0
    2.7415   -0.7404    0.0936 C   0  0  0  0  0  0  0  0  0  0  0  0
    1.2841   -0.5913   -0.0271 N   0  0  0  0  0  0  0  0  0  0  0  0
    0.6136   -0.8580    1.2687 C   0  0  0  0  0  0  0  0  0  0  0  0
   -0.6654   -0.0326    1.5511 C   0  0  0  0  0  0  0  0  0  0  0  0
   -1.4345    0.1679    0.3220 N   0  0  0  0  0  0  0  0  0  0  0  0
   -2.8104    0.3582    0.3783 C   0  0  0  0  0  0  0  0  0  0  0  0
   -3.3243    1.4308   -0.1707 N   0  0  0  0  0  0  0  0  0  0  0  0
   -4.7085    1.6822   -0.1009 C   0  0  0  0  0  0  0  0  0  0  0  0
   -5.2004    2.8502   -0.6869 C   0  0  0  0  0  0  0  0  0  0  0  0
   -6.5633    3.1552   -0.6359 C   0  0  0  0  0  0  0  0  0  0  0  0
   -7.4509    2.2904    0.0055 C   0  0  0  0  0  0  0  0  0  0  0  0
   -6.9819    1.1172    0.5975 C   0  0  0  0  0  0  0  0  0  0  0  0
   -5.6156    0.8261    0.5388 C   0  0  0  0  0  0  0  0  0  0  0  0
   -5.0612   -0.3387    1.0931 N   0  0  0  0  0  0  0  0  0  0  0  0
   -5.6805   -1.3769    1.7484 C   0  0  0  0  0  0  0  0  0  0  0  0
   -4.7310   -2.3349    2.0307 C   0  0  0  0  0  0  0  0  0  0  0  0
   -3.4933   -1.8525    1.5459 C   0  0  0  0  0  0  0  0  0  0  0  0
   -3.7107   -0.5953    1.0096 C   0  0  0  0  0  0  0  0  0  0  0  0
   -0.6652    0.8319   -0.7492 C   0  0  0  0  0  0  0  0  0  0  0  0
    0.8689    0.7204   -0.5538 C   0  0  0  0  0  0  0  0  0  0  0  0
    7.9777    0.5344   -0.9804 H   0  0  0  0  0  0  0  0  0  0  0  0
    8.7516   -1.7755   -0.6222 H   0  0  0  0  0  0  0  0  0  0  0  0
    7.1228   -3.6432   -0.5659 H   0  0  0  0  0  0  0  0  0  0  0  0
    4.7188   -3.2023   -0.8688 H   0  0  0  0  0  0  0  0  0  0  0  0
    3.2743    0.0320   -1.8874 H   0  0  0  0  0  0  0  0  0  0  0  0
    3.0399   -1.6928   -1.8348 H   0  0  0  0  0  0  0  0  0  0  0  0
    2.9532   -1.6636    0.6505 H   0  0  0  0  0  0  0  0  0  0  0  0
    3.1646    0.0801    0.6872 H   0  0  0  0  0  0  0  0  0  0  0  0
    1.2960   -0.6907    2.1125 H   0  0  0  0  0  0  0  0  0  0  0  0
    0.3527   -1.9234    1.2809 H   0  0  0  0  0  0  0  0  0  0  0  0
   -0.3884    0.9496    1.9564 H   0  0  0  0  0  0  0  0  0  0  0  0
   -1.2433   -0.5328    2.3337 H   0  0  0  0  0  0  0  0  0  0  0  0
   -4.5110    3.5263   -1.1855 H   0  0  0  0  0  0  0  0  0  0  0  0
   -6.9297    4.0686   -1.0975 H   0  0  0  0  0  0  0  0  0  0  0  0
   -8.5105    2.5315    0.0416 H   0  0  0  0  0  0  0  0  0  0  0  0
   -7.6910    0.4584    1.0871 H   0  0  0  0  0  0  0  0  0  0  0  0
   -6.7424   -1.3735    1.9458 H   0  0  0  0  0  0  0  0  0  0  0  0
   -4.9146   -3.2833    2.5190 H   0  0  0  0  0  0  0  0  0  0  0  0
   -2.5433   -2.3689    1.5796 H   0  0  0  0  0  0  0  0  0  0  0  0
   -0.9389    0.3630   -1.7020 H   0  0  0  0  0  0  0  0  0  0  0  0
   -0.9198    1.8966   -0.8119 H   0  0  0  0  0  0  0  0  0  0  0  0
    1.2039    1.5161    0.1255 H   0  0  0  0  0  0  0  0  0  0  0  0
    1.3325    0.9227   -1.5249 H   0  0  0  0  0  0  0  0  0  0  0  0
  1  2  1  0
  2  3  1  0
  2  4  1  0
  2  5  1  0
  5  6  2  0
  6  7  1  0
  7  8  2  0
  8  9  1  0
  9 10  2  0
 10 11  1  0
 11 12  1  0
 12 13  1  0
 13 14  1  0
 14 15  1  0
 15 16  1  0
 16 17  1  0
 17 18  2  0
 18 19  1  0
 19 20  2  0
 20 21  1  0
 21 22  2  0
 22 23  1  0
 23 24  2  0
 24 25  1  0
 25 26  1  0
 26 27  2  0
 27 28  1  0
 28 29  2  0
 16 30  1  0
 30 31  1  0
 10  5  1  0
 31 13  1  0
 29 17  1  0
 24 19  1  0
 29 25  1  0
  6 32  1  0
  7 33  1  0
  8 34  1  0
  9 35  1  0
 11 36  1  0
 11 37  1  0
 12 38  1  0
 12 39  1  0
 14 40  1  0
 14 41  1  0
 15 42  1  0
 15 43  1  0
 20 44  1  0
 21 45  1  0
 22 46  1  0
 23 47  1  0
 26 48  1  0
 27 49  1  0
 28 50  1  0
 30 51  1  0
 30 52  1  0
 31 53  1  0
 31 54  1  0
M  END
$$$$
