
     RDKit          3D

 52 54  0  0  0  0  0  0  0  0999 V2000
    6.1977   -1.7802    0.0392 C   0  0  0  0  0  0  0  0  0  0  0  0
    4.7910   -1.3889    0.3861 C   0  0  0  0  0  0  0  0  0  0  0  0
    4.0974   -0.4599   -0.3989 C   0  0  0  0  0  0  0  0  0  0  0  0
    2.7744   -0.1085   -0.0977 C   0  0  0  0  0  0  0  0  0  0  0  0
    2.0511    0.8895   -0.9565 C   0  0  0  0  0  0  0  0  0  0  0  0
    2.1588   -0.6901    1.0222 C   0  0  0  0  0  0  0  0  0  0  0  0
    0.8674   -0.3363    1.3217 O   0  0  0  0  0  0  0  0  0  0  0  0
    0.8487    0.7102    2.3013 C   0  0  0  0  0  0  0  0  0  0  0  0
   -0.4952    1.4435    2.2891 C   0  0  0  0  0  0  0  0  0  0  0  0
   -0.8381    2.1464    3.2362 O   0  0  0  0  0  0  0  0  0  0  0  0
   -1.1988    1.2392    1.1245 N   0  0  0  0  0  0  0  0  0  0  0  0
   -2.4527    1.7413    0.7319 C   0  0  0  0  0  0  0  0  0  0  0  0
   -3.2055    2.6307    1.4993 C   0  0  0  0  0  0  0  0  0  0  0  0
   -4.4329    3.0953    1.0244 C   0  0  0  0  0  0  0  0  0  0  0  0
   -4.9110    2.6723   -0.2134 C   0  0  0  0  0  0  0  0  0  0  0  0
   -4.1641    1.7802   -0.9860 C   0  0  0  0  0  0  0  0  0  0  0  0
   -2.9266    1.3023   -0.5314 C   0  0  0  0  0  0  0  0  0  0  0  0
   -2.1490    0.3706   -1.2646 N   0  0  0  0  0  0  0  0  0  0  0  0
   -2.5436   -1.0264   -0.9447 C   0  0  0  0  0  0  0  0  0  0  0  0
   -1.9024   -1.9864   -1.9580 C   0  0  0  0  0  0  0  0  0  0  0  0
   -2.3418   -1.7651   -3.3090 O   0  0  0  0  0  0  0  0  0  0  0  0
   -2.7633   -0.4147   -3.5564 C   0  0  0  0  0  0  0  0  0  0  0  0
   -2.0079    0.6280   -2.7180 C   0  0  0  0  0  0  0  0  0  0  0  0
    2.8099   -1.6723    1.7826 C   0  0  0  0  0  0  0  0  0  0  0  0
    2.1436   -2.3516    2.9439 C   0  0  0  0  0  0  0  0  0  0  0  0
    4.1356   -1.9993    1.4631 C   0  0  0  0  0  0  0  0  0  0  0  0
    6.1931   -2.6818   -0.5810 H   0  0  0  0  0  0  0  0  0  0  0  0
    6.7803   -1.9740    0.9459 H   0  0  0  0  0  0  0  0  0  0  0  0
    6.7060   -0.9791   -0.5078 H   0  0  0  0  0  0  0  0  0  0  0  0
    4.5934   -0.0075   -1.2556 H   0  0  0  0  0  0  0  0  0  0  0  0
    1.9273    1.8346   -0.4186 H   0  0  0  0  0  0  0  0  0  0  0  0
    2.6014    1.0953   -1.8808 H   0  0  0  0  0  0  0  0  0  0  0  0
    1.0682    0.5038   -1.2453 H   0  0  0  0  0  0  0  0  0  0  0  0
    0.9760    0.2728    3.2971 H   0  0  0  0  0  0  0  0  0  0  0  0
    1.6289    1.4592    2.1178 H   0  0  0  0  0  0  0  0  0  0  0  0
   -0.7803    0.6153    0.4354 H   0  0  0  0  0  0  0  0  0  0  0  0
   -2.8583    2.9811    2.4658 H   0  0  0  0  0  0  0  0  0  0  0  0
   -5.0155    3.7886    1.6264 H   0  0  0  0  0  0  0  0  0  0  0  0
   -5.8705    3.0331   -0.5758 H   0  0  0  0  0  0  0  0  0  0  0  0
   -4.5721    1.4525   -1.9364 H   0  0  0  0  0  0  0  0  0  0  0  0
   -2.2085   -1.2873    0.0656 H   0  0  0  0  0  0  0  0  0  0  0  0
   -3.6351   -1.1382   -0.9879 H   0  0  0  0  0  0  0  0  0  0  0  0
   -2.1430   -3.0231   -1.7022 H   0  0  0  0  0  0  0  0  0  0  0  0
   -0.8105   -1.8873   -1.9429 H   0  0  0  0  0  0  0  0  0  0  0  0
   -2.6132   -0.2174   -4.6224 H   0  0  0  0  0  0  0  0  0  0  0  0
   -3.8410   -0.3629   -3.3659 H   0  0  0  0  0  0  0  0  0  0  0  0
   -0.9384    0.5511   -2.9488 H   0  0  0  0  0  0  0  0  0  0  0  0
   -2.3147    1.6433   -2.9951 H   0  0  0  0  0  0  0  0  0  0  0  0
    2.5824   -3.3388    3.1260 H   0  0  0  0  0  0  0  0  0  0  0  0
    2.2600   -1.7490    3.8498 H   0  0  0  0  0  0  0  0  0  0  0  0
    1.0777   -2.5095    2.7502 H   0  0  0  0  0  0  0  0  0  0  0  0
    4.6633   -2.7447    2.0557 H   0  0  0  0  0  0  0  0  0  0  0  0
  1  2  1  0
  2  3  2  0
  3  4  1  0
  4  5  1  0
  4  6  2  0
  6  7  1  0
  7  8  1  0
  8  9  1  0
  9 10  2  0
  9 11  1  0
 11 12  1  0
 12 13  2  0
 13 14  1  0
 14 15  2  0
 15 16  1  0
 16 17  2  0
 17 18  1  0
 18 19  1  0
 19 20  1  0
 20 21  1  0
 21 22  1  0
 22 23  1  0
  6 24  1  0
 24 25  1  0
 24 26  2  0
 26  2  1  0
 17 12  1  0
 23 18  1  0
  1 27  1  0
  1 28  1  0
  1 29  1  0
  3 30  1  0
  5 31  1  0
  5 32  1  0
  5 33  1  0
  8 34  1  0
  8 35  1  0
 11 36  1  0
 13 37  1  0
 14 38  1  0
 15 39  1  0
 16 40  1  0
 19 41  1  0
 19 42  1  0
 20 43  1  0
 20 44  1  0
 22 45  1  0
 22 46  1  0
 23 47  1  0
 23 48  1  0
 25 49  1  0
 25 50  1  0
 25 51  1  0
 26 52  1  0
M  END
$$$$
