
     RDKit          3D

 61 67  0  0  0  0  0  0  0  0999 V2000
    3.3643    1.4254   -2.3696 O   0  0  0  0  0  0  0  0  0  0  0  0
    3.2296    0.7358   -1.3618 C   0  0  0  0  0  0  0  0  0  0  0  0
    4.4618    0.2636   -0.6920 C   0  0  0  0  0  0  0  0  0  0  0  0
    5.4572   -0.3540   -1.4769 C   0  0  0  0  0  0  0  0  0  0  0  0
    6.6492   -0.7895   -0.8914 C   0  0  0  0  0  0  0  0  0  0  0  0
    6.8101   -0.5792    0.4612 C   0  0  0  0  0  0  0  0  0  0  0  0
    5.8456    0.0429    1.2220 C   0  0  0  0  0  0  0  0  0  0  0  0
    4.6611    0.4882    0.6761 C   0  0  0  0  0  0  0  0  0  0  0  0
    6.2098    0.1550    2.5273 O   0  0  0  0  0  0  0  0  0  0  0  0
    7.5192   -0.4525    2.4990 C   0  0  0  0  0  0  0  0  0  0  0  0
    7.8999   -0.9337    1.1931 O   0  0  0  0  0  0  0  0  0  0  0  0
    1.9823    0.3970   -0.8181 N   0  0  0  0  0  0  0  0  0  0  0  0
    1.7678   -0.8544   -0.0949 C   0  0  0  0  0  0  0  0  0  0  0  0
    0.5586   -0.7685    0.8321 C   0  0  0  0  0  0  0  0  0  0  0  0
   -0.7318   -0.3490    0.0734 C   0  0  0  0  0  0  0  0  0  0  0  0
   -0.4128    0.9957   -0.6291 C   0  0  0  0  0  0  0  0  0  0  0  0
    0.8167    0.9063   -1.5304 C   0  0  0  0  0  0  0  0  0  0  0  0
   -1.0172   -1.2937   -0.9883 O   0  0  0  0  0  0  0  0  0  0  0  0
   -1.5278   -2.4996   -0.5935 C   0  0  0  0  0  0  0  0  0  0  0  0
   -1.4325   -3.5396   -1.5184 C   0  0  0  0  0  0  0  0  0  0  0  0
   -1.8997   -4.8118   -1.1852 C   0  0  0  0  0  0  0  0  0  0  0  0
   -2.4669   -5.0321    0.0660 C   0  0  0  0  0  0  0  0  0  0  0  0
   -2.9015   -6.2566    0.3834 F   0  0  0  0  0  0  0  0  0  0  0  0
   -2.5860   -4.0024    0.9899 C   0  0  0  0  0  0  0  0  0  0  0  0
   -2.1209   -2.7302    0.6487 C   0  0  0  0  0  0  0  0  0  0  0  0
   -2.2603   -1.6053    1.5926 C   0  0  0  0  0  0  0  0  0  0  0  0
   -2.6425   -1.8204    2.7380 O   0  0  0  0  0  0  0  0  0  0  0  0
   -1.9598   -0.2244    1.0199 C   0  0  0  0  0  0  0  0  0  0  0  0
   -3.2424    0.2931    0.3769 C   0  0  0  0  0  0  0  0  0  0  0  0
   -3.2460    1.6770    0.9238 C   0  0  0  0  0  0  0  0  0  0  0  0
   -4.1818    2.7159    0.4319 C   0  0  0  0  0  0  0  0  0  0  0  0
   -5.1173    2.4435   -0.5737 C   0  0  0  0  0  0  0  0  0  0  0  0
   -5.9861    3.4489   -1.0135 C   0  0  0  0  0  0  0  0  0  0  0  0
   -5.9264    4.7196   -0.4444 C   0  0  0  0  0  0  0  0  0  0  0  0
   -7.0017    5.9476   -0.9838 Cl  0  0  0  0  0  0  0  0  0  0  0  0
   -5.0019    4.9983    0.5587 C   0  0  0  0  0  0  0  0  0  0  0  0
   -4.1294    3.9974    0.9962 C   0  0  0  0  0  0  0  0  0  0  0  0
   -2.3799    1.8926    1.8605 N   0  0  0  0  0  0  0  0  0  0  0  0
   -1.6843    0.6841    2.0905 O   0  0  0  0  0  0  0  0  0  0  0  0
    5.2986   -0.4840   -2.5451 H   0  0  0  0  0  0  0  0  0  0  0  0
    7.4251   -1.2663   -1.4797 H   0  0  0  0  0  0  0  0  0  0  0  0
    3.9221    0.9969    1.2837 H   0  0  0  0  0  0  0  0  0  0  0  0
    7.5302   -1.2975    3.1985 H   0  0  0  0  0  0  0  0  0  0  0  0
    8.2568    0.2874    2.8284 H   0  0  0  0  0  0  0  0  0  0  0  0
    1.6335   -1.6446   -0.8436 H   0  0  0  0  0  0  0  0  0  0  0  0
    2.6452   -1.1356    0.4899 H   0  0  0  0  0  0  0  0  0  0  0  0
    0.4424   -1.7458    1.3135 H   0  0  0  0  0  0  0  0  0  0  0  0
    0.7720   -0.0445    1.6298 H   0  0  0  0  0  0  0  0  0  0  0  0
   -0.2352    1.7780    0.1197 H   0  0  0  0  0  0  0  0  0  0  0  0
   -1.2528    1.3190   -1.2553 H   0  0  0  0  0  0  0  0  0  0  0  0
    1.0331    1.9025   -1.9330 H   0  0  0  0  0  0  0  0  0  0  0  0
    0.6322    0.2474   -2.3875 H   0  0  0  0  0  0  0  0  0  0  0  0
   -0.9796   -3.3675   -2.4916 H   0  0  0  0  0  0  0  0  0  0  0  0
   -1.8200   -5.6346   -1.8898 H   0  0  0  0  0  0  0  0  0  0  0  0
   -3.0395   -4.1985    1.9577 H   0  0  0  0  0  0  0  0  0  0  0  0
   -4.1417   -0.2225    0.7306 H   0  0  0  0  0  0  0  0  0  0  0  0
   -3.2242    0.2691   -0.7140 H   0  0  0  0  0  0  0  0  0  0  0  0
   -5.1979    1.4610   -1.0289 H   0  0  0  0  0  0  0  0  0  0  0  0
   -6.7099    3.2325   -1.7953 H   0  0  0  0  0  0  0  0  0  0  0  0
   -4.9532    5.9894    1.0068 H   0  0  0  0  0  0  0  0  0  0  0  0
   -3.4134    4.2268    1.7842 H   0  0  0  0  0  0  0  0  0  0  0  0
  1  2  2  0
  2  3  1  0
  3  4  2  0
  4  5  1  0
  5  6  2  0
  6  7  1  0
  7  8  2  0
  7  9  1  0
  9 10  1  0
 10 11  1  0
  2 12  1  0
 12 13  1  0
 13 14  1  0
 14 15  1  0
 15 16  1  0
 16 17  1  0
 15 18  1  0
 18 19  1  0
 19 20  2  0
 20 21  1  0
 21 22  2  0
 22 23  1  0
 22 24  1  0
 24 25  2  0
 25 26  1  0
 26 27  2  0
 26 28  1  0
 28 29  1  0
 29 30  1  0
 30 31  1  0
 31 32  2  0
 32 33  1  0
 33 34  2  0
 34 35  1  0
 34 36  1  0
 36 37  2  0
 30 38  2  0
 38 39  1  0
  8  3  1  0
 17 12  1  0
 25 19  1  0
 39 28  1  0
 11  6  1  0
 28 15  1  0
 37 31  1  0
  4 40  1  0
  5 41  1  0
  8 42  1  0
 10 43  1  0
 10 44  1  0
 13 45  1  0
 13 46  1  0
 14 47  1  0
 14 48  1  0
 16 49  1  0
 16 50  1  0
 17 51  1  0
 17 52  1  0
 20 53  1  0
 21 54  1  0
 24 55  1  0
 29 56  1  0
 29 57  1  0
 32 58  1  0
 33 59  1  0
 36 60  1  0
 37 61  1  0
M  END
$$$$
