
     RDKit          3D

 59 62  0  0  0  0  0  0  0  0999 V2000
    7.2666    4.0401    0.5612 C   0  0  0  0  0  0  0  0  0  0  0  0
    6.2727    2.9222    0.4489 C   0  0  0  0  0  0  0  0  0  0  0  0
    5.6814    2.6224   -0.7799 C   0  0  0  0  0  0  0  0  0  0  0  0
    4.7741    1.5652   -0.8916 C   0  0  0  0  0  0  0  0  0  0  0  0
    4.4578    0.7690    0.2218 C   0  0  0  0  0  0  0  0  0  0  0  0
    3.5134   -0.2933    0.0619 N   0  0  0  0  0  0  0  0  0  0  0  0
    2.7205   -0.2967   -1.0449 N   0  0  0  0  0  0  0  0  0  0  0  0
    1.8149   -1.2507   -0.8247 C   0  0  0  0  0  0  0  0  0  0  0  0
    0.7027   -1.6049   -1.6976 C   0  0  0  0  0  0  0  0  0  0  0  0
    0.4434   -1.0225   -2.7473 O   0  0  0  0  0  0  0  0  0  0  0  0
   -0.0459   -2.6937   -1.2052 N   0  0  0  0  0  0  0  0  0  0  0  0
   -1.1708   -3.1850   -2.0006 C   0  0  0  0  0  0  0  0  0  0  0  0
   -2.4964   -2.5101   -1.6455 C   0  0  0  0  0  0  0  0  0  0  0  0
   -3.4885   -2.6138   -2.3640 O   0  0  0  0  0  0  0  0  0  0  0  0
   -2.5247   -1.8750   -0.4226 N   0  0  0  0  0  0  0  0  0  0  0  0
   -3.7258   -1.2664    0.1157 C   0  0  0  0  0  0  0  0  0  0  0  0
   -4.0701    0.0634   -0.5685 C   0  0  0  0  0  0  0  0  0  0  0  0
   -5.2422    0.8513   -0.0058 C   0  0  0  0  0  0  0  0  0  0  0  0
   -6.0692    0.3343    1.0068 C   0  0  0  0  0  0  0  0  0  0  0  0
   -7.1434    1.0717    1.5106 C   0  0  0  0  0  0  0  0  0  0  0  0
   -7.4163    2.3379    1.0093 C   0  0  0  0  0  0  0  0  0  0  0  0
   -6.6168    2.8678   -0.0000 C   0  0  0  0  0  0  0  0  0  0  0  0
   -5.5347    2.1376   -0.5208 C   0  0  0  0  0  0  0  0  0  0  0  0
   -4.7039    2.7597   -1.6129 C   0  0  0  0  0  0  0  0  0  0  0  0
    0.1870   -3.3494    0.0118 N   0  0  0  0  0  0  0  0  0  0  0  0
    1.1922   -3.0160    0.7746 C   0  0  0  0  0  0  0  0  0  0  0  0
    1.3934   -3.7682    2.0592 C   0  0  0  0  0  0  0  0  0  0  0  0
    2.0628   -1.9418    0.3660 C   0  0  0  0  0  0  0  0  0  0  0  0
    3.2248   -1.3923    0.8825 C   0  0  0  0  0  0  0  0  0  0  0  0
    4.0739   -1.8513    2.0121 C   0  0  0  0  0  0  0  0  0  0  0  0
    5.0450    1.0771    1.4534 C   0  0  0  0  0  0  0  0  0  0  0  0
    5.9550    2.1366    1.5608 C   0  0  0  0  0  0  0  0  0  0  0  0
    7.2716    4.4600    1.5724 H   0  0  0  0  0  0  0  0  0  0  0  0
    7.0158    4.8545   -0.1266 H   0  0  0  0  0  0  0  0  0  0  0  0
    8.2712    3.6740    0.3265 H   0  0  0  0  0  0  0  0  0  0  0  0
    5.9165    3.2118   -1.6639 H   0  0  0  0  0  0  0  0  0  0  0  0
    4.3286    1.3670   -1.8659 H   0  0  0  0  0  0  0  0  0  0  0  0
   -0.9733   -3.0111   -3.0637 H   0  0  0  0  0  0  0  0  0  0  0  0
   -1.2749   -4.2628   -1.8328 H   0  0  0  0  0  0  0  0  0  0  0  0
   -1.7094   -1.9922    0.1714 H   0  0  0  0  0  0  0  0  0  0  0  0
   -3.5433   -1.1137    1.1851 H   0  0  0  0  0  0  0  0  0  0  0  0
   -4.5482   -1.9830    0.0060 H   0  0  0  0  0  0  0  0  0  0  0  0
   -3.1774    0.7010   -0.5209 H   0  0  0  0  0  0  0  0  0  0  0  0
   -4.2729   -0.1299   -1.6292 H   0  0  0  0  0  0  0  0  0  0  0  0
   -5.9028   -0.6555    1.4238 H   0  0  0  0  0  0  0  0  0  0  0  0
   -7.7696    0.6517    2.2934 H   0  0  0  0  0  0  0  0  0  0  0  0
   -8.2531    2.9109    1.3986 H   0  0  0  0  0  0  0  0  0  0  0  0
   -6.8468    3.8581   -0.3860 H   0  0  0  0  0  0  0  0  0  0  0  0
   -4.6404    2.0920   -2.4772 H   0  0  0  0  0  0  0  0  0  0  0  0
   -3.6978    2.9796   -1.2424 H   0  0  0  0  0  0  0  0  0  0  0  0
   -5.1429    3.7001   -1.9645 H   0  0  0  0  0  0  0  0  0  0  0  0
    1.5557   -3.0713    2.8853 H   0  0  0  0  0  0  0  0  0  0  0  0
    2.2554   -4.4332    1.9615 H   0  0  0  0  0  0  0  0  0  0  0  0
    0.5121   -4.3760    2.2853 H   0  0  0  0  0  0  0  0  0  0  0  0
    4.0112   -2.9362    2.1319 H   0  0  0  0  0  0  0  0  0  0  0  0
    5.1340   -1.6386    1.8412 H   0  0  0  0  0  0  0  0  0  0  0  0
    3.7528   -1.3916    2.9520 H   0  0  0  0  0  0  0  0  0  0  0  0
    4.7936    0.5518    2.3669 H   0  0  0  0  0  0  0  0  0  0  0  0
    6.4015    2.3569    2.5286 H   0  0  0  0  0  0  0  0  0  0  0  0
  1  2  1  0
  2  3  2  0
  3  4  1  0
  4  5  2  0
  5  6  1  0
  6  7  1  0
  7  8  2  0
  8  9  1  0
  9 10  2  0
  9 11  1  0
 11 12  1  0
 12 13  1  0
 13 14  2  0
 13 15  1  0
 15 16  1  0
 16 17  1  0
 17 18  1  0
 18 19  2  0
 19 20  1  0
 20 21  2  0
 21 22  1  0
 22 23  2  0
 23 24  1  0
 11 25  1  0
 25 26  2  0
 26 27  1  0
 26 28  1  0
 28 29  2  0
 29 30  1  0
  5 31  1  0
 31 32  2  0
 32  2  1  0
 29  6  1  0
 28  8  1  0
 23 18  1  0
  1 33  1  0
  1 34  1  0
  1 35  1  0
  3 36  1  0
  4 37  1  0
 12 38  1  0
 12 39  1  0
 15 40  1  0
 16 41  1  0
 16 42  1  0
 17 43  1  0
 17 44  1  0
 19 45  1  0
 20 46  1  0
 21 47  1  0
 22 48  1  0
 24 49  1  0
 24 50  1  0
 24 51  1  0
 27 52  1  0
 27 53  1  0
 27 54  1  0
 30 55  1  0
 30 56  1  0
 30 57  1  0
 31 58  1  0
 32 59  1  0
M  END
$$$$
