
     RDKit          3D

 37 39  0  0  0  0  0  0  0  0999 V2000
   -7.6033    0.3814    0.9900 C   0  0  0  0  0  0  0  0  0  0  0  0
   -6.9840    0.1757   -0.3834 C   0  0  0  0  0  0  0  0  0  0  0  0
   -5.5074   -0.0198   -0.2945 C   0  0  0  0  0  0  0  0  0  0  0  0
   -4.9154   -1.1757   -0.0752 N   0  0  0  0  0  0  0  0  0  0  0  0
   -3.5406   -1.0517   -0.0428 N   0  0  0  0  0  0  0  0  0  0  0  0
   -3.1480    0.1876   -0.2392 C   0  0  0  0  0  0  0  0  0  0  0  0
   -1.8255    0.5418   -0.2480 N   0  0  0  0  0  0  0  0  0  0  0  0
   -1.2914    1.7940   -0.4405 C   0  0  0  0  0  0  0  0  0  0  0  0
   -1.9064    2.8373   -0.6424 O   0  0  0  0  0  0  0  0  0  0  0  0
    0.2395    1.8011   -0.3820 C   0  0  0  0  0  0  0  0  0  0  0  0
    0.7513    0.4930   -0.1385 O   0  0  0  0  0  0  0  0  0  0  0  0
    2.1111    0.3636   -0.0633 C   0  0  0  0  0  0  0  0  0  0  0  0
    3.0408    1.3916   -0.2026 C   0  0  0  0  0  0  0  0  0  0  0  0
    4.4094    1.1179   -0.1024 C   0  0  0  0  0  0  0  0  0  0  0  0
    4.8695   -0.1856    0.1383 C   0  0  0  0  0  0  0  0  0  0  0  0
    6.2401   -0.4738    0.2411 C   0  0  0  0  0  0  0  0  0  0  0  0
    6.6784   -1.7770    0.4809 C   0  0  0  0  0  0  0  0  0  0  0  0
    5.7531   -2.8072    0.6208 C   0  0  0  0  0  0  0  0  0  0  0  0
    4.3875   -2.5365    0.5212 C   0  0  0  0  0  0  0  0  0  0  0  0
    3.9304   -1.2304    0.2802 C   0  0  0  0  0  0  0  0  0  0  0  0
    2.5600   -0.9388    0.1768 C   0  0  0  0  0  0  0  0  0  0  0  0
   -4.4189    1.2957   -0.4783 S   0  0  0  0  0  0  0  0  0  0  0  0
   -8.6878    0.5012    0.9027 H   0  0  0  0  0  0  0  0  0  0  0  0
   -7.4076   -0.4745    1.6451 H   0  0  0  0  0  0  0  0  0  0  0  0
   -7.2011    1.2758    1.4777 H   0  0  0  0  0  0  0  0  0  0  0  0
   -7.4319   -0.7089   -0.8516 H   0  0  0  0  0  0  0  0  0  0  0  0
   -7.2267    1.0283   -1.0282 H   0  0  0  0  0  0  0  0  0  0  0  0
   -1.1807   -0.2254   -0.0918 H   0  0  0  0  0  0  0  0  0  0  0  0
    0.5954    2.1721   -1.3501 H   0  0  0  0  0  0  0  0  0  0  0  0
    0.5258    2.4766    0.4324 H   0  0  0  0  0  0  0  0  0  0  0  0
    2.7442    2.4183   -0.3896 H   0  0  0  0  0  0  0  0  0  0  0  0
    5.1181    1.9360   -0.2145 H   0  0  0  0  0  0  0  0  0  0  0  0
    6.9787    0.3177    0.1347 H   0  0  0  0  0  0  0  0  0  0  0  0
    7.7421   -1.9868    0.5583 H   0  0  0  0  0  0  0  0  0  0  0  0
    6.0930   -3.8226    0.8076 H   0  0  0  0  0  0  0  0  0  0  0  0
    3.6800   -3.3551    0.6334 H   0  0  0  0  0  0  0  0  0  0  0  0
    1.8285   -1.7369    0.2846 H   0  0  0  0  0  0  0  0  0  0  0  0
  1  2  1  0
  2  3  1  0
  3  4  2  0
  4  5  1  0
  5  6  2  0
  6  7  1  0
  7  8  1  0
  8  9  2  0
  8 10  1  0
 10 11  1  0
 11 12  1  0
 12 13  2  0
 13 14  1  0
 14 15  2  0
 15 16  1  0
 16 17  2  0
 17 18  1  0
 18 19  2  0
 19 20  1  0
 20 21  2  0
  6 22  1  0
 22  3  1  0
 21 12  1  0
 20 15  1  0
  1 23  1  0
  1 24  1  0
  1 25  1  0
  2 26  1  0
  2 27  1  0
  7 28  1  0
 10 29  1  0
 10 30  1  0
 13 31  1  0
 14 32  1  0
 16 33  1  0
 17 34  1  0
 18 35  1  0
 19 36  1  0
 21 37  1  0
M  END
$$$$
