
     RDKit          3D

 61 66  0  0  0  0  0  0  0  0999 V2000
   -3.0948   -3.1812   -1.0215 C   0  0  0  0  0  0  0  0  0  0  0  0
   -3.4289   -1.6908   -1.1404 C   0  0  0  0  0  0  0  0  0  0  0  0
   -4.8539   -1.5099   -1.6777 C   0  0  0  0  0  0  0  0  0  0  0  0
   -3.2108   -0.9823    0.1970 C   0  0  0  0  0  0  0  0  0  0  0  0
   -4.0546   -1.3100    1.2804 C   0  0  0  0  0  0  0  0  0  0  0  0
   -3.8390   -0.7949    2.5624 C   0  0  0  0  0  0  0  0  0  0  0  0
   -2.7648    0.0547    2.8000 C   0  0  0  0  0  0  0  0  0  0  0  0
   -1.9151    0.4082    1.7531 C   0  0  0  0  0  0  0  0  0  0  0  0
   -2.1407   -0.0940    0.4566 C   0  0  0  0  0  0  0  0  0  0  0  0
   -1.2686    0.3544   -0.5692 N   0  0  0  0  0  0  0  0  0  0  0  0
    0.1005    0.1713   -0.6584 C   0  0  0  0  0  0  0  0  0  0  0  0
    1.0633   -0.6627    0.5182 S   0  0  0  0  0  0  0  0  0  0  0  0
    2.3419   -1.4302   -0.5231 C   0  0  0  0  0  0  0  0  0  0  0  0
    3.4561   -0.4840   -0.9068 C   0  0  0  0  0  0  0  0  0  0  0  0
    3.5661   -0.2031   -2.2202 C   0  0  0  0  0  0  0  0  0  0  0  0
    4.4916    0.7750   -2.7888 C   0  0  0  0  0  0  0  0  0  0  0  0
    4.6277    0.8933   -4.0007 O   0  0  0  0  0  0  0  0  0  0  0  0
    5.1525    1.5656   -1.8799 O   0  0  0  0  0  0  0  0  0  0  0  0
    5.1424    1.2542   -0.5036 C   0  0  0  0  0  0  0  0  0  0  0  0
    5.9736    2.0800    0.2477 C   0  0  0  0  0  0  0  0  0  0  0  0
    6.1144    1.8437    1.6016 C   0  0  0  0  0  0  0  0  0  0  0  0
    5.4688    0.7612    2.2022 C   0  0  0  0  0  0  0  0  0  0  0  0
    5.6991    0.5514    3.5731 C   0  0  0  0  0  0  0  0  0  0  0  0
    5.1335   -0.5251    4.2455 C   0  0  0  0  0  0  0  0  0  0  0  0
    4.3392   -1.4129    3.5443 C   0  0  0  0  0  0  0  0  0  0  0  0
    4.0959   -1.2084    2.1784 C   0  0  0  0  0  0  0  0  0  0  0  0
    4.6184   -0.1069    1.4440 C   0  0  0  0  0  0  0  0  0  0  0  0
    4.3994    0.1865    0.0448 C   0  0  0  0  0  0  0  0  0  0  0  0
    0.5421    0.6324   -1.8034 N   0  0  0  0  0  0  0  0  0  0  0  0
   -0.5192    1.1812   -2.4703 N   0  0  0  0  0  0  0  0  0  0  0  0
   -1.5999    1.0749   -1.7156 C   0  0  0  0  0  0  0  0  0  0  0  0
   -2.9012    1.6429   -2.0650 C   0  0  0  0  0  0  0  0  0  0  0  0
   -3.7512    2.2541   -1.1377 C   0  0  0  0  0  0  0  0  0  0  0  0
   -4.9837    2.7628   -1.5509 C   0  0  0  0  0  0  0  0  0  0  0  0
   -5.3271    2.6544   -2.8884 C   0  0  0  0  0  0  0  0  0  0  0  0
   -4.5289    2.0914   -3.8202 N   0  0  0  0  0  0  0  0  0  0  0  0
   -3.3331    1.6150   -3.3901 C   0  0  0  0  0  0  0  0  0  0  0  0
   -3.2021   -3.6796   -1.9915 H   0  0  0  0  0  0  0  0  0  0  0  0
   -2.0628   -3.3250   -0.6841 H   0  0  0  0  0  0  0  0  0  0  0  0
   -3.7518   -3.6903   -0.3091 H   0  0  0  0  0  0  0  0  0  0  0  0
   -2.7535   -1.2876   -1.8999 H   0  0  0  0  0  0  0  0  0  0  0  0
   -4.9383   -1.9300   -2.6861 H   0  0  0  0  0  0  0  0  0  0  0  0
   -5.6003   -2.0081   -1.0511 H   0  0  0  0  0  0  0  0  0  0  0  0
   -5.1254   -0.4532   -1.7342 H   0  0  0  0  0  0  0  0  0  0  0  0
   -4.8867   -2.0007    1.1435 H   0  0  0  0  0  0  0  0  0  0  0  0
   -4.5046   -1.0765    3.3775 H   0  0  0  0  0  0  0  0  0  0  0  0
   -2.5918    0.4452    3.8006 H   0  0  0  0  0  0  0  0  0  0  0  0
   -1.0954    1.0957    1.9595 H   0  0  0  0  0  0  0  0  0  0  0  0
    1.8315   -1.8270   -1.4117 H   0  0  0  0  0  0  0  0  0  0  0  0
    2.7406   -2.3293   -0.0487 H   0  0  0  0  0  0  0  0  0  0  0  0
    2.9124   -0.6523   -2.9634 H   0  0  0  0  0  0  0  0  0  0  0  0
    6.5121    2.8952   -0.2288 H   0  0  0  0  0  0  0  0  0  0  0  0
    6.7628    2.4998    2.1793 H   0  0  0  0  0  0  0  0  0  0  0  0
    6.3397    1.2304    4.1354 H   0  0  0  0  0  0  0  0  0  0  0  0
    5.3271   -0.6743    5.3040 H   0  0  0  0  0  0  0  0  0  0  0  0
    3.9053   -2.2743    4.0472 H   0  0  0  0  0  0  0  0  0  0  0  0
    3.4896   -1.9715    1.7104 H   0  0  0  0  0  0  0  0  0  0  0  0
   -3.4716    2.3523   -0.0925 H   0  0  0  0  0  0  0  0  0  0  0  0
   -5.6604    3.2321   -0.8437 H   0  0  0  0  0  0  0  0  0  0  0  0
   -6.2779    3.0312   -3.2568 H   0  0  0  0  0  0  0  0  0  0  0  0
   -2.7095    1.1853   -4.1735 H   0  0  0  0  0  0  0  0  0  0  0  0
  1  2  1  0
  2  3  1  0
  2  4  1  0
  4  5  2  0
  5  6  1  0
  6  7  2  0
  7  8  1  0
  8  9  2  0
  9 10  1  0
 10 11  1  0
 11 12  1  0
 12 13  1  0
 13 14  1  0
 14 15  2  0
 15 16  1  0
 16 17  2  0
 16 18  1  0
 18 19  1  0
 19 20  2  0
 20 21  1  0
 21 22  2  0
 22 23  1  0
 23 24  2  0
 24 25  1  0
 25 26  2  0
 26 27  1  0
 27 28  2  0
 11 29  2  0
 29 30  1  0
 30 31  2  0
 31 32  1  0
 32 33  2  0
 33 34  1  0
 34 35  2  0
 35 36  1  0
 36 37  2  0
  9  4  1  0
 31 10  1  0
 37 32  1  0
 28 14  1  0
 28 19  1  0
 27 22  1  0
  1 38  1  0
  1 39  1  0
  1 40  1  0
  2 41  1  0
  3 42  1  0
  3 43  1  0
  3 44  1  0
  5 45  1  0
  6 46  1  0
  7 47  1  0
  8 48  1  0
 13 49  1  0
 13 50  1  0
 15 51  1  0
 20 52  1  0
 21 53  1  0
 23 54  1  0
 24 55  1  0
 25 56  1  0
 26 57  1  0
 33 58  1  0
 34 59  1  0
 35 60  1  0
 37 61  1  0
M  END
$$$$
