
     RDKit          3D

 32 34  0  0  0  0  0  0  0  0999 V2000
    5.1495    0.1041    2.5125 O   0  0  0  0  0  0  0  0  0  0  0  0
    4.8561   -0.6504    1.5748 N   0  0  0  0  0  4  0  0  0  0  0  0
    5.5046   -1.6557    1.2516 O   0  0  0  0  0  1  0  0  0  0  0  0
    3.6677   -0.3365    0.7982 C   0  0  0  0  0  0  0  0  0  0  0  0
    3.2769   -1.1261   -0.2763 C   0  0  0  0  0  0  0  0  0  0  0  0
    2.1244   -0.7701   -0.9832 C   0  0  0  0  0  0  0  0  0  0  0  0
    1.3717    0.3476   -0.6063 C   0  0  0  0  0  0  0  0  0  0  0  0
    0.2351    0.7245   -1.3214 N   0  0  0  0  0  0  0  0  0  0  0  0
   -0.4008    1.9848   -0.9054 C   0  0  0  0  0  0  0  0  0  0  0  0
   -1.2652    1.7949    0.3465 C   0  0  0  0  0  0  0  0  0  0  0  0
   -2.1348    0.5622    0.2678 C   0  0  0  0  0  0  0  0  0  0  0  0
   -3.1937    0.4038    1.1733 C   0  0  0  0  0  0  0  0  0  0  0  0
   -3.9875   -0.7418    1.1389 C   0  0  0  0  0  0  0  0  0  0  0  0
   -3.7278   -1.7408    0.2047 C   0  0  0  0  0  0  0  0  0  0  0  0
   -2.6703   -1.5979   -0.6941 C   0  0  0  0  0  0  0  0  0  0  0  0
   -1.8550   -0.4548   -0.6652 C   0  0  0  0  0  0  0  0  0  0  0  0
   -0.7401   -0.3135   -1.6843 C   0  0  0  0  0  0  0  0  0  0  0  0
    1.7897    1.1215    0.4247 N   0  0  0  0  0  0  0  0  0  0  0  0
    2.9072    0.7717    1.1115 C   0  0  0  0  0  0  0  0  0  0  0  0
    3.8476   -1.9985   -0.5835 H   0  0  0  0  0  0  0  0  0  0  0  0
    1.8468   -1.3611   -1.8496 H   0  0  0  0  0  0  0  0  0  0  0  0
   -1.0414    2.3263   -1.7303 H   0  0  0  0  0  0  0  0  0  0  0  0
    0.3319    2.7884   -0.7584 H   0  0  0  0  0  0  0  0  0  0  0  0
   -1.8935    2.6844    0.4761 H   0  0  0  0  0  0  0  0  0  0  0  0
   -0.6341    1.7073    1.2381 H   0  0  0  0  0  0  0  0  0  0  0  0
   -3.4014    1.1739    1.9128 H   0  0  0  0  0  0  0  0  0  0  0  0
   -4.8074   -0.8551    1.8432 H   0  0  0  0  0  0  0  0  0  0  0  0
   -4.3489   -2.6323    0.1768 H   0  0  0  0  0  0  0  0  0  0  0  0
   -2.4848   -2.3868   -1.4198 H   0  0  0  0  0  0  0  0  0  0  0  0
   -1.2008   -0.0242   -2.6380 H   0  0  0  0  0  0  0  0  0  0  0  0
   -0.2775   -1.2912   -1.8525 H   0  0  0  0  0  0  0  0  0  0  0  0
    3.1561    1.4413    1.9306 H   0  0  0  0  0  0  0  0  0  0  0  0
  1  2  2  0
  2  3  1  0
  2  4  1  0
  4  5  2  0
  5  6  1  0
  6  7  2  0
  7  8  1  0
  8  9  1  0
  9 10  1  0
 10 11  1  0
 11 12  2  0
 12 13  1  0
 13 14  2  0
 14 15  1  0
 15 16  2  0
 16 17  1  0
  7 18  1  0
 18 19  2  0
 19  4  1  0
 17  8  1  0
 16 11  1  0
  5 20  1  0
  6 21  1  0
  9 22  1  0
  9 23  1  0
 10 24  1  0
 10 25  1  0
 12 26  1  0
 13 27  1  0
 14 28  1  0
 15 29  1  0
 17 30  1  0
 17 31  1  0
 19 32  1  0
M  CHG  2   2   1   3  -1
M  END
$$$$
