
     RDKit          3D

 42 43  0  0  0  0  0  0  0  0999 V2000
   -5.4465    1.9544   -1.1680 C   0  0  0  0  0  0  0  0  0  0  0  0
   -4.3329    1.2363   -0.4758 C   0  0  0  0  0  0  0  0  0  0  0  0
   -4.1135   -0.0930   -0.3887 C   0  0  0  0  0  0  0  0  0  0  0  0
   -5.0358   -1.1369   -0.9647 C   0  0  0  0  0  0  0  0  0  0  0  0
   -2.9156   -0.7012    0.3358 C   0  0  0  0  0  0  0  0  0  0  0  0
   -1.8243    0.2243    0.6681 N   0  0  0  0  0  0  0  0  0  0  0  0
   -0.9732   -0.3471    1.7355 C   0  0  0  0  0  0  0  0  0  0  0  0
    0.4671    0.2125    1.7682 C   0  0  0  0  0  0  0  0  0  0  0  0
    1.1610   -0.0885    0.5065 N   0  0  0  0  0  0  0  0  0  0  0  0
    2.5421   -0.1462    0.4244 C   0  0  0  0  0  0  0  0  0  0  0  0
    3.1929   -0.7623   -0.6564 C   0  0  0  0  0  0  0  0  0  0  0  0
    4.5903   -0.8297   -0.7474 C   0  0  0  0  0  0  0  0  0  0  0  0
    5.3922   -0.2684    0.2453 C   0  0  0  0  0  0  0  0  0  0  0  0
    6.8856   -0.3658    0.1707 C   0  0  0  0  0  0  0  0  0  0  0  0
    4.7705    0.3337    1.3384 C   0  0  0  0  0  0  0  0  0  0  0  0
    3.3719    0.3935    1.4193 C   0  0  0  0  0  0  0  0  0  0  0  0
    0.3157   -0.1897   -0.6947 C   0  0  0  0  0  0  0  0  0  0  0  0
   -1.0124    0.5852   -0.5176 C   0  0  0  0  0  0  0  0  0  0  0  0
   -5.0290    2.7298   -1.8187 H   0  0  0  0  0  0  0  0  0  0  0  0
   -6.0663    1.3092   -1.7929 H   0  0  0  0  0  0  0  0  0  0  0  0
   -6.0895    2.4422   -0.4292 H   0  0  0  0  0  0  0  0  0  0  0  0
   -3.6259    1.9074    0.0122 H   0  0  0  0  0  0  0  0  0  0  0  0
   -5.3026   -1.8684   -0.1939 H   0  0  0  0  0  0  0  0  0  0  0  0
   -5.9734   -0.7309   -1.3490 H   0  0  0  0  0  0  0  0  0  0  0  0
   -4.5381   -1.6663   -1.7838 H   0  0  0  0  0  0  0  0  0  0  0  0
   -2.5194   -1.5391   -0.2539 H   0  0  0  0  0  0  0  0  0  0  0  0
   -3.3174   -1.1323    1.2636 H   0  0  0  0  0  0  0  0  0  0  0  0
   -1.4525   -0.1562    2.7027 H   0  0  0  0  0  0  0  0  0  0  0  0
   -0.8999   -1.4379    1.6201 H   0  0  0  0  0  0  0  0  0  0  0  0
    0.9806   -0.2586    2.6150 H   0  0  0  0  0  0  0  0  0  0  0  0
    0.4501    1.2961    1.9370 H   0  0  0  0  0  0  0  0  0  0  0  0
    2.6175   -1.2328   -1.4486 H   0  0  0  0  0  0  0  0  0  0  0  0
    5.0404   -1.3299   -1.6014 H   0  0  0  0  0  0  0  0  0  0  0  0
    7.2255   -0.3681   -0.8704 H   0  0  0  0  0  0  0  0  0  0  0  0
    7.2258   -1.2858    0.6558 H   0  0  0  0  0  0  0  0  0  0  0  0
    7.3581    0.4901    0.6641 H   0  0  0  0  0  0  0  0  0  0  0  0
    5.3644    0.7688    2.1387 H   0  0  0  0  0  0  0  0  0  0  0  0
    2.9444    0.8979    2.2809 H   0  0  0  0  0  0  0  0  0  0  0  0
    0.8242    0.2364   -1.5680 H   0  0  0  0  0  0  0  0  0  0  0  0
    0.1060   -1.2455   -0.9036 H   0  0  0  0  0  0  0  0  0  0  0  0
   -0.7650    1.6502   -0.4123 H   0  0  0  0  0  0  0  0  0  0  0  0
   -1.5930    0.5127   -1.4452 H   0  0  0  0  0  0  0  0  0  0  0  0
  1  2  1  0
  2  3  2  3
  3  4  1  0
  3  5  1  0
  5  6  1  0
  6  7  1  0
  7  8  1  0
  8  9  1  0
  9 10  1  0
 10 11  2  0
 11 12  1  0
 12 13  2  0
 13 14  1  0
 13 15  1  0
 15 16  2  0
  9 17  1  0
 17 18  1  0
 18  6  1  0
 16 10  1  0
  1 19  1  0
  1 20  1  0
  1 21  1  0
  2 22  1  0
  4 23  1  0
  4 24  1  0
  4 25  1  0
  5 26  1  0
  5 27  1  0
  7 28  1  0
  7 29  1  0
  8 30  1  0
  8 31  1  0
 11 32  1  0
 12 33  1  0
 14 34  1  0
 14 35  1  0
 14 36  1  0
 15 37  1  0
 16 38  1  0
 17 39  1  0
 17 40  1  0
 18 41  1  0
 18 42  1  0
M  END
$$$$
