
     RDKit          3D

 55 60  0  0  0  0  0  0  0  0999 V2000
    6.9755    2.7007   -0.2973 C   0  0  0  0  0  0  0  0  0  0  0  0
    5.6983    3.1612   -0.6200 C   0  0  0  0  0  0  0  0  0  0  0  0
    4.6172    2.2777   -0.6258 C   0  0  0  0  0  0  0  0  0  0  0  0
    4.8149    0.9321   -0.2954 C   0  0  0  0  0  0  0  0  0  0  0  0
    3.6887   -0.0379   -0.3090 C   0  0  0  0  0  0  0  0  0  0  0  0
    3.8639   -1.1803   -0.9051 N   0  0  0  0  0  0  0  0  0  0  0  0
    2.8072   -2.1114   -0.9348 C   0  0  0  0  0  0  0  0  0  0  0  0
    3.0508   -3.3492   -1.5370 C   0  0  0  0  0  0  0  0  0  0  0  0
    2.0597   -4.3309   -1.5801 C   0  0  0  0  0  0  0  0  0  0  0  0
    0.8140   -4.0846   -1.0074 C   0  0  0  0  0  0  0  0  0  0  0  0
    0.5507   -2.8533   -0.4037 C   0  0  0  0  0  0  0  0  0  0  0  0
    1.5365   -1.8617   -0.3881 C   0  0  0  0  0  0  0  0  0  0  0  0
    1.3545   -0.5893    0.2093 N   0  0  0  0  0  0  0  0  0  0  0  0
    0.2291    0.0190    0.7692 C   0  0  0  0  0  0  0  0  0  0  0  0
   -1.0489   -0.4650    0.6300 N   0  0  0  0  0  0  0  0  0  0  0  0
   -1.6752   -0.1958   -0.7005 C   0  0  0  0  0  0  0  0  0  0  0  0
   -2.9981   -0.9805   -0.8688 C   0  0  0  0  0  0  0  0  0  0  0  0
   -3.9400   -0.7436    0.2507 N   0  0  0  0  0  0  0  0  0  0  0  0
   -4.8447    0.3210    0.2085 C   0  0  0  0  0  0  0  0  0  0  0  0
   -5.8909    0.3930    1.1463 C   0  0  0  0  0  0  0  0  0  0  0  0
   -6.8275    1.4333    1.1413 C   0  0  0  0  0  0  0  0  0  0  0  0
   -6.7498    2.4319    0.1799 C   0  0  0  0  0  0  0  0  0  0  0  0
   -5.7449    2.3772   -0.7780 C   0  0  0  0  0  0  0  0  0  0  0  0
   -4.8132    1.3301   -0.7658 C   0  0  0  0  0  0  0  0  0  0  0  0
   -3.2980   -1.0186    1.5638 C   0  0  0  0  0  0  0  0  0  0  0  0
   -2.0041   -0.1894    1.7377 C   0  0  0  0  0  0  0  0  0  0  0  0
    0.6696    1.1487    1.4346 C   0  0  0  0  0  0  0  0  0  0  0  0
    2.0424    1.3166    1.1538 C   0  0  0  0  0  0  0  0  0  0  0  0
    2.4279    0.2794    0.3269 C   0  0  0  0  0  0  0  0  0  0  0  0
    6.1007    0.4685    0.0063 C   0  0  0  0  0  0  0  0  0  0  0  0
    7.1782    1.3553    0.0114 C   0  0  0  0  0  0  0  0  0  0  0  0
    7.8169    3.3894   -0.2971 H   0  0  0  0  0  0  0  0  0  0  0  0
    5.5472    4.2068   -0.8766 H   0  0  0  0  0  0  0  0  0  0  0  0
    3.6328    2.6418   -0.9071 H   0  0  0  0  0  0  0  0  0  0  0  0
    4.0282   -3.5467   -1.9697 H   0  0  0  0  0  0  0  0  0  0  0  0
    2.2666   -5.2897   -2.0478 H   0  0  0  0  0  0  0  0  0  0  0  0
    0.0482   -4.8563   -1.0201 H   0  0  0  0  0  0  0  0  0  0  0  0
   -0.4145   -2.7089    0.0676 H   0  0  0  0  0  0  0  0  0  0  0  0
   -1.8563    0.8816   -0.7981 H   0  0  0  0  0  0  0  0  0  0  0  0
   -0.9961   -0.4873   -1.5105 H   0  0  0  0  0  0  0  0  0  0  0  0
   -3.4583   -0.7725   -1.8413 H   0  0  0  0  0  0  0  0  0  0  0  0
   -2.7650   -2.0534   -0.8792 H   0  0  0  0  0  0  0  0  0  0  0  0
   -6.0148   -0.3949    1.8850 H   0  0  0  0  0  0  0  0  0  0  0  0
   -7.6220    1.4490    1.8822 H   0  0  0  0  0  0  0  0  0  0  0  0
   -7.4755    3.2400    0.1683 H   0  0  0  0  0  0  0  0  0  0  0  0
   -5.6819    3.1464   -1.5433 H   0  0  0  0  0  0  0  0  0  0  0  0
   -4.0546    1.3425   -1.5407 H   0  0  0  0  0  0  0  0  0  0  0  0
   -3.0446   -2.0862    1.5968 H   0  0  0  0  0  0  0  0  0  0  0  0
   -3.9627   -0.8381    2.4142 H   0  0  0  0  0  0  0  0  0  0  0  0
   -2.2507    0.8797    1.7661 H   0  0  0  0  0  0  0  0  0  0  0  0
   -1.5459   -0.4607    2.6967 H   0  0  0  0  0  0  0  0  0  0  0  0
    0.0512    1.8232    2.0110 H   0  0  0  0  0  0  0  0  0  0  0  0
    2.6694    2.1269    1.5027 H   0  0  0  0  0  0  0  0  0  0  0  0
    6.2626   -0.5819    0.2377 H   0  0  0  0  0  0  0  0  0  0  0  0
    8.1757    0.9952    0.2502 H   0  0  0  0  0  0  0  0  0  0  0  0
  1  2  2  0
  2  3  1  0
  3  4  2  0
  4  5  1  0
  5  6  2  0
  6  7  1  0
  7  8  2  0
  8  9  1  0
  9 10  2  0
 10 11  1  0
 11 12  2  0
 12 13  1  0
 13 14  1  0
 14 15  1  0
 15 16  1  0
 16 17  1  0
 17 18  1  0
 18 19  1  0
 19 20  2  0
 20 21  1  0
 21 22  2  0
 22 23  1  0
 23 24  2  0
 18 25  1  0
 25 26  1  0
 14 27  2  0
 27 28  1  0
 28 29  2  0
  4 30  1  0
 30 31  2  0
 31  1  1  0
 29  5  1  0
 12  7  1  0
 29 13  1  0
 26 15  1  0
 24 19  1  0
  1 32  1  0
  2 33  1  0
  3 34  1  0
  8 35  1  0
  9 36  1  0
 10 37  1  0
 11 38  1  0
 16 39  1  0
 16 40  1  0
 17 41  1  0
 17 42  1  0
 20 43  1  0
 21 44  1  0
 22 45  1  0
 23 46  1  0
 24 47  1  0
 25 48  1  0
 25 49  1  0
 26 50  1  0
 26 51  1  0
 27 52  1  0
 28 53  1  0
 30 54  1  0
 31 55  1  0
M  END
$$$$
