
     RDKit          3D

 38 39  0  0  0  0  0  0  0  0999 V2000
   -4.6303    2.7075    2.3762 C   0  0  0  0  0  0  0  0  0  0  0  0
   -3.7278    2.2311    1.5084 C   0  0  0  0  0  0  0  0  0  0  0  0
   -3.8934    0.9605    0.7235 C   0  0  0  0  0  0  0  0  0  0  0  0
   -2.7942   -0.0353    1.0103 C   0  0  0  0  0  0  0  0  0  0  0  0
   -2.8563   -0.8531    2.1431 C   0  0  0  0  0  0  0  0  0  0  0  0
   -1.8397   -1.7688    2.4059 C   0  0  0  0  0  0  0  0  0  0  0  0
   -0.7473   -1.8610    1.5402 C   0  0  0  0  0  0  0  0  0  0  0  0
    0.2215   -2.7974    1.7977 O   0  0  0  0  0  0  0  0  0  0  0  0
   -0.6304   -1.0454    0.4016 C   0  0  0  0  0  0  0  0  0  0  0  0
    0.5347   -1.0794   -0.5185 C   0  0  0  0  0  0  0  0  0  0  0  0
    1.2003    0.1258   -0.8319 C   0  0  0  0  0  0  0  0  0  0  0  0
    2.2675    0.1768   -1.7467 C   0  0  0  0  0  0  0  0  0  0  0  0
    2.9633    1.4836   -2.0445 C   0  0  0  0  0  0  0  0  0  0  0  0
    4.2107    1.6646   -1.2266 C   0  0  0  0  0  0  0  0  0  0  0  0
    5.4345    1.8408   -1.7421 C   0  0  0  0  0  0  0  0  0  0  0  0
    2.6917   -1.0068   -2.3583 C   0  0  0  0  0  0  0  0  0  0  0  0
    2.0624   -2.2126   -2.0601 C   0  0  0  0  0  0  0  0  0  0  0  0
    1.0105   -2.2458   -1.1443 C   0  0  0  0  0  0  0  0  0  0  0  0
    0.4843   -3.4861   -0.8964 O   0  0  0  0  0  0  0  0  0  0  0  0
   -1.6816   -0.1370    0.1574 C   0  0  0  0  0  0  0  0  0  0  0  0
   -5.5627    2.1885    2.5749 H   0  0  0  0  0  0  0  0  0  0  0  0
   -4.4493    3.6355    2.9103 H   0  0  0  0  0  0  0  0  0  0  0  0
   -2.8100    2.7919    1.3427 H   0  0  0  0  0  0  0  0  0  0  0  0
   -3.9018    1.2054   -0.3459 H   0  0  0  0  0  0  0  0  0  0  0  0
   -4.8637    0.4900    0.9279 H   0  0  0  0  0  0  0  0  0  0  0  0
   -3.7032   -0.7825    2.8226 H   0  0  0  0  0  0  0  0  0  0  0  0
   -1.9207   -2.4081    3.2798 H   0  0  0  0  0  0  0  0  0  0  0  0
    0.1418   -3.0745    2.7271 H   0  0  0  0  0  0  0  0  0  0  0  0
    0.8822    1.0487   -0.3482 H   0  0  0  0  0  0  0  0  0  0  0  0
    2.2829    2.3194   -1.8386 H   0  0  0  0  0  0  0  0  0  0  0  0
    3.1809    1.5363   -3.1190 H   0  0  0  0  0  0  0  0  0  0  0  0
    4.0920    1.6507   -0.1449 H   0  0  0  0  0  0  0  0  0  0  0  0
    5.6063    1.8611   -2.8137 H   0  0  0  0  0  0  0  0  0  0  0  0
    6.2963    1.9642   -1.0934 H   0  0  0  0  0  0  0  0  0  0  0  0
    3.5210   -0.9973   -3.0616 H   0  0  0  0  0  0  0  0  0  0  0  0
    2.3982   -3.1335   -2.5287 H   0  0  0  0  0  0  0  0  0  0  0  0
    0.1662   -3.4594    0.0270 H   0  0  0  0  0  0  0  0  0  0  0  0
   -1.6365    0.5013   -0.7248 H   0  0  0  0  0  0  0  0  0  0  0  0
  1  2  2  0
  2  3  1  0
  3  4  1  0
  4  5  2  0
  5  6  1  0
  6  7  2  0
  7  8  1  0
  7  9  1  0
  9 10  1  0
 10 11  2  0
 11 12  1  0
 12 13  1  0
 13 14  1  0
 14 15  2  0
 12 16  2  0
 16 17  1  0
 17 18  2  0
 18 19  1  0
  9 20  2  0
 20  4  1  0
 18 10  1  0
  1 21  1  0
  1 22  1  0
  2 23  1  0
  3 24  1  0
  3 25  1  0
  5 26  1  0
  6 27  1  0
  8 28  1  0
 11 29  1  0
 13 30  1  0
 13 31  1  0
 14 32  1  0
 15 33  1  0
 15 34  1  0
 16 35  1  0
 17 36  1  0
 19 37  1  0
 20 38  1  0
M  END
$$$$
