
     RDKit          3D

 52 53  0  0  0  0  0  0  0  0999 V2000
    5.5969   -3.6693   -0.3167 C   0  0  0  0  0  0  0  0  0  0  0  0
    5.4607   -2.2551   -0.8601 C   0  0  0  0  0  0  0  0  0  0  0  0
    4.0035   -1.7863   -0.8358 C   0  0  0  0  0  0  0  0  0  0  0  0
    3.9203   -0.4163   -1.3487 N   0  0  0  0  0  0  0  0  0  0  0  0
    2.5294    0.0299   -1.5562 C   0  0  0  0  0  0  0  0  0  0  0  0
    1.6454    0.0608   -0.2921 C   0  0  0  0  0  0  0  0  0  0  0  0
    1.1805   -1.2651    0.0130 O   0  0  0  0  0  0  0  0  0  0  0  0
    0.4260    0.9697   -0.5046 C   0  0  0  0  0  0  0  0  0  0  0  0
   -0.3286    0.9792    0.7245 O   0  0  0  0  0  0  0  0  0  0  0  0
   -0.7049    2.2495    1.0602 C   0  0  0  0  0  0  0  0  0  0  0  0
    0.0721    2.9300    1.9984 C   0  0  0  0  0  0  0  0  0  0  0  0
   -0.2964    4.2126    2.4095 C   0  0  0  0  0  0  0  0  0  0  0  0
   -1.4483    4.8110    1.8951 C   0  0  0  0  0  0  0  0  0  0  0  0
   -2.2409    4.1242    0.9740 C   0  0  0  0  0  0  0  0  0  0  0  0
   -1.8691    2.8390    0.5648 C   0  0  0  0  0  0  0  0  0  0  0  0
   -2.7376    2.1226   -0.3848 C   0  0  0  0  0  0  0  0  0  0  0  0
   -2.3974    2.0361   -1.5607 O   0  0  0  0  0  0  0  0  0  0  0  0
   -4.0562    1.6128    0.1601 C   0  0  0  0  0  0  0  0  0  0  0  0
   -4.4874    0.3022   -0.4930 C   0  0  0  0  0  0  0  0  0  0  0  0
   -3.6505   -0.8757   -0.0552 C   0  0  0  0  0  0  0  0  0  0  0  0
   -2.6570   -1.3899   -0.8977 C   0  0  0  0  0  0  0  0  0  0  0  0
   -1.8751   -2.4718   -0.4919 C   0  0  0  0  0  0  0  0  0  0  0  0
   -2.0740   -3.0463    0.7616 C   0  0  0  0  0  0  0  0  0  0  0  0
   -3.0584   -2.5421    1.6088 C   0  0  0  0  0  0  0  0  0  0  0  0
   -3.8439   -1.4619    1.2031 C   0  0  0  0  0  0  0  0  0  0  0  0
    6.6441   -3.9862   -0.3440 H   0  0  0  0  0  0  0  0  0  0  0  0
    5.0121   -4.3769   -0.9131 H   0  0  0  0  0  0  0  0  0  0  0  0
    5.2519   -3.7257    0.7206 H   0  0  0  0  0  0  0  0  0  0  0  0
    5.8495   -2.2286   -1.8854 H   0  0  0  0  0  0  0  0  0  0  0  0
    6.0827   -1.5801   -0.2594 H   0  0  0  0  0  0  0  0  0  0  0  0
    3.3959   -2.4642   -1.4472 H   0  0  0  0  0  0  0  0  0  0  0  0
    3.6425   -1.8271    0.1973 H   0  0  0  0  0  0  0  0  0  0  0  0
    4.4055   -0.3716   -2.2448 H   0  0  0  0  0  0  0  0  0  0  0  0
    2.5970    1.0442   -1.9664 H   0  0  0  0  0  0  0  0  0  0  0  0
    2.0627   -0.5995   -2.3242 H   0  0  0  0  0  0  0  0  0  0  0  0
    2.2161    0.4135    0.5750 H   0  0  0  0  0  0  0  0  0  0  0  0
    0.4505   -1.1515    0.6532 H   0  0  0  0  0  0  0  0  0  0  0  0
    0.7477    1.9752   -0.8061 H   0  0  0  0  0  0  0  0  0  0  0  0
   -0.2197    0.5519   -1.2837 H   0  0  0  0  0  0  0  0  0  0  0  0
    0.9632    2.4628    2.4100 H   0  0  0  0  0  0  0  0  0  0  0  0
    0.3150    4.7450    3.1345 H   0  0  0  0  0  0  0  0  0  0  0  0
   -1.7288    5.8119    2.2155 H   0  0  0  0  0  0  0  0  0  0  0  0
   -3.1356    4.5952    0.5754 H   0  0  0  0  0  0  0  0  0  0  0  0
   -4.8065    2.3850   -0.0472 H   0  0  0  0  0  0  0  0  0  0  0  0
   -3.9902    1.4983    1.2483 H   0  0  0  0  0  0  0  0  0  0  0  0
   -4.4679    0.3893   -1.5866 H   0  0  0  0  0  0  0  0  0  0  0  0
   -5.5330    0.0961   -0.2302 H   0  0  0  0  0  0  0  0  0  0  0  0
   -2.4799   -0.9423   -1.8741 H   0  0  0  0  0  0  0  0  0  0  0  0
   -1.1002   -2.8576   -1.1502 H   0  0  0  0  0  0  0  0  0  0  0  0
   -1.4591   -3.8849    1.0768 H   0  0  0  0  0  0  0  0  0  0  0  0
   -3.2149   -2.9908    2.5861 H   0  0  0  0  0  0  0  0  0  0  0  0
   -4.6097   -1.0816    1.8747 H   0  0  0  0  0  0  0  0  0  0  0  0
  1  2  1  0
  2  3  1  0
  3  4  1  0
  4  5  1  0
  5  6  1  0
  6  7  1  0
  6  8  1  0
  8  9  1  0
  9 10  1  0
 10 11  2  0
 11 12  1  0
 12 13  2  0
 13 14  1  0
 14 15  2  0
 15 16  1  0
 16 17  2  0
 16 18  1  0
 18 19  1  0
 19 20  1  0
 20 21  2  0
 21 22  1  0
 22 23  2  0
 23 24  1  0
 24 25  2  0
 15 10  1  0
 25 20  1  0
  1 26  1  0
  1 27  1  0
  1 28  1  0
  2 29  1  0
  2 30  1  0
  3 31  1  0
  3 32  1  0
  4 33  1  0
  5 34  1  0
  5 35  1  0
  6 36  1  0
  7 37  1  0
  8 38  1  0
  8 39  1  0
 11 40  1  0
 12 41  1  0
 13 42  1  0
 14 43  1  0
 18 44  1  0
 18 45  1  0
 19 46  1  0
 19 47  1  0
 21 48  1  0
 22 49  1  0
 23 50  1  0
 24 51  1  0
 25 52  1  0
M  END
$$$$
