
     RDKit          3D

 39 40  0  0  0  0  0  0  0  0999 V2000
   -0.9686   -3.2003    0.9353 C   0  0  0  0  0  0  0  0  0  0  0  0
   -1.3139   -1.8554    0.2986 C   0  0  0  0  0  0  0  0  0  0  0  0
   -2.2508   -2.1265   -0.7502 O   0  0  0  0  0  0  0  0  0  0  0  0
   -3.0998   -1.0742   -0.9734 C   0  0  0  0  0  0  0  0  0  0  0  0
   -2.8182   -0.2356   -2.0544 C   0  0  0  0  0  0  0  0  0  0  0  0
   -3.6728    0.8254   -2.3588 C   0  0  0  0  0  0  0  0  0  0  0  0
   -4.8233    1.0277   -1.5843 C   0  0  0  0  0  0  0  0  0  0  0  0
   -5.7258    2.1417   -1.9011 N   0  0  0  0  0  4  0  0  0  0  0  0
   -6.7098    2.3095   -1.1674 O   0  0  0  0  0  0  0  0  0  0  0  0
   -5.4476    2.8490   -2.8790 O   0  0  0  0  0  1  0  0  0  0  0  0
   -5.1274    0.1738   -0.5152 C   0  0  0  0  0  0  0  0  0  0  0  0
   -4.2658   -0.8843   -0.2194 C   0  0  0  0  0  0  0  0  0  0  0  0
   -4.6834   -1.9420    1.0791 Cl  0  0  0  0  0  0  0  0  0  0  0  0
   -0.0124   -1.1773   -0.1972 C   0  0  0  0  0  0  0  0  0  0  0  0
    0.2508   -1.0709   -1.3917 O   0  0  0  0  0  0  0  0  0  0  0  0
    0.7775   -0.7128    0.8487 N   0  0  0  0  0  0  0  0  0  0  0  0
    2.0181   -0.0473    0.7601 C   0  0  0  0  0  0  0  0  0  0  0  0
    2.6582    0.2632   -0.4414 C   0  0  0  0  0  0  0  0  0  0  0  0
    3.8926    0.9281   -0.4440 C   0  0  0  0  0  0  0  0  0  0  0  0
    4.5050    1.2831    0.7614 C   0  0  0  0  0  0  0  0  0  0  0  0
    5.8124    1.9905    0.8156 C   0  0  0  0  0  0  0  0  0  0  0  0
    6.6251    1.9085   -0.2808 N   0  0  0  0  0  0  0  0  0  0  0  0
    6.1710    2.5986    1.8162 O   0  0  0  0  0  0  0  0  0  0  0  0
    3.8610    0.9861    1.9665 C   0  0  0  0  0  0  0  0  0  0  0  0
    2.6293    0.3230    1.9647 C   0  0  0  0  0  0  0  0  0  0  0  0
   -0.4843   -3.8604    0.2065 H   0  0  0  0  0  0  0  0  0  0  0  0
   -0.2955   -3.0890    1.7907 H   0  0  0  0  0  0  0  0  0  0  0  0
   -1.8764   -3.7113    1.2728 H   0  0  0  0  0  0  0  0  0  0  0  0
   -1.7587   -1.2102    1.0687 H   0  0  0  0  0  0  0  0  0  0  0  0
   -1.9320   -0.4105   -2.6627 H   0  0  0  0  0  0  0  0  0  0  0  0
   -3.4317    1.4734   -3.1998 H   0  0  0  0  0  0  0  0  0  0  0  0
   -6.0278    0.3173    0.0785 H   0  0  0  0  0  0  0  0  0  0  0  0
    0.4302   -0.8622    1.7883 H   0  0  0  0  0  0  0  0  0  0  0  0
    2.2225    0.0109   -1.4033 H   0  0  0  0  0  0  0  0  0  0  0  0
    4.3412    1.1790   -1.4006 H   0  0  0  0  0  0  0  0  0  0  0  0
    6.4974    1.2111   -0.9994 H   0  0  0  0  0  0  0  0  0  0  0  0
    7.5544    2.2948   -0.1703 H   0  0  0  0  0  0  0  0  0  0  0  0
    4.3183    1.2694    2.9131 H   0  0  0  0  0  0  0  0  0  0  0  0
    2.1612    0.1062    2.9217 H   0  0  0  0  0  0  0  0  0  0  0  0
  1  2  1  0
  2  3  1  0
  3  4  1  0
  4  5  2  0
  5  6  1  0
  6  7  2  0
  7  8  1  0
  8  9  2  0
  8 10  1  0
  7 11  1  0
 11 12  2  0
 12 13  1  0
  2 14  1  0
 14 15  2  0
 14 16  1  0
 16 17  1  0
 17 18  2  0
 18 19  1  0
 19 20  2  0
 20 21  1  0
 21 22  1  0
 21 23  2  0
 20 24  1  0
 24 25  2  0
 12  4  1  0
 25 17  1  0
  1 26  1  0
  1 27  1  0
  1 28  1  0
  2 29  1  0
  5 30  1  0
  6 31  1  0
 11 32  1  0
 16 33  1  0
 18 34  1  0
 19 35  1  0
 22 36  1  0
 22 37  1  0
 24 38  1  0
 25 39  1  0
M  CHG  2   8   1  10  -1
M  END
$$$$
