
     RDKit          3D

 39 41  0  0  0  0  0  0  0  0999 V2000
    4.8723   -0.7885    0.4133 C   0  0  0  0  0  0  0  0  0  0  0  0
    4.8822   -0.2055   -0.9895 C   0  0  0  0  0  0  0  0  0  0  0  0
    4.1190    1.0297   -1.0778 N   0  0  0  0  0  0  0  0  0  0  0  0
    4.8017    2.1986   -1.0596 N   0  0  0  0  0  0  0  0  0  0  0  0
    3.8492    3.1261   -1.1378 C   0  0  0  0  0  0  0  0  0  0  0  0
    2.5727    2.5553   -1.1762 C   0  0  0  0  0  0  0  0  0  0  0  0
    1.0084    3.5717   -1.3370 Br  0  0  0  0  0  0  0  0  0  0  0  0
    2.7453    1.1867   -1.1083 C   0  0  0  0  0  0  0  0  0  0  0  0
    1.7959    0.0886   -1.0951 C   0  0  0  0  0  0  0  0  0  0  0  0
    2.1103   -1.0202   -1.5093 O   0  0  0  0  0  0  0  0  0  0  0  0
    0.5808    0.4121   -0.5218 N   0  0  0  0  0  0  0  0  0  0  0  0
   -0.5414   -0.3957   -0.3903 C   0  0  0  0  0  0  0  0  0  0  0  0
   -0.6376   -1.9197   -1.1746 S   0  0  0  0  0  0  0  0  0  0  0  0
   -2.1704   -2.1699   -0.5756 C   0  0  0  0  0  0  0  0  0  0  0  0
   -2.6404   -1.1458    0.1972 C   0  0  0  0  0  0  0  0  0  0  0  0
   -1.6989   -0.0850    0.3320 C   0  0  0  0  0  0  0  0  0  0  0  0
   -1.8528    1.1483    1.0978 C   0  0  0  0  0  0  0  0  0  0  0  0
   -0.9866    2.0166    1.1433 O   0  0  0  0  0  0  0  0  0  0  0  0
   -3.0469    1.2240    1.7527 O   0  0  0  0  0  0  0  0  0  0  0  0
   -3.2224    2.4224    2.5098 C   0  0  0  0  0  0  0  0  0  0  0  0
   -4.0111   -1.4452    0.6898 C   0  0  0  0  0  0  0  0  0  0  0  0
   -4.4281   -2.6604   -0.1971 C   0  0  0  0  0  0  0  0  0  0  0  0
   -3.1110   -3.3031   -0.7281 C   0  0  0  0  0  0  0  0  0  0  0  0
    5.2796   -0.0744    1.1384 H   0  0  0  0  0  0  0  0  0  0  0  0
    3.8579   -1.0439    0.7354 H   0  0  0  0  0  0  0  0  0  0  0  0
    5.4793   -1.6989    0.4534 H   0  0  0  0  0  0  0  0  0  0  0  0
    5.9131    0.0207   -1.2885 H   0  0  0  0  0  0  0  0  0  0  0  0
    4.4892   -0.9102   -1.7278 H   0  0  0  0  0  0  0  0  0  0  0  0
    4.1340    4.1695   -1.1672 H   0  0  0  0  0  0  0  0  0  0  0  0
    0.5029    1.3252   -0.0793 H   0  0  0  0  0  0  0  0  0  0  0  0
   -2.4333    2.5209    3.2618 H   0  0  0  0  0  0  0  0  0  0  0  0
   -4.1851    2.3593    3.0253 H   0  0  0  0  0  0  0  0  0  0  0  0
   -3.2399    3.2918    1.8459 H   0  0  0  0  0  0  0  0  0  0  0  0
   -4.7050   -0.6105    0.5579 H   0  0  0  0  0  0  0  0  0  0  0  0
   -3.9829   -1.7342    1.7457 H   0  0  0  0  0  0  0  0  0  0  0  0
   -5.0527   -3.3763    0.3470 H   0  0  0  0  0  0  0  0  0  0  0  0
   -5.0145   -2.2933   -1.0505 H   0  0  0  0  0  0  0  0  0  0  0  0
   -2.8118   -4.1440   -0.0940 H   0  0  0  0  0  0  0  0  0  0  0  0
   -3.2210   -3.6425   -1.7612 H   0  0  0  0  0  0  0  0  0  0  0  0
  1  2  1  0
  2  3  1  0
  3  4  1  0
  4  5  2  0
  5  6  1  0
  6  7  1  0
  6  8  2  0
  8  9  1  0
  9 10  2  0
  9 11  1  0
 11 12  1  0
 12 13  1  0
 13 14  1  0
 14 15  2  0
 15 16  1  0
 16 17  1  0
 17 18  2  0
 17 19  1  0
 19 20  1  0
 15 21  1  0
 21 22  1  0
 22 23  1  0
  8  3  1  0
 16 12  2  0
 23 14  1  0
  1 24  1  0
  1 25  1  0
  1 26  1  0
  2 27  1  0
  2 28  1  0
  5 29  1  0
 11 30  1  0
 20 31  1  0
 20 32  1  0
 20 33  1  0
 21 34  1  0
 21 35  1  0
 22 36  1  0
 22 37  1  0
 23 38  1  0
 23 39  1  0
M  END
$$$$
