
     RDKit          3D

 73 75  0  0  0  0  0  0  0  0999 V2000
   -1.9337   -5.7164   -0.8119 C   0  0  0  0  0  0  0  0  0  0  0  0
   -2.9238   -4.6054   -0.4801 C   0  0  0  0  0  0  0  0  0  0  0  0
   -3.6111   -4.8750    0.8579 C   0  0  0  0  0  0  0  0  0  0  0  0
   -2.2596   -3.3053   -0.4545 N   0  0  0  0  0  0  0  0  0  0  0  0
   -2.9895   -2.1506   -0.6550 C   0  0  0  0  0  0  0  0  0  0  0  0
   -4.1572   -2.1955   -1.0237 O   0  0  0  0  0  0  0  0  0  0  0  0
   -2.2524   -1.0074   -0.4094 N   0  0  0  0  0  0  0  0  0  0  0  0
   -2.6918    0.3363   -0.5378 C   0  0  0  0  0  0  0  0  0  0  0  0
   -3.9934    0.6629   -0.9518 C   0  0  0  0  0  0  0  0  0  0  0  0
   -4.4301    1.9882   -1.0200 C   0  0  0  0  0  0  0  0  0  0  0  0
   -3.5672    3.0201   -0.6804 C   0  0  0  0  0  0  0  0  0  0  0  0
   -2.2598    2.7237   -0.2868 C   0  0  0  0  0  0  0  0  0  0  0  0
   -1.8115    1.3932   -0.2244 C   0  0  0  0  0  0  0  0  0  0  0  0
   -0.5456    1.1668    0.2647 O   0  0  0  0  0  0  0  0  0  0  0  0
    0.4147    0.7849   -0.7383 C   0  0  0  0  0  0  0  0  0  0  0  0
    1.4261   -0.1361   -0.0106 C   0  0  0  0  0  0  0  0  0  0  0  0
    0.7556   -1.3697    0.5098 N   0  0  0  0  0  0  0  0  0  0  0  0
    0.4713   -1.3015    1.9665 C   0  0  0  0  0  0  0  0  0  0  0  0
    1.3722   -2.8553   -0.0568 S   0  0  0  0  0  6  0  0  0  0  0  0
    0.5116   -3.8848    0.4838 O   0  0  0  0  0  0  0  0  0  0  0  0
    1.5827   -2.7269   -1.4814 O   0  0  0  0  0  0  0  0  0  0  0  0
    2.9601   -2.9975    0.7303 C   0  0  0  0  0  0  0  0  0  0  0  0
    3.0687   -3.6794    1.9490 C   0  0  0  0  0  0  0  0  0  0  0  0
    4.3159   -3.8040    2.5586 C   0  0  0  0  0  0  0  0  0  0  0  0
    5.4399   -3.2624    1.9426 C   0  0  0  0  0  0  0  0  0  0  0  0
    6.6328   -3.3730    2.5362 F   0  0  0  0  0  0  0  0  0  0  0  0
    5.3423   -2.6108    0.7169 C   0  0  0  0  0  0  0  0  0  0  0  0
    4.0999   -2.4886    0.0963 C   0  0  0  0  0  0  0  0  0  0  0  0
    1.1680    2.0214   -1.3161 C   0  0  0  0  0  0  0  0  0  0  0  0
    2.0204    1.6364   -2.5340 C   0  0  0  0  0  0  0  0  0  0  0  0
    0.2344    3.1766   -1.7143 C   0  0  0  0  0  0  0  0  0  0  0  0
   -0.1511    3.9895   -0.5563 N   0  0  0  0  0  0  0  0  0  0  0  0
    0.7378    5.1262   -0.2204 C   0  0  0  0  0  0  0  0  0  0  0  0
    1.0698    5.2025    1.2726 C   0  0  0  0  0  0  0  0  0  0  0  0
    0.1880    6.4703   -0.7356 C   0  0  0  0  0  0  0  0  0  0  0  0
    0.2095    6.4893   -2.1657 O   0  0  0  0  0  0  0  0  0  0  0  0
   -1.3932    3.8676    0.0679 C   0  0  0  0  0  0  0  0  0  0  0  0
   -1.8346    4.6756    0.8818 O   0  0  0  0  0  0  0  0  0  0  0  0
   -2.4420   -6.6824   -0.8685 H   0  0  0  0  0  0  0  0  0  0  0  0
   -1.1509   -5.8015   -0.0536 H   0  0  0  0  0  0  0  0  0  0  0  0
   -1.4513   -5.5298   -1.7756 H   0  0  0  0  0  0  0  0  0  0  0  0
   -3.6884   -4.5849   -1.2686 H   0  0  0  0  0  0  0  0  0  0  0  0
   -4.3794   -4.1216    1.0663 H   0  0  0  0  0  0  0  0  0  0  0  0
   -2.8896   -4.8452    1.6812 H   0  0  0  0  0  0  0  0  0  0  0  0
   -4.1006   -5.8545    0.8626 H   0  0  0  0  0  0  0  0  0  0  0  0
   -1.4315   -3.2555    0.1298 H   0  0  0  0  0  0  0  0  0  0  0  0
   -1.2985   -1.1432   -0.0934 H   0  0  0  0  0  0  0  0  0  0  0  0
   -4.7201   -0.1003   -1.2170 H   0  0  0  0  0  0  0  0  0  0  0  0
   -5.4525    2.2052   -1.3237 H   0  0  0  0  0  0  0  0  0  0  0  0
   -3.9133    4.0510   -0.7146 H   0  0  0  0  0  0  0  0  0  0  0  0
   -0.0637    0.2244   -1.5539 H   0  0  0  0  0  0  0  0  0  0  0  0
    2.2289   -0.4070   -0.6956 H   0  0  0  0  0  0  0  0  0  0  0  0
    1.8913    0.3974    0.8275 H   0  0  0  0  0  0  0  0  0  0  0  0
   -0.0893   -2.1813    2.2933 H   0  0  0  0  0  0  0  0  0  0  0  0
    1.3941   -1.2201    2.5452 H   0  0  0  0  0  0  0  0  0  0  0  0
   -0.1547   -0.4346    2.1909 H   0  0  0  0  0  0  0  0  0  0  0  0
    2.1950   -4.1215    2.4236 H   0  0  0  0  0  0  0  0  0  0  0  0
    4.4248   -4.3267    3.5041 H   0  0  0  0  0  0  0  0  0  0  0  0
    6.2380   -2.2099    0.2511 H   0  0  0  0  0  0  0  0  0  0  0  0
    4.0317   -2.0017   -0.8744 H   0  0  0  0  0  0  0  0  0  0  0  0
    1.8528    2.3999   -0.5445 H   0  0  0  0  0  0  0  0  0  0  0  0
    1.4017    1.2089   -3.3317 H   0  0  0  0  0  0  0  0  0  0  0  0
    2.5374    2.5172   -2.9366 H   0  0  0  0  0  0  0  0  0  0  0  0
    2.7965    0.9109   -2.2732 H   0  0  0  0  0  0  0  0  0  0  0  0
   -0.6453    2.7995   -2.2472 H   0  0  0  0  0  0  0  0  0  0  0  0
    0.7305    3.8448   -2.4288 H   0  0  0  0  0  0  0  0  0  0  0  0
    1.6905    4.9337   -0.7322 H   0  0  0  0  0  0  0  0  0  0  0  0
    1.4233    4.2356    1.6586 H   0  0  0  0  0  0  0  0  0  0  0  0
    1.8646    5.9363    1.4476 H   0  0  0  0  0  0  0  0  0  0  0  0
    0.2132    5.5117    1.8776 H   0  0  0  0  0  0  0  0  0  0  0  0
    0.8167    7.2977   -0.3943 H   0  0  0  0  0  0  0  0  0  0  0  0
   -0.8374    6.6536   -0.4021 H   0  0  0  0  0  0  0  0  0  0  0  0
   -0.2381    7.3081   -2.4392 H   0  0  0  0  0  0  0  0  0  0  0  0
  1  2  1  0
  2  3  1  0
  2  4  1  0
  4  5  1  0
  5  6  2  0
  5  7  1  0
  7  8  1  0
  8  9  2  0
  9 10  1  0
 10 11  2  0
 11 12  1  0
 12 13  2  0
 13 14  1  0
 14 15  1  0
 15 16  1  0
 16 17  1  0
 17 18  1  0
 17 19  1  0
 19 20  2  0
 19 21  2  0
 19 22  1  0
 22 23  2  0
 23 24  1  0
 24 25  2  0
 25 26  1  0
 25 27  1  0
 27 28  2  0
 15 29  1  0
 29 30  1  0
 29 31  1  0
 31 32  1  0
 32 33  1  0
 33 34  1  0
 33 35  1  0
 35 36  1  0
 32 37  1  0
 37 38  2  0
 13  8  1  0
 28 22  1  0
 37 12  1  0
  1 39  1  0
  1 40  1  0
  1 41  1  0
  2 42  1  0
  3 43  1  0
  3 44  1  0
  3 45  1  0
  4 46  1  0
  7 47  1  0
  9 48  1  0
 10 49  1  0
 11 50  1  0
 15 51  1  0
 16 52  1  0
 16 53  1  0
 18 54  1  0
 18 55  1  0
 18 56  1  0
 23 57  1  0
 24 58  1  0
 27 59  1  0
 28 60  1  0
 29 61  1  0
 30 62  1  0
 30 63  1  0
 30 64  1  0
 31 65  1  0
 31 66  1  0
 33 67  1  0
 34 68  1  0
 34 69  1  0
 34 70  1  0
 35 71  1  0
 35 72  1  0
 36 73  1  0
M  END
$$$$
