
     RDKit          3D

 61 65  0  0  0  0  0  0  0  0999 V2000
   -8.2380   -1.1364   -3.6339 C   0  0  0  0  0  0  0  0  0  0  0  0
   -6.9672   -1.3028   -2.8527 C   0  0  0  0  0  0  0  0  0  0  0  0
   -6.6478   -0.4208   -1.8170 C   0  0  0  0  0  0  0  0  0  0  0  0
   -5.4743   -0.5922   -1.0744 C   0  0  0  0  0  0  0  0  0  0  0  0
   -4.5911   -1.6453   -1.3559 C   0  0  0  0  0  0  0  0  0  0  0  0
   -3.3834   -1.8241   -0.5978 N   0  0  0  0  0  0  0  0  0  0  0  0
   -2.4768   -0.7932   -0.3510 C   0  0  0  0  0  0  0  0  0  0  0  0
   -2.6126    0.7530   -1.1797 S   0  0  0  0  0  0  0  0  0  0  0  0
   -1.4050    0.4366   -2.5017 C   0  0  0  0  0  0  0  0  0  0  0  0
    0.0035    0.9511   -2.2177 C   0  0  0  0  0  0  0  0  0  0  0  0
    0.7356    1.2354   -3.1674 O   0  0  0  0  0  0  0  0  0  0  0  0
    0.3644    1.0011   -0.8867 N   0  0  0  0  0  0  0  0  0  0  0  0
    1.5943    1.4014   -0.3315 C   0  0  0  0  0  0  0  0  0  0  0  0
    1.6761    1.4705    1.0593 C   0  0  0  0  0  0  0  0  0  0  0  0
    2.8678    1.8588    1.6907 C   0  0  0  0  0  0  0  0  0  0  0  0
    4.0226    2.1869    0.9649 C   0  0  0  0  0  0  0  0  0  0  0  0
    5.1980    2.5679    1.5852 N   0  0  0  0  0  0  0  0  0  0  0  0
    5.4412    2.3522    3.0202 C   0  0  0  0  0  0  0  0  0  0  0  0
    6.9536    2.2962    3.2976 C   0  0  0  0  0  0  0  0  0  0  0  0
    7.6627    3.4847    2.9197 O   0  0  0  0  0  0  0  0  0  0  0  0
    7.0530    4.1878    1.8304 C   0  0  0  0  0  0  0  0  0  0  0  0
    6.2640    3.2887    0.8634 C   0  0  0  0  0  0  0  0  0  0  0  0
    3.9142    2.1021   -0.4316 C   0  0  0  0  0  0  0  0  0  0  0  0
    2.7239    1.7231   -1.0742 C   0  0  0  0  0  0  0  0  0  0  0  0
   -1.4278   -0.8830    0.4040 N   0  0  0  0  0  0  0  0  0  0  0  0
   -1.1509   -2.1130    1.0049 C   0  0  0  0  0  0  0  0  0  0  0  0
   -0.0218   -2.2263    1.8203 C   0  0  0  0  0  0  0  0  0  0  0  0
    0.3081   -3.4470    2.4151 C   0  0  0  0  0  0  0  0  0  0  0  0
   -0.4898   -4.5687    2.1958 C   0  0  0  0  0  0  0  0  0  0  0  0
   -1.6159   -4.4676    1.3804 C   0  0  0  0  0  0  0  0  0  0  0  0
   -1.9388   -3.2392    0.7875 C   0  0  0  0  0  0  0  0  0  0  0  0
   -3.1281   -3.1002   -0.0756 C   0  0  0  0  0  0  0  0  0  0  0  0
   -3.8198   -4.1027   -0.2499 O   0  0  0  0  0  0  0  0  0  0  0  0
   -4.9398   -2.5500   -2.3691 C   0  0  0  0  0  0  0  0  0  0  0  0
   -6.1141   -2.3805   -3.1099 C   0  0  0  0  0  0  0  0  0  0  0  0
   -8.1062   -1.4818   -4.6660 H   0  0  0  0  0  0  0  0  0  0  0  0
   -8.5311   -0.0814   -3.6814 H   0  0  0  0  0  0  0  0  0  0  0  0
   -9.0458   -1.7105   -3.1662 H   0  0  0  0  0  0  0  0  0  0  0  0
   -7.3141    0.4047   -1.5735 H   0  0  0  0  0  0  0  0  0  0  0  0
   -5.2832    0.0960   -0.2538 H   0  0  0  0  0  0  0  0  0  0  0  0
   -1.3469   -0.6321   -2.7353 H   0  0  0  0  0  0  0  0  0  0  0  0
   -1.7711    0.9586   -3.3933 H   0  0  0  0  0  0  0  0  0  0  0  0
   -0.3508    0.7123   -0.2205 H   0  0  0  0  0  0  0  0  0  0  0  0
    0.8114    1.2415    1.6779 H   0  0  0  0  0  0  0  0  0  0  0  0
    2.8575    1.9227    2.7752 H   0  0  0  0  0  0  0  0  0  0  0  0
    5.0050    1.4047    3.3582 H   0  0  0  0  0  0  0  0  0  0  0  0
    4.9872    3.1750    3.5860 H   0  0  0  0  0  0  0  0  0  0  0  0
    7.4078    1.4552    2.7597 H   0  0  0  0  0  0  0  0  0  0  0  0
    7.1329    2.1320    4.3645 H   0  0  0  0  0  0  0  0  0  0  0  0
    7.8497    4.7128    1.2911 H   0  0  0  0  0  0  0  0  0  0  0  0
    6.3931    4.9518    2.2585 H   0  0  0  0  0  0  0  0  0  0  0  0
    6.9360    2.5554    0.4020 H   0  0  0  0  0  0  0  0  0  0  0  0
    5.8519    3.9331    0.0796 H   0  0  0  0  0  0  0  0  0  0  0  0
    4.7710    2.3110   -1.0673 H   0  0  0  0  0  0  0  0  0  0  0  0
    2.7283    1.6781   -2.1583 H   0  0  0  0  0  0  0  0  0  0  0  0
    0.6138   -1.3601    1.9888 H   0  0  0  0  0  0  0  0  0  0  0  0
    1.1916   -3.5219    3.0441 H   0  0  0  0  0  0  0  0  0  0  0  0
   -0.2344   -5.5205    2.6564 H   0  0  0  0  0  0  0  0  0  0  0  0
   -2.2383   -5.3439    1.2080 H   0  0  0  0  0  0  0  0  0  0  0  0
   -4.2979   -3.3964   -2.6063 H   0  0  0  0  0  0  0  0  0  0  0  0
   -6.3572   -3.1006   -3.8895 H   0  0  0  0  0  0  0  0  0  0  0  0
  1  2  1  0
  2  3  2  0
  3  4  1  0
  4  5  2  0
  5  6  1  0
  6  7  1  0
  7  8  1  0
  8  9  1  0
  9 10  1  0
 10 11  2  0
 10 12  1  0
 12 13  1  0
 13 14  2  0
 14 15  1  0
 15 16  2  0
 16 17  1  0
 17 18  1  0
 18 19  1  0
 19 20  1  0
 20 21  1  0
 21 22  1  0
 16 23  1  0
 23 24  2  0
  7 25  2  0
 25 26  1  0
 26 27  2  0
 27 28  1  0
 28 29  2  0
 29 30  1  0
 30 31  2  0
 31 32  1  0
 32 33  2  0
  5 34  1  0
 34 35  2  0
 35  2  1  0
 32  6  1  0
 24 13  1  0
 31 26  1  0
 22 17  1  0
  1 36  1  0
  1 37  1  0
  1 38  1  0
  3 39  1  0
  4 40  1  0
  9 41  1  0
  9 42  1  0
 12 43  1  0
 14 44  1  0
 15 45  1  0
 18 46  1  0
 18 47  1  0
 19 48  1  0
 19 49  1  0
 21 50  1  0
 21 51  1  0
 22 52  1  0
 22 53  1  0
 23 54  1  0
 24 55  1  0
 27 56  1  0
 28 57  1  0
 29 58  1  0
 30 59  1  0
 34 60  1  0
 35 61  1  0
M  END
$$$$
