
     RDKit          3D

 61 66  0  0  0  0  0  0  0  0999 V2000
    9.4086    0.4411    1.8359 F   0  0  0  0  0  0  0  0  0  0  0  0
    8.0748    0.3522    2.0963 C   0  0  0  0  0  0  0  0  0  0  0  0
    7.7704    1.4503    2.8435 F   0  0  0  0  0  0  0  0  0  0  0  0
    7.9268   -0.7144    2.9267 F   0  0  0  0  0  0  0  0  0  0  0  0
    7.2393    0.2280    0.8466 C   0  0  0  0  0  0  0  0  0  0  0  0
    7.6957   -0.5418   -0.2336 C   0  0  0  0  0  0  0  0  0  0  0  0
    6.9213   -0.6742   -1.3848 C   0  0  0  0  0  0  0  0  0  0  0  0
    5.6807   -0.0425   -1.4669 C   0  0  0  0  0  0  0  0  0  0  0  0
    5.1940    0.7225   -0.3966 C   0  0  0  0  0  0  0  0  0  0  0  0
    3.8497    1.4148   -0.4965 C   0  0  0  0  0  0  0  0  0  0  0  0
    2.7434    0.4935   -0.7992 N   0  0  0  0  0  0  0  0  0  0  0  0
    1.5176    1.2560   -1.1211 C   0  0  0  0  0  0  0  0  0  0  0  0
    0.3071    0.3419   -1.4031 C   0  0  0  0  0  0  0  0  0  0  0  0
    0.0504   -0.5487   -0.2539 N   0  0  0  0  0  0  0  0  0  0  0  0
   -1.1788   -1.2045   -0.2154 C   0  0  0  0  0  0  0  0  0  0  0  0
   -1.2146   -2.5091   -0.3123 N   0  0  0  0  0  0  0  0  0  0  0  0
   -2.4463   -3.1941   -0.3030 C   0  0  0  0  0  0  0  0  0  0  0  0
   -2.4320   -4.5850   -0.4237 C   0  0  0  0  0  0  0  0  0  0  0  0
   -3.6247   -5.3137   -0.4257 C   0  0  0  0  0  0  0  0  0  0  0  0
   -4.8487   -4.6535   -0.3091 C   0  0  0  0  0  0  0  0  0  0  0  0
   -4.8877   -3.2637   -0.1881 C   0  0  0  0  0  0  0  0  0  0  0  0
   -3.6863   -2.5487   -0.1855 C   0  0  0  0  0  0  0  0  0  0  0  0
   -3.6325   -1.1516   -0.0521 N   0  0  0  0  0  0  0  0  0  0  0  0
   -4.6554   -0.2462    0.1078 C   0  0  0  0  0  0  0  0  0  0  0  0
   -4.1073    1.0141    0.2622 C   0  0  0  0  0  0  0  0  0  0  0  0
   -4.8865    2.2262    0.4693 C   0  0  0  0  0  0  0  0  0  0  0  0
   -4.4504    3.4408   -0.0780 C   0  0  0  0  0  0  0  0  0  0  0  0
   -5.1817    4.6147    0.1215 C   0  0  0  0  0  0  0  0  0  0  0  0
   -6.3548    4.5867    0.8715 C   0  0  0  0  0  0  0  0  0  0  0  0
   -6.7984    3.3863    1.4219 C   0  0  0  0  0  0  0  0  0  0  0  0
   -6.0677    2.2116    1.2230 C   0  0  0  0  0  0  0  0  0  0  0  0
   -2.6978    0.8539    0.1677 C   0  0  0  0  0  0  0  0  0  0  0  0
   -2.4304   -0.4847   -0.0527 C   0  0  0  0  0  0  0  0  0  0  0  0
    1.2537   -1.3400    0.0801 C   0  0  0  0  0  0  0  0  0  0  0  0
    2.4620   -0.4141    0.3384 C   0  0  0  0  0  0  0  0  0  0  0  0
    5.9828    0.8522    0.7563 C   0  0  0  0  0  0  0  0  0  0  0  0
    8.6612   -1.0423   -0.1811 H   0  0  0  0  0  0  0  0  0  0  0  0
    7.2808   -1.2723   -2.2183 H   0  0  0  0  0  0  0  0  0  0  0  0
    5.0802   -0.1560   -2.3680 H   0  0  0  0  0  0  0  0  0  0  0  0
    3.9452    2.1561   -1.3020 H   0  0  0  0  0  0  0  0  0  0  0  0
    3.6422    1.9821    0.4212 H   0  0  0  0  0  0  0  0  0  0  0  0
    1.2657    1.9357   -0.2955 H   0  0  0  0  0  0  0  0  0  0  0  0
    1.6935    1.8710   -2.0122 H   0  0  0  0  0  0  0  0  0  0  0  0
    0.4951   -0.2625   -2.2999 H   0  0  0  0  0  0  0  0  0  0  0  0
   -0.5600    0.9744   -1.6184 H   0  0  0  0  0  0  0  0  0  0  0  0
   -1.4798   -5.1010   -0.5166 H   0  0  0  0  0  0  0  0  0  0  0  0
   -3.5956   -6.3963   -0.5176 H   0  0  0  0  0  0  0  0  0  0  0  0
   -5.7742   -5.2250   -0.3097 H   0  0  0  0  0  0  0  0  0  0  0  0
   -5.8510   -2.7732   -0.0966 H   0  0  0  0  0  0  0  0  0  0  0  0
   -5.6886   -0.5618    0.1050 H   0  0  0  0  0  0  0  0  0  0  0  0
   -3.5430    3.4824   -0.6751 H   0  0  0  0  0  0  0  0  0  0  0  0
   -4.8350    5.5492   -0.3109 H   0  0  0  0  0  0  0  0  0  0  0  0
   -6.9221    5.5001    1.0284 H   0  0  0  0  0  0  0  0  0  0  0  0
   -7.7106    3.3632    2.0107 H   0  0  0  0  0  0  0  0  0  0  0  0
   -6.4234    1.2907    1.6770 H   0  0  0  0  0  0  0  0  0  0  0  0
   -1.9514    1.6313    0.2652 H   0  0  0  0  0  0  0  0  0  0  0  0
    1.0727   -1.9256    0.9897 H   0  0  0  0  0  0  0  0  0  0  0  0
    1.4841   -2.0387   -0.7343 H   0  0  0  0  0  0  0  0  0  0  0  0
    3.3305   -1.0526    0.5363 H   0  0  0  0  0  0  0  0  0  0  0  0
    2.2698    0.1714    1.2482 H   0  0  0  0  0  0  0  0  0  0  0  0
    5.6174    1.4435    1.5938 H   0  0  0  0  0  0  0  0  0  0  0  0
  1  2  1  0
  2  3  1  0
  2  4  1  0
  2  5  1  0
  5  6  2  0
  6  7  1  0
  7  8  2  0
  8  9  1  0
  9 10  1  0
 10 11  1  0
 11 12  1  0
 12 13  1  0
 13 14  1  0
 14 15  1  0
 15 16  2  0
 16 17  1  0
 17 18  2  0
 18 19  1  0
 19 20  2  0
 20 21  1  0
 21 22  2  0
 22 23  1  0
 23 24  1  0
 24 25  2  0
 25 26  1  0
 26 27  2  0
 27 28  1  0
 28 29  2  0
 29 30  1  0
 30 31  2  0
 25 32  1  0
 32 33  2  0
 14 34  1  0
 34 35  1  0
  9 36  2  0
 36  5  1  0
 35 11  1  0
 33 15  1  0
 22 17  1  0
 33 23  1  0
 31 26  1  0
  6 37  1  0
  7 38  1  0
  8 39  1  0
 10 40  1  0
 10 41  1  0
 12 42  1  0
 12 43  1  0
 13 44  1  0
 13 45  1  0
 18 46  1  0
 19 47  1  0
 20 48  1  0
 21 49  1  0
 24 50  1  0
 27 51  1  0
 28 52  1  0
 29 53  1  0
 30 54  1  0
 31 55  1  0
 32 56  1  0
 34 57  1  0
 34 58  1  0
 35 59  1  0
 35 60  1  0
 36 61  1  0
M  END
$$$$
