
     RDKit          3D

 26 27  0  0  0  0  0  0  0  0999 V2000
    0.7744   -0.4825   -2.3406 O   0  0  0  0  0  0  0  0  0  0  0  0
    1.3138   -0.1353   -1.2933 C   0  0  0  0  0  0  0  0  0  0  0  0
    2.7716    0.2812   -1.2714 C   0  0  0  0  0  0  0  0  0  0  0  0
    3.2185    0.7318    0.1154 C   0  0  0  0  0  0  0  0  0  0  0  0
    2.9053   -0.3334    1.1609 C   0  0  0  0  0  0  0  0  0  0  0  0
    1.4460   -0.7436    1.1354 C   0  0  0  0  0  0  0  0  0  0  0  0
    1.0038   -1.5523    1.9475 O   0  0  0  0  0  0  0  0  0  0  0  0
    0.6133   -0.1848    0.0265 C   0  0  0  0  0  0  0  0  0  0  0  0
   -0.6115    0.3485    0.2298 C   0  0  0  0  0  0  0  0  0  0  0  0
   -1.3366    0.4411    1.8211 S   0  0  0  0  0  0  0  0  0  0  0  0
   -2.8136   -0.5795    1.5361 C   0  0  0  0  0  0  0  0  0  0  0  0
   -3.4252   -0.4846    0.1374 C   0  0  0  0  0  0  0  0  0  0  0  0
   -3.2312    0.8639   -0.5436 C   0  0  0  0  0  0  0  0  0  0  0  0
   -1.5069    1.1476   -1.0532 S   0  0  0  0  0  0  0  0  0  0  0  0
    2.9077    1.1003   -1.9852 H   0  0  0  0  0  0  0  0  0  0  0  0
    3.3715   -0.5756   -1.5980 H   0  0  0  0  0  0  0  0  0  0  0  0
    2.7108    1.6684    0.3799 H   0  0  0  0  0  0  0  0  0  0  0  0
    4.2940    0.9412    0.1091 H   0  0  0  0  0  0  0  0  0  0  0  0
    3.5103   -1.2283    0.9774 H   0  0  0  0  0  0  0  0  0  0  0  0
    3.1384    0.0522    2.1589 H   0  0  0  0  0  0  0  0  0  0  0  0
   -2.5728   -1.6239    1.7623 H   0  0  0  0  0  0  0  0  0  0  0  0
   -3.5577   -0.2617    2.2748 H   0  0  0  0  0  0  0  0  0  0  0  0
   -4.4990   -0.6954    0.2191 H   0  0  0  0  0  0  0  0  0  0  0  0
   -3.0192   -1.2847   -0.4961 H   0  0  0  0  0  0  0  0  0  0  0  0
   -3.8456    0.9064   -1.4490 H   0  0  0  0  0  0  0  0  0  0  0  0
   -3.5601    1.6829    0.1055 H   0  0  0  0  0  0  0  0  0  0  0  0
  1  2  2  0
  2  3  1  0
  3  4  1  0
  4  5  1  0
  5  6  1  0
  6  7  2  0
  6  8  1  0
  8  9  2  3
  9 10  1  0
 10 11  1  0
 11 12  1  0
 12 13  1  0
 13 14  1  0
  8  2  1  0
 14  9  1  0
  3 15  1  0
  3 16  1  0
  4 17  1  0
  4 18  1  0
  5 19  1  0
  5 20  1  0
 11 21  1  0
 11 22  1  0
 12 23  1  0
 12 24  1  0
 13 25  1  0
 13 26  1  0
M  END
$$$$
