
     RDKit          3D

 42 44  0  0  0  0  0  0  0  0999 V2000
    5.0661    0.9603    5.3180 C   0  0  0  0  0  0  0  0  0  0  0  0
    3.6498    0.8604    5.4120 O   0  0  0  0  0  0  0  0  0  0  0  0
    2.9611    0.6816    4.2441 C   0  0  0  0  0  0  0  0  0  0  0  0
    3.5173    0.5885    2.9737 C   0  0  0  0  0  0  0  0  0  0  0  0
    2.6876    0.4050    1.8645 C   0  0  0  0  0  0  0  0  0  0  0  0
    1.2908    0.3117    2.0053 C   0  0  0  0  0  0  0  0  0  0  0  0
    0.5095    0.1150    0.7382 C   0  0  0  0  0  0  0  0  0  0  0  0
    1.0923    0.0442   -0.3442 O   0  0  0  0  0  0  0  0  0  0  0  0
   -0.8721    0.0185    0.8388 N   0  0  0  0  0  0  0  0  0  0  0  0
   -1.8323   -0.1622   -0.1503 C   0  0  0  0  0  0  0  0  0  0  0  0
   -3.4126   -0.2277    0.3834 S   0  0  0  0  0  0  0  0  0  0  0  0
   -1.3181   -0.2588   -1.4225 N   0  0  0  0  0  0  0  0  0  0  0  0
   -1.8791   -0.4401   -2.7064 C   0  0  0  0  0  0  0  0  0  0  0  0
   -3.2571   -0.5772   -2.9868 C   0  0  0  0  0  0  0  0  0  0  0  0
   -3.7343   -0.7548   -4.2969 C   0  0  0  0  0  0  0  0  0  0  0  0
   -2.8004   -0.7899   -5.2997 C   0  0  0  0  0  0  0  0  0  0  0  0
   -2.9648   -0.9497   -6.6703 N   0  0  0  0  0  0  0  0  0  0  0  0
   -1.7025   -0.9172   -7.2810 C   0  0  0  0  0  0  0  0  0  0  0  0
   -1.4663   -1.0264   -8.4706 O   0  0  0  0  0  0  0  0  0  0  0  0
   -0.7652   -0.7341   -6.2536 N   0  0  0  0  0  0  0  0  0  0  0  0
   -1.4424   -0.6566   -5.0411 C   0  0  0  0  0  0  0  0  0  0  0  0
   -0.9531   -0.4820   -3.7672 C   0  0  0  0  0  0  0  0  0  0  0  0
    0.7252    0.4058    3.2925 C   0  0  0  0  0  0  0  0  0  0  0  0
   -0.6399    0.3110    3.3970 O   0  0  0  0  0  0  0  0  0  0  0  0
   -1.2197    0.4053    4.6959 C   0  0  0  0  0  0  0  0  0  0  0  0
    1.5724    0.5900    4.3958 C   0  0  0  0  0  0  0  0  0  0  0  0
    5.3613    1.8309    4.7231 H   0  0  0  0  0  0  0  0  0  0  0  0
    5.5005    0.0394    4.9153 H   0  0  0  0  0  0  0  0  0  0  0  0
    5.4590    1.0994    6.3298 H   0  0  0  0  0  0  0  0  0  0  0  0
    4.5876    0.6537    2.8061 H   0  0  0  0  0  0  0  0  0  0  0  0
    3.1454    0.3348    0.8782 H   0  0  0  0  0  0  0  0  0  0  0  0
   -1.2631    0.0883    1.7729 H   0  0  0  0  0  0  0  0  0  0  0  0
   -0.2987   -0.1798   -1.4248 H   0  0  0  0  0  0  0  0  0  0  0  0
   -4.0049   -0.5514   -2.2049 H   0  0  0  0  0  0  0  0  0  0  0  0
   -4.7944   -0.8584   -4.4942 H   0  0  0  0  0  0  0  0  0  0  0  0
   -3.8283   -1.0707   -7.1729 H   0  0  0  0  0  0  0  0  0  0  0  0
    0.2281   -0.6732   -6.4050 H   0  0  0  0  0  0  0  0  0  0  0  0
    0.1131   -0.3810   -3.5976 H   0  0  0  0  0  0  0  0  0  0  0  0
   -1.0179    1.3821    5.1471 H   0  0  0  0  0  0  0  0  0  0  0  0
   -2.3038    0.3089    4.5825 H   0  0  0  0  0  0  0  0  0  0  0  0
   -0.8786   -0.4119    5.3396 H   0  0  0  0  0  0  0  0  0  0  0  0
    1.1824    0.6681    5.4065 H   0  0  0  0  0  0  0  0  0  0  0  0
  1  2  1  0
  2  3  1  0
  3  4  2  0
  4  5  1  0
  5  6  2  0
  6  7  1  0
  7  8  2  0
  7  9  1  0
  9 10  1  0
 10 11  2  0
 10 12  1  0
 12 13  1  0
 13 14  2  0
 14 15  1  0
 15 16  2  0
 16 17  1  0
 17 18  1  0
 18 19  2  0
 18 20  1  0
 20 21  1  0
 21 22  2  0
  6 23  1  0
 23 24  1  0
 24 25  1  0
 23 26  2  0
 26  3  1  0
 22 13  1  0
 21 16  1  0
  1 27  1  0
  1 28  1  0
  1 29  1  0
  4 30  1  0
  5 31  1  0
  9 32  1  0
 12 33  1  0
 14 34  1  0
 15 35  1  0
 17 36  1  0
 20 37  1  0
 22 38  1  0
 25 39  1  0
 25 40  1  0
 25 41  1  0
 26 42  1  0
M  END
$$$$
