
     RDKit          3D

 28 28  0  0  0  0  0  0  0  0999 V2000
   -2.0846   -0.8331   -1.0646 C   0  0  0  0  0  0  0  0  0  0  0  0
   -1.9686   -1.4590    0.3308 C   0  0  0  0  0  0  0  0  0  0  0  0
   -3.3907   -1.6981    0.8714 C   0  0  0  0  0  0  0  0  0  0  0  0
   -1.2406   -2.8076    0.2494 C   0  0  0  0  0  0  0  0  0  0  0  0
   -1.2004   -0.5350    1.3021 C   0  0  0  0  0  0  0  0  0  0  0  0
   -1.6505   -0.2690    2.4219 O   0  0  0  0  0  0  0  0  0  0  0  0
    0.1500    0.0135    0.8775 C   0  0  0  0  0  0  0  0  0  0  0  0
   -0.0286    1.7440    0.3667 S   0  0  0  0  0  0  0  0  0  0  0  0
    1.6705    2.1366    0.0444 C   0  0  0  0  0  0  0  0  0  0  0  0
    2.5683    1.1374   -0.0263 N   0  0  0  0  0  0  0  0  0  0  0  0
    3.8408    1.4951   -0.2837 C   0  0  0  0  0  0  0  0  0  0  0  0
    4.2412    2.7952   -0.4752 C   0  0  0  0  0  0  0  0  0  0  0  0
    3.2456    3.7373   -0.3889 C   0  0  0  0  0  0  0  0  0  0  0  0
    1.9594    3.4362   -0.1346 N   0  0  0  0  0  0  0  0  0  0  0  0
   -2.6948   -1.4569   -1.7278 H   0  0  0  0  0  0  0  0  0  0  0  0
   -1.1074   -0.7147   -1.5440 H   0  0  0  0  0  0  0  0  0  0  0  0
   -2.5512    0.1571   -1.0154 H   0  0  0  0  0  0  0  0  0  0  0  0
   -3.9374   -0.7537    0.9763 H   0  0  0  0  0  0  0  0  0  0  0  0
   -3.3688   -2.1756    1.8580 H   0  0  0  0  0  0  0  0  0  0  0  0
   -3.9676   -2.3470    0.2028 H   0  0  0  0  0  0  0  0  0  0  0  0
   -0.2441   -2.7062   -0.1931 H   0  0  0  0  0  0  0  0  0  0  0  0
   -1.1094   -3.2453    1.2458 H   0  0  0  0  0  0  0  0  0  0  0  0
   -1.8003   -3.5240   -0.3624 H   0  0  0  0  0  0  0  0  0  0  0  0
    0.5672   -0.5909    0.0688 H   0  0  0  0  0  0  0  0  0  0  0  0
    0.8244   -0.0662    1.7372 H   0  0  0  0  0  0  0  0  0  0  0  0
    4.5528    0.6762   -0.3330 H   0  0  0  0  0  0  0  0  0  0  0  0
    5.2689    3.0595   -0.6804 H   0  0  0  0  0  0  0  0  0  0  0  0
    3.4556    4.7942   -0.5255 H   0  0  0  0  0  0  0  0  0  0  0  0
  1  2  1  0
  2  3  1  0
  2  4  1  0
  2  5  1  0
  5  6  2  0
  5  7  1  0
  7  8  1  0
  8  9  1  0
  9 10  2  0
 10 11  1  0
 11 12  2  0
 12 13  1  0
 13 14  2  0
 14  9  1  0
  1 15  1  0
  1 16  1  0
  1 17  1  0
  3 18  1  0
  3 19  1  0
  3 20  1  0
  4 21  1  0
  4 22  1  0
  4 23  1  0
  7 24  1  0
  7 25  1  0
 11 26  1  0
 12 27  1  0
 13 28  1  0
M  END
$$$$
