
     RDKit          3D

 71 72  0  0  0  0  0  0  0  0999 V2000
   -5.5165   -1.4695   -1.9648 C   0  0  0  0  0  0  0  0  0  0  0  0
   -4.6468   -0.6775   -1.1680 O   0  0  0  0  0  0  0  0  0  0  0  0
   -3.3702   -1.1381   -0.9725 C   0  0  0  0  0  0  0  0  0  0  0  0
   -2.8888   -2.3518   -1.4675 C   0  0  0  0  0  0  0  0  0  0  0  0
   -1.5979   -2.7832   -1.1559 C   0  0  0  0  0  0  0  0  0  0  0  0
   -0.7738   -2.0047   -0.3459 C   0  0  0  0  0  0  0  0  0  0  0  0
   -1.2097   -0.7650    0.1407 C   0  0  0  0  0  0  0  0  0  0  0  0
   -0.3275    0.0862    1.0547 C   0  0  0  0  0  0  0  0  0  0  0  0
   -0.6490   -0.2454    2.5553 C   0  0  0  0  0  0  0  0  0  0  0  0
   -0.0562   -1.0945    3.2174 O   0  0  0  0  0  0  0  0  0  0  0  0
   -1.6945    0.5170    3.0680 N   0  0  0  0  0  0  0  0  0  0  0  0
   -2.2447    0.3815    4.4262 C   0  0  0  0  0  0  0  0  0  0  0  0
   -2.9495   -0.9726    4.5917 C   0  0  0  0  0  0  0  0  0  0  0  0
   -3.2799    1.5065    4.6234 C   0  0  0  0  0  0  0  0  0  0  0  0
   -1.1540    0.5501    5.4971 C   0  0  0  0  0  0  0  0  0  0  0  0
    1.0989    0.1499    0.6099 N   0  0  0  0  0  0  0  0  0  0  0  0
    1.5485    1.1667   -0.2323 C   0  0  0  0  0  0  0  0  0  0  0  0
    2.7444    1.4370   -0.3729 O   0  0  0  0  0  0  0  0  0  0  0  0
    0.5115    1.9433   -1.0415 C   0  0  0  0  0  0  0  0  0  0  0  0
    1.1441    2.8439   -2.1003 C   0  0  0  0  0  0  0  0  0  0  0  0
    1.6678    2.0431   -3.2814 C   0  0  0  0  0  0  0  0  0  0  0  0
    1.0095    1.9671   -4.3127 O   0  0  0  0  0  0  0  0  0  0  0  0
    2.8894    1.4622   -3.0238 N   0  0  0  0  0  0  0  0  0  0  0  0
    3.5942    0.6583   -3.8953 C   0  0  0  0  0  0  0  0  0  0  0  0
    4.8173    0.0306   -3.5470 C   0  0  0  0  0  0  0  0  0  0  0  0
    5.1943   -0.6454   -4.6798 C   0  0  0  0  0  0  0  0  0  0  0  0
    6.3542   -1.4748   -5.0499 C   0  0  0  0  0  0  0  0  0  0  0  0
    4.2554   -0.4530   -5.6427 O   0  0  0  0  0  0  0  0  0  0  0  0
    3.2539    0.3594   -5.1520 N   0  0  0  0  0  0  0  0  0  0  0  0
    2.0925   -0.7445    1.2574 C   0  0  0  0  0  0  0  0  0  0  0  0
    3.0780   -1.3748    0.2589 C   0  0  0  0  0  0  0  0  0  0  0  0
    2.8511   -0.0380    2.3884 C   0  0  0  0  0  0  0  0  0  0  0  0
   -2.5141   -0.3348   -0.1920 C   0  0  0  0  0  0  0  0  0  0  0  0
   -2.9152    0.8638    0.3573 O   0  0  0  0  0  0  0  0  0  0  0  0
   -3.4520    1.7802   -0.6000 C   0  0  0  0  0  0  0  0  0  0  0  0
   -5.6800   -2.4546   -1.5190 H   0  0  0  0  0  0  0  0  0  0  0  0
   -5.1425   -1.5510   -2.9924 H   0  0  0  0  0  0  0  0  0  0  0  0
   -6.4881   -0.9642   -2.0017 H   0  0  0  0  0  0  0  0  0  0  0  0
   -3.4987   -3.0013   -2.0856 H   0  0  0  0  0  0  0  0  0  0  0  0
   -1.2412   -3.7391   -1.5350 H   0  0  0  0  0  0  0  0  0  0  0  0
    0.2121   -2.3868   -0.0987 H   0  0  0  0  0  0  0  0  0  0  0  0
   -0.6611    1.1231    0.9571 H   0  0  0  0  0  0  0  0  0  0  0  0
   -2.3442    0.8540    2.3652 H   0  0  0  0  0  0  0  0  0  0  0  0
   -3.7430   -1.0935    3.8456 H   0  0  0  0  0  0  0  0  0  0  0  0
   -3.4054   -1.0622    5.5863 H   0  0  0  0  0  0  0  0  0  0  0  0
   -2.2567   -1.8099    4.4679 H   0  0  0  0  0  0  0  0  0  0  0  0
   -2.8190    2.4940    4.4835 H   0  0  0  0  0  0  0  0  0  0  0  0
   -3.7189    1.4777    5.6280 H   0  0  0  0  0  0  0  0  0  0  0  0
   -4.1003    1.4252    3.8979 H   0  0  0  0  0  0  0  0  0  0  0  0
   -0.4549   -0.2940    5.5092 H   0  0  0  0  0  0  0  0  0  0  0  0
   -0.5631    1.4614    5.3269 H   0  0  0  0  0  0  0  0  0  0  0  0
   -1.5941    0.6167    6.5005 H   0  0  0  0  0  0  0  0  0  0  0  0
   -0.1754    1.2413   -1.5238 H   0  0  0  0  0  0  0  0  0  0  0  0
   -0.0448    2.5875   -0.3533 H   0  0  0  0  0  0  0  0  0  0  0  0
    1.9513    3.4620   -1.6891 H   0  0  0  0  0  0  0  0  0  0  0  0
    0.3844    3.5343   -2.4861 H   0  0  0  0  0  0  0  0  0  0  0  0
    3.2603    1.5363   -2.0806 H   0  0  0  0  0  0  0  0  0  0  0  0
    5.3507    0.0832   -2.6085 H   0  0  0  0  0  0  0  0  0  0  0  0
    6.9608   -1.7237   -4.1701 H   0  0  0  0  0  0  0  0  0  0  0  0
    6.0339   -2.4086   -5.5197 H   0  0  0  0  0  0  0  0  0  0  0  0
    6.9946   -0.9357   -5.7544 H   0  0  0  0  0  0  0  0  0  0  0  0
    1.5485   -1.5981    1.6709 H   0  0  0  0  0  0  0  0  0  0  0  0
    3.8264   -0.6604   -0.0991 H   0  0  0  0  0  0  0  0  0  0  0  0
    3.6307   -2.1852    0.7425 H   0  0  0  0  0  0  0  0  0  0  0  0
    2.5574   -1.7877   -0.6129 H   0  0  0  0  0  0  0  0  0  0  0  0
    3.5764   -0.7133    2.8536 H   0  0  0  0  0  0  0  0  0  0  0  0
    3.3855    0.8397    2.0221 H   0  0  0  0  0  0  0  0  0  0  0  0
    2.1643    0.3114    3.1659 H   0  0  0  0  0  0  0  0  0  0  0  0
   -4.5444    1.7687   -0.5514 H   0  0  0  0  0  0  0  0  0  0  0  0
   -3.1186    2.7846   -0.3203 H   0  0  0  0  0  0  0  0  0  0  0  0
   -3.1074    1.5889   -1.6218 H   0  0  0  0  0  0  0  0  0  0  0  0
  1  2  1  0
  2  3  1  0
  3  4  2  0
  4  5  1  0
  5  6  2  0
  6  7  1  0
  7  8  1  0
  8  9  1  0
  9 10  2  0
  9 11  1  0
 11 12  1  0
 12 13  1  0
 12 14  1  0
 12 15  1  0
  8 16  1  0
 16 17  1  0
 17 18  2  0
 17 19  1  0
 19 20  1  0
 20 21  1  0
 21 22  2  0
 21 23  1  0
 23 24  1  0
 24 25  1  0
 25 26  2  0
 26 27  1  0
 26 28  1  0
 28 29  1  0
 16 30  1  0
 30 31  1  0
 30 32  1  0
  7 33  2  0
 33 34  1  0
 34 35  1  0
 33  3  1  0
 29 24  2  0
  1 36  1  0
  1 37  1  0
  1 38  1  0
  4 39  1  0
  5 40  1  0
  6 41  1  0
  8 42  1  0
 11 43  1  0
 13 44  1  0
 13 45  1  0
 13 46  1  0
 14 47  1  0
 14 48  1  0
 14 49  1  0
 15 50  1  0
 15 51  1  0
 15 52  1  0
 19 53  1  0
 19 54  1  0
 20 55  1  0
 20 56  1  0
 23 57  1  0
 25 58  1  0
 27 59  1  0
 27 60  1  0
 27 61  1  0
 30 62  1  0
 31 63  1  0
 31 64  1  0
 31 65  1  0
 32 66  1  0
 32 67  1  0
 32 68  1  0
 35 69  1  0
 35 70  1  0
 35 71  1  0
M  END
$$$$
