
     RDKit          3D

 40 42  0  0  0  0  0  0  0  0999 V2000
   -2.4575    1.4467   -2.3669 C   0  0  0  0  0  0  0  0  0  0  0  0
   -3.5108    0.4894   -2.3751 O   0  0  0  0  0  0  0  0  0  0  0  0
   -3.5531   -0.3810   -1.3154 C   0  0  0  0  0  0  0  0  0  0  0  0
   -2.7264   -0.3516   -0.1907 C   0  0  0  0  0  0  0  0  0  0  0  0
   -2.8689   -1.3175    0.8193 C   0  0  0  0  0  0  0  0  0  0  0  0
   -2.0395   -1.2922    2.0300 C   0  0  0  0  0  0  0  0  0  0  0  0
   -0.7012   -1.3514    2.0999 C   0  0  0  0  0  0  0  0  0  0  0  0
    0.1380   -1.3051    3.6222 S   0  0  0  0  0  0  0  0  0  0  0  0
    1.7333   -1.4081    2.8772 C   0  0  0  0  0  0  0  0  0  0  0  0
    3.1490   -1.4565    3.7586 S   0  0  0  0  0  0  0  0  0  0  0  0
    1.5622   -1.4611    1.5106 N   0  0  0  0  0  0  0  0  0  0  0  0
    2.6580   -1.5173    0.6135 N   0  0  0  0  0  0  0  0  0  0  0  0
    3.0323   -0.2219    0.1431 C   0  0  0  0  0  0  0  0  0  0  0  0
    2.5336    0.8833    0.7585 N   0  0  0  0  0  0  0  0  0  0  0  0
    2.9469    2.0994    0.3282 C   0  0  0  0  0  0  0  0  0  0  0  0
    3.8523    2.2917   -0.7036 C   0  0  0  0  0  0  0  0  0  0  0  0
    4.2257    3.6793   -1.1238 C   0  0  0  0  0  0  0  0  0  0  0  0
    3.2784    4.2453   -1.9196 F   0  0  0  0  0  0  0  0  0  0  0  0
    4.3855    4.5258   -0.0707 F   0  0  0  0  0  0  0  0  0  0  0  0
    5.3891    3.7322   -1.8275 F   0  0  0  0  0  0  0  0  0  0  0  0
    4.3566    1.1535   -1.3382 C   0  0  0  0  0  0  0  0  0  0  0  0
    3.9529   -0.1115   -0.9103 C   0  0  0  0  0  0  0  0  0  0  0  0
    4.5885   -1.5002   -1.7146 Cl  0  0  0  0  0  0  0  0  0  0  0  0
    0.2810   -1.4808    0.9827 C   0  0  0  0  0  0  0  0  0  0  0  0
    0.0132   -1.6159   -0.2036 O   0  0  0  0  0  0  0  0  0  0  0  0
   -3.8705   -2.2918    0.7099 C   0  0  0  0  0  0  0  0  0  0  0  0
   -4.7064   -2.3198   -0.4055 C   0  0  0  0  0  0  0  0  0  0  0  0
   -4.5383   -1.3699   -1.4031 C   0  0  0  0  0  0  0  0  0  0  0  0
   -5.3706   -1.4188   -2.4883 O   0  0  0  0  0  0  0  0  0  0  0  0
   -1.4766    0.9597   -2.3529 H   0  0  0  0  0  0  0  0  0  0  0  0
   -2.5264    2.0270   -3.2918 H   0  0  0  0  0  0  0  0  0  0  0  0
   -2.5668    2.1425   -1.5282 H   0  0  0  0  0  0  0  0  0  0  0  0
   -1.9609    0.4092   -0.0812 H   0  0  0  0  0  0  0  0  0  0  0  0
   -2.6196   -1.2303    2.9499 H   0  0  0  0  0  0  0  0  0  0  0  0
    2.4132   -2.0822   -0.2052 H   0  0  0  0  0  0  0  0  0  0  0  0
    2.5102    2.9411    0.8641 H   0  0  0  0  0  0  0  0  0  0  0  0
    5.0647    1.2513   -2.1594 H   0  0  0  0  0  0  0  0  0  0  0  0
   -4.0084   -3.0375    1.4898 H   0  0  0  0  0  0  0  0  0  0  0  0
   -5.4828   -3.0733   -0.4964 H   0  0  0  0  0  0  0  0  0  0  0  0
   -5.0793   -0.6818   -3.0601 H   0  0  0  0  0  0  0  0  0  0  0  0
  1  2  1  0
  2  3  1  0
  3  4  2  0
  4  5  1  0
  5  6  1  0
  6  7  2  3
  7  8  1  0
  8  9  1  0
  9 10  2  0
  9 11  1  0
 11 12  1  0
 12 13  1  0
 13 14  2  0
 14 15  1  0
 15 16  2  0
 16 17  1  0
 17 18  1  0
 17 19  1  0
 17 20  1  0
 16 21  1  0
 21 22  2  0
 22 23  1  0
 11 24  1  0
 24 25  2  0
  5 26  2  0
 26 27  1  0
 27 28  2  0
 28 29  1  0
 28  3  1  0
 24  7  1  0
 22 13  1  0
  1 30  1  0
  1 31  1  0
  1 32  1  0
  4 33  1  0
  6 34  1  0
 12 35  1  0
 15 36  1  0
 21 37  1  0
 26 38  1  0
 27 39  1  0
 29 40  1  0
M  END
$$$$
