
     RDKit          3D

 56 59  0  0  0  0  0  0  0  0999 V2000
    6.9099    3.0626    3.4857 C   0  0  0  0  0  0  0  0  0  0  0  0
    5.8753    1.9941    3.1787 C   0  0  0  0  0  0  0  0  0  0  0  0
    5.4914    2.1357    1.8125 O   0  0  0  0  0  0  0  0  0  0  0  0
    4.4845    1.3281    1.3632 C   0  0  0  0  0  0  0  0  0  0  0  0
    4.0307    1.6235    0.0762 C   0  0  0  0  0  0  0  0  0  0  0  0
    3.0078    0.8730   -0.5094 C   0  0  0  0  0  0  0  0  0  0  0  0
    2.4355   -0.2000    0.1835 C   0  0  0  0  0  0  0  0  0  0  0  0
    1.3704   -0.9871   -0.4254 C   0  0  0  0  0  0  0  0  0  0  0  0
    0.0674   -0.6022   -0.7327 C   0  0  0  0  0  0  0  0  0  0  0  0
   -0.5656    0.7112   -0.6109 C   0  0  0  0  0  0  0  0  0  0  0  0
    0.0455    1.7173   -0.2646 O   0  0  0  0  0  0  0  0  0  0  0  0
   -1.9139    0.6692   -0.9386 N   0  0  0  0  0  0  0  0  0  0  0  0
   -2.7053    1.7703   -0.7883 N   0  0  0  0  0  0  0  0  0  0  0  0
   -3.9629    1.6830   -1.1135 C   0  0  0  0  0  0  0  0  0  0  0  0
   -4.8400    2.8849   -0.8513 C   0  0  0  0  0  0  0  0  0  0  0  0
   -4.6148    0.5163   -1.7553 C   0  0  0  0  0  0  0  0  0  0  0  0
   -4.2141    0.1775   -3.0545 C   0  0  0  0  0  0  0  0  0  0  0  0
   -4.8019   -0.9091   -3.6946 C   0  0  0  0  0  0  0  0  0  0  0  0
   -5.7862   -1.6469   -3.0395 C   0  0  0  0  0  0  0  0  0  0  0  0
   -6.1901   -1.3011   -1.7440 C   0  0  0  0  0  0  0  0  0  0  0  0
   -5.6119   -0.2103   -1.0884 C   0  0  0  0  0  0  0  0  0  0  0  0
   -5.9284    0.1966    0.1791 O   0  0  0  0  0  0  0  0  0  0  0  0
   -7.0620   -0.4016    0.7963 C   0  0  0  0  0  0  0  0  0  0  0  0
   -0.6407   -1.6915   -1.1588 N   0  0  0  0  0  0  0  0  0  0  0  0
    0.1490   -2.7452   -1.1033 N   0  0  0  0  0  0  0  0  0  0  0  0
    1.4066   -2.3575   -0.7240 N   0  0  0  0  0  0  0  0  0  0  0  0
    2.4692   -3.3071   -0.6871 C   0  0  0  0  0  0  0  0  0  0  0  0
    2.1262   -4.6016   -0.7387 N   0  0  0  0  0  0  0  0  0  0  0  0
    3.3210   -5.2942   -0.6308 O   0  0  0  0  0  0  0  0  0  0  0  0
    4.3928   -4.4226   -0.5484 N   0  0  0  0  0  0  0  0  0  0  0  0
    3.8729   -3.1967   -0.6189 C   0  0  0  0  0  0  0  0  0  0  0  0
    4.6581   -2.1049   -0.6679 N   0  0  0  0  0  0  0  0  0  0  0  0
    2.8788   -0.4836    1.4813 C   0  0  0  0  0  0  0  0  0  0  0  0
    3.9033    0.2727    2.0651 C   0  0  0  0  0  0  0  0  0  0  0  0
    6.5092    4.0593    3.2691 H   0  0  0  0  0  0  0  0  0  0  0  0
    7.2129    3.0229    4.5366 H   0  0  0  0  0  0  0  0  0  0  0  0
    7.7973    2.9318    2.8564 H   0  0  0  0  0  0  0  0  0  0  0  0
    6.3179    1.0056    3.3472 H   0  0  0  0  0  0  0  0  0  0  0  0
    5.0096    2.1371    3.8365 H   0  0  0  0  0  0  0  0  0  0  0  0
    4.4637    2.4597   -0.4681 H   0  0  0  0  0  0  0  0  0  0  0  0
    2.6543    1.1501   -1.5004 H   0  0  0  0  0  0  0  0  0  0  0  0
   -2.3328   -0.2339   -1.1417 H   0  0  0  0  0  0  0  0  0  0  0  0
   -4.3788    3.7723   -1.2951 H   0  0  0  0  0  0  0  0  0  0  0  0
   -4.9308    3.0353    0.2283 H   0  0  0  0  0  0  0  0  0  0  0  0
   -5.8382    2.7602   -1.2804 H   0  0  0  0  0  0  0  0  0  0  0  0
   -3.4544    0.7639   -3.5643 H   0  0  0  0  0  0  0  0  0  0  0  0
   -4.4964   -1.1809   -4.7021 H   0  0  0  0  0  0  0  0  0  0  0  0
   -6.2447   -2.4982   -3.5385 H   0  0  0  0  0  0  0  0  0  0  0  0
   -6.9574   -1.9095   -1.2741 H   0  0  0  0  0  0  0  0  0  0  0  0
   -7.2378    0.1169    1.7442 H   0  0  0  0  0  0  0  0  0  0  0  0
   -7.9605   -0.2814    0.1800 H   0  0  0  0  0  0  0  0  0  0  0  0
   -6.8740   -1.4573    1.0220 H   0  0  0  0  0  0  0  0  0  0  0  0
    4.3682   -1.2558   -1.1367 H   0  0  0  0  0  0  0  0  0  0  0  0
    5.6566   -2.2668   -0.7684 H   0  0  0  0  0  0  0  0  0  0  0  0
    2.4355   -1.2934    2.0567 H   0  0  0  0  0  0  0  0  0  0  0  0
    4.2223    0.0089    3.0680 H   0  0  0  0  0  0  0  0  0  0  0  0
  1  2  1  0
  2  3  1  0
  3  4  1  0
  4  5  2  0
  5  6  1  0
  6  7  2  0
  7  8  1  0
  8  9  2  0
  9 10  1  0
 10 11  2  0
 10 12  1  0
 12 13  1  0
 13 14  2  3
 14 15  1  0
 14 16  1  0
 16 17  2  0
 17 18  1  0
 18 19  2  0
 19 20  1  0
 20 21  2  0
 21 22  1  0
 22 23  1  0
  9 24  1  0
 24 25  2  0
 25 26  1  0
 26 27  1  0
 27 28  2  0
 28 29  1  0
 29 30  1  0
 30 31  2  0
 31 32  1  0
  7 33  1  0
 33 34  2  0
 34  4  1  0
 26  8  1  0
 31 27  1  0
 21 16  1  0
  1 35  1  0
  1 36  1  0
  1 37  1  0
  2 38  1  0
  2 39  1  0
  5 40  1  0
  6 41  1  0
 12 42  1  0
 15 43  1  0
 15 44  1  0
 15 45  1  0
 17 46  1  0
 18 47  1  0
 19 48  1  0
 20 49  1  0
 23 50  1  0
 23 51  1  0
 23 52  1  0
 32 53  1  0
 32 54  1  0
 33 55  1  0
 34 56  1  0
M  END
$$$$
