
     RDKit          3D

 43 45  0  0  0  0  0  0  0  0999 V2000
   -2.8846   -3.3891    3.0635 C   0  0  0  0  0  0  0  0  0  0  0  0
   -1.9494   -2.5264    2.2707 C   0  0  0  0  0  0  0  0  0  0  0  0
   -0.5875   -2.5987    2.4844 C   0  0  0  0  0  0  0  0  0  0  0  0
    0.2175   -1.7855    1.7093 C   0  0  0  0  0  0  0  0  0  0  0  0
    1.6304   -1.8114    1.9519 N   0  0  0  0  0  0  0  0  0  0  0  0
    2.4523   -1.1831    1.0458 N   0  0  0  0  0  0  0  0  0  0  0  0
    2.3221    0.1042    0.9846 C   0  0  0  0  0  0  0  0  0  0  0  0
    3.0525    0.9031   -0.0102 C   0  0  0  0  0  0  0  0  0  0  0  0
    2.4069    2.0450   -0.5004 C   0  0  0  0  0  0  0  0  0  0  0  0
    3.0109    2.8214   -1.4946 C   0  0  0  0  0  0  0  0  0  0  0  0
    4.2602    2.4641   -2.0075 C   0  0  0  0  0  0  0  0  0  0  0  0
    4.9148    1.3315   -1.5238 C   0  0  0  0  0  0  0  0  0  0  0  0
    4.3025    0.5610   -0.5249 C   0  0  0  0  0  0  0  0  0  0  0  0
    5.0535   -0.5540    0.0107 N   0  0  0  0  0  4  0  0  0  0  0  0
    5.4468   -0.4563    1.1823 O   0  0  0  0  0  0  0  0  0  0  0  0
    5.3319   -1.4737   -0.7726 O   0  0  0  0  0  1  0  0  0  0  0  0
   -0.3116   -0.9225    0.8248 N   0  0  0  0  0  0  0  0  0  0  0  0
   -1.6503   -0.8936    0.6767 C   0  0  0  0  0  0  0  0  0  0  0  0
   -2.1982    0.0654   -0.2567 N   0  0  0  0  0  0  0  0  0  0  0  0
   -1.3794    0.9471   -0.9176 N   0  0  0  0  0  0  0  0  0  0  0  0
   -2.1906    1.6746   -1.6865 C   0  0  0  0  0  0  0  0  0  0  0  0
   -1.6437    2.7357   -2.5654 C   0  0  0  0  0  0  0  0  0  0  0  0
   -3.5364    1.2986   -1.5308 C   0  0  0  0  0  0  0  0  0  0  0  0
   -3.5313    0.2707   -0.6110 C   0  0  0  0  0  0  0  0  0  0  0  0
   -4.6755   -0.5078   -0.0738 C   0  0  0  0  0  0  0  0  0  0  0  0
   -2.4950   -1.6871    1.3700 N   0  0  0  0  0  0  0  0  0  0  0  0
   -3.9223   -3.2230    2.7564 H   0  0  0  0  0  0  0  0  0  0  0  0
   -2.8026   -3.1550    4.1295 H   0  0  0  0  0  0  0  0  0  0  0  0
   -2.6490   -4.4466    2.9075 H   0  0  0  0  0  0  0  0  0  0  0  0
   -0.1692   -3.2643    3.2285 H   0  0  0  0  0  0  0  0  0  0  0  0
    1.9056   -2.7871    2.0713 H   0  0  0  0  0  0  0  0  0  0  0  0
    1.6139    0.6527    1.6331 H   0  0  0  0  0  0  0  0  0  0  0  0
    1.4139    2.3148   -0.1419 H   0  0  0  0  0  0  0  0  0  0  0  0
    2.4963    3.6995   -1.8796 H   0  0  0  0  0  0  0  0  0  0  0  0
    4.7211    3.0695   -2.7850 H   0  0  0  0  0  0  0  0  0  0  0  0
    5.8921    1.0600   -1.9172 H   0  0  0  0  0  0  0  0  0  0  0  0
   -1.9003    2.5357   -3.6105 H   0  0  0  0  0  0  0  0  0  0  0  0
   -2.0591    3.7097   -2.2886 H   0  0  0  0  0  0  0  0  0  0  0  0
   -0.5531    2.7996   -2.4909 H   0  0  0  0  0  0  0  0  0  0  0  0
   -4.4018    1.7185   -2.0254 H   0  0  0  0  0  0  0  0  0  0  0  0
   -4.7749   -0.3649    1.0065 H   0  0  0  0  0  0  0  0  0  0  0  0
   -4.5657   -1.5746   -0.2927 H   0  0  0  0  0  0  0  0  0  0  0  0
   -5.6138   -0.1776   -0.5328 H   0  0  0  0  0  0  0  0  0  0  0  0
  1  2  1  0
  2  3  2  0
  3  4  1  0
  4  5  1  0
  5  6  1  0
  6  7  2  3
  7  8  1  0
  8  9  2  0
  9 10  1  0
 10 11  2  0
 11 12  1  0
 12 13  2  0
 13 14  1  0
 14 15  2  0
 14 16  1  0
  4 17  2  0
 17 18  1  0
 18 19  1  0
 19 20  1  0
 20 21  2  0
 21 22  1  0
 21 23  1  0
 23 24  2  0
 24 25  1  0
 18 26  2  0
 26  2  1  0
 13  8  1  0
 24 19  1  0
  1 27  1  0
  1 28  1  0
  1 29  1  0
  3 30  1  0
  5 31  1  0
  7 32  1  0
  9 33  1  0
 10 34  1  0
 11 35  1  0
 12 36  1  0
 22 37  1  0
 22 38  1  0
 22 39  1  0
 23 40  1  0
 25 41  1  0
 25 42  1  0
 25 43  1  0
M  CHG  2  14   1  16  -1
M  END
$$$$
