
     RDKit          3D

 63 67  0  0  0  0  0  0  0  0999 V2000
    2.1685    5.3211   -3.8450 C   0  0  0  0  0  0  0  0  0  0  0  0
    2.3101    4.8253   -2.5200 O   0  0  0  0  0  0  0  0  0  0  0  0
    2.5633    3.4882   -2.3845 C   0  0  0  0  0  0  0  0  0  0  0  0
    2.7417    2.5762   -3.4246 C   0  0  0  0  0  0  0  0  0  0  0  0
    2.9957    1.2278   -3.1430 C   0  0  0  0  0  0  0  0  0  0  0  0
    3.0753    0.7756   -1.8193 C   0  0  0  0  0  0  0  0  0  0  0  0
    3.3212   -0.6401   -1.5207 C   0  0  0  0  0  0  0  0  0  0  0  0
    4.8345   -1.3119   -1.9526 S   0  0  0  0  0  0  0  0  0  0  0  0
    4.4381   -2.8526   -1.3076 C   0  0  0  0  0  0  0  0  0  0  0  0
    5.2556   -3.9993   -1.2958 C   0  0  0  0  0  0  0  0  0  0  0  0
    4.7689   -5.1820   -0.7270 C   0  0  0  0  0  0  0  0  0  0  0  0
    3.4936   -5.2316   -0.1815 C   0  0  0  0  0  0  0  0  0  0  0  0
    2.9085   -6.3233    0.3998 O   0  0  0  0  0  0  0  0  0  0  0  0
    3.6778   -7.5183    0.4481 C   0  0  0  0  0  0  0  0  0  0  0  0
    2.6906   -4.0848   -0.2022 C   0  0  0  0  0  0  0  0  0  0  0  0
    3.1535   -2.8656   -0.7642 C   0  0  0  0  0  0  0  0  0  0  0  0
    2.5118   -1.5746   -0.8922 C   0  0  0  0  0  0  0  0  0  0  0  0
    1.1683   -1.2410   -0.4290 C   0  0  0  0  0  0  0  0  0  0  0  0
    0.1487   -0.9677   -1.3447 C   0  0  0  0  0  0  0  0  0  0  0  0
   -1.1326   -0.6508   -0.8879 C   0  0  0  0  0  0  0  0  0  0  0  0
   -1.4109   -0.6021    0.4803 C   0  0  0  0  0  0  0  0  0  0  0  0
   -2.7038   -0.2825    0.7869 O   0  0  0  0  0  0  0  0  0  0  0  0
   -3.0088   -0.0461    2.1634 C   0  0  0  0  0  0  0  0  0  0  0  0
   -4.4840    0.3832    2.2915 C   0  0  0  0  0  0  0  0  0  0  0  0
   -4.7844    1.6995    1.7017 N   0  0  0  0  0  0  0  0  0  0  0  0
   -4.2508    2.8388    2.4751 C   0  0  0  0  0  0  0  0  0  0  0  0
   -5.3231    3.6017    3.2724 C   0  0  0  0  0  0  0  0  0  0  0  0
   -6.3845    4.1147    2.4579 O   0  0  0  0  0  0  0  0  0  0  0  0
   -6.6193    3.3292    1.2807 C   0  0  0  0  0  0  0  0  0  0  0  0
   -6.2345    1.8546    1.4669 C   0  0  0  0  0  0  0  0  0  0  0  0
   -0.3956   -0.8845    1.3948 C   0  0  0  0  0  0  0  0  0  0  0  0
    0.8896   -1.2036    0.9417 C   0  0  0  0  0  0  0  0  0  0  0  0
    2.8962    1.6958   -0.7807 C   0  0  0  0  0  0  0  0  0  0  0  0
    2.6437    3.0407   -1.0642 C   0  0  0  0  0  0  0  0  0  0  0  0
    1.9509    6.3915   -3.7798 H   0  0  0  0  0  0  0  0  0  0  0  0
    1.3289    4.8416   -4.3591 H   0  0  0  0  0  0  0  0  0  0  0  0
    3.0985    5.2045   -4.4112 H   0  0  0  0  0  0  0  0  0  0  0  0
    2.6890    2.8770   -4.4653 H   0  0  0  0  0  0  0  0  0  0  0  0
    3.1238    0.5306   -3.9681 H   0  0  0  0  0  0  0  0  0  0  0  0
    6.2541   -3.9684   -1.7235 H   0  0  0  0  0  0  0  0  0  0  0  0
    5.4222   -6.0486   -0.7324 H   0  0  0  0  0  0  0  0  0  0  0  0
    3.9158   -7.8755   -0.5592 H   0  0  0  0  0  0  0  0  0  0  0  0
    4.5859   -7.3794    1.0439 H   0  0  0  0  0  0  0  0  0  0  0  0
    3.0721   -8.2860    0.9391 H   0  0  0  0  0  0  0  0  0  0  0  0
    1.6895   -4.1343    0.2210 H   0  0  0  0  0  0  0  0  0  0  0  0
    0.3410   -0.9966   -2.4142 H   0  0  0  0  0  0  0  0  0  0  0  0
   -1.9211   -0.4335   -1.6044 H   0  0  0  0  0  0  0  0  0  0  0  0
   -2.8809   -0.9799    2.7247 H   0  0  0  0  0  0  0  0  0  0  0  0
   -2.3430    0.7173    2.5801 H   0  0  0  0  0  0  0  0  0  0  0  0
   -4.7798    0.3675    3.3478 H   0  0  0  0  0  0  0  0  0  0  0  0
   -5.0822   -0.3772    1.7723 H   0  0  0  0  0  0  0  0  0  0  0  0
   -3.4442    2.5397    3.1525 H   0  0  0  0  0  0  0  0  0  0  0  0
   -3.8056    3.5315    1.7498 H   0  0  0  0  0  0  0  0  0  0  0  0
   -4.8691    4.4527    3.7909 H   0  0  0  0  0  0  0  0  0  0  0  0
   -5.7644    2.9541    4.0391 H   0  0  0  0  0  0  0  0  0  0  0  0
   -6.0608    3.7784    0.4510 H   0  0  0  0  0  0  0  0  0  0  0  0
   -7.6835    3.4129    1.0388 H   0  0  0  0  0  0  0  0  0  0  0  0
   -6.5162    1.2869    0.5732 H   0  0  0  0  0  0  0  0  0  0  0  0
   -6.8024    1.4534    2.3170 H   0  0  0  0  0  0  0  0  0  0  0  0
   -0.5688   -0.8702    2.4653 H   0  0  0  0  0  0  0  0  0  0  0  0
    1.6717   -1.4189    1.6664 H   0  0  0  0  0  0  0  0  0  0  0  0
    2.9506    1.3741    0.2564 H   0  0  0  0  0  0  0  0  0  0  0  0
    2.5045    3.7448   -0.2475 H   0  0  0  0  0  0  0  0  0  0  0  0
  1  2  1  0
  2  3  1  0
  3  4  2  0
  4  5  1  0
  5  6  2  0
  6  7  1  0
  7  8  1  0
  8  9  1  0
  9 10  2  0
 10 11  1  0
 11 12  2  0
 12 13  1  0
 13 14  1  0
 12 15  1  0
 15 16  2  0
 16 17  1  0
 17 18  1  0
 18 19  2  0
 19 20  1  0
 20 21  2  0
 21 22  1  0
 22 23  1  0
 23 24  1  0
 24 25  1  0
 25 26  1  0
 26 27  1  0
 27 28  1  0
 28 29  1  0
 29 30  1  0
 21 31  1  0
 31 32  2  0
  6 33  1  0
 33 34  2  0
 34  3  1  0
 17  7  2  0
 32 18  1  0
 16  9  1  0
 30 25  1  0
  1 35  1  0
  1 36  1  0
  1 37  1  0
  4 38  1  0
  5 39  1  0
 10 40  1  0
 11 41  1  0
 14 42  1  0
 14 43  1  0
 14 44  1  0
 15 45  1  0
 19 46  1  0
 20 47  1  0
 23 48  1  0
 23 49  1  0
 24 50  1  0
 24 51  1  0
 26 52  1  0
 26 53  1  0
 27 54  1  0
 27 55  1  0
 29 56  1  0
 29 57  1  0
 30 58  1  0
 30 59  1  0
 31 60  1  0
 32 61  1  0
 33 62  1  0
 34 63  1  0
M  END
$$$$
