
     RDKit          3D

 49 52  0  0  0  0  0  0  0  0999 V2000
   -5.1201    1.8797    1.3406 C   0  0  0  0  0  0  0  0  0  0  0  0
   -3.8238    1.4521    0.7173 C   0  0  0  0  0  0  0  0  0  0  0  0
   -3.2468    2.2168   -0.3045 C   0  0  0  0  0  0  0  0  0  0  0  0
   -2.0207    1.8484   -0.8616 C   0  0  0  0  0  0  0  0  0  0  0  0
   -1.3633    0.7047   -0.3968 C   0  0  0  0  0  0  0  0  0  0  0  0
   -0.1136    0.3367   -0.9476 N   0  0  0  0  0  0  0  0  0  0  0  0
    0.2876   -0.9152   -1.3977 C   0  0  0  0  0  0  0  0  0  0  0  0
   -0.5799   -2.1253   -1.5317 C   0  0  0  0  0  0  0  0  0  0  0  0
   -1.6094   -1.9935   -2.6212 C   0  0  0  0  0  0  0  0  0  0  0  0
   -2.9581   -1.7130   -2.5044 C   0  0  0  0  0  0  0  0  0  0  0  0
   -3.6157   -1.6694   -3.7677 C   0  0  0  0  0  0  0  0  0  0  0  0
   -2.7526   -1.9297   -4.8077 C   0  0  0  0  0  0  0  0  0  0  0  0
   -1.1609   -2.2252   -4.2622 S   0  0  0  0  0  0  0  0  0  0  0  0
    1.5437   -0.8503   -1.8035 N   0  0  0  0  0  0  0  0  0  0  0  0
    1.9827    0.4349   -1.6549 N   0  0  0  0  0  0  0  0  0  0  0  0
    0.9986    1.1349   -1.1440 C   0  0  0  0  0  0  0  0  0  0  0  0
    1.2224    2.7625   -0.5830 S   0  0  0  0  0  0  0  0  0  0  0  0
    1.0627    2.5742    1.2168 C   0  0  0  0  0  0  0  0  0  0  0  0
    1.7164    1.3193    1.7784 C   0  0  0  0  0  0  0  0  0  0  0  0
    1.1008    0.6152    2.5753 O   0  0  0  0  0  0  0  0  0  0  0  0
    3.0115    1.1102    1.3429 N   0  0  0  0  0  0  0  0  0  0  0  0
    3.8722    0.0503    1.6923 C   0  0  0  0  0  0  0  0  0  0  0  0
    5.0700   -0.0609    0.9669 C   0  0  0  0  0  0  0  0  0  0  0  0
    5.9827   -1.0821    1.2469 C   0  0  0  0  0  0  0  0  0  0  0  0
    5.6983   -1.9937    2.2549 C   0  0  0  0  0  0  0  0  0  0  0  0
    6.5730   -2.9723    2.5244 F   0  0  0  0  0  0  0  0  0  0  0  0
    4.5176   -1.8893    2.9780 C   0  0  0  0  0  0  0  0  0  0  0  0
    4.2482   -2.7702    3.9528 F   0  0  0  0  0  0  0  0  0  0  0  0
    3.6039   -0.8726    2.7060 C   0  0  0  0  0  0  0  0  0  0  0  0
   -1.9209   -0.0549    0.6364 C   0  0  0  0  0  0  0  0  0  0  0  0
   -3.1446    0.3245    1.1929 C   0  0  0  0  0  0  0  0  0  0  0  0
   -4.9313    2.6226    2.1219 H   0  0  0  0  0  0  0  0  0  0  0  0
   -5.6438    1.0261    1.7845 H   0  0  0  0  0  0  0  0  0  0  0  0
   -5.7866    2.3150    0.5886 H   0  0  0  0  0  0  0  0  0  0  0  0
   -3.7541    3.1056   -0.6752 H   0  0  0  0  0  0  0  0  0  0  0  0
   -1.6162    2.4478   -1.6747 H   0  0  0  0  0  0  0  0  0  0  0  0
   -1.0669   -2.3670   -0.5827 H   0  0  0  0  0  0  0  0  0  0  0  0
    0.0604   -2.9910   -1.7471 H   0  0  0  0  0  0  0  0  0  0  0  0
   -3.4569   -1.5408   -1.5579 H   0  0  0  0  0  0  0  0  0  0  0  0
   -4.6698   -1.4620   -3.9055 H   0  0  0  0  0  0  0  0  0  0  0  0
   -2.9789   -1.9654   -5.8649 H   0  0  0  0  0  0  0  0  0  0  0  0
    0.0006    2.5655    1.4783 H   0  0  0  0  0  0  0  0  0  0  0  0
    1.5141    3.4440    1.7036 H   0  0  0  0  0  0  0  0  0  0  0  0
    3.3137    1.6876    0.5622 H   0  0  0  0  0  0  0  0  0  0  0  0
    5.3012    0.6364    0.1636 H   0  0  0  0  0  0  0  0  0  0  0  0
    6.9054   -1.1726    0.6818 H   0  0  0  0  0  0  0  0  0  0  0  0
    2.7025   -0.8349    3.3063 H   0  0  0  0  0  0  0  0  0  0  0  0
   -1.3976   -0.9047    1.0686 H   0  0  0  0  0  0  0  0  0  0  0  0
   -3.5578   -0.2585    2.0140 H   0  0  0  0  0  0  0  0  0  0  0  0
  1  2  1  0
  2  3  2  0
  3  4  1  0
  4  5  2  0
  5  6  1  0
  6  7  1  0
  7  8  1  0
  8  9  1  0
  9 10  2  0
 10 11  1  0
 11 12  2  0
 12 13  1  0
  7 14  2  0
 14 15  1  0
 15 16  2  0
 16 17  1  0
 17 18  1  0
 18 19  1  0
 19 20  2  0
 19 21  1  0
 21 22  1  0
 22 23  2  0
 23 24  1  0
 24 25  2  0
 25 26  1  0
 25 27  1  0
 27 28  1  0
 27 29  2  0
  5 30  1  0
 30 31  2  0
 31  2  1  0
 16  6  1  0
 29 22  1  0
 13  9  1  0
  1 32  1  0
  1 33  1  0
  1 34  1  0
  3 35  1  0
  4 36  1  0
  8 37  1  0
  8 38  1  0
 10 39  1  0
 11 40  1  0
 12 41  1  0
 18 42  1  0
 18 43  1  0
 21 44  1  0
 23 45  1  0
 24 46  1  0
 29 47  1  0
 30 48  1  0
 31 49  1  0
M  END
$$$$
