
     RDKit          3D

 43 47  0  0  0  0  0  0  0  0999 V2000
    2.4040   -2.0461    0.6331 O   0  0  0  0  0  0  0  0  0  0  0  0
    1.6770   -1.5376   -0.2171 C   0  0  0  0  0  0  0  0  0  0  0  0
    0.3407   -2.1652   -0.5591 C   0  0  0  0  0  0  0  0  0  0  0  0
   -0.7413   -1.6193    0.2479 N   0  0  0  0  0  0  0  0  0  0  0  0
   -1.1926   -2.1592    1.4464 C   0  0  0  0  0  0  0  0  0  0  0  0
   -0.7151   -3.2381    2.2109 C   0  0  0  0  0  0  0  0  0  0  0  0
   -1.3982   -3.5603    3.3875 C   0  0  0  0  0  0  0  0  0  0  0  0
   -2.5119   -2.8311    3.7819 C   0  0  0  0  0  0  0  0  0  0  0  0
   -3.1446   -3.1670    4.9146 F   0  0  0  0  0  0  0  0  0  0  0  0
   -2.9841   -1.7563    3.0333 C   0  0  0  0  0  0  0  0  0  0  0  0
   -2.3104   -1.4102    1.8473 C   0  0  0  0  0  0  0  0  0  0  0  0
   -2.4797   -0.4073    0.8738 C   0  0  0  0  0  0  0  0  0  0  0  0
   -3.4637    0.5862    0.8499 N   0  0  0  0  0  0  0  0  0  0  0  0
   -3.3276    1.3945   -0.1499 C   0  0  0  0  0  0  0  0  0  0  0  0
   -2.3571    1.3696   -1.1332 N   0  0  0  0  0  0  0  0  0  0  0  0
   -1.3983    0.3819   -1.1830 C   0  0  0  0  0  0  0  0  0  0  0  0
   -0.5419    0.2940   -2.0583 O   0  0  0  0  0  0  0  0  0  0  0  0
   -1.5071   -0.5262   -0.0820 C   0  0  0  0  0  0  0  0  0  0  0  0
   -2.5032    2.3618   -2.1721 C   0  0  0  0  0  0  0  0  0  0  0  0
   -3.3034    3.5192   -1.6063 C   0  0  0  0  0  0  0  0  0  0  0  0
   -4.4208    2.7328   -0.4141 S   0  0  0  0  0  0  0  0  0  0  0  0
    1.9509   -0.3922   -0.9433 N   0  0  0  0  0  0  0  0  0  0  0  0
    3.0967    0.4300   -0.8600 C   0  0  0  0  0  0  0  0  0  0  0  0
    4.1921    0.1748   -0.0341 C   0  0  0  0  0  0  0  0  0  0  0  0
    5.2862    1.0499   -0.0205 C   0  0  0  0  0  0  0  0  0  0  0  0
    5.2962    2.1855   -0.8306 C   0  0  0  0  0  0  0  0  0  0  0  0
    4.2094    2.4507   -1.6584 C   0  0  0  0  0  0  0  0  0  0  0  0
    3.1255    1.5765   -1.6661 C   0  0  0  0  0  0  0  0  0  0  0  0
    2.0836    1.8513   -2.4674 F   0  0  0  0  0  0  0  0  0  0  0  0
    0.3959   -3.2455   -0.3878 H   0  0  0  0  0  0  0  0  0  0  0  0
    0.0968   -2.0396   -1.6180 H   0  0  0  0  0  0  0  0  0  0  0  0
    0.1642   -3.8041    1.9169 H   0  0  0  0  0  0  0  0  0  0  0  0
   -1.0579   -4.3849    4.0071 H   0  0  0  0  0  0  0  0  0  0  0  0
   -3.8510   -1.1952    3.3655 H   0  0  0  0  0  0  0  0  0  0  0  0
   -1.5238    2.6849   -2.5407 H   0  0  0  0  0  0  0  0  0  0  0  0
   -3.0318    1.8884   -3.0091 H   0  0  0  0  0  0  0  0  0  0  0  0
   -3.8463    4.0696   -2.3788 H   0  0  0  0  0  0  0  0  0  0  0  0
   -2.6525    4.2121   -1.0637 H   0  0  0  0  0  0  0  0  0  0  0  0
    1.2339   -0.0590   -1.5950 H   0  0  0  0  0  0  0  0  0  0  0  0
    4.2314   -0.6957    0.6132 H   0  0  0  0  0  0  0  0  0  0  0  0
    6.1333    0.8386    0.6290 H   0  0  0  0  0  0  0  0  0  0  0  0
    6.1492    2.8592   -0.8139 H   0  0  0  0  0  0  0  0  0  0  0  0
    4.1973    3.3287   -2.2958 H   0  0  0  0  0  0  0  0  0  0  0  0
  1  2  2  0
  2  3  1  0
  3  4  1  0
  4  5  1  0
  5  6  2  0
  6  7  1  0
  7  8  2  0
  8  9  1  0
  8 10  1  0
 10 11  2  0
 11 12  1  0
 12 13  1  0
 13 14  2  0
 14 15  1  0
 15 16  1  0
 16 17  2  0
 16 18  1  0
 15 19  1  0
 19 20  1  0
 20 21  1  0
  2 22  1  0
 22 23  1  0
 23 24  2  0
 24 25  1  0
 25 26  2  0
 26 27  1  0
 27 28  2  0
 28 29  1  0
 18  4  1  0
 28 23  1  0
 11  5  1  0
 18 12  2  0
 21 14  1  0
  3 30  1  0
  3 31  1  0
  6 32  1  0
  7 33  1  0
 10 34  1  0
 19 35  1  0
 19 36  1  0
 20 37  1  0
 20 38  1  0
 22 39  1  0
 24 40  1  0
 25 41  1  0
 26 42  1  0
 27 43  1  0
M  END
$$$$
