
     RDKit          3D

 51 53  0  0  0  0  0  0  0  0999 V2000
    4.2034   -0.3092   -4.0071 C   0  0  0  0  0  0  0  0  0  0  0  0
    3.9783    0.2865   -2.7348 O   0  0  0  0  0  0  0  0  0  0  0  0
    2.6945    0.2777   -2.2552 C   0  0  0  0  0  0  0  0  0  0  0  0
    1.5730   -0.1013   -3.0023 C   0  0  0  0  0  0  0  0  0  0  0  0
    0.2978   -0.0820   -2.4293 C   0  0  0  0  0  0  0  0  0  0  0  0
    0.1356    0.3142   -1.1023 C   0  0  0  0  0  0  0  0  0  0  0  0
   -1.2009    0.3390   -0.4713 C   0  0  0  0  0  0  0  0  0  0  0  0
   -2.2683    0.0237   -1.1338 N   0  0  0  0  0  0  0  0  0  0  0  0
   -3.4671    0.0279   -0.4673 N   0  0  0  0  0  0  0  0  0  0  0  0
   -3.6735   -0.3489    0.8539 C   0  0  0  0  0  0  0  0  0  0  0  0
   -2.7771   -0.6074    1.6561 O   0  0  0  0  0  0  0  0  0  0  0  0
   -5.1057   -0.4461    1.3128 C   0  0  0  0  0  0  0  0  0  0  0  0
   -5.2984   -0.7268    2.6805 C   0  0  0  0  0  0  0  0  0  0  0  0
   -6.5782   -0.8348    3.2223 C   0  0  0  0  0  0  0  0  0  0  0  0
   -7.6869   -0.6660    2.4036 C   0  0  0  0  0  0  0  0  0  0  0  0
   -7.5186   -0.3909    1.0443 C   0  0  0  0  0  0  0  0  0  0  0  0
   -6.2363   -0.2762    0.4836 C   0  0  0  0  0  0  0  0  0  0  0  0
   -6.0220   -0.0194   -0.8478 O   0  0  0  0  0  0  0  0  0  0  0  0
   -7.1540    0.2560   -1.6674 C   0  0  0  0  0  0  0  0  0  0  0  0
    1.2456    0.6974   -0.3473 C   0  0  0  0  0  0  0  0  0  0  0  0
    2.5313    0.6970   -0.9206 C   0  0  0  0  0  0  0  0  0  0  0  0
    3.7123    1.1029   -0.0685 C   0  0  0  0  0  0  0  0  0  0  0  0
    4.1246   -0.0418    0.6789 O   0  0  0  0  0  0  0  0  0  0  0  0
    5.2853    0.0486    1.3967 C   0  0  0  0  0  0  0  0  0  0  0  0
    5.7561   -1.1608    1.9245 C   0  0  0  0  0  0  0  0  0  0  0  0
    5.0758   -2.2967    1.7039 F   0  0  0  0  0  0  0  0  0  0  0  0
    6.9271   -1.2125    2.6748 C   0  0  0  0  0  0  0  0  0  0  0  0
    7.3615   -2.3834    3.1607 F   0  0  0  0  0  0  0  0  0  0  0  0
    7.6451   -0.0526    2.9165 C   0  0  0  0  0  0  0  0  0  0  0  0
    8.7740   -0.0972    3.6374 F   0  0  0  0  0  0  0  0  0  0  0  0
    7.1902    1.1562    2.4111 C   0  0  0  0  0  0  0  0  0  0  0  0
    7.8793    2.2812    2.6500 F   0  0  0  0  0  0  0  0  0  0  0  0
    6.0181    1.2095    1.6580 C   0  0  0  0  0  0  0  0  0  0  0  0
    5.6131    2.4049    1.2050 F   0  0  0  0  0  0  0  0  0  0  0  0
    5.2819   -0.3013   -4.1927 H   0  0  0  0  0  0  0  0  0  0  0  0
    3.8711   -1.3527   -4.0229 H   0  0  0  0  0  0  0  0  0  0  0  0
    3.7256    0.2722   -4.8028 H   0  0  0  0  0  0  0  0  0  0  0  0
    1.6534   -0.4170   -4.0374 H   0  0  0  0  0  0  0  0  0  0  0  0
   -0.5627   -0.3825   -3.0227 H   0  0  0  0  0  0  0  0  0  0  0  0
   -1.2259    0.6769    0.5784 H   0  0  0  0  0  0  0  0  0  0  0  0
   -4.2783    0.0061   -1.0823 H   0  0  0  0  0  0  0  0  0  0  0  0
   -4.4403   -0.8647    3.3376 H   0  0  0  0  0  0  0  0  0  0  0  0
   -6.7041   -1.0522    4.2800 H   0  0  0  0  0  0  0  0  0  0  0  0
   -8.6875   -0.7519    2.8209 H   0  0  0  0  0  0  0  0  0  0  0  0
   -8.4183   -0.2764    0.4477 H   0  0  0  0  0  0  0  0  0  0  0  0
   -7.8029   -0.6222   -1.7495 H   0  0  0  0  0  0  0  0  0  0  0  0
   -7.7056    1.1281   -1.3007 H   0  0  0  0  0  0  0  0  0  0  0  0
   -6.7878    0.4928   -2.6711 H   0  0  0  0  0  0  0  0  0  0  0  0
    1.1202    0.9914    0.6928 H   0  0  0  0  0  0  0  0  0  0  0  0
    3.3996    1.9045    0.6120 H   0  0  0  0  0  0  0  0  0  0  0  0
    4.5266    1.4805   -0.6978 H   0  0  0  0  0  0  0  0  0  0  0  0
  1  2  1  0
  2  3  1  0
  3  4  2  0
  4  5  1  0
  5  6  2  0
  6  7  1  0
  7  8  2  3
  8  9  1  0
  9 10  1  0
 10 11  2  0
 10 12  1  0
 12 13  2  0
 13 14  1  0
 14 15  2  0
 15 16  1  0
 16 17  2  0
 17 18  1  0
 18 19  1  0
  6 20  1  0
 20 21  2  0
 21 22  1  0
 22 23  1  0
 23 24  1  0
 24 25  2  0
 25 26  1  0
 25 27  1  0
 27 28  1  0
 27 29  2  0
 29 30  1  0
 29 31  1  0
 31 32  1  0
 31 33  2  0
 33 34  1  0
 21  3  1  0
 33 24  1  0
 17 12  1  0
  1 35  1  0
  1 36  1  0
  1 37  1  0
  4 38  1  0
  5 39  1  0
  7 40  1  0
  9 41  1  0
 13 42  1  0
 14 43  1  0
 15 44  1  0
 16 45  1  0
 19 46  1  0
 19 47  1  0
 19 48  1  0
 20 49  1  0
 22 50  1  0
 22 51  1  0
M  END
$$$$
