
     RDKit          3D

 40 42  0  0  0  0  0  0  0  0999 V2000
   -5.6606   -0.0478   -1.9213 C   0  0  0  0  0  0  0  0  0  0  0  0
   -5.0726    0.6303   -0.9264 C   0  0  0  0  0  0  0  0  0  0  0  0
   -4.6117    0.0198    0.3654 C   0  0  0  0  0  0  0  0  0  0  0  0
   -3.1887    0.2547    0.5942 N   0  0  0  0  0  0  0  0  0  0  0  0
   -2.1935   -0.6005    0.1886 C   0  0  0  0  0  0  0  0  0  0  0  0
   -0.9848   -0.0634    0.5721 C   0  0  0  0  0  0  0  0  0  0  0  0
    0.2604   -0.6994    0.2804 C   0  0  0  0  0  0  0  0  0  0  0  0
    1.4085   -0.0606   -0.0006 C   0  0  0  0  0  0  0  0  0  0  0  0
    2.6726   -0.7361   -0.3119 C   0  0  0  0  0  0  0  0  0  0  0  0
    3.8635   -0.2058    0.1809 C   0  0  0  0  0  0  0  0  0  0  0  0
    5.0726   -0.8191   -0.1275 C   0  0  0  0  0  0  0  0  0  0  0  0
    5.1064   -1.9160   -0.9165 N   0  0  0  0  0  4  0  0  0  0  0  0
    6.3978   -2.5549   -1.2215 C   0  0  0  0  0  0  0  0  0  0  0  0
    3.9657   -2.4431   -1.4140 C   0  0  0  0  0  0  0  0  0  0  0  0
    2.7342   -1.8637   -1.1294 C   0  0  0  0  0  0  0  0  0  0  0  0
   -1.2552    1.1496    1.2797 C   0  0  0  0  0  0  0  0  0  0  0  0
   -0.4629    2.1100    1.9490 C   0  0  0  0  0  0  0  0  0  0  0  0
   -1.0650    3.2204    2.5504 C   0  0  0  0  0  0  0  0  0  0  0  0
   -2.4434    3.3874    2.5016 C   0  0  0  0  0  0  0  0  0  0  0  0
   -3.2564    2.4484    1.8626 C   0  0  0  0  0  0  0  0  0  0  0  0
   -2.6447    1.3327    1.2654 C   0  0  0  0  0  0  0  0  0  0  0  0
   -5.8478   -1.1154   -1.8592 H   0  0  0  0  0  0  0  0  0  0  0  0
   -5.9730    0.4611   -2.8291 H   0  0  0  0  0  0  0  0  0  0  0  0
   -4.9149    1.7012   -1.0421 H   0  0  0  0  0  0  0  0  0  0  0  0
   -4.7694   -1.0651    0.3848 H   0  0  0  0  0  0  0  0  0  0  0  0
   -5.1666    0.4440    1.2083 H   0  0  0  0  0  0  0  0  0  0  0  0
   -2.4345   -1.5041   -0.3564 H   0  0  0  0  0  0  0  0  0  0  0  0
    0.2346   -1.7870    0.2684 H   0  0  0  0  0  0  0  0  0  0  0  0
    1.4353    1.0272   -0.0110 H   0  0  0  0  0  0  0  0  0  0  0  0
    3.8575    0.6791    0.8152 H   0  0  0  0  0  0  0  0  0  0  0  0
    6.0172   -0.4395    0.2520 H   0  0  0  0  0  0  0  0  0  0  0  0
    6.5840   -3.3022   -0.4463 H   0  0  0  0  0  0  0  0  0  0  0  0
    7.1824   -1.7938   -1.2258 H   0  0  0  0  0  0  0  0  0  0  0  0
    6.3424   -3.0219   -2.2082 H   0  0  0  0  0  0  0  0  0  0  0  0
    4.0480   -3.3261   -2.0416 H   0  0  0  0  0  0  0  0  0  0  0  0
    1.8311   -2.2930   -1.5591 H   0  0  0  0  0  0  0  0  0  0  0  0
    0.6133    1.9920    2.0136 H   0  0  0  0  0  0  0  0  0  0  0  0
   -0.4508    3.9564    3.0632 H   0  0  0  0  0  0  0  0  0  0  0  0
   -2.8984    4.2559    2.9730 H   0  0  0  0  0  0  0  0  0  0  0  0
   -4.3327    2.5886    1.8395 H   0  0  0  0  0  0  0  0  0  0  0  0
  1  2  2  0
  2  3  1  0
  3  4  1  0
  4  5  1  0
  5  6  2  0
  6  7  1  0
  7  8  2  3
  8  9  1  0
  9 10  2  0
 10 11  1  0
 11 12  2  0
 12 13  1  0
 12 14  1  0
 14 15  2  0
  6 16  1  0
 16 17  2  0
 17 18  1  0
 18 19  2  0
 19 20  1  0
 20 21  2  0
 21  4  1  0
 15  9  1  0
 21 16  1  0
  1 22  1  0
  1 23  1  0
  2 24  1  0
  3 25  1  0
  3 26  1  0
  5 27  1  0
  7 28  1  0
  8 29  1  0
 10 30  1  0
 11 31  1  0
 13 32  1  0
 13 33  1  0
 13 34  1  0
 14 35  1  0
 15 36  1  0
 17 37  1  0
 18 38  1  0
 19 39  1  0
 20 40  1  0
M  CHG  1  12   1
M  END
$$$$
