
     RDKit          3D

 49 50  0  0  0  0  0  0  0  0999 V2000
    2.6368   -1.0901   -2.7643 C   0  0  0  0  0  0  0  0  0  0  0  0
    3.1016   -2.0029   -1.6265 C   0  0  0  0  0  0  0  0  0  0  0  0
    2.8221   -3.4579   -2.0198 C   0  0  0  0  0  0  0  0  0  0  0  0
    2.3960   -1.6706   -0.2961 C   0  0  0  0  0  0  0  0  0  0  0  0
    3.1410   -0.6821    0.6031 C   0  0  0  0  0  0  0  0  0  0  0  0
    3.2552    0.6762    0.0099 N   0  0  0  0  0  4  0  0  0  0  0  0
    4.4518    1.0413   -0.5191 C   0  0  0  0  0  0  0  0  0  0  0  0
    4.6418    2.2936   -1.0878 C   0  0  0  0  0  0  0  0  0  0  0  0
    3.5930    3.1963   -1.1087 C   0  0  0  0  0  0  0  0  0  0  0  0
    2.3761    2.8280   -0.5518 C   0  0  0  0  0  0  0  0  0  0  0  0
    2.2121    1.5558    0.0155 C   0  0  0  0  0  0  0  0  0  0  0  0
    0.9335    1.2042    0.6396 C   0  0  0  0  0  0  0  0  0  0  0  0
   -0.2081    1.1312   -0.0638 C   0  0  0  0  0  0  0  0  0  0  0  0
   -1.5136    0.7955    0.5220 C   0  0  0  0  0  0  0  0  0  0  0  0
   -1.6651   -0.1058    1.5752 C   0  0  0  0  0  0  0  0  0  0  0  0
   -2.9406   -0.4185    2.0738 C   0  0  0  0  0  0  0  0  0  0  0  0
   -4.1157    0.1456    1.5495 C   0  0  0  0  0  0  0  0  0  0  0  0
   -5.3812   -0.1888    2.0380 N   0  0  0  0  0  0  0  0  0  0  0  0
   -5.4970   -0.8124    3.3563 C   0  0  0  0  0  0  0  0  0  0  0  0
   -6.5485    0.5764    1.6001 C   0  0  0  0  0  0  0  0  0  0  0  0
   -3.9358    1.0268    0.4709 C   0  0  0  0  0  0  0  0  0  0  0  0
   -2.6661    1.3476   -0.0357 C   0  0  0  0  0  0  0  0  0  0  0  0
    2.8409   -0.0385   -2.5568 H   0  0  0  0  0  0  0  0  0  0  0  0
    3.1525   -1.3440   -3.6968 H   0  0  0  0  0  0  0  0  0  0  0  0
    1.5601   -1.1924   -2.9397 H   0  0  0  0  0  0  0  0  0  0  0  0
    4.1863   -1.8965   -1.5063 H   0  0  0  0  0  0  0  0  0  0  0  0
    3.3191   -3.7096   -2.9628 H   0  0  0  0  0  0  0  0  0  0  0  0
    3.1971   -4.1463   -1.2548 H   0  0  0  0  0  0  0  0  0  0  0  0
    1.7485   -3.6379   -2.1424 H   0  0  0  0  0  0  0  0  0  0  0  0
    1.3747   -1.3296   -0.4929 H   0  0  0  0  0  0  0  0  0  0  0  0
    2.2930   -2.5924    0.2916 H   0  0  0  0  0  0  0  0  0  0  0  0
    4.1515   -1.0494    0.8188 H   0  0  0  0  0  0  0  0  0  0  0  0
    2.6442   -0.5800    1.5739 H   0  0  0  0  0  0  0  0  0  0  0  0
    5.2589    0.3134   -0.4943 H   0  0  0  0  0  0  0  0  0  0  0  0
    5.6062    2.5635   -1.5137 H   0  0  0  0  0  0  0  0  0  0  0  0
    3.7217    4.1847   -1.5476 H   0  0  0  0  0  0  0  0  0  0  0  0
    1.5541    3.5432   -0.5488 H   0  0  0  0  0  0  0  0  0  0  0  0
    0.9524    1.0298    1.7117 H   0  0  0  0  0  0  0  0  0  0  0  0
   -0.2243    1.3366   -1.1339 H   0  0  0  0  0  0  0  0  0  0  0  0
   -0.8099   -0.6012    2.0245 H   0  0  0  0  0  0  0  0  0  0  0  0
   -2.9874   -1.1378    2.8864 H   0  0  0  0  0  0  0  0  0  0  0  0
   -6.5447   -0.9860    3.6266 H   0  0  0  0  0  0  0  0  0  0  0  0
   -5.0159   -1.7961    3.3720 H   0  0  0  0  0  0  0  0  0  0  0  0
   -5.0580   -0.1753    4.1321 H   0  0  0  0  0  0  0  0  0  0  0  0
   -6.6819    0.5096    0.5150 H   0  0  0  0  0  0  0  0  0  0  0  0
   -6.4628    1.6274    1.8973 H   0  0  0  0  0  0  0  0  0  0  0  0
   -7.4713    0.1815    2.0399 H   0  0  0  0  0  0  0  0  0  0  0  0
   -4.7876    1.4939   -0.0152 H   0  0  0  0  0  0  0  0  0  0  0  0
   -2.6066    2.0401   -0.8726 H   0  0  0  0  0  0  0  0  0  0  0  0
  1  2  1  0
  2  3  1  0
  2  4  1  0
  4  5  1  0
  5  6  1  0
  6  7  2  0
  7  8  1  0
  8  9  2  0
  9 10  1  0
 10 11  2  0
 11 12  1  0
 12 13  2  3
 13 14  1  0
 14 15  2  0
 15 16  1  0
 16 17  2  0
 17 18  1  0
 18 19  1  0
 18 20  1  0
 17 21  1  0
 21 22  2  0
 11  6  1  0
 22 14  1  0
  1 23  1  0
  1 24  1  0
  1 25  1  0
  2 26  1  0
  3 27  1  0
  3 28  1  0
  3 29  1  0
  4 30  1  0
  4 31  1  0
  5 32  1  0
  5 33  1  0
  7 34  1  0
  8 35  1  0
  9 36  1  0
 10 37  1  0
 12 38  1  0
 13 39  1  0
 15 40  1  0
 16 41  1  0
 19 42  1  0
 19 43  1  0
 19 44  1  0
 20 45  1  0
 20 46  1  0
 20 47  1  0
 21 48  1  0
 22 49  1  0
M  CHG  1   6   1
M  END
$$$$
