
     RDKit          3D

 44 46  0  0  0  0  0  0  0  0999 V2000
   -1.8530    2.5374   -2.3260 C   0  0  0  0  0  0  0  0  0  0  0  0
   -2.4960    2.2999   -0.9574 C   0  0  0  0  0  0  0  0  0  0  0  0
   -3.9988    2.5856   -1.0029 C   0  0  0  0  0  0  0  0  0  0  0  0
   -2.2072    0.9002   -0.4423 C   0  0  0  0  0  0  0  0  0  0  0  0
   -2.6565   -0.2427   -1.1254 C   0  0  0  0  0  0  0  0  0  0  0  0
   -2.3773   -1.5216   -0.6393 C   0  0  0  0  0  0  0  0  0  0  0  0
   -1.6345   -1.6633    0.5343 C   0  0  0  0  0  0  0  0  0  0  0  0
   -1.2740   -3.2922    1.1499 S   0  0  0  0  0  6  0  0  0  0  0  0
   -0.8735   -3.1778    2.5354 O   0  0  0  0  0  0  0  0  0  0  0  0
   -2.3666   -4.1582    0.7574 O   0  0  0  0  0  0  0  0  0  0  0  0
    0.0533   -3.7715    0.2207 N   0  0  0  0  0  0  0  0  0  0  0  0
    1.1757   -2.9081    0.0715 C   0  0  0  0  0  0  0  0  0  0  0  0
    1.6015   -2.5952   -1.2202 C   0  0  0  0  0  0  0  0  0  0  0  0
    2.6742   -1.7245   -1.4087 C   0  0  0  0  0  0  0  0  0  0  0  0
    3.3145   -1.1633   -0.3066 C   0  0  0  0  0  0  0  0  0  0  0  0
    4.3374   -0.2979   -0.5840 O   0  0  0  0  0  0  0  0  0  0  0  0
    2.9128   -1.4843    0.9975 C   0  0  0  0  0  0  0  0  0  0  0  0
    3.7093   -0.8313    2.4560 S   0  0  0  0  0  0  0  0  0  0  0  0
    3.3213    0.8589    2.3108 C   0  0  0  0  0  0  0  0  0  0  0  0
    2.2763    1.4607    2.9516 N   0  0  0  0  0  0  0  0  0  0  0  0
    2.3578    2.7044    2.5415 C   0  0  0  0  0  0  0  0  0  0  0  0
    3.4033    2.8332    1.6828 N   0  0  0  0  0  0  0  0  0  0  0  0
    4.0344    1.6588    1.5072 N   0  0  0  0  0  0  0  0  0  0  0  0
    1.8500   -2.3808    1.1747 C   0  0  0  0  0  0  0  0  0  0  0  0
   -1.1984   -0.5402    1.2405 C   0  0  0  0  0  0  0  0  0  0  0  0
   -1.4789    0.7348    0.7470 C   0  0  0  0  0  0  0  0  0  0  0  0
   -0.7750    2.3445   -2.2908 H   0  0  0  0  0  0  0  0  0  0  0  0
   -2.2826    1.8905   -3.0986 H   0  0  0  0  0  0  0  0  0  0  0  0
   -1.9975    3.5756   -2.6441 H   0  0  0  0  0  0  0  0  0  0  0  0
   -2.0516    3.0255   -0.2632 H   0  0  0  0  0  0  0  0  0  0  0  0
   -4.4571    2.4278   -0.0204 H   0  0  0  0  0  0  0  0  0  0  0  0
   -4.1837    3.6247   -1.2959 H   0  0  0  0  0  0  0  0  0  0  0  0
   -4.5178    1.9412   -1.7206 H   0  0  0  0  0  0  0  0  0  0  0  0
   -3.2335   -0.1447   -2.0427 H   0  0  0  0  0  0  0  0  0  0  0  0
   -2.7425   -2.3936   -1.1764 H   0  0  0  0  0  0  0  0  0  0  0  0
   -0.2312   -4.3341   -0.5790 H   0  0  0  0  0  0  0  0  0  0  0  0
    1.1001   -3.0087   -2.0904 H   0  0  0  0  0  0  0  0  0  0  0  0
    3.0044   -1.4709   -2.4126 H   0  0  0  0  0  0  0  0  0  0  0  0
    4.5279    0.2235    0.2246 H   0  0  0  0  0  0  0  0  0  0  0  0
    1.7122    3.5245    2.8220 H   0  0  0  0  0  0  0  0  0  0  0  0
    3.7322    3.6579    1.1922 H   0  0  0  0  0  0  0  0  0  0  0  0
    1.5479   -2.6609    2.1814 H   0  0  0  0  0  0  0  0  0  0  0  0
   -0.6357   -0.6434    2.1664 H   0  0  0  0  0  0  0  0  0  0  0  0
   -1.1235    1.5996    1.3042 H   0  0  0  0  0  0  0  0  0  0  0  0
  1  2  1  0
  2  3  1  0
  2  4  1  0
  4  5  2  0
  5  6  1  0
  6  7  2  0
  7  8  1  0
  8  9  2  0
  8 10  2  0
  8 11  1  0
 11 12  1  0
 12 13  2  0
 13 14  1  0
 14 15  2  0
 15 16  1  0
 15 17  1  0
 17 18  1  0
 18 19  1  0
 19 20  1  0
 20 21  2  0
 21 22  1  0
 22 23  1  0
 17 24  2  0
  7 25  1  0
 25 26  2  0
 26  4  1  0
 24 12  1  0
 23 19  2  0
  1 27  1  0
  1 28  1  0
  1 29  1  0
  2 30  1  0
  3 31  1  0
  3 32  1  0
  3 33  1  0
  5 34  1  0
  6 35  1  0
 11 36  1  0
 13 37  1  0
 14 38  1  0
 16 39  1  0
 21 40  1  0
 22 41  1  0
 24 42  1  0
 25 43  1  0
 26 44  1  0
M  END
$$$$
