
     RDKit          3D

 59 62  0  0  0  0  0  0  0  0999 V2000
   -4.9187    1.2921   -3.6262 C   0  0  0  0  0  0  0  0  0  0  0  0
   -4.8775   -0.2158   -3.4490 C   0  0  0  0  0  0  0  0  0  0  0  0
   -4.6851   -0.6038   -2.0604 N   0  0  0  0  0  0  0  0  0  0  0  0
   -5.7107   -0.8106   -1.1570 C   0  0  0  0  0  0  0  0  0  0  0  0
   -7.1048   -0.6917   -1.2925 C   0  0  0  0  0  0  0  0  0  0  0  0
   -7.9035   -0.9735   -0.1798 C   0  0  0  0  0  0  0  0  0  0  0  0
   -7.3352   -1.3613    1.0288 C   0  0  0  0  0  0  0  0  0  0  0  0
   -5.9472   -1.4739    1.1550 C   0  0  0  0  0  0  0  0  0  0  0  0
   -5.1184   -1.1930    0.0476 C   0  0  0  0  0  0  0  0  0  0  0  0
   -3.7019   -1.2018   -0.1487 C   0  0  0  0  0  0  0  0  0  0  0  0
   -2.6065   -1.4974    0.6967 C   0  0  0  0  0  0  0  0  0  0  0  0
   -1.2987   -1.4037    0.2128 C   0  0  0  0  0  0  0  0  0  0  0  0
   -0.1551   -1.6802    0.9879 N   0  0  0  0  0  0  0  0  0  0  0  0
   -0.0973   -2.0727    2.3171 C   0  0  0  0  0  0  0  0  0  0  0  0
   -1.0510   -2.2981    3.0566 O   0  0  0  0  0  0  0  0  0  0  0  0
    1.3477   -2.3158    2.7944 C   0  0  0  0  0  0  0  0  0  0  0  0
    1.7331   -3.7578    2.4894 C   0  0  0  0  0  0  0  0  0  0  0  0
    2.2995   -1.4745    2.1207 O   0  0  0  0  0  0  0  0  0  0  0  0
    2.3583   -0.1997    2.5817 C   0  0  0  0  0  0  0  0  0  0  0  0
    1.6743    0.2679    3.4752 O   0  0  0  0  0  0  0  0  0  0  0  0
    3.3673    0.5876    1.8239 C   0  0  0  0  0  0  0  0  0  0  0  0
    4.2163    0.0123    0.8726 C   0  0  0  0  0  0  0  0  0  0  0  0
    5.1489    0.8017    0.1849 C   0  0  0  0  0  0  0  0  0  0  0  0
    5.2483    2.1709    0.4394 C   0  0  0  0  0  0  0  0  0  0  0  0
    6.1598    3.0340   -0.2059 N   0  0  0  0  0  0  0  0  0  0  0  0
    7.1054    2.6975   -1.1645 C   0  0  0  0  0  0  0  0  0  0  0  0
    7.2893    1.5794   -1.6377 O   0  0  0  0  0  0  0  0  0  0  0  0
    7.9183    3.8754   -1.6578 C   0  0  0  0  0  0  0  0  0  0  0  0
    8.7958    4.3752   -0.6016 C   0  0  0  0  0  0  0  0  0  0  0  0
    9.4563    4.8085    0.2485 N   0  0  0  0  0  0  0  0  0  0  0  0
    4.3986    2.7423    1.3954 C   0  0  0  0  0  0  0  0  0  0  0  0
    3.4653    1.9588    2.0819 C   0  0  0  0  0  0  0  0  0  0  0  0
   -1.0864   -1.0128   -1.1120 C   0  0  0  0  0  0  0  0  0  0  0  0
   -2.1513   -0.7166   -1.9720 C   0  0  0  0  0  0  0  0  0  0  0  0
   -3.4557   -0.8218   -1.4678 C   0  0  0  0  0  0  0  0  0  0  0  0
   -5.7273    1.7393   -3.0393 H   0  0  0  0  0  0  0  0  0  0  0  0
   -3.9785    1.7542   -3.3055 H   0  0  0  0  0  0  0  0  0  0  0  0
   -5.0813    1.5450   -4.6788 H   0  0  0  0  0  0  0  0  0  0  0  0
   -4.0672   -0.6519   -4.0421 H   0  0  0  0  0  0  0  0  0  0  0  0
   -5.8064   -0.6725   -3.8054 H   0  0  0  0  0  0  0  0  0  0  0  0
   -7.5620   -0.3861   -2.2274 H   0  0  0  0  0  0  0  0  0  0  0  0
   -8.9845   -0.8873   -0.2614 H   0  0  0  0  0  0  0  0  0  0  0  0
   -7.9707   -1.5760    1.8843 H   0  0  0  0  0  0  0  0  0  0  0  0
   -5.5087   -1.7726    2.1031 H   0  0  0  0  0  0  0  0  0  0  0  0
   -2.8182   -1.7893    1.7186 H   0  0  0  0  0  0  0  0  0  0  0  0
    0.7410   -1.5561    0.5318 H   0  0  0  0  0  0  0  0  0  0  0  0
    1.3977   -2.1499    3.8778 H   0  0  0  0  0  0  0  0  0  0  0  0
    2.7517   -3.9630    2.8358 H   0  0  0  0  0  0  0  0  0  0  0  0
    1.0484   -4.4631    2.9705 H   0  0  0  0  0  0  0  0  0  0  0  0
    1.7204   -3.9512    1.4106 H   0  0  0  0  0  0  0  0  0  0  0  0
    4.1779   -1.0524    0.6543 H   0  0  0  0  0  0  0  0  0  0  0  0
    5.7877    0.3058   -0.5404 H   0  0  0  0  0  0  0  0  0  0  0  0
    6.1334    3.9991    0.1056 H   0  0  0  0  0  0  0  0  0  0  0  0
    7.2327    4.6572   -2.0025 H   0  0  0  0  0  0  0  0  0  0  0  0
    8.5074    3.5568   -2.5250 H   0  0  0  0  0  0  0  0  0  0  0  0
    4.4475    3.8039    1.6262 H   0  0  0  0  0  0  0  0  0  0  0  0
    2.8160    2.4255    2.8211 H   0  0  0  0  0  0  0  0  0  0  0  0
   -0.0769   -0.9295   -1.5071 H   0  0  0  0  0  0  0  0  0  0  0  0
   -1.9580   -0.4132   -2.9953 H   0  0  0  0  0  0  0  0  0  0  0  0
  1  2  1  0
  2  3  1  0
  3  4  1  0
  4  5  2  0
  5  6  1  0
  6  7  2  0
  7  8  1  0
  8  9  2  0
  9 10  1  0
 10 11  2  0
 11 12  1  0
 12 13  1  0
 13 14  1  0
 14 15  2  0
 14 16  1  0
 16 17  1  0
 16 18  1  0
 18 19  1  0
 19 20  2  0
 19 21  1  0
 21 22  2  0
 22 23  1  0
 23 24  2  0
 24 25  1  0
 25 26  1  0
 26 27  2  0
 26 28  1  0
 28 29  1  0
 29 30  3  0
 24 31  1  0
 31 32  2  0
 12 33  2  0
 33 34  1  0
 34 35  2  0
 35  3  1  0
  9  4  1  0
 35 10  1  0
 32 21  1  0
  1 36  1  0
  1 37  1  0
  1 38  1  0
  2 39  1  0
  2 40  1  0
  5 41  1  0
  6 42  1  0
  7 43  1  0
  8 44  1  0
 11 45  1  0
 13 46  1  0
 16 47  1  0
 17 48  1  0
 17 49  1  0
 17 50  1  0
 22 51  1  0
 23 52  1  0
 25 53  1  0
 28 54  1  0
 28 55  1  0
 31 56  1  0
 32 57  1  0
 33 58  1  0
 34 59  1  0
M  END
$$$$
