
     RDKit          3D

 54 57  0  0  0  0  0  0  0  0999 V2000
   -5.3937    0.3821   -3.2845 C   0  0  0  0  0  0  0  0  0  0  0  0
   -5.4101    1.3488   -2.2431 O   0  0  0  0  0  0  0  0  0  0  0  0
   -4.3029    1.4261   -1.4380 C   0  0  0  0  0  0  0  0  0  0  0  0
   -3.2147    0.5466   -1.4856 C   0  0  0  0  0  0  0  0  0  0  0  0
   -2.1025    0.6875   -0.6260 C   0  0  0  0  0  0  0  0  0  0  0  0
   -0.9759   -0.2671   -0.7015 C   0  0  0  0  0  0  0  0  0  0  0  0
    0.3329    0.0826   -0.4229 C   0  0  0  0  0  0  0  0  0  0  0  0
    1.3190   -0.9009   -0.5150 C   0  0  0  0  0  0  0  0  0  0  0  0
    2.6908   -0.4843   -0.1458 C   0  0  0  0  0  0  0  0  0  0  0  0
    3.1903    0.4490   -0.7583 O   0  0  0  0  0  0  0  0  0  0  0  0
    3.2212   -1.1865    0.9190 N   0  0  0  0  0  0  0  0  0  0  0  0
    4.4993   -1.0319    1.4932 C   0  0  0  0  0  0  0  0  0  0  0  0
    4.8022   -1.8318    2.6047 C   0  0  0  0  0  0  0  0  0  0  0  0
    6.0494   -1.7445    3.2313 C   0  0  0  0  0  0  0  0  0  0  0  0
    6.9977   -0.8570    2.7396 C   0  0  0  0  0  0  0  0  0  0  0  0
    8.2269   -0.7364    3.3152 O   0  0  0  0  0  0  0  0  0  0  0  0
    6.7148   -0.0578    1.6395 C   0  0  0  0  0  0  0  0  0  0  0  0
    5.4660   -0.1447    1.0160 C   0  0  0  0  0  0  0  0  0  0  0  0
    1.0113   -2.2132   -0.9307 C   0  0  0  0  0  0  0  0  0  0  0  0
    1.9574   -3.2535   -1.1225 C   0  0  0  0  0  0  0  0  0  0  0  0
    1.5550   -4.5241   -1.5280 C   0  0  0  0  0  0  0  0  0  0  0  0
    0.2095   -4.7726   -1.7559 C   0  0  0  0  0  0  0  0  0  0  0  0
   -0.7218   -3.7452   -1.5877 C   0  0  0  0  0  0  0  0  0  0  0  0
   -0.3467   -2.4694   -1.1879 C   0  0  0  0  0  0  0  0  0  0  0  0
   -1.3026   -1.5318   -1.0686 N   0  0  0  0  0  0  0  0  0  0  0  0
   -2.1183    1.7491    0.2975 C   0  0  0  0  0  0  0  0  0  0  0  0
   -3.1892    2.6464    0.3472 C   0  0  0  0  0  0  0  0  0  0  0  0
   -3.2354    3.6664    1.2631 O   0  0  0  0  0  0  0  0  0  0  0  0
   -2.0688    4.4875    1.2415 C   0  0  0  0  0  0  0  0  0  0  0  0
   -4.2892    2.4654   -0.4976 C   0  0  0  0  0  0  0  0  0  0  0  0
   -5.3243    3.3704   -0.4581 O   0  0  0  0  0  0  0  0  0  0  0  0
   -6.3288    2.9140    0.4456 C   0  0  0  0  0  0  0  0  0  0  0  0
   -5.3863   -0.6342   -2.8770 H   0  0  0  0  0  0  0  0  0  0  0  0
   -6.3142    0.5005   -3.8640 H   0  0  0  0  0  0  0  0  0  0  0  0
   -4.5504    0.5441   -3.9637 H   0  0  0  0  0  0  0  0  0  0  0  0
   -3.2038   -0.2782   -2.1943 H   0  0  0  0  0  0  0  0  0  0  0  0
    0.6050    1.0966   -0.1470 H   0  0  0  0  0  0  0  0  0  0  0  0
    2.6211   -1.8769    1.3547 H   0  0  0  0  0  0  0  0  0  0  0  0
    4.0707   -2.5301    3.0024 H   0  0  0  0  0  0  0  0  0  0  0  0
    6.2565   -2.3695    4.0938 H   0  0  0  0  0  0  0  0  0  0  0  0
    8.2760   -1.3368    4.0768 H   0  0  0  0  0  0  0  0  0  0  0  0
    7.4615    0.6372    1.2641 H   0  0  0  0  0  0  0  0  0  0  0  0
    5.2818    0.4974    0.1596 H   0  0  0  0  0  0  0  0  0  0  0  0
    3.0219   -3.0757   -0.9791 H   0  0  0  0  0  0  0  0  0  0  0  0
    2.2905   -5.3111   -1.6749 H   0  0  0  0  0  0  0  0  0  0  0  0
   -0.1209   -5.7576   -2.0766 H   0  0  0  0  0  0  0  0  0  0  0  0
   -1.7739   -3.9453   -1.7820 H   0  0  0  0  0  0  0  0  0  0  0  0
   -1.3069    1.8609    1.0105 H   0  0  0  0  0  0  0  0  0  0  0  0
   -1.2681    4.0318    1.8355 H   0  0  0  0  0  0  0  0  0  0  0  0
   -1.7247    4.6901    0.2190 H   0  0  0  0  0  0  0  0  0  0  0  0
   -2.3269    5.4439    1.7056 H   0  0  0  0  0  0  0  0  0  0  0  0
   -5.9442    2.8519    1.4693 H   0  0  0  0  0  0  0  0  0  0  0  0
   -6.7400    1.9466    0.1360 H   0  0  0  0  0  0  0  0  0  0  0  0
   -7.1434    3.6445    0.4357 H   0  0  0  0  0  0  0  0  0  0  0  0
  1  2  1  0
  2  3  1  0
  3  4  2  0
  4  5  1  0
  5  6  1  0
  6  7  2  0
  7  8  1  0
  8  9  1  0
  9 10  2  0
  9 11  1  0
 11 12  1  0
 12 13  2  0
 13 14  1  0
 14 15  2  0
 15 16  1  0
 15 17  1  0
 17 18  2  0
  8 19  2  0
 19 20  1  0
 20 21  2  0
 21 22  1  0
 22 23  2  0
 23 24  1  0
 24 25  2  0
  5 26  2  0
 26 27  1  0
 27 28  1  0
 28 29  1  0
 27 30  2  0
 30 31  1  0
 31 32  1  0
 30  3  1  0
 25  6  1  0
 18 12  1  0
 24 19  1  0
  1 33  1  0
  1 34  1  0
  1 35  1  0
  4 36  1  0
  7 37  1  0
 11 38  1  0
 13 39  1  0
 14 40  1  0
 16 41  1  0
 17 42  1  0
 18 43  1  0
 20 44  1  0
 21 45  1  0
 22 46  1  0
 23 47  1  0
 26 48  1  0
 29 49  1  0
 29 50  1  0
 29 51  1  0
 32 52  1  0
 32 53  1  0
 32 54  1  0
M  END
$$$$
