
     RDKit          3D

 51 55  0  0  0  0  0  0  0  0999 V2000
   -4.1077   -0.7541   -1.4180 O   0  0  0  0  0  0  0  0  0  0  0  0
   -3.8861    0.2222   -0.6919 C   0  0  0  0  0  0  0  0  0  0  0  0
   -4.7930    1.4874   -0.7354 C   0  0  0  0  0  0  0  0  0  0  0  0
   -6.0790    1.4243   -1.6125 C   0  0  0  0  0  0  0  0  0  0  0  0
   -5.8341    2.9023   -1.9655 C   0  0  0  0  0  0  0  0  0  0  0  0
   -4.3456    2.6540   -1.6615 C   0  0  0  0  0  0  0  0  0  0  0  0
   -2.8262    0.2722    0.2090 N   0  0  0  0  0  0  0  0  0  0  0  0
   -2.5137    1.4025    1.0987 C   0  0  0  0  0  0  0  0  0  0  0  0
   -1.2203    1.0638    1.8491 C   0  0  0  0  0  0  0  0  0  0  0  0
   -0.9580   -0.3370    1.4012 C   0  0  0  0  0  0  0  0  0  0  0  0
    0.0745   -1.1663    1.8144 C   0  0  0  0  0  0  0  0  0  0  0  0
    0.1600   -2.4378    1.2392 C   0  0  0  0  0  0  0  0  0  0  0  0
    1.4639   -3.5375    1.7312 S   0  0  0  0  0  6  0  0  0  0  0  0
    2.1149   -2.9974    2.9055 O   0  0  0  0  0  0  0  0  0  0  0  0
    0.9211   -4.8799    1.7332 O   0  0  0  0  0  0  0  0  0  0  0  0
    2.5249   -3.4647    0.4158 N   0  0  0  0  0  0  0  0  0  0  0  0
    3.4233   -2.3655    0.3451 C   0  0  0  0  0  0  0  0  0  0  0  0
    4.6835   -2.4631    0.9377 C   0  0  0  0  0  0  0  0  0  0  0  0
    5.5504   -1.3688    0.9118 C   0  0  0  0  0  0  0  0  0  0  0  0
    5.1494   -0.1806    0.3043 C   0  0  0  0  0  0  0  0  0  0  0  0
    3.8915   -0.0927   -0.3022 C   0  0  0  0  0  0  0  0  0  0  0  0
    3.0200   -1.1796   -0.2676 C   0  0  0  0  0  0  0  0  0  0  0  0
    3.4439    1.0360   -0.9410 O   0  0  0  0  0  0  0  0  0  0  0  0
    4.5212    1.9382   -1.2196 C   0  0  0  0  0  0  0  0  0  0  0  0
    5.4129    2.1005    0.0002 C   0  0  0  0  0  0  0  0  0  0  0  0
    6.0429    0.8589    0.3354 O   0  0  0  0  0  0  0  0  0  0  0  0
   -0.7814   -2.8712    0.2905 C   0  0  0  0  0  0  0  0  0  0  0  0
   -1.8147   -2.0184   -0.1130 C   0  0  0  0  0  0  0  0  0  0  0  0
   -1.8914   -0.7528    0.4479 C   0  0  0  0  0  0  0  0  0  0  0  0
   -5.0520    1.8386    0.2740 H   0  0  0  0  0  0  0  0  0  0  0  0
   -6.0146    0.7535   -2.4771 H   0  0  0  0  0  0  0  0  0  0  0  0
   -7.0083    1.2186   -1.0747 H   0  0  0  0  0  0  0  0  0  0  0  0
   -6.3137    3.6060   -1.2755 H   0  0  0  0  0  0  0  0  0  0  0  0
   -6.0686    3.1926   -2.9925 H   0  0  0  0  0  0  0  0  0  0  0  0
   -3.8276    3.4815   -1.1700 H   0  0  0  0  0  0  0  0  0  0  0  0
   -3.7614    2.3369   -2.5333 H   0  0  0  0  0  0  0  0  0  0  0  0
   -3.3476    1.5377    1.7969 H   0  0  0  0  0  0  0  0  0  0  0  0
   -2.4067    2.3193    0.5102 H   0  0  0  0  0  0  0  0  0  0  0  0
   -0.4050    1.7276    1.5445 H   0  0  0  0  0  0  0  0  0  0  0  0
   -1.3612    1.1259    2.9323 H   0  0  0  0  0  0  0  0  0  0  0  0
    0.7985   -0.8306    2.5517 H   0  0  0  0  0  0  0  0  0  0  0  0
    2.8915   -4.3907    0.1981 H   0  0  0  0  0  0  0  0  0  0  0  0
    4.9916   -3.3762    1.4397 H   0  0  0  0  0  0  0  0  0  0  0  0
    6.5278   -1.4364    1.3817 H   0  0  0  0  0  0  0  0  0  0  0  0
    2.0449   -1.1001   -0.7386 H   0  0  0  0  0  0  0  0  0  0  0  0
    4.0828    2.9014   -1.4990 H   0  0  0  0  0  0  0  0  0  0  0  0
    5.0832    1.5555   -2.0806 H   0  0  0  0  0  0  0  0  0  0  0  0
    6.2037    2.8293   -0.2032 H   0  0  0  0  0  0  0  0  0  0  0  0
    4.8429    2.4482    0.8708 H   0  0  0  0  0  0  0  0  0  0  0  0
   -0.7138   -3.8689   -0.1387 H   0  0  0  0  0  0  0  0  0  0  0  0
   -2.5332   -2.3647   -0.8486 H   0  0  0  0  0  0  0  0  0  0  0  0
  1  2  2  0
  2  3  1  0
  3  4  1  0
  4  5  1  0
  5  6  1  0
  2  7  1  0
  7  8  1  0
  8  9  1  0
  9 10  1  0
 10 11  2  0
 11 12  1  0
 12 13  1  0
 13 14  2  0
 13 15  2  0
 13 16  1  0
 16 17  1  0
 17 18  2  0
 18 19  1  0
 19 20  2  0
 20 21  1  0
 21 22  2  0
 21 23  1  0
 23 24  1  0
 24 25  1  0
 25 26  1  0
 12 27  2  0
 27 28  1  0
 28 29  2  0
  6  3  1  0
 29  7  1  0
 29 10  1  0
 22 17  1  0
 26 20  1  0
  3 30  1  0
  4 31  1  0
  4 32  1  0
  5 33  1  0
  5 34  1  0
  6 35  1  0
  6 36  1  0
  8 37  1  0
  8 38  1  0
  9 39  1  0
  9 40  1  0
 11 41  1  0
 16 42  1  0
 18 43  1  0
 19 44  1  0
 22 45  1  0
 24 46  1  0
 24 47  1  0
 25 48  1  0
 25 49  1  0
 27 50  1  0
 28 51  1  0
M  END
$$$$
