
     RDKit          3D

 19 19  0  0  0  0  0  0  0  0999 V2000
   -2.9480   -0.8237   -0.8031 C   0  0  0  0  0  0  0  0  0  0  0  0
   -2.1945    0.3063   -0.3810 O   0  0  0  0  0  0  0  0  0  0  0  0
   -0.8547    0.1307   -0.1575 C   0  0  0  0  0  0  0  0  0  0  0  0
   -0.1712   -1.0751   -0.3316 C   0  0  0  0  0  0  0  0  0  0  0  0
    1.2031   -1.1544   -0.0736 C   0  0  0  0  0  0  0  0  0  0  0  0
    1.9115   -0.0503    0.4006 C   0  0  0  0  0  0  0  0  0  0  0  0
    3.3006   -0.1092    0.5370 N   0  0  0  0  0  0  0  0  0  0  0  0
    1.2426    1.1679    0.5167 C   0  0  0  0  0  0  0  0  0  0  0  0
   -0.1352    1.2604    0.2611 C   0  0  0  0  0  0  0  0  0  0  0  0
   -0.7795    2.5322    0.4279 C   0  0  0  0  0  0  0  0  0  0  0  0
   -1.2610    3.5783    0.5791 N   0  0  0  0  0  0  0  0  0  0  0  0
   -2.9247   -1.6175   -0.0493 H   0  0  0  0  0  0  0  0  0  0  0  0
   -2.5997   -1.1886   -1.7748 H   0  0  0  0  0  0  0  0  0  0  0  0
   -3.9886   -0.5064   -0.9203 H   0  0  0  0  0  0  0  0  0  0  0  0
   -0.6705   -1.9733   -0.6803 H   0  0  0  0  0  0  0  0  0  0  0  0
    1.7170   -2.0969   -0.2489 H   0  0  0  0  0  0  0  0  0  0  0  0
    3.6639   -1.0364    0.7365 H   0  0  0  0  0  0  0  0  0  0  0  0
    3.6947    0.5970    1.1515 H   0  0  0  0  0  0  0  0  0  0  0  0
    1.7942    2.0591    0.8101 H   0  0  0  0  0  0  0  0  0  0  0  0
  1  2  1  0
  2  3  1  0
  3  4  2  0
  4  5  1  0
  5  6  2  0
  6  7  1  0
  6  8  1  0
  8  9  2  0
  9 10  1  0
 10 11  3  0
  9  3  1  0
  1 12  1  0
  1 13  1  0
  1 14  1  0
  4 15  1  0
  5 16  1  0
  7 17  1  0
  7 18  1  0
  8 19  1  0
M  END
$$$$
