
     RDKit          3D

 52 54  0  0  0  0  0  0  0  0999 V2000
    6.4198   -2.8225   -4.9639 C   0  0  0  0  0  0  0  0  0  0  0  0
    6.0475   -2.3893   -3.5771 C   0  0  0  0  0  0  0  0  0  0  0  0
    5.8601   -1.0341   -3.2844 C   0  0  0  0  0  0  0  0  0  0  0  0
    5.4811   -0.6326   -2.0015 C   0  0  0  0  0  0  0  0  0  0  0  0
    5.2792   -1.5797   -0.9887 C   0  0  0  0  0  0  0  0  0  0  0  0
    4.8459   -1.1430    0.3857 C   0  0  0  0  0  0  0  0  0  0  0  0
    3.4134   -1.0235    0.4586 N   0  0  0  0  0  0  0  0  0  0  0  0
    2.7640    0.1732    0.2745 C   0  0  0  0  0  0  0  0  0  0  0  0
    3.2832    1.2760    0.1747 O   0  0  0  0  0  0  0  0  0  0  0  0
    1.2268    0.0300    0.1915 C   0  0  0  0  0  0  0  0  0  0  0  0
    0.6985   -1.0612    0.3492 O   0  0  0  0  0  0  0  0  0  0  0  0
    0.5699    1.2146   -0.0430 N   0  0  0  0  0  0  0  0  0  0  0  0
   -0.8784    1.3111    0.0191 C   0  0  0  0  0  0  0  0  0  0  0  0
   -1.4455    1.1704    1.4451 C   0  0  0  0  0  0  0  0  0  0  0  0
   -0.8488    2.1784    2.2895 O   0  0  0  0  0  0  0  0  0  0  0  0
   -1.8025    2.3872    3.3318 C   0  0  0  0  0  0  0  0  0  0  0  0
   -3.1256    2.3788    2.6005 C   0  0  0  0  0  0  0  0  0  0  0  0
   -2.9027    1.4493    1.4717 N   0  0  0  0  0  0  0  0  0  0  0  0
   -3.8523    0.0538    1.4198 S   0  0  0  0  0  6  0  0  0  0  0  0
   -3.5062   -0.6845    0.2268 O   0  0  0  0  0  0  0  0  0  0  0  0
   -3.7973   -0.5516    2.7333 O   0  0  0  0  0  0  0  0  0  0  0  0
   -5.4825    0.7155    1.1724 C   0  0  0  0  0  0  0  0  0  0  0  0
   -6.4652    0.5504    2.1529 C   0  0  0  0  0  0  0  0  0  0  0  0
   -7.7404    1.0780    1.9405 C   0  0  0  0  0  0  0  0  0  0  0  0
   -8.0214    1.7579    0.7536 C   0  0  0  0  0  0  0  0  0  0  0  0
   -9.7492    2.4715    0.4718 Br  0  0  0  0  0  0  0  0  0  0  0  0
   -7.0413    1.9143   -0.2280 C   0  0  0  0  0  0  0  0  0  0  0  0
   -5.7649    1.3889   -0.0211 C   0  0  0  0  0  0  0  0  0  0  0  0
    5.4426   -2.9379   -1.2904 C   0  0  0  0  0  0  0  0  0  0  0  0
    5.8220   -3.3385   -2.5740 C   0  0  0  0  0  0  0  0  0  0  0  0
    5.5167   -2.9910   -5.5585 H   0  0  0  0  0  0  0  0  0  0  0  0
    7.0060   -3.7472   -4.9401 H   0  0  0  0  0  0  0  0  0  0  0  0
    7.0333   -2.0624   -5.4591 H   0  0  0  0  0  0  0  0  0  0  0  0
    6.0048   -0.2800   -4.0547 H   0  0  0  0  0  0  0  0  0  0  0  0
    5.3356    0.4267   -1.7957 H   0  0  0  0  0  0  0  0  0  0  0  0
    5.3226   -0.1924    0.6510 H   0  0  0  0  0  0  0  0  0  0  0  0
    5.1535   -1.8808    1.1349 H   0  0  0  0  0  0  0  0  0  0  0  0
    2.8382   -1.8591    0.4043 H   0  0  0  0  0  0  0  0  0  0  0  0
    1.1325    2.0588    0.0295 H   0  0  0  0  0  0  0  0  0  0  0  0
   -1.3001    0.5443   -0.6386 H   0  0  0  0  0  0  0  0  0  0  0  0
   -1.1348    2.2927   -0.3951 H   0  0  0  0  0  0  0  0  0  0  0  0
   -1.2016    0.1948    1.8818 H   0  0  0  0  0  0  0  0  0  0  0  0
   -1.6053    3.3325    3.8438 H   0  0  0  0  0  0  0  0  0  0  0  0
   -1.7272    1.5644    4.0517 H   0  0  0  0  0  0  0  0  0  0  0  0
   -3.3402    3.3656    2.1753 H   0  0  0  0  0  0  0  0  0  0  0  0
   -3.9518    2.1073    3.2615 H   0  0  0  0  0  0  0  0  0  0  0  0
   -6.2513    0.0134    3.0746 H   0  0  0  0  0  0  0  0  0  0  0  0
   -8.5077    0.9503    2.7004 H   0  0  0  0  0  0  0  0  0  0  0  0
   -7.2633    2.4370   -1.1552 H   0  0  0  0  0  0  0  0  0  0  0  0
   -5.0000    1.5009   -0.7868 H   0  0  0  0  0  0  0  0  0  0  0  0
    5.2720   -3.6955   -0.5289 H   0  0  0  0  0  0  0  0  0  0  0  0
    5.9382   -4.3989   -2.7870 H   0  0  0  0  0  0  0  0  0  0  0  0
  1  2  1  0
  2  3  2  0
  3  4  1  0
  4  5  2  0
  5  6  1  0
  6  7  1  0
  7  8  1  0
  8  9  2  0
  8 10  1  0
 10 11  2  0
 10 12  1  0
 12 13  1  0
 13 14  1  0
 14 15  1  0
 15 16  1  0
 16 17  1  0
 17 18  1  0
 18 19  1  0
 19 20  2  0
 19 21  2  0
 19 22  1  0
 22 23  2  0
 23 24  1  0
 24 25  2  0
 25 26  1  0
 25 27  1  0
 27 28  2  0
  5 29  1  0
 29 30  2  0
 30  2  1  0
 18 14  1  0
 28 22  1  0
  1 31  1  0
  1 32  1  0
  1 33  1  0
  3 34  1  0
  4 35  1  0
  6 36  1  0
  6 37  1  0
  7 38  1  0
 12 39  1  0
 13 40  1  0
 13 41  1  0
 14 42  1  0
 16 43  1  0
 16 44  1  0
 17 45  1  0
 17 46  1  0
 23 47  1  0
 24 48  1  0
 27 49  1  0
 28 50  1  0
 29 51  1  0
 30 52  1  0
M  END
$$$$
