
     RDKit          3D

 80 86  0  0  0  0  0  0  0  0999 V2000
    6.1651   -2.8375    2.5066 C   0  0  0  0  0  0  0  0  0  0  0  0
    6.0215   -1.4306    1.9058 C   0  0  0  0  0  0  0  0  0  0  0  0
    6.2832   -0.3990    3.0086 C   0  0  0  0  0  0  0  0  0  0  0  0
    7.0101   -1.2922    0.7435 C   0  0  0  0  0  0  0  0  0  0  0  0
    4.6491   -1.3702    1.4424 O   0  0  0  0  0  0  0  0  0  0  0  0
    4.1553   -0.2535    0.8502 C   0  0  0  0  0  0  0  0  0  0  0  0
    4.7967    0.7680    0.6436 O   0  0  0  0  0  0  0  0  0  0  0  0
    2.8307   -0.4039    0.4988 N   0  0  0  0  0  0  0  0  0  0  0  0
    2.0771   -1.6389    0.7420 C   0  0  0  0  0  0  0  0  0  0  0  0
    0.5545   -1.4244    0.6439 C   0  0  0  0  0  0  0  0  0  0  0  0
    0.1594   -0.8644   -0.6458 N   0  0  0  0  0  0  0  0  0  0  0  0
    1.1282    0.1197   -1.2332 C   0  0  2  0  0  0  0  0  0  0  0  0
    2.1329    0.6730   -0.2081 C   0  0  0  0  0  0  0  0  0  0  0  0
    0.2389    1.1350   -1.8340 C   0  0  0  0  0  0  0  0  0  0  0  0
   -1.1130    0.8374   -1.6056 C   0  0  0  0  0  0  0  0  0  0  0  0
   -1.8773    1.8080   -2.2020 C   0  0  0  0  0  0  0  0  0  0  0  0
   -3.1898    1.9904   -2.2768 O   0  0  0  0  0  0  0  0  0  0  0  0
   -0.9903    2.7068   -2.7744 N   0  0  0  0  0  0  0  0  0  0  0  0
   -1.3759    3.9095   -3.5015 C   0  0  0  0  0  0  0  0  0  0  0  0
   -1.4643    5.1065   -2.5853 C   0  0  0  0  0  0  0  0  0  0  0  0
   -0.3394    5.9119   -2.3539 C   0  0  0  0  0  0  0  0  0  0  0  0
   -0.4170    7.0091   -1.4951 C   0  0  0  0  0  0  0  0  0  0  0  0
   -1.6178    7.3109   -0.8559 C   0  0  0  0  0  0  0  0  0  0  0  0
   -2.7406    6.5139   -1.0713 C   0  0  0  0  0  0  0  0  0  0  0  0
   -2.6649    5.4159   -1.9295 C   0  0  0  0  0  0  0  0  0  0  0  0
    0.3149    2.2792   -2.5822 C   0  0  0  0  0  0  0  0  0  0  0  0
    1.3427    2.9521   -3.0828 O   0  0  0  0  0  0  0  0  0  0  0  0
   -1.2514   -0.3926   -0.7968 C   0  0  1  0  0  0  0  0  0  0  0  0
   -2.1215   -1.4980   -1.4524 C   0  0  0  0  0  0  0  0  0  0  0  0
   -1.9122   -2.0960   -2.5002 O   0  0  0  0  0  0  0  0  0  0  0  0
   -3.2160   -1.7065   -0.5944 N   0  0  0  0  0  0  0  0  0  0  0  0
   -4.1871   -2.7570   -0.7986 C   0  0  0  0  0  0  0  0  0  0  0  0
   -3.8287   -4.0233   -0.0537 C   0  0  0  0  0  0  0  0  0  0  0  0
   -4.5555   -4.4266    1.0757 C   0  0  0  0  0  0  0  0  0  0  0  0
   -4.2059   -5.5891    1.7664 C   0  0  0  0  0  0  0  0  0  0  0  0
   -3.1291   -6.3616    1.3355 C   0  0  0  0  0  0  0  0  0  0  0  0
   -2.4009   -5.9743    0.2128 C   0  0  0  0  0  0  0  0  0  0  0  0
   -2.7481   -4.8128   -0.4784 C   0  0  0  0  0  0  0  0  0  0  0  0
   -3.1715   -0.8448    0.5110 C   0  0  0  0  0  0  0  0  0  0  0  0
   -4.0758   -0.7312    1.5521 C   0  0  0  0  0  0  0  0  0  0  0  0
   -3.8402    0.2418    2.5274 C   0  0  0  0  0  0  0  0  0  0  0  0
   -2.7200    1.0827    2.4464 C   0  0  0  0  0  0  0  0  0  0  0  0
   -1.8132    0.9575    1.3930 C   0  0  0  0  0  0  0  0  0  0  0  0
   -2.0421   -0.0213    0.4315 C   0  0  0  0  0  0  0  0  0  0  0  0
    7.1719   -3.0127    2.9000 H   0  0  0  0  0  0  0  0  0  0  0  0
    5.9488   -3.6062    1.7553 H   0  0  0  0  0  0  0  0  0  0  0  0
    5.4446   -2.9894    3.3188 H   0  0  0  0  0  0  0  0  0  0  0  0
    5.5111   -0.4531    3.7842 H   0  0  0  0  0  0  0  0  0  0  0  0
    7.2599   -0.5568    3.4784 H   0  0  0  0  0  0  0  0  0  0  0  0
    6.2687    0.6247    2.6227 H   0  0  0  0  0  0  0  0  0  0  0  0
    6.7489   -1.9755   -0.0723 H   0  0  0  0  0  0  0  0  0  0  0  0
    8.0346   -1.5081    1.0651 H   0  0  0  0  0  0  0  0  0  0  0  0
    7.0064   -0.2832    0.3210 H   0  0  0  0  0  0  0  0  0  0  0  0
    2.3315   -2.0299    1.7334 H   0  0  0  0  0  0  0  0  0  0  0  0
    2.4088   -2.3737   -0.0015 H   0  0  0  0  0  0  0  0  0  0  0  0
    0.0449   -2.3814    0.8030 H   0  0  0  0  0  0  0  0  0  0  0  0
    0.2794   -0.7607    1.4697 H   0  0  0  0  0  0  0  0  0  0  0  0
    1.6782   -0.4007   -2.0276 H   0  0  0  0  0  0  0  0  0  0  0  0
    1.6236    1.2750    0.5552 H   0  0  0  0  0  0  0  0  0  0  0  0
    2.8546    1.3335   -0.7017 H   0  0  0  0  0  0  0  0  0  0  0  0
   -3.6160    1.2773   -1.7697 H   0  0  0  0  0  0  0  0  0  0  0  0
   -0.6452    4.0792   -4.3011 H   0  0  0  0  0  0  0  0  0  0  0  0
   -2.3361    3.7221   -3.9962 H   0  0  0  0  0  0  0  0  0  0  0  0
    0.6071    5.6797   -2.8384 H   0  0  0  0  0  0  0  0  0  0  0  0
    0.4617    7.6246   -1.3222 H   0  0  0  0  0  0  0  0  0  0  0  0
   -1.6769    8.1642   -0.1857 H   0  0  0  0  0  0  0  0  0  0  0  0
   -3.6752    6.7440   -0.5673 H   0  0  0  0  0  0  0  0  0  0  0  0
   -3.5459    4.7947   -2.0803 H   0  0  0  0  0  0  0  0  0  0  0  0
    2.1559    2.4659   -2.8606 H   0  0  0  0  0  0  0  0  0  0  0  0
   -4.2451   -2.9884   -1.8695 H   0  0  0  0  0  0  0  0  0  0  0  0
   -5.1811   -2.3947   -0.5117 H   0  0  0  0  0  0  0  0  0  0  0  0
   -5.4018   -3.8417    1.4280 H   0  0  0  0  0  0  0  0  0  0  0  0
   -4.7742   -5.8937    2.6415 H   0  0  0  0  0  0  0  0  0  0  0  0
   -2.8589   -7.2668    1.8725 H   0  0  0  0  0  0  0  0  0  0  0  0
   -1.5627   -6.5768   -0.1272 H   0  0  0  0  0  0  0  0  0  0  0  0
   -2.1704   -4.5254   -1.3563 H   0  0  0  0  0  0  0  0  0  0  0  0
   -4.9543   -1.3606    1.6242 H   0  0  0  0  0  0  0  0  0  0  0  0
   -4.5363    0.3561    3.3556 H   0  0  0  0  0  0  0  0  0  0  0  0
   -2.5594    1.8421    3.2091 H   0  0  0  0  0  0  0  0  0  0  0  0
   -0.9523    1.6171    1.3267 H   0  0  0  0  0  0  0  0  0  0  0  0
  1  2  1  0
  2  3  1  0
  2  4  1  0
  2  5  1  0
  5  6  1  0
  6  7  2  0
  6  8  1  0
  8  9  1  0
  9 10  1  0
 10 11  1  0
 11 12  1  0
 12 13  1  0
 12 14  1  0
 14 15  1  0
 15 16  2  0
 16 17  1  0
 16 18  1  0
 18 19  1  0
 19 20  1  0
 20 21  2  0
 21 22  1  0
 22 23  2  0
 23 24  1  0
 24 25  2  0
 18 26  1  0
 26 27  1  0
 15 28  1  0
 28 29  1  0
 29 30  2  0
 29 31  1  0
 31 32  1  0
 32 33  1  0
 33 34  2  0
 34 35  1  0
 35 36  2  0
 36 37  1  0
 37 38  2  0
 31 39  1  0
 39 40  2  0
 40 41  1  0
 41 42  2  0
 42 43  1  0
 43 44  2  0
 13  8  1  0
 26 14  2  0
 44 28  1  0
 28 11  1  1
 38 33  1  0
 44 39  1  0
 25 20  1  0
  1 45  1  0
  1 46  1  0
  1 47  1  0
  3 48  1  0
  3 49  1  0
  3 50  1  0
  4 51  1  0
  4 52  1  0
  4 53  1  0
  9 54  1  0
  9 55  1  0
 10 56  1  0
 10 57  1  0
 12 58  1  6
 13 59  1  0
 13 60  1  0
 17 61  1  0
 19 62  1  0
 19 63  1  0
 21 64  1  0
 22 65  1  0
 23 66  1  0
 24 67  1  0
 25 68  1  0
 27 69  1  0
 32 70  1  0
 32 71  1  0
 34 72  1  0
 35 73  1  0
 36 74  1  0
 37 75  1  0
 38 76  1  0
 40 77  1  0
 41 78  1  0
 42 79  1  0
 43 80  1  0
M  END
$$$$
