
     RDKit          3D

 33 35  0  0  0  0  0  0  0  0999 V2000
    1.4392    0.7199    0.1293 O   0  0  0  0  0  0  0  0  0  0  0  0
    1.6769   -0.4743    0.0191 C   0  0  0  0  0  0  0  0  0  0  0  0
    0.7394   -1.4840   -0.0292 N   0  0  0  0  0  0  0  0  0  0  0  0
   -0.6246   -1.3374    0.0055 C   0  0  0  0  0  0  0  0  0  0  0  0
   -1.4307   -2.3637    0.1525 N   0  0  0  0  0  0  0  0  0  0  0  0
   -2.7571   -1.9850    0.1372 N   0  0  0  0  0  0  0  0  0  0  0  0
   -2.9151   -0.6829   -0.0309 C   0  0  0  0  0  0  0  0  0  0  0  0
   -4.2233   -0.0028   -0.0877 C   0  0  0  0  0  0  0  0  0  0  0  0
   -4.3671    1.3948   -0.1693 C   0  0  0  0  0  0  0  0  0  0  0  0
   -5.6349    1.9857   -0.2196 C   0  0  0  0  0  0  0  0  0  0  0  0
   -6.7692    1.1863   -0.1875 C   0  0  0  0  0  0  0  0  0  0  0  0
   -7.9806    1.7547   -0.2358 F   0  0  0  0  0  0  0  0  0  0  0  0
   -6.6620   -0.1941   -0.1047 C   0  0  0  0  0  0  0  0  0  0  0  0
   -5.3956   -0.7840   -0.0544 C   0  0  0  0  0  0  0  0  0  0  0  0
   -1.4176    0.1513   -0.2003 S   0  0  0  0  0  0  0  0  0  0  0  0
    2.9524   -1.0094   -0.1234 N   0  0  0  0  0  0  0  0  0  0  0  0
    4.1561   -0.3029    0.1009 C   0  0  0  0  0  0  0  0  0  0  0  0
    5.2871   -0.7073   -0.6203 C   0  0  0  0  0  0  0  0  0  0  0  0
    6.5119   -0.0544   -0.4453 C   0  0  0  0  0  0  0  0  0  0  0  0
    6.6234    0.9952    0.4651 C   0  0  0  0  0  0  0  0  0  0  0  0
    5.5131    1.3820    1.2125 C   0  0  0  0  0  0  0  0  0  0  0  0
    4.2927    0.7309    1.0362 C   0  0  0  0  0  0  0  0  0  0  0  0
    3.2858    1.0699    1.8535 F   0  0  0  0  0  0  0  0  0  0  0  0
    1.0484   -2.4261    0.1509 H   0  0  0  0  0  0  0  0  0  0  0  0
   -3.5020    2.0537   -0.1912 H   0  0  0  0  0  0  0  0  0  0  0  0
   -5.7403    3.0645   -0.2818 H   0  0  0  0  0  0  0  0  0  0  0  0
   -7.5591   -0.8046   -0.0789 H   0  0  0  0  0  0  0  0  0  0  0  0
   -5.3281   -1.8698    0.0116 H   0  0  0  0  0  0  0  0  0  0  0  0
    3.0073   -1.8015   -0.7474 H   0  0  0  0  0  0  0  0  0  0  0  0
    5.2295   -1.5189   -1.3408 H   0  0  0  0  0  0  0  0  0  0  0  0
    7.3801   -0.3652   -1.0221 H   0  0  0  0  0  0  0  0  0  0  0  0
    7.5754    1.5019    0.6023 H   0  0  0  0  0  0  0  0  0  0  0  0
    5.5886    2.1779    1.9471 H   0  0  0  0  0  0  0  0  0  0  0  0
  1  2  2  0
  2  3  1  0
  3  4  1  0
  4  5  2  0
  5  6  1  0
  6  7  2  0
  7  8  1  0
  8  9  2  0
  9 10  1  0
 10 11  2  0
 11 12  1  0
 11 13  1  0
 13 14  2  0
  7 15  1  0
  2 16  1  0
 16 17  1  0
 17 18  2  0
 18 19  1  0
 19 20  2  0
 20 21  1  0
 21 22  2  0
 22 23  1  0
 15  4  1  0
 22 17  1  0
 14  8  1  0
  3 24  1  0
  9 25  1  0
 10 26  1  0
 13 27  1  0
 14 28  1  0
 16 29  1  0
 18 30  1  0
 19 31  1  0
 20 32  1  0
 21 33  1  0
M  END
$$$$
