
     RDKit          3D

 53 55  0  0  0  0  0  0  0  0999 V2000
   -6.6338   -4.8768    3.5637 C   0  0  0  0  0  0  0  0  0  0  0  0
   -6.8990   -3.9920    2.4821 O   0  0  0  0  0  0  0  0  0  0  0  0
   -5.9658   -3.0250    2.2289 C   0  0  0  0  0  0  0  0  0  0  0  0
   -4.7634   -2.8445    2.9170 C   0  0  0  0  0  0  0  0  0  0  0  0
   -3.8938   -1.8120    2.5519 C   0  0  0  0  0  0  0  0  0  0  0  0
   -4.2306   -0.9645    1.4928 C   0  0  0  0  0  0  0  0  0  0  0  0
   -3.1127    0.3358    1.0429 S   0  0  0  0  0  6  0  0  0  0  0  0
   -3.6586    1.0511   -0.0908 O   0  0  0  0  0  0  0  0  0  0  0  0
   -2.7332    1.0268    2.2558 O   0  0  0  0  0  0  0  0  0  0  0  0
   -1.7642   -0.5165    0.4925 N   0  0  0  0  0  0  0  0  0  0  0  0
   -1.9185   -1.3095   -0.7452 C   0  0  0  0  0  0  0  0  0  0  0  0
   -1.0105   -0.6130   -1.7322 C   0  0  0  0  0  0  0  0  0  0  0  0
    0.0562   -0.1287   -0.9167 O   0  0  0  0  0  0  0  0  0  0  0  0
   -0.5726    0.3416    0.2883 C   0  0  0  0  0  0  0  0  0  0  0  0
    0.3966    0.2232    1.4828 C   0  0  0  0  0  0  0  0  0  0  0  0
    1.5630    1.0808    1.3580 N   0  0  0  0  0  0  0  0  0  0  0  0
    2.7274    0.6484    0.7650 C   0  0  0  0  0  0  0  0  0  0  0  0
    3.0052   -0.5003    0.4511 O   0  0  0  0  0  0  0  0  0  0  0  0
    3.7414    1.7848    0.5014 C   0  0  0  0  0  0  0  0  0  0  0  0
    3.4482    2.9418    0.7696 O   0  0  0  0  0  0  0  0  0  0  0  0
    4.9213    1.3470   -0.0505 N   0  0  0  0  0  0  0  0  0  0  0  0
    5.9248    2.2530   -0.5424 C   0  0  0  0  0  0  0  0  0  0  0  0
    5.7556    2.4909   -2.0213 C   0  0  0  0  0  0  0  0  0  0  0  0
    6.4360    1.6946   -2.9563 C   0  0  0  0  0  0  0  0  0  0  0  0
    6.2556    1.9046   -4.3245 C   0  0  0  0  0  0  0  0  0  0  0  0
    5.3911    2.9029   -4.7579 C   0  0  0  0  0  0  0  0  0  0  0  0
    5.2187    3.1010   -6.0714 F   0  0  0  0  0  0  0  0  0  0  0  0
    4.7002    3.6950   -3.8495 C   0  0  0  0  0  0  0  0  0  0  0  0
    4.8791    3.4877   -2.4812 C   0  0  0  0  0  0  0  0  0  0  0  0
   -5.4319   -1.1294    0.8036 C   0  0  0  0  0  0  0  0  0  0  0  0
   -6.2929   -2.1637    1.1751 C   0  0  0  0  0  0  0  0  0  0  0  0
   -5.7296   -5.4659    3.3781 H   0  0  0  0  0  0  0  0  0  0  0  0
   -6.5646   -4.3327    4.5115 H   0  0  0  0  0  0  0  0  0  0  0  0
   -7.4746   -5.5728    3.6401 H   0  0  0  0  0  0  0  0  0  0  0  0
   -4.4743   -3.4873    3.7422 H   0  0  0  0  0  0  0  0  0  0  0  0
   -2.9608   -1.6730    3.0942 H   0  0  0  0  0  0  0  0  0  0  0  0
   -2.9434   -1.3849   -1.1153 H   0  0  0  0  0  0  0  0  0  0  0  0
   -1.5581   -2.3224   -0.5332 H   0  0  0  0  0  0  0  0  0  0  0  0
   -1.5042    0.2400   -2.2112 H   0  0  0  0  0  0  0  0  0  0  0  0
   -0.6246   -1.2847   -2.5033 H   0  0  0  0  0  0  0  0  0  0  0  0
   -0.8445    1.3908    0.1184 H   0  0  0  0  0  0  0  0  0  0  0  0
   -0.1025    0.5062    2.4145 H   0  0  0  0  0  0  0  0  0  0  0  0
    0.7375   -0.8139    1.5825 H   0  0  0  0  0  0  0  0  0  0  0  0
    1.4732    2.0855    1.4886 H   0  0  0  0  0  0  0  0  0  0  0  0
    4.9457    0.3690   -0.3259 H   0  0  0  0  0  0  0  0  0  0  0  0
    6.9032    1.8047   -0.3378 H   0  0  0  0  0  0  0  0  0  0  0  0
    5.8814    3.2028    0.0028 H   0  0  0  0  0  0  0  0  0  0  0  0
    7.1085    0.9067   -2.6244 H   0  0  0  0  0  0  0  0  0  0  0  0
    6.7797    1.2954   -5.0539 H   0  0  0  0  0  0  0  0  0  0  0  0
    4.0251    4.4643   -4.2099 H   0  0  0  0  0  0  0  0  0  0  0  0
    4.3281    4.1023   -1.7706 H   0  0  0  0  0  0  0  0  0  0  0  0
   -5.7083   -0.4665   -0.0129 H   0  0  0  0  0  0  0  0  0  0  0  0
   -7.2321   -2.3003    0.6429 H   0  0  0  0  0  0  0  0  0  0  0  0
  1  2  1  0
  2  3  1  0
  3  4  2  0
  4  5  1  0
  5  6  2  0
  6  7  1  0
  7  8  2  0
  7  9  2  0
  7 10  1  0
 10 11  1  0
 11 12  1  0
 12 13  1  0
 13 14  1  0
 14 15  1  0
 15 16  1  0
 16 17  1  0
 17 18  2  0
 17 19  1  0
 19 20  2  0
 19 21  1  0
 21 22  1  0
 22 23  1  0
 23 24  2  0
 24 25  1  0
 25 26  2  0
 26 27  1  0
 26 28  1  0
 28 29  2  0
  6 30  1  0
 30 31  2  0
 31  3  1  0
 14 10  1  0
 29 23  1  0
  1 32  1  0
  1 33  1  0
  1 34  1  0
  4 35  1  0
  5 36  1  0
 11 37  1  0
 11 38  1  0
 12 39  1  0
 12 40  1  0
 14 41  1  0
 15 42  1  0
 15 43  1  0
 16 44  1  0
 21 45  1  0
 22 46  1  0
 22 47  1  0
 24 48  1  0
 25 49  1  0
 28 50  1  0
 29 51  1  0
 30 52  1  0
 31 53  1  0
M  END
$$$$
