
     RDKit          3D

 56 61  0  0  0  0  0  0  0  0999 V2000
    7.7785    3.2552   -1.2000 C   0  0  0  0  0  0  0  0  0  0  0  0
    8.3788    2.1350   -0.5608 O   0  0  0  0  0  0  0  0  0  0  0  0
    7.5359    1.1735   -0.0753 C   0  0  0  0  0  0  0  0  0  0  0  0
    8.1719    0.1136    0.5662 C   0  0  0  0  0  0  0  0  0  0  0  0
    7.4247   -0.9303    1.1065 C   0  0  0  0  0  0  0  0  0  0  0  0
    6.0265   -0.9208    1.0067 C   0  0  0  0  0  0  0  0  0  0  0  0
    5.2608   -1.9656    1.5477 C   0  0  0  0  0  0  0  0  0  0  0  0
    3.8698   -1.8889    1.4100 C   0  0  0  0  0  0  0  0  0  0  0  0
    2.7562   -2.6770    1.7880 C   0  0  0  0  0  0  0  0  0  0  0  0
    1.6248   -2.0266    1.3239 C   0  0  0  0  0  0  0  0  0  0  0  0
    0.2243   -2.3726    1.4921 C   0  0  0  0  0  0  0  0  0  0  0  0
   -0.1259   -3.1104    2.4168 O   0  0  0  0  0  0  0  0  0  0  0  0
   -0.7283   -1.8644    0.6090 N   0  0  0  0  0  0  0  0  0  0  0  0
   -0.4840   -1.3478   -0.7357 C   0  0  0  0  0  0  0  0  0  0  0  0
   -1.2982   -0.0647   -1.0107 C   0  0  0  0  0  0  0  0  0  0  0  0
   -2.6519   -0.0362   -0.4114 N   0  0  0  0  0  0  0  0  0  0  0  0
   -3.5979    0.6873   -1.2682 C   0  0  0  0  0  0  0  0  0  0  0  0
   -4.8933    1.0396   -0.5662 C   0  0  0  0  0  0  0  0  0  0  0  0
   -4.8725    1.8106    0.6212 C   0  0  0  0  0  0  0  0  0  0  0  0
   -6.0565    2.1556    1.2801 C   0  0  0  0  0  0  0  0  0  0  0  0
   -7.2425    1.7223    0.7309 C   0  0  0  0  0  0  0  0  0  0  0  0
   -7.2757    0.9765   -0.4237 C   0  0  0  0  0  0  0  0  0  0  0  0
   -6.1249    0.6208   -1.0960 C   0  0  0  0  0  0  0  0  0  0  0  0
   -8.5432    0.6520   -0.7959 O   0  0  0  0  0  0  0  0  0  0  0  0
   -9.3030    1.2783    0.2589 C   0  0  0  0  0  0  0  0  0  0  0  0
   -8.4845    1.9608    1.2307 O   0  0  0  0  0  0  0  0  0  0  0  0
   -3.1113   -1.3863   -0.0477 C   0  0  0  0  0  0  0  0  0  0  0  0
   -2.1394   -2.0636    0.9430 C   0  0  0  0  0  0  0  0  0  0  0  0
    1.9940   -0.8570    0.7168 O   0  0  0  0  0  0  0  0  0  0  0  0
    3.3514   -0.7814    0.7523 C   0  0  0  0  0  0  0  0  0  0  0  0
    4.0380    0.2384    0.2150 N   0  0  0  0  0  0  0  0  0  0  0  0
    5.3672    0.1507    0.3549 C   0  0  0  0  0  0  0  0  0  0  0  0
    6.1421    1.1762   -0.1726 C   0  0  0  0  0  0  0  0  0  0  0  0
    8.5807    3.9298   -1.5143 H   0  0  0  0  0  0  0  0  0  0  0  0
    7.2297    2.9496   -2.0968 H   0  0  0  0  0  0  0  0  0  0  0  0
    7.1325    3.8056   -0.5080 H   0  0  0  0  0  0  0  0  0  0  0  0
    9.2564    0.1026    0.6468 H   0  0  0  0  0  0  0  0  0  0  0  0
    7.9427   -1.7466    1.6047 H   0  0  0  0  0  0  0  0  0  0  0  0
    5.7214   -2.8056    2.0576 H   0  0  0  0  0  0  0  0  0  0  0  0
    2.7573   -3.6083    2.3381 H   0  0  0  0  0  0  0  0  0  0  0  0
    0.5692   -1.1868   -0.9596 H   0  0  0  0  0  0  0  0  0  0  0  0
   -0.8093   -2.1378   -1.4258 H   0  0  0  0  0  0  0  0  0  0  0  0
   -0.7488    0.7932   -0.6047 H   0  0  0  0  0  0  0  0  0  0  0  0
   -1.3377    0.0690   -2.0995 H   0  0  0  0  0  0  0  0  0  0  0  0
   -3.1543    1.6389   -1.5917 H   0  0  0  0  0  0  0  0  0  0  0  0
   -3.8013    0.1136   -2.1819 H   0  0  0  0  0  0  0  0  0  0  0  0
   -3.9178    2.1325    1.0351 H   0  0  0  0  0  0  0  0  0  0  0  0
   -6.0415    2.7413    2.1919 H   0  0  0  0  0  0  0  0  0  0  0  0
   -6.1841    0.0323   -2.0049 H   0  0  0  0  0  0  0  0  0  0  0  0
   -9.8890    0.5079    0.7733 H   0  0  0  0  0  0  0  0  0  0  0  0
   -9.9926    2.0030   -0.1893 H   0  0  0  0  0  0  0  0  0  0  0  0
   -3.2063   -2.0055   -0.9496 H   0  0  0  0  0  0  0  0  0  0  0  0
   -4.0994   -1.3602    0.4253 H   0  0  0  0  0  0  0  0  0  0  0  0
   -2.3385   -3.1414    0.9757 H   0  0  0  0  0  0  0  0  0  0  0  0
   -2.2977   -1.6666    1.9535 H   0  0  0  0  0  0  0  0  0  0  0  0
    5.6163    1.9872   -0.6670 H   0  0  0  0  0  0  0  0  0  0  0  0
  1  2  1  0
  2  3  1  0
  3  4  2  0
  4  5  1  0
  5  6  2  0
  6  7  1  0
  7  8  2  0
  8  9  1  0
  9 10  2  0
 10 11  1  0
 11 12  2  0
 11 13  1  0
 13 14  1  0
 14 15  1  0
 15 16  1  0
 16 17  1  0
 17 18  1  0
 18 19  2  0
 19 20  1  0
 20 21  2  0
 21 22  1  0
 22 23  2  0
 22 24  1  0
 24 25  1  0
 25 26  1  0
 16 27  1  0
 27 28  1  0
 10 29  1  0
 29 30  1  0
 30 31  2  0
 31 32  1  0
 32 33  2  0
 33  3  1  0
 32  6  1  0
 30  8  1  0
 28 13  1  0
 23 18  1  0
 26 21  1  0
  1 34  1  0
  1 35  1  0
  1 36  1  0
  4 37  1  0
  5 38  1  0
  7 39  1  0
  9 40  1  0
 14 41  1  0
 14 42  1  0
 15 43  1  0
 15 44  1  0
 17 45  1  0
 17 46  1  0
 19 47  1  0
 20 48  1  0
 23 49  1  0
 25 50  1  0
 25 51  1  0
 27 52  1  0
 27 53  1  0
 28 54  1  0
 28 55  1  0
 33 56  1  0
M  END
$$$$
