
     RDKit          3D

 50 52  0  0  0  0  0  0  0  0999 V2000
    7.3228    2.4378    1.0083 C   0  0  0  0  0  0  0  0  0  0  0  0
    6.0968    3.1009    0.7270 O   0  0  0  0  0  0  0  0  0  0  0  0
    5.0367    2.3125    0.3757 C   0  0  0  0  0  0  0  0  0  0  0  0
    3.8631    3.0060    0.0807 C   0  0  0  0  0  0  0  0  0  0  0  0
    2.7046    2.3185   -0.2931 C   0  0  0  0  0  0  0  0  0  0  0  0
    2.7016    0.9223   -0.3773 C   0  0  0  0  0  0  0  0  0  0  0  0
    1.4941    0.3089   -0.7578 N   0  0  0  0  0  0  0  0  0  0  0  0
    1.2259   -1.0446   -0.9223 C   0  0  0  0  0  0  0  0  0  0  0  0
    2.0605   -1.9408   -0.8130 O   0  0  0  0  0  0  0  0  0  0  0  0
   -0.2517   -1.3132   -1.3648 C   0  0  0  0  0  0  0  0  0  0  0  0
   -1.2319   -0.7585   -0.4238 N   0  0  0  0  0  0  0  0  0  0  0  0
   -1.5934    0.5672   -0.4399 C   0  0  0  0  0  0  0  0  0  0  0  0
   -1.0059    1.3958   -1.1292 O   0  0  0  0  0  0  0  0  0  0  0  0
   -2.7383    0.9662    0.4214 C   0  0  0  0  0  0  0  0  0  0  0  0
   -3.4802    2.0953    0.0565 C   0  0  0  0  0  0  0  0  0  0  0  0
   -4.5627    2.5082    0.8367 C   0  0  0  0  0  0  0  0  0  0  0  0
   -4.9169    1.7976    1.9895 C   0  0  0  0  0  0  0  0  0  0  0  0
   -6.0570    2.2628    2.8474 C   0  0  0  0  0  0  0  0  0  0  0  0
   -4.1532    0.6864    2.3682 C   0  0  0  0  0  0  0  0  0  0  0  0
   -3.0696    0.2695    1.5893 C   0  0  0  0  0  0  0  0  0  0  0  0
   -0.5810   -2.7828   -1.5935 C   0  0  0  0  0  0  0  0  0  0  0  0
   -1.1928   -3.1836   -2.7928 C   0  0  0  0  0  0  0  0  0  0  0  0
   -1.5477   -4.5180   -3.0000 C   0  0  0  0  0  0  0  0  0  0  0  0
   -1.3033   -5.4676   -2.0106 C   0  0  0  0  0  0  0  0  0  0  0  0
   -0.7065   -5.0846   -0.8118 C   0  0  0  0  0  0  0  0  0  0  0  0
   -0.3524   -3.7509   -0.6012 C   0  0  0  0  0  0  0  0  0  0  0  0
    3.8752    0.2306   -0.0793 C   0  0  0  0  0  0  0  0  0  0  0  0
    5.0375    0.9211    0.2949 C   0  0  0  0  0  0  0  0  0  0  0  0
    7.2232    1.7756    1.8747 H   0  0  0  0  0  0  0  0  0  0  0  0
    7.6873    1.8916    0.1319 H   0  0  0  0  0  0  0  0  0  0  0  0
    8.0661    3.2013    1.2572 H   0  0  0  0  0  0  0  0  0  0  0  0
    3.8486    4.0913    0.1408 H   0  0  0  0  0  0  0  0  0  0  0  0
    1.8070    2.8906   -0.5166 H   0  0  0  0  0  0  0  0  0  0  0  0
    0.7132    0.9403   -0.9480 H   0  0  0  0  0  0  0  0  0  0  0  0
   -0.3681   -0.7801   -2.3189 H   0  0  0  0  0  0  0  0  0  0  0  0
   -1.8495   -1.4265    0.0177 H   0  0  0  0  0  0  0  0  0  0  0  0
   -3.2184    2.6584   -0.8371 H   0  0  0  0  0  0  0  0  0  0  0  0
   -5.1259    3.3904    0.5392 H   0  0  0  0  0  0  0  0  0  0  0  0
   -5.6931    2.9626    3.6060 H   0  0  0  0  0  0  0  0  0  0  0  0
   -6.8223    2.7616    2.2436 H   0  0  0  0  0  0  0  0  0  0  0  0
   -6.5392    1.4164    3.3475 H   0  0  0  0  0  0  0  0  0  0  0  0
   -4.3939    0.1428    3.2800 H   0  0  0  0  0  0  0  0  0  0  0  0
   -2.4819   -0.5787    1.9278 H   0  0  0  0  0  0  0  0  0  0  0  0
   -1.3999   -2.4579   -3.5769 H   0  0  0  0  0  0  0  0  0  0  0  0
   -2.0139   -4.8169   -3.9354 H   0  0  0  0  0  0  0  0  0  0  0  0
   -1.5744   -6.5071   -2.1753 H   0  0  0  0  0  0  0  0  0  0  0  0
   -0.5090   -5.8258   -0.0417 H   0  0  0  0  0  0  0  0  0  0  0  0
    0.1218   -3.4745    0.3389 H   0  0  0  0  0  0  0  0  0  0  0  0
    3.9252   -0.8525   -0.1275 H   0  0  0  0  0  0  0  0  0  0  0  0
    5.9228    0.3342    0.5154 H   0  0  0  0  0  0  0  0  0  0  0  0
  1  2  1  0
  2  3  1  0
  3  4  2  0
  4  5  1  0
  5  6  2  0
  6  7  1  0
  7  8  1  0
  8  9  2  0
  8 10  1  0
 10 11  1  0
 11 12  1  0
 12 13  2  0
 12 14  1  0
 14 15  2  0
 15 16  1  0
 16 17  2  0
 17 18  1  0
 17 19  1  0
 19 20  2  0
 10 21  1  0
 21 22  2  0
 22 23  1  0
 23 24  2  0
 24 25  1  0
 25 26  2  0
  6 27  1  0
 27 28  2  0
 28  3  1  0
 20 14  1  0
 26 21  1  0
  1 29  1  0
  1 30  1  0
  1 31  1  0
  4 32  1  0
  5 33  1  0
  7 34  1  0
 10 35  1  0
 11 36  1  0
 15 37  1  0
 16 38  1  0
 18 39  1  0
 18 40  1  0
 18 41  1  0
 19 42  1  0
 20 43  1  0
 22 44  1  0
 23 45  1  0
 24 46  1  0
 25 47  1  0
 26 48  1  0
 27 49  1  0
 28 50  1  0
M  END
$$$$
