
     RDKit          3D

 59 64  0  0  0  0  0  0  0  0999 V2000
   -5.3366   -0.9504   -2.5753 C   0  0  0  0  0  0  0  0  0  0  0  0
   -4.5747   -0.4281   -1.4957 O   0  0  0  0  0  0  0  0  0  0  0  0
   -5.2245   -0.1274   -0.3229 C   0  0  0  0  0  0  0  0  0  0  0  0
   -6.5526   -0.5233   -0.0760 C   0  0  0  0  0  0  0  0  0  0  0  0
   -7.1721   -0.2479    1.1436 C   0  0  0  0  0  0  0  0  0  0  0  0
   -6.4729    0.4259    2.1325 C   0  0  0  0  0  0  0  0  0  0  0  0
   -5.1544    0.8204    1.8962 C   0  0  0  0  0  0  0  0  0  0  0  0
   -4.4885    0.5571    0.6769 C   0  0  0  0  0  0  0  0  0  0  0  0
   -3.1784    1.0297    0.5527 N   0  0  0  0  0  0  0  0  0  0  0  0
   -2.5823    1.3860   -0.7510 C   0  0  0  0  0  0  0  0  0  0  0  0
   -1.6155    0.3121   -1.3060 C   0  0  0  0  0  0  0  0  0  0  0  0
   -0.6503   -0.2039   -0.3005 N   0  0  0  0  0  0  0  0  0  0  0  0
    0.5730    0.3991   -0.1973 C   0  0  0  0  0  0  0  0  0  0  0  0
    0.8760    1.7371   -0.0238 C   0  0  0  0  0  0  0  0  0  0  0  0
    2.2774    1.8634    0.0615 C   0  0  0  0  0  0  0  0  0  0  0  0
    2.8189    0.5960   -0.0524 C   0  0  0  0  0  0  0  0  0  0  0  0
    4.1906    0.1303   -0.0368 C   0  0  0  0  0  0  0  0  0  0  0  0
    5.3047    1.0742    0.2279 C   0  0  0  0  0  0  0  0  0  0  0  0
    5.3043    1.8886    1.3667 C   0  0  0  0  0  0  0  0  0  0  0  0
    6.3672    2.7652    1.5898 C   0  0  0  0  0  0  0  0  0  0  0  0
    7.4292    2.8206    0.6843 C   0  0  0  0  0  0  0  0  0  0  0  0
    7.4393    1.9935   -0.4403 C   0  0  0  0  0  0  0  0  0  0  0  0
    6.3815    1.1121   -0.6661 C   0  0  0  0  0  0  0  0  0  0  0  0
    4.4789   -1.1155   -0.2720 N   0  0  0  0  0  0  0  0  0  0  0  0
    3.4324   -2.0267   -0.5156 C   0  0  0  0  0  0  0  0  0  0  0  0
    3.7859   -3.3577   -0.7658 C   0  0  0  0  0  0  0  0  0  0  0  0
    2.8094   -4.3196   -1.0262 C   0  0  0  0  0  0  0  0  0  0  0  0
    1.4644   -3.9536   -1.0434 C   0  0  0  0  0  0  0  0  0  0  0  0
    1.0908   -2.6289   -0.7952 C   0  0  0  0  0  0  0  0  0  0  0  0
    2.0700   -1.6679   -0.5223 C   0  0  0  0  0  0  0  0  0  0  0  0
    1.7814   -0.3008   -0.2653 N   0  0  0  0  0  0  0  0  0  0  0  0
   -1.3184   -0.5920    0.9687 C   0  0  0  0  0  0  0  0  0  0  0  0
   -2.1877    0.5485    1.5448 C   0  0  0  0  0  0  0  0  0  0  0  0
   -6.1612   -0.2807   -2.8436 H   0  0  0  0  0  0  0  0  0  0  0  0
   -4.6737   -1.0295   -3.4449 H   0  0  0  0  0  0  0  0  0  0  0  0
   -5.6970   -1.9583   -2.3488 H   0  0  0  0  0  0  0  0  0  0  0  0
   -7.1329   -1.0625   -0.8174 H   0  0  0  0  0  0  0  0  0  0  0  0
   -8.1989   -0.5606    1.3159 H   0  0  0  0  0  0  0  0  0  0  0  0
   -6.9482    0.6556    3.0829 H   0  0  0  0  0  0  0  0  0  0  0  0
   -4.6405    1.3811    2.6755 H   0  0  0  0  0  0  0  0  0  0  0  0
   -2.0171    2.3123   -0.5959 H   0  0  0  0  0  0  0  0  0  0  0  0
   -3.3415    1.6517   -1.4964 H   0  0  0  0  0  0  0  0  0  0  0  0
   -1.0830    0.7129   -2.1795 H   0  0  0  0  0  0  0  0  0  0  0  0
   -2.1789   -0.5515   -1.6723 H   0  0  0  0  0  0  0  0  0  0  0  0
    0.1598    2.5438    0.0548 H   0  0  0  0  0  0  0  0  0  0  0  0
    2.8250    2.7878    0.1936 H   0  0  0  0  0  0  0  0  0  0  0  0
    4.4904    1.8343    2.0862 H   0  0  0  0  0  0  0  0  0  0  0  0
    6.3739    3.4006    2.4725 H   0  0  0  0  0  0  0  0  0  0  0  0
    8.2562    3.5036    0.8619 H   0  0  0  0  0  0  0  0  0  0  0  0
    8.2734    2.0326   -1.1374 H   0  0  0  0  0  0  0  0  0  0  0  0
    6.3912    0.4601   -1.5375 H   0  0  0  0  0  0  0  0  0  0  0  0
    4.8369   -3.6396   -0.7574 H   0  0  0  0  0  0  0  0  0  0  0  0
    3.0989   -5.3496   -1.2209 H   0  0  0  0  0  0  0  0  0  0  0  0
    0.7016   -4.6993   -1.2544 H   0  0  0  0  0  0  0  0  0  0  0  0
    0.0352   -2.3831   -0.8343 H   0  0  0  0  0  0  0  0  0  0  0  0
   -0.5780   -0.9089    1.7155 H   0  0  0  0  0  0  0  0  0  0  0  0
   -1.9534   -1.4637    0.7641 H   0  0  0  0  0  0  0  0  0  0  0  0
   -1.5483    1.3952    1.8230 H   0  0  0  0  0  0  0  0  0  0  0  0
   -2.6563    0.1992    2.4727 H   0  0  0  0  0  0  0  0  0  0  0  0
  1  2  1  0
  2  3  1  0
  3  4  2  0
  4  5  1  0
  5  6  2  0
  6  7  1  0
  7  8  2  0
  8  9  1  0
  9 10  1  0
 10 11  1  0
 11 12  1  0
 12 13  1  0
 13 14  2  0
 14 15  1  0
 15 16  2  0
 16 17  1  0
 17 18  1  0
 18 19  2  0
 19 20  1  0
 20 21  2  0
 21 22  1  0
 22 23  2  0
 17 24  2  0
 24 25  1  0
 25 26  2  0
 26 27  1  0
 27 28  2  0
 28 29  1  0
 29 30  2  0
 30 31  1  0
 12 32  1  0
 32 33  1  0
  8  3  1  0
 33  9  1  0
 31 13  1  0
 31 16  1  0
 23 18  1  0
 30 25  1  0
  1 34  1  0
  1 35  1  0
  1 36  1  0
  4 37  1  0
  5 38  1  0
  6 39  1  0
  7 40  1  0
 10 41  1  0
 10 42  1  0
 11 43  1  0
 11 44  1  0
 14 45  1  0
 15 46  1  0
 19 47  1  0
 20 48  1  0
 21 49  1  0
 22 50  1  0
 23 51  1  0
 26 52  1  0
 27 53  1  0
 28 54  1  0
 29 55  1  0
 32 56  1  0
 32 57  1  0
 33 58  1  0
 33 59  1  0
M  END
$$$$
