
     RDKit          3D

 60 63  0  0  0  0  0  0  0  0999 V2000
   -4.9985    3.9886    3.6616 C   0  0  0  0  0  0  0  0  0  0  0  0
   -5.3695    2.9869    4.4724 C   0  0  0  0  0  0  0  0  0  0  0  0
   -5.7984    1.5873    4.1076 C   0  0  0  0  0  0  0  0  0  0  0  0
   -5.6451    1.2953    2.6883 N   0  0  0  0  0  0  0  0  0  0  0  0
   -6.7192    1.4906    1.8300 C   0  0  0  0  0  0  0  0  0  0  0  0
   -7.8213    1.8852    2.2049 O   0  0  0  0  0  0  0  0  0  0  0  0
   -6.5167    1.1967    0.3815 C   0  0  0  0  0  0  0  0  0  0  0  0
   -7.6001    1.3801   -0.4909 C   0  0  0  0  0  0  0  0  0  0  0  0
   -7.4629    1.1068   -1.8494 C   0  0  0  0  0  0  0  0  0  0  0  0
   -6.2446    0.6475   -2.3389 C   0  0  0  0  0  0  0  0  0  0  0  0
   -5.1562    0.4630   -1.4781 C   0  0  0  0  0  0  0  0  0  0  0  0
   -5.2826    0.7432   -0.1142 C   0  0  0  0  0  0  0  0  0  0  0  0
   -4.2413    0.5855    0.8276 N   0  0  0  0  0  0  0  0  0  0  0  0
   -2.9137    0.2020    0.7614 C   0  0  0  0  0  0  0  0  0  0  0  0
   -1.9943   -0.1557   -0.6595 S   0  0  0  0  0  0  0  0  0  0  0  0
   -0.5769   -1.0250    0.0742 C   0  0  0  0  0  0  0  0  0  0  0  0
    0.3569   -1.5368   -1.0176 C   0  0  0  0  0  0  0  0  0  0  0  0
   -0.0745   -2.1887   -1.9652 O   0  0  0  0  0  0  0  0  0  0  0  0
    1.6822   -1.2103   -0.7672 N   0  0  0  0  0  0  0  0  0  0  0  0
    2.8027   -1.5635   -1.5118 C   0  0  0  0  0  0  0  0  0  0  0  0
    2.6588   -2.4110   -2.9646 S   0  0  0  0  0  0  0  0  0  0  0  0
    4.3431   -2.4539   -3.2108 C   0  0  0  0  0  0  0  0  0  0  0  0
    4.8521   -3.1233   -4.4479 C   0  0  0  0  0  0  0  0  0  0  0  0
    5.0415   -1.8439   -2.1756 C   0  0  0  0  0  0  0  0  0  0  0  0
    6.5489   -1.7930   -2.1141 C   0  0  0  0  0  0  0  0  0  0  0  0
    7.1193   -0.5442   -2.7709 C   0  0  0  0  0  0  0  0  0  0  0  0
    4.1250   -1.2735   -1.1871 C   0  0  0  0  0  0  0  0  0  0  0  0
    4.4429   -0.4978    0.0227 C   0  0  0  0  0  0  0  0  0  0  0  0
    3.5783   -0.1351    0.8171 O   0  0  0  0  0  0  0  0  0  0  0  0
    5.7649   -0.2082    0.1634 O   0  0  0  0  0  0  0  0  0  0  0  0
    6.1299    0.5758    1.3079 C   0  0  0  0  0  0  0  0  0  0  0  0
    6.3381   -0.3193    2.5140 C   0  0  0  0  0  0  0  0  0  0  0  0
   -2.3917    0.1750    1.9682 N   0  0  0  0  0  0  0  0  0  0  0  0
   -3.3501    0.5754    2.8536 N   0  0  0  0  0  0  0  0  0  0  0  0
   -4.4442    0.8363    2.1741 C   0  0  0  0  0  0  0  0  0  0  0  0
   -4.7125    4.9530    4.0725 H   0  0  0  0  0  0  0  0  0  0  0  0
   -4.9725    3.8872    2.5827 H   0  0  0  0  0  0  0  0  0  0  0  0
   -5.3722    3.1848    5.5434 H   0  0  0  0  0  0  0  0  0  0  0  0
   -6.8453    1.4528    4.4032 H   0  0  0  0  0  0  0  0  0  0  0  0
   -5.2101    0.8634    4.6844 H   0  0  0  0  0  0  0  0  0  0  0  0
   -8.5579    1.7353   -0.1140 H   0  0  0  0  0  0  0  0  0  0  0  0
   -8.3056    1.2480   -2.5223 H   0  0  0  0  0  0  0  0  0  0  0  0
   -6.1370    0.4260   -3.3997 H   0  0  0  0  0  0  0  0  0  0  0  0
   -4.2464    0.0910   -1.9315 H   0  0  0  0  0  0  0  0  0  0  0  0
   -0.0510   -0.3477    0.7542 H   0  0  0  0  0  0  0  0  0  0  0  0
   -0.9207   -1.8927    0.6453 H   0  0  0  0  0  0  0  0  0  0  0  0
    1.8958   -0.6927    0.0856 H   0  0  0  0  0  0  0  0  0  0  0  0
    4.3898   -2.6889   -5.3415 H   0  0  0  0  0  0  0  0  0  0  0  0
    4.6255   -4.1945   -4.4254 H   0  0  0  0  0  0  0  0  0  0  0  0
    5.9339   -3.0143   -4.5595 H   0  0  0  0  0  0  0  0  0  0  0  0
    6.8948   -1.8695   -1.0787 H   0  0  0  0  0  0  0  0  0  0  0  0
    6.9715   -2.6757   -2.6083 H   0  0  0  0  0  0  0  0  0  0  0  0
    6.8614   -0.5062   -3.8349 H   0  0  0  0  0  0  0  0  0  0  0  0
    8.2110   -0.5398   -2.6865 H   0  0  0  0  0  0  0  0  0  0  0  0
    6.7378    0.3697   -2.3036 H   0  0  0  0  0  0  0  0  0  0  0  0
    7.0690    1.0794    1.0597 H   0  0  0  0  0  0  0  0  0  0  0  0
    5.3900    1.3577    1.5073 H   0  0  0  0  0  0  0  0  0  0  0  0
    6.6949    0.2602    3.3696 H   0  0  0  0  0  0  0  0  0  0  0  0
    7.0659   -1.1047    2.2897 H   0  0  0  0  0  0  0  0  0  0  0  0
    5.4073   -0.8197    2.7959 H   0  0  0  0  0  0  0  0  0  0  0  0
  1  2  2  0
  2  3  1  0
  3  4  1  0
  4  5  1  0
  5  6  2  0
  5  7  1  0
  7  8  2  0
  8  9  1  0
  9 10  2  0
 10 11  1  0
 11 12  2  0
 12 13  1  0
 13 14  1  0
 14 15  1  0
 15 16  1  0
 16 17  1  0
 17 18  2  0
 17 19  1  0
 19 20  1  0
 20 21  1  0
 21 22  1  0
 22 23  1  0
 22 24  2  0
 24 25  1  0
 25 26  1  0
 24 27  1  0
 27 28  1  0
 28 29  2  0
 28 30  1  0
 30 31  1  0
 31 32  1  0
 14 33  2  0
 33 34  1  0
 34 35  2  0
 35  4  1  0
 12  7  1  0
 35 13  1  0
 27 20  2  0
  1 36  1  0
  1 37  1  0
  2 38  1  0
  3 39  1  0
  3 40  1  0
  8 41  1  0
  9 42  1  0
 10 43  1  0
 11 44  1  0
 16 45  1  0
 16 46  1  0
 19 47  1  0
 23 48  1  0
 23 49  1  0
 23 50  1  0
 25 51  1  0
 25 52  1  0
 26 53  1  0
 26 54  1  0
 26 55  1  0
 31 56  1  0
 31 57  1  0
 32 58  1  0
 32 59  1  0
 32 60  1  0
M  END
$$$$
