
     RDKit          3D

 53 55  0  0  0  0  0  0  0  0999 V2000
    7.9081   -1.0216    3.4331 C   0  0  0  0  0  0  0  0  0  0  0  0
    7.5946   -1.2663    2.0672 O   0  0  0  0  0  0  0  0  0  0  0  0
    6.3399   -0.9201    1.6482 C   0  0  0  0  0  0  0  0  0  0  0  0
    6.0603   -1.2476    0.3163 C   0  0  0  0  0  0  0  0  0  0  0  0
    4.8188   -0.9498   -0.2478 C   0  0  0  0  0  0  0  0  0  0  0  0
    3.8560   -0.3057    0.5293 C   0  0  0  0  0  0  0  0  0  0  0  0
    2.2715    0.0995   -0.1597 S   0  0  0  0  0  6  0  0  0  0  0  0
    2.1886   -0.4618   -1.4913 O   0  0  0  0  0  0  0  0  0  0  0  0
    1.2698   -0.1937    0.8430 O   0  0  0  0  0  0  0  0  0  0  0  0
    2.3720    1.7598   -0.3199 N   0  0  0  0  0  0  0  0  0  0  0  0
    3.3647    2.3227   -1.2506 C   0  0  0  0  0  0  0  0  0  0  0  0
    2.5698    3.3173   -2.0663 C   0  0  0  0  0  0  0  0  0  0  0  0
    1.5336    3.7438   -1.1775 O   0  0  0  0  0  0  0  0  0  0  0  0
    1.1374    2.5637   -0.4459 C   0  0  0  0  0  0  0  0  0  0  0  0
   -0.0565    1.9039   -1.1755 C   0  0  0  0  0  0  0  0  0  0  0  0
   -0.8931    1.0756   -0.3258 N   0  0  0  0  0  0  0  0  0  0  0  0
   -2.1945    0.7892   -0.6683 C   0  0  0  0  0  0  0  0  0  0  0  0
   -2.8200    1.2933   -1.5918 O   0  0  0  0  0  0  0  0  0  0  0  0
   -2.8767   -0.2633    0.2372 C   0  0  0  0  0  0  0  0  0  0  0  0
   -2.2791   -0.7594    1.1795 O   0  0  0  0  0  0  0  0  0  0  0  0
   -4.1763   -0.5303   -0.1222 N   0  0  0  0  0  0  0  0  0  0  0  0
   -5.0135   -1.3893    0.6718 C   0  0  0  0  0  0  0  0  0  0  0  0
   -6.3610   -1.5861    0.0311 C   0  0  0  0  0  0  0  0  0  0  0  0
   -7.3773   -0.6484    0.2932 C   0  0  0  0  0  0  0  0  0  0  0  0
   -8.6376   -0.7726   -0.2948 C   0  0  0  0  0  0  0  0  0  0  0  0
   -8.9003   -1.8313   -1.1597 C   0  0  0  0  0  0  0  0  0  0  0  0
   -7.9021   -2.7637   -1.4390 C   0  0  0  0  0  0  0  0  0  0  0  0
   -6.6382   -2.6424   -0.8514 C   0  0  0  0  0  0  0  0  0  0  0  0
   -5.4519   -3.8268   -1.2659 Cl  0  0  0  0  0  0  0  0  0  0  0  0
    4.1171    0.0176    1.8636 C   0  0  0  0  0  0  0  0  0  0  0  0
    5.3622   -0.2888    2.4210 C   0  0  0  0  0  0  0  0  0  0  0  0
    8.9222   -1.3910    3.6145 H   0  0  0  0  0  0  0  0  0  0  0  0
    7.8997    0.0511    3.6511 H   0  0  0  0  0  0  0  0  0  0  0  0
    7.2316   -1.5669    4.1002 H   0  0  0  0  0  0  0  0  0  0  0  0
    6.8213   -1.7435   -0.2839 H   0  0  0  0  0  0  0  0  0  0  0  0
    4.6188   -1.2196   -1.2818 H   0  0  0  0  0  0  0  0  0  0  0  0
    3.8550    1.5875   -1.8922 H   0  0  0  0  0  0  0  0  0  0  0  0
    4.1326    2.8314   -0.6577 H   0  0  0  0  0  0  0  0  0  0  0  0
    3.1665    4.1737   -2.3920 H   0  0  0  0  0  0  0  0  0  0  0  0
    2.1121    2.8493   -2.9447 H   0  0  0  0  0  0  0  0  0  0  0  0
    0.8264    2.9003    0.5495 H   0  0  0  0  0  0  0  0  0  0  0  0
   -0.6911    2.6915   -1.6016 H   0  0  0  0  0  0  0  0  0  0  0  0
    0.2708    1.2952   -2.0248 H   0  0  0  0  0  0  0  0  0  0  0  0
   -0.4622    0.4364    0.3505 H   0  0  0  0  0  0  0  0  0  0  0  0
   -4.5651    0.0263   -0.8781 H   0  0  0  0  0  0  0  0  0  0  0  0
   -5.1306   -0.9233    1.6587 H   0  0  0  0  0  0  0  0  0  0  0  0
   -4.4943   -2.3363    0.8549 H   0  0  0  0  0  0  0  0  0  0  0  0
   -7.1882    0.1909    0.9612 H   0  0  0  0  0  0  0  0  0  0  0  0
   -9.4119   -0.0403   -0.0792 H   0  0  0  0  0  0  0  0  0  0  0  0
   -9.8798   -1.9290   -1.6214 H   0  0  0  0  0  0  0  0  0  0  0  0
   -8.1131   -3.5834   -2.1218 H   0  0  0  0  0  0  0  0  0  0  0  0
    3.3567    0.5040    2.4717 H   0  0  0  0  0  0  0  0  0  0  0  0
    5.5364   -0.0214    3.4583 H   0  0  0  0  0  0  0  0  0  0  0  0
  1  2  1  0
  2  3  1  0
  3  4  2  0
  4  5  1  0
  5  6  2  0
  6  7  1  0
  7  8  2  0
  7  9  2  0
  7 10  1  0
 10 11  1  0
 11 12  1  0
 12 13  1  0
 13 14  1  0
 14 15  1  0
 15 16  1  0
 16 17  1  0
 17 18  2  0
 17 19  1  0
 19 20  2  0
 19 21  1  0
 21 22  1  0
 22 23  1  0
 23 24  2  0
 24 25  1  0
 25 26  2  0
 26 27  1  0
 27 28  2  0
 28 29  1  0
  6 30  1  0
 30 31  2  0
 31  3  1  0
 14 10  1  0
 28 23  1  0
  1 32  1  0
  1 33  1  0
  1 34  1  0
  4 35  1  0
  5 36  1  0
 11 37  1  0
 11 38  1  0
 12 39  1  0
 12 40  1  0
 14 41  1  0
 15 42  1  0
 15 43  1  0
 16 44  1  0
 21 45  1  0
 22 46  1  0
 22 47  1  0
 24 48  1  0
 25 49  1  0
 26 50  1  0
 27 51  1  0
 30 52  1  0
 31 53  1  0
M  END
$$$$
