
     RDKit          3D

 40 42  0  0  0  0  0  0  0  0999 V2000
    2.7978   -1.3036    1.4018 O   0  0  0  0  0  0  0  0  0  0  0  0
    3.0350   -0.2710    0.7878 C   0  0  0  0  0  0  0  0  0  0  0  0
    2.2946    0.2747   -0.2453 N   0  0  0  0  0  0  0  0  0  0  0  0
    1.0711   -0.1993   -0.7646 C   0  0  0  0  0  0  0  0  0  0  0  0
    0.3713   -1.2902   -0.2423 C   0  0  0  0  0  0  0  0  0  0  0  0
   -0.8414   -1.6958   -0.8110 C   0  0  0  0  0  0  0  0  0  0  0  0
   -1.3653   -0.9966   -1.8987 C   0  0  0  0  0  0  0  0  0  0  0  0
   -2.8811   -1.5266   -2.6534 S   0  0  0  0  0  6  0  0  0  0  0  0
   -3.2890   -2.7996   -2.0981 O   0  0  0  0  0  0  0  0  0  0  0  0
   -2.6983   -1.3879   -4.0865 O   0  0  0  0  0  0  0  0  0  0  0  0
   -3.9920   -0.3465   -2.2414 N   0  0  0  0  0  0  0  0  0  0  0  0
   -4.5573   -0.3668   -0.9544 C   0  0  0  0  0  0  0  0  0  0  0  0
   -5.9046   -0.0819   -0.7912 C   0  0  0  0  0  0  0  0  0  0  0  0
   -6.4168   -0.0284    0.5026 C   0  0  0  0  0  0  0  0  0  0  0  0
   -5.5639   -0.2388    1.5795 C   0  0  0  0  0  0  0  0  0  0  0  0
   -4.2275   -0.4857    1.3141 C   0  0  0  0  0  0  0  0  0  0  0  0
   -3.7069   -0.5374    0.0691 N   0  0  0  0  0  0  0  0  0  0  0  0
   -0.6733    0.0884   -2.4394 C   0  0  0  0  0  0  0  0  0  0  0  0
    0.5387    0.4857   -1.8675 C   0  0  0  0  0  0  0  0  0  0  0  0
    4.2689    0.4856    1.1409 C   0  0  0  0  0  0  0  0  0  0  0  0
    5.4056   -0.2356    1.5303 C   0  0  0  0  0  0  0  0  0  0  0  0
    6.5809    0.4359    1.8705 C   0  0  0  0  0  0  0  0  0  0  0  0
    6.6215    1.8297    1.8329 C   0  0  0  0  0  0  0  0  0  0  0  0
    5.4828    2.5461    1.4644 C   0  0  0  0  0  0  0  0  0  0  0  0
    5.5359    4.4362    1.4361 Br  0  0  0  0  0  0  0  0  0  0  0  0
    4.3030    1.8854    1.1218 C   0  0  0  0  0  0  0  0  0  0  0  0
    2.6956    1.0652   -0.7321 H   0  0  0  0  0  0  0  0  0  0  0  0
    0.7396   -1.8492    0.6123 H   0  0  0  0  0  0  0  0  0  0  0  0
   -1.3743   -2.5454   -0.3894 H   0  0  0  0  0  0  0  0  0  0  0  0
   -4.5646   -0.0638   -3.0287 H   0  0  0  0  0  0  0  0  0  0  0  0
   -6.5537    0.0857   -1.6423 H   0  0  0  0  0  0  0  0  0  0  0  0
   -7.4707    0.1765    0.6685 H   0  0  0  0  0  0  0  0  0  0  0  0
   -5.9290   -0.2074    2.6002 H   0  0  0  0  0  0  0  0  0  0  0  0
   -3.5166   -0.6502    2.1193 H   0  0  0  0  0  0  0  0  0  0  0  0
   -1.0680    0.6225   -3.3001 H   0  0  0  0  0  0  0  0  0  0  0  0
    1.0605    1.3352   -2.3005 H   0  0  0  0  0  0  0  0  0  0  0  0
    5.3748   -1.3235    1.5680 H   0  0  0  0  0  0  0  0  0  0  0  0
    7.4616   -0.1282    2.1687 H   0  0  0  0  0  0  0  0  0  0  0  0
    7.5398    2.3462    2.1021 H   0  0  0  0  0  0  0  0  0  0  0  0
    3.4153    2.4603    0.8744 H   0  0  0  0  0  0  0  0  0  0  0  0
  1  2  2  0
  2  3  1  0
  3  4  1  0
  4  5  2  0
  5  6  1  0
  6  7  2  0
  7  8  1  0
  8  9  2  0
  8 10  2  0
  8 11  1  0
 11 12  1  0
 12 13  2  0
 13 14  1  0
 14 15  2  0
 15 16  1  0
 16 17  2  0
  7 18  1  0
 18 19  2  0
  2 20  1  0
 20 21  2  0
 21 22  1  0
 22 23  2  0
 23 24  1  0
 24 25  1  0
 24 26  2  0
 19  4  1  0
 26 20  1  0
 17 12  1  0
  3 27  1  0
  5 28  1  0
  6 29  1  0
 11 30  1  0
 13 31  1  0
 14 32  1  0
 15 33  1  0
 16 34  1  0
 18 35  1  0
 19 36  1  0
 21 37  1  0
 22 38  1  0
 23 39  1  0
 26 40  1  0
M  END
$$$$
