
     RDKit          3D

 43 45  0  0  0  0  0  0  0  0999 V2000
    7.1745   -0.6874   -0.6431 C   0  0  0  0  0  0  0  0  0  0  0  0
    5.9995   -0.2903    0.0649 O   0  0  0  0  0  0  0  0  0  0  0  0
    4.8740   -0.2903   -0.6920 C   0  0  0  0  0  0  0  0  0  0  0  0
    4.8081   -0.5893   -1.8743 O   0  0  0  0  0  0  0  0  0  0  0  0
    3.6963    0.1312    0.1144 C   0  0  0  0  0  0  0  0  0  0  0  0
    3.7909    0.4666    1.4691 C   0  0  0  0  0  0  0  0  0  0  0  0
    2.6471    0.8536    2.1744 C   0  0  0  0  0  0  0  0  0  0  0  0
    1.4001    0.9075    1.5454 C   0  0  0  0  0  0  0  0  0  0  0  0
    0.3733    1.3014    2.3582 O   0  0  0  0  0  0  0  0  0  0  0  0
   -0.9554    1.1945    1.8531 C   0  0  0  0  0  0  0  0  0  0  0  0
   -1.4724   -0.2527    1.7595 C   0  0  0  0  0  0  0  0  0  0  0  0
   -1.1308   -1.0880    2.6040 O   0  0  0  0  0  0  0  0  0  0  0  0
   -2.2259   -0.6124    0.6386 N   0  0  0  0  0  0  0  0  0  0  0  0
   -2.2017   -2.0243    0.2506 C   0  0  0  0  0  0  0  0  0  0  0  0
   -1.9075   -2.1554   -1.2336 C   0  0  0  0  0  0  0  0  0  0  0  0
   -3.0131   -1.4857   -2.0322 C   0  0  0  0  0  0  0  0  0  0  0  0
   -3.4315   -0.1576   -1.4496 C   0  0  0  0  0  0  0  0  0  0  0  0
   -4.2574    0.6700   -2.2306 C   0  0  0  0  0  0  0  0  0  0  0  0
   -4.7362    1.8751   -1.7262 C   0  0  0  0  0  0  0  0  0  0  0  0
   -4.4186    2.2497   -0.4270 C   0  0  0  0  0  0  0  0  0  0  0  0
   -3.6020    1.4317    0.3598 C   0  0  0  0  0  0  0  0  0  0  0  0
   -3.0661    0.2390   -0.1455 C   0  0  0  0  0  0  0  0  0  0  0  0
    1.3054    0.5802    0.1926 C   0  0  0  0  0  0  0  0  0  0  0  0
    2.4478    0.1921   -0.5182 C   0  0  0  0  0  0  0  0  0  0  0  0
    7.3785    0.0046   -1.4662 H   0  0  0  0  0  0  0  0  0  0  0  0
    8.0169   -0.6546    0.0534 H   0  0  0  0  0  0  0  0  0  0  0  0
    7.0712   -1.7121   -1.0137 H   0  0  0  0  0  0  0  0  0  0  0  0
    4.7425    0.4301    1.9929 H   0  0  0  0  0  0  0  0  0  0  0  0
    2.7270    1.1074    3.2294 H   0  0  0  0  0  0  0  0  0  0  0  0
   -1.5931    1.7063    2.5820 H   0  0  0  0  0  0  0  0  0  0  0  0
   -1.0330    1.7428    0.9106 H   0  0  0  0  0  0  0  0  0  0  0  0
   -1.4315   -2.5677    0.8086 H   0  0  0  0  0  0  0  0  0  0  0  0
   -3.1700   -2.4683    0.5131 H   0  0  0  0  0  0  0  0  0  0  0  0
   -1.8235   -3.2092   -1.5206 H   0  0  0  0  0  0  0  0  0  0  0  0
   -0.9455   -1.6779   -1.4610 H   0  0  0  0  0  0  0  0  0  0  0  0
   -3.8938   -2.1401   -2.0489 H   0  0  0  0  0  0  0  0  0  0  0  0
   -2.6771   -1.3543   -3.0677 H   0  0  0  0  0  0  0  0  0  0  0  0
   -4.5398    0.3679   -3.2374 H   0  0  0  0  0  0  0  0  0  0  0  0
   -5.3770    2.5064   -2.3364 H   0  0  0  0  0  0  0  0  0  0  0  0
   -4.8227    3.1710   -0.0141 H   0  0  0  0  0  0  0  0  0  0  0  0
   -3.4511    1.7336    1.3904 H   0  0  0  0  0  0  0  0  0  0  0  0
    0.3664    0.6174   -0.3491 H   0  0  0  0  0  0  0  0  0  0  0  0
    2.3572   -0.0623   -1.5731 H   0  0  0  0  0  0  0  0  0  0  0  0
  1  2  1  0
  2  3  1  0
  3  4  2  0
  3  5  1  0
  5  6  2  0
  6  7  1  0
  7  8  2  0
  8  9  1  0
  9 10  1  0
 10 11  1  0
 11 12  2  0
 11 13  1  0
 13 14  1  0
 14 15  1  0
 15 16  1  0
 16 17  1  0
 17 18  2  0
 18 19  1  0
 19 20  2  0
 20 21  1  0
 21 22  2  0
  8 23  1  0
 23 24  2  0
 24  5  1  0
 22 13  1  0
 22 17  1  0
  1 25  1  0
  1 26  1  0
  1 27  1  0
  6 28  1  0
  7 29  1  0
 10 30  1  0
 10 31  1  0
 14 32  1  0
 14 33  1  0
 15 34  1  0
 15 35  1  0
 16 36  1  0
 16 37  1  0
 18 38  1  0
 19 39  1  0
 20 40  1  0
 21 41  1  0
 23 42  1  0
 24 43  1  0
M  END
$$$$
