
     RDKit          3D

 36 37  0  0  0  0  0  0  0  0999 V2000
    4.1009    0.5572    1.5781 C   0  0  0  0  0  0  0  0  0  0  0  0
    4.3098   -0.4193    0.4852 N   0  0  0  0  0  0  0  0  0  0  0  0
    5.6769   -0.9887    0.5238 C   0  0  0  0  0  0  0  0  0  0  0  0
    3.8665    0.1343   -1.0741 S   0  0  0  0  0  6  0  0  0  0  0  0
    4.4492    1.4485   -1.2476 O   0  0  0  0  0  0  0  0  0  0  0  0
    4.1109   -0.9293   -2.0241 O   0  0  0  0  0  0  0  0  0  0  0  0
    2.1035    0.3131   -0.9378 C   0  0  0  0  0  0  0  0  0  0  0  0
    1.3238   -0.8265   -0.7171 C   0  0  0  0  0  0  0  0  0  0  0  0
   -0.0644   -0.7038   -0.6131 C   0  0  0  0  0  0  0  0  0  0  0  0
   -0.6716    0.5560   -0.7333 C   0  0  0  0  0  0  0  0  0  0  0  0
   -2.1447    0.7421   -0.6331 C   0  0  0  0  0  0  0  0  0  0  0  0
   -2.7095    1.8065   -0.8265 O   0  0  0  0  0  0  0  0  0  0  0  0
   -2.7504   -0.4165   -0.2830 O   0  0  0  0  0  0  0  0  0  0  0  0
   -4.1683   -0.3484   -0.2054 C   0  0  0  0  0  0  0  0  0  0  0  0
   -4.6490    0.2727    1.0861 C   0  0  0  0  0  0  0  0  0  0  0  0
   -6.0205   -0.3324    1.2288 C   0  0  0  0  0  0  0  0  0  0  0  0
   -5.9050   -1.6570    0.7068 O   0  0  0  0  0  0  0  0  0  0  0  0
   -4.8056   -1.7205   -0.1086 C   0  0  0  0  0  0  0  0  0  0  0  0
   -4.4299   -2.7384   -0.6678 O   0  0  0  0  0  0  0  0  0  0  0  0
    0.1234    1.6898   -0.9655 C   0  0  0  0  0  0  0  0  0  0  0  0
    1.5117    1.5715   -1.0694 C   0  0  0  0  0  0  0  0  0  0  0  0
    3.0678    0.9128    1.5966 H   0  0  0  0  0  0  0  0  0  0  0  0
    4.7803    1.4094    1.4821 H   0  0  0  0  0  0  0  0  0  0  0  0
    4.2866    0.0735    2.5428 H   0  0  0  0  0  0  0  0  0  0  0  0
    5.8902   -1.3799    1.5240 H   0  0  0  0  0  0  0  0  0  0  0  0
    6.4257   -0.2289    0.2802 H   0  0  0  0  0  0  0  0  0  0  0  0
    5.7627   -1.8280   -0.1724 H   0  0  0  0  0  0  0  0  0  0  0  0
    1.7918   -1.8057   -0.6315 H   0  0  0  0  0  0  0  0  0  0  0  0
   -0.6588   -1.6004   -0.4483 H   0  0  0  0  0  0  0  0  0  0  0  0
   -4.5955    0.1412   -1.0903 H   0  0  0  0  0  0  0  0  0  0  0  0
   -4.0017   -0.0303    1.9187 H   0  0  0  0  0  0  0  0  0  0  0  0
   -4.6684    1.3659    1.0667 H   0  0  0  0  0  0  0  0  0  0  0  0
   -6.3404   -0.3754    2.2738 H   0  0  0  0  0  0  0  0  0  0  0  0
   -6.7762    0.2070    0.6479 H   0  0  0  0  0  0  0  0  0  0  0  0
   -0.3378    2.6708   -1.0714 H   0  0  0  0  0  0  0  0  0  0  0  0
    2.1160    2.4569   -1.2568 H   0  0  0  0  0  0  0  0  0  0  0  0
  1  2  1  0
  2  3  1  0
  2  4  1  0
  4  5  2  0
  4  6  2  0
  4  7  1  0
  7  8  2  0
  8  9  1  0
  9 10  2  0
 10 11  1  0
 11 12  2  0
 11 13  1  0
 13 14  1  0
 14 15  1  0
 15 16  1  0
 16 17  1  0
 17 18  1  0
 18 19  2  0
 10 20  1  0
 20 21  2  0
 21  7  1  0
 18 14  1  0
  1 22  1  0
  1 23  1  0
  1 24  1  0
  3 25  1  0
  3 26  1  0
  3 27  1  0
  8 28  1  0
  9 29  1  0
 14 30  1  0
 15 31  1  0
 15 32  1  0
 16 33  1  0
 16 34  1  0
 20 35  1  0
 21 36  1  0
M  END
$$$$
