
     RDKit          3D

 27 27  0  0  0  0  0  0  0  0999 V2000
   -4.8469   -1.9188    0.4226 C   0  0  0  0  0  0  0  0  0  0  0  0
   -5.1480   -0.6125    0.4680 C   0  0  0  0  0  0  0  0  0  0  0  0
   -4.2676    0.5521    0.1277 C   0  0  0  0  0  0  0  0  0  0  0  0
   -2.8825    0.1721    0.1110 N   0  0  0  0  0  0  0  0  0  0  0  0
   -1.9381    0.9232   -0.5490 C   0  0  0  0  0  0  0  0  0  0  0  0
   -2.1570    1.8713   -1.2897 O   0  0  0  0  0  0  0  0  0  0  0  0
   -0.4866    0.4794   -0.2734 C   0  0  0  0  0  0  0  0  0  0  0  0
   -0.2808   -0.4316    0.5181 O   0  0  0  0  0  0  0  0  0  0  0  0
    0.4259    1.2138   -1.0094 N   0  0  0  0  0  0  0  0  0  0  0  0
    1.7769    1.0045   -1.1171 N   0  0  0  0  0  0  0  0  0  0  0  0
    2.4044    0.3468   -0.1943 C   0  0  0  0  0  0  0  0  0  0  0  0
    3.8158    0.0802   -0.2957 C   0  0  0  0  0  0  0  0  0  0  0  0
    4.6754   -0.5876    0.5563 C   0  0  0  0  0  0  0  0  0  0  0  0
    5.9570   -0.5478   -0.0454 C   0  0  0  0  0  0  0  0  0  0  0  0
    5.8030    0.1399   -1.2252 C   0  0  0  0  0  0  0  0  0  0  0  0
    4.5117    0.5244   -1.3863 O   0  0  0  0  0  0  0  0  0  0  0  0
   -5.5883   -2.6655    0.6922 H   0  0  0  0  0  0  0  0  0  0  0  0
   -3.8769   -2.2831    0.0997 H   0  0  0  0  0  0  0  0  0  0  0  0
   -6.1557   -0.3385    0.7781 H   0  0  0  0  0  0  0  0  0  0  0  0
   -4.5569    0.9814   -0.8370 H   0  0  0  0  0  0  0  0  0  0  0  0
   -4.3765    1.3296    0.8915 H   0  0  0  0  0  0  0  0  0  0  0  0
   -2.5302   -0.4740    0.8115 H   0  0  0  0  0  0  0  0  0  0  0  0
    0.0359    1.8542   -1.7027 H   0  0  0  0  0  0  0  0  0  0  0  0
    1.9235   -0.0230    0.7240 H   0  0  0  0  0  0  0  0  0  0  0  0
    4.4075   -1.0483    1.4971 H   0  0  0  0  0  0  0  0  0  0  0  0
    6.8786   -0.9681    0.3319 H   0  0  0  0  0  0  0  0  0  0  0  0
    6.4765    0.4257   -2.0213 H   0  0  0  0  0  0  0  0  0  0  0  0
  1  2  2  0
  2  3  1  0
  3  4  1  0
  4  5  1  0
  5  6  2  0
  5  7  1  0
  7  8  2  0
  7  9  1  0
  9 10  1  0
 10 11  2  3
 11 12  1  0
 12 13  2  0
 13 14  1  0
 14 15  2  0
 15 16  1  0
 16 12  1  0
  1 17  1  0
  1 18  1  0
  2 19  1  0
  3 20  1  0
  3 21  1  0
  4 22  1  0
  9 23  1  0
 11 24  1  0
 13 25  1  0
 14 26  1  0
 15 27  1  0
M  END
$$$$
