
     RDKit          3D

 60 65  0  0  0  0  0  0  0  0999 V2000
    5.9113   -0.4014    0.6203 C   0  0  0  0  0  0  0  0  0  0  0  0
    5.5159   -1.3290   -0.4639 C   0  0  0  0  0  0  0  0  0  0  0  0
    6.1788   -2.4767   -0.6529 N   0  0  0  0  0  0  0  0  0  0  0  0
    5.5930   -3.0705   -1.7555 O   0  0  0  0  0  0  0  0  0  0  0  0
    4.5804   -2.2856   -2.2118 C   0  0  0  0  0  0  0  0  0  0  0  0
    3.8909   -2.7621   -3.4250 C   0  0  0  0  0  0  0  0  0  0  0  0
    4.4578   -1.1825   -1.3957 C   0  0  0  0  0  0  0  0  0  0  0  0
    3.5267   -0.0860   -1.5273 C   0  0  0  0  0  0  0  0  0  0  0  0
    3.9404    1.0406   -1.7852 O   0  0  0  0  0  0  0  0  0  0  0  0
    2.1718   -0.3649   -1.3129 N   0  0  0  0  0  0  0  0  0  0  0  0
    1.7022   -1.5851   -0.6557 C   0  0  0  0  0  0  0  0  0  0  0  0
    0.1797   -1.6465   -0.5736 C   0  0  0  0  0  0  0  0  0  0  0  0
   -0.4195   -0.4297    0.2035 C   0  0  0  0  0  0  0  0  0  0  0  0
    0.4337    0.8420   -0.0956 C   0  0  0  0  0  0  0  0  0  0  0  0
    1.2108    0.7327   -1.4012 C   0  0  0  0  0  0  0  0  0  0  0  0
   -0.2541   -0.6470    1.6311 O   0  0  0  0  0  0  0  0  0  0  0  0
   -1.0938   -1.5579    2.2096 C   0  0  0  0  0  0  0  0  0  0  0  0
   -0.7196   -2.0248    3.4702 C   0  0  0  0  0  0  0  0  0  0  0  0
   -1.5048   -2.9787    4.1197 C   0  0  0  0  0  0  0  0  0  0  0  0
   -2.6590   -3.4559    3.5057 C   0  0  0  0  0  0  0  0  0  0  0  0
   -3.4047   -4.3739    4.1323 F   0  0  0  0  0  0  0  0  0  0  0  0
   -3.0523   -2.9901    2.2580 C   0  0  0  0  0  0  0  0  0  0  0  0
   -2.2673   -2.0286    1.6178 C   0  0  0  0  0  0  0  0  0  0  0  0
   -2.6750   -1.4783    0.3118 C   0  0  0  0  0  0  0  0  0  0  0  0
   -3.5911   -2.0040   -0.3101 O   0  0  0  0  0  0  0  0  0  0  0  0
   -1.9266   -0.2250   -0.1298 C   0  0  0  0  0  0  0  0  0  0  0  0
   -2.6082    0.9681    0.5345 C   0  0  0  0  0  0  0  0  0  0  0  0
   -2.7660    1.8554   -0.6507 C   0  0  0  0  0  0  0  0  0  0  0  0
   -3.2366    3.2554   -0.5286 C   0  0  0  0  0  0  0  0  0  0  0  0
   -3.5724    3.8109    0.7122 C   0  0  0  0  0  0  0  0  0  0  0  0
   -4.0137    5.1365    0.7889 C   0  0  0  0  0  0  0  0  0  0  0  0
   -4.1216    5.9043   -0.3703 C   0  0  0  0  0  0  0  0  0  0  0  0
   -4.6661    7.5324   -0.2688 Cl  0  0  0  0  0  0  0  0  0  0  0  0
   -3.7920    5.3590   -1.6086 C   0  0  0  0  0  0  0  0  0  0  0  0
   -3.3496    4.0355   -1.6880 C   0  0  0  0  0  0  0  0  0  0  0  0
   -2.4560    1.3123   -1.7829 N   0  0  0  0  0  0  0  0  0  0  0  0
   -2.0980   -0.0298   -1.5359 O   0  0  0  0  0  0  0  0  0  0  0  0
    5.0360   -0.0961    1.2033 H   0  0  0  0  0  0  0  0  0  0  0  0
    6.3765    0.4964    0.2008 H   0  0  0  0  0  0  0  0  0  0  0  0
    6.6259   -0.8662    1.3074 H   0  0  0  0  0  0  0  0  0  0  0  0
    3.3154   -3.6665   -3.2057 H   0  0  0  0  0  0  0  0  0  0  0  0
    3.2035   -2.0063   -3.8158 H   0  0  0  0  0  0  0  0  0  0  0  0
    4.6153   -2.9970   -4.2110 H   0  0  0  0  0  0  0  0  0  0  0  0
    2.1425   -1.6174    0.3480 H   0  0  0  0  0  0  0  0  0  0  0  0
    2.0655   -2.4568   -1.2052 H   0  0  0  0  0  0  0  0  0  0  0  0
   -0.0910   -2.5971   -0.1012 H   0  0  0  0  0  0  0  0  0  0  0  0
   -0.2160   -1.6792   -1.5964 H   0  0  0  0  0  0  0  0  0  0  0  0
    1.1519    1.0028    0.7214 H   0  0  0  0  0  0  0  0  0  0  0  0
   -0.1726    1.7504   -0.1167 H   0  0  0  0  0  0  0  0  0  0  0  0
    1.7118    1.6828   -1.6134 H   0  0  0  0  0  0  0  0  0  0  0  0
    0.5440    0.5267   -2.2463 H   0  0  0  0  0  0  0  0  0  0  0  0
    0.1891   -1.6585    3.9428 H   0  0  0  0  0  0  0  0  0  0  0  0
   -1.2220   -3.3579    5.0977 H   0  0  0  0  0  0  0  0  0  0  0  0
   -3.9625   -3.3713    1.8034 H   0  0  0  0  0  0  0  0  0  0  0  0
   -3.6009    0.7352    0.9354 H   0  0  0  0  0  0  0  0  0  0  0  0
   -2.0043    1.4305    1.3191 H   0  0  0  0  0  0  0  0  0  0  0  0
   -3.5037    3.2381    1.6326 H   0  0  0  0  0  0  0  0  0  0  0  0
   -4.2731    5.5644    1.7545 H   0  0  0  0  0  0  0  0  0  0  0  0
   -3.8782    5.9534   -2.5150 H   0  0  0  0  0  0  0  0  0  0  0  0
   -3.0984    3.6186   -2.6623 H   0  0  0  0  0  0  0  0  0  0  0  0
  1  2  1  0
  2  3  2  0
  3  4  1  0
  4  5  1  0
  5  6  1  0
  5  7  2  0
  7  8  1  0
  8  9  2  0
  8 10  1  0
 10 11  1  0
 11 12  1  0
 12 13  1  0
 13 14  1  0
 14 15  1  0
 13 16  1  0
 16 17  1  0
 17 18  2  0
 18 19  1  0
 19 20  2  0
 20 21  1  0
 20 22  1  0
 22 23  2  0
 23 24  1  0
 24 25  2  0
 24 26  1  0
 26 27  1  0
 27 28  1  0
 28 29  1  0
 29 30  2  0
 30 31  1  0
 31 32  2  0
 32 33  1  0
 32 34  1  0
 34 35  2  0
 28 36  2  0
 36 37  1  0
  7  2  1  0
 15 10  1  0
 23 17  1  0
 37 26  1  0
 26 13  1  0
 35 29  1  0
  1 38  1  0
  1 39  1  0
  1 40  1  0
  6 41  1  0
  6 42  1  0
  6 43  1  0
 11 44  1  0
 11 45  1  0
 12 46  1  0
 12 47  1  0
 14 48  1  0
 14 49  1  0
 15 50  1  0
 15 51  1  0
 18 52  1  0
 19 53  1  0
 22 54  1  0
 27 55  1  0
 27 56  1  0
 30 57  1  0
 31 58  1  0
 34 59  1  0
 35 60  1  0
M  END
$$$$
