
     RDKit          3D

 61 65  0  0  0  0  0  0  0  0999 V2000
    3.4987    2.1901    5.0216 C   0  0  0  0  0  0  0  0  0  0  0  0
    2.6704    1.3617    4.2151 O   0  0  0  0  0  0  0  0  0  0  0  0
    3.1889    0.9548    3.0153 C   0  0  0  0  0  0  0  0  0  0  0  0
    4.4340    1.3067    2.4947 C   0  0  0  0  0  0  0  0  0  0  0  0
    4.8426    0.8121    1.2513 C   0  0  0  0  0  0  0  0  0  0  0  0
    4.0149   -0.0460    0.5136 C   0  0  0  0  0  0  0  0  0  0  0  0
    4.4580   -0.5675   -0.8303 C   0  0  0  0  0  0  0  0  0  0  0  0
    4.1375    0.3628   -1.8927 N   0  0  0  0  0  0  0  0  0  0  0  0
    5.0486    1.2698   -2.3279 N   0  0  0  0  0  0  0  0  0  0  0  0
    4.4933    1.9536   -3.3289 N   0  0  0  0  0  0  0  0  0  0  0  0
    3.2430    1.4488   -3.5187 C   0  0  0  0  0  0  0  0  0  0  0  0
    2.2176    1.7993   -4.4627 C   0  0  0  0  0  0  0  0  0  0  0  0
    2.2907    2.6809   -5.3107 O   0  0  0  0  0  0  0  0  0  0  0  0
    1.0835    1.0096   -4.3174 N   0  0  0  0  0  0  0  0  0  0  0  0
    0.9454   -0.0037   -3.3680 C   0  0  0  0  0  0  0  0  0  0  0  0
   -0.4130   -0.6954   -3.3767 C   0  0  0  0  0  0  0  0  0  0  0  0
   -1.4735    0.2328   -2.7571 C   0  0  0  0  0  0  0  0  0  0  0  0
   -1.7766   -0.1442   -1.3116 C   0  0  0  0  0  0  0  0  0  0  0  0
   -2.3050   -1.5329   -1.2148 N   0  0  0  0  0  0  0  0  0  0  0  0
   -3.9879   -1.6909   -0.9490 S   0  0  0  0  0  6  0  0  0  0  0  0
   -4.2905   -3.0997   -0.8212 O   0  0  0  0  0  0  0  0  0  0  0  0
   -4.6523   -0.8701   -1.9417 O   0  0  0  0  0  0  0  0  0  0  0  0
   -4.2096   -0.9520    0.6474 C   0  0  0  0  0  0  0  0  0  0  0  0
   -3.6770   -1.5928    1.7707 C   0  0  0  0  0  0  0  0  0  0  0  0
   -3.8579   -1.0283    3.0345 C   0  0  0  0  0  0  0  0  0  0  0  0
   -4.5610    0.1761    3.1789 C   0  0  0  0  0  0  0  0  0  0  0  0
   -4.7892    0.7624    4.5430 C   0  0  0  0  0  0  0  0  0  0  0  0
   -5.1063    0.7956    2.0449 C   0  0  0  0  0  0  0  0  0  0  0  0
   -4.9322    0.2351    0.7782 C   0  0  0  0  0  0  0  0  0  0  0  0
   -1.7853   -2.4752   -2.2431 C   0  0  0  0  0  0  0  0  0  0  0  0
   -0.3871   -2.0665   -2.6851 C   0  0  0  0  0  0  0  0  0  0  0  0
    1.8695   -0.3204   -2.5043 N   0  0  0  0  0  0  0  0  0  0  0  0
    2.9899    0.4331   -2.6292 C   0  0  0  0  0  0  0  0  0  0  0  0
    2.7598   -0.3838    1.0347 C   0  0  0  0  0  0  0  0  0  0  0  0
    2.3557    0.1127    2.2757 C   0  0  0  0  0  0  0  0  0  0  0  0
    3.6950    3.1495    4.5308 H   0  0  0  0  0  0  0  0  0  0  0  0
    4.4324    1.6807    5.2837 H   0  0  0  0  0  0  0  0  0  0  0  0
    2.9593    2.3953    5.9516 H   0  0  0  0  0  0  0  0  0  0  0  0
    5.1109    1.9673    3.0253 H   0  0  0  0  0  0  0  0  0  0  0  0
    5.8144    1.1093    0.8577 H   0  0  0  0  0  0  0  0  0  0  0  0
    3.9771   -1.5262   -1.0609 H   0  0  0  0  0  0  0  0  0  0  0  0
    5.5390   -0.7446   -0.8445 H   0  0  0  0  0  0  0  0  0  0  0  0
    0.3366    1.2250   -4.9619 H   0  0  0  0  0  0  0  0  0  0  0  0
   -0.6837   -0.8433   -4.4321 H   0  0  0  0  0  0  0  0  0  0  0  0
   -2.3968    0.1566   -3.3477 H   0  0  0  0  0  0  0  0  0  0  0  0
   -1.1670    1.2839   -2.8001 H   0  0  0  0  0  0  0  0  0  0  0  0
   -0.8713   -0.0789   -0.6964 H   0  0  0  0  0  0  0  0  0  0  0  0
   -2.4803    0.5776   -0.8907 H   0  0  0  0  0  0  0  0  0  0  0  0
   -3.1332   -2.5285    1.6660 H   0  0  0  0  0  0  0  0  0  0  0  0
   -3.4534   -1.5363    3.9077 H   0  0  0  0  0  0  0  0  0  0  0  0
   -5.7545    0.4293    4.9339 H   0  0  0  0  0  0  0  0  0  0  0  0
   -4.7788    1.8545    4.4978 H   0  0  0  0  0  0  0  0  0  0  0  0
   -4.0029    0.4580    5.2431 H   0  0  0  0  0  0  0  0  0  0  0  0
   -5.6757    1.7175    2.1453 H   0  0  0  0  0  0  0  0  0  0  0  0
   -5.3643    0.7257   -0.0911 H   0  0  0  0  0  0  0  0  0  0  0  0
   -2.4552   -2.5051   -3.1113 H   0  0  0  0  0  0  0  0  0  0  0  0
   -1.7434   -3.4792   -1.8051 H   0  0  0  0  0  0  0  0  0  0  0  0
    0.0238   -2.8142   -3.3735 H   0  0  0  0  0  0  0  0  0  0  0  0
    0.2702   -2.0643   -1.8077 H   0  0  0  0  0  0  0  0  0  0  0  0
    2.0843   -1.0308    0.4794 H   0  0  0  0  0  0  0  0  0  0  0  0
    1.3801   -0.1580    2.6720 H   0  0  0  0  0  0  0  0  0  0  0  0
  1  2  1  0
  2  3  1  0
  3  4  2  0
  4  5  1  0
  5  6  2  0
  6  7  1  0
  7  8  1  0
  8  9  1  0
  9 10  2  0
 10 11  1  0
 11 12  1  0
 12 13  2  0
 12 14  1  0
 14 15  1  0
 15 16  1  0
 16 17  1  0
 17 18  1  0
 18 19  1  0
 19 20  1  0
 20 21  2  0
 20 22  2  0
 20 23  1  0
 23 24  2  0
 24 25  1  0
 25 26  2  0
 26 27  1  0
 26 28  1  0
 28 29  2  0
 19 30  1  0
 30 31  1  0
 15 32  2  0
 32 33  1  0
  6 34  1  0
 34 35  2  0
 35  3  1  0
 33  8  1  0
 33 11  2  0
 31 16  1  0
 29 23  1  0
  1 36  1  0
  1 37  1  0
  1 38  1  0
  4 39  1  0
  5 40  1  0
  7 41  1  0
  7 42  1  0
 14 43  1  0
 16 44  1  0
 17 45  1  0
 17 46  1  0
 18 47  1  0
 18 48  1  0
 24 49  1  0
 25 50  1  0
 27 51  1  0
 27 52  1  0
 27 53  1  0
 28 54  1  0
 29 55  1  0
 30 56  1  0
 30 57  1  0
 31 58  1  0
 31 59  1  0
 34 60  1  0
 35 61  1  0
M  END
$$$$
