
     RDKit          3D

 50 52  0  0  0  0  0  0  0  0999 V2000
   -4.4772   -0.6312   -2.6134 C   0  0  0  0  0  0  0  0  0  0  0  0
   -4.8814   -0.8341   -1.2650 O   0  0  0  0  0  0  0  0  0  0  0  0
   -3.9602   -0.5506   -0.2924 C   0  0  0  0  0  0  0  0  0  0  0  0
   -2.6190   -0.2344   -0.5122 C   0  0  0  0  0  0  0  0  0  0  0  0
   -1.7700    0.0138    0.5775 C   0  0  0  0  0  0  0  0  0  0  0  0
   -0.3467    0.3533    0.3656 C   0  0  0  0  0  0  0  0  0  0  0  0
    0.1659    0.4274   -0.8231 N   0  0  0  0  0  0  0  0  0  0  0  0
    1.5070    0.7015   -0.9254 N   0  0  0  0  0  0  0  0  0  0  0  0
    2.4946    0.1879   -0.0745 C   0  0  0  0  0  0  0  0  0  0  0  0
    2.2852   -0.4689    0.9419 O   0  0  0  0  0  0  0  0  0  0  0  0
    3.8983    0.5539   -0.5693 C   0  0  0  0  0  0  0  0  0  0  0  0
    4.9017    0.0767    0.3132 O   0  0  0  0  0  0  0  0  0  0  0  0
    6.2024    0.3269   -0.0241 C   0  0  0  0  0  0  0  0  0  0  0  0
    7.1436   -0.1905    0.8679 C   0  0  0  0  0  0  0  0  0  0  0  0
    8.5110   -0.0098    0.6477 C   0  0  0  0  0  0  0  0  0  0  0  0
    8.9576    0.6862   -0.4792 C   0  0  0  0  0  0  0  0  0  0  0  0
   10.4232    0.9124   -0.7025 C   0  0  0  0  0  0  0  0  0  0  0  0
    8.0127    1.2177   -1.3643 C   0  0  0  0  0  0  0  0  0  0  0  0
    6.6426    1.0354   -1.1418 C   0  0  0  0  0  0  0  0  0  0  0  0
   -2.2470   -0.0619    1.8910 C   0  0  0  0  0  0  0  0  0  0  0  0
   -3.5834   -0.3795    2.1209 C   0  0  0  0  0  0  0  0  0  0  0  0
   -4.4249   -0.6032    1.0304 C   0  0  0  0  0  0  0  0  0  0  0  0
   -5.7558   -0.9482    1.2906 O   0  0  0  0  0  0  0  0  0  0  0  0
   -6.6379    0.1184    1.1233 C   0  0  0  0  0  0  0  0  0  0  0  0
   -6.3062    1.2841    0.9287 O   0  0  0  0  0  0  0  0  0  0  0  0
   -8.0005   -0.3730    1.2518 C   0  0  0  0  0  0  0  0  0  0  0  0
   -8.4603   -1.6648    1.4469 C   0  0  0  0  0  0  0  0  0  0  0  0
   -9.8823   -1.7362    1.5216 C   0  0  0  0  0  0  0  0  0  0  0  0
  -10.4667   -0.4986    1.3803 C   0  0  0  0  0  0  0  0  0  0  0  0
   -9.3067    0.7365    1.1582 S   0  0  0  0  0  0  0  0  0  0  0  0
   -5.3424   -0.8268   -3.2541 H   0  0  0  0  0  0  0  0  0  0  0  0
   -3.6880   -1.3353   -2.8963 H   0  0  0  0  0  0  0  0  0  0  0  0
   -4.1645    0.4045   -2.7832 H   0  0  0  0  0  0  0  0  0  0  0  0
   -2.2069   -0.1812   -1.5143 H   0  0  0  0  0  0  0  0  0  0  0  0
    0.2353    0.5666    1.2788 H   0  0  0  0  0  0  0  0  0  0  0  0
    1.7848    0.9447   -1.8716 H   0  0  0  0  0  0  0  0  0  0  0  0
    3.9462    1.6478   -0.6355 H   0  0  0  0  0  0  0  0  0  0  0  0
    4.0231    0.1004   -1.5603 H   0  0  0  0  0  0  0  0  0  0  0  0
    6.8078   -0.7387    1.7453 H   0  0  0  0  0  0  0  0  0  0  0  0
    9.2217   -0.4177    1.3628 H   0  0  0  0  0  0  0  0  0  0  0  0
   10.7371    1.8405   -0.2150 H   0  0  0  0  0  0  0  0  0  0  0  0
   11.0126    0.0829   -0.2980 H   0  0  0  0  0  0  0  0  0  0  0  0
   10.6495    0.9799   -1.7718 H   0  0  0  0  0  0  0  0  0  0  0  0
    8.3384    1.7795   -2.2372 H   0  0  0  0  0  0  0  0  0  0  0  0
    5.9530    1.4643   -1.8600 H   0  0  0  0  0  0  0  0  0  0  0  0
   -1.5868    0.1192    2.7357 H   0  0  0  0  0  0  0  0  0  0  0  0
   -3.9658   -0.4454    3.1350 H   0  0  0  0  0  0  0  0  0  0  0  0
   -7.8074   -2.5263    1.5301 H   0  0  0  0  0  0  0  0  0  0  0  0
  -10.4465   -2.6492    1.6697 H   0  0  0  0  0  0  0  0  0  0  0  0
  -11.5210   -0.2571    1.3948 H   0  0  0  0  0  0  0  0  0  0  0  0
  1  2  1  0
  2  3  1  0
  3  4  2  0
  4  5  1  0
  5  6  1  0
  6  7  2  3
  7  8  1  0
  8  9  1  0
  9 10  2  0
  9 11  1  0
 11 12  1  0
 12 13  1  0
 13 14  2  0
 14 15  1  0
 15 16  2  0
 16 17  1  0
 16 18  1  0
 18 19  2  0
  5 20  2  0
 20 21  1  0
 21 22  2  0
 22 23  1  0
 23 24  1  0
 24 25  2  0
 24 26  1  0
 26 27  2  0
 27 28  1  0
 28 29  2  0
 29 30  1  0
 22  3  1  0
 30 26  1  0
 19 13  1  0
  1 31  1  0
  1 32  1  0
  1 33  1  0
  4 34  1  0
  6 35  1  0
  8 36  1  0
 11 37  1  0
 11 38  1  0
 14 39  1  0
 15 40  1  0
 17 41  1  0
 17 42  1  0
 17 43  1  0
 18 44  1  0
 19 45  1  0
 20 46  1  0
 21 47  1  0
 27 48  1  0
 28 49  1  0
 29 50  1  0
M  END
$$$$
