
     RDKit          3D

 30 31  0  0  0  0  0  0  0  0999 V2000
   -4.4519    1.9540   -0.6876 C   0  0  0  0  0  0  0  0  0  0  0  0
   -4.2085    0.5841   -0.1831 C   0  0  0  0  0  0  0  0  0  0  0  0
   -5.2761   -0.0392    0.3888 O   0  0  0  0  0  0  0  0  0  0  0  0
   -4.8594   -1.2669    0.7795 C   0  0  0  0  0  0  0  0  0  0  0  0
   -3.5329   -1.4444    0.4671 C   0  0  0  0  0  0  0  0  0  0  0  0
   -3.0915   -0.2387   -0.1612 C   0  0  0  0  0  0  0  0  0  0  0  0
   -1.7855    0.1242   -0.6939 C   0  0  0  0  0  0  0  0  0  0  0  0
   -1.5681    1.1873   -1.2735 O   0  0  0  0  0  0  0  0  0  0  0  0
   -0.7917   -0.8154   -0.4918 N   0  0  0  0  0  0  0  0  0  0  0  0
    0.5352   -0.4439   -0.7628 N   0  0  0  0  0  0  0  0  0  0  0  0
    1.5203   -0.9617    0.0538 C   0  0  0  0  0  0  0  0  0  0  0  0
    1.2779   -1.8390    0.8822 O   0  0  0  0  0  0  0  0  0  0  0  0
    2.8967   -0.4186   -0.0942 C   0  0  0  0  0  0  0  0  0  0  0  0
    3.9171   -0.9594    0.7031 C   0  0  0  0  0  0  0  0  0  0  0  0
    5.2267   -0.4815    0.5992 C   0  0  0  0  0  0  0  0  0  0  0  0
    5.5284    0.5401   -0.3005 C   0  0  0  0  0  0  0  0  0  0  0  0
    4.5210    1.0841   -1.0957 C   0  0  0  0  0  0  0  0  0  0  0  0
    3.2162    0.6043   -0.9890 C   0  0  0  0  0  0  0  0  0  0  0  0
    2.2771    1.1595   -1.7699 F   0  0  0  0  0  0  0  0  0  0  0  0
   -4.2811    2.0002   -1.7675 H   0  0  0  0  0  0  0  0  0  0  0  0
   -5.4816    2.2715   -0.4951 H   0  0  0  0  0  0  0  0  0  0  0  0
   -3.7825    2.6676   -0.1975 H   0  0  0  0  0  0  0  0  0  0  0  0
   -5.6085   -1.8862    1.2532 H   0  0  0  0  0  0  0  0  0  0  0  0
   -2.9642   -2.3413    0.6677 H   0  0  0  0  0  0  0  0  0  0  0  0
   -0.8974   -1.5652    0.1875 H   0  0  0  0  0  0  0  0  0  0  0  0
    0.6673    0.3967   -1.3295 H   0  0  0  0  0  0  0  0  0  0  0  0
    3.6963   -1.7577    1.4103 H   0  0  0  0  0  0  0  0  0  0  0  0
    6.0102   -0.9082    1.2220 H   0  0  0  0  0  0  0  0  0  0  0  0
    6.5473    0.9121   -0.3809 H   0  0  0  0  0  0  0  0  0  0  0  0
    4.7431    1.8814   -1.7991 H   0  0  0  0  0  0  0  0  0  0  0  0
  1  2  1  0
  2  3  1  0
  3  4  1  0
  4  5  2  0
  5  6  1  0
  6  7  1  0
  7  8  2  0
  7  9  1  0
  9 10  1  0
 10 11  1  0
 11 12  2  0
 11 13  1  0
 13 14  2  0
 14 15  1  0
 15 16  2  0
 16 17  1  0
 17 18  2  0
 18 19  1  0
  6  2  2  0
 18 13  1  0
  1 20  1  0
  1 21  1  0
  1 22  1  0
  4 23  1  0
  5 24  1  0
  9 25  1  0
 10 26  1  0
 14 27  1  0
 15 28  1  0
 16 29  1  0
 17 30  1  0
M  END
$$$$
