
     RDKit          3D

 54 57  0  0  0  0  0  0  0  0999 V2000
    1.3839    1.0334    2.1055 O   0  0  0  0  0  0  0  0  0  0  0  0
    0.4718    0.2422    1.8790 C   0  0  0  0  0  0  0  0  0  0  0  0
   -0.6407    0.0106    2.9106 C   0  0  0  0  0  0  0  0  0  0  0  0
   -1.9325    0.4673    2.5055 O   0  0  0  0  0  0  0  0  0  0  0  0
   -2.6177   -0.3659    1.6874 C   0  0  0  0  0  0  0  0  0  0  0  0
   -2.1901   -1.4244    1.2494 O   0  0  0  0  0  0  0  0  0  0  0  0
   -3.9628    0.1822    1.3704 C   0  0  0  0  0  0  0  0  0  0  0  0
   -4.3968    1.4286    1.8467 C   0  0  0  0  0  0  0  0  0  0  0  0
   -5.6684    1.9038    1.5132 C   0  0  0  0  0  0  0  0  0  0  0  0
   -6.5057    1.1402    0.7031 C   0  0  0  0  0  0  0  0  0  0  0  0
   -6.0871   -0.1139    0.2480 C   0  0  0  0  0  0  0  0  0  0  0  0
   -4.8150   -0.5867    0.5665 C   0  0  0  0  0  0  0  0  0  0  0  0
   -6.8712   -0.9319   -0.5246 O   0  0  0  0  0  0  0  0  0  0  0  0
   -8.2415   -0.5140   -0.5065 C   0  0  0  0  0  0  0  0  0  0  0  0
   -8.3469    0.9906   -0.6936 C   0  0  0  0  0  0  0  0  0  0  0  0
   -7.7286    1.6798    0.3995 O   0  0  0  0  0  0  0  0  0  0  0  0
    0.3419   -0.5494    0.7514 N   0  0  0  0  0  0  0  0  0  0  0  0
    1.1656   -0.5689   -0.3895 C   0  0  0  0  0  0  0  0  0  0  0  0
    0.8978   -1.5523   -1.3519 C   0  0  0  0  0  0  0  0  0  0  0  0
    1.6720   -1.6515   -2.5111 C   0  0  0  0  0  0  0  0  0  0  0  0
    2.7276   -0.7683   -2.7185 C   0  0  0  0  0  0  0  0  0  0  0  0
    3.0009    0.2098   -1.7585 C   0  0  0  0  0  0  0  0  0  0  0  0
    4.3253    1.3689   -2.0335 S   0  0  0  0  0  6  0  0  0  0  0  0
    4.6922    1.2791   -3.4320 O   0  0  0  0  0  0  0  0  0  0  0  0
    3.9346    2.6317   -1.4457 O   0  0  0  0  0  0  0  0  0  0  0  0
    5.6028    0.7321   -1.1288 N   0  0  0  0  0  0  0  0  0  0  0  0
    5.5535    0.8892    0.3506 C   0  0  0  0  0  0  0  0  0  0  0  0
    6.7538    0.1766    0.9833 C   0  0  0  0  0  0  0  0  0  0  0  0
    6.7616   -1.2391    0.7410 O   0  0  0  0  0  0  0  0  0  0  0  0
    6.1198   -1.6131   -0.4859 C   0  0  0  0  0  0  0  0  0  0  0  0
    6.2219   -0.5444   -1.5790 C   0  0  0  0  0  0  0  0  0  0  0  0
    2.2086    0.3297   -0.6103 C   0  0  0  0  0  0  0  0  0  0  0  0
   -0.6644   -1.0483    3.1971 H   0  0  0  0  0  0  0  0  0  0  0  0
   -0.3762    0.5684    3.8160 H   0  0  0  0  0  0  0  0  0  0  0  0
   -3.7561    2.0461    2.4721 H   0  0  0  0  0  0  0  0  0  0  0  0
   -6.0001    2.8740    1.8744 H   0  0  0  0  0  0  0  0  0  0  0  0
   -4.4988   -1.5585    0.1941 H   0  0  0  0  0  0  0  0  0  0  0  0
   -8.6901   -0.8330    0.4425 H   0  0  0  0  0  0  0  0  0  0  0  0
   -8.7574   -1.0338   -1.3198 H   0  0  0  0  0  0  0  0  0  0  0  0
   -9.3975    1.2956   -0.7263 H   0  0  0  0  0  0  0  0  0  0  0  0
   -7.8674    1.3142   -1.6258 H   0  0  0  0  0  0  0  0  0  0  0  0
   -0.4399   -1.2076    0.7548 H   0  0  0  0  0  0  0  0  0  0  0  0
    0.0794   -2.2557   -1.2106 H   0  0  0  0  0  0  0  0  0  0  0  0
    1.4450   -2.4143   -3.2522 H   0  0  0  0  0  0  0  0  0  0  0  0
    3.3192   -0.8393   -3.6287 H   0  0  0  0  0  0  0  0  0  0  0  0
    5.5879    1.9531    0.6048 H   0  0  0  0  0  0  0  0  0  0  0  0
    4.6333    0.4514    0.7459 H   0  0  0  0  0  0  0  0  0  0  0  0
    6.7528    0.3229    2.0680 H   0  0  0  0  0  0  0  0  0  0  0  0
    7.6943    0.5865    0.5970 H   0  0  0  0  0  0  0  0  0  0  0  0
    5.0702   -1.8345   -0.2598 H   0  0  0  0  0  0  0  0  0  0  0  0
    6.5825   -2.5449   -0.8259 H   0  0  0  0  0  0  0  0  0  0  0  0
    5.7620   -0.9161   -2.4988 H   0  0  0  0  0  0  0  0  0  0  0  0
    7.2747   -0.3341   -1.8010 H   0  0  0  0  0  0  0  0  0  0  0  0
    2.4162    1.1358    0.0867 H   0  0  0  0  0  0  0  0  0  0  0  0
  1  2  2  0
  2  3  1  0
  3  4  1  0
  4  5  1  0
  5  6  2  0
  5  7  1  0
  7  8  2  0
  8  9  1  0
  9 10  2  0
 10 11  1  0
 11 12  2  0
 11 13  1  0
 13 14  1  0
 14 15  1  0
 15 16  1  0
  2 17  1  0
 17 18  1  0
 18 19  2  0
 19 20  1  0
 20 21  2  0
 21 22  1  0
 22 23  1  0
 23 24  2  0
 23 25  2  0
 23 26  1  0
 26 27  1  0
 27 28  1  0
 28 29  1  0
 29 30  1  0
 30 31  1  0
 22 32  2  0
 12  7  1  0
 32 18  1  0
 16 10  1  0
 31 26  1  0
  3 33  1  0
  3 34  1  0
  8 35  1  0
  9 36  1  0
 12 37  1  0
 14 38  1  0
 14 39  1  0
 15 40  1  0
 15 41  1  0
 17 42  1  0
 19 43  1  0
 20 44  1  0
 21 45  1  0
 27 46  1  0
 27 47  1  0
 28 48  1  0
 28 49  1  0
 30 50  1  0
 30 51  1  0
 31 52  1  0
 31 53  1  0
 32 54  1  0
M  END
$$$$
