
     RDKit          3D

 60 65  0  0  0  0  0  0  0  0999 V2000
    1.1850    2.6994    2.6285 O   0  0  0  0  0  0  0  0  0  0  0  0
    1.7244    1.8112    1.9809 C   0  0  0  0  0  0  0  0  0  0  0  0
    1.0345    1.0881    1.0141 N   0  0  0  0  0  0  0  0  0  0  0  0
    1.5897    0.0554    0.2645 C   0  0  0  0  0  0  0  0  0  0  0  0
    0.6688   -0.6273   -0.7370 C   0  0  0  0  0  0  0  0  0  0  0  0
    0.1726    0.3544   -1.8113 C   0  0  0  0  0  0  0  0  0  0  0  0
   -1.3479    0.4853   -1.8311 C   0  0  0  0  0  0  0  0  0  0  0  0
   -1.9417   -0.8547   -1.9674 N   0  0  0  0  0  0  0  0  0  0  0  0
   -3.5193   -0.9755   -2.5848 S   0  0  0  0  0  6  0  0  0  0  0  0
   -3.6409   -0.0554   -3.6946 O   0  0  0  0  0  0  0  0  0  0  0  0
   -3.8347   -2.3801   -2.7337 O   0  0  0  0  0  0  0  0  0  0  0  0
   -4.5130   -0.3326   -1.2543 C   0  0  0  0  0  0  0  0  0  0  0  0
   -4.8078    1.0362   -1.2101 C   0  0  0  0  0  0  0  0  0  0  0  0
   -5.6203    1.5342   -0.1899 C   0  0  0  0  0  0  0  0  0  0  0  0
   -6.1461    0.6647    0.7650 C   0  0  0  0  0  0  0  0  0  0  0  0
   -5.8395   -0.7008    0.7211 C   0  0  0  0  0  0  0  0  0  0  0  0
   -5.0420   -1.2080   -0.3019 C   0  0  0  0  0  0  0  0  0  0  0  0
   -6.2994   -1.6045    1.6442 O   0  0  0  0  0  0  0  0  0  0  0  0
   -6.8562   -0.9532    2.7937 C   0  0  0  0  0  0  0  0  0  0  0  0
   -7.7389    0.2126    2.3804 C   0  0  0  0  0  0  0  0  0  0  0  0
   -6.9610    1.2179    1.7184 O   0  0  0  0  0  0  0  0  0  0  0  0
   -1.5017   -1.8869   -1.0050 C   0  0  0  0  0  0  0  0  0  0  0  0
   -0.4778   -1.3426   -0.0160 C   0  0  0  0  0  0  0  0  0  0  0  0
    2.8263   -0.3478    0.3783 N   0  0  0  0  0  0  0  0  0  0  0  0
    3.5262    0.3553    1.3038 C   0  0  0  0  0  0  0  0  0  0  0  0
    3.0897    1.3825    2.1061 C   0  0  0  0  0  0  0  0  0  0  0  0
    4.0921    1.8203    2.9153 N   0  0  0  0  0  0  0  0  0  0  0  0
    5.1723    1.0886    2.6383 N   0  0  0  0  0  0  0  0  0  0  0  0
    4.8403    0.2186    1.6505 N   0  0  0  0  0  0  0  0  0  0  0  0
    5.8114   -0.7221    1.1289 C   0  0  0  0  0  0  0  0  0  0  0  0
    6.4824   -0.1873   -0.1141 C   0  0  0  0  0  0  0  0  0  0  0  0
    5.9927   -0.5205   -1.3884 C   0  0  0  0  0  0  0  0  0  0  0  0
    6.6009   -0.0077   -2.5344 C   0  0  0  0  0  0  0  0  0  0  0  0
    7.6937    0.8416   -2.4092 C   0  0  0  0  0  0  0  0  0  0  0  0
    8.2723    1.3359   -3.5102 F   0  0  0  0  0  0  0  0  0  0  0  0
    8.1901    1.1892   -1.1590 C   0  0  0  0  0  0  0  0  0  0  0  0
    7.5844    0.6778   -0.0106 C   0  0  0  0  0  0  0  0  0  0  0  0
    0.0722    1.3663    0.9001 H   0  0  0  0  0  0  0  0  0  0  0  0
    1.2720   -1.3914   -1.2478 H   0  0  0  0  0  0  0  0  0  0  0  0
    0.5007   -0.0188   -2.7911 H   0  0  0  0  0  0  0  0  0  0  0  0
    0.6259    1.3462   -1.7022 H   0  0  0  0  0  0  0  0  0  0  0  0
   -1.7059    0.9700   -0.9161 H   0  0  0  0  0  0  0  0  0  0  0  0
   -1.6262    1.1210   -2.6773 H   0  0  0  0  0  0  0  0  0  0  0  0
   -4.4257    1.7138   -1.9708 H   0  0  0  0  0  0  0  0  0  0  0  0
   -5.8646    2.5933   -0.1517 H   0  0  0  0  0  0  0  0  0  0  0  0
   -4.8417   -2.2753   -0.3491 H   0  0  0  0  0  0  0  0  0  0  0  0
   -7.4425   -1.6960    3.3437 H   0  0  0  0  0  0  0  0  0  0  0  0
   -6.0314   -0.6230    3.4379 H   0  0  0  0  0  0  0  0  0  0  0  0
   -8.5415   -0.1092    1.7060 H   0  0  0  0  0  0  0  0  0  0  0  0
   -8.1974    0.6729    3.2610 H   0  0  0  0  0  0  0  0  0  0  0  0
   -2.3453   -2.2928   -0.4426 H   0  0  0  0  0  0  0  0  0  0  0  0
   -1.0593   -2.7096   -1.5754 H   0  0  0  0  0  0  0  0  0  0  0  0
   -0.0790   -2.1626    0.5935 H   0  0  0  0  0  0  0  0  0  0  0  0
   -0.9823   -0.6672    0.6861 H   0  0  0  0  0  0  0  0  0  0  0  0
    5.2945   -1.6669    0.9248 H   0  0  0  0  0  0  0  0  0  0  0  0
    6.5504   -0.9256    1.9143 H   0  0  0  0  0  0  0  0  0  0  0  0
    5.1284   -1.1744   -1.4945 H   0  0  0  0  0  0  0  0  0  0  0  0
    6.2274   -0.2592   -3.5220 H   0  0  0  0  0  0  0  0  0  0  0  0
    9.0398    1.8604   -1.0845 H   0  0  0  0  0  0  0  0  0  0  0  0
    7.9701    0.9660    0.9660 H   0  0  0  0  0  0  0  0  0  0  0  0
  1  2  2  0
  2  3  1  0
  3  4  1  0
  4  5  1  0
  5  6  1  0
  6  7  1  0
  7  8  1  0
  8  9  1  0
  9 10  2  0
  9 11  2  0
  9 12  1  0
 12 13  2  0
 13 14  1  0
 14 15  2  0
 15 16  1  0
 16 17  2  0
 16 18  1  0
 18 19  1  0
 19 20  1  0
 20 21  1  0
  8 22  1  0
 22 23  1  0
  4 24  2  0
 24 25  1  0
 25 26  2  0
 26 27  1  0
 27 28  2  0
 28 29  1  0
 29 30  1  0
 30 31  1  0
 31 32  2  0
 32 33  1  0
 33 34  2  0
 34 35  1  0
 34 36  1  0
 36 37  2  0
 26  2  1  0
 37 31  1  0
 23  5  1  0
 29 25  1  0
 17 12  1  0
 21 15  1  0
  3 38  1  0
  5 39  1  0
  6 40  1  0
  6 41  1  0
  7 42  1  0
  7 43  1  0
 13 44  1  0
 14 45  1  0
 17 46  1  0
 19 47  1  0
 19 48  1  0
 20 49  1  0
 20 50  1  0
 22 51  1  0
 22 52  1  0
 23 53  1  0
 23 54  1  0
 30 55  1  0
 30 56  1  0
 32 57  1  0
 33 58  1  0
 36 59  1  0
 37 60  1  0
M  END
$$$$
