
     RDKit          3D

 53 56  0  0  0  0  0  0  0  0999 V2000
    8.3919    1.8649    0.8092 C   0  0  0  0  0  0  0  0  0  0  0  0
    7.1230    2.3475    0.3796 O   0  0  0  0  0  0  0  0  0  0  0  0
    6.1625    1.4073    0.1389 C   0  0  0  0  0  0  0  0  0  0  0  0
    4.9942    1.8959   -0.4521 C   0  0  0  0  0  0  0  0  0  0  0  0
    3.9297    1.0356   -0.7496 C   0  0  0  0  0  0  0  0  0  0  0  0
    4.0179   -0.3288   -0.4543 C   0  0  0  0  0  0  0  0  0  0  0  0
    2.9076   -1.1266   -0.7944 N   0  0  0  0  0  0  0  0  0  0  0  0
    2.7028   -2.4662   -0.5170 C   0  0  0  0  0  0  0  0  0  0  0  0
    3.4679   -3.2008    0.1062 O   0  0  0  0  0  0  0  0  0  0  0  0
    1.3995   -3.0133   -1.0937 C   0  0  0  0  0  0  0  0  0  0  0  0
   -0.0240   -2.5759   -0.0469 S   0  0  0  0  0  0  0  0  0  0  0  0
   -0.4202   -0.9939   -0.6448 C   0  0  0  0  0  0  0  0  0  0  0  0
    0.3426   -0.3169   -1.4713 N   0  0  0  0  0  0  0  0  0  0  0  0
   -0.1807    0.9358   -1.5993 N   0  0  0  0  0  0  0  0  0  0  0  0
   -1.2937    0.9984   -0.8869 C   0  0  0  0  0  0  0  0  0  0  0  0
   -2.2608    2.1405   -0.9354 C   0  0  0  0  0  0  0  0  0  0  0  0
   -3.4753    1.8392   -1.7759 C   0  0  0  0  0  0  0  0  0  0  0  0
   -4.7372    1.4497   -1.3656 C   0  0  0  0  0  0  0  0  0  0  0  0
   -5.6301    1.2561   -2.4614 C   0  0  0  0  0  0  0  0  0  0  0  0
   -5.0283    1.5206   -3.6719 C   0  0  0  0  0  0  0  0  0  0  0  0
   -3.3914    1.9767   -3.4874 S   0  0  0  0  0  0  0  0  0  0  0  0
   -1.4768   -0.2064   -0.2124 N   0  0  0  0  0  0  0  0  0  0  0  0
   -2.5123   -0.5350    0.7002 C   0  0  0  0  0  0  0  0  0  0  0  0
   -2.8431    0.3499    1.7315 C   0  0  0  0  0  0  0  0  0  0  0  0
   -3.8728    0.0300    2.6189 C   0  0  0  0  0  0  0  0  0  0  0  0
   -4.5867   -1.1651    2.4808 C   0  0  0  0  0  0  0  0  0  0  0  0
   -5.6752   -1.5118    3.4509 C   0  0  0  0  0  0  0  0  0  0  0  0
   -4.2358   -2.0535    1.4614 C   0  0  0  0  0  0  0  0  0  0  0  0
   -3.2037   -1.7433    0.5714 C   0  0  0  0  0  0  0  0  0  0  0  0
    5.1835   -0.8155    0.1415 C   0  0  0  0  0  0  0  0  0  0  0  0
    6.2508    0.0475    0.4361 C   0  0  0  0  0  0  0  0  0  0  0  0
    8.8195    1.1787    0.0791 H   0  0  0  0  0  0  0  0  0  0  0  0
    8.3240    1.4001    1.8022 H   0  0  0  0  0  0  0  0  0  0  0  0
    9.0630    2.7203    0.8926 H   0  0  0  0  0  0  0  0  0  0  0  0
    4.9083    2.9542   -0.6864 H   0  0  0  0  0  0  0  0  0  0  0  0
    3.0304    1.4518   -1.2065 H   0  0  0  0  0  0  0  0  0  0  0  0
    2.1320   -0.6307   -1.2311 H   0  0  0  0  0  0  0  0  0  0  0  0
    1.4775   -4.1069   -1.1244 H   0  0  0  0  0  0  0  0  0  0  0  0
    1.2682   -2.6820   -2.1288 H   0  0  0  0  0  0  0  0  0  0  0  0
   -2.5653    2.4520    0.0707 H   0  0  0  0  0  0  0  0  0  0  0  0
   -1.7428    3.0140   -1.3530 H   0  0  0  0  0  0  0  0  0  0  0  0
   -5.0134    1.3006   -0.3236 H   0  0  0  0  0  0  0  0  0  0  0  0
   -6.6658    0.9465   -2.3638 H   0  0  0  0  0  0  0  0  0  0  0  0
   -5.4663    1.4631   -4.6601 H   0  0  0  0  0  0  0  0  0  0  0  0
   -2.2858    1.2659    1.8992 H   0  0  0  0  0  0  0  0  0  0  0  0
   -4.1116    0.7143    3.4264 H   0  0  0  0  0  0  0  0  0  0  0  0
   -6.2841   -0.6289    3.6766 H   0  0  0  0  0  0  0  0  0  0  0  0
   -6.3467   -2.2747    3.0388 H   0  0  0  0  0  0  0  0  0  0  0  0
   -5.2409   -1.8938    4.3808 H   0  0  0  0  0  0  0  0  0  0  0  0
   -4.7664   -2.9956    1.3465 H   0  0  0  0  0  0  0  0  0  0  0  0
   -2.9864   -2.4445   -0.2312 H   0  0  0  0  0  0  0  0  0  0  0  0
    5.2988   -1.8665    0.3885 H   0  0  0  0  0  0  0  0  0  0  0  0
    7.1281   -0.3806    0.9019 H   0  0  0  0  0  0  0  0  0  0  0  0
  1  2  1  0
  2  3  1  0
  3  4  2  0
  4  5  1  0
  5  6  2  0
  6  7  1  0
  7  8  1  0
  8  9  2  0
  8 10  1  0
 10 11  1  0
 11 12  1  0
 12 13  2  0
 13 14  1  0
 14 15  2  0
 15 16  1  0
 16 17  1  0
 17 18  2  0
 18 19  1  0
 19 20  2  0
 20 21  1  0
 15 22  1  0
 22 23  1  0
 23 24  2  0
 24 25  1  0
 25 26  2  0
 26 27  1  0
 26 28  1  0
 28 29  2  0
  6 30  1  0
 30 31  2  0
 31  3  1  0
 22 12  1  0
 29 23  1  0
 21 17  1  0
  1 32  1  0
  1 33  1  0
  1 34  1  0
  4 35  1  0
  5 36  1  0
  7 37  1  0
 10 38  1  0
 10 39  1  0
 16 40  1  0
 16 41  1  0
 18 42  1  0
 19 43  1  0
 20 44  1  0
 24 45  1  0
 25 46  1  0
 27 47  1  0
 27 48  1  0
 27 49  1  0
 28 50  1  0
 29 51  1  0
 30 52  1  0
 31 53  1  0
M  END
$$$$
