
     RDKit          3D

 56 60  0  0  0  0  0  0  0  0999 V2000
   -1.8633   -1.8600    2.3267 C   0  0  0  0  0  0  0  0  0  0  0  0
   -3.1042   -1.7959    1.4762 C   0  0  0  0  0  0  0  0  0  0  0  0
   -4.0944   -2.7741    1.6622 C   0  0  0  0  0  0  0  0  0  0  0  0
   -5.2791   -2.7403    0.9273 C   0  0  0  0  0  0  0  0  0  0  0  0
   -5.5027   -1.7161    0.0090 C   0  0  0  0  0  0  0  0  0  0  0  0
   -4.5473   -0.7056   -0.1841 C   0  0  0  0  0  0  0  0  0  0  0  0
   -4.8435    0.3887   -1.1742 C   0  0  0  0  0  0  0  0  0  0  0  0
   -3.3316   -0.7620    0.5404 C   0  0  0  0  0  0  0  0  0  0  0  0
   -2.3429    0.2485    0.3445 N   0  0  0  0  0  0  0  0  0  0  0  0
   -1.4581    0.2242   -0.7296 C   0  0  0  0  0  0  0  0  0  0  0  0
   -1.4797   -1.1588   -1.8235 S   0  0  0  0  0  0  0  0  0  0  0  0
    0.2669   -1.1654   -2.3351 C   0  0  0  0  0  0  0  0  0  0  0  0
    1.2356   -1.2702   -1.1427 C   0  0  0  0  0  0  0  0  0  0  0  0
    0.8518   -1.8266   -0.1085 O   0  0  0  0  0  0  0  0  0  0  0  0
    2.5435   -0.7638   -1.3408 N   0  0  0  0  0  0  0  0  0  0  0  0
    2.8255    0.0437   -2.5338 C   0  0  0  0  0  0  0  0  0  0  0  0
    4.2119    0.6107   -2.7655 C   0  0  0  0  0  0  0  0  0  0  0  0
    4.4917    1.2690   -3.7665 O   0  0  0  0  0  0  0  0  0  0  0  0
    5.1402    0.3855   -1.8030 N   0  0  0  0  0  0  0  0  0  0  0  0
    4.8859   -0.3498   -0.6446 C   0  0  0  0  0  0  0  0  0  0  0  0
    5.9566   -0.4947    0.2516 C   0  0  0  0  0  0  0  0  0  0  0  0
    5.7955   -1.2200    1.4247 C   0  0  0  0  0  0  0  0  0  0  0  0
    4.5655   -1.8021    1.6976 C   0  0  0  0  0  0  0  0  0  0  0  0
    3.4954   -1.6556    0.8018 C   0  0  0  0  0  0  0  0  0  0  0  0
    3.6211   -0.9236   -0.3900 C   0  0  0  0  0  0  0  0  0  0  0  0
   -0.6038    1.1648   -0.9888 N   0  0  0  0  0  0  0  0  0  0  0  0
   -0.5349    2.2576   -0.1179 C   0  0  0  0  0  0  0  0  0  0  0  0
    0.3778    3.2805   -0.3923 C   0  0  0  0  0  0  0  0  0  0  0  0
    0.4885    4.3859    0.4580 C   0  0  0  0  0  0  0  0  0  0  0  0
   -0.3140    4.4752    1.5956 C   0  0  0  0  0  0  0  0  0  0  0  0
   -1.2314    3.4650    1.8761 C   0  0  0  0  0  0  0  0  0  0  0  0
   -1.3364    2.3622    1.0166 C   0  0  0  0  0  0  0  0  0  0  0  0
   -2.3151    1.2904    1.2743 C   0  0  0  0  0  0  0  0  0  0  0  0
   -3.0429    1.3890    2.2618 O   0  0  0  0  0  0  0  0  0  0  0  0
   -1.6287   -2.8989    2.5982 H   0  0  0  0  0  0  0  0  0  0  0  0
   -2.0166   -1.2839    3.2471 H   0  0  0  0  0  0  0  0  0  0  0  0
   -0.9866   -1.4669    1.8016 H   0  0  0  0  0  0  0  0  0  0  0  0
   -3.9459   -3.5730    2.3869 H   0  0  0  0  0  0  0  0  0  0  0  0
   -6.0348   -3.5095    1.0775 H   0  0  0  0  0  0  0  0  0  0  0  0
   -6.4386   -1.7037   -0.5478 H   0  0  0  0  0  0  0  0  0  0  0  0
   -4.5155    1.3629   -0.7995 H   0  0  0  0  0  0  0  0  0  0  0  0
   -5.9189    0.4737   -1.3624 H   0  0  0  0  0  0  0  0  0  0  0  0
   -4.3522    0.1811   -2.1275 H   0  0  0  0  0  0  0  0  0  0  0  0
    0.4167   -0.2734   -2.9412 H   0  0  0  0  0  0  0  0  0  0  0  0
    0.4360   -2.0398   -2.9710 H   0  0  0  0  0  0  0  0  0  0  0  0
    2.5901   -0.5714   -3.4133 H   0  0  0  0  0  0  0  0  0  0  0  0
    2.1496    0.9091   -2.5044 H   0  0  0  0  0  0  0  0  0  0  0  0
    6.0645    0.7610   -1.9789 H   0  0  0  0  0  0  0  0  0  0  0  0
    6.9246   -0.0450    0.0430 H   0  0  0  0  0  0  0  0  0  0  0  0
    6.6244   -1.3324    2.1205 H   0  0  0  0  0  0  0  0  0  0  0  0
    4.4255   -2.3751    2.6112 H   0  0  0  0  0  0  0  0  0  0  0  0
    2.5722   -2.1468    1.0914 H   0  0  0  0  0  0  0  0  0  0  0  0
    1.0042    3.2215   -1.2803 H   0  0  0  0  0  0  0  0  0  0  0  0
    1.1976    5.1795    0.2310 H   0  0  0  0  0  0  0  0  0  0  0  0
   -0.2300    5.3343    2.2581 H   0  0  0  0  0  0  0  0  0  0  0  0
   -1.8662    3.5406    2.7564 H   0  0  0  0  0  0  0  0  0  0  0  0
  1  2  1  0
  2  3  2  0
  3  4  1  0
  4  5  2  0
  5  6  1  0
  6  7  1  0
  6  8  2  0
  8  9  1  0
  9 10  1  0
 10 11  1  0
 11 12  1  0
 12 13  1  0
 13 14  2  0
 13 15  1  0
 15 16  1  0
 16 17  1  0
 17 18  2  0
 17 19  1  0
 19 20  1  0
 20 21  2  0
 21 22  1  0
 22 23  2  0
 23 24  1  0
 24 25  2  0
 10 26  2  0
 26 27  1  0
 27 28  2  0
 28 29  1  0
 29 30  2  0
 30 31  1  0
 31 32  2  0
 32 33  1  0
 33 34  2  0
  8  2  1  0
 33  9  1  0
 25 15  1  0
 32 27  1  0
 25 20  1  0
  1 35  1  0
  1 36  1  0
  1 37  1  0
  3 38  1  0
  4 39  1  0
  5 40  1  0
  7 41  1  0
  7 42  1  0
  7 43  1  0
 12 44  1  0
 12 45  1  0
 16 46  1  0
 16 47  1  0
 19 48  1  0
 21 49  1  0
 22 50  1  0
 23 51  1  0
 24 52  1  0
 28 53  1  0
 29 54  1  0
 30 55  1  0
 31 56  1  0
M  END
$$$$
