
     RDKit          3D

 71 77  0  0  0  0  0  0  0  0999 V2000
    6.7164    0.7233   -1.0909 C   0  0  0  0  0  0  0  0  0  0  0  0
    5.9111    0.9510    0.0557 O   0  0  0  0  0  0  0  0  0  0  0  0
    4.5309    0.6580   -0.1688 C   0  0  0  0  0  0  0  0  0  0  0  0
    4.1836   -0.8702   -0.1617 C   0  0  0  0  0  0  0  0  0  0  0  0
    5.0403   -1.7145    0.1225 O   0  0  0  0  0  0  0  0  0  0  0  0
    2.8912   -1.2638   -0.5101 N   0  0  0  0  0  0  0  0  0  0  0  0
    2.5227   -2.6807   -0.3679 C   0  0  0  0  0  0  0  0  0  0  0  0
    1.0706   -2.8411    0.1229 C   0  0  0  0  0  0  0  0  0  0  0  0
    0.1103   -2.2331   -0.7958 N   0  0  0  0  0  0  0  0  0  0  0  0
    0.6219   -1.0612   -1.5701 C   0  0  2  0  0  0  0  0  0  0  0  0
    1.8024   -0.3471   -0.8818 C   0  0  0  0  0  0  0  0  0  0  0  0
   -0.5881   -0.2214   -1.7139 C   0  0  0  0  0  0  0  0  0  0  0  0
   -1.6649   -0.7477   -1.0018 C   0  0  0  0  0  0  0  0  0  0  0  0
   -2.7510    0.0707   -1.1796 C   0  0  0  0  0  0  0  0  0  0  0  0
   -3.9992   -0.0735   -0.7402 O   0  0  0  0  0  0  0  0  0  0  0  0
   -2.3436    1.1505   -1.9989 N   0  0  0  0  0  0  0  0  0  0  0  0
   -3.1628    2.2609   -2.4111 C   0  0  0  0  0  0  0  0  0  0  0  0
   -4.2912    2.6362   -1.6667 C   0  0  0  0  0  0  0  0  0  0  0  0
   -5.0966    3.7066   -2.0704 C   0  0  0  0  0  0  0  0  0  0  0  0
   -4.7885    4.4162   -3.2267 C   0  0  0  0  0  0  0  0  0  0  0  0
   -3.6678    4.0636   -3.9699 C   0  0  0  0  0  0  0  0  0  0  0  0
   -2.8602    2.9933   -3.5682 C   0  0  0  0  0  0  0  0  0  0  0  0
   -0.9901    0.9264   -2.3447 C   0  0  0  0  0  0  0  0  0  0  0  0
   -0.2863    1.7566   -3.1108 O   0  0  0  0  0  0  0  0  0  0  0  0
   -1.2772   -1.9958   -0.3061 C   0  0  1  0  0  0  0  0  0  0  0  0
   -2.1958   -3.2075   -0.6115 C   0  0  0  0  0  0  0  0  0  0  0  0
   -2.3959   -3.7771   -1.6730 O   0  0  0  0  0  0  0  0  0  0  0  0
   -2.8048   -3.5626    0.5943 N   0  0  0  0  0  0  0  0  0  0  0  0
   -2.4135   -2.7338    1.6436 C   0  0  0  0  0  0  0  0  0  0  0  0
   -1.5148   -1.7646    1.1683 C   0  0  0  0  0  0  0  0  0  0  0  0
   -1.0142   -0.7943    2.0251 C   0  0  0  0  0  0  0  0  0  0  0  0
   -1.4189   -0.8217    3.3606 C   0  0  0  0  0  0  0  0  0  0  0  0
   -2.3130   -1.8064    3.8260 C   0  0  0  0  0  0  0  0  0  0  0  0
   -2.7629   -1.7398    5.4957 Cl  0  0  0  0  0  0  0  0  0  0  0  0
   -2.8279   -2.7980    2.9693 C   0  0  0  0  0  0  0  0  0  0  0  0
   -3.7958   -3.8355    3.4580 C   0  0  0  0  0  0  0  0  0  0  0  0
    3.7671    1.4184    0.9077 C   0  0  0  0  0  0  0  0  0  0  0  0
    3.0985    2.6127    0.5911 C   0  0  0  0  0  0  0  0  0  0  0  0
    2.3710    3.2977    1.5666 C   0  0  0  0  0  0  0  0  0  0  0  0
    2.3164    2.8091    2.8709 C   0  0  0  0  0  0  0  0  0  0  0  0
    2.9996    1.6422    3.2065 C   0  0  0  0  0  0  0  0  0  0  0  0
    3.7273    0.9539    2.2333 C   0  0  0  0  0  0  0  0  0  0  0  0
    6.6178   -0.3037   -1.4537 H   0  0  0  0  0  0  0  0  0  0  0  0
    7.7627    0.9002   -0.8200 H   0  0  0  0  0  0  0  0  0  0  0  0
    6.4445    1.4241   -1.8872 H   0  0  0  0  0  0  0  0  0  0  0  0
    4.2523    1.0501   -1.1557 H   0  0  0  0  0  0  0  0  0  0  0  0
    3.1989   -3.1852    0.3317 H   0  0  0  0  0  0  0  0  0  0  0  0
    2.6521   -3.1502   -1.3518 H   0  0  0  0  0  0  0  0  0  0  0  0
    1.0256   -2.3855    1.1189 H   0  0  0  0  0  0  0  0  0  0  0  0
    0.8404   -3.9066    0.2380 H   0  0  0  0  0  0  0  0  0  0  0  0
    0.9423   -1.4251   -2.5545 H   0  0  0  0  0  0  0  0  0  0  0  0
    2.1929    0.4378   -1.5368 H   0  0  0  0  0  0  0  0  0  0  0  0
    1.4610    0.1309    0.0427 H   0  0  0  0  0  0  0  0  0  0  0  0
   -4.0699   -0.9269   -0.2778 H   0  0  0  0  0  0  0  0  0  0  0  0
   -4.5589    2.1350   -0.7417 H   0  0  0  0  0  0  0  0  0  0  0  0
   -5.9688    3.9740   -1.4839 H   0  0  0  0  0  0  0  0  0  0  0  0
   -5.4182    5.2429   -3.5421 H   0  0  0  0  0  0  0  0  0  0  0  0
   -3.4226    4.6125   -4.8750 H   0  0  0  0  0  0  0  0  0  0  0  0
   -2.0219    2.7357   -4.2059 H   0  0  0  0  0  0  0  0  0  0  0  0
    0.5612    1.3311   -3.3257 H   0  0  0  0  0  0  0  0  0  0  0  0
   -3.4420   -4.3435    0.6528 H   0  0  0  0  0  0  0  0  0  0  0  0
   -0.3300   -0.0259    1.6757 H   0  0  0  0  0  0  0  0  0  0  0  0
   -1.0384   -0.0663    4.0458 H   0  0  0  0  0  0  0  0  0  0  0  0
   -3.4126   -4.3253    4.3595 H   0  0  0  0  0  0  0  0  0  0  0  0
   -3.9621   -4.6292    2.7224 H   0  0  0  0  0  0  0  0  0  0  0  0
   -4.7640   -3.3738    3.6778 H   0  0  0  0  0  0  0  0  0  0  0  0
    3.1421    3.0202   -0.4172 H   0  0  0  0  0  0  0  0  0  0  0  0
    1.8542    4.2200    1.3129 H   0  0  0  0  0  0  0  0  0  0  0  0
    1.7563    3.3495    3.6299 H   0  0  0  0  0  0  0  0  0  0  0  0
    2.9753    1.2723    4.2287 H   0  0  0  0  0  0  0  0  0  0  0  0
    4.2737    0.0548    2.5149 H   0  0  0  0  0  0  0  0  0  0  0  0
  1  2  1  0
  2  3  1  0
  3  4  1  0
  4  5  2  0
  4  6  1  0
  6  7  1  0
  7  8  1  0
  8  9  1  0
  9 10  1  0
 10 11  1  0
 10 12  1  0
 12 13  1  0
 13 14  2  0
 14 15  1  0
 14 16  1  0
 16 17  1  0
 17 18  2  0
 18 19  1  0
 19 20  2  0
 20 21  1  0
 21 22  2  0
 16 23  1  0
 23 24  1  0
 13 25  1  0
 25 26  1  0
 26 27  2  0
 26 28  1  0
 28 29  1  0
 29 30  2  0
 30 31  1  0
 31 32  2  0
 32 33  1  0
 33 34  1  0
 33 35  2  0
 35 36  1  0
  3 37  1  0
 37 38  2  0
 38 39  1  0
 39 40  2  0
 40 41  1  0
 41 42  2  0
 11  6  1  0
 23 12  2  0
 30 25  1  0
 42 37  1  0
 25  9  1  1
 35 29  1  0
 22 17  1  0
  1 43  1  0
  1 44  1  0
  1 45  1  0
  3 46  1  0
  7 47  1  0
  7 48  1  0
  8 49  1  0
  8 50  1  0
 10 51  1  6
 11 52  1  0
 11 53  1  0
 15 54  1  0
 18 55  1  0
 19 56  1  0
 20 57  1  0
 21 58  1  0
 22 59  1  0
 24 60  1  0
 28 61  1  0
 31 62  1  0
 32 63  1  0
 36 64  1  0
 36 65  1  0
 36 66  1  0
 38 67  1  0
 39 68  1  0
 40 69  1  0
 41 70  1  0
 42 71  1  0
M  END
$$$$
