
     RDKit          3D

 25 26  0  0  0  0  0  0  0  0999 V2000
    5.7025    0.0748   -0.4800 O   0  0  0  0  0  0  0  0  0  0  0  0
    4.8953    0.2179    0.4485 N   0  0  0  0  0  4  0  0  0  0  0  0
    5.1989    0.5663    1.5980 O   0  0  0  0  0  1  0  0  0  0  0  0
    3.4906   -0.0392    0.1707 C   0  0  0  0  0  0  0  0  0  0  0  0
    2.5235    0.0849    1.1649 C   0  0  0  0  0  0  0  0  0  0  0  0
    1.1917   -0.1761    0.8367 C   0  0  0  0  0  0  0  0  0  0  0  0
    0.8579   -0.5392   -0.4673 C   0  0  0  0  0  0  0  0  0  0  0  0
   -0.4483   -0.8403   -0.8523 N   0  0  0  0  0  0  0  0  0  0  0  0
   -1.6856   -0.2833   -0.4808 C   0  0  0  0  0  0  0  0  0  0  0  0
   -1.8181    0.9277    0.2074 C   0  0  0  0  0  0  0  0  0  0  0  0
   -3.0786    1.4162    0.5671 C   0  0  0  0  0  0  0  0  0  0  0  0
   -4.2260    0.6959    0.2462 C   0  0  0  0  0  0  0  0  0  0  0  0
   -4.1140   -0.5109   -0.4374 C   0  0  0  0  0  0  0  0  0  0  0  0
   -2.8532   -0.9943   -0.7966 C   0  0  0  0  0  0  0  0  0  0  0  0
    1.8019   -0.6816   -1.4256 N   0  0  0  0  0  0  0  0  0  0  0  0
    3.0943   -0.4240   -1.0979 C   0  0  0  0  0  0  0  0  0  0  0  0
    2.7811    0.3670    2.1826 H   0  0  0  0  0  0  0  0  0  0  0  0
    0.4280   -0.1221    1.6065 H   0  0  0  0  0  0  0  0  0  0  0  0
   -0.4339   -1.1380   -1.8240 H   0  0  0  0  0  0  0  0  0  0  0  0
   -0.9482    1.5317    0.4465 H   0  0  0  0  0  0  0  0  0  0  0  0
   -3.1620    2.3640    1.0927 H   0  0  0  0  0  0  0  0  0  0  0  0
   -5.2051    1.0758    0.5260 H   0  0  0  0  0  0  0  0  0  0  0  0
   -5.0052   -1.0797   -0.6891 H   0  0  0  0  0  0  0  0  0  0  0  0
   -2.7846   -1.9460   -1.3187 H   0  0  0  0  0  0  0  0  0  0  0  0
    3.7973   -0.5476   -1.9180 H   0  0  0  0  0  0  0  0  0  0  0  0
  1  2  2  0
  2  3  1  0
  2  4  1  0
  4  5  2  0
  5  6  1  0
  6  7  2  0
  7  8  1  0
  8  9  1  0
  9 10  2  0
 10 11  1  0
 11 12  2  0
 12 13  1  0
 13 14  2  0
  7 15  1  0
 15 16  2  0
 16  4  1  0
 14  9  1  0
  5 17  1  0
  6 18  1  0
  8 19  1  0
 10 20  1  0
 11 21  1  0
 12 22  1  0
 13 23  1  0
 14 24  1  0
 16 25  1  0
M  CHG  2   2   1   3  -1
M  END
$$$$
