
     RDKit          3D

 43 45  0  0  0  0  0  0  0  0999 V2000
    4.8424    4.8231    0.0882 C   0  0  0  0  0  0  0  0  0  0  0  0
    4.7632    3.6762    0.9222 O   0  0  0  0  0  0  0  0  0  0  0  0
    3.6872    2.8400    0.7666 C   0  0  0  0  0  0  0  0  0  0  0  0
    2.6465    3.0503   -0.1411 C   0  0  0  0  0  0  0  0  0  0  0  0
    1.5875    2.1405   -0.2292 C   0  0  0  0  0  0  0  0  0  0  0  0
    1.5571    1.0011    0.5813 C   0  0  0  0  0  0  0  0  0  0  0  0
    0.4493    0.0327    0.5430 C   0  0  0  0  0  0  0  0  0  0  0  0
   -0.2072   -0.3113   -0.5770 C   0  0  0  0  0  0  0  0  0  0  0  0
   -1.2868   -1.3056   -0.5749 C   0  0  0  0  0  0  0  0  0  0  0  0
   -0.9563   -2.6380   -0.3191 C   0  0  0  0  0  0  0  0  0  0  0  0
   -1.9346   -3.6150   -0.3455 C   0  0  0  0  0  0  0  0  0  0  0  0
   -3.2452   -3.2600   -0.6409 C   0  0  0  0  0  0  0  0  0  0  0  0
   -4.2431   -4.2450   -0.6827 C   0  0  0  0  0  0  0  0  0  0  0  0
   -5.5603   -3.9086   -0.9843 C   0  0  0  0  0  0  0  0  0  0  0  0
   -5.8937   -2.5867   -1.2487 C   0  0  0  0  0  0  0  0  0  0  0  0
   -4.9099   -1.5934   -1.2096 C   0  0  0  0  0  0  0  0  0  0  0  0
   -3.5687   -1.9009   -0.9025 C   0  0  0  0  0  0  0  0  0  0  0  0
   -2.5754   -0.9512   -0.8498 N   0  0  0  0  0  4  0  0  0  0  0  0
   -2.9272    0.4726   -1.0688 C   0  0  0  0  0  0  0  0  0  0  0  0
    2.5943    0.7998    1.5042 C   0  0  0  0  0  0  0  0  0  0  0  0
    3.6598    1.7050    1.5998 C   0  0  0  0  0  0  0  0  0  0  0  0
    4.7141    1.5740    2.4685 O   0  0  0  0  0  0  0  0  0  0  0  0
    4.7397    0.4446    3.3283 C   0  0  0  0  0  0  0  0  0  0  0  0
    5.7627    5.3584    0.3413 H   0  0  0  0  0  0  0  0  0  0  0  0
    4.9015    4.5404   -0.9679 H   0  0  0  0  0  0  0  0  0  0  0  0
    4.0023    5.5014    0.2702 H   0  0  0  0  0  0  0  0  0  0  0  0
    2.6284    3.9189   -0.7916 H   0  0  0  0  0  0  0  0  0  0  0  0
    0.7903    2.3529   -0.9357 H   0  0  0  0  0  0  0  0  0  0  0  0
    0.2023   -0.4225    1.5021 H   0  0  0  0  0  0  0  0  0  0  0  0
    0.0488    0.1115   -1.5453 H   0  0  0  0  0  0  0  0  0  0  0  0
    0.0739   -2.9230   -0.1070 H   0  0  0  0  0  0  0  0  0  0  0  0
   -1.6617   -4.6508   -0.1448 H   0  0  0  0  0  0  0  0  0  0  0  0
   -4.0074   -5.2905   -0.4824 H   0  0  0  0  0  0  0  0  0  0  0  0
   -6.3269   -4.6819   -1.0149 H   0  0  0  0  0  0  0  0  0  0  0  0
   -6.9249   -2.3289   -1.4877 H   0  0  0  0  0  0  0  0  0  0  0  0
   -5.2383   -0.5822   -1.4320 H   0  0  0  0  0  0  0  0  0  0  0  0
   -3.7169    0.7407   -0.3611 H   0  0  0  0  0  0  0  0  0  0  0  0
   -2.0867    1.1433   -0.8952 H   0  0  0  0  0  0  0  0  0  0  0  0
   -3.2598    0.5780   -2.1052 H   0  0  0  0  0  0  0  0  0  0  0  0
    2.5637   -0.0777    2.1422 H   0  0  0  0  0  0  0  0  0  0  0  0
    5.6456    0.5084    3.9387 H   0  0  0  0  0  0  0  0  0  0  0  0
    4.7897   -0.4868    2.7549 H   0  0  0  0  0  0  0  0  0  0  0  0
    3.8805    0.4460    4.0069 H   0  0  0  0  0  0  0  0  0  0  0  0
  1  2  1  0
  2  3  1  0
  3  4  2  0
  4  5  1  0
  5  6  2  0
  6  7  1  0
  7  8  2  3
  8  9  1  0
  9 10  2  0
 10 11  1  0
 11 12  2  0
 12 13  1  0
 13 14  2  0
 14 15  1  0
 15 16  2  0
 16 17  1  0
 17 18  2  0
 18 19  1  0
  6 20  1  0
 20 21  2  0
 21 22  1  0
 22 23  1  0
 21  3  1  0
 18  9  1  0
 17 12  1  0
  1 24  1  0
  1 25  1  0
  1 26  1  0
  4 27  1  0
  5 28  1  0
  7 29  1  0
  8 30  1  0
 10 31  1  0
 11 32  1  0
 13 33  1  0
 14 34  1  0
 15 35  1  0
 16 36  1  0
 19 37  1  0
 19 38  1  0
 19 39  1  0
 20 40  1  0
 23 41  1  0
 23 42  1  0
 23 43  1  0
M  CHG  1  18   1
M  END
$$$$
