
     RDKit          3D

 32 32  0  0  0  0  0  0  0  0999 V2000
   -0.1399   -0.2391   -4.6107 C   0  0  0  0  0  0  0  0  0  0  0  0
   -0.9105    0.4857   -4.0413 C   0  0  0  0  0  0  0  0  0  0  0  0
   -1.8578    1.3748   -3.3507 C   0  0  0  0  0  0  0  0  0  0  0  0
   -1.1697    2.2669   -2.4027 N   0  0  0  0  0  0  0  0  0  0  0  0
   -1.8920    3.5397   -2.3073 C   0  0  0  0  0  0  0  0  0  0  0  0
   -1.0251    1.6854   -1.0544 C   0  0  0  0  0  0  0  0  0  0  0  0
   -0.1300    0.4459   -0.9768 C   0  0  0  0  0  0  0  0  0  0  0  0
    0.1231    0.0404    0.4745 C   0  0  0  0  0  0  0  0  0  0  0  0
    0.9245   -1.1406    0.4684 O   0  0  0  0  0  0  0  0  0  0  0  0
    1.2739   -1.6911    1.6737 C   0  0  0  0  0  0  0  0  0  0  0  0
    0.9141   -1.1657    2.9195 C   0  0  0  0  0  0  0  0  0  0  0  0
    1.3224   -1.8040    4.0939 C   0  0  0  0  0  0  0  0  0  0  0  0
    0.8713   -1.1462    5.6197 Cl  0  0  0  0  0  0  0  0  0  0  0  0
    2.0893   -2.9655    4.0466 C   0  0  0  0  0  0  0  0  0  0  0  0
    2.4537   -3.4973    2.8107 C   0  0  0  0  0  0  0  0  0  0  0  0
    2.0486   -2.8641    1.6314 C   0  0  0  0  0  0  0  0  0  0  0  0
    2.5306   -3.5730    0.1292 Cl  0  0  0  0  0  0  0  0  0  0  0  0
    0.5530   -0.8785   -5.1068 H   0  0  0  0  0  0  0  0  0  0  0  0
   -2.3532    1.9630   -4.1351 H   0  0  0  0  0  0  0  0  0  0  0  0
   -2.6512    0.7997   -2.8578 H   0  0  0  0  0  0  0  0  0  0  0  0
   -1.9367    4.0338   -3.2846 H   0  0  0  0  0  0  0  0  0  0  0  0
   -1.3705    4.2333   -1.6380 H   0  0  0  0  0  0  0  0  0  0  0  0
   -2.9154    3.4056   -1.9383 H   0  0  0  0  0  0  0  0  0  0  0  0
   -2.0110    1.4504   -0.6312 H   0  0  0  0  0  0  0  0  0  0  0  0
   -0.5789    2.4473   -0.4011 H   0  0  0  0  0  0  0  0  0  0  0  0
    0.8324    0.6325   -1.4695 H   0  0  0  0  0  0  0  0  0  0  0  0
   -0.5889   -0.4030   -1.4959 H   0  0  0  0  0  0  0  0  0  0  0  0
    0.6519    0.8493    0.9925 H   0  0  0  0  0  0  0  0  0  0  0  0
   -0.8346   -0.1605    0.9696 H   0  0  0  0  0  0  0  0  0  0  0  0
    0.3193   -0.2629    3.0057 H   0  0  0  0  0  0  0  0  0  0  0  0
    2.4049   -3.4585    4.9623 H   0  0  0  0  0  0  0  0  0  0  0  0
    3.0525   -4.4038    2.7698 H   0  0  0  0  0  0  0  0  0  0  0  0
  1  2  3  0
  2  3  1  0
  3  4  1  0
  4  5  1  0
  4  6  1  0
  6  7  1  0
  7  8  1  0
  8  9  1  0
  9 10  1  0
 10 11  2  0
 11 12  1  0
 12 13  1  0
 12 14  2  0
 14 15  1  0
 15 16  2  0
 16 17  1  0
 16 10  1  0
  1 18  1  0
  3 19  1  0
  3 20  1  0
  5 21  1  0
  5 22  1  0
  5 23  1  0
  6 24  1  0
  6 25  1  0
  7 26  1  0
  7 27  1  0
  8 28  1  0
  8 29  1  0
 11 30  1  0
 14 31  1  0
 15 32  1  0
M  END
$$$$
