
     RDKit          3D

 50 52  0  0  0  0  0  0  0  0999 V2000
    6.6353    3.7776    0.6551 C   0  0  0  0  0  0  0  0  0  0  0  0
    6.3948    2.7907   -0.3390 O   0  0  0  0  0  0  0  0  0  0  0  0
    5.2336    2.0776   -0.2324 C   0  0  0  0  0  0  0  0  0  0  0  0
    5.0038    1.1729   -1.2707 C   0  0  0  0  0  0  0  0  0  0  0  0
    3.8518    0.3775   -1.2901 C   0  0  0  0  0  0  0  0  0  0  0  0
    2.9160    0.4709   -0.2605 C   0  0  0  0  0  0  0  0  0  0  0  0
    1.7309   -0.2851   -0.1929 N   0  0  0  0  0  0  0  0  0  0  0  0
    1.2673   -1.2410   -1.0827 C   0  0  0  0  0  0  0  0  0  0  0  0
    1.9006   -1.6483   -2.0511 O   0  0  0  0  0  0  0  0  0  0  0  0
   -0.1023   -1.8801   -0.6607 C   0  0  0  0  0  0  0  0  0  0  0  0
   -1.1170   -0.9311   -0.1757 N   0  0  0  0  0  0  0  0  0  0  0  0
   -1.1032   -0.4179    1.0960 C   0  0  0  0  0  0  0  0  0  0  0  0
   -0.1200   -0.4975    1.8216 O   0  0  0  0  0  0  0  0  0  0  0  0
   -2.3418    0.2614    1.5615 C   0  0  0  0  0  0  0  0  0  0  0  0
   -3.2132    0.9041    0.6739 C   0  0  0  0  0  0  0  0  0  0  0  0
   -4.3703    1.5214    1.1570 C   0  0  0  0  0  0  0  0  0  0  0  0
   -4.6690    1.5007    2.5264 C   0  0  0  0  0  0  0  0  0  0  0  0
   -5.8979    2.1841    3.0493 C   0  0  0  0  0  0  0  0  0  0  0  0
   -3.7756    0.8853    3.4131 C   0  0  0  0  0  0  0  0  0  0  0  0
   -2.6181    0.2688    2.9343 C   0  0  0  0  0  0  0  0  0  0  0  0
   -0.7369   -2.6946   -1.7837 C   0  0  0  0  0  0  0  0  0  0  0  0
   -1.0390   -2.0990   -3.0221 C   0  0  0  0  0  0  0  0  0  0  0  0
   -1.6671   -2.8309   -4.0295 C   0  0  0  0  0  0  0  0  0  0  0  0
   -2.0078   -4.1643   -3.8131 C   0  0  0  0  0  0  0  0  0  0  0  0
   -1.7183   -4.7673   -2.5892 C   0  0  0  0  0  0  0  0  0  0  0  0
   -1.0892   -4.0379   -1.5781 C   0  0  0  0  0  0  0  0  0  0  0  0
    3.1512    1.3749    0.7856 C   0  0  0  0  0  0  0  0  0  0  0  0
    4.3002    2.1760    0.7999 C   0  0  0  0  0  0  0  0  0  0  0  0
    7.5787    4.2733    0.4061 H   0  0  0  0  0  0  0  0  0  0  0  0
    5.8459    4.5413    0.6590 H   0  0  0  0  0  0  0  0  0  0  0  0
    6.7492    3.3203    1.6472 H   0  0  0  0  0  0  0  0  0  0  0  0
    5.7283    1.0810   -2.0777 H   0  0  0  0  0  0  0  0  0  0  0  0
    3.7267   -0.3090   -2.1192 H   0  0  0  0  0  0  0  0  0  0  0  0
    1.1731   -0.1651    0.6525 H   0  0  0  0  0  0  0  0  0  0  0  0
    0.1392   -2.5508    0.1752 H   0  0  0  0  0  0  0  0  0  0  0  0
   -2.0171   -0.9998   -0.6375 H   0  0  0  0  0  0  0  0  0  0  0  0
   -2.9977    0.9597   -0.3904 H   0  0  0  0  0  0  0  0  0  0  0  0
   -5.0360    2.0239    0.4583 H   0  0  0  0  0  0  0  0  0  0  0  0
   -6.6650    2.2618    2.2726 H   0  0  0  0  0  0  0  0  0  0  0  0
   -6.3321    1.6151    3.8774 H   0  0  0  0  0  0  0  0  0  0  0  0
   -5.6481    3.1893    3.3982 H   0  0  0  0  0  0  0  0  0  0  0  0
   -3.9759    0.8825    4.4844 H   0  0  0  0  0  0  0  0  0  0  0  0
   -1.9354   -0.2078    3.6361 H   0  0  0  0  0  0  0  0  0  0  0  0
   -0.7703   -1.0604   -3.2121 H   0  0  0  0  0  0  0  0  0  0  0  0
   -1.8831   -2.3619   -4.9872 H   0  0  0  0  0  0  0  0  0  0  0  0
   -2.4925   -4.7359   -4.6002 H   0  0  0  0  0  0  0  0  0  0  0  0
   -1.9806   -5.8096   -2.4248 H   0  0  0  0  0  0  0  0  0  0  0  0
   -0.8752   -4.5285   -0.6297 H   0  0  0  0  0  0  0  0  0  0  0  0
    2.4380    1.4711    1.6055 H   0  0  0  0  0  0  0  0  0  0  0  0
    4.4312    2.8601    1.6325 H   0  0  0  0  0  0  0  0  0  0  0  0
  1  2  1  0
  2  3  1  0
  3  4  2  0
  4  5  1  0
  5  6  2  0
  6  7  1  0
  7  8  1  0
  8  9  2  0
  8 10  1  0
 10 11  1  0
 11 12  1  0
 12 13  2  0
 12 14  1  0
 14 15  2  0
 15 16  1  0
 16 17  2  0
 17 18  1  0
 17 19  1  0
 19 20  2  0
 10 21  1  0
 21 22  2  0
 22 23  1  0
 23 24  2  0
 24 25  1  0
 25 26  2  0
  6 27  1  0
 27 28  2  0
 28  3  1  0
 20 14  1  0
 26 21  1  0
  1 29  1  0
  1 30  1  0
  1 31  1  0
  4 32  1  0
  5 33  1  0
  7 34  1  0
 10 35  1  0
 11 36  1  0
 15 37  1  0
 16 38  1  0
 18 39  1  0
 18 40  1  0
 18 41  1  0
 19 42  1  0
 20 43  1  0
 22 44  1  0
 23 45  1  0
 24 46  1  0
 25 47  1  0
 26 48  1  0
 27 49  1  0
 28 50  1  0
M  END
$$$$
