
     RDKit          3D

 60 63  0  0  0  0  0  0  0  0999 V2000
   -0.4416    1.2485    4.8298 C   0  0  0  0  0  0  0  0  0  0  0  0
   -1.6731    1.7130    4.5961 C   0  0  0  0  0  0  0  0  0  0  0  0
   -2.0436    2.6223    3.4565 C   0  0  0  0  0  0  0  0  0  0  0  0
   -2.8655    1.8831    2.5061 N   0  0  0  0  0  0  0  0  0  0  0  0
   -4.2392    1.8329    2.6856 C   0  0  0  0  0  0  0  0  0  0  0  0
   -4.8196    2.4053    3.6055 O   0  0  0  0  0  0  0  0  0  0  0  0
   -5.0412    1.0372    1.7108 C   0  0  0  0  0  0  0  0  0  0  0  0
   -6.4319    0.9857    1.8831 C   0  0  0  0  0  0  0  0  0  0  0  0
   -7.2200    0.2515    1.0021 C   0  0  0  0  0  0  0  0  0  0  0  0
   -6.6223   -0.4326   -0.0521 C   0  0  0  0  0  0  0  0  0  0  0  0
   -5.2376   -0.3891   -0.2339 C   0  0  0  0  0  0  0  0  0  0  0  0
   -4.4375    0.3462    0.6468 C   0  0  0  0  0  0  0  0  0  0  0  0
   -3.0322    0.4536    0.5416 N   0  0  0  0  0  0  0  0  0  0  0  0
   -2.0767   -0.0373   -0.3296 C   0  0  0  0  0  0  0  0  0  0  0  0
   -2.3025   -1.1088   -1.6693 S   0  0  0  0  0  0  0  0  0  0  0  0
   -2.0299    0.0138   -3.0689 C   0  0  0  0  0  0  0  0  0  0  0  0
   -0.6181    0.5624   -3.2443 C   0  0  0  0  0  0  0  0  0  0  0  0
   -0.4693    1.5615   -3.9467 O   0  0  0  0  0  0  0  0  0  0  0  0
    0.3762   -0.1621   -2.6244 N   0  0  0  0  0  0  0  0  0  0  0  0
    1.7258    0.1541   -2.5328 C   0  0  0  0  0  0  0  0  0  0  0  0
    2.4142    1.3474   -3.5082 S   0  0  0  0  0  0  0  0  0  0  0  0
    3.9580    1.1412   -2.8256 C   0  0  0  0  0  0  0  0  0  0  0  0
    5.0886    1.9882   -3.3158 C   0  0  0  0  0  0  0  0  0  0  0  0
    3.9711    0.1634   -1.8388 C   0  0  0  0  0  0  0  0  0  0  0  0
    5.2143   -0.2132   -1.0662 C   0  0  0  0  0  0  0  0  0  0  0  0
    5.8391   -1.5091   -1.5620 C   0  0  0  0  0  0  0  0  0  0  0  0
    2.6482   -0.4371   -1.6770 C   0  0  0  0  0  0  0  0  0  0  0  0
    2.2414   -1.5116   -0.7618 C   0  0  0  0  0  0  0  0  0  0  0  0
    1.2085   -2.1584   -0.9168 O   0  0  0  0  0  0  0  0  0  0  0  0
    3.1159   -1.7171    0.2650 O   0  0  0  0  0  0  0  0  0  0  0  0
    2.7640   -2.7518    1.1933 C   0  0  0  0  0  0  0  0  0  0  0  0
    3.2687   -4.0923    0.6987 C   0  0  0  0  0  0  0  0  0  0  0  0
   -0.8821    0.3802    0.0226 N   0  0  0  0  0  0  0  0  0  0  0  0
   -1.0190    1.1602    1.1325 N   0  0  0  0  0  0  0  0  0  0  0  0
   -2.2960    1.2014    1.4448 C   0  0  0  0  0  0  0  0  0  0  0  0
   -0.2437    0.6008    5.6770 H   0  0  0  0  0  0  0  0  0  0  0  0
    0.3908    1.4925    4.1774 H   0  0  0  0  0  0  0  0  0  0  0  0
   -2.4780    1.4432    5.2753 H   0  0  0  0  0  0  0  0  0  0  0  0
   -2.6052    3.4801    3.8461 H   0  0  0  0  0  0  0  0  0  0  0  0
   -1.1581    3.0238    2.9469 H   0  0  0  0  0  0  0  0  0  0  0  0
   -6.9050    1.5172    2.7079 H   0  0  0  0  0  0  0  0  0  0  0  0
   -8.2964    0.2103    1.1415 H   0  0  0  0  0  0  0  0  0  0  0  0
   -7.2393   -1.0115   -0.7373 H   0  0  0  0  0  0  0  0  0  0  0  0
   -4.8468   -0.9504   -1.0719 H   0  0  0  0  0  0  0  0  0  0  0  0
   -2.7160    0.8622   -2.9703 H   0  0  0  0  0  0  0  0  0  0  0  0
   -2.2872   -0.5261   -3.9872 H   0  0  0  0  0  0  0  0  0  0  0  0
    0.0746   -0.9064   -1.9939 H   0  0  0  0  0  0  0  0  0  0  0  0
    5.9728    1.3707   -3.5140 H   0  0  0  0  0  0  0  0  0  0  0  0
    5.3504    2.7361   -2.5587 H   0  0  0  0  0  0  0  0  0  0  0  0
    4.8445    2.5169   -4.2444 H   0  0  0  0  0  0  0  0  0  0  0  0
    5.9630    0.5852   -1.1472 H   0  0  0  0  0  0  0  0  0  0  0  0
    4.9896   -0.2807    0.0040 H   0  0  0  0  0  0  0  0  0  0  0  0
    6.1579   -1.4144   -2.6054 H   0  0  0  0  0  0  0  0  0  0  0  0
    6.7161   -1.7598   -0.9589 H   0  0  0  0  0  0  0  0  0  0  0  0
    5.1376   -2.3472   -1.5025 H   0  0  0  0  0  0  0  0  0  0  0  0
    3.2468   -2.5045    2.1418 H   0  0  0  0  0  0  0  0  0  0  0  0
    1.6858   -2.7762    1.3793 H   0  0  0  0  0  0  0  0  0  0  0  0
    3.0612   -4.8811    1.4289 H   0  0  0  0  0  0  0  0  0  0  0  0
    2.7988   -4.3649   -0.2478 H   0  0  0  0  0  0  0  0  0  0  0  0
    4.3505   -4.0487    0.5215 H   0  0  0  0  0  0  0  0  0  0  0  0
  1  2  2  0
  2  3  1  0
  3  4  1  0
  4  5  1  0
  5  6  2  0
  5  7  1  0
  7  8  2  0
  8  9  1  0
  9 10  2  0
 10 11  1  0
 11 12  2  0
 12 13  1  0
 13 14  1  0
 14 15  1  0
 15 16  1  0
 16 17  1  0
 17 18  2  0
 17 19  1  0
 19 20  1  0
 20 21  1  0
 21 22  1  0
 22 23  1  0
 22 24  2  0
 24 25  1  0
 25 26  1  0
 24 27  1  0
 27 28  1  0
 28 29  2  0
 28 30  1  0
 30 31  1  0
 31 32  1  0
 14 33  2  0
 33 34  1  0
 34 35  2  0
 35  4  1  0
 12  7  1  0
 35 13  1  0
 27 20  2  0
  1 36  1  0
  1 37  1  0
  2 38  1  0
  3 39  1  0
  3 40  1  0
  8 41  1  0
  9 42  1  0
 10 43  1  0
 11 44  1  0
 16 45  1  0
 16 46  1  0
 19 47  1  0
 23 48  1  0
 23 49  1  0
 23 50  1  0
 25 51  1  0
 25 52  1  0
 26 53  1  0
 26 54  1  0
 26 55  1  0
 31 56  1  0
 31 57  1  0
 32 58  1  0
 32 59  1  0
 32 60  1  0
M  END
$$$$
