
     RDKit          3D

 61 66  0  0  0  0  0  0  0  0999 V2000
    8.3783    2.0813   -2.4221 F   0  0  0  0  0  0  0  0  0  0  0  0
    8.1644    2.5133   -1.1477 C   0  0  0  0  0  0  0  0  0  0  0  0
    9.3353    2.3098   -0.4823 F   0  0  0  0  0  0  0  0  0  0  0  0
    8.0171    3.8648   -1.2366 F   0  0  0  0  0  0  0  0  0  0  0  0
    6.9988    1.8224   -0.4850 C   0  0  0  0  0  0  0  0  0  0  0  0
    6.0254    2.5506    0.2171 C   0  0  0  0  0  0  0  0  0  0  0  0
    4.9571    1.8964    0.8380 C   0  0  0  0  0  0  0  0  0  0  0  0
    4.8379    0.5011    0.7659 C   0  0  0  0  0  0  0  0  0  0  0  0
    3.6919   -0.2134    1.4541 C   0  0  0  0  0  0  0  0  0  0  0  0
    2.9581   -1.1224    0.5614 N   0  0  0  0  0  0  0  0  0  0  0  0
    2.1473   -0.4105   -0.4504 C   0  0  0  0  0  0  0  0  0  0  0  0
    0.6599   -0.2052   -0.0835 C   0  0  0  0  0  0  0  0  0  0  0  0
   -0.0118   -1.4741    0.2385 N   0  0  0  0  0  0  0  0  0  0  0  0
   -1.2808   -1.7665   -0.2528 C   0  0  0  0  0  0  0  0  0  0  0  0
   -1.5118   -2.9856   -0.6766 N   0  0  0  0  0  0  0  0  0  0  0  0
   -2.7592   -3.3361   -1.2266 C   0  0  0  0  0  0  0  0  0  0  0  0
   -2.9381   -4.6435   -1.6855 C   0  0  0  0  0  0  0  0  0  0  0  0
   -4.1509   -5.0409   -2.2554 C   0  0  0  0  0  0  0  0  0  0  0  0
   -5.2013   -4.1298   -2.3714 C   0  0  0  0  0  0  0  0  0  0  0  0
   -5.0458   -2.8190   -1.9177 C   0  0  0  0  0  0  0  0  0  0  0  0
   -3.8251   -2.4354   -1.3511 C   0  0  0  0  0  0  0  0  0  0  0  0
   -3.5853   -1.1417   -0.8584 N   0  0  0  0  0  0  0  0  0  0  0  0
   -4.4323   -0.0598   -0.8074 C   0  0  0  0  0  0  0  0  0  0  0  0
   -3.7843    0.9761   -0.1635 C   0  0  0  0  0  0  0  0  0  0  0  0
   -4.3811    2.2782    0.0951 C   0  0  0  0  0  0  0  0  0  0  0  0
   -5.7459    2.4057    0.3897 C   0  0  0  0  0  0  0  0  0  0  0  0
   -6.3036    3.6627    0.6404 C   0  0  0  0  0  0  0  0  0  0  0  0
   -5.5029    4.8031    0.6027 C   0  0  0  0  0  0  0  0  0  0  0  0
   -4.1449    4.6882    0.3173 C   0  0  0  0  0  0  0  0  0  0  0  0
   -3.5862    3.4324    0.0650 C   0  0  0  0  0  0  0  0  0  0  0  0
   -2.4845    0.4977    0.1579 C   0  0  0  0  0  0  0  0  0  0  0  0
   -2.3691   -0.7998   -0.3089 C   0  0  0  0  0  0  0  0  0  0  0  0
    0.8947   -2.5850    0.5839 C   0  0  0  0  0  0  0  0  0  0  0  0
    2.1228   -2.0558    1.3504 C   0  0  0  0  0  0  0  0  0  0  0  0
    5.8164   -0.2267    0.0745 C   0  0  0  0  0  0  0  0  0  0  0  0
    6.8850    0.4257   -0.5450 C   0  0  0  0  0  0  0  0  0  0  0  0
    6.0941    3.6367    0.2852 H   0  0  0  0  0  0  0  0  0  0  0  0
    4.2190    2.4852    1.3786 H   0  0  0  0  0  0  0  0  0  0  0  0
    3.0045    0.5118    1.9099 H   0  0  0  0  0  0  0  0  0  0  0  0
    4.1394   -0.7821    2.2807 H   0  0  0  0  0  0  0  0  0  0  0  0
    2.5880    0.5561   -0.7209 H   0  0  0  0  0  0  0  0  0  0  0  0
    2.1883   -1.0114   -1.3685 H   0  0  0  0  0  0  0  0  0  0  0  0
    0.1734    0.2865   -0.9336 H   0  0  0  0  0  0  0  0  0  0  0  0
    0.5871    0.4647    0.7808 H   0  0  0  0  0  0  0  0  0  0  0  0
   -2.1206   -5.3547   -1.5992 H   0  0  0  0  0  0  0  0  0  0  0  0
   -4.2727   -6.0619   -2.6095 H   0  0  0  0  0  0  0  0  0  0  0  0
   -6.1426   -4.4435   -2.8169 H   0  0  0  0  0  0  0  0  0  0  0  0
   -5.8778   -2.1301   -2.0172 H   0  0  0  0  0  0  0  0  0  0  0  0
   -5.4287   -0.1080   -1.2215 H   0  0  0  0  0  0  0  0  0  0  0  0
   -6.3878    1.5283    0.4421 H   0  0  0  0  0  0  0  0  0  0  0  0
   -7.3622    3.7483    0.8674 H   0  0  0  0  0  0  0  0  0  0  0  0
   -5.9368    5.7810    0.7973 H   0  0  0  0  0  0  0  0  0  0  0  0
   -3.5189    5.5763    0.2879 H   0  0  0  0  0  0  0  0  0  0  0  0
   -2.5266    3.3685   -0.1681 H   0  0  0  0  0  0  0  0  0  0  0  0
   -1.7210    1.0447    0.6911 H   0  0  0  0  0  0  0  0  0  0  0  0
    0.3697   -3.3035    1.2258 H   0  0  0  0  0  0  0  0  0  0  0  0
    1.2127   -3.1128   -0.3251 H   0  0  0  0  0  0  0  0  0  0  0  0
    2.7461   -2.9009    1.6633 H   0  0  0  0  0  0  0  0  0  0  0  0
    1.7594   -1.5647    2.2633 H   0  0  0  0  0  0  0  0  0  0  0  0
    5.7398   -1.3108    0.0119 H   0  0  0  0  0  0  0  0  0  0  0  0
    7.6288   -0.1621   -1.0791 H   0  0  0  0  0  0  0  0  0  0  0  0
  1  2  1  0
  2  3  1  0
  2  4  1  0
  2  5  1  0
  5  6  2  0
  6  7  1  0
  7  8  2  0
  8  9  1  0
  9 10  1  0
 10 11  1  0
 11 12  1  0
 12 13  1  0
 13 14  1  0
 14 15  2  0
 15 16  1  0
 16 17  2  0
 17 18  1  0
 18 19  2  0
 19 20  1  0
 20 21  2  0
 21 22  1  0
 22 23  1  0
 23 24  2  0
 24 25  1  0
 25 26  2  0
 26 27  1  0
 27 28  2  0
 28 29  1  0
 29 30  2  0
 24 31  1  0
 31 32  2  0
 13 33  1  0
 33 34  1  0
  8 35  1  0
 35 36  2  0
 36  5  1  0
 34 10  1  0
 32 14  1  0
 21 16  1  0
 32 22  1  0
 30 25  1  0
  6 37  1  0
  7 38  1  0
  9 39  1  0
  9 40  1  0
 11 41  1  0
 11 42  1  0
 12 43  1  0
 12 44  1  0
 17 45  1  0
 18 46  1  0
 19 47  1  0
 20 48  1  0
 23 49  1  0
 26 50  1  0
 27 51  1  0
 28 52  1  0
 29 53  1  0
 30 54  1  0
 31 55  1  0
 33 56  1  0
 33 57  1  0
 34 58  1  0
 34 59  1  0
 35 60  1  0
 36 61  1  0
M  END
$$$$
