
     RDKit          3D

 42 44  0  0  0  0  0  0  0  0999 V2000
   -3.3773   -0.4934   -2.4418 C   0  0  0  0  0  0  0  0  0  0  0  0
   -3.7247   -0.1638   -1.0129 C   0  0  0  0  0  0  0  0  0  0  0  0
   -5.0760   -0.2725   -0.6298 C   0  0  0  0  0  0  0  0  0  0  0  0
   -5.4820    0.0574    0.6598 C   0  0  0  0  0  0  0  0  0  0  0  0
   -4.5371    0.4959    1.5749 C   0  0  0  0  0  0  0  0  0  0  0  0
   -5.0221    0.9099    3.1739 Cl  0  0  0  0  0  0  0  0  0  0  0  0
   -3.1908    0.5936    1.2159 C   0  0  0  0  0  0  0  0  0  0  0  0
   -2.7484    0.2505   -0.0740 C   0  0  0  0  0  0  0  0  0  0  0  0
   -1.3934    0.3139   -0.4217 N   0  0  0  0  0  0  0  0  0  0  0  0
   -0.5324    1.3197    0.2209 C   0  0  0  0  0  0  0  0  0  0  0  0
    0.8621    1.3328   -0.4448 C   0  0  0  0  0  0  0  0  0  0  0  0
    1.5332   -0.0038   -0.4287 N   0  0  0  0  0  0  0  0  0  0  0  0
    2.7354   -0.0204    0.2818 C   0  0  0  0  0  0  0  0  0  0  0  0
    2.7994    0.1645    1.6731 C   0  0  0  0  0  0  0  0  0  0  0  0
    4.0218    0.1433    2.3335 C   0  0  0  0  0  0  0  0  0  0  0  0
    5.1793   -0.0601    1.6018 C   0  0  0  0  0  0  0  0  0  0  0  0
    5.0900   -0.2361    0.2280 C   0  0  0  0  0  0  0  0  0  0  0  0
    3.8943   -0.2133   -0.4025 N   0  0  0  0  0  4  0  0  0  0  0  0
    3.8449   -0.3982   -1.8641 C   0  0  0  0  0  0  0  0  0  0  0  0
    0.6244   -1.1303   -0.0703 C   0  0  0  0  0  0  0  0  0  0  0  0
   -0.7576   -0.9825   -0.7478 C   0  0  0  0  0  0  0  0  0  0  0  0
   -4.2519   -0.3921   -3.0939 H   0  0  0  0  0  0  0  0  0  0  0  0
   -2.6185    0.1926   -2.8316 H   0  0  0  0  0  0  0  0  0  0  0  0
   -3.0155   -1.5233   -2.5149 H   0  0  0  0  0  0  0  0  0  0  0  0
   -5.8254   -0.6028   -1.3474 H   0  0  0  0  0  0  0  0  0  0  0  0
   -6.5295   -0.0235    0.9371 H   0  0  0  0  0  0  0  0  0  0  0  0
   -2.4896    0.9192    1.9765 H   0  0  0  0  0  0  0  0  0  0  0  0
   -0.4098    1.1032    1.2887 H   0  0  0  0  0  0  0  0  0  0  0  0
   -0.9801    2.3156    0.1212 H   0  0  0  0  0  0  0  0  0  0  0  0
    1.4832    2.1084    0.0214 H   0  0  0  0  0  0  0  0  0  0  0  0
    0.7482    1.6169   -1.4985 H   0  0  0  0  0  0  0  0  0  0  0  0
    1.8923    0.3277    2.2504 H   0  0  0  0  0  0  0  0  0  0  0  0
    4.0680    0.2855    3.4122 H   0  0  0  0  0  0  0  0  0  0  0  0
    6.1475   -0.0804    2.0978 H   0  0  0  0  0  0  0  0  0  0  0  0
    5.9780   -0.3958   -0.3771 H   0  0  0  0  0  0  0  0  0  0  0  0
    3.2438   -1.2860   -2.0781 H   0  0  0  0  0  0  0  0  0  0  0  0
    4.8545   -0.5434   -2.2570 H   0  0  0  0  0  0  0  0  0  0  0  0
    3.4102    0.5007   -2.3094 H   0  0  0  0  0  0  0  0  0  0  0  0
    1.0801   -2.0740   -0.3940 H   0  0  0  0  0  0  0  0  0  0  0  0
    0.4773   -1.1881    1.0159 H   0  0  0  0  0  0  0  0  0  0  0  0
   -1.3827   -1.8314   -0.4435 H   0  0  0  0  0  0  0  0  0  0  0  0
   -0.6231   -1.0362   -1.8345 H   0  0  0  0  0  0  0  0  0  0  0  0
  1  2  1  0
  2  3  2  0
  3  4  1  0
  4  5  2  0
  5  6  1  0
  5  7  1  0
  7  8  2  0
  8  9  1  0
  9 10  1  0
 10 11  1  0
 11 12  1  0
 12 13  1  0
 13 14  2  0
 14 15  1  0
 15 16  2  0
 16 17  1  0
 17 18  2  0
 18 19  1  0
 12 20  1  0
 20 21  1  0
  8  2  1  0
 21  9  1  0
 18 13  1  0
  1 22  1  0
  1 23  1  0
  1 24  1  0
  3 25  1  0
  4 26  1  0
  7 27  1  0
 10 28  1  0
 10 29  1  0
 11 30  1  0
 11 31  1  0
 14 32  1  0
 15 33  1  0
 16 34  1  0
 17 35  1  0
 19 36  1  0
 19 37  1  0
 19 38  1  0
 20 39  1  0
 20 40  1  0
 21 41  1  0
 21 42  1  0
M  CHG  1  18   1
M  END
$$$$
