
     RDKit          3D

 33 35  0  0  0  0  0  0  0  0999 V2000
    4.7157   -0.3775   -2.0005 C   0  0  0  0  0  0  0  0  0  0  0  0
    4.3596   -0.8716   -0.6102 C   0  0  0  0  0  0  0  0  0  0  0  0
    2.9342   -0.8145   -0.3735 N   0  0  0  0  0  0  0  0  0  0  0  0
    2.2937    0.3226    0.0418 C   0  0  0  0  0  0  0  0  0  0  0  0
    2.8953    1.3670    0.2980 O   0  0  0  0  0  0  0  0  0  0  0  0
    0.8026    0.2448    0.1734 C   0  0  0  0  0  0  0  0  0  0  0  0
    0.1417    1.3459    0.6192 C   0  0  0  0  0  0  0  0  0  0  0  0
    0.7366    2.5475    0.9639 O   0  0  0  0  0  0  0  0  0  0  0  0
   -1.3190    1.3361    0.7745 C   0  0  0  0  0  0  0  0  0  0  0  0
   -2.1246    2.3842    1.2188 C   0  0  0  0  0  0  0  0  0  0  0  0
   -3.5245    2.2182    1.3144 C   0  0  0  0  0  0  0  0  0  0  0  0
   -4.1415    1.0050    0.9684 C   0  0  0  0  0  0  0  0  0  0  0  0
   -3.3399   -0.0292    0.5290 C   0  0  0  0  0  0  0  0  0  0  0  0
   -1.9711    0.1678    0.4478 C   0  0  0  0  0  0  0  0  0  0  0  0
   -1.3199   -0.9615   -0.0084 N   0  0  0  0  0  0  0  0  0  0  0  0
    0.0371   -1.0134   -0.1773 C   0  0  0  0  0  0  0  0  0  0  0  0
    0.6106   -2.0206   -0.5921 O   0  0  0  0  0  0  0  0  0  0  0  0
   -2.3024   -2.0144   -0.2661 C   0  0  0  0  0  0  0  0  0  0  0  0
   -3.6878   -1.4197    0.0938 C   0  0  0  0  0  0  0  0  0  0  0  0
    4.2072   -0.9708   -2.7678 H   0  0  0  0  0  0  0  0  0  0  0  0
    5.7946   -0.4519   -2.1672 H   0  0  0  0  0  0  0  0  0  0  0  0
    4.4191    0.6676   -2.1372 H   0  0  0  0  0  0  0  0  0  0  0  0
    4.6680   -1.9147   -0.4891 H   0  0  0  0  0  0  0  0  0  0  0  0
    4.8755   -0.2701    0.1456 H   0  0  0  0  0  0  0  0  0  0  0  0
    2.3693   -1.6295   -0.6183 H   0  0  0  0  0  0  0  0  0  0  0  0
    1.7071    2.4641    0.8196 H   0  0  0  0  0  0  0  0  0  0  0  0
   -1.6786    3.3372    1.4949 H   0  0  0  0  0  0  0  0  0  0  0  0
   -4.1338    3.0497    1.6638 H   0  0  0  0  0  0  0  0  0  0  0  0
   -5.2181    0.8919    1.0469 H   0  0  0  0  0  0  0  0  0  0  0  0
   -2.0594   -2.8888    0.3475 H   0  0  0  0  0  0  0  0  0  0  0  0
   -2.2437   -2.3073   -1.3201 H   0  0  0  0  0  0  0  0  0  0  0  0
   -4.1559   -1.9840    0.9061 H   0  0  0  0  0  0  0  0  0  0  0  0
   -4.3476   -1.4100   -0.7790 H   0  0  0  0  0  0  0  0  0  0  0  0
  1  2  1  0
  2  3  1  0
  3  4  1  0
  4  5  2  0
  4  6  1  0
  6  7  2  0
  7  8  1  0
  7  9  1  0
  9 10  2  0
 10 11  1  0
 11 12  2  0
 12 13  1  0
 13 14  2  0
 14 15  1  0
 15 16  1  0
 16 17  2  0
 15 18  1  0
 18 19  1  0
 16  6  1  0
 14  9  1  0
 19 13  1  0
  1 20  1  0
  1 21  1  0
  1 22  1  0
  2 23  1  0
  2 24  1  0
  3 25  1  0
  8 26  1  0
 10 27  1  0
 11 28  1  0
 12 29  1  0
 18 30  1  0
 18 31  1  0
 19 32  1  0
 19 33  1  0
M  END
$$$$
