
     RDKit          3D

 48 50  0  0  0  0  0  0  0  0999 V2000
   -3.0860    2.2133   -3.7939 C   0  0  0  0  0  0  0  0  0  0  0  0
   -2.8751    1.5342   -2.5557 O   0  0  0  0  0  0  0  0  0  0  0  0
   -3.8559    0.6423   -2.2319 C   0  0  0  0  0  0  0  0  0  0  0  0
   -4.8670    0.4563   -2.9005 O   0  0  0  0  0  0  0  0  0  0  0  0
   -3.5734   -0.0711   -0.8994 C   0  0  0  0  0  0  0  0  0  0  0  0
   -4.7045    0.2854    0.0778 C   0  0  0  0  0  0  0  0  0  0  0  0
   -4.6741   -0.5387    1.3444 C   0  0  0  0  0  0  0  0  0  0  0  0
   -4.1136   -0.0223    2.5204 C   0  0  0  0  0  0  0  0  0  0  0  0
   -4.0739   -0.7944    3.6825 C   0  0  0  0  0  0  0  0  0  0  0  0
   -4.5920   -2.0879    3.6800 C   0  0  0  0  0  0  0  0  0  0  0  0
   -5.1496   -2.6116    2.5154 C   0  0  0  0  0  0  0  0  0  0  0  0
   -5.1902   -1.8420    1.3520 C   0  0  0  0  0  0  0  0  0  0  0  0
   -2.2654    0.2774   -0.3434 N   0  0  0  0  0  0  0  0  0  0  0  0
   -1.1195   -0.3861   -0.7259 C   0  0  0  0  0  0  0  0  0  0  0  0
   -1.1283   -1.3965   -1.4222 O   0  0  0  0  0  0  0  0  0  0  0  0
    0.1172    0.2362   -0.2492 C   0  0  0  0  0  0  0  0  0  0  0  0
    1.4436   -0.2176   -0.4508 C   0  0  0  0  0  0  0  0  0  0  0  0
    2.2322    0.7114    0.1835 C   0  0  0  0  0  0  0  0  0  0  0  0
    3.6896    0.8847    0.3949 C   0  0  0  0  0  0  0  0  0  0  0  0
    4.3519   -0.0457   -0.4595 O   0  0  0  0  0  0  0  0  0  0  0  0
    5.7195   -0.0733   -0.4259 C   0  0  0  0  0  0  0  0  0  0  0  0
    6.5576    0.7225    0.3571 C   0  0  0  0  0  0  0  0  0  0  0  0
    6.0621    1.6421    1.1977 F   0  0  0  0  0  0  0  0  0  0  0  0
    7.9473    0.5916    0.2949 C   0  0  0  0  0  0  0  0  0  0  0  0
    8.5254   -0.3456   -0.5594 C   0  0  0  0  0  0  0  0  0  0  0  0
    7.7063   -1.1487   -1.3485 C   0  0  0  0  0  0  0  0  0  0  0  0
    6.3205   -1.0069   -1.2758 C   0  0  0  0  0  0  0  0  0  0  0  0
    5.5591   -1.7964   -2.0492 F   0  0  0  0  0  0  0  0  0  0  0  0
    1.4342    1.6660    0.7342 O   0  0  0  0  0  0  0  0  0  0  0  0
    0.1088    1.3780    0.4647 N   0  0  0  0  0  0  0  0  0  0  0  0
   -3.9942    2.8219   -3.7460 H   0  0  0  0  0  0  0  0  0  0  0  0
   -3.1402    1.4979   -4.6205 H   0  0  0  0  0  0  0  0  0  0  0  0
   -2.2334    2.8762   -3.9658 H   0  0  0  0  0  0  0  0  0  0  0  0
   -3.5726   -1.1457   -1.1195 H   0  0  0  0  0  0  0  0  0  0  0  0
   -5.6841    0.1434   -0.3978 H   0  0  0  0  0  0  0  0  0  0  0  0
   -4.6595    1.3530    0.3335 H   0  0  0  0  0  0  0  0  0  0  0  0
   -3.6993    0.9829    2.5406 H   0  0  0  0  0  0  0  0  0  0  0  0
   -3.6357   -0.3870    4.5898 H   0  0  0  0  0  0  0  0  0  0  0  0
   -4.5592   -2.6888    4.5849 H   0  0  0  0  0  0  0  0  0  0  0  0
   -5.5514   -3.6215    2.5121 H   0  0  0  0  0  0  0  0  0  0  0  0
   -5.6269   -2.2678    0.4510 H   0  0  0  0  0  0  0  0  0  0  0  0
   -2.1213    1.2024    0.0489 H   0  0  0  0  0  0  0  0  0  0  0  0
    1.7683   -1.0988   -0.9856 H   0  0  0  0  0  0  0  0  0  0  0  0
    3.9215    0.6735    1.4450 H   0  0  0  0  0  0  0  0  0  0  0  0
    3.9712    1.9104    0.1306 H   0  0  0  0  0  0  0  0  0  0  0  0
    8.5705    1.2270    0.9182 H   0  0  0  0  0  0  0  0  0  0  0  0
    9.6066   -0.4492   -0.6094 H   0  0  0  0  0  0  0  0  0  0  0  0
    8.1326   -1.8864   -2.0220 H   0  0  0  0  0  0  0  0  0  0  0  0
  1  2  1  0
  2  3  1  0
  3  4  2  0
  3  5  1  0
  5  6  1  0
  6  7  1  0
  7  8  2  0
  8  9  1  0
  9 10  2  0
 10 11  1  0
 11 12  2  0
  5 13  1  0
 13 14  1  0
 14 15  2  0
 14 16  1  0
 16 17  1  0
 17 18  2  0
 18 19  1  0
 19 20  1  0
 20 21  1  0
 21 22  2  0
 22 23  1  0
 22 24  1  0
 24 25  2  0
 25 26  1  0
 26 27  2  0
 27 28  1  0
 18 29  1  0
 29 30  1  0
 12  7  1  0
 30 16  2  0
 27 21  1  0
  1 31  1  0
  1 32  1  0
  1 33  1  0
  5 34  1  0
  6 35  1  0
  6 36  1  0
  8 37  1  0
  9 38  1  0
 10 39  1  0
 11 40  1  0
 12 41  1  0
 13 42  1  0
 17 43  1  0
 19 44  1  0
 19 45  1  0
 24 46  1  0
 25 47  1  0
 26 48  1  0
M  END
$$$$
