
     RDKit          3D

 52 55  0  0  0  0  0  0  0  0999 V2000
    6.2782   -1.0711   -2.3907 C   0  0  0  0  0  0  0  0  0  0  0  0
    5.5789   -0.6751   -1.1455 C   0  0  0  0  0  0  0  0  0  0  0  0
    4.1971   -0.7274   -0.8629 C   0  0  0  0  0  0  0  0  0  0  0  0
    4.0519   -0.2515    0.4312 C   0  0  0  0  0  0  0  0  0  0  0  0
    2.8776   -0.0755    1.2564 C   0  0  0  0  0  0  0  0  0  0  0  0
    2.9234    0.2530    2.4380 O   0  0  0  0  0  0  0  0  0  0  0  0
    1.6790   -0.2894    0.6148 N   0  0  0  0  0  0  0  0  0  0  0  0
    0.4145   -0.0370    1.2741 C   0  0  0  0  0  0  0  0  0  0  0  0
    0.0908    1.4765    1.2776 C   0  0  0  0  0  0  0  0  0  0  0  0
   -1.4124    1.7991    1.5246 C   0  0  0  0  0  0  0  0  0  0  0  0
   -1.6104    3.3252    1.4519 C   0  0  0  0  0  0  0  0  0  0  0  0
   -1.8435    1.3307    2.9295 C   0  0  0  0  0  0  0  0  0  0  0  0
   -2.3003    1.1271    0.4294 C   0  0  0  0  0  0  0  0  0  0  0  0
   -1.8615   -0.2747    0.1570 C   0  0  0  0  0  0  0  0  0  0  0  0
   -0.6437   -0.7996    0.5532 C   0  0  0  0  0  0  0  0  0  0  0  0
   -0.7148   -2.1547    0.2150 C   0  0  0  0  0  0  0  0  0  0  0  0
   -1.8591   -2.4662   -0.3868 N   0  0  0  0  0  0  0  0  0  0  0  0
   -2.5601   -1.2973   -0.4736 N   0  0  0  0  0  0  0  0  0  0  0  0
   -3.8158   -1.2991   -1.1566 C   0  0  0  0  0  0  0  0  0  0  0  0
   -4.3920   -2.5358   -1.5117 C   0  0  0  0  0  0  0  0  0  0  0  0
   -5.6185   -2.5947   -2.1816 C   0  0  0  0  0  0  0  0  0  0  0  0
   -6.2812   -1.4187   -2.5141 C   0  0  0  0  0  0  0  0  0  0  0  0
   -5.7070   -0.1994   -2.1799 C   0  0  0  0  0  0  0  0  0  0  0  0
   -6.3354    0.9353   -2.5157 F   0  0  0  0  0  0  0  0  0  0  0  0
   -4.4855   -0.1253   -1.5109 C   0  0  0  0  0  0  0  0  0  0  0  0
    5.3363    0.0356    0.8355 N   0  0  0  0  0  0  0  0  0  0  0  0
    5.7597    0.5546    2.1172 C   0  0  0  0  0  0  0  0  0  0  0  0
    6.2703   -0.2011   -0.1074 N   0  0  0  0  0  0  0  0  0  0  0  0
    5.5665   -1.3956   -3.1566 H   0  0  0  0  0  0  0  0  0  0  0  0
    6.9678   -1.8987   -2.1964 H   0  0  0  0  0  0  0  0  0  0  0  0
    6.8502   -0.2300   -2.7954 H   0  0  0  0  0  0  0  0  0  0  0  0
    3.4201   -1.0800   -1.5257 H   0  0  0  0  0  0  0  0  0  0  0  0
    1.6733   -0.3784   -0.3901 H   0  0  0  0  0  0  0  0  0  0  0  0
    0.4765   -0.3986    2.3079 H   0  0  0  0  0  0  0  0  0  0  0  0
    0.7168    1.9793    2.0265 H   0  0  0  0  0  0  0  0  0  0  0  0
    0.3824    1.9086    0.3086 H   0  0  0  0  0  0  0  0  0  0  0  0
   -1.0190    3.8379    2.2188 H   0  0  0  0  0  0  0  0  0  0  0  0
   -1.3029    3.7197    0.4769 H   0  0  0  0  0  0  0  0  0  0  0  0
   -2.6617    3.5948    1.6034 H   0  0  0  0  0  0  0  0  0  0  0  0
   -2.8792    1.6220    3.1388 H   0  0  0  0  0  0  0  0  0  0  0  0
   -1.7838    0.2441    3.0443 H   0  0  0  0  0  0  0  0  0  0  0  0
   -1.2107    1.7806    3.7030 H   0  0  0  0  0  0  0  0  0  0  0  0
   -3.3470    1.1539    0.7524 H   0  0  0  0  0  0  0  0  0  0  0  0
   -2.2107    1.6982   -0.5031 H   0  0  0  0  0  0  0  0  0  0  0  0
    0.0159   -2.9347    0.3902 H   0  0  0  0  0  0  0  0  0  0  0  0
   -3.8968   -3.4741   -1.2622 H   0  0  0  0  0  0  0  0  0  0  0  0
   -6.0493   -3.5587   -2.4408 H   0  0  0  0  0  0  0  0  0  0  0  0
   -7.2324   -1.4431   -3.0357 H   0  0  0  0  0  0  0  0  0  0  0  0
   -4.0962    0.8650   -1.3276 H   0  0  0  0  0  0  0  0  0  0  0  0
    6.8421    0.7109    2.1064 H   0  0  0  0  0  0  0  0  0  0  0  0
    5.5047   -0.1759    2.8886 H   0  0  0  0  0  0  0  0  0  0  0  0
    5.2569    1.5090    2.2905 H   0  0  0  0  0  0  0  0  0  0  0  0
  1  2  1  0
  2  3  1  0
  3  4  2  0
  4  5  1  0
  5  6  2  0
  5  7  1  0
  7  8  1  0
  8  9  1  0
  9 10  1  0
 10 11  1  0
 10 12  1  0
 10 13  1  0
 13 14  1  0
 14 15  2  0
 15 16  1  0
 16 17  2  0
 17 18  1  0
 18 19  1  0
 19 20  2  0
 20 21  1  0
 21 22  2  0
 22 23  1  0
 23 24  1  0
 23 25  2  0
  4 26  1  0
 26 27  1  0
 26 28  1  0
 28  2  2  0
 15  8  1  0
 25 19  1  0
 18 14  1  0
  1 29  1  0
  1 30  1  0
  1 31  1  0
  3 32  1  0
  7 33  1  0
  8 34  1  0
  9 35  1  0
  9 36  1  0
 11 37  1  0
 11 38  1  0
 11 39  1  0
 12 40  1  0
 12 41  1  0
 12 42  1  0
 13 43  1  0
 13 44  1  0
 16 45  1  0
 20 46  1  0
 21 47  1  0
 22 48  1  0
 25 49  1  0
 27 50  1  0
 27 51  1  0
 27 52  1  0
M  END
$$$$
