
     RDKit          3D

 38 39  0  0  0  0  0  0  0  0999 V2000
   -1.5436   -2.8912   -2.4020 C   0  0  0  0  0  0  0  0  0  0  0  0
   -0.6890   -1.9101   -1.7517 N   0  0  0  0  0  0  0  0  0  0  0  0
   -1.3587   -0.7515   -1.1397 C   0  0  0  0  0  0  0  0  0  0  0  0
   -2.0103   -1.0920    0.2017 C   0  0  0  0  0  0  0  0  0  0  0  0
   -2.4352    0.1587    0.9220 C   0  0  0  0  0  0  0  0  0  0  0  0
   -3.7389    0.6356    0.8194 C   0  0  0  0  0  0  0  0  0  0  0  0
   -4.0761    1.8111    1.4849 C   0  0  0  0  0  0  0  0  0  0  0  0
   -3.1081    2.4771    2.2266 C   0  0  0  0  0  0  0  0  0  0  0  0
   -1.8346    1.9374    2.2719 C   0  0  0  0  0  0  0  0  0  0  0  0
   -1.4786    0.7992    1.6370 N   0  0  0  0  0  0  0  0  0  0  0  0
    0.6814   -1.9686   -2.0237 C   0  0  0  0  0  0  0  0  0  0  0  0
    1.1826   -2.7786   -2.8011 O   0  0  0  0  0  0  0  0  0  0  0  0
    1.5981   -1.0120   -1.3616 C   0  0  0  0  0  0  0  0  0  0  0  0
    2.4577   -0.2483   -2.1529 C   0  0  0  0  0  0  0  0  0  0  0  0
    3.3333    0.6563   -1.5481 C   0  0  0  0  0  0  0  0  0  0  0  0
    3.3676    0.7984   -0.1554 C   0  0  0  0  0  0  0  0  0  0  0  0
    4.2637    1.7257    0.2934 O   0  0  0  0  0  0  0  0  0  0  0  0
    4.3314    1.9581    1.6894 C   0  0  0  0  0  0  0  0  0  0  0  0
    3.1472    2.3924    2.1717 F   0  0  0  0  0  0  0  0  0  0  0  0
    4.7096    0.8444    2.3523 F   0  0  0  0  0  0  0  0  0  0  0  0
    5.2546    2.9178    1.9232 F   0  0  0  0  0  0  0  0  0  0  0  0
    2.5258    0.0091    0.6313 C   0  0  0  0  0  0  0  0  0  0  0  0
    1.6511   -0.9037    0.0303 C   0  0  0  0  0  0  0  0  0  0  0  0
   -2.3525   -3.1805   -1.7264 H   0  0  0  0  0  0  0  0  0  0  0  0
   -0.9854   -3.7904   -2.6775 H   0  0  0  0  0  0  0  0  0  0  0  0
   -1.9630   -2.4434   -3.3076 H   0  0  0  0  0  0  0  0  0  0  0  0
   -0.6548    0.0786   -1.0301 H   0  0  0  0  0  0  0  0  0  0  0  0
   -2.1174   -0.3963   -1.8493 H   0  0  0  0  0  0  0  0  0  0  0  0
   -1.3106   -1.6437    0.8401 H   0  0  0  0  0  0  0  0  0  0  0  0
   -2.8710   -1.7560    0.0583 H   0  0  0  0  0  0  0  0  0  0  0  0
   -4.4846    0.1071    0.2346 H   0  0  0  0  0  0  0  0  0  0  0  0
   -5.0868    2.2047    1.4243 H   0  0  0  0  0  0  0  0  0  0  0  0
   -3.3394    3.3945    2.7555 H   0  0  0  0  0  0  0  0  0  0  0  0
   -1.0415    2.4201    2.8357 H   0  0  0  0  0  0  0  0  0  0  0  0
    2.4458   -0.3565   -3.2348 H   0  0  0  0  0  0  0  0  0  0  0  0
    3.9955    1.2538   -2.1711 H   0  0  0  0  0  0  0  0  0  0  0  0
    2.5170    0.0686    1.7161 H   0  0  0  0  0  0  0  0  0  0  0  0
    1.0178   -1.5259    0.6561 H   0  0  0  0  0  0  0  0  0  0  0  0
  1  2  1  0
  2  3  1  0
  3  4  1  0
  4  5  1  0
  5  6  2  0
  6  7  1  0
  7  8  2  0
  8  9  1  0
  9 10  2  0
  2 11  1  0
 11 12  2  0
 11 13  1  0
 13 14  2  0
 14 15  1  0
 15 16  2  0
 16 17  1  0
 17 18  1  0
 18 19  1  0
 18 20  1  0
 18 21  1  0
 16 22  1  0
 22 23  2  0
 10  5  1  0
 23 13  1  0
  1 24  1  0
  1 25  1  0
  1 26  1  0
  3 27  1  0
  3 28  1  0
  4 29  1  0
  4 30  1  0
  6 31  1  0
  7 32  1  0
  8 33  1  0
  9 34  1  0
 14 35  1  0
 15 36  1  0
 22 37  1  0
 23 38  1  0
M  END
$$$$
