
     RDKit          3D

 59 62  0  0  0  0  0  0  0  0999 V2000
    4.9846    4.0017    2.9089 C   0  0  0  0  0  0  0  0  0  0  0  0
    3.8055    3.1193    3.2799 C   0  0  0  0  0  0  0  0  0  0  0  0
    4.1071    1.7482    3.0221 O   0  0  0  0  0  0  0  0  0  0  0  0
    3.7049    1.1998    1.8376 C   0  0  0  0  0  0  0  0  0  0  0  0
    3.3122    1.9024    0.6977 C   0  0  0  0  0  0  0  0  0  0  0  0
    2.9312    1.2186   -0.4662 C   0  0  0  0  0  0  0  0  0  0  0  0
    2.9402   -0.1754   -0.4994 C   0  0  0  0  0  0  0  0  0  0  0  0
    2.5852   -0.9579   -1.5670 O   0  0  0  0  0  0  0  0  0  0  0  0
    2.0161   -0.3343   -2.7209 C   0  0  0  0  0  0  0  0  0  0  0  0
    3.1046    0.0610   -3.7063 C   0  0  0  0  0  0  0  0  0  0  0  0
    3.3562   -0.8770    0.6458 C   0  0  0  0  0  0  0  0  0  0  0  0
    3.3361   -2.3108    0.6229 N   0  0  0  0  0  0  0  0  0  0  0  0
    2.1571   -3.0975    1.5501 S   0  0  0  0  0  6  0  0  0  0  0  0
    2.3454   -2.7769    2.9487 O   0  0  0  0  0  0  0  0  0  0  0  0
    2.1340   -4.4734    1.0964 O   0  0  0  0  0  0  0  0  0  0  0  0
    0.6359   -2.3414    1.0104 C   0  0  0  0  0  0  0  0  0  0  0  0
    0.0994   -1.2638    1.7367 C   0  0  0  0  0  0  0  0  0  0  0  0
   -1.0895   -0.6568    1.3179 C   0  0  0  0  0  0  0  0  0  0  0  0
   -1.7287   -1.1513    0.1911 C   0  0  0  0  0  0  0  0  0  0  0  0
   -1.2010   -2.2401   -0.5095 C   0  0  0  0  0  0  0  0  0  0  0  0
   -0.0202   -2.8528   -0.1145 C   0  0  0  0  0  0  0  0  0  0  0  0
   -2.0551   -2.6061   -1.6790 C   0  0  0  0  0  0  0  0  0  0  0  0
   -3.2055   -1.5970   -1.5637 C   0  0  0  0  0  0  0  0  0  0  0  0
   -2.9199   -0.7159   -0.4192 N   0  0  0  0  0  0  0  0  0  0  0  0
   -3.7125    0.3512   -0.0022 C   0  0  0  0  0  0  0  0  0  0  0  0
   -3.4259    1.0680    0.9641 O   0  0  0  0  0  0  0  0  0  0  0  0
   -4.9934    0.6079   -0.8460 C   0  0  0  0  0  0  0  0  0  0  0  0
   -6.2419   -0.2711   -0.5534 C   0  0  0  0  0  0  0  0  0  0  0  0
   -7.1053    0.9690   -0.8483 C   0  0  0  0  0  0  0  0  0  0  0  0
   -5.8882    1.8212   -0.4482 C   0  0  0  0  0  0  0  0  0  0  0  0
    3.7372   -0.1949    1.8009 C   0  0  0  0  0  0  0  0  0  0  0  0
    5.8920    3.6712    3.4245 H   0  0  0  0  0  0  0  0  0  0  0  0
    4.7879    5.0430    3.1794 H   0  0  0  0  0  0  0  0  0  0  0  0
    5.1953    3.9544    1.8374 H   0  0  0  0  0  0  0  0  0  0  0  0
    2.8756    3.4481    2.8015 H   0  0  0  0  0  0  0  0  0  0  0  0
    3.6351    3.2022    4.3605 H   0  0  0  0  0  0  0  0  0  0  0  0
    3.3047    2.9879    0.6736 H   0  0  0  0  0  0  0  0  0  0  0  0
    2.6474    1.8151   -1.3282 H   0  0  0  0  0  0  0  0  0  0  0  0
    1.3502    0.4995   -2.4670 H   0  0  0  0  0  0  0  0  0  0  0  0
    1.3802   -1.0898   -3.1987 H   0  0  0  0  0  0  0  0  0  0  0  0
    3.7380   -0.8021   -3.9503 H   0  0  0  0  0  0  0  0  0  0  0  0
    2.6666    0.4478   -4.6336 H   0  0  0  0  0  0  0  0  0  0  0  0
    3.7632    0.8262   -3.2848 H   0  0  0  0  0  0  0  0  0  0  0  0
    3.3513   -2.6954   -0.3227 H   0  0  0  0  0  0  0  0  0  0  0  0
    0.6064   -0.8862    2.6230 H   0  0  0  0  0  0  0  0  0  0  0  0
   -1.4865    0.1792    1.8844 H   0  0  0  0  0  0  0  0  0  0  0  0
    0.3812   -3.6994   -0.6648 H   0  0  0  0  0  0  0  0  0  0  0  0
   -1.5105   -2.4754   -2.6209 H   0  0  0  0  0  0  0  0  0  0  0  0
   -2.4222   -3.6355   -1.6032 H   0  0  0  0  0  0  0  0  0  0  0  0
   -4.1613   -2.1056   -1.3901 H   0  0  0  0  0  0  0  0  0  0  0  0
   -3.2954   -0.9949   -2.4755 H   0  0  0  0  0  0  0  0  0  0  0  0
   -4.7636    0.6545   -1.9208 H   0  0  0  0  0  0  0  0  0  0  0  0
   -6.3996   -1.1169   -1.2279 H   0  0  0  0  0  0  0  0  0  0  0  0
   -6.3131   -0.6237    0.4825 H   0  0  0  0  0  0  0  0  0  0  0  0
   -7.9955    1.0864   -0.2274 H   0  0  0  0  0  0  0  0  0  0  0  0
   -7.3863    1.0698   -1.9019 H   0  0  0  0  0  0  0  0  0  0  0  0
   -5.8700    2.0796    0.6174 H   0  0  0  0  0  0  0  0  0  0  0  0
   -5.7378    2.7313   -1.0355 H   0  0  0  0  0  0  0  0  0  0  0  0
    4.0609   -0.7453    2.6813 H   0  0  0  0  0  0  0  0  0  0  0  0
  1  2  1  0
  2  3  1  0
  3  4  1  0
  4  5  2  0
  5  6  1  0
  6  7  2  0
  7  8  1  0
  8  9  1  0
  9 10  1  0
  7 11  1  0
 11 12  1  0
 12 13  1  0
 13 14  2  0
 13 15  2  0
 13 16  1  0
 16 17  2  0
 17 18  1  0
 18 19  2  0
 19 20  1  0
 20 21  2  0
 20 22  1  0
 22 23  1  0
 23 24  1  0
 24 25  1  0
 25 26  2  0
 25 27  1  0
 27 28  1  0
 28 29  1  0
 29 30  1  0
 11 31  2  0
 31  4  1  0
 21 16  1  0
 30 27  1  0
 24 19  1  0
  1 32  1  0
  1 33  1  0
  1 34  1  0
  2 35  1  0
  2 36  1  0
  5 37  1  0
  6 38  1  0
  9 39  1  0
  9 40  1  0
 10 41  1  0
 10 42  1  0
 10 43  1  0
 12 44  1  0
 17 45  1  0
 18 46  1  0
 21 47  1  0
 22 48  1  0
 22 49  1  0
 23 50  1  0
 23 51  1  0
 27 52  1  0
 28 53  1  0
 28 54  1  0
 29 55  1  0
 29 56  1  0
 30 57  1  0
 30 58  1  0
 31 59  1  0
M  END
$$$$
