
     RDKit          3D

 68 69  0  0  0  0  0  0  0  0999 V2000
    0.0909    3.7776    1.5180 C   0  0  0  0  0  0  0  0  0  0  0  0
    0.1276    2.5816    0.7499 O   0  0  0  0  0  0  0  0  0  0  0  0
   -1.1133    2.3457    0.0858 C   0  0  0  0  0  0  0  0  0  0  0  0
   -1.0801    1.0116   -0.6802 C   0  0  0  0  0  0  0  0  0  0  0  0
   -0.8602   -0.1870    0.1581 N   0  0  0  0  0  0  0  0  0  0  0  0
    0.3967   -0.6983    0.4669 C   0  0  0  0  0  0  0  0  0  0  0  0
    0.5332   -1.6655    1.2188 O   0  0  0  0  0  0  0  0  0  0  0  0
    1.6059   -0.1027   -0.2344 C   0  0  0  0  0  0  0  0  0  0  0  0
    2.9077   -0.6914    0.3021 C   0  0  0  0  0  0  0  0  0  0  0  0
    4.1158   -0.1535   -0.4376 C   0  0  0  0  0  0  0  0  0  0  0  0
    4.0157    0.5499   -1.4375 O   0  0  0  0  0  0  0  0  0  0  0  0
    5.2938   -0.5721    0.1383 N   0  0  0  0  0  0  0  0  0  0  0  0
    6.5565   -0.2545   -0.3095 C   0  0  0  0  0  0  0  0  0  0  0  0
    6.9470    0.5358   -1.4121 C   0  0  0  0  0  0  0  0  0  0  0  0
    8.3189    0.5120   -1.3859 C   0  0  0  0  0  0  0  0  0  0  0  0
    9.3751    1.1070   -2.2207 C   0  0  0  0  0  0  0  0  0  0  0  0
    8.7300   -0.2433   -0.3341 O   0  0  0  0  0  0  0  0  0  0  0  0
    7.6252   -0.7259    0.3427 N   0  0  0  0  0  0  0  0  0  0  0  0
   -2.0552   -0.8994    0.6998 C   0  0  0  0  0  0  0  0  0  0  0  0
   -2.8183   -1.6928   -0.4101 C   0  0  0  0  0  0  0  0  0  0  0  0
   -3.9745   -2.0909   -0.2816 O   0  0  0  0  0  0  0  0  0  0  0  0
   -2.0435   -2.0019   -1.5180 N   0  0  0  0  0  0  0  0  0  0  0  0
   -2.4622   -2.8504   -2.6416 C   0  0  0  0  0  0  0  0  0  0  0  0
   -1.3078   -2.8864   -3.6595 C   0  0  0  0  0  0  0  0  0  0  0  0
   -2.7429   -4.2844   -2.1682 C   0  0  0  0  0  0  0  0  0  0  0  0
   -3.7005   -2.2706   -3.3436 C   0  0  0  0  0  0  0  0  0  0  0  0
   -2.9119   -0.0016    1.5842 C   0  0  0  0  0  0  0  0  0  0  0  0
   -4.1102    0.5843    1.1542 C   0  0  0  0  0  0  0  0  0  0  0  0
   -4.8305    1.4315    2.0024 C   0  0  0  0  0  0  0  0  0  0  0  0
   -4.3733    1.7139    3.2908 C   0  0  0  0  0  0  0  0  0  0  0  0
   -5.1705    2.5618    4.0090 O   0  0  0  0  0  0  0  0  0  0  0  0
   -4.8041    2.7912    5.3639 C   0  0  0  0  0  0  0  0  0  0  0  0
   -3.1807    1.1420    3.7284 C   0  0  0  0  0  0  0  0  0  0  0  0
   -2.4574    0.2940    2.8823 C   0  0  0  0  0  0  0  0  0  0  0  0
    1.0696    3.9137    1.9860 H   0  0  0  0  0  0  0  0  0  0  0  0
   -0.1137    4.6401    0.8764 H   0  0  0  0  0  0  0  0  0  0  0  0
   -0.6657    3.7047    2.3053 H   0  0  0  0  0  0  0  0  0  0  0  0
   -1.2850    3.1558   -0.6326 H   0  0  0  0  0  0  0  0  0  0  0  0
   -1.9236    2.3703    0.8158 H   0  0  0  0  0  0  0  0  0  0  0  0
   -2.0181    0.8821   -1.2305 H   0  0  0  0  0  0  0  0  0  0  0  0
   -0.2846    1.0610   -1.4295 H   0  0  0  0  0  0  0  0  0  0  0  0
    1.5159   -0.3232   -1.3049 H   0  0  0  0  0  0  0  0  0  0  0  0
    1.6344    0.9796   -0.1067 H   0  0  0  0  0  0  0  0  0  0  0  0
    2.9066   -1.7828    0.1933 H   0  0  0  0  0  0  0  0  0  0  0  0
    3.0107   -0.4568    1.3686 H   0  0  0  0  0  0  0  0  0  0  0  0
    5.2856   -1.1617    0.9601 H   0  0  0  0  0  0  0  0  0  0  0  0
    6.3226    1.0504   -2.1266 H   0  0  0  0  0  0  0  0  0  0  0  0
    9.9818    1.8021   -1.6331 H   0  0  0  0  0  0  0  0  0  0  0  0
    8.9467    1.6578   -3.0637 H   0  0  0  0  0  0  0  0  0  0  0  0
   10.0313    0.3290   -2.6214 H   0  0  0  0  0  0  0  0  0  0  0  0
   -1.7141   -1.7114    1.3567 H   0  0  0  0  0  0  0  0  0  0  0  0
   -1.0508   -1.8372   -1.4014 H   0  0  0  0  0  0  0  0  0  0  0  0
   -1.0631   -1.8784   -4.0145 H   0  0  0  0  0  0  0  0  0  0  0  0
   -1.5604   -3.4992   -4.5322 H   0  0  0  0  0  0  0  0  0  0  0  0
   -0.3984   -3.3015   -3.2099 H   0  0  0  0  0  0  0  0  0  0  0  0
   -2.9679   -4.9439   -3.0139 H   0  0  0  0  0  0  0  0  0  0  0  0
   -1.8784   -4.6999   -1.6379 H   0  0  0  0  0  0  0  0  0  0  0  0
   -3.5960   -4.3281   -1.4840 H   0  0  0  0  0  0  0  0  0  0  0  0
   -3.5284   -1.2315   -3.6472 H   0  0  0  0  0  0  0  0  0  0  0  0
   -3.9514   -2.8467   -4.2419 H   0  0  0  0  0  0  0  0  0  0  0  0
   -4.5832   -2.2802   -2.6969 H   0  0  0  0  0  0  0  0  0  0  0  0
   -4.5076    0.3887    0.1604 H   0  0  0  0  0  0  0  0  0  0  0  0
   -5.7630    1.8710    1.6554 H   0  0  0  0  0  0  0  0  0  0  0  0
   -4.7939    1.8570    5.9356 H   0  0  0  0  0  0  0  0  0  0  0  0
   -3.8394    3.3055    5.4287 H   0  0  0  0  0  0  0  0  0  0  0  0
   -5.5602    3.4455    5.8085 H   0  0  0  0  0  0  0  0  0  0  0  0
   -2.7804    1.3356    4.7175 H   0  0  0  0  0  0  0  0  0  0  0  0
   -1.5212   -0.1349    3.2394 H   0  0  0  0  0  0  0  0  0  0  0  0
  1  2  1  0
  2  3  1  0
  3  4  1  0
  4  5  1  0
  5  6  1  0
  6  7  2  0
  6  8  1  0
  8  9  1  0
  9 10  1  0
 10 11  2  0
 10 12  1  0
 12 13  1  0
 13 14  1  0
 14 15  2  0
 15 16  1  0
 15 17  1  0
 17 18  1  0
  5 19  1  0
 19 20  1  0
 20 21  2  0
 20 22  1  0
 22 23  1  0
 23 24  1  0
 23 25  1  0
 23 26  1  0
 19 27  1  0
 27 28  2  0
 28 29  1  0
 29 30  2  0
 30 31  1  0
 31 32  1  0
 30 33  1  0
 33 34  2  0
 18 13  2  0
 34 27  1  0
  1 35  1  0
  1 36  1  0
  1 37  1  0
  3 38  1  0
  3 39  1  0
  4 40  1  0
  4 41  1  0
  8 42  1  0
  8 43  1  0
  9 44  1  0
  9 45  1  0
 12 46  1  0
 14 47  1  0
 16 48  1  0
 16 49  1  0
 16 50  1  0
 19 51  1  0
 22 52  1  0
 24 53  1  0
 24 54  1  0
 24 55  1  0
 25 56  1  0
 25 57  1  0
 25 58  1  0
 26 59  1  0
 26 60  1  0
 26 61  1  0
 28 62  1  0
 29 63  1  0
 32 64  1  0
 32 65  1  0
 32 66  1  0
 33 67  1  0
 34 68  1  0
M  END
$$$$
