
     RDKit          3D

 43 45  0  0  0  0  0  0  0  0999 V2000
   -5.8606   -0.7191    1.2828 C   0  0  0  0  0  0  0  0  0  0  0  0
   -6.0290    0.7150    1.0905 N   0  0  0  0  0  0  0  0  0  0  0  0
   -7.3519    1.2450    1.3713 C   0  0  0  0  0  0  0  0  0  0  0  0
   -4.9830    1.6187    0.9118 C   0  0  0  0  0  0  0  0  0  0  0  0
   -5.0938    2.8289    1.0983 O   0  0  0  0  0  0  0  0  0  0  0  0
   -3.6643    1.1183    0.4577 C   0  0  0  0  0  0  0  0  0  0  0  0
   -3.5529    0.3042   -0.6726 C   0  0  0  0  0  0  0  0  0  0  0  0
   -2.2935   -0.1331   -1.0993 C   0  0  0  0  0  0  0  0  0  0  0  0
   -1.1389    0.2543   -0.4140 C   0  0  0  0  0  0  0  0  0  0  0  0
    0.1613   -0.1397   -0.7782 N   0  0  0  0  0  0  0  0  0  0  0  0
    0.5515   -0.9740   -1.8110 C   0  0  0  0  0  0  0  0  0  0  0  0
   -0.2035   -1.5361   -2.5972 O   0  0  0  0  0  0  0  0  0  0  0  0
    1.9933   -1.1372   -1.8790 C   0  0  0  0  0  0  0  0  0  0  0  0
    2.7842   -1.8744   -2.7365 C   0  0  0  0  0  0  0  0  0  0  0  0
    4.1253   -1.6626   -2.3358 C   0  0  0  0  0  0  0  0  0  0  0  0
    4.0901   -0.8044   -1.2535 C   0  0  0  0  0  0  0  0  0  0  0  0
    5.1075   -0.2047   -0.3915 C   0  0  0  0  0  0  0  0  0  0  0  0
    4.7663    0.7289    0.6009 C   0  0  0  0  0  0  0  0  0  0  0  0
    5.7456    1.2993    1.4217 C   0  0  0  0  0  0  0  0  0  0  0  0
    7.0800    0.9406    1.2579 C   0  0  0  0  0  0  0  0  0  0  0  0
    8.2854    1.6396    2.2657 Cl  0  0  0  0  0  0  0  0  0  0  0  0
    7.4423    0.0180    0.2811 C   0  0  0  0  0  0  0  0  0  0  0  0
    6.4605   -0.5505   -0.5387 C   0  0  0  0  0  0  0  0  0  0  0  0
    2.7897   -0.4838   -0.9736 O   0  0  0  0  0  0  0  0  0  0  0  0
   -1.2596    1.0957    0.7012 C   0  0  0  0  0  0  0  0  0  0  0  0
   -2.5152    1.5328    1.1331 C   0  0  0  0  0  0  0  0  0  0  0  0
   -6.3227   -1.0035    2.2336 H   0  0  0  0  0  0  0  0  0  0  0  0
   -6.3663   -1.2410    0.4656 H   0  0  0  0  0  0  0  0  0  0  0  0
   -4.8124   -1.0192    1.3202 H   0  0  0  0  0  0  0  0  0  0  0  0
   -7.5247    1.2041    2.4508 H   0  0  0  0  0  0  0  0  0  0  0  0
   -7.4498    2.2805    1.0337 H   0  0  0  0  0  0  0  0  0  0  0  0
   -8.0988    0.6349    0.8550 H   0  0  0  0  0  0  0  0  0  0  0  0
   -4.4383    0.0161   -1.2336 H   0  0  0  0  0  0  0  0  0  0  0  0
   -2.2507   -0.7660   -1.9804 H   0  0  0  0  0  0  0  0  0  0  0  0
    0.9269    0.2222   -0.2199 H   0  0  0  0  0  0  0  0  0  0  0  0
    2.4233   -2.4884   -3.5511 H   0  0  0  0  0  0  0  0  0  0  0  0
    5.0098   -2.0873   -2.7895 H   0  0  0  0  0  0  0  0  0  0  0  0
    3.7306    1.0274    0.7458 H   0  0  0  0  0  0  0  0  0  0  0  0
    5.4582    2.0205    2.1823 H   0  0  0  0  0  0  0  0  0  0  0  0
    8.4836   -0.2647    0.1501 H   0  0  0  0  0  0  0  0  0  0  0  0
    6.7720   -1.2699   -1.2923 H   0  0  0  0  0  0  0  0  0  0  0  0
   -0.3800    1.4283    1.2468 H   0  0  0  0  0  0  0  0  0  0  0  0
   -2.5972    2.1980    1.9899 H   0  0  0  0  0  0  0  0  0  0  0  0
  1  2  1  0
  2  3  1  0
  2  4  1  0
  4  5  2  0
  4  6  1  0
  6  7  2  0
  7  8  1  0
  8  9  2  0
  9 10  1  0
 10 11  1  0
 11 12  2  0
 11 13  1  0
 13 14  2  0
 14 15  1  0
 15 16  2  0
 16 17  1  0
 17 18  2  0
 18 19  1  0
 19 20  2  0
 20 21  1  0
 20 22  1  0
 22 23  2  0
 16 24  1  0
  9 25  1  0
 25 26  2  0
 26  6  1  0
 24 13  1  0
 23 17  1  0
  1 27  1  0
  1 28  1  0
  1 29  1  0
  3 30  1  0
  3 31  1  0
  3 32  1  0
  7 33  1  0
  8 34  1  0
 10 35  1  0
 14 36  1  0
 15 37  1  0
 18 38  1  0
 19 39  1  0
 22 40  1  0
 23 41  1  0
 25 42  1  0
 26 43  1  0
M  END
$$$$
