
     RDKit          3D

 39 39  0  0  0  0  0  0  0  0999 V2000
   -3.4103    3.9870    0.0469 C   0  0  0  0  0  0  0  0  0  0  0  0
   -2.7677    2.8147    0.7223 C   0  0  0  0  0  0  0  0  0  0  0  0
   -2.9440    2.5070    1.8922 O   0  0  0  0  0  0  0  0  0  0  0  0
   -1.9704    2.1494   -0.1582 O   0  0  0  0  0  0  0  0  0  0  0  0
   -1.2854    1.0176    0.4037 C   0  0  0  0  0  0  0  0  0  0  0  0
   -0.4635    0.3743   -0.7126 C   0  0  0  0  0  0  0  0  0  0  0  0
    0.2412   -0.9429   -0.3358 C   0  0  0  0  0  0  0  0  0  0  0  0
    0.8870   -0.7820    0.9846 N   0  0  0  0  0  0  0  0  0  0  0  0
    2.5308   -0.4863    1.0085 S   0  0  0  0  0  6  0  0  0  0  0  0
    2.9042   -0.3269    2.3935 O   0  0  0  0  0  0  0  0  0  0  0  0
    3.1705   -1.4724    0.1700 O   0  0  0  0  0  0  0  0  0  0  0  0
    2.6616    0.9516    0.2810 O   0  0  0  0  0  0  0  0  0  0  0  0
    3.9437    1.5742    0.2869 C   0  0  0  0  0  0  0  0  0  0  0  0
    3.9640    2.8084   -0.6242 C   0  0  0  0  0  0  0  0  0  0  0  0
    3.5873    2.3461   -2.3144 Cl  0  0  0  0  0  0  0  0  0  0  0  0
    2.7630    4.0195   -0.0770 Cl  0  0  0  0  0  0  0  0  0  0  0  0
    5.5906    3.5567   -0.5855 Cl  0  0  0  0  0  0  0  0  0  0  0  0
   -0.6011   -2.2139   -0.3641 C   0  0  0  0  0  0  0  0  0  0  0  0
    0.0630   -3.4509   -0.2342 C   0  0  0  0  0  0  0  0  0  0  0  0
   -0.6411   -4.6563   -0.2454 C   0  0  0  0  0  0  0  0  0  0  0  0
   -2.0238   -4.6505   -0.3924 C   0  0  0  0  0  0  0  0  0  0  0  0
   -2.6984   -3.4412   -0.5338 C   0  0  0  0  0  0  0  0  0  0  0  0
   -1.9938   -2.2329   -0.5234 C   0  0  0  0  0  0  0  0  0  0  0  0
   -2.6409    4.6726   -0.3171 H   0  0  0  0  0  0  0  0  0  0  0  0
   -4.0393    3.6410   -0.7770 H   0  0  0  0  0  0  0  0  0  0  0  0
   -4.0389    4.5198    0.7662 H   0  0  0  0  0  0  0  0  0  0  0  0
   -0.6286    1.3697    1.2074 H   0  0  0  0  0  0  0  0  0  0  0  0
   -2.0189    0.3186    0.8165 H   0  0  0  0  0  0  0  0  0  0  0  0
    0.2968    1.1080   -1.0144 H   0  0  0  0  0  0  0  0  0  0  0  0
   -1.0825    0.2396   -1.6090 H   0  0  0  0  0  0  0  0  0  0  0  0
    1.0018   -1.0969   -1.1137 H   0  0  0  0  0  0  0  0  0  0  0  0
    0.6424   -1.5048    1.6627 H   0  0  0  0  0  0  0  0  0  0  0  0
    4.1866    1.8582    1.3183 H   0  0  0  0  0  0  0  0  0  0  0  0
    4.6966    0.8487   -0.0468 H   0  0  0  0  0  0  0  0  0  0  0  0
    1.1475   -3.4834   -0.1303 H   0  0  0  0  0  0  0  0  0  0  0  0
   -0.1080   -5.5983   -0.1436 H   0  0  0  0  0  0  0  0  0  0  0  0
   -2.5753   -5.5871   -0.4025 H   0  0  0  0  0  0  0  0  0  0  0  0
   -3.7791   -3.4364   -0.6558 H   0  0  0  0  0  0  0  0  0  0  0  0
   -2.5675   -1.3195   -0.6495 H   0  0  0  0  0  0  0  0  0  0  0  0
  1  2  1  0
  2  3  2  0
  2  4  1  0
  4  5  1  0
  5  6  1  0
  6  7  1  0
  7  8  1  0
  8  9  1  0
  9 10  2  0
  9 11  2  0
  9 12  1  0
 12 13  1  0
 13 14  1  0
 14 15  1  0
 14 16  1  0
 14 17  1  0
  7 18  1  0
 18 19  2  0
 19 20  1  0
 20 21  2  0
 21 22  1  0
 22 23  2  0
 23 18  1  0
  1 24  1  0
  1 25  1  0
  1 26  1  0
  5 27  1  0
  5 28  1  0
  6 29  1  0
  6 30  1  0
  7 31  1  0
  8 32  1  0
 13 33  1  0
 13 34  1  0
 19 35  1  0
 20 36  1  0
 21 37  1  0
 22 38  1  0
 23 39  1  0
M  END
$$$$
