
     RDKit          3D

 31 32  0  0  0  0  0  0  0  0999 V2000
   -2.0892    0.8418   -2.4830 C   0  0  0  0  0  0  0  0  0  0  0  0
   -2.8151    0.6675   -1.2089 N   0  0  0  0  0  4  0  0  0  0  0  0
   -4.1702    0.6691   -1.2278 C   0  0  0  0  0  0  0  0  0  0  0  0
   -4.9064    0.4837   -0.0648 C   0  0  0  0  0  0  0  0  0  0  0  0
   -4.2436    0.2946    1.1366 C   0  0  0  0  0  0  0  0  0  0  0  0
   -2.8550    0.2966    1.1497 C   0  0  0  0  0  0  0  0  0  0  0  0
   -2.1389    0.4832   -0.0408 C   0  0  0  0  0  0  0  0  0  0  0  0
   -0.6718    0.5164   -0.0202 C   0  0  0  0  0  0  0  0  0  0  0  0
    0.0646   -0.5313    0.3852 C   0  0  0  0  0  0  0  0  0  0  0  0
    1.5345   -0.5282    0.4534 C   0  0  0  0  0  0  0  0  0  0  0  0
    2.1597   -1.2640    1.4721 C   0  0  0  0  0  0  0  0  0  0  0  0
    3.5548   -1.3159    1.5682 C   0  0  0  0  0  0  0  0  0  0  0  0
    4.3365   -0.6344    0.6294 C   0  0  0  0  0  0  0  0  0  0  0  0
    5.8015   -0.6844    0.7226 N   0  0  0  0  0  4  0  0  0  0  0  0
    6.4507   -0.0664   -0.1325 O   0  0  0  0  0  0  0  0  0  0  0  0
    6.2960   -1.3404    1.6492 O   0  0  0  0  0  1  0  0  0  0  0  0
    3.7293    0.0910   -0.4026 C   0  0  0  0  0  0  0  0  0  0  0  0
    2.3329    0.1367   -0.4893 C   0  0  0  0  0  0  0  0  0  0  0  0
   -1.4305   -0.0189   -2.6256 H   0  0  0  0  0  0  0  0  0  0  0  0
   -2.7968    0.8922   -3.3144 H   0  0  0  0  0  0  0  0  0  0  0  0
   -1.5265    1.7772   -2.4275 H   0  0  0  0  0  0  0  0  0  0  0  0
   -4.6648    0.8183   -2.1842 H   0  0  0  0  0  0  0  0  0  0  0  0
   -5.9943    0.4874   -0.0961 H   0  0  0  0  0  0  0  0  0  0  0  0
   -4.8033    0.1513    2.0600 H   0  0  0  0  0  0  0  0  0  0  0  0
   -2.3312    0.1620    2.0952 H   0  0  0  0  0  0  0  0  0  0  0  0
   -0.2109    1.4515   -0.3270 H   0  0  0  0  0  0  0  0  0  0  0  0
   -0.4090   -1.4548    0.7190 H   0  0  0  0  0  0  0  0  0  0  0  0
    1.5696   -1.8023    2.2127 H   0  0  0  0  0  0  0  0  0  0  0  0
    4.0112   -1.8889    2.3739 H   0  0  0  0  0  0  0  0  0  0  0  0
    4.3263    0.6181   -1.1454 H   0  0  0  0  0  0  0  0  0  0  0  0
    1.8897    0.6915   -1.3122 H   0  0  0  0  0  0  0  0  0  0  0  0
  1  2  1  0
  2  3  2  0
  3  4  1  0
  4  5  2  0
  5  6  1  0
  6  7  2  0
  7  8  1  0
  8  9  2  3
  9 10  1  0
 10 11  2  0
 11 12  1  0
 12 13  2  0
 13 14  1  0
 14 15  2  0
 14 16  1  0
 13 17  1  0
 17 18  2  0
  7  2  1  0
 18 10  1  0
  1 19  1  0
  1 20  1  0
  1 21  1  0
  3 22  1  0
  4 23  1  0
  5 24  1  0
  6 25  1  0
  8 26  1  0
  9 27  1  0
 11 28  1  0
 12 29  1  0
 17 30  1  0
 18 31  1  0
M  CHG  3   2   1  14   1  16  -1
M  END
$$$$
