
     RDKit          3D

 31 32  0  0  0  0  0  0  0  0999 V2000
   -2.2561   -0.3280   -2.4575 C   0  0  0  0  0  0  0  0  0  0  0  0
   -2.8934    0.1187   -1.2024 N   0  0  0  0  0  4  0  0  0  0  0  0
   -4.1901    0.5107   -1.2360 C   0  0  0  0  0  0  0  0  0  0  0  0
   -4.8345    0.9649   -0.0926 C   0  0  0  0  0  0  0  0  0  0  0  0
   -4.1393    1.0173    1.1042 C   0  0  0  0  0  0  0  0  0  0  0  0
   -2.8115    0.6118    1.1325 C   0  0  0  0  0  0  0  0  0  0  0  0
   -2.1869    0.1608   -0.0384 C   0  0  0  0  0  0  0  0  0  0  0  0
   -0.7930   -0.2971   -0.0002 C   0  0  0  0  0  0  0  0  0  0  0  0
    0.2187    0.5110    0.3571 C   0  0  0  0  0  0  0  0  0  0  0  0
    1.6243    0.0837    0.4413 C   0  0  0  0  0  0  0  0  0  0  0  0
    2.4418    0.6593    1.4263 C   0  0  0  0  0  0  0  0  0  0  0  0
    3.7920    0.3077    1.5348 C   0  0  0  0  0  0  0  0  0  0  0  0
    4.3364   -0.6216    0.6421 C   0  0  0  0  0  0  0  0  0  0  0  0
    5.7529   -0.9954    0.7484 N   0  0  0  0  0  4  0  0  0  0  0  0
    6.1894   -1.8214   -0.0651 O   0  0  0  0  0  0  0  0  0  0  0  0
    6.4218   -0.4625    1.6440 O   0  0  0  0  0  1  0  0  0  0  0  0
    3.5390   -1.1933   -0.3565 C   0  0  0  0  0  0  0  0  0  0  0  0
    2.1894   -0.8349   -0.4559 C   0  0  0  0  0  0  0  0  0  0  0  0
   -1.9901   -1.3823   -2.3462 H   0  0  0  0  0  0  0  0  0  0  0  0
   -1.3760    0.2946   -2.6385 H   0  0  0  0  0  0  0  0  0  0  0  0
   -2.9519   -0.2150   -3.2927 H   0  0  0  0  0  0  0  0  0  0  0  0
   -4.7116    0.4606   -2.1884 H   0  0  0  0  0  0  0  0  0  0  0  0
   -5.8765    1.2765   -0.1355 H   0  0  0  0  0  0  0  0  0  0  0  0
   -4.6283    1.3670    2.0126 H   0  0  0  0  0  0  0  0  0  0  0  0
   -2.2665    0.6388    2.0753 H   0  0  0  0  0  0  0  0  0  0  0  0
   -0.6263   -1.3411   -0.2517 H   0  0  0  0  0  0  0  0  0  0  0  0
    0.0365    1.5490    0.6361 H   0  0  0  0  0  0  0  0  0  0  0  0
    2.0379    1.3853    2.1307 H   0  0  0  0  0  0  0  0  0  0  0  0
    4.3996    0.7656    2.3138 H   0  0  0  0  0  0  0  0  0  0  0  0
    3.9527   -1.9107   -1.0637 H   0  0  0  0  0  0  0  0  0  0  0  0
    1.5997   -1.2801   -1.2530 H   0  0  0  0  0  0  0  0  0  0  0  0
  1  2  1  0
  2  3  2  0
  3  4  1  0
  4  5  2  0
  5  6  1  0
  6  7  2  0
  7  8  1  0
  8  9  2  3
  9 10  1  0
 10 11  2  0
 11 12  1  0
 12 13  2  0
 13 14  1  0
 14 15  2  0
 14 16  1  0
 13 17  1  0
 17 18  2  0
  7  2  1  0
 18 10  1  0
  1 19  1  0
  1 20  1  0
  1 21  1  0
  3 22  1  0
  4 23  1  0
  5 24  1  0
  6 25  1  0
  8 26  1  0
  9 27  1  0
 11 28  1  0
 12 29  1  0
 17 30  1  0
 18 31  1  0
M  CHG  3   2   1  14   1  16  -1
M  END
$$$$
