
     RDKit          3D

 57 60  0  0  0  0  0  0  0  0999 V2000
   -5.5183    2.2733    4.5962 C   0  0  0  0  0  0  0  0  0  0  0  0
   -5.1963    2.4149    3.2175 O   0  0  0  0  0  0  0  0  0  0  0  0
   -4.4957    1.3919    2.6380 C   0  0  0  0  0  0  0  0  0  0  0  0
   -4.0847    0.2202    3.2712 C   0  0  0  0  0  0  0  0  0  0  0  0
   -3.3741   -0.7550    2.5618 C   0  0  0  0  0  0  0  0  0  0  0  0
   -3.0680   -0.5638    1.2150 C   0  0  0  0  0  0  0  0  0  0  0  0
   -2.3558   -1.4961    0.4295 N   0  0  0  0  0  0  0  0  0  0  0  0
   -1.8217   -2.7125    0.8071 C   0  0  0  0  0  0  0  0  0  0  0  0
   -1.9031   -3.2184    1.9243 O   0  0  0  0  0  0  0  0  0  0  0  0
   -1.1369   -3.4597   -0.3236 C   0  0  0  0  0  0  0  0  0  0  0  0
   -0.0636   -2.6863   -0.9321 N   0  0  0  0  0  0  0  0  0  0  0  0
    1.1822   -2.5493   -0.3795 C   0  0  0  0  0  0  0  0  0  0  0  0
    1.9256   -1.7361   -1.2089 C   0  0  0  0  0  0  0  0  0  0  0  0
    3.5534   -1.2152   -0.9182 S   0  0  0  0  0  6  0  0  0  0  0  0
    4.1723   -1.2225   -2.2289 O   0  0  0  0  0  0  0  0  0  0  0  0
    4.0082   -2.0677    0.1634 O   0  0  0  0  0  0  0  0  0  0  0  0
    3.3177    0.4605   -0.3358 C   0  0  0  0  0  0  0  0  0  0  0  0
    4.6584    1.0674   -0.0179 C   0  0  0  0  0  0  0  0  0  0  0  0
    5.3826    1.7520   -1.0047 C   0  0  0  0  0  0  0  0  0  0  0  0
    6.6292    2.3062   -0.7106 C   0  0  0  0  0  0  0  0  0  0  0  0
    7.1651    2.1806    0.5692 C   0  0  0  0  0  0  0  0  0  0  0  0
    6.4572    1.4978    1.5560 C   0  0  0  0  0  0  0  0  0  0  0  0
    5.2105    0.9421    1.2651 C   0  0  0  0  0  0  0  0  0  0  0  0
    1.1056   -1.3657   -2.3135 C   0  0  0  0  0  0  0  0  0  0  0  0
    1.2899   -0.5686   -3.4646 C   0  0  0  0  0  0  0  0  0  0  0  0
    0.2418   -0.4046   -4.3753 C   0  0  0  0  0  0  0  0  0  0  0  0
   -0.9832   -1.0238   -4.1601 C   0  0  0  0  0  0  0  0  0  0  0  0
   -1.1956   -1.8226   -3.0338 C   0  0  0  0  0  0  0  0  0  0  0  0
   -0.1400   -1.9804   -2.1186 C   0  0  0  0  0  0  0  0  0  0  0  0
   -3.4798    0.6214    0.5709 C   0  0  0  0  0  0  0  0  0  0  0  0
   -3.1332    0.7177   -0.7583 O   0  0  0  0  0  0  0  0  0  0  0  0
   -3.4773    1.9244   -1.4294 C   0  0  0  0  0  0  0  0  0  0  0  0
   -4.1915    1.5876    1.2869 C   0  0  0  0  0  0  0  0  0  0  0  0
   -4.6127    2.2104    5.2088 H   0  0  0  0  0  0  0  0  0  0  0  0
   -6.0671    3.1685    4.9043 H   0  0  0  0  0  0  0  0  0  0  0  0
   -6.1705    1.4095    4.7624 H   0  0  0  0  0  0  0  0  0  0  0  0
   -4.2997    0.0266    4.3172 H   0  0  0  0  0  0  0  0  0  0  0  0
   -3.0744   -1.6527    3.0933 H   0  0  0  0  0  0  0  0  0  0  0  0
   -2.2070   -1.1732   -0.5237 H   0  0  0  0  0  0  0  0  0  0  0  0
   -0.6913   -4.3826    0.0644 H   0  0  0  0  0  0  0  0  0  0  0  0
   -1.8704   -3.7348   -1.0862 H   0  0  0  0  0  0  0  0  0  0  0  0
    1.4454   -3.0310    0.5558 H   0  0  0  0  0  0  0  0  0  0  0  0
    2.8068    1.0333   -1.1155 H   0  0  0  0  0  0  0  0  0  0  0  0
    2.6807    0.4302    0.5538 H   0  0  0  0  0  0  0  0  0  0  0  0
    4.9887    1.8492   -2.0146 H   0  0  0  0  0  0  0  0  0  0  0  0
    7.1870    2.8290   -1.4835 H   0  0  0  0  0  0  0  0  0  0  0  0
    8.1389    2.6072    0.7954 H   0  0  0  0  0  0  0  0  0  0  0  0
    6.8804    1.3900    2.5513 H   0  0  0  0  0  0  0  0  0  0  0  0
    4.6807    0.3992    2.0462 H   0  0  0  0  0  0  0  0  0  0  0  0
    2.2476   -0.0938   -3.6648 H   0  0  0  0  0  0  0  0  0  0  0  0
    0.3938    0.2026   -5.2646 H   0  0  0  0  0  0  0  0  0  0  0  0
   -1.7851   -0.8934   -4.8837 H   0  0  0  0  0  0  0  0  0  0  0  0
   -2.1577   -2.3050   -2.8911 H   0  0  0  0  0  0  0  0  0  0  0  0
   -4.5638    2.0516   -1.4778 H   0  0  0  0  0  0  0  0  0  0  0  0
   -3.1047    1.8522   -2.4558 H   0  0  0  0  0  0  0  0  0  0  0  0
   -2.9958    2.7890   -0.9612 H   0  0  0  0  0  0  0  0  0  0  0  0
   -4.5304    2.5084    0.8231 H   0  0  0  0  0  0  0  0  0  0  0  0
  1  2  1  0
  2  3  1  0
  3  4  2  0
  4  5  1  0
  5  6  2  0
  6  7  1  0
  7  8  1  0
  8  9  2  0
  8 10  1  0
 10 11  1  0
 11 12  1  0
 12 13  2  0
 13 14  1  0
 14 15  2  0
 14 16  2  0
 14 17  1  0
 17 18  1  0
 18 19  2  0
 19 20  1  0
 20 21  2  0
 21 22  1  0
 22 23  2  0
 13 24  1  0
 24 25  2  0
 25 26  1  0
 26 27  2  0
 27 28  1  0
 28 29  2  0
  6 30  1  0
 30 31  1  0
 31 32  1  0
 30 33  2  0
 33  3  1  0
 29 11  1  0
 23 18  1  0
 29 24  1  0
  1 34  1  0
  1 35  1  0
  1 36  1  0
  4 37  1  0
  5 38  1  0
  7 39  1  0
 10 40  1  0
 10 41  1  0
 12 42  1  0
 17 43  1  0
 17 44  1  0
 19 45  1  0
 20 46  1  0
 21 47  1  0
 22 48  1  0
 23 49  1  0
 25 50  1  0
 26 51  1  0
 27 52  1  0
 28 53  1  0
 32 54  1  0
 32 55  1  0
 32 56  1  0
 33 57  1  0
M  END
$$$$
