
     RDKit          3D

 62 67  0  0  0  0  0  0  0  0999 V2000
   -2.6783   -1.1432    4.7089 C   0  0  0  0  0  0  0  0  0  0  0  0
   -2.8714   -0.9587    3.3134 O   0  0  0  0  0  0  0  0  0  0  0  0
   -2.4578   -1.9645    2.4759 C   0  0  0  0  0  0  0  0  0  0  0  0
   -1.8411   -3.1464    2.9032 C   0  0  0  0  0  0  0  0  0  0  0  0
   -1.4429   -4.1153    1.9769 C   0  0  0  0  0  0  0  0  0  0  0  0
   -1.6543   -3.9142    0.6161 C   0  0  0  0  0  0  0  0  0  0  0  0
   -2.2656   -2.7415    0.1769 C   0  0  0  0  0  0  0  0  0  0  0  0
   -2.6740   -1.7617    1.0969 C   0  0  0  0  0  0  0  0  0  0  0  0
   -3.3016   -0.5358    0.5859 C   0  0  0  0  0  0  0  0  0  0  0  0
   -5.0062   -0.4797    0.4911 S   0  0  0  0  0  0  0  0  0  0  0  0
   -5.0079    1.1111   -0.1630 C   0  0  0  0  0  0  0  0  0  0  0  0
   -6.1468    1.8675   -0.5183 C   0  0  0  0  0  0  0  0  0  0  0  0
   -5.9167    3.1289   -1.0275 C   0  0  0  0  0  0  0  0  0  0  0  0
   -4.6555    3.6345   -1.1851 C   0  0  0  0  0  0  0  0  0  0  0  0
   -3.5283    2.9131   -0.8441 C   0  0  0  0  0  0  0  0  0  0  0  0
   -3.7014    1.6031   -0.3160 C   0  0  0  0  0  0  0  0  0  0  0  0
   -2.7209    0.6326    0.1221 C   0  0  0  0  0  0  0  0  0  0  0  0
   -1.2732    0.8079    0.0901 C   0  0  0  0  0  0  0  0  0  0  0  0
   -0.5947    0.8083   -1.1330 C   0  0  0  0  0  0  0  0  0  0  0  0
    0.7935    0.9891   -1.1738 C   0  0  0  0  0  0  0  0  0  0  0  0
    1.5134    1.1712    0.0071 C   0  0  0  0  0  0  0  0  0  0  0  0
    2.8613    1.3599    0.1198 O   0  0  0  0  0  0  0  0  0  0  0  0
    3.6715    1.3444   -1.0569 C   0  0  0  0  0  0  0  0  0  0  0  0
    4.0656   -0.0854   -1.4869 C   0  0  0  0  0  0  0  0  0  0  0  0
    4.8363   -0.8450   -0.4818 N   0  0  0  0  0  0  0  0  0  0  0  0
    4.9129   -2.2823   -0.8267 C   0  0  0  0  0  0  0  0  0  0  0  0
    5.8894   -2.5957   -1.9732 C   0  0  0  0  0  0  0  0  0  0  0  0
    7.2050   -2.1046   -1.6877 O   0  0  0  0  0  0  0  0  0  0  0  0
    7.1783   -0.6947   -1.4320 C   0  0  0  0  0  0  0  0  0  0  0  0
    6.2137   -0.3461   -0.2842 C   0  0  0  0  0  0  0  0  0  0  0  0
    0.8299    1.1724    1.2268 C   0  0  0  0  0  0  0  0  0  0  0  0
   -0.5549    0.9955    1.2729 C   0  0  0  0  0  0  0  0  0  0  0  0
   -4.6588    4.8934   -1.7016 O   0  0  0  0  0  0  0  0  0  0  0  0
   -6.0753    5.1241   -1.8434 C   0  0  0  0  0  0  0  0  0  0  0  0
   -6.8811    4.0039   -1.4245 O   0  0  0  0  0  0  0  0  0  0  0  0
   -3.2333   -2.0137    5.0738 H   0  0  0  0  0  0  0  0  0  0  0  0
   -3.0738   -0.2600    5.2204 H   0  0  0  0  0  0  0  0  0  0  0  0
   -1.6132   -1.2195    4.9532 H   0  0  0  0  0  0  0  0  0  0  0  0
   -1.6508   -3.3449    3.9525 H   0  0  0  0  0  0  0  0  0  0  0  0
   -0.9630   -5.0282    2.3212 H   0  0  0  0  0  0  0  0  0  0  0  0
   -1.3420   -4.6670   -0.1028 H   0  0  0  0  0  0  0  0  0  0  0  0
   -2.4243   -2.5891   -0.8884 H   0  0  0  0  0  0  0  0  0  0  0  0
   -7.1502    1.4774   -0.3950 H   0  0  0  0  0  0  0  0  0  0  0  0
   -2.5392    3.3404   -0.9727 H   0  0  0  0  0  0  0  0  0  0  0  0
   -1.1416    0.6650   -2.0623 H   0  0  0  0  0  0  0  0  0  0  0  0
    1.2728    0.9782   -2.1455 H   0  0  0  0  0  0  0  0  0  0  0  0
    3.1938    1.8864   -1.8816 H   0  0  0  0  0  0  0  0  0  0  0  0
    4.5696    1.9270   -0.8264 H   0  0  0  0  0  0  0  0  0  0  0  0
    3.1368   -0.6339   -1.6841 H   0  0  0  0  0  0  0  0  0  0  0  0
    4.6045   -0.0274   -2.4396 H   0  0  0  0  0  0  0  0  0  0  0  0
    5.2504   -2.8164    0.0713 H   0  0  0  0  0  0  0  0  0  0  0  0
    3.9174   -2.6796   -1.0578 H   0  0  0  0  0  0  0  0  0  0  0  0
    5.5467   -2.1728   -2.9248 H   0  0  0  0  0  0  0  0  0  0  0  0
    5.9654   -3.6804   -2.1044 H   0  0  0  0  0  0  0  0  0  0  0  0
    8.1950   -0.3925   -1.1603 H   0  0  0  0  0  0  0  0  0  0  0  0
    6.9168   -0.1663   -2.3558 H   0  0  0  0  0  0  0  0  0  0  0  0
    6.5954   -0.8106    0.6345 H   0  0  0  0  0  0  0  0  0  0  0  0
    6.2283    0.7317   -0.0966 H   0  0  0  0  0  0  0  0  0  0  0  0
    1.3835    1.3105    2.1527 H   0  0  0  0  0  0  0  0  0  0  0  0
   -1.0642    1.0025    2.2336 H   0  0  0  0  0  0  0  0  0  0  0  0
   -6.2920    5.3379   -2.8964 H   0  0  0  0  0  0  0  0  0  0  0  0
   -6.3506    5.9989   -1.2429 H   0  0  0  0  0  0  0  0  0  0  0  0
  1  2  1  0
  2  3  1  0
  3  4  2  0
  4  5  1  0
  5  6  2  0
  6  7  1  0
  7  8  2  0
  8  9  1  0
  9 10  1  0
 10 11  1  0
 11 12  2  0
 12 13  1  0
 13 14  2  0
 14 15  1  0
 15 16  2  0
 16 17  1  0
 17 18  1  0
 18 19  2  0
 19 20  1  0
 20 21  2  0
 21 22  1  0
 22 23  1  0
 23 24  1  0
 24 25  1  0
 25 26  1  0
 26 27  1  0
 27 28  1  0
 28 29  1  0
 29 30  1  0
 21 31  1  0
 31 32  2  0
 14 33  1  0
 33 34  1  0
 34 35  1  0
  8  3  1  0
 17  9  2  0
 32 18  1  0
 16 11  1  0
 30 25  1  0
 35 13  1  0
  1 36  1  0
  1 37  1  0
  1 38  1  0
  4 39  1  0
  5 40  1  0
  6 41  1  0
  7 42  1  0
 12 43  1  0
 15 44  1  0
 19 45  1  0
 20 46  1  0
 23 47  1  0
 23 48  1  0
 24 49  1  0
 24 50  1  0
 26 51  1  0
 26 52  1  0
 27 53  1  0
 27 54  1  0
 29 55  1  0
 29 56  1  0
 30 57  1  0
 30 58  1  0
 31 59  1  0
 32 60  1  0
 34 61  1  0
 34 62  1  0
M  END
$$$$
