
     RDKit          3D

 34 36  0  0  0  0  0  0  0  0999 V2000
    0.3738    2.0281    1.0822 O   0  0  0  0  0  0  0  0  0  0  0  0
    0.5521    0.9161    0.6038 C   0  0  0  0  0  0  0  0  0  0  0  0
    1.9086    0.3342    0.6418 C   0  0  0  0  0  0  0  0  0  0  0  0
    2.5494    0.2030    1.8780 C   0  0  0  0  0  0  0  0  0  0  0  0
    3.8388   -0.3301    1.9350 C   0  0  0  0  0  0  0  0  0  0  0  0
    4.4830   -0.7127    0.7576 C   0  0  0  0  0  0  0  0  0  0  0  0
    6.0708   -1.3708    0.8292 Cl  0  0  0  0  0  0  0  0  0  0  0  0
    3.8540   -0.5588   -0.4792 C   0  0  0  0  0  0  0  0  0  0  0  0
    2.5642   -0.0265   -0.5406 C   0  0  0  0  0  0  0  0  0  0  0  0
   -0.4653    0.1808    0.0528 N   0  0  0  0  0  0  0  0  0  0  0  0
   -0.4479   -1.2270   -0.3702 C   0  0  0  0  0  0  0  0  0  0  0  0
   -0.6609   -1.2028   -1.8636 C   0  0  0  0  0  0  0  0  0  0  0  0
   -1.9363   -0.8440   -2.0906 C   0  0  0  0  0  0  0  0  0  0  0  0
   -2.5530   -0.5561   -0.7305 C   0  0  0  0  0  0  0  0  0  0  0  0
   -1.8469   -1.6954    0.0321 C   0  0  0  0  0  0  0  0  0  0  0  0
   -1.8813    0.7220   -0.0955 C   0  0  0  0  0  0  0  0  0  0  0  0
   -2.5980    1.1030    1.2021 C   0  0  0  0  0  0  0  0  0  0  0  0
   -2.1940    2.2598    1.7563 F   0  0  0  0  0  0  0  0  0  0  0  0
   -3.9350    1.2134    0.9950 F   0  0  0  0  0  0  0  0  0  0  0  0
   -2.4502    0.1496    2.1561 F   0  0  0  0  0  0  0  0  0  0  0  0
   -2.0416    1.9484   -0.9933 C   0  0  0  0  0  0  0  0  0  0  0  0
   -1.6343    3.1042   -0.4346 F   0  0  0  0  0  0  0  0  0  0  0  0
   -3.3418    2.1186   -1.3441 F   0  0  0  0  0  0  0  0  0  0  0  0
   -1.3515    1.8279   -2.1556 F   0  0  0  0  0  0  0  0  0  0  0  0
    2.0494    0.5201    2.7909 H   0  0  0  0  0  0  0  0  0  0  0  0
    4.3370   -0.4357    2.8955 H   0  0  0  0  0  0  0  0  0  0  0  0
    4.3675   -0.8395   -1.3954 H   0  0  0  0  0  0  0  0  0  0  0  0
    2.0872    0.1239   -1.5056 H   0  0  0  0  0  0  0  0  0  0  0  0
    0.3795   -1.8350   -0.0056 H   0  0  0  0  0  0  0  0  0  0  0  0
    0.0852   -1.4301   -2.6100 H   0  0  0  0  0  0  0  0  0  0  0  0
   -2.4094   -0.7031   -3.0520 H   0  0  0  0  0  0  0  0  0  0  0  0
   -3.6432   -0.6005   -0.7123 H   0  0  0  0  0  0  0  0  0  0  0  0
   -2.0996   -2.6973   -0.3411 H   0  0  0  0  0  0  0  0  0  0  0  0
   -2.0102   -1.6877    1.1115 H   0  0  0  0  0  0  0  0  0  0  0  0
  1  2  2  0
  2  3  1  0
  3  4  2  0
  4  5  1  0
  5  6  2  0
  6  7  1  0
  6  8  1  0
  8  9  2  0
  2 10  1  0
 10 11  1  0
 11 12  1  0
 12 13  2  0
 13 14  1  0
 14 15  1  0
 14 16  1  0
 16 17  1  0
 17 18  1  0
 17 19  1  0
 17 20  1  0
 16 21  1  0
 21 22  1  0
 21 23  1  0
 21 24  1  0
  9  3  1  0
 16 10  1  0
 15 11  1  0
  4 25  1  0
  5 26  1  0
  8 27  1  0
  9 28  1  0
 11 29  1  0
 12 30  1  0
 13 31  1  0
 14 32  1  0
 15 33  1  0
 15 34  1  0
M  END
$$$$
