
     RDKit          3D

 61 66  0  0  0  0  0  0  0  0999 V2000
    7.1256    4.2528   -0.5276 F   0  0  0  0  0  0  0  0  0  0  0  0
    7.7930    3.0991   -0.2476 C   0  0  0  0  0  0  0  0  0  0  0  0
    8.6950    2.9361   -1.2565 F   0  0  0  0  0  0  0  0  0  0  0  0
    8.5305    3.3556    0.8693 F   0  0  0  0  0  0  0  0  0  0  0  0
    6.8638    1.9211   -0.0932 C   0  0  0  0  0  0  0  0  0  0  0  0
    6.4123    1.2206   -1.2220 C   0  0  0  0  0  0  0  0  0  0  0  0
    5.5337    0.1426   -1.0866 C   0  0  0  0  0  0  0  0  0  0  0  0
    5.0832   -0.2519    0.1799 C   0  0  0  0  0  0  0  0  0  0  0  0
    4.1348   -1.4237    0.3332 C   0  0  0  0  0  0  0  0  0  0  0  0
    2.8547   -1.0581    0.9606 N   0  0  0  0  0  0  0  0  0  0  0  0
    2.0901   -0.1101    0.1162 C   0  0  0  0  0  0  0  0  0  0  0  0
    0.5744   -0.0930    0.4118 C   0  0  0  0  0  0  0  0  0  0  0  0
   -0.0327   -1.4157    0.1977 N   0  0  0  0  0  0  0  0  0  0  0  0
   -1.2274   -1.5687   -0.4988 C   0  0  0  0  0  0  0  0  0  0  0  0
   -1.3378   -2.5919   -1.3115 N   0  0  0  0  0  0  0  0  0  0  0  0
   -2.5030   -2.7840   -2.0774 C   0  0  0  0  0  0  0  0  0  0  0  0
   -2.5571   -3.8825   -2.9378 C   0  0  0  0  0  0  0  0  0  0  0  0
   -3.6843   -4.1138   -3.7306 C   0  0  0  0  0  0  0  0  0  0  0  0
   -4.7728   -3.2432   -3.6698 C   0  0  0  0  0  0  0  0  0  0  0  0
   -4.7407   -2.1394   -2.8168 C   0  0  0  0  0  0  0  0  0  0  0  0
   -3.6055   -1.9209   -2.0301 C   0  0  0  0  0  0  0  0  0  0  0  0
   -3.4943   -0.8448   -1.1344 N   0  0  0  0  0  0  0  0  0  0  0  0
   -4.4045    0.1443   -0.8454 C   0  0  0  0  0  0  0  0  0  0  0  0
   -3.8858    0.9405    0.1581 C   0  0  0  0  0  0  0  0  0  0  0  0
   -4.5904    2.0671    0.7532 C   0  0  0  0  0  0  0  0  0  0  0  0
   -5.4249    2.8890   -0.0169 C   0  0  0  0  0  0  0  0  0  0  0  0
   -6.0893    3.9724    0.5645 C   0  0  0  0  0  0  0  0  0  0  0  0
   -5.9256    4.2456    1.9209 C   0  0  0  0  0  0  0  0  0  0  0  0
   -5.0970    3.4377    2.6966 C   0  0  0  0  0  0  0  0  0  0  0  0
   -4.4314    2.3549    2.1157 C   0  0  0  0  0  0  0  0  0  0  0  0
   -2.6081    0.4035    0.4748 C   0  0  0  0  0  0  0  0  0  0  0  0
   -2.3640   -0.6672   -0.3676 C   0  0  0  0  0  0  0  0  0  0  0  0
    0.9031   -2.5501    0.2770 C   0  0  0  0  0  0  0  0  0  0  0  0
    2.0448   -2.2579    1.2715 C   0  0  0  0  0  0  0  0  0  0  0  0
    5.5295    0.4514    1.3078 C   0  0  0  0  0  0  0  0  0  0  0  0
    6.4068    1.5296    1.1732 C   0  0  0  0  0  0  0  0  0  0  0  0
    6.7465    1.5135   -2.2165 H   0  0  0  0  0  0  0  0  0  0  0  0
    5.2005   -0.3846   -1.9782 H   0  0  0  0  0  0  0  0  0  0  0  0
    3.9657   -1.9100   -0.6368 H   0  0  0  0  0  0  0  0  0  0  0  0
    4.6569   -2.1609    0.9581 H   0  0  0  0  0  0  0  0  0  0  0  0
    2.4833    0.9017    0.2680 H   0  0  0  0  0  0  0  0  0  0  0  0
    2.2181   -0.3542   -0.9476 H   0  0  0  0  0  0  0  0  0  0  0  0
    0.1192    0.6570   -0.2449 H   0  0  0  0  0  0  0  0  0  0  0  0
    0.4025    0.2172    1.4491 H   0  0  0  0  0  0  0  0  0  0  0  0
   -1.7098   -4.5611   -2.9885 H   0  0  0  0  0  0  0  0  0  0  0  0
   -3.7104   -4.9737   -4.3949 H   0  0  0  0  0  0  0  0  0  0  0  0
   -5.6485   -3.4274   -4.2876 H   0  0  0  0  0  0  0  0  0  0  0  0
   -5.6011   -1.4796   -2.7845 H   0  0  0  0  0  0  0  0  0  0  0  0
   -5.3596    0.1916   -1.3479 H   0  0  0  0  0  0  0  0  0  0  0  0
   -5.5563    2.7041   -1.0800 H   0  0  0  0  0  0  0  0  0  0  0  0
   -6.7317    4.6039   -0.0437 H   0  0  0  0  0  0  0  0  0  0  0  0
   -6.4427    5.0879    2.3729 H   0  0  0  0  0  0  0  0  0  0  0  0
   -4.9695    3.6473    3.7554 H   0  0  0  0  0  0  0  0  0  0  0  0
   -3.7989    1.7312    2.7426 H   0  0  0  0  0  0  0  0  0  0  0  0
   -1.9358    0.7722    1.2367 H   0  0  0  0  0  0  0  0  0  0  0  0
    1.3204   -2.7644   -0.7148 H   0  0  0  0  0  0  0  0  0  0  0  0
    0.3672   -3.4440    0.6181 H   0  0  0  0  0  0  0  0  0  0  0  0
    1.5996   -2.0907    2.2613 H   0  0  0  0  0  0  0  0  0  0  0  0
    2.6731   -3.1505    1.3800 H   0  0  0  0  0  0  0  0  0  0  0  0
    5.1810    0.1624    2.2981 H   0  0  0  0  0  0  0  0  0  0  0  0
    6.7319    2.0640    2.0646 H   0  0  0  0  0  0  0  0  0  0  0  0
  1  2  1  0
  2  3  1  0
  2  4  1  0
  2  5  1  0
  5  6  2  0
  6  7  1  0
  7  8  2  0
  8  9  1  0
  9 10  1  0
 10 11  1  0
 11 12  1  0
 12 13  1  0
 13 14  1  0
 14 15  2  0
 15 16  1  0
 16 17  2  0
 17 18  1  0
 18 19  2  0
 19 20  1  0
 20 21  2  0
 21 22  1  0
 22 23  1  0
 23 24  2  0
 24 25  1  0
 25 26  2  0
 26 27  1  0
 27 28  2  0
 28 29  1  0
 29 30  2  0
 24 31  1  0
 31 32  2  0
 13 33  1  0
 33 34  1  0
  8 35  1  0
 35 36  2  0
 36  5  1  0
 34 10  1  0
 32 14  1  0
 21 16  1  0
 32 22  1  0
 30 25  1  0
  6 37  1  0
  7 38  1  0
  9 39  1  0
  9 40  1  0
 11 41  1  0
 11 42  1  0
 12 43  1  0
 12 44  1  0
 17 45  1  0
 18 46  1  0
 19 47  1  0
 20 48  1  0
 23 49  1  0
 26 50  1  0
 27 51  1  0
 28 52  1  0
 29 53  1  0
 30 54  1  0
 31 55  1  0
 33 56  1  0
 33 57  1  0
 34 58  1  0
 34 59  1  0
 35 60  1  0
 36 61  1  0
M  END
$$$$
