
     RDKit          3D

 51 54  0  0  0  0  0  0  0  0999 V2000
    9.1935    1.2693   -0.6077 N   0  0  0  0  0  0  0  0  0  0  0  0
    8.3410    1.6435    0.7958 S   0  0  0  0  0  6  0  0  0  0  0  0
    8.2334    3.0805    0.8817 O   0  0  0  0  0  0  0  0  0  0  0  0
    8.9379    0.8435    1.8401 O   0  0  0  0  0  0  0  0  0  0  0  0
    6.7392    0.9825    0.4220 C   0  0  0  0  0  0  0  0  0  0  0  0
    5.7983    1.7845   -0.2249 C   0  0  0  0  0  0  0  0  0  0  0  0
    4.5328    1.2649   -0.5107 C   0  0  0  0  0  0  0  0  0  0  0  0
    4.1976   -0.0483   -0.1491 C   0  0  0  0  0  0  0  0  0  0  0  0
    2.8997   -0.4889   -0.4734 N   0  0  0  0  0  0  0  0  0  0  0  0
    2.3154   -1.7112   -0.1743 C   0  0  0  0  0  0  0  0  0  0  0  0
    2.8560   -2.6463    0.4100 O   0  0  0  0  0  0  0  0  0  0  0  0
    0.8964   -1.8449   -0.7076 C   0  0  0  0  0  0  0  0  0  0  0  0
   -0.1577   -0.5126   -0.0546 S   0  0  0  0  0  0  0  0  0  0  0  0
   -1.6750   -0.9306   -0.7872 C   0  0  0  0  0  0  0  0  0  0  0  0
   -1.8047   -1.8251   -1.7391 N   0  0  0  0  0  0  0  0  0  0  0  0
   -3.1035   -1.8084   -2.1576 N   0  0  0  0  0  0  0  0  0  0  0  0
   -3.7582   -0.9061   -1.4492 C   0  0  0  0  0  0  0  0  0  0  0  0
   -5.2431   -0.7295   -1.4882 C   0  0  0  0  0  0  0  0  0  0  0  0
   -5.9193   -1.2410   -0.2456 C   0  0  0  0  0  0  0  0  0  0  0  0
   -5.8635   -2.5111    0.2986 C   0  0  0  0  0  0  0  0  0  0  0  0
   -6.6319   -2.6248    1.4921 C   0  0  0  0  0  0  0  0  0  0  0  0
   -7.2613   -1.4438    1.8136 C   0  0  0  0  0  0  0  0  0  0  0  0
   -6.9290   -0.2096    0.6797 S   0  0  0  0  0  0  0  0  0  0  0  0
   -2.8774   -0.2749   -0.5751 N   0  0  0  0  0  0  0  0  0  0  0  0
   -3.1609    0.7880    0.3205 C   0  0  0  0  0  0  0  0  0  0  0  0
   -2.7165    0.7304    1.6471 C   0  0  0  0  0  0  0  0  0  0  0  0
   -3.0053    1.7779    2.5238 C   0  0  0  0  0  0  0  0  0  0  0  0
   -3.7308    2.8825    2.0809 C   0  0  0  0  0  0  0  0  0  0  0  0
   -4.1695    2.9449    0.7595 C   0  0  0  0  0  0  0  0  0  0  0  0
   -3.8869    1.9006   -0.1233 C   0  0  0  0  0  0  0  0  0  0  0  0
    5.1498   -0.8346    0.5059 C   0  0  0  0  0  0  0  0  0  0  0  0
    6.4188   -0.3222    0.7981 C   0  0  0  0  0  0  0  0  0  0  0  0
    8.6007    0.9138   -1.3568 H   0  0  0  0  0  0  0  0  0  0  0  0
    9.9415    0.6138   -0.3723 H   0  0  0  0  0  0  0  0  0  0  0  0
    6.0374    2.8099   -0.5012 H   0  0  0  0  0  0  0  0  0  0  0  0
    3.8112    1.9055   -1.0126 H   0  0  0  0  0  0  0  0  0  0  0  0
    2.2912    0.1915   -0.9154 H   0  0  0  0  0  0  0  0  0  0  0  0
    0.9329   -1.8108   -1.8015 H   0  0  0  0  0  0  0  0  0  0  0  0
    0.4963   -2.8150   -0.3949 H   0  0  0  0  0  0  0  0  0  0  0  0
   -5.6351   -1.3047   -2.3382 H   0  0  0  0  0  0  0  0  0  0  0  0
   -5.5084    0.3094   -1.7023 H   0  0  0  0  0  0  0  0  0  0  0  0
   -5.2891   -3.3217   -0.1378 H   0  0  0  0  0  0  0  0  0  0  0  0
   -6.7209   -3.5284    2.0828 H   0  0  0  0  0  0  0  0  0  0  0  0
   -7.9052   -1.2454    2.6596 H   0  0  0  0  0  0  0  0  0  0  0  0
   -2.1825   -0.1340    2.0355 H   0  0  0  0  0  0  0  0  0  0  0  0
   -2.6705    1.7279    3.5574 H   0  0  0  0  0  0  0  0  0  0  0  0
   -3.9542    3.6960    2.7671 H   0  0  0  0  0  0  0  0  0  0  0  0
   -4.7278    3.8125    0.4154 H   0  0  0  0  0  0  0  0  0  0  0  0
   -4.2059    2.0012   -1.1571 H   0  0  0  0  0  0  0  0  0  0  0  0
    4.9346   -1.8539    0.8130 H   0  0  0  0  0  0  0  0  0  0  0  0
    7.1383   -0.9468    1.3235 H   0  0  0  0  0  0  0  0  0  0  0  0
  1  2  1  0
  2  3  2  0
  2  4  2  0
  2  5  1  0
  5  6  2  0
  6  7  1  0
  7  8  2  0
  8  9  1  0
  9 10  1  0
 10 11  2  0
 10 12  1  0
 12 13  1  0
 13 14  1  0
 14 15  2  0
 15 16  1  0
 16 17  2  0
 17 18  1  0
 18 19  1  0
 19 20  2  0
 20 21  1  0
 21 22  2  0
 22 23  1  0
 17 24  1  0
 24 25  1  0
 25 26  2  0
 26 27  1  0
 27 28  2  0
 28 29  1  0
 29 30  2  0
  8 31  1  0
 31 32  2  0
 32  5  1  0
 24 14  1  0
 30 25  1  0
 23 19  1  0
  1 33  1  0
  1 34  1  0
  6 35  1  0
  7 36  1  0
  9 37  1  0
 12 38  1  0
 12 39  1  0
 18 40  1  0
 18 41  1  0
 20 42  1  0
 21 43  1  0
 22 44  1  0
 26 45  1  0
 27 46  1  0
 28 47  1  0
 29 48  1  0
 30 49  1  0
 31 50  1  0
 32 51  1  0
M  END
$$$$
