
     RDKit          3D

 52 54  0  0  0  0  0  0  0  0999 V2000
   -4.4529   -2.4561   -0.7647 C   0  0  0  0  0  0  0  0  0  0  0  0
   -3.9665   -1.4719   -1.7224 N   0  0  0  0  0  0  0  0  0  0  0  0
   -4.9477   -0.5221   -2.2473 C   0  0  0  0  0  0  0  0  0  0  0  0
   -5.4032    0.4733   -1.2054 C   0  0  0  0  0  0  0  0  0  0  0  0
   -6.6448    0.3284   -0.5692 C   0  0  0  0  0  0  0  0  0  0  0  0
   -7.0522    1.2424    0.4043 C   0  0  0  0  0  0  0  0  0  0  0  0
   -6.2238    2.3075    0.7529 C   0  0  0  0  0  0  0  0  0  0  0  0
   -4.9873    2.4609    0.1290 C   0  0  0  0  0  0  0  0  0  0  0  0
   -4.5781    1.5485   -0.8444 C   0  0  0  0  0  0  0  0  0  0  0  0
   -2.6143   -1.2110   -1.9435 C   0  0  0  0  0  0  0  0  0  0  0  0
   -2.2351   -0.2921   -2.6732 O   0  0  0  0  0  0  0  0  0  0  0  0
   -1.6074   -2.1259   -1.2390 C   0  0  0  0  0  0  0  0  0  0  0  0
   -0.2672   -1.6954   -1.4889 O   0  0  0  0  0  0  0  0  0  0  0  0
    0.6803   -2.4592   -0.8858 C   0  0  0  0  0  0  0  0  0  0  0  0
    0.4499   -3.4458   -0.1950 O   0  0  0  0  0  0  0  0  0  0  0  0
    2.0654   -1.9379   -1.2157 C   0  0  0  0  0  0  0  0  0  0  0  0
    3.0587   -2.5900   -0.3532 N   0  0  0  0  0  0  0  0  0  0  0  0
    4.6630   -2.1689   -0.5132 S   0  0  0  0  0  6  0  0  0  0  0  0
    5.4287   -3.1990    0.1514 O   0  0  0  0  0  0  0  0  0  0  0  0
    4.8948   -1.8157   -1.8958 O   0  0  0  0  0  0  0  0  0  0  0  0
    4.7552   -0.7033    0.4796 C   0  0  0  0  0  0  0  0  0  0  0  0
    4.7538   -0.8214    1.8700 C   0  0  0  0  0  0  0  0  0  0  0  0
    4.8308    0.3290    2.6559 C   0  0  0  0  0  0  0  0  0  0  0  0
    4.9159    1.5995    2.0619 C   0  0  0  0  0  0  0  0  0  0  0  0
    4.9924    2.7646    2.8411 C   0  0  0  0  0  0  0  0  0  0  0  0
    5.0800    4.0210    2.2393 C   0  0  0  0  0  0  0  0  0  0  0  0
    5.0934    4.1291    0.8518 C   0  0  0  0  0  0  0  0  0  0  0  0
    5.0187    2.9813    0.0613 C   0  0  0  0  0  0  0  0  0  0  0  0
    4.9285    1.7101    0.6501 C   0  0  0  0  0  0  0  0  0  0  0  0
    4.8520    0.5490   -0.1337 C   0  0  0  0  0  0  0  0  0  0  0  0
   -3.7811   -3.3140   -0.6985 H   0  0  0  0  0  0  0  0  0  0  0  0
   -4.5242   -1.9863    0.2205 H   0  0  0  0  0  0  0  0  0  0  0  0
   -5.4371   -2.8174   -1.0770 H   0  0  0  0  0  0  0  0  0  0  0  0
   -5.7999   -1.0956   -2.6324 H   0  0  0  0  0  0  0  0  0  0  0  0
   -4.5409    0.0224   -3.1076 H   0  0  0  0  0  0  0  0  0  0  0  0
   -7.3039   -0.4967   -0.8285 H   0  0  0  0  0  0  0  0  0  0  0  0
   -8.0172    1.1248    0.8906 H   0  0  0  0  0  0  0  0  0  0  0  0
   -6.5420    3.0197    1.5097 H   0  0  0  0  0  0  0  0  0  0  0  0
   -4.3403    3.2918    0.3983 H   0  0  0  0  0  0  0  0  0  0  0  0
   -3.6100    1.6798   -1.3258 H   0  0  0  0  0  0  0  0  0  0  0  0
   -1.7988   -2.0891   -0.1608 H   0  0  0  0  0  0  0  0  0  0  0  0
   -1.7351   -3.1405   -1.6319 H   0  0  0  0  0  0  0  0  0  0  0  0
    2.0860   -0.8567   -1.0521 H   0  0  0  0  0  0  0  0  0  0  0  0
    2.2638   -2.1775   -2.2645 H   0  0  0  0  0  0  0  0  0  0  0  0
    2.8872   -3.5584   -0.0747 H   0  0  0  0  0  0  0  0  0  0  0  0
    4.6943   -1.7987    2.3439 H   0  0  0  0  0  0  0  0  0  0  0  0
    4.8276    0.2276    3.7394 H   0  0  0  0  0  0  0  0  0  0  0  0
    4.9859    2.7024    3.9271 H   0  0  0  0  0  0  0  0  0  0  0  0
    5.1397    4.9148    2.8550 H   0  0  0  0  0  0  0  0  0  0  0  0
    5.1635    5.1073    0.3829 H   0  0  0  0  0  0  0  0  0  0  0  0
    5.0327    3.0883   -1.0214 H   0  0  0  0  0  0  0  0  0  0  0  0
    4.8688    0.6230   -1.2194 H   0  0  0  0  0  0  0  0  0  0  0  0
  1  2  1  0
  2  3  1  0
  3  4  1  0
  4  5  2  0
  5  6  1  0
  6  7  2  0
  7  8  1  0
  8  9  2  0
  2 10  1  0
 10 11  2  0
 10 12  1  0
 12 13  1  0
 13 14  1  0
 14 15  2  0
 14 16  1  0
 16 17  1  0
 17 18  1  0
 18 19  2  0
 18 20  2  0
 18 21  1  0
 21 22  2  0
 22 23  1  0
 23 24  2  0
 24 25  1  0
 25 26  2  0
 26 27  1  0
 27 28  2  0
 28 29  1  0
 29 30  2  0
  9  4  1  0
 30 21  1  0
 29 24  1  0
  1 31  1  0
  1 32  1  0
  1 33  1  0
  3 34  1  0
  3 35  1  0
  5 36  1  0
  6 37  1  0
  7 38  1  0
  8 39  1  0
  9 40  1  0
 12 41  1  0
 12 42  1  0
 16 43  1  0
 16 44  1  0
 17 45  1  0
 22 46  1  0
 23 47  1  0
 25 48  1  0
 26 49  1  0
 27 50  1  0
 28 51  1  0
 30 52  1  0
M  END
$$$$
