
     RDKit          3D

 36 39  0  0  0  0  0  0  0  0999 V2000
   -6.9849    1.7119    0.6572 C   0  0  0  0  0  0  0  0  0  0  0  0
   -5.9710    0.6883    0.2402 C   0  0  0  0  0  0  0  0  0  0  0  0
   -5.9471   -0.4642    0.6494 O   0  0  0  0  0  0  0  0  0  0  0  0
   -5.0943    1.2735   -0.6676 O   0  0  0  0  0  0  0  0  0  0  0  0
   -4.0852    0.4293   -1.1447 C   0  0  0  0  0  0  0  0  0  0  0  0
   -4.0643    0.1555   -2.5103 C   0  0  0  0  0  0  0  0  0  0  0  0
   -3.0489   -0.6451   -3.0294 C   0  0  0  0  0  0  0  0  0  0  0  0
   -2.0564   -1.1511   -2.1851 C   0  0  0  0  0  0  0  0  0  0  0  0
   -2.0673   -0.8498   -0.8161 C   0  0  0  0  0  0  0  0  0  0  0  0
   -1.0337   -1.3752    0.0800 C   0  0  0  0  0  0  0  0  0  0  0  0
    0.2470   -0.9803    0.1086 C   0  0  0  0  0  0  0  0  0  0  0  0
    0.9971    0.2501   -0.8924 S   0  0  0  0  0  0  0  0  0  0  0  0
    2.4875   -0.0162   -0.0879 C   0  0  0  0  0  0  0  0  0  0  0  0
    3.6881    0.4786   -0.1743 N   0  0  0  0  0  0  0  0  0  0  0  0
    4.3529   -0.2433    0.8089 C   0  0  0  0  0  0  0  0  0  0  0  0
    5.8696   -0.0203    1.1166 C   0  0  0  0  0  0  0  0  0  0  0  0
    6.6913    0.8848    0.4720 C   0  0  0  0  0  0  0  0  0  0  0  0
    7.9747    0.7595    1.0573 C   0  0  0  0  0  0  0  0  0  0  0  0
    7.8589   -0.2128    2.0219 C   0  0  0  0  0  0  0  0  0  0  0  0
    6.5895   -0.6912    2.0661 O   0  0  0  0  0  0  0  0  0  0  0  0
    3.5974   -1.1431    1.4713 N   0  0  0  0  0  0  0  0  0  0  0  0
    2.4124   -0.9650    0.8664 N   0  0  0  0  0  0  0  0  0  0  0  0
    1.2035   -1.5905    1.0829 C   0  0  0  0  0  0  0  0  0  0  0  0
    1.0174   -2.4583    1.9159 O   0  0  0  0  0  0  0  0  0  0  0  0
   -3.0885   -0.0506   -0.2940 C   0  0  0  0  0  0  0  0  0  0  0  0
   -7.5518    2.0486   -0.2143 H   0  0  0  0  0  0  0  0  0  0  0  0
   -6.4839    2.5542    1.1409 H   0  0  0  0  0  0  0  0  0  0  0  0
   -7.6797    1.2626    1.3726 H   0  0  0  0  0  0  0  0  0  0  0  0
   -4.8332    0.5555   -3.1645 H   0  0  0  0  0  0  0  0  0  0  0  0
   -3.0286   -0.8773   -4.0913 H   0  0  0  0  0  0  0  0  0  0  0  0
   -1.2770   -1.7821   -2.6068 H   0  0  0  0  0  0  0  0  0  0  0  0
   -1.3858   -2.1368    0.7760 H   0  0  0  0  0  0  0  0  0  0  0  0
    6.3906    1.5516   -0.3245 H   0  0  0  0  0  0  0  0  0  0  0  0
    8.8717    1.3084    0.8079 H   0  0  0  0  0  0  0  0  0  0  0  0
    8.5485   -0.6570    2.7264 H   0  0  0  0  0  0  0  0  0  0  0  0
   -3.1163    0.1919    0.7647 H   0  0  0  0  0  0  0  0  0  0  0  0
  1  2  1  0
  2  3  2  0
  2  4  1  0
  4  5  1  0
  5  6  2  0
  6  7  1  0
  7  8  2  0
  8  9  1  0
  9 10  1  0
 10 11  2  3
 11 12  1  0
 12 13  1  0
 13 14  2  0
 14 15  1  0
 15 16  1  0
 16 17  2  0
 17 18  1  0
 18 19  2  0
 19 20  1  0
 15 21  2  0
 21 22  1  0
 22 23  1  0
 23 24  2  0
  9 25  2  0
 25  5  1  0
 23 11  1  0
 22 13  1  0
 20 16  1  0
  1 26  1  0
  1 27  1  0
  1 28  1  0
  6 29  1  0
  7 30  1  0
  8 31  1  0
 10 32  1  0
 17 33  1  0
 18 34  1  0
 19 35  1  0
 25 36  1  0
M  END
$$$$
