
     RDKit          3D

 34 36  0  0  0  0  0  0  0  0999 V2000
    3.0639   -2.2628    0.4014 N   0  0  0  0  0  0  0  0  0  0  0  0
    2.3617   -1.2663    1.2068 C   0  0  0  0  0  0  0  0  0  0  0  0
    2.2909    0.0847    0.5000 C   0  0  0  0  0  0  0  0  0  0  0  0
    1.4064    0.1243   -0.7587 C   0  0  0  0  0  0  0  0  0  0  0  0
   -0.0404    0.2688   -0.4389 N   0  0  0  0  0  0  0  0  0  0  0  0
   -0.8599   -0.8992   -0.5170 C   0  0  0  0  0  0  0  0  0  0  0  0
   -0.3402   -2.1849   -0.7951 C   0  0  0  0  0  0  0  0  0  0  0  0
   -1.1386   -3.3348   -0.8753 C   0  0  0  0  0  0  0  0  0  0  0  0
   -2.5029   -3.2454   -0.6768 C   0  0  0  0  0  0  0  0  0  0  0  0
   -3.0568   -2.0046   -0.3954 C   0  0  0  0  0  0  0  0  0  0  0  0
   -2.2549   -0.8451   -0.3132 C   0  0  0  0  0  0  0  0  0  0  0  0
   -3.1498    0.6405    0.0590 S   0  0  0  0  0  0  0  0  0  0  0  0
   -1.8701    1.8656    0.0918 C   0  0  0  0  0  0  0  0  0  0  0  0
   -2.3175    3.1737    0.3787 C   0  0  0  0  0  0  0  0  0  0  0  0
   -1.4312    4.2413    0.4378 C   0  0  0  0  0  0  0  0  0  0  0  0
   -0.0895    4.0010    0.2099 C   0  0  0  0  0  0  0  0  0  0  0  0
    1.0344    5.3036    0.2830 Cl  0  0  0  0  0  0  0  0  0  0  0  0
    0.3634    2.7078   -0.0763 C   0  0  0  0  0  0  0  0  0  0  0  0
   -0.5069    1.5926   -0.1481 C   0  0  0  0  0  0  0  0  0  0  0  0
    3.0812   -3.1458    0.9136 H   0  0  0  0  0  0  0  0  0  0  0  0
    4.0410   -1.9882    0.2964 H   0  0  0  0  0  0  0  0  0  0  0  0
    2.9022   -1.1460    2.1528 H   0  0  0  0  0  0  0  0  0  0  0  0
    1.3604   -1.6264    1.4597 H   0  0  0  0  0  0  0  0  0  0  0  0
    1.9533    0.8263    1.2326 H   0  0  0  0  0  0  0  0  0  0  0  0
    3.3078    0.3844    0.2136 H   0  0  0  0  0  0  0  0  0  0  0  0
    1.7229    0.9628   -1.3926 H   0  0  0  0  0  0  0  0  0  0  0  0
    1.6282   -0.7164   -1.4214 H   0  0  0  0  0  0  0  0  0  0  0  0
    0.7184   -2.3595   -0.9495 H   0  0  0  0  0  0  0  0  0  0  0  0
   -0.6786   -4.2959   -1.0913 H   0  0  0  0  0  0  0  0  0  0  0  0
   -3.1311   -4.1290   -0.7368 H   0  0  0  0  0  0  0  0  0  0  0  0
   -4.1319   -1.9399   -0.2373 H   0  0  0  0  0  0  0  0  0  0  0  0
   -3.3744    3.3645    0.5591 H   0  0  0  0  0  0  0  0  0  0  0  0
   -1.7931    5.2406    0.6602 H   0  0  0  0  0  0  0  0  0  0  0  0
    1.4315    2.6077   -0.2327 H   0  0  0  0  0  0  0  0  0  0  0  0
  1  2  1  0
  2  3  1  0
  3  4  1  0
  4  5  1  0
  5  6  1  0
  6  7  2  0
  7  8  1  0
  8  9  2  0
  9 10  1  0
 10 11  2  0
 11 12  1  0
 12 13  1  0
 13 14  2  0
 14 15  1  0
 15 16  2  0
 16 17  1  0
 16 18  1  0
 18 19  2  0
 19  5  1  0
 11  6  1  0
 19 13  1  0
  1 20  1  0
  1 21  1  0
  2 22  1  0
  2 23  1  0
  3 24  1  0
  3 25  1  0
  4 26  1  0
  4 27  1  0
  7 28  1  0
  8 29  1  0
  9 30  1  0
 10 31  1  0
 14 32  1  0
 15 33  1  0
 18 34  1  0
M  END
$$$$
