
     RDKit          3D

 39 41  0  0  0  0  0  0  0  0999 V2000
   -1.6988   -2.8532   -2.8003 O   0  0  0  0  0  0  0  0  0  0  0  0
   -1.7934   -2.5442   -1.3903 S   0  0  0  0  0  6  0  0  0  0  0  0
   -2.9270   -2.9505   -0.5910 O   0  0  0  0  0  0  0  0  0  0  0  0
   -0.3801   -3.1022   -0.6536 N   0  0  0  0  0  0  0  0  0  0  0  0
   -0.3633   -3.1473    0.8315 C   0  0  0  0  0  0  0  0  0  0  0  0
    1.0330   -2.8297    1.3731 C   0  0  0  0  0  0  0  0  0  0  0  0
    1.4276   -1.4274    1.0575 C   0  0  0  0  0  0  0  0  0  0  0  0
    1.3707   -0.3055    1.8549 C   0  0  0  0  0  0  0  0  0  0  0  0
    1.7894    0.7341    1.0630 N   0  0  0  0  0  0  0  0  0  0  0  0
    1.8845    2.0906    1.3566 C   0  0  0  0  0  0  0  0  0  0  0  0
    2.3117    2.9370    0.4036 C   0  0  0  0  0  0  0  0  0  0  0  0
    2.6770    2.4054   -0.8998 C   0  0  0  0  0  0  0  0  0  0  0  0
    2.5761    1.0892   -1.1783 C   0  0  0  0  0  0  0  0  0  0  0  0
    2.1003    0.1915   -0.1799 C   0  0  0  0  0  0  0  0  0  0  0  0
    1.8618   -1.1046   -0.2113 N   0  0  0  0  0  0  0  0  0  0  0  0
   -1.6269   -0.7745   -1.2336 C   0  0  0  0  0  0  0  0  0  0  0  0
   -1.0321   -0.0465   -2.2702 C   0  0  0  0  0  0  0  0  0  0  0  0
   -0.9123    1.3380   -2.1552 C   0  0  0  0  0  0  0  0  0  0  0  0
   -1.3809    1.9808   -1.0107 C   0  0  0  0  0  0  0  0  0  0  0  0
   -1.2316    3.3083   -0.9102 F   0  0  0  0  0  0  0  0  0  0  0  0
   -1.9913    1.2715    0.0227 C   0  0  0  0  0  0  0  0  0  0  0  0
   -2.4512    2.0142    1.2402 C   0  0  0  0  0  0  0  0  0  0  0  0
   -1.4158    2.5583    1.9395 F   0  0  0  0  0  0  0  0  0  0  0  0
   -3.1088    1.2193    2.1330 F   0  0  0  0  0  0  0  0  0  0  0  0
   -3.3044    3.0341    0.9588 F   0  0  0  0  0  0  0  0  0  0  0  0
   -2.1297   -0.1209   -0.1015 C   0  0  0  0  0  0  0  0  0  0  0  0
    0.4383   -2.6079   -1.0387 H   0  0  0  0  0  0  0  0  0  0  0  0
   -1.0810   -2.4427    1.2591 H   0  0  0  0  0  0  0  0  0  0  0  0
   -0.6619   -4.1544    1.1411 H   0  0  0  0  0  0  0  0  0  0  0  0
    1.7709   -3.5176    0.9447 H   0  0  0  0  0  0  0  0  0  0  0  0
    1.0439   -2.9784    2.4592 H   0  0  0  0  0  0  0  0  0  0  0  0
    1.0655   -0.1571    2.8810 H   0  0  0  0  0  0  0  0  0  0  0  0
    1.5918    2.4115    2.3487 H   0  0  0  0  0  0  0  0  0  0  0  0
    2.3903    4.0026    0.5760 H   0  0  0  0  0  0  0  0  0  0  0  0
    3.0374    3.1063   -1.6493 H   0  0  0  0  0  0  0  0  0  0  0  0
    2.8443    0.6916   -2.1508 H   0  0  0  0  0  0  0  0  0  0  0  0
   -0.6577   -0.5488   -3.1610 H   0  0  0  0  0  0  0  0  0  0  0  0
   -0.4457    1.9207   -2.9443 H   0  0  0  0  0  0  0  0  0  0  0  0
   -2.6204   -0.6913    0.6859 H   0  0  0  0  0  0  0  0  0  0  0  0
  1  2  2  0
  2  3  2  0
  2  4  1  0
  4  5  1  0
  5  6  1  0
  6  7  1  0
  7  8  2  0
  8  9  1  0
  9 10  1  0
 10 11  2  0
 11 12  1  0
 12 13  2  0
 13 14  1  0
 14 15  2  0
  2 16  1  0
 16 17  2  0
 17 18  1  0
 18 19  2  0
 19 20  1  0
 19 21  1  0
 21 22  1  0
 22 23  1  0
 22 24  1  0
 22 25  1  0
 21 26  2  0
 15  7  1  0
 26 16  1  0
 14  9  1  0
  4 27  1  0
  5 28  1  0
  5 29  1  0
  6 30  1  0
  6 31  1  0
  8 32  1  0
 10 33  1  0
 11 34  1  0
 12 35  1  0
 13 36  1  0
 17 37  1  0
 18 38  1  0
 26 39  1  0
M  END
$$$$
