
     RDKit          3D

 57 61  0  0  0  0  0  0  0  0999 V2000
   -6.8524   -1.0511   -0.6647 C   0  0  0  0  0  0  0  0  0  0  0  0
   -5.8025    0.0134   -0.5465 C   0  0  0  0  0  0  0  0  0  0  0  0
   -4.5074   -0.2088   -1.0265 C   0  0  0  0  0  0  0  0  0  0  0  0
   -3.5224    0.7716   -0.8877 C   0  0  0  0  0  0  0  0  0  0  0  0
   -3.8136    1.9901   -0.2593 C   0  0  0  0  0  0  0  0  0  0  0  0
   -2.7477    3.0455   -0.1024 C   0  0  0  0  0  0  0  0  0  0  0  0
   -2.2526    3.1080    1.2573 N   0  0  0  0  0  0  0  0  0  0  0  0
   -2.6291    4.1101    2.0915 N   0  0  0  0  0  0  0  0  0  0  0  0
   -1.9910    3.9364    3.2494 N   0  0  0  0  0  0  0  0  0  0  0  0
   -1.2109    2.8295    3.1186 C   0  0  0  0  0  0  0  0  0  0  0  0
   -0.3164    2.1917    4.0454 C   0  0  0  0  0  0  0  0  0  0  0  0
   -0.0870    2.5558    5.1933 O   0  0  0  0  0  0  0  0  0  0  0  0
    0.2926    1.0698    3.4954 N   0  0  0  0  0  0  0  0  0  0  0  0
    0.0543    0.6024    2.2047 C   0  0  0  0  0  0  0  0  0  0  0  0
    0.8520   -0.6382    1.8224 C   0  0  0  0  0  0  0  0  0  0  0  0
    2.2897   -0.2155    1.4827 C   0  0  0  0  0  0  0  0  0  0  0  0
    2.9373   -1.1584    0.4781 C   0  0  0  0  0  0  0  0  0  0  0  0
    2.1770   -1.2081   -0.7988 N   0  0  0  0  0  0  0  0  0  0  0  0
    2.8934   -0.4195   -2.1381 S   0  0  0  0  0  6  0  0  0  0  0  0
    2.0417   -0.6211   -3.2905 O   0  0  0  0  0  0  0  0  0  0  0  0
    3.2658    0.9089   -1.6976 O   0  0  0  0  0  0  0  0  0  0  0  0
    4.3700   -1.3678   -2.4017 C   0  0  0  0  0  0  0  0  0  0  0  0
    5.6241   -0.7622   -2.2857 C   0  0  0  0  0  0  0  0  0  0  0  0
    6.7729   -1.5255   -2.4941 C   0  0  0  0  0  0  0  0  0  0  0  0
    6.6640   -2.8795   -2.8189 C   0  0  0  0  0  0  0  0  0  0  0  0
    5.4075   -3.4768   -2.9400 C   0  0  0  0  0  0  0  0  0  0  0  0
    4.2540   -2.7213   -2.7334 C   0  0  0  0  0  0  0  0  0  0  0  0
    0.7166   -0.9460   -0.6785 C   0  0  0  0  0  0  0  0  0  0  0  0
    0.1994   -1.4204    0.6738 C   0  0  0  0  0  0  0  0  0  0  0  0
   -0.7404    1.1871    1.3519 N   0  0  0  0  0  0  0  0  0  0  0  0
   -1.3489    2.2842    1.8652 C   0  0  0  0  0  0  0  0  0  0  0  0
   -5.1069    2.2031    0.2372 C   0  0  0  0  0  0  0  0  0  0  0  0
   -6.0904    1.2213    0.0983 C   0  0  0  0  0  0  0  0  0  0  0  0
   -6.8567   -1.6739    0.2351 H   0  0  0  0  0  0  0  0  0  0  0  0
   -7.8445   -0.6062   -0.7934 H   0  0  0  0  0  0  0  0  0  0  0  0
   -6.6677   -1.6894   -1.5350 H   0  0  0  0  0  0  0  0  0  0  0  0
   -4.2566   -1.1487   -1.5132 H   0  0  0  0  0  0  0  0  0  0  0  0
   -2.5226    0.5734   -1.2688 H   0  0  0  0  0  0  0  0  0  0  0  0
   -1.8906    2.8510   -0.7575 H   0  0  0  0  0  0  0  0  0  0  0  0
   -3.1434    4.0311   -0.3745 H   0  0  0  0  0  0  0  0  0  0  0  0
    0.9226    0.5865    4.1182 H   0  0  0  0  0  0  0  0  0  0  0  0
    0.8728   -1.2944    2.7029 H   0  0  0  0  0  0  0  0  0  0  0  0
    2.3071    0.8062    1.0806 H   0  0  0  0  0  0  0  0  0  0  0  0
    2.8876   -0.1902    2.4019 H   0  0  0  0  0  0  0  0  0  0  0  0
    3.9752   -0.8525    0.3143 H   0  0  0  0  0  0  0  0  0  0  0  0
    2.9822   -2.1765    0.8834 H   0  0  0  0  0  0  0  0  0  0  0  0
    5.7143    0.2935   -2.0403 H   0  0  0  0  0  0  0  0  0  0  0  0
    7.7544   -1.0648   -2.4099 H   0  0  0  0  0  0  0  0  0  0  0  0
    7.5622   -3.4699   -2.9855 H   0  0  0  0  0  0  0  0  0  0  0  0
    5.3292   -4.5295   -3.2014 H   0  0  0  0  0  0  0  0  0  0  0  0
    3.2740   -3.1825   -2.8347 H   0  0  0  0  0  0  0  0  0  0  0  0
    0.5076    0.1201   -0.8195 H   0  0  0  0  0  0  0  0  0  0  0  0
    0.1995   -1.5025   -1.4683 H   0  0  0  0  0  0  0  0  0  0  0  0
    0.4350   -2.4866    0.7911 H   0  0  0  0  0  0  0  0  0  0  0  0
   -0.8936   -1.3429    0.7078 H   0  0  0  0  0  0  0  0  0  0  0  0
   -5.3557    3.1340    0.7448 H   0  0  0  0  0  0  0  0  0  0  0  0
   -7.0846    1.4062    0.4995 H   0  0  0  0  0  0  0  0  0  0  0  0
  1  2  1  0
  2  3  2  0
  3  4  1  0
  4  5  2  0
  5  6  1  0
  6  7  1  0
  7  8  1  0
  8  9  2  0
  9 10  1  0
 10 11  1  0
 11 12  2  0
 11 13  1  0
 13 14  1  0
 14 15  1  0
 15 16  1  0
 16 17  1  0
 17 18  1  0
 18 19  1  0
 19 20  2  0
 19 21  2  0
 19 22  1  0
 22 23  2  0
 23 24  1  0
 24 25  2  0
 25 26  1  0
 26 27  2  0
 18 28  1  0
 28 29  1  0
 14 30  2  0
 30 31  1  0
  5 32  1  0
 32 33  2  0
 33  2  1  0
 31  7  1  0
 31 10  2  0
 29 15  1  0
 27 22  1  0
  1 34  1  0
  1 35  1  0
  1 36  1  0
  3 37  1  0
  4 38  1  0
  6 39  1  0
  6 40  1  0
 13 41  1  0
 15 42  1  0
 16 43  1  0
 16 44  1  0
 17 45  1  0
 17 46  1  0
 23 47  1  0
 24 48  1  0
 25 49  1  0
 26 50  1  0
 27 51  1  0
 28 52  1  0
 28 53  1  0
 29 54  1  0
 29 55  1  0
 32 56  1  0
 33 57  1  0
M  END
$$$$
