
     RDKit          3D

 53 54  0  0  0  0  0  0  0  0999 V2000
   -5.5395    1.0352    0.1311 C   0  0  0  0  0  0  0  0  0  0  0  0
   -6.0343   -0.3176    0.6114 C   0  0  0  0  0  0  0  0  0  0  0  0
   -4.9693   -1.3354    0.6584 N   0  0  0  0  0  0  0  0  0  0  0  0
   -4.5155   -1.8989   -0.6249 C   0  0  0  0  0  0  0  0  0  0  0  0
   -5.3111   -3.1543   -0.9398 C   0  0  0  0  0  0  0  0  0  0  0  0
   -4.0501   -1.5671    2.0536 S   0  0  0  0  0  6  0  0  0  0  0  0
   -3.3181   -2.8087    1.9208 O   0  0  0  0  0  0  0  0  0  0  0  0
   -4.8997   -1.3200    3.2003 O   0  0  0  0  0  0  0  0  0  0  0  0
   -2.8493   -0.2526    1.9901 C   0  0  0  0  0  0  0  0  0  0  0  0
   -2.9807    0.8498    2.8420 C   0  0  0  0  0  0  0  0  0  0  0  0
   -2.0266    1.8658    2.8080 C   0  0  0  0  0  0  0  0  0  0  0  0
   -0.9419    1.7747    1.9328 C   0  0  0  0  0  0  0  0  0  0  0  0
   -0.7969    0.6612    1.0915 C   0  0  0  0  0  0  0  0  0  0  0  0
    0.3764    0.6202    0.1774 C   0  0  0  0  0  0  0  0  0  0  0  0
    1.2916    1.4273    0.2146 O   0  0  0  0  0  0  0  0  0  0  0  0
    0.2470   -0.3954   -0.7114 O   0  0  0  0  0  0  0  0  0  0  0  0
    1.3537   -0.5293   -1.6016 C   0  0  0  0  0  0  0  0  0  0  0  0
    2.6320   -1.0303   -0.9214 C   0  0  0  0  0  0  0  0  0  0  0  0
    2.6451   -1.5645    0.1852 O   0  0  0  0  0  0  0  0  0  0  0  0
    3.7757   -0.8353   -1.6721 N   0  0  0  0  0  0  0  0  0  0  0  0
    5.0835   -1.0246   -1.0725 C   0  0  0  0  0  0  0  0  0  0  0  0
    5.4944    0.1526   -0.1664 C   0  0  0  0  0  0  0  0  0  0  0  0
    6.0839    1.2942   -0.8708 N   0  0  0  0  0  0  0  0  0  0  0  0
    7.2285    1.9466   -0.4616 C   0  0  0  0  0  0  0  0  0  0  0  0
    7.8880    1.5876    0.6760 O   0  0  0  0  0  0  0  0  0  0  0  0
    7.6181    2.9545   -1.2468 C   0  0  0  0  0  0  0  0  0  0  0  0
    6.5263    3.1881   -2.5688 S   0  0  0  0  0  0  0  0  0  0  0  0
    5.5004    1.8528   -2.0077 C   0  0  0  0  0  0  0  0  0  0  0  0
    4.4779    1.5181   -2.5858 O   0  0  0  0  0  0  0  0  0  0  0  0
   -1.7481   -0.3658    1.1343 C   0  0  0  0  0  0  0  0  0  0  0  0
   -4.8433    1.4856    0.8407 H   0  0  0  0  0  0  0  0  0  0  0  0
   -6.3841    1.7227    0.0203 H   0  0  0  0  0  0  0  0  0  0  0  0
   -5.0339    0.9687   -0.8365 H   0  0  0  0  0  0  0  0  0  0  0  0
   -6.8265   -0.6719   -0.0589 H   0  0  0  0  0  0  0  0  0  0  0  0
   -6.5073   -0.2122    1.5932 H   0  0  0  0  0  0  0  0  0  0  0  0
   -3.4517   -2.1449   -0.5961 H   0  0  0  0  0  0  0  0  0  0  0  0
   -4.6369   -1.1726   -1.4337 H   0  0  0  0  0  0  0  0  0  0  0  0
   -5.1983   -3.9031   -0.1494 H   0  0  0  0  0  0  0  0  0  0  0  0
   -4.9705   -3.5956   -1.8820 H   0  0  0  0  0  0  0  0  0  0  0  0
   -6.3789   -2.9317   -1.0366 H   0  0  0  0  0  0  0  0  0  0  0  0
   -3.8197    0.9236    3.5318 H   0  0  0  0  0  0  0  0  0  0  0  0
   -2.1242    2.7274    3.4653 H   0  0  0  0  0  0  0  0  0  0  0  0
   -0.2026    2.5743    1.9138 H   0  0  0  0  0  0  0  0  0  0  0  0
    1.0742   -1.2704   -2.3583 H   0  0  0  0  0  0  0  0  0  0  0  0
    1.5360    0.4199   -2.1197 H   0  0  0  0  0  0  0  0  0  0  0  0
    3.7304   -0.1067   -2.3867 H   0  0  0  0  0  0  0  0  0  0  0  0
    5.0509   -1.9441   -0.4769 H   0  0  0  0  0  0  0  0  0  0  0  0
    5.8037   -1.1679   -1.8843 H   0  0  0  0  0  0  0  0  0  0  0  0
    4.6397    0.5301    0.4066 H   0  0  0  0  0  0  0  0  0  0  0  0
    6.2284   -0.2407    0.5451 H   0  0  0  0  0  0  0  0  0  0  0  0
    7.2152    1.3599    1.3401 H   0  0  0  0  0  0  0  0  0  0  0  0
    8.4870    3.5755   -1.0776 H   0  0  0  0  0  0  0  0  0  0  0  0
   -1.6292   -1.2549    0.5204 H   0  0  0  0  0  0  0  0  0  0  0  0
  1  2  1  0
  2  3  1  0
  3  4  1  0
  4  5  1  0
  3  6  1  0
  6  7  2  0
  6  8  2  0
  6  9  1  0
  9 10  2  0
 10 11  1  0
 11 12  2  0
 12 13  1  0
 13 14  1  0
 14 15  2  0
 14 16  1  0
 16 17  1  0
 17 18  1  0
 18 19  2  0
 18 20  1  0
 20 21  1  0
 21 22  1  0
 22 23  1  0
 23 24  1  0
 24 25  1  0
 24 26  2  0
 26 27  1  0
 27 28  1  0
 28 29  2  0
 13 30  2  0
 30  9  1  0
 28 23  1  0
  1 31  1  0
  1 32  1  0
  1 33  1  0
  2 34  1  0
  2 35  1  0
  4 36  1  0
  4 37  1  0
  5 38  1  0
  5 39  1  0
  5 40  1  0
 10 41  1  0
 11 42  1  0
 12 43  1  0
 17 44  1  0
 17 45  1  0
 20 46  1  0
 21 47  1  0
 21 48  1  0
 22 49  1  0
 22 50  1  0
 25 51  1  0
 26 52  1  0
 30 53  1  0
M  END
$$$$
