
     RDKit          3D

 35 36  0  0  0  0  0  0  0  0999 V2000
   -5.9085    0.0874    0.0478 C   0  0  0  0  0  0  0  0  0  0  0  0
   -4.8581   -0.8587   -0.4721 C   0  0  0  0  0  0  0  0  0  0  0  0
   -5.0878   -2.0598   -0.5944 O   0  0  0  0  0  0  0  0  0  0  0  0
   -3.5135   -0.3196   -0.8353 C   0  0  0  0  0  0  0  0  0  0  0  0
   -3.1544    1.0135   -0.6070 C   0  0  0  0  0  0  0  0  0  0  0  0
   -1.8791    1.4690   -0.9640 C   0  0  0  0  0  0  0  0  0  0  0  0
   -0.9516    0.5976   -1.5399 C   0  0  0  0  0  0  0  0  0  0  0  0
    0.3279    1.1106   -1.8892 N   0  0  0  0  0  0  0  0  0  0  0  0
    1.7446    0.3519   -1.3707 S   0  0  0  0  0  6  0  0  0  0  0  0
    1.7483   -1.0126   -1.8519 O   0  0  0  0  0  0  0  0  0  0  0  0
    2.7987    1.2805   -1.7281 O   0  0  0  0  0  0  0  0  0  0  0  0
    1.5481    0.3654    0.4212 C   0  0  0  0  0  0  0  0  0  0  0  0
    2.7896   -0.2024    1.0613 C   0  0  0  0  0  0  0  0  0  0  0  0
    2.9019   -1.5819    1.2936 C   0  0  0  0  0  0  0  0  0  0  0  0
    4.0527   -2.1098    1.8834 C   0  0  0  0  0  0  0  0  0  0  0  0
    5.0986   -1.2631    2.2417 C   0  0  0  0  0  0  0  0  0  0  0  0
    6.5151   -1.9133    2.9701 Cl  0  0  0  0  0  0  0  0  0  0  0  0
    5.0051    0.1074    2.0116 C   0  0  0  0  0  0  0  0  0  0  0  0
    3.8547    0.6368    1.4218 C   0  0  0  0  0  0  0  0  0  0  0  0
   -1.3124   -0.7251   -1.7861 C   0  0  0  0  0  0  0  0  0  0  0  0
   -2.5843   -1.1842   -1.4283 C   0  0  0  0  0  0  0  0  0  0  0  0
   -6.0783    0.8980   -0.6656 H   0  0  0  0  0  0  0  0  0  0  0  0
   -5.6115    0.4810    1.0232 H   0  0  0  0  0  0  0  0  0  0  0  0
   -6.8517   -0.4547    0.1688 H   0  0  0  0  0  0  0  0  0  0  0  0
   -3.8454    1.7189   -0.1541 H   0  0  0  0  0  0  0  0  0  0  0  0
   -1.6237    2.5101   -0.7827 H   0  0  0  0  0  0  0  0  0  0  0  0
    0.4387    2.1210   -1.9698 H   0  0  0  0  0  0  0  0  0  0  0  0
    1.3818    1.3999    0.7375 H   0  0  0  0  0  0  0  0  0  0  0  0
    0.6725   -0.2355    0.6830 H   0  0  0  0  0  0  0  0  0  0  0  0
    2.0994   -2.2600    1.0064 H   0  0  0  0  0  0  0  0  0  0  0  0
    4.1286   -3.1807    2.0534 H   0  0  0  0  0  0  0  0  0  0  0  0
    5.8253    0.7673    2.2817 H   0  0  0  0  0  0  0  0  0  0  0  0
    3.8051    1.7083    1.2357 H   0  0  0  0  0  0  0  0  0  0  0  0
   -0.6283   -1.4142   -2.2759 H   0  0  0  0  0  0  0  0  0  0  0  0
   -2.8482   -2.2224   -1.6274 H   0  0  0  0  0  0  0  0  0  0  0  0
  1  2  1  0
  2  3  2  0
  2  4  1  0
  4  5  2  0
  5  6  1  0
  6  7  2  0
  7  8  1  0
  8  9  1  0
  9 10  2  0
  9 11  2  0
  9 12  1  0
 12 13  1  0
 13 14  2  0
 14 15  1  0
 15 16  2  0
 16 17  1  0
 16 18  1  0
 18 19  2  0
  7 20  1  0
 20 21  2  0
 21  4  1  0
 19 13  1  0
  1 22  1  0
  1 23  1  0
  1 24  1  0
  5 25  1  0
  6 26  1  0
  8 27  1  0
 12 28  1  0
 12 29  1  0
 14 30  1  0
 15 31  1  0
 18 32  1  0
 19 33  1  0
 20 34  1  0
 21 35  1  0
M  END
$$$$
