
     RDKit          3D

 57 59  0  0  0  0  0  0  0  0999 V2000
   -1.6221   -3.8839   -4.1934 C   0  0  0  0  0  0  0  0  0  0  0  0
   -1.3199   -2.7137   -3.3896 N   0  0  0  0  0  0  0  0  0  0  0  0
   -2.0347   -2.2814   -2.2888 C   0  0  0  0  0  0  0  0  0  0  0  0
   -3.3976   -3.1018   -1.7316 S   0  0  0  0  0  0  0  0  0  0  0  0
   -1.5266   -1.0966   -1.7129 N   0  0  0  0  0  0  0  0  0  0  0  0
   -2.0839   -0.5543   -0.4530 C   0  0  0  0  0  0  0  0  0  0  0  0
   -3.2699    0.3958   -0.6760 C   0  0  0  0  0  0  0  0  0  0  0  0
   -3.7812    0.9583    0.6279 C   0  0  0  0  0  0  0  0  0  0  0  0
   -3.4177    2.2451    1.0428 C   0  0  0  0  0  0  0  0  0  0  0  0
   -3.8731    2.7460    2.2623 C   0  0  0  0  0  0  0  0  0  0  0  0
   -4.6947    1.9670    3.0770 C   0  0  0  0  0  0  0  0  0  0  0  0
   -5.0794    0.6837    2.6739 C   0  0  0  0  0  0  0  0  0  0  0  0
   -5.9346   -0.1693    3.5632 C   0  0  0  0  0  0  0  0  0  0  0  0
   -4.6079    0.1823    1.4537 C   0  0  0  0  0  0  0  0  0  0  0  0
   -0.5829   -0.2086   -2.4221 C   0  0  0  0  0  0  0  0  0  0  0  0
    0.7822   -0.2458   -1.7913 C   0  0  0  0  0  0  0  0  0  0  0  0
    1.2218    0.6854   -0.9238 C   0  0  0  0  0  0  0  0  0  0  0  0
    2.5669    0.6165   -0.3517 C   0  0  0  0  0  0  0  0  0  0  0  0
    3.0155    1.5599    0.5770 C   0  0  0  0  0  0  0  0  0  0  0  0
    4.3092    1.4672    1.1065 C   0  0  0  0  0  0  0  0  0  0  0  0
    4.8364    2.3475    2.0195 O   0  0  0  0  0  0  0  0  0  0  0  0
    3.9763    3.3436    2.5532 C   0  0  0  0  0  0  0  0  0  0  0  0
    5.1640    0.4210    0.6944 C   0  0  0  0  0  0  0  0  0  0  0  0
    6.4157    0.4115    1.2594 O   0  0  0  0  0  0  0  0  0  0  0  0
    7.3123   -0.6192    0.8707 C   0  0  0  0  0  0  0  0  0  0  0  0
    4.7093   -0.5223   -0.2333 C   0  0  0  0  0  0  0  0  0  0  0  0
    3.4167   -0.4190   -0.7468 C   0  0  0  0  0  0  0  0  0  0  0  0
    2.9578   -1.3588   -1.6764 N   0  0  0  0  0  0  0  0  0  0  0  0
    1.7073   -1.3314   -2.2326 C   0  0  0  0  0  0  0  0  0  0  0  0
    1.3716   -2.1637   -3.0709 O   0  0  0  0  0  0  0  0  0  0  0  0
   -2.6571   -3.8461   -4.5421 H   0  0  0  0  0  0  0  0  0  0  0  0
   -1.4571   -4.7851   -3.5971 H   0  0  0  0  0  0  0  0  0  0  0  0
   -0.9490   -3.8875   -5.0543 H   0  0  0  0  0  0  0  0  0  0  0  0
   -0.3196   -2.5245   -3.3377 H   0  0  0  0  0  0  0  0  0  0  0  0
   -2.3746   -1.3823    0.2028 H   0  0  0  0  0  0  0  0  0  0  0  0
   -1.2845   -0.0349    0.0862 H   0  0  0  0  0  0  0  0  0  0  0  0
   -4.0922   -0.1109   -1.1941 H   0  0  0  0  0  0  0  0  0  0  0  0
   -2.9776    1.2200   -1.3379 H   0  0  0  0  0  0  0  0  0  0  0  0
   -2.7789    2.8666    0.4203 H   0  0  0  0  0  0  0  0  0  0  0  0
   -3.5868    3.7451    2.5806 H   0  0  0  0  0  0  0  0  0  0  0  0
   -5.0361    2.3687    4.0284 H   0  0  0  0  0  0  0  0  0  0  0  0
   -5.3032   -0.7666    4.2281 H   0  0  0  0  0  0  0  0  0  0  0  0
   -6.6041    0.4481    4.1714 H   0  0  0  0  0  0  0  0  0  0  0  0
   -6.5631   -0.8431    2.9712 H   0  0  0  0  0  0  0  0  0  0  0  0
   -4.8882   -0.8232    1.1410 H   0  0  0  0  0  0  0  0  0  0  0  0
   -0.5282   -0.4426   -3.4900 H   0  0  0  0  0  0  0  0  0  0  0  0
   -0.9914    0.8085   -2.3842 H   0  0  0  0  0  0  0  0  0  0  0  0
    0.5823    1.5050   -0.6130 H   0  0  0  0  0  0  0  0  0  0  0  0
    2.3455    2.3593    0.8746 H   0  0  0  0  0  0  0  0  0  0  0  0
    3.6594    4.0471    1.7760 H   0  0  0  0  0  0  0  0  0  0  0  0
    4.5421    3.9085    3.3002 H   0  0  0  0  0  0  0  0  0  0  0  0
    3.1142    2.8958    3.0583 H   0  0  0  0  0  0  0  0  0  0  0  0
    6.9232   -1.6057    1.1442 H   0  0  0  0  0  0  0  0  0  0  0  0
    7.5362   -0.5641   -0.1997 H   0  0  0  0  0  0  0  0  0  0  0  0
    8.2502   -0.4698    1.4143 H   0  0  0  0  0  0  0  0  0  0  0  0
    5.3423   -1.3367   -0.5650 H   0  0  0  0  0  0  0  0  0  0  0  0
    3.5595   -2.1106   -1.9839 H   0  0  0  0  0  0  0  0  0  0  0  0
  1  2  1  0
  2  3  1  0
  3  4  2  0
  3  5  1  0
  5  6  1  0
  6  7  1  0
  7  8  1  0
  8  9  2  0
  9 10  1  0
 10 11  2  0
 11 12  1  0
 12 13  1  0
 12 14  2  0
  5 15  1  0
 15 16  1  0
 16 17  2  0
 17 18  1  0
 18 19  2  0
 19 20  1  0
 20 21  1  0
 21 22  1  0
 20 23  2  0
 23 24  1  0
 24 25  1  0
 23 26  1  0
 26 27  2  0
 27 28  1  0
 28 29  1  0
 29 30  2  0
 14  8  1  0
 29 16  1  0
 27 18  1  0
  1 31  1  0
  1 32  1  0
  1 33  1  0
  2 34  1  0
  6 35  1  0
  6 36  1  0
  7 37  1  0
  7 38  1  0
  9 39  1  0
 10 40  1  0
 11 41  1  0
 13 42  1  0
 13 43  1  0
 13 44  1  0
 14 45  1  0
 15 46  1  0
 15 47  1  0
 17 48  1  0
 19 49  1  0
 22 50  1  0
 22 51  1  0
 22 52  1  0
 25 53  1  0
 25 54  1  0
 25 55  1  0
 26 56  1  0
 28 57  1  0
M  END
$$$$
