
     RDKit          3D

 34 35  0  0  0  0  0  0  0  0999 V2000
    2.6199    3.2763    1.8533 C   0  0  0  0  0  0  0  0  0  0  0  0
    2.1500    1.9775    1.2317 C   0  0  0  0  0  0  0  0  0  0  0  0
    0.9184    1.9469    0.8122 N   0  0  0  0  0  0  0  0  0  0  0  0
    0.4450    0.8418    0.1731 N   0  0  0  0  0  0  0  0  0  0  0  0
   -0.8762    0.7987   -0.2644 C   0  0  0  0  0  0  0  0  0  0  0  0
   -1.6731    1.7232   -0.1577 O   0  0  0  0  0  0  0  0  0  0  0  0
   -1.1832   -0.5258   -0.9308 C   0  0  0  0  0  0  0  0  0  0  0  0
   -2.6450   -0.7630   -1.3044 C   0  0  0  0  0  0  0  0  0  0  0  0
   -3.2293    0.2667   -2.2686 C   0  0  0  0  0  0  0  0  0  0  0  0
   -3.4669   -0.8450   -0.1285 O   0  0  0  0  0  0  0  0  0  0  0  0
   -3.7919   -2.2245    0.0202 C   0  0  0  0  0  0  0  0  0  0  0  0
   -3.7832   -2.7397   -1.3904 C   0  0  0  0  0  0  0  0  0  0  0  0
   -2.6817   -2.0491   -1.9795 O   0  0  0  0  0  0  0  0  0  0  0  0
    3.1436    0.9175    1.1243 C   0  0  0  0  0  0  0  0  0  0  0  0
    4.4681    1.0352    0.7431 C   0  0  0  0  0  0  0  0  0  0  0  0
    5.1627   -0.2089    0.7849 C   0  0  0  0  0  0  0  0  0  0  0  0
    4.3540   -1.2347    1.2174 C   0  0  0  0  0  0  0  0  0  0  0  0
    2.7728   -0.6953    1.5739 S   0  0  0  0  0  0  0  0  0  0  0  0
    1.7634    3.8747    2.1780 H   0  0  0  0  0  0  0  0  0  0  0  0
    3.2565    3.0762    2.7200 H   0  0  0  0  0  0  0  0  0  0  0  0
    3.1870    3.8481    1.1129 H   0  0  0  0  0  0  0  0  0  0  0  0
    1.0494    0.0321    0.0781 H   0  0  0  0  0  0  0  0  0  0  0  0
   -0.5551   -0.6054   -1.8277 H   0  0  0  0  0  0  0  0  0  0  0  0
   -0.8591   -1.3225   -0.2474 H   0  0  0  0  0  0  0  0  0  0  0  0
   -2.5921    0.3878   -3.1508 H   0  0  0  0  0  0  0  0  0  0  0  0
   -4.2114   -0.0615   -2.6291 H   0  0  0  0  0  0  0  0  0  0  0  0
   -3.3867    1.2405   -1.7987 H   0  0  0  0  0  0  0  0  0  0  0  0
   -4.7558   -2.3443    0.5207 H   0  0  0  0  0  0  0  0  0  0  0  0
   -3.0092   -2.6946    0.6253 H   0  0  0  0  0  0  0  0  0  0  0  0
   -4.6938   -2.4598   -1.9306 H   0  0  0  0  0  0  0  0  0  0  0  0
   -3.6416   -3.8212   -1.4567 H   0  0  0  0  0  0  0  0  0  0  0  0
    4.9220    1.9701    0.4346 H   0  0  0  0  0  0  0  0  0  0  0  0
    6.2042   -0.3426    0.5169 H   0  0  0  0  0  0  0  0  0  0  0  0
    4.6185   -2.2754    1.3503 H   0  0  0  0  0  0  0  0  0  0  0  0
  1  2  1  0
  2  3  2  3
  3  4  1  0
  4  5  1  0
  5  6  2  0
  5  7  1  0
  7  8  1  0
  8  9  1  0
  8 10  1  0
 10 11  1  0
 11 12  1  0
 12 13  1  0
  2 14  1  0
 14 15  2  0
 15 16  1  0
 16 17  2  0
 17 18  1  0
 13  8  1  0
 18 14  1  0
  1 19  1  0
  1 20  1  0
  1 21  1  0
  4 22  1  0
  7 23  1  0
  7 24  1  0
  9 25  1  0
  9 26  1  0
  9 27  1  0
 11 28  1  0
 11 29  1  0
 12 30  1  0
 12 31  1  0
 15 32  1  0
 16 33  1  0
 17 34  1  0
M  END
$$$$
