
     RDKit          3D

 60 65  0  0  0  0  0  0  0  0999 V2000
   -1.1258   -1.7235    4.4500 O   0  0  0  0  0  0  0  0  0  0  0  0
   -1.7154   -1.3826    3.4312 C   0  0  0  0  0  0  0  0  0  0  0  0
   -1.0323   -1.0731    2.2609 N   0  0  0  0  0  0  0  0  0  0  0  0
   -1.6490   -0.7090    1.0689 C   0  0  0  0  0  0  0  0  0  0  0  0
   -0.7332   -0.4177   -0.1079 C   0  0  0  0  0  0  0  0  0  0  0  0
   -0.0200   -1.6880   -0.5925 C   0  0  0  0  0  0  0  0  0  0  0  0
    1.3562   -1.4062   -1.1925 C   0  0  0  0  0  0  0  0  0  0  0  0
    1.3254   -0.1124   -1.8927 N   0  0  0  0  0  0  0  0  0  0  0  0
    2.3720    0.0987   -3.2148 S   0  0  0  0  0  6  0  0  0  0  0  0
    2.1743    1.4356   -3.7334 O   0  0  0  0  0  0  0  0  0  0  0  0
    2.2552   -1.0653   -4.0694 O   0  0  0  0  0  0  0  0  0  0  0  0
    3.9846    0.0484   -2.4635 C   0  0  0  0  0  0  0  0  0  0  0  0
    4.6182    1.2364   -2.0845 C   0  0  0  0  0  0  0  0  0  0  0  0
    5.9006    1.1876   -1.5327 C   0  0  0  0  0  0  0  0  0  0  0  0
    6.5465   -0.0392   -1.3795 C   0  0  0  0  0  0  0  0  0  0  0  0
    5.9025   -1.2235   -1.7545 C   0  0  0  0  0  0  0  0  0  0  0  0
    4.6311   -1.1822   -2.3206 C   0  0  0  0  0  0  0  0  0  0  0  0
    6.4648   -2.4635   -1.6073 O   0  0  0  0  0  0  0  0  0  0  0  0
    7.6138   -2.4247   -0.7535 C   0  0  0  0  0  0  0  0  0  0  0  0
    8.5025   -1.2413   -1.1023 C   0  0  0  0  0  0  0  0  0  0  0  0
    7.8147   -0.0099   -0.8568 O   0  0  0  0  0  0  0  0  0  0  0  0
    1.0811    1.0706   -1.0323 C   0  0  0  0  0  0  0  0  0  0  0  0
    0.2719    0.6932    0.2104 C   0  0  0  0  0  0  0  0  0  0  0  0
   -2.9418   -0.6154    0.9130 N   0  0  0  0  0  0  0  0  0  0  0  0
   -3.6319   -0.9018    2.0447 C   0  0  0  0  0  0  0  0  0  0  0  0
   -3.1389   -1.2664    3.2744 C   0  0  0  0  0  0  0  0  0  0  0  0
   -4.1538   -1.4772    4.1542 N   0  0  0  0  0  0  0  0  0  0  0  0
   -5.2970   -1.2535    3.5018 N   0  0  0  0  0  0  0  0  0  0  0  0
   -4.9869   -0.9028    2.2292 N   0  0  0  0  0  0  0  0  0  0  0  0
   -6.0223   -0.6829    1.2398 C   0  0  0  0  0  0  0  0  0  0  0  0
   -6.4869    0.7460    1.2192 C   0  0  0  0  0  0  0  0  0  0  0  0
   -5.7081    1.7538    0.6316 C   0  0  0  0  0  0  0  0  0  0  0  0
   -6.1587    3.0751    0.6151 C   0  0  0  0  0  0  0  0  0  0  0  0
   -7.3867    3.4078    1.1868 C   0  0  0  0  0  0  0  0  0  0  0  0
   -8.1657    2.4173    1.7765 C   0  0  0  0  0  0  0  0  0  0  0  0
   -7.7130    1.0997    1.7872 C   0  0  0  0  0  0  0  0  0  0  0  0
   -8.4871    0.1581    2.3453 F   0  0  0  0  0  0  0  0  0  0  0  0
   -0.0277   -1.1690    2.3311 H   0  0  0  0  0  0  0  0  0  0  0  0
   -1.3738   -0.0593   -0.9271 H   0  0  0  0  0  0  0  0  0  0  0  0
   -0.6515   -2.1702   -1.3472 H   0  0  0  0  0  0  0  0  0  0  0  0
    0.0923   -2.4245    0.2082 H   0  0  0  0  0  0  0  0  0  0  0  0
    1.6143   -2.2249   -1.8696 H   0  0  0  0  0  0  0  0  0  0  0  0
    2.1146   -1.3779   -0.4031 H   0  0  0  0  0  0  0  0  0  0  0  0
    4.1329    2.1982   -2.2283 H   0  0  0  0  0  0  0  0  0  0  0  0
    6.4061    2.1072   -1.2442 H   0  0  0  0  0  0  0  0  0  0  0  0
    4.1562   -2.1045   -2.6453 H   0  0  0  0  0  0  0  0  0  0  0  0
    8.1626   -3.3621   -0.8925 H   0  0  0  0  0  0  0  0  0  0  0  0
    7.2709   -2.3768    0.2882 H   0  0  0  0  0  0  0  0  0  0  0  0
    8.8102   -1.2638   -2.1556 H   0  0  0  0  0  0  0  0  0  0  0  0
    9.4043   -1.2499   -0.4842 H   0  0  0  0  0  0  0  0  0  0  0  0
    0.5067    1.8033   -1.6144 H   0  0  0  0  0  0  0  0  0  0  0  0
    2.0207    1.5408   -0.7215 H   0  0  0  0  0  0  0  0  0  0  0  0
    0.9608    0.3663    0.9998 H   0  0  0  0  0  0  0  0  0  0  0  0
   -0.2375    1.5812    0.6035 H   0  0  0  0  0  0  0  0  0  0  0  0
   -5.6259   -0.9658    0.2573 H   0  0  0  0  0  0  0  0  0  0  0  0
   -6.8432   -1.3760    1.4578 H   0  0  0  0  0  0  0  0  0  0  0  0
   -4.7456    1.5147    0.1813 H   0  0  0  0  0  0  0  0  0  0  0  0
   -5.5487    3.8480    0.1568 H   0  0  0  0  0  0  0  0  0  0  0  0
   -7.7363    4.4377    1.1725 H   0  0  0  0  0  0  0  0  0  0  0  0
   -9.1228    2.6608    2.2269 H   0  0  0  0  0  0  0  0  0  0  0  0
  1  2  2  0
  2  3  1  0
  3  4  1  0
  4  5  1  0
  5  6  1  0
  6  7  1  0
  7  8  1  0
  8  9  1  0
  9 10  2  0
  9 11  2  0
  9 12  1  0
 12 13  2  0
 13 14  1  0
 14 15  2  0
 15 16  1  0
 16 17  2  0
 16 18  1  0
 18 19  1  0
 19 20  1  0
 20 21  1  0
  8 22  1  0
 22 23  1  0
  4 24  2  0
 24 25  1  0
 25 26  2  0
 26 27  1  0
 27 28  2  0
 28 29  1  0
 29 30  1  0
 30 31  1  0
 31 32  2  0
 32 33  1  0
 33 34  2  0
 34 35  1  0
 35 36  2  0
 36 37  1  0
 26  2  1  0
 36 31  1  0
 23  5  1  0
 29 25  1  0
 17 12  1  0
 21 15  1  0
  3 38  1  0
  5 39  1  0
  6 40  1  0
  6 41  1  0
  7 42  1  0
  7 43  1  0
 13 44  1  0
 14 45  1  0
 17 46  1  0
 19 47  1  0
 19 48  1  0
 20 49  1  0
 20 50  1  0
 22 51  1  0
 22 52  1  0
 23 53  1  0
 23 54  1  0
 30 55  1  0
 30 56  1  0
 32 57  1  0
 33 58  1  0
 34 59  1  0
 35 60  1  0
M  END
$$$$
