
     RDKit          3D

 54 56  0  0  0  0  0  0  0  0999 V2000
    8.8379    2.5071    0.1196 C   0  0  0  0  0  0  0  0  0  0  0  0
    8.4022    1.5190   -0.8104 O   0  0  0  0  0  0  0  0  0  0  0  0
    7.3745    0.7089   -0.4109 C   0  0  0  0  0  0  0  0  0  0  0  0
    6.9550   -0.2150   -1.3702 C   0  0  0  0  0  0  0  0  0  0  0  0
    5.9054   -1.0962   -1.0990 C   0  0  0  0  0  0  0  0  0  0  0  0
    5.2545   -1.0641    0.1414 C   0  0  0  0  0  0  0  0  0  0  0  0
    4.0953   -1.9901    0.4238 C   0  0  0  0  0  0  0  0  0  0  0  0
    2.8282   -1.6424   -0.3689 C   0  0  0  0  0  0  0  0  0  0  0  0
    2.2447   -0.2795    0.0165 C   0  0  0  0  0  0  0  0  0  0  0  0
    0.9943    0.0167   -0.7244 C   0  0  0  0  0  0  0  0  0  0  0  0
    0.0116   -0.7816   -1.0869 N   0  0  0  0  0  0  0  0  0  0  0  0
   -0.9085    0.0107   -1.7383 N   0  0  0  0  0  0  0  0  0  0  0  0
   -0.4357    1.2419   -1.7119 C   0  0  0  0  0  0  0  0  0  0  0  0
   -1.2254    2.6180   -2.4084 S   0  0  0  0  0  0  0  0  0  0  0  0
   -2.7513    1.8554   -3.0304 C   0  0  0  0  0  0  0  0  0  0  0  0
   -3.7670    1.6818   -1.9072 C   0  0  0  0  0  0  0  0  0  0  0  0
   -4.4594    2.6307   -1.5430 O   0  0  0  0  0  0  0  0  0  0  0  0
   -3.8149    0.3967   -1.3947 N   0  0  0  0  0  0  0  0  0  0  0  0
   -4.7203   -0.1279   -0.4365 C   0  0  0  0  0  0  0  0  0  0  0  0
   -5.7903    0.6085    0.0879 C   0  0  0  0  0  0  0  0  0  0  0  0
   -6.6758    0.0575    1.0382 C   0  0  0  0  0  0  0  0  0  0  0  0
   -7.8103    0.9026    1.5599 C   0  0  0  0  0  0  0  0  0  0  0  0
   -6.4891   -1.2659    1.4771 C   0  0  0  0  0  0  0  0  0  0  0  0
   -7.4075   -1.8979    2.4904 C   0  0  0  0  0  0  0  0  0  0  0  0
   -5.4277   -2.0129    0.9453 C   0  0  0  0  0  0  0  0  0  0  0  0
   -4.5582   -1.4529   -0.0009 C   0  0  0  0  0  0  0  0  0  0  0  0
   -3.1706   -2.5686   -0.6815 Br  0  0  0  0  0  0  0  0  0  0  0  0
    0.7827    1.3189   -1.0886 O   0  0  0  0  0  0  0  0  0  0  0  0
    5.6853   -0.1442    1.1067 C   0  0  0  0  0  0  0  0  0  0  0  0
    6.7386    0.7368    0.8321 C   0  0  0  0  0  0  0  0  0  0  0  0
    9.6241    3.0994   -0.3624 H   0  0  0  0  0  0  0  0  0  0  0  0
    9.2726    2.0415    1.0103 H   0  0  0  0  0  0  0  0  0  0  0  0
    8.0217    3.1900    0.3865 H   0  0  0  0  0  0  0  0  0  0  0  0
    7.4486   -0.2463   -2.3403 H   0  0  0  0  0  0  0  0  0  0  0  0
    5.5983   -1.8037   -1.8663 H   0  0  0  0  0  0  0  0  0  0  0  0
    4.4050   -3.0138    0.1795 H   0  0  0  0  0  0  0  0  0  0  0  0
    3.8677   -1.9943    1.4979 H   0  0  0  0  0  0  0  0  0  0  0  0
    3.0340   -1.6677   -1.4479 H   0  0  0  0  0  0  0  0  0  0  0  0
    2.0808   -2.4257   -0.1792 H   0  0  0  0  0  0  0  0  0  0  0  0
    2.9739    0.5143   -0.1866 H   0  0  0  0  0  0  0  0  0  0  0  0
    2.0307   -0.2564    1.0920 H   0  0  0  0  0  0  0  0  0  0  0  0
   -3.1984    2.5244   -3.7755 H   0  0  0  0  0  0  0  0  0  0  0  0
   -2.5550    0.9083   -3.5468 H   0  0  0  0  0  0  0  0  0  0  0  0
   -3.0604   -0.2378   -1.6611 H   0  0  0  0  0  0  0  0  0  0  0  0
   -5.9659    1.6319   -0.2305 H   0  0  0  0  0  0  0  0  0  0  0  0
   -7.8000    1.9067    1.1180 H   0  0  0  0  0  0  0  0  0  0  0  0
   -8.7748    0.4396    1.3092 H   0  0  0  0  0  0  0  0  0  0  0  0
   -7.7327    1.0201    2.6492 H   0  0  0  0  0  0  0  0  0  0  0  0
   -7.0818   -2.9123    2.7544 H   0  0  0  0  0  0  0  0  0  0  0  0
   -8.4232   -1.9723    2.0873 H   0  0  0  0  0  0  0  0  0  0  0  0
   -7.4207   -1.3084    3.4144 H   0  0  0  0  0  0  0  0  0  0  0  0
   -5.2789   -3.0411    1.2690 H   0  0  0  0  0  0  0  0  0  0  0  0
    5.2010   -0.1006    2.0817 H   0  0  0  0  0  0  0  0  0  0  0  0
    7.0350    1.4324    1.6102 H   0  0  0  0  0  0  0  0  0  0  0  0
  1  2  1  0
  2  3  1  0
  3  4  2  0
  4  5  1  0
  5  6  2  0
  6  7  1  0
  7  8  1  0
  8  9  1  0
  9 10  1  0
 10 11  2  0
 11 12  1  0
 12 13  2  0
 13 14  1  0
 14 15  1  0
 15 16  1  0
 16 17  2  0
 16 18  1  0
 18 19  1  0
 19 20  2  0
 20 21  1  0
 21 22  1  0
 21 23  2  0
 23 24  1  0
 23 25  1  0
 25 26  2  0
 26 27  1  0
 13 28  1  0
  6 29  1  0
 29 30  2  0
 30  3  1  0
 28 10  1  0
 26 19  1  0
  1 31  1  0
  1 32  1  0
  1 33  1  0
  4 34  1  0
  5 35  1  0
  7 36  1  0
  7 37  1  0
  8 38  1  0
  8 39  1  0
  9 40  1  0
  9 41  1  0
 15 42  1  0
 15 43  1  0
 18 44  1  0
 20 45  1  0
 22 46  1  0
 22 47  1  0
 22 48  1  0
 24 49  1  0
 24 50  1  0
 24 51  1  0
 25 52  1  0
 29 53  1  0
 30 54  1  0
M  END
$$$$
