
     RDKit          3D

 68 71  0  0  0  0  0  0  0  0999 V2000
   -1.1130   -5.8908   -1.3812 C   0  0  0  0  0  0  0  0  0  0  0  0
   -1.4530   -4.5252   -0.8638 C   0  0  0  0  0  0  0  0  0  0  0  0
   -1.5302   -4.2863    0.5103 C   0  0  0  0  0  0  0  0  0  0  0  0
   -1.8700   -3.0187    0.9912 C   0  0  0  0  0  0  0  0  0  0  0  0
   -2.1616   -1.9641    0.1100 C   0  0  0  0  0  0  0  0  0  0  0  0
   -2.4978   -0.5866    0.6791 C   0  0  0  0  0  0  0  0  0  0  0  0
   -3.5497    0.2195   -0.1375 C   0  0  0  0  0  0  0  0  0  0  0  0
   -4.7487   -0.0590   -0.1093 O   0  0  0  0  0  0  0  0  0  0  0  0
   -3.0548    1.2225   -0.9455 N   0  0  0  0  0  0  0  0  0  0  0  0
   -3.9185    1.9984   -1.8194 C   0  0  0  0  0  0  0  0  0  0  0  0
   -3.2153    3.2765   -2.2774 C   0  0  0  0  0  0  0  0  0  0  0  0
   -2.4494    2.8382   -3.5163 C   0  0  0  0  0  0  0  0  0  0  0  0
   -3.4236    1.9081   -4.2239 C   0  0  0  0  0  0  0  0  0  0  0  0
   -4.2471    1.2449   -3.1160 C   0  0  0  0  0  0  0  0  0  0  0  0
   -1.2848    0.1694    1.0962 N   0  0  0  0  0  0  0  0  0  0  0  0
   -1.3357    0.7829    2.4253 C   0  0  0  0  0  0  0  0  0  0  0  0
   -1.1182   -0.2345    3.4858 C   0  0  0  0  0  0  0  0  0  0  0  0
   -0.0002   -0.8561    4.0051 C   0  0  0  0  0  0  0  0  0  0  0  0
   -0.4604   -1.7212    5.0277 C   0  0  0  0  0  0  0  0  0  0  0  0
   -1.8249   -1.5677    5.0738 C   0  0  0  0  0  0  0  0  0  0  0  0
   -2.2342   -0.6702    4.1406 O   0  0  0  0  0  0  0  0  0  0  0  0
   -0.2855    0.4532    0.1800 C   0  0  0  0  0  0  0  0  0  0  0  0
   -0.4593    0.3304   -1.0336 O   0  0  0  0  0  0  0  0  0  0  0  0
    1.0280    0.9926    0.7119 C   0  0  0  0  0  0  0  0  0  0  0  0
    2.1541    0.7909   -0.2981 C   0  0  0  0  0  0  0  0  0  0  0  0
    3.4871    1.2408    0.2641 C   0  0  0  0  0  0  0  0  0  0  0  0
    3.5745    1.8732    1.3120 O   0  0  0  0  0  0  0  0  0  0  0  0
    4.5367    0.8650   -0.5422 N   0  0  0  0  0  0  0  0  0  0  0  0
    5.8615    1.1572   -0.3071 C   0  0  0  0  0  0  0  0  0  0  0  0
    6.4430    1.9277    0.7242 C   0  0  0  0  0  0  0  0  0  0  0  0
    7.7915    1.8883    0.4680 C   0  0  0  0  0  0  0  0  0  0  0  0
    8.9823    2.4516    1.1244 C   0  0  0  0  0  0  0  0  0  0  0  0
    8.0073    1.1513   -0.6522 O   0  0  0  0  0  0  0  0  0  0  0  0
    6.7982    0.6797   -1.1351 N   0  0  0  0  0  0  0  0  0  0  0  0
   -2.0967   -2.2182   -1.2667 C   0  0  0  0  0  0  0  0  0  0  0  0
   -1.7515   -3.4851   -1.7484 C   0  0  0  0  0  0  0  0  0  0  0  0
   -2.0249   -6.4847   -1.4991 H   0  0  0  0  0  0  0  0  0  0  0  0
   -0.6029   -5.8275   -2.3486 H   0  0  0  0  0  0  0  0  0  0  0  0
   -0.4383   -6.4121   -0.6933 H   0  0  0  0  0  0  0  0  0  0  0  0
   -1.3226   -5.0839    1.2199 H   0  0  0  0  0  0  0  0  0  0  0  0
   -1.9126   -2.8610    2.0665 H   0  0  0  0  0  0  0  0  0  0  0  0
   -3.0511   -0.7943    1.6067 H   0  0  0  0  0  0  0  0  0  0  0  0
   -2.0773    1.1105   -1.2189 H   0  0  0  0  0  0  0  0  0  0  0  0
   -4.8303    2.2333   -1.2615 H   0  0  0  0  0  0  0  0  0  0  0  0
   -3.9618    4.0340   -2.5516 H   0  0  0  0  0  0  0  0  0  0  0  0
   -2.5580    3.7067   -1.5141 H   0  0  0  0  0  0  0  0  0  0  0  0
   -1.5434    2.2898   -3.2339 H   0  0  0  0  0  0  0  0  0  0  0  0
   -2.1506    3.6805   -4.1469 H   0  0  0  0  0  0  0  0  0  0  0  0
   -4.0887    2.4881   -4.8760 H   0  0  0  0  0  0  0  0  0  0  0  0
   -2.9051    1.1749   -4.8505 H   0  0  0  0  0  0  0  0  0  0  0  0
   -4.0295    0.1735   -3.0506 H   0  0  0  0  0  0  0  0  0  0  0  0
   -5.3129    1.3449   -3.3500 H   0  0  0  0  0  0  0  0  0  0  0  0
   -0.5919    1.5776    2.5240 H   0  0  0  0  0  0  0  0  0  0  0  0
   -2.3140    1.2647    2.5402 H   0  0  0  0  0  0  0  0  0  0  0  0
    1.0233   -0.7059    3.6906 H   0  0  0  0  0  0  0  0  0  0  0  0
    0.1298   -2.3733    5.6563 H   0  0  0  0  0  0  0  0  0  0  0  0
   -2.6084   -2.0038    5.6782 H   0  0  0  0  0  0  0  0  0  0  0  0
    0.9041    2.0606    0.9219 H   0  0  0  0  0  0  0  0  0  0  0  0
    1.2876    0.4801    1.6420 H   0  0  0  0  0  0  0  0  0  0  0  0
    2.2252   -0.2698   -0.5719 H   0  0  0  0  0  0  0  0  0  0  0  0
    1.9568    1.3659   -1.2107 H   0  0  0  0  0  0  0  0  0  0  0  0
    4.3812    0.2977   -1.3652 H   0  0  0  0  0  0  0  0  0  0  0  0
    5.9576    2.4384    1.5419 H   0  0  0  0  0  0  0  0  0  0  0  0
    9.5874    3.0149    0.4075 H   0  0  0  0  0  0  0  0  0  0  0  0
    8.7015    3.1284    1.9379 H   0  0  0  0  0  0  0  0  0  0  0  0
    9.5994    1.6520    1.5448 H   0  0  0  0  0  0  0  0  0  0  0  0
   -2.3000   -1.4296   -1.9870 H   0  0  0  0  0  0  0  0  0  0  0  0
   -1.7098   -3.6490   -2.8222 H   0  0  0  0  0  0  0  0  0  0  0  0
  1  2  1  0
  2  3  2  0
  3  4  1  0
  4  5  2  0
  5  6  1  0
  6  7  1  0
  7  8  2  0
  7  9  1  0
  9 10  1  0
 10 11  1  0
 11 12  1  0
 12 13  1  0
 13 14  1  0
  6 15  1  0
 15 16  1  0
 16 17  1  0
 17 18  2  0
 18 19  1  0
 19 20  2  0
 20 21  1  0
 15 22  1  0
 22 23  2  0
 22 24  1  0
 24 25  1  0
 25 26  1  0
 26 27  2  0
 26 28  1  0
 28 29  1  0
 29 30  1  0
 30 31  2  0
 31 32  1  0
 31 33  1  0
 33 34  1  0
  5 35  1  0
 35 36  2  0
 36  2  1  0
 14 10  1  0
 21 17  1  0
 34 29  2  0
  1 37  1  0
  1 38  1  0
  1 39  1  0
  3 40  1  0
  4 41  1  0
  6 42  1  0
  9 43  1  0
 10 44  1  0
 11 45  1  0
 11 46  1  0
 12 47  1  0
 12 48  1  0
 13 49  1  0
 13 50  1  0
 14 51  1  0
 14 52  1  0
 16 53  1  0
 16 54  1  0
 18 55  1  0
 19 56  1  0
 20 57  1  0
 24 58  1  0
 24 59  1  0
 25 60  1  0
 25 61  1  0
 28 62  1  0
 30 63  1  0
 32 64  1  0
 32 65  1  0
 32 66  1  0
 35 67  1  0
 36 68  1  0
M  END
$$$$
