
     RDKit          3D

 31 33  0  0  0  0  0  0  0  0999 V2000
   -2.0249    3.2703   -0.0796 N   0  0  0  0  0  0  0  0  0  0  0  0
   -2.4958    2.0133   -0.3432 C   0  0  0  0  0  0  0  0  0  0  0  0
   -3.6205    1.8338   -0.7855 O   0  0  0  0  0  0  0  0  0  0  0  0
   -1.5687    0.8944   -0.0478 C   0  0  0  0  0  0  0  0  0  0  0  0
   -0.2563    1.0055   -0.5172 C   0  0  0  0  0  0  0  0  0  0  0  0
    0.6306   -0.0278   -0.2684 C   0  0  0  0  0  0  0  0  0  0  0  0
    2.0375   -0.0140   -0.7242 C   0  0  0  0  0  0  0  0  0  0  0  0
    2.7012   -1.2159   -1.0363 C   0  0  0  0  0  0  0  0  0  0  0  0
    4.0288   -1.2278   -1.4747 C   0  0  0  0  0  0  0  0  0  0  0  0
    4.7281   -0.0328   -1.6070 C   0  0  0  0  0  0  0  0  0  0  0  0
    4.1021    1.1706   -1.2971 C   0  0  0  0  0  0  0  0  0  0  0  0
    2.7729    1.1790   -0.8591 C   0  0  0  0  0  0  0  0  0  0  0  0
    0.2428   -1.1358    0.4091 N   0  0  0  0  0  0  0  0  0  0  0  0
   -1.0189   -1.2491    0.8529 C   0  0  0  0  0  0  0  0  0  0  0  0
   -1.3635   -2.4041    1.5429 C   0  0  0  0  0  0  0  0  0  0  0  0
   -2.6485   -2.6086    2.0506 C   0  0  0  0  0  0  0  0  0  0  0  0
   -3.6142   -1.6319    1.8645 C   0  0  0  0  0  0  0  0  0  0  0  0
   -5.3562   -1.8868    2.5486 Br  0  0  0  0  0  0  0  0  0  0  0  0
   -3.2987   -0.4629    1.1763 C   0  0  0  0  0  0  0  0  0  0  0  0
   -1.9945   -0.2545    0.6553 C   0  0  0  0  0  0  0  0  0  0  0  0
   -1.2067    3.4325    0.4911 H   0  0  0  0  0  0  0  0  0  0  0  0
   -2.6912    4.0275   -0.1722 H   0  0  0  0  0  0  0  0  0  0  0  0
    0.0441    1.8686   -1.1017 H   0  0  0  0  0  0  0  0  0  0  0  0
    2.1750   -2.1650   -0.9397 H   0  0  0  0  0  0  0  0  0  0  0  0
    4.5121   -2.1726   -1.7096 H   0  0  0  0  0  0  0  0  0  0  0  0
    5.7607   -0.0404   -1.9457 H   0  0  0  0  0  0  0  0  0  0  0  0
    4.6490    2.1054   -1.3904 H   0  0  0  0  0  0  0  0  0  0  0  0
    2.3277    2.1382   -0.6073 H   0  0  0  0  0  0  0  0  0  0  0  0
   -0.6058   -3.1710    1.6920 H   0  0  0  0  0  0  0  0  0  0  0  0
   -2.8755   -3.5275    2.5843 H   0  0  0  0  0  0  0  0  0  0  0  0
   -4.0728    0.2897    1.0389 H   0  0  0  0  0  0  0  0  0  0  0  0
  1  2  1  0
  2  3  2  0
  2  4  1  0
  4  5  2  0
  5  6  1  0
  6  7  1  0
  7  8  2  0
  8  9  1  0
  9 10  2  0
 10 11  1  0
 11 12  2  0
  6 13  2  0
 13 14  1  0
 14 15  2  0
 15 16  1  0
 16 17  2  0
 17 18  1  0
 17 19  1  0
 19 20  2  0
 20  4  1  0
 12  7  1  0
 20 14  1  0
  1 21  1  0
  1 22  1  0
  5 23  1  0
  8 24  1  0
  9 25  1  0
 10 26  1  0
 11 27  1  0
 12 28  1  0
 15 29  1  0
 16 30  1  0
 19 31  1  0
M  END
$$$$
