
     RDKit          3D

 50 52  0  0  0  0  0  0  0  0999 V2000
    6.6955    3.5253    1.0452 C   0  0  0  0  0  0  0  0  0  0  0  0
    6.5363    2.1638    0.6679 O   0  0  0  0  0  0  0  0  0  0  0  0
    5.2793    1.7660    0.3069 C   0  0  0  0  0  0  0  0  0  0  0  0
    5.1739    0.4265   -0.0707 C   0  0  0  0  0  0  0  0  0  0  0  0
    3.9449   -0.1165   -0.4647 C   0  0  0  0  0  0  0  0  0  0  0  0
    2.8013    0.6785   -0.4862 C   0  0  0  0  0  0  0  0  0  0  0  0
    1.5247    0.2228   -0.8628 N   0  0  0  0  0  0  0  0  0  0  0  0
    1.1510   -1.0455   -1.2904 C   0  0  0  0  0  0  0  0  0  0  0  0
    1.9291   -1.9796   -1.4731 O   0  0  0  0  0  0  0  0  0  0  0  0
   -0.3770   -1.1407   -1.6181 C   0  0  0  0  0  0  0  0  0  0  0  0
   -1.2231   -0.7624   -0.4797 N   0  0  0  0  0  0  0  0  0  0  0  0
   -1.4910    0.5486   -0.1679 C   0  0  0  0  0  0  0  0  0  0  0  0
   -0.9161    1.4822   -0.7202 O   0  0  0  0  0  0  0  0  0  0  0  0
   -2.5177    0.7983    0.8789 C   0  0  0  0  0  0  0  0  0  0  0  0
   -3.2151    2.0110    0.8469 C   0  0  0  0  0  0  0  0  0  0  0  0
   -4.1882    2.2889    1.8097 C   0  0  0  0  0  0  0  0  0  0  0  0
   -4.4612    1.3673    2.8273 C   0  0  0  0  0  0  0  0  0  0  0  0
   -5.5286    1.6529    3.8428 C   0  0  0  0  0  0  0  0  0  0  0  0
   -3.7596    0.1556    2.8576 C   0  0  0  0  0  0  0  0  0  0  0  0
   -2.7857   -0.1264    1.8949 C   0  0  0  0  0  0  0  0  0  0  0  0
   -0.8265   -2.5073   -2.1189 C   0  0  0  0  0  0  0  0  0  0  0  0
   -1.5709   -2.6071   -3.3058 C   0  0  0  0  0  0  0  0  0  0  0  0
   -2.0342   -3.8459   -3.7535 C   0  0  0  0  0  0  0  0  0  0  0  0
   -1.7668   -4.9989   -3.0190 C   0  0  0  0  0  0  0  0  0  0  0  0
   -1.0375   -4.9157   -1.8353 C   0  0  0  0  0  0  0  0  0  0  0  0
   -0.5749   -3.6783   -1.3843 C   0  0  0  0  0  0  0  0  0  0  0  0
    2.9082    2.0216   -0.1052 C   0  0  0  0  0  0  0  0  0  0  0  0
    4.1380    2.5642    0.2889 C   0  0  0  0  0  0  0  0  0  0  0  0
    7.7493    3.6822    1.2947 H   0  0  0  0  0  0  0  0  0  0  0  0
    6.1042    3.7595    1.9366 H   0  0  0  0  0  0  0  0  0  0  0  0
    6.4461    4.1968    0.2169 H   0  0  0  0  0  0  0  0  0  0  0  0
    6.0574   -0.2074   -0.0607 H   0  0  0  0  0  0  0  0  0  0  0  0
    3.9211   -1.1637   -0.7473 H   0  0  0  0  0  0  0  0  0  0  0  0
    0.7745    0.9158   -0.8293 H   0  0  0  0  0  0  0  0  0  0  0  0
   -0.5471   -0.4054   -2.4171 H   0  0  0  0  0  0  0  0  0  0  0  0
   -1.8393   -1.4828   -0.1281 H   0  0  0  0  0  0  0  0  0  0  0  0
   -3.0081    2.7423    0.0681 H   0  0  0  0  0  0  0  0  0  0  0  0
   -4.7286    3.2320    1.7622 H   0  0  0  0  0  0  0  0  0  0  0  0
   -6.4957    1.2912    3.4803 H   0  0  0  0  0  0  0  0  0  0  0  0
   -5.3021    1.1638    4.7960 H   0  0  0  0  0  0  0  0  0  0  0  0
   -5.6028    2.7276    4.0394 H   0  0  0  0  0  0  0  0  0  0  0  0
   -3.9613   -0.5737    3.6400 H   0  0  0  0  0  0  0  0  0  0  0  0
   -2.2333   -1.0583    1.9723 H   0  0  0  0  0  0  0  0  0  0  0  0
   -1.7967   -1.7192   -3.8929 H   0  0  0  0  0  0  0  0  0  0  0  0
   -2.6026   -3.9114   -4.6778 H   0  0  0  0  0  0  0  0  0  0  0  0
   -2.1223   -5.9635   -3.3717 H   0  0  0  0  0  0  0  0  0  0  0  0
   -0.8208   -5.8157   -1.2656 H   0  0  0  0  0  0  0  0  0  0  0  0
    0.0031   -3.6366   -0.4627 H   0  0  0  0  0  0  0  0  0  0  0  0
    2.0320    2.6667   -0.1099 H   0  0  0  0  0  0  0  0  0  0  0  0
    4.1649    3.6102    0.5740 H   0  0  0  0  0  0  0  0  0  0  0  0
  1  2  1  0
  2  3  1  0
  3  4  2  0
  4  5  1  0
  5  6  2  0
  6  7  1  0
  7  8  1  0
  8  9  2  0
  8 10  1  0
 10 11  1  0
 11 12  1  0
 12 13  2  0
 12 14  1  0
 14 15  2  0
 15 16  1  0
 16 17  2  0
 17 18  1  0
 17 19  1  0
 19 20  2  0
 10 21  1  0
 21 22  2  0
 22 23  1  0
 23 24  2  0
 24 25  1  0
 25 26  2  0
  6 27  1  0
 27 28  2  0
 28  3  1  0
 20 14  1  0
 26 21  1  0
  1 29  1  0
  1 30  1  0
  1 31  1  0
  4 32  1  0
  5 33  1  0
  7 34  1  0
 10 35  1  0
 11 36  1  0
 15 37  1  0
 16 38  1  0
 18 39  1  0
 18 40  1  0
 18 41  1  0
 19 42  1  0
 20 43  1  0
 22 44  1  0
 23 45  1  0
 24 46  1  0
 25 47  1  0
 26 48  1  0
 27 49  1  0
 28 50  1  0
M  END
$$$$
