
     RDKit          3D

 32 34  0  0  0  0  0  0  0  0999 V2000
    0.2235   -0.0338    1.2139 O   0  0  0  0  0  0  0  0  0  0  0  0
   -0.1993   -0.1416    0.0684 C   0  0  0  0  0  0  0  0  0  0  0  0
   -1.6902   -0.0095   -0.2761 C   0  0  0  0  0  0  0  0  0  0  0  0
   -2.4694    0.2452    0.8817 O   0  0  0  0  0  0  0  0  0  0  0  0
   -3.8182    0.3849    0.7148 C   0  0  0  0  0  0  0  0  0  0  0  0
   -4.5252    0.6340    1.8952 C   0  0  0  0  0  0  0  0  0  0  0  0
   -5.9118    0.7987    1.8756 C   0  0  0  0  0  0  0  0  0  0  0  0
   -6.5947    0.7133    0.6662 C   0  0  0  0  0  0  0  0  0  0  0  0
   -8.4711    0.9345    0.6276 Br  0  0  0  0  0  0  0  0  0  0  0  0
   -5.9020    0.4655   -0.5175 C   0  0  0  0  0  0  0  0  0  0  0  0
   -4.5123    0.3010   -0.4937 C   0  0  0  0  0  0  0  0  0  0  0  0
    0.5571   -0.3896   -1.0617 N   0  0  0  0  0  0  0  0  0  0  0  0
    1.9176   -0.5619   -1.1228 C   0  0  0  0  0  0  0  0  0  0  0  0
    2.5327   -0.7944   -2.2625 N   0  0  0  0  0  0  0  0  0  0  0  0
    3.8974   -0.9365   -2.0971 N   0  0  0  0  0  0  0  0  0  0  0  0
    4.2440   -0.7962   -0.8369 C   0  0  0  0  0  0  0  0  0  0  0  0
    5.7240   -0.9162   -0.3612 C   0  0  0  0  0  0  0  0  0  0  0  0
    6.8191   -0.3145   -1.2050 C   0  0  0  0  0  0  0  0  0  0  0  0
    6.4522    0.3190    0.1050 C   0  0  0  0  0  0  0  0  0  0  0  0
    2.9467   -0.4994    0.2333 S   0  0  0  0  0  0  0  0  0  0  0  0
   -1.7892    0.8214   -0.9855 H   0  0  0  0  0  0  0  0  0  0  0  0
   -2.0034   -0.9532   -0.7393 H   0  0  0  0  0  0  0  0  0  0  0  0
   -3.9885    0.7002    2.8394 H   0  0  0  0  0  0  0  0  0  0  0  0
   -6.4418    0.9915    2.8042 H   0  0  0  0  0  0  0  0  0  0  0  0
   -6.4333    0.3984   -1.4635 H   0  0  0  0  0  0  0  0  0  0  0  0
   -4.0093    0.1096   -1.4351 H   0  0  0  0  0  0  0  0  0  0  0  0
    0.1112   -0.4609   -1.9660 H   0  0  0  0  0  0  0  0  0  0  0  0
    5.9496   -1.8508    0.1411 H   0  0  0  0  0  0  0  0  0  0  0  0
    7.7588   -0.8506   -1.2690 H   0  0  0  0  0  0  0  0  0  0  0  0
    6.5437    0.2035   -2.1174 H   0  0  0  0  0  0  0  0  0  0  0  0
    7.1445    0.2151    0.9325 H   0  0  0  0  0  0  0  0  0  0  0  0
    5.9377    1.2731    0.0765 H   0  0  0  0  0  0  0  0  0  0  0  0
  1  2  2  0
  2  3  1  0
  3  4  1  0
  4  5  1  0
  5  6  2  0
  6  7  1  0
  7  8  2  0
  8  9  1  0
  8 10  1  0
 10 11  2  0
  2 12  1  0
 12 13  1  0
 13 14  2  0
 14 15  1  0
 15 16  2  0
 16 17  1  0
 17 18  1  0
 18 19  1  0
 16 20  1  0
 11  5  1  0
 20 13  1  0
 19 17  1  0
  3 21  1  0
  3 22  1  0
  6 23  1  0
  7 24  1  0
 10 25  1  0
 11 26  1  0
 12 27  1  0
 17 28  1  0
 18 29  1  0
 18 30  1  0
 19 31  1  0
 19 32  1  0
M  END
$$$$
