
     RDKit          3D

 33 34  0  0  0  0  0  0  0  0999 V2000
   -4.1316   -2.1091   -1.7290 C   0  0  0  0  0  0  0  0  0  0  0  0
   -3.4475   -0.8971   -1.1640 C   0  0  0  0  0  0  0  0  0  0  0  0
   -4.1981    0.1915   -0.7070 C   0  0  0  0  0  0  0  0  0  0  0  0
   -3.5611    1.3283   -0.2116 C   0  0  0  0  0  0  0  0  0  0  0  0
   -2.1701    1.3878   -0.1772 C   0  0  0  0  0  0  0  0  0  0  0  0
   -1.6363    2.5485    0.3189 O   0  0  0  0  0  0  0  0  0  0  0  0
   -1.3927    0.3112   -0.6332 C   0  0  0  0  0  0  0  0  0  0  0  0
    0.0999    0.3955   -0.5764 C   0  0  0  0  0  0  0  0  0  0  0  0
    0.6062    1.4575   -0.2149 O   0  0  0  0  0  0  0  0  0  0  0  0
    0.9191   -0.8134   -0.9609 C   0  0  0  0  0  0  0  0  0  0  0  0
    2.4119   -0.7152   -0.7528 C   0  0  0  0  0  0  0  0  0  0  0  0
    3.2066   -1.2232   -1.5422 O   0  0  0  0  0  0  0  0  0  0  0  0
    2.9301   -0.1224    0.4979 C   0  0  0  0  0  0  0  0  0  0  0  0
    2.5660   -0.7121    1.7170 C   0  0  0  0  0  0  0  0  0  0  0  0
    3.0415   -0.1788    2.9153 C   0  0  0  0  0  0  0  0  0  0  0  0
    3.8778    0.9365    2.8977 C   0  0  0  0  0  0  0  0  0  0  0  0
    4.2457    1.5192    1.6825 C   0  0  0  0  0  0  0  0  0  0  0  0
    3.7765    0.9906    0.4768 C   0  0  0  0  0  0  0  0  0  0  0  0
    4.2364    1.7846   -0.9863 Cl  0  0  0  0  0  0  0  0  0  0  0  0
   -2.0447   -0.8262   -1.1358 C   0  0  0  0  0  0  0  0  0  0  0  0
   -5.1660   -2.1791   -1.3760 H   0  0  0  0  0  0  0  0  0  0  0  0
   -4.1370   -2.0610   -2.8225 H   0  0  0  0  0  0  0  0  0  0  0  0
   -3.6179   -3.0234   -1.4138 H   0  0  0  0  0  0  0  0  0  0  0  0
   -5.2857    0.1647   -0.7353 H   0  0  0  0  0  0  0  0  0  0  0  0
   -4.1471    2.1723    0.1436 H   0  0  0  0  0  0  0  0  0  0  0  0
   -0.6570    2.4914    0.2402 H   0  0  0  0  0  0  0  0  0  0  0  0
    0.7606   -0.9819   -2.0329 H   0  0  0  0  0  0  0  0  0  0  0  0
    0.5724   -1.6892   -0.4015 H   0  0  0  0  0  0  0  0  0  0  0  0
    1.9290   -1.5917    1.7450 H   0  0  0  0  0  0  0  0  0  0  0  0
    2.7627   -0.6338    3.8636 H   0  0  0  0  0  0  0  0  0  0  0  0
    4.2406    1.3596    3.8315 H   0  0  0  0  0  0  0  0  0  0  0  0
    4.8941    2.3925    1.6815 H   0  0  0  0  0  0  0  0  0  0  0  0
   -1.4847   -1.6741   -1.5215 H   0  0  0  0  0  0  0  0  0  0  0  0
  1  2  1  0
  2  3  2  0
  3  4  1  0
  4  5  2  0
  5  6  1  0
  5  7  1  0
  7  8  1  0
  8  9  2  0
  8 10  1  0
 10 11  1  0
 11 12  2  0
 11 13  1  0
 13 14  2  0
 14 15  1  0
 15 16  2  0
 16 17  1  0
 17 18  2  0
 18 19  1  0
  7 20  2  0
 20  2  1  0
 18 13  1  0
  1 21  1  0
  1 22  1  0
  1 23  1  0
  3 24  1  0
  4 25  1  0
  6 26  1  0
 10 27  1  0
 10 28  1  0
 14 29  1  0
 15 30  1  0
 16 31  1  0
 17 32  1  0
 20 33  1  0
M  END
$$$$
