
     RDKit          3D

 47 49  0  0  0  0  0  0  0  0999 V2000
   -2.7660   -1.0739   -1.8589 C   0  0  0  0  0  0  0  0  0  0  0  0
   -2.9950   -1.9048   -0.6079 C   0  0  0  0  0  0  0  0  0  0  0  0
   -3.3969   -1.0843    0.5430 N   0  0  0  0  0  4  0  0  0  0  0  0
   -2.5447   -0.6917    1.4798 C   0  0  0  0  0  0  0  0  0  0  0  0
   -1.1602   -0.9712    1.5422 C   0  0  0  0  0  0  0  0  0  0  0  0
   -0.2147   -0.1832    1.0063 C   0  0  0  0  0  0  0  0  0  0  0  0
   -0.4005    1.0800    0.3165 C   0  0  0  0  0  0  0  0  0  0  0  0
    0.5705    1.7914   -0.2804 C   0  0  0  0  0  0  0  0  0  0  0  0
    1.9819    1.4106   -0.3514 C   0  0  0  0  0  0  0  0  0  0  0  0
    2.8418    1.6638    0.7135 C   0  0  0  0  0  0  0  0  0  0  0  0
    4.1858    1.2676    0.6473 C   0  0  0  0  0  0  0  0  0  0  0  0
    4.7257    0.6205   -0.4790 C   0  0  0  0  0  0  0  0  0  0  0  0
    6.0611    0.2035   -0.5324 N   0  0  0  0  0  0  0  0  0  0  0  0
    6.9990    0.6827    0.4837 C   0  0  0  0  0  0  0  0  0  0  0  0
    6.6553   -0.0872   -1.8383 C   0  0  0  0  0  0  0  0  0  0  0  0
    3.8264    0.3747   -1.5328 C   0  0  0  0  0  0  0  0  0  0  0  0
    2.4798    0.7645   -1.4787 C   0  0  0  0  0  0  0  0  0  0  0  0
   -3.3415    0.1985    2.7088 S   0  0  0  0  0  0  0  0  0  0  0  0
   -4.8618    0.0619    1.9161 C   0  0  0  0  0  0  0  0  0  0  0  0
   -6.1067    0.5737    2.3133 C   0  0  0  0  0  0  0  0  0  0  0  0
   -7.2124    0.3226    1.4974 C   0  0  0  0  0  0  0  0  0  0  0  0
   -7.0829   -0.4149    0.3251 C   0  0  0  0  0  0  0  0  0  0  0  0
   -5.8384   -0.9237   -0.0664 C   0  0  0  0  0  0  0  0  0  0  0  0
   -4.7116   -0.6772    0.7448 C   0  0  0  0  0  0  0  0  0  0  0  0
   -1.9635   -0.3474   -1.7092 H   0  0  0  0  0  0  0  0  0  0  0  0
   -2.4882   -1.7196   -2.6974 H   0  0  0  0  0  0  0  0  0  0  0  0
   -3.6659   -0.5188   -2.1396 H   0  0  0  0  0  0  0  0  0  0  0  0
   -2.0890   -2.4735   -0.3706 H   0  0  0  0  0  0  0  0  0  0  0  0
   -3.7700   -2.6579   -0.7926 H   0  0  0  0  0  0  0  0  0  0  0  0
   -0.8515   -1.8775    2.0604 H   0  0  0  0  0  0  0  0  0  0  0  0
    0.8193   -0.5187    1.1160 H   0  0  0  0  0  0  0  0  0  0  0  0
   -1.4007    1.5065    0.2834 H   0  0  0  0  0  0  0  0  0  0  0  0
    0.3322    2.7349   -0.7685 H   0  0  0  0  0  0  0  0  0  0  0  0
    2.4836    2.1672    1.6083 H   0  0  0  0  0  0  0  0  0  0  0  0
    4.8022    1.4878    1.5138 H   0  0  0  0  0  0  0  0  0  0  0  0
    7.9971    0.2555    0.3339 H   0  0  0  0  0  0  0  0  0  0  0  0
    7.0954    1.7734    0.4473 H   0  0  0  0  0  0  0  0  0  0  0  0
    6.6894    0.3721    1.4874 H   0  0  0  0  0  0  0  0  0  0  0  0
    6.1689   -0.9463   -2.3122 H   0  0  0  0  0  0  0  0  0  0  0  0
    7.7133   -0.3571   -1.7435 H   0  0  0  0  0  0  0  0  0  0  0  0
    6.5952    0.7832   -2.5011 H   0  0  0  0  0  0  0  0  0  0  0  0
    4.1519   -0.1377   -2.4331 H   0  0  0  0  0  0  0  0  0  0  0  0
    1.8352    0.5510   -2.3272 H   0  0  0  0  0  0  0  0  0  0  0  0
   -6.2159    1.1495    3.2299 H   0  0  0  0  0  0  0  0  0  0  0  0
   -8.1899    0.7103    1.7859 H   0  0  0  0  0  0  0  0  0  0  0  0
   -7.9626   -0.5961   -0.2928 H   0  0  0  0  0  0  0  0  0  0  0  0
   -5.7805   -1.4924   -0.9901 H   0  0  0  0  0  0  0  0  0  0  0  0
  1  2  1  0
  2  3  1  0
  3  4  2  0
  4  5  1  0
  5  6  2  3
  6  7  1  0
  7  8  2  3
  8  9  1  0
  9 10  2  0
 10 11  1  0
 11 12  2  0
 12 13  1  0
 13 14  1  0
 13 15  1  0
 12 16  1  0
 16 17  2  0
  4 18  1  0
 18 19  1  0
 19 20  2  0
 20 21  1  0
 21 22  2  0
 22 23  1  0
 23 24  2  0
 24  3  1  0
 17  9  1  0
 24 19  1  0
  1 25  1  0
  1 26  1  0
  1 27  1  0
  2 28  1  0
  2 29  1  0
  5 30  1  0
  6 31  1  0
  7 32  1  0
  8 33  1  0
 10 34  1  0
 11 35  1  0
 14 36  1  0
 14 37  1  0
 14 38  1  0
 15 39  1  0
 15 40  1  0
 15 41  1  0
 16 42  1  0
 17 43  1  0
 20 44  1  0
 21 45  1  0
 22 46  1  0
 23 47  1  0
M  CHG  1   3   1
M  END
$$$$
