
     RDKit          3D

 43 46  0  0  0  0  0  0  0  0999 V2000
    1.5726   -2.7776    3.8099 O   0  0  0  0  0  0  0  0  0  0  0  0
    2.0603   -2.0278    2.9586 C   0  0  0  0  0  0  0  0  0  0  0  0
    2.4042   -2.5412    1.5758 C   0  0  0  0  0  0  0  0  0  0  0  0
    2.0976   -1.3950    0.2050 S   0  0  0  0  0  0  0  0  0  0  0  0
    0.3911   -1.1575    0.3105 C   0  0  0  0  0  0  0  0  0  0  0  0
   -0.3088   -1.1233    1.4148 N   0  0  0  0  0  0  0  0  0  0  0  0
   -1.6111   -0.8588    1.0795 N   0  0  0  0  0  0  0  0  0  0  0  0
   -1.6913   -0.7575   -0.2322 C   0  0  0  0  0  0  0  0  0  0  0  0
   -2.9060   -0.4859   -0.9832 C   0  0  0  0  0  0  0  0  0  0  0  0
   -3.5063   -1.4579   -1.7871 C   0  0  0  0  0  0  0  0  0  0  0  0
   -4.6732   -1.1494   -2.4839 C   0  0  0  0  0  0  0  0  0  0  0  0
   -5.2049    0.1253   -2.3475 C   0  0  0  0  0  0  0  0  0  0  0  0
   -4.6605    1.0877   -1.5721 N   0  0  0  0  0  0  0  0  0  0  0  0
   -3.5298    0.7569   -0.8998 C   0  0  0  0  0  0  0  0  0  0  0  0
   -0.4241   -0.9139   -0.7597 N   0  0  0  0  0  0  0  0  0  0  0  0
   -0.0546   -0.8220   -2.1574 C   0  0  0  0  0  0  0  0  0  0  0  0
    0.0758    0.5957   -2.5715 C   0  0  0  0  0  0  0  0  0  0  0  0
    1.0240    1.5780   -2.3610 C   0  0  0  0  0  0  0  0  0  0  0  0
    0.5495    2.7386   -3.0177 C   0  0  0  0  0  0  0  0  0  0  0  0
   -0.6537    2.3928   -3.5842 C   0  0  0  0  0  0  0  0  0  0  0  0
   -0.9471    1.0934   -3.3249 O   0  0  0  0  0  0  0  0  0  0  0  0
    2.3917   -0.6376    3.3717 C   0  0  0  0  0  0  0  0  0  0  0  0
    1.5052    0.0248    4.2302 C   0  0  0  0  0  0  0  0  0  0  0  0
    1.7847    1.3192    4.6668 C   0  0  0  0  0  0  0  0  0  0  0  0
    2.9565    1.9555    4.2542 C   0  0  0  0  0  0  0  0  0  0  0  0
    3.2493    3.5509    4.8385 Cl  0  0  0  0  0  0  0  0  0  0  0  0
    3.8476    1.2901    3.4010 C   0  0  0  0  0  0  0  0  0  0  0  0
    5.3125    2.0138    2.8477 Cl  0  0  0  0  0  0  0  0  0  0  0  0
    3.5702   -0.0090    2.9645 C   0  0  0  0  0  0  0  0  0  0  0  0
    3.4592   -2.8303    1.5715 H   0  0  0  0  0  0  0  0  0  0  0  0
    1.8142   -3.4461    1.3917 H   0  0  0  0  0  0  0  0  0  0  0  0
   -3.0836   -2.4579   -1.8628 H   0  0  0  0  0  0  0  0  0  0  0  0
   -5.1621   -1.8881   -3.1103 H   0  0  0  0  0  0  0  0  0  0  0  0
   -6.1140    0.4124   -2.8695 H   0  0  0  0  0  0  0  0  0  0  0  0
   -3.1211    1.5493   -0.2739 H   0  0  0  0  0  0  0  0  0  0  0  0
   -0.8184   -1.3393   -2.7455 H   0  0  0  0  0  0  0  0  0  0  0  0
    0.8790   -1.3651   -2.3264 H   0  0  0  0  0  0  0  0  0  0  0  0
    1.9372    1.4822   -1.7935 H   0  0  0  0  0  0  0  0  0  0  0  0
    1.0191    3.7116   -3.0665 H   0  0  0  0  0  0  0  0  0  0  0  0
   -1.3872    2.9285   -4.1674 H   0  0  0  0  0  0  0  0  0  0  0  0
    0.5896   -0.4661    4.5522 H   0  0  0  0  0  0  0  0  0  0  0  0
    1.0835    1.8226    5.3286 H   0  0  0  0  0  0  0  0  0  0  0  0
    4.2835   -0.5221    2.3260 H   0  0  0  0  0  0  0  0  0  0  0  0
  1  2  2  0
  2  3  1  0
  3  4  1  0
  4  5  1  0
  5  6  2  0
  6  7  1  0
  7  8  2  0
  8  9  1  0
  9 10  2  0
 10 11  1  0
 11 12  2  0
 12 13  1  0
 13 14  2  0
  8 15  1  0
 15 16  1  0
 16 17  1  0
 17 18  2  0
 18 19  1  0
 19 20  2  0
 20 21  1  0
  2 22  1  0
 22 23  2  0
 23 24  1  0
 24 25  2  0
 25 26  1  0
 25 27  1  0
 27 28  1  0
 27 29  2  0
 15  5  1  0
 21 17  1  0
 29 22  1  0
 14  9  1  0
  3 30  1  0
  3 31  1  0
 10 32  1  0
 11 33  1  0
 12 34  1  0
 14 35  1  0
 16 36  1  0
 16 37  1  0
 18 38  1  0
 19 39  1  0
 20 40  1  0
 23 41  1  0
 24 42  1  0
 29 43  1  0
M  END
$$$$
