
     RDKit          3D

 49 52  0  0  0  0  0  0  0  0999 V2000
   -1.8621    1.4900   -0.6525 C   0  0  0  0  0  0  0  0  0  0  0  0
   -2.7013    0.6643    0.2983 C   0  0  0  0  0  0  0  0  0  0  0  0
   -2.4033   -0.5441    0.6778 N   0  0  0  0  0  0  0  0  0  0  0  0
   -1.2537   -1.1323    0.2441 N   0  0  0  0  0  0  0  0  0  0  0  0
   -1.0153   -2.4737    0.5350 C   0  0  0  0  0  0  0  0  0  0  0  0
   -1.8068   -3.2083    1.1193 O   0  0  0  0  0  0  0  0  0  0  0  0
    0.2746   -2.9676    0.0551 C   0  0  0  0  0  0  0  0  0  0  0  0
    0.4371   -4.2531   -0.3812 N   0  0  0  0  0  0  0  0  0  0  0  0
    1.6876   -4.4047   -0.7800 N   0  0  0  0  0  0  0  0  0  0  0  0
    2.3551   -3.2285   -0.6193 N   0  0  0  0  0  0  0  0  0  0  0  0
    3.6930   -3.0768   -1.0628 C   0  0  0  0  0  0  0  0  0  0  0  0
    4.3128   -1.8978   -1.0003 N   0  0  0  0  0  0  0  0  0  0  0  0
    5.5702   -2.1460   -1.5495 O   0  0  0  0  0  0  0  0  0  0  0  0
    5.6967   -3.4739   -1.9412 N   0  0  0  0  0  0  0  0  0  0  0  0
    4.5347   -4.0495   -1.6354 C   0  0  0  0  0  0  0  0  0  0  0  0
    4.2496   -5.3477   -1.8479 N   0  0  0  0  0  0  0  0  0  0  0  0
    1.4981   -2.3136   -0.0122 C   0  0  0  0  0  0  0  0  0  0  0  0
    1.8811   -0.9601    0.4516 C   0  0  0  0  0  0  0  0  0  0  0  0
    1.5018   -0.0872   -0.6087 O   0  0  0  0  0  0  0  0  0  0  0  0
    1.9093    1.2143   -0.5068 C   0  0  0  0  0  0  0  0  0  0  0  0
    2.3490    1.8419    0.6616 C   0  0  0  0  0  0  0  0  0  0  0  0
    2.7110    3.1920    0.6332 C   0  0  0  0  0  0  0  0  0  0  0  0
    2.6271    3.9051   -0.5569 C   0  0  0  0  0  0  0  0  0  0  0  0
    2.9715    5.1988   -0.5770 F   0  0  0  0  0  0  0  0  0  0  0  0
    2.1855    3.2951   -1.7232 C   0  0  0  0  0  0  0  0  0  0  0  0
    1.8237    1.9479   -1.6957 C   0  0  0  0  0  0  0  0  0  0  0  0
   -3.9552    1.2759    0.8423 C   0  0  0  0  0  0  0  0  0  0  0  0
   -5.0047    0.4333    1.2373 C   0  0  0  0  0  0  0  0  0  0  0  0
   -6.1858    0.9710    1.7559 C   0  0  0  0  0  0  0  0  0  0  0  0
   -6.3166    2.3513    1.8882 C   0  0  0  0  0  0  0  0  0  0  0  0
   -7.7684    3.0167    2.5267 Cl  0  0  0  0  0  0  0  0  0  0  0  0
   -5.2745    3.1978    1.5118 C   0  0  0  0  0  0  0  0  0  0  0  0
   -4.0913    2.6618    0.9922 C   0  0  0  0  0  0  0  0  0  0  0  0
   -1.5082    0.8734   -1.4834 H   0  0  0  0  0  0  0  0  0  0  0  0
   -1.0090    1.9020   -0.1084 H   0  0  0  0  0  0  0  0  0  0  0  0
   -2.4340    2.3085   -1.0962 H   0  0  0  0  0  0  0  0  0  0  0  0
   -0.5997   -0.6098   -0.3286 H   0  0  0  0  0  0  0  0  0  0  0  0
    3.2946   -5.6985   -1.7789 H   0  0  0  0  0  0  0  0  0  0  0  0
    4.8566   -5.8978   -2.4468 H   0  0  0  0  0  0  0  0  0  0  0  0
    2.9422   -0.8780    0.7010 H   0  0  0  0  0  0  0  0  0  0  0  0
    1.3096   -0.7130    1.3551 H   0  0  0  0  0  0  0  0  0  0  0  0
    2.4135    1.3189    1.6103 H   0  0  0  0  0  0  0  0  0  0  0  0
    3.0559    3.6927    1.5330 H   0  0  0  0  0  0  0  0  0  0  0  0
    2.1282    3.8680   -2.6432 H   0  0  0  0  0  0  0  0  0  0  0  0
    1.4808    1.4660   -2.6084 H   0  0  0  0  0  0  0  0  0  0  0  0
   -4.9090   -0.6478    1.1438 H   0  0  0  0  0  0  0  0  0  0  0  0
   -6.9923    0.3069    2.0561 H   0  0  0  0  0  0  0  0  0  0  0  0
   -5.3743    4.2743    1.6270 H   0  0  0  0  0  0  0  0  0  0  0  0
   -3.2854    3.3421    0.7320 H   0  0  0  0  0  0  0  0  0  0  0  0
  1  2  1  0
  2  3  2  3
  3  4  1  0
  4  5  1  0
  5  6  2  0
  5  7  1  0
  7  8  1  0
  8  9  2  0
  9 10  1  0
 10 11  1  0
 11 12  2  0
 12 13  1  0
 13 14  1  0
 14 15  2  0
 15 16  1  0
 10 17  1  0
 17 18  1  0
 18 19  1  0
 19 20  1  0
 20 21  2  0
 21 22  1  0
 22 23  2  0
 23 24  1  0
 23 25  1  0
 25 26  2  0
  2 27  1  0
 27 28  2  0
 28 29  1  0
 29 30  2  0
 30 31  1  0
 30 32  1  0
 32 33  2  0
 17  7  2  0
 26 20  1  0
 33 27  1  0
 15 11  1  0
  1 34  1  0
  1 35  1  0
  1 36  1  0
  4 37  1  0
 16 38  1  0
 16 39  1  0
 18 40  1  0
 18 41  1  0
 21 42  1  0
 22 43  1  0
 25 44  1  0
 26 45  1  0
 28 46  1  0
 29 47  1  0
 32 48  1  0
 33 49  1  0
M  END
$$$$
