
     RDKit          3D

 54 57  0  0  0  0  0  0  0  0999 V2000
   -4.2650    4.7621   -0.5147 C   0  0  0  0  0  0  0  0  0  0  0  0
   -3.6487    3.3951   -0.5004 C   0  0  0  0  0  0  0  0  0  0  0  0
   -3.8877    2.4855   -1.5310 C   0  0  0  0  0  0  0  0  0  0  0  0
   -3.3305    1.1904   -1.5192 C   0  0  0  0  0  0  0  0  0  0  0  0
   -3.7585    0.2698   -2.6310 C   0  0  0  0  0  0  0  0  0  0  0  0
   -2.4610    0.8241   -0.4704 C   0  0  0  0  0  0  0  0  0  0  0  0
   -1.8243   -0.4387   -0.3923 N   0  0  0  0  0  0  0  0  0  0  0  0
   -1.2299   -1.1211   -1.4427 C   0  0  0  0  0  0  0  0  0  0  0  0
   -1.0996   -0.7211   -2.5967 O   0  0  0  0  0  0  0  0  0  0  0  0
   -0.6303   -2.4590   -1.0080 C   0  0  0  0  0  0  0  0  0  0  0  0
    0.7205   -2.2871   -0.4697 N   0  0  0  0  0  0  0  0  0  0  0  0
    0.8214   -1.9983    0.8860 C   0  0  0  0  0  0  0  0  0  0  0  0
   -0.1976   -1.8038    1.5558 O   0  0  0  0  0  0  0  0  0  0  0  0
    2.0920   -1.9460    1.4292 N   0  0  0  0  0  0  0  0  0  0  0  0
    2.2161   -1.6876    2.8572 C   0  0  0  0  0  0  0  0  0  0  0  0
    2.4457   -0.2339    3.0926 C   0  0  0  0  0  0  0  0  0  0  0  0
    3.5414    0.5903    2.9276 C   0  0  0  0  0  0  0  0  0  0  0  0
    3.1395    1.8805    3.3450 C   0  0  0  0  0  0  0  0  0  0  0  0
    1.8292    1.7625    3.7431 C   0  0  0  0  0  0  0  0  0  0  0  0
    1.3983    0.4836    3.5926 O   0  0  0  0  0  0  0  0  0  0  0  0
    3.2634   -2.1465    0.7143 C   0  0  0  0  0  0  0  0  0  0  0  0
    4.3813   -2.1817    1.2253 O   0  0  0  0  0  0  0  0  0  0  0  0
    3.1324   -2.3187   -0.7404 C   0  0  0  0  0  0  0  0  0  0  0  0
    4.2897   -2.4232   -1.5279 C   0  0  0  0  0  0  0  0  0  0  0  0
    4.1831   -2.5727   -2.9069 C   0  0  0  0  0  0  0  0  0  0  0  0
    2.9238   -2.6120   -3.4944 C   0  0  0  0  0  0  0  0  0  0  0  0
    1.7722   -2.5123   -2.7042 C   0  0  0  0  0  0  0  0  0  0  0  0
    1.8612   -2.3742   -1.3107 C   0  0  0  0  0  0  0  0  0  0  0  0
   -2.2493    1.7272    0.5996 C   0  0  0  0  0  0  0  0  0  0  0  0
   -1.3622    1.3927    1.7710 C   0  0  0  0  0  0  0  0  0  0  0  0
   -2.8447    3.0004    0.5687 C   0  0  0  0  0  0  0  0  0  0  0  0
   -4.7768    4.9622   -1.4617 H   0  0  0  0  0  0  0  0  0  0  0  0
   -3.4923    5.5275   -0.3878 H   0  0  0  0  0  0  0  0  0  0  0  0
   -4.9976    4.8530    0.2935 H   0  0  0  0  0  0  0  0  0  0  0  0
   -4.5388    2.7754   -2.3550 H   0  0  0  0  0  0  0  0  0  0  0  0
   -4.7930    0.4817   -2.9260 H   0  0  0  0  0  0  0  0  0  0  0  0
   -3.7514   -0.7786   -2.3197 H   0  0  0  0  0  0  0  0  0  0  0  0
   -3.1241    0.4082   -3.5106 H   0  0  0  0  0  0  0  0  0  0  0  0
   -1.4676   -0.7074    0.5250 H   0  0  0  0  0  0  0  0  0  0  0  0
   -1.2812   -2.9067   -0.2457 H   0  0  0  0  0  0  0  0  0  0  0  0
   -0.6490   -3.1674   -1.8411 H   0  0  0  0  0  0  0  0  0  0  0  0
    3.0564   -2.2601    3.2674 H   0  0  0  0  0  0  0  0  0  0  0  0
    1.3172   -2.0209    3.3878 H   0  0  0  0  0  0  0  0  0  0  0  0
    4.5100    0.2880    2.5514 H   0  0  0  0  0  0  0  0  0  0  0  0
    3.7317    2.7846    3.3581 H   0  0  0  0  0  0  0  0  0  0  0  0
    1.1007    2.4574    4.1357 H   0  0  0  0  0  0  0  0  0  0  0  0
    5.2749   -2.3823   -1.0673 H   0  0  0  0  0  0  0  0  0  0  0  0
    5.0779   -2.6472   -3.5206 H   0  0  0  0  0  0  0  0  0  0  0  0
    2.8307   -2.7106   -4.5741 H   0  0  0  0  0  0  0  0  0  0  0  0
    0.8189   -2.5181   -3.2252 H   0  0  0  0  0  0  0  0  0  0  0  0
   -0.3586    1.1348    1.4196 H   0  0  0  0  0  0  0  0  0  0  0  0
   -1.2580    2.2412    2.4554 H   0  0  0  0  0  0  0  0  0  0  0  0
   -1.7835    0.5597    2.3426 H   0  0  0  0  0  0  0  0  0  0  0  0
   -2.6678    3.6996    1.3840 H   0  0  0  0  0  0  0  0  0  0  0  0
  1  2  1  0
  2  3  2  0
  3  4  1  0
  4  5  1  0
  4  6  2  0
  6  7  1  0
  7  8  1  0
  8  9  2  0
  8 10  1  0
 10 11  1  0
 11 12  1  0
 12 13  2  0
 12 14  1  0
 14 15  1  0
 15 16  1  0
 16 17  2  0
 17 18  1  0
 18 19  2  0
 19 20  1  0
 14 21  1  0
 21 22  2  0
 21 23  1  0
 23 24  2  0
 24 25  1  0
 25 26  2  0
 26 27  1  0
 27 28  2  0
  6 29  1  0
 29 30  1  0
 29 31  2  0
 31  2  1  0
 28 11  1  0
 20 16  1  0
 28 23  1  0
  1 32  1  0
  1 33  1  0
  1 34  1  0
  3 35  1  0
  5 36  1  0
  5 37  1  0
  5 38  1  0
  7 39  1  0
 10 40  1  0
 10 41  1  0
 15 42  1  0
 15 43  1  0
 17 44  1  0
 18 45  1  0
 19 46  1  0
 24 47  1  0
 25 48  1  0
 26 49  1  0
 27 50  1  0
 30 51  1  0
 30 52  1  0
 30 53  1  0
 31 54  1  0
M  END
$$$$
