
     RDKit          3D

 37 38  0  0  0  0  0  0  0  0999 V2000
    0.9653   -0.5919   -2.8603 O   0  0  0  0  0  0  0  0  0  0  0  0
    0.6105    0.3603   -2.1724 C   0  0  0  0  0  0  0  0  0  0  0  0
   -0.6132    1.2073   -2.5255 C   0  0  0  0  0  0  0  0  0  0  0  0
   -1.8290    0.6836   -1.9805 O   0  0  0  0  0  0  0  0  0  0  0  0
   -1.9951    0.8892   -0.6497 C   0  0  0  0  0  0  0  0  0  0  0  0
   -1.1931    1.4560    0.0791 O   0  0  0  0  0  0  0  0  0  0  0  0
   -3.2951    0.3371   -0.1774 C   0  0  0  0  0  0  0  0  0  0  0  0
   -3.6384    0.5906    1.1628 C   0  0  0  0  0  0  0  0  0  0  0  0
   -4.8415    0.1146    1.6945 C   0  0  0  0  0  0  0  0  0  0  0  0
   -5.7083   -0.6215    0.8905 C   0  0  0  0  0  0  0  0  0  0  0  0
   -7.1890   -1.2084    1.5406 Cl  0  0  0  0  0  0  0  0  0  0  0  0
   -5.3832   -0.8848   -0.4378 C   0  0  0  0  0  0  0  0  0  0  0  0
   -4.1821   -0.4085   -0.9700 C   0  0  0  0  0  0  0  0  0  0  0  0
   -3.9662   -0.7292   -2.2829 O   0  0  0  0  0  0  0  0  0  0  0  0
    1.2519    0.7534   -1.0147 N   0  0  0  0  0  0  0  0  0  0  0  0
    2.3430   -0.0393   -0.4759 C   0  0  0  0  0  0  0  0  0  0  0  0
    3.1601    0.7315    0.5643 C   0  0  0  0  0  0  0  0  0  0  0  0
    4.2274   -0.0723    1.1291 N   0  0  0  0  0  0  0  0  0  0  0  0
    4.0513   -0.9359    2.1819 C   0  0  0  0  0  0  0  0  0  0  0  0
    2.8231   -1.0230    2.7653 O   0  0  0  0  0  0  0  0  0  0  0  0
    5.1447   -1.6281    2.5221 C   0  0  0  0  0  0  0  0  0  0  0  0
    6.4890   -1.2250    1.4964 S   0  0  0  0  0  0  0  0  0  0  0  0
    5.4957   -0.0812    0.5710 C   0  0  0  0  0  0  0  0  0  0  0  0
    5.9098    0.5597   -0.3801 O   0  0  0  0  0  0  0  0  0  0  0  0
   -0.4655    2.2510   -2.2229 H   0  0  0  0  0  0  0  0  0  0  0  0
   -0.7145    1.2114   -3.6160 H   0  0  0  0  0  0  0  0  0  0  0  0
   -2.9717    1.1682    1.8018 H   0  0  0  0  0  0  0  0  0  0  0  0
   -5.0938    0.3228    2.7314 H   0  0  0  0  0  0  0  0  0  0  0  0
   -6.0584   -1.4608   -1.0662 H   0  0  0  0  0  0  0  0  0  0  0  0
   -3.1014   -0.3710   -2.5635 H   0  0  0  0  0  0  0  0  0  0  0  0
    0.6556    1.2395   -0.3426 H   0  0  0  0  0  0  0  0  0  0  0  0
    2.9879   -0.3632   -1.3009 H   0  0  0  0  0  0  0  0  0  0  0  0
    1.9030   -0.9416   -0.0363 H   0  0  0  0  0  0  0  0  0  0  0  0
    2.5177    1.1034    1.3726 H   0  0  0  0  0  0  0  0  0  0  0  0
    3.6014    1.6166    0.0872 H   0  0  0  0  0  0  0  0  0  0  0  0
    2.8812   -1.6528    3.5048 H   0  0  0  0  0  0  0  0  0  0  0  0
    5.2210   -2.3575    3.3150 H   0  0  0  0  0  0  0  0  0  0  0  0
  1  2  2  0
  2  3  1  0
  3  4  1  0
  4  5  1  0
  5  6  2  0
  5  7  1  0
  7  8  2  0
  8  9  1  0
  9 10  2  0
 10 11  1  0
 10 12  1  0
 12 13  2  0
 13 14  1  0
  2 15  1  0
 15 16  1  0
 16 17  1  0
 17 18  1  0
 18 19  1  0
 19 20  1  0
 19 21  2  0
 21 22  1  0
 22 23  1  0
 23 24  2  0
 13  7  1  0
 23 18  1  0
  3 25  1  0
  3 26  1  0
  8 27  1  0
  9 28  1  0
 12 29  1  0
 14 30  1  0
 15 31  1  0
 16 32  1  0
 16 33  1  0
 17 34  1  0
 17 35  1  0
 20 36  1  0
 21 37  1  0
M  END
$$$$
