
     RDKit          3D

 54 57  0  0  0  0  0  0  0  0999 V2000
   -4.5660   -1.4917   -4.0648 C   0  0  0  0  0  0  0  0  0  0  0  0
   -3.3398   -0.7798   -3.9636 O   0  0  0  0  0  0  0  0  0  0  0  0
   -2.9977   -0.3069   -2.7266 C   0  0  0  0  0  0  0  0  0  0  0  0
   -1.8093    0.4314   -2.6947 C   0  0  0  0  0  0  0  0  0  0  0  0
   -1.3343    0.9691   -1.4972 C   0  0  0  0  0  0  0  0  0  0  0  0
   -2.0527    0.7546   -0.3223 C   0  0  0  0  0  0  0  0  0  0  0  0
   -1.5873    1.3748    0.9359 C   0  0  0  0  0  0  0  0  0  0  0  0
   -1.7329    2.6583    1.0429 N   0  0  0  0  0  0  0  0  0  0  0  0
   -1.3395    3.2877    2.2263 C   0  0  0  0  0  0  0  0  0  0  0  0
   -1.4924    4.6717    2.3374 C   0  0  0  0  0  0  0  0  0  0  0  0
   -1.1172    5.3391    3.5071 C   0  0  0  0  0  0  0  0  0  0  0  0
   -0.5846    4.6235    4.5790 C   0  0  0  0  0  0  0  0  0  0  0  0
   -0.4279    3.2416    4.4795 C   0  0  0  0  0  0  0  0  0  0  0  0
   -0.8083    2.5850    3.3021 C   0  0  0  0  0  0  0  0  0  0  0  0
   -0.6480    1.1303    3.1544 C   0  0  0  0  0  0  0  0  0  0  0  0
   -0.1694    0.4777    4.0810 O   0  0  0  0  0  0  0  0  0  0  0  0
   -1.0474    0.5727    1.9374 N   0  0  0  0  0  0  0  0  0  0  0  0
   -0.7791   -0.8677    1.7833 C   0  0  0  0  0  0  0  0  0  0  0  0
    0.7092   -1.1691    1.5540 C   0  0  0  0  0  0  0  0  0  0  0  0
    1.0478   -0.8495    0.1979 O   0  0  0  0  0  0  0  0  0  0  0  0
    2.2451   -1.3729   -0.2224 C   0  0  0  0  0  0  0  0  0  0  0  0
    3.3920   -1.3834    0.5787 C   0  0  0  0  0  0  0  0  0  0  0  0
    4.5935   -1.8980    0.0852 C   0  0  0  0  0  0  0  0  0  0  0  0
    4.6675   -2.4004   -1.2181 C   0  0  0  0  0  0  0  0  0  0  0  0
    5.9683   -2.9095   -1.7649 C   0  0  0  0  0  0  0  0  0  0  0  0
    3.5253   -2.3588   -2.0283 C   0  0  0  0  0  0  0  0  0  0  0  0
    2.3069   -1.8594   -1.5380 C   0  0  0  0  0  0  0  0  0  0  0  0
    1.1112   -1.8155   -2.4470 C   0  0  0  0  0  0  0  0  0  0  0  0
   -3.2554    0.0420   -0.3431 C   0  0  0  0  0  0  0  0  0  0  0  0
   -3.7212   -0.4980   -1.5463 C   0  0  0  0  0  0  0  0  0  0  0  0
   -5.4150   -0.8609   -3.7814 H   0  0  0  0  0  0  0  0  0  0  0  0
   -4.7002   -1.7795   -5.1121 H   0  0  0  0  0  0  0  0  0  0  0  0
   -4.5390   -2.4094   -3.4683 H   0  0  0  0  0  0  0  0  0  0  0  0
   -1.2503    0.5926   -3.6136 H   0  0  0  0  0  0  0  0  0  0  0  0
   -0.4151    1.5497   -1.4834 H   0  0  0  0  0  0  0  0  0  0  0  0
   -1.9082    5.2305    1.5025 H   0  0  0  0  0  0  0  0  0  0  0  0
   -1.2417    6.4168    3.5783 H   0  0  0  0  0  0  0  0  0  0  0  0
   -0.2911    5.1413    5.4890 H   0  0  0  0  0  0  0  0  0  0  0  0
   -0.0102    2.6801    5.3119 H   0  0  0  0  0  0  0  0  0  0  0  0
   -1.3640   -1.2932    0.9663 H   0  0  0  0  0  0  0  0  0  0  0  0
   -1.1015   -1.3641    2.7067 H   0  0  0  0  0  0  0  0  0  0  0  0
    0.8734   -2.2403    1.7302 H   0  0  0  0  0  0  0  0  0  0  0  0
    1.3305   -0.5873    2.2423 H   0  0  0  0  0  0  0  0  0  0  0  0
    3.3844   -0.9703    1.5831 H   0  0  0  0  0  0  0  0  0  0  0  0
    5.4756   -1.8908    0.7235 H   0  0  0  0  0  0  0  0  0  0  0  0
    5.7982   -3.6945   -2.5108 H   0  0  0  0  0  0  0  0  0  0  0  0
    6.5824   -3.3454   -0.9699 H   0  0  0  0  0  0  0  0  0  0  0  0
    6.5231   -2.0905   -2.2335 H   0  0  0  0  0  0  0  0  0  0  0  0
    3.5833   -2.7195   -3.0545 H   0  0  0  0  0  0  0  0  0  0  0  0
    1.0135   -0.8170   -2.8822 H   0  0  0  0  0  0  0  0  0  0  0  0
    0.1952   -2.0702   -1.9051 H   0  0  0  0  0  0  0  0  0  0  0  0
    1.2079   -2.5399   -3.2624 H   0  0  0  0  0  0  0  0  0  0  0  0
   -3.8334   -0.0858    0.5688 H   0  0  0  0  0  0  0  0  0  0  0  0
   -4.6543   -1.0513   -1.5304 H   0  0  0  0  0  0  0  0  0  0  0  0
  1  2  1  0
  2  3  1  0
  3  4  2  0
  4  5  1  0
  5  6  2  0
  6  7  1  0
  7  8  2  0
  8  9  1  0
  9 10  2  0
 10 11  1  0
 11 12  2  0
 12 13  1  0
 13 14  2  0
 14 15  1  0
 15 16  2  0
 15 17  1  0
 17 18  1  0
 18 19  1  0
 19 20  1  0
 20 21  1  0
 21 22  2  0
 22 23  1  0
 23 24  2  0
 24 25  1  0
 24 26  1  0
 26 27  2  0
 27 28  1  0
  6 29  1  0
 29 30  2  0
 30  3  1  0
 17  7  1  0
 27 21  1  0
 14  9  1  0
  1 31  1  0
  1 32  1  0
  1 33  1  0
  4 34  1  0
  5 35  1  0
 10 36  1  0
 11 37  1  0
 12 38  1  0
 13 39  1  0
 18 40  1  0
 18 41  1  0
 19 42  1  0
 19 43  1  0
 22 44  1  0
 23 45  1  0
 25 46  1  0
 25 47  1  0
 25 48  1  0
 26 49  1  0
 28 50  1  0
 28 51  1  0
 28 52  1  0
 29 53  1  0
 30 54  1  0
M  END
$$$$
