
     RDKit          3D

 33 33  0  0  0  0  0  0  0  0999 V2000
   -4.2167   -0.8401    0.6594 C   0  0  0  0  0  0  0  0  0  0  0  0
   -2.9155   -0.7771   -0.1421 C   0  0  0  0  0  0  0  0  0  0  0  0
   -3.2092   -0.2548   -1.5517 C   0  0  0  0  0  0  0  0  0  0  0  0
   -1.9312    0.1165    0.4900 N   0  0  0  0  0  0  0  0  0  0  0  0
   -1.2888   -0.4971    1.6573 C   0  0  0  0  0  0  0  0  0  0  0  0
   -0.3520    0.4849    2.3714 C   0  0  0  0  0  0  0  0  0  0  0  0
    0.8029    1.0029    1.5163 C   0  0  0  0  0  0  0  0  0  0  0  0
    1.5317   -0.1090    0.9989 O   0  0  0  0  0  0  0  0  0  0  0  0
    2.4978    0.1417    0.0623 C   0  0  0  0  0  0  0  0  0  0  0  0
    3.0239    1.4096   -0.2065 C   0  0  0  0  0  0  0  0  0  0  0  0
    4.0205    1.5711   -1.1751 C   0  0  0  0  0  0  0  0  0  0  0  0
    4.4983    0.4658   -1.8749 C   0  0  0  0  0  0  0  0  0  0  0  0
    5.7237    0.6736   -3.0641 Cl  0  0  0  0  0  0  0  0  0  0  0  0
    3.9927   -0.8040   -1.6166 C   0  0  0  0  0  0  0  0  0  0  0  0
    2.9973   -0.9628   -0.6486 C   0  0  0  0  0  0  0  0  0  0  0  0
    2.3352   -2.7189   -0.3415 Br  0  0  0  0  0  0  0  0  0  0  0  0
   -4.6403    0.1589    0.8132 H   0  0  0  0  0  0  0  0  0  0  0  0
   -4.9652   -1.4416    0.1317 H   0  0  0  0  0  0  0  0  0  0  0  0
   -4.0684   -1.2999    1.6411 H   0  0  0  0  0  0  0  0  0  0  0  0
   -2.4987   -1.7870   -0.2432 H   0  0  0  0  0  0  0  0  0  0  0  0
   -2.2992   -0.2336   -2.1618 H   0  0  0  0  0  0  0  0  0  0  0  0
   -3.6250    0.7590   -1.5272 H   0  0  0  0  0  0  0  0  0  0  0  0
   -3.9313   -0.9022   -2.0614 H   0  0  0  0  0  0  0  0  0  0  0  0
   -1.2031    0.3201   -0.1963 H   0  0  0  0  0  0  0  0  0  0  0  0
   -2.0415   -0.8137    2.3869 H   0  0  0  0  0  0  0  0  0  0  0  0
   -0.7323   -1.3920    1.3548 H   0  0  0  0  0  0  0  0  0  0  0  0
    0.0668   -0.0364    3.2417 H   0  0  0  0  0  0  0  0  0  0  0  0
   -0.9263    1.3369    2.7550 H   0  0  0  0  0  0  0  0  0  0  0  0
    1.4597    1.6106    2.1500 H   0  0  0  0  0  0  0  0  0  0  0  0
    0.4139    1.6251    0.7016 H   0  0  0  0  0  0  0  0  0  0  0  0
    2.6880    2.2932    0.3271 H   0  0  0  0  0  0  0  0  0  0  0  0
    4.4210    2.5623   -1.3742 H   0  0  0  0  0  0  0  0  0  0  0  0
    4.3713   -1.6622   -2.1649 H   0  0  0  0  0  0  0  0  0  0  0  0
  1  2  1  0
  2  3  1  0
  2  4  1  0
  4  5  1  0
  5  6  1  0
  6  7  1  0
  7  8  1  0
  8  9  1  0
  9 10  2  0
 10 11  1  0
 11 12  2  0
 12 13  1  0
 12 14  1  0
 14 15  2  0
 15 16  1  0
 15  9  1  0
  1 17  1  0
  1 18  1  0
  1 19  1  0
  2 20  1  0
  3 21  1  0
  3 22  1  0
  3 23  1  0
  4 24  1  0
  5 25  1  0
  5 26  1  0
  6 27  1  0
  6 28  1  0
  7 29  1  0
  7 30  1  0
 10 31  1  0
 11 32  1  0
 14 33  1  0
M  END
$$$$
