
     RDKit          3D

 51 54  0  0  0  0  0  0  0  0999 V2000
   -6.2750    2.5030    1.1083 C   0  0  0  0  0  0  0  0  0  0  0  0
   -6.4091    1.5800   -0.0961 C   0  0  0  0  0  0  0  0  0  0  0  0
   -5.7087    0.3106    0.1309 N   0  0  0  0  0  0  0  0  0  0  0  0
   -6.5155   -0.7591    0.7358 C   0  0  0  0  0  0  0  0  0  0  0  0
   -7.1434   -1.6387   -0.3355 C   0  0  0  0  0  0  0  0  0  0  0  0
   -4.3562    0.1514   -0.1531 C   0  0  0  0  0  0  0  0  0  0  0  0
   -3.6942   -1.0847   -0.0048 C   0  0  0  0  0  0  0  0  0  0  0  0
   -2.3237   -1.2550   -0.2711 C   0  0  0  0  0  0  0  0  0  0  0  0
   -1.5626   -0.1803   -0.7092 C   0  0  0  0  0  0  0  0  0  0  0  0
   -0.1429   -0.2847   -0.9950 C   0  0  0  0  0  0  0  0  0  0  0  0
    0.5455    0.7829   -1.4307 C   0  0  0  0  0  0  0  0  0  0  0  0
    1.9427    0.6344   -1.6805 C   0  0  0  0  0  0  0  0  0  0  0  0
    2.8146    0.0731   -0.8637 N   0  0  0  0  0  0  0  0  0  0  0  0
    4.0935    0.0934   -1.3965 C   0  0  0  0  0  0  0  0  0  0  0  0
    5.2421   -0.3651   -0.6246 C   0  0  0  0  0  0  0  0  0  0  0  0
    6.3974   -0.8691   -1.2344 C   0  0  0  0  0  0  0  0  0  0  0  0
    7.4959   -1.2542   -0.4538 C   0  0  0  0  0  0  0  0  0  0  0  0
    7.4638   -1.1372    0.9377 C   0  0  0  0  0  0  0  0  0  0  0  0
    8.6164   -1.5126    1.5716 O   0  0  0  0  0  0  0  0  0  0  0  0
    8.6742   -1.2935    2.9743 C   0  0  0  0  0  0  0  0  0  0  0  0
    6.3065   -0.6618    1.5521 C   0  0  0  0  0  0  0  0  0  0  0  0
    5.2035   -0.2828    0.7756 C   0  0  0  0  0  0  0  0  0  0  0  0
    4.1725    0.6152   -2.6737 C   0  0  0  0  0  0  0  0  0  0  0  0
    2.6241    1.1086   -3.2042 S   0  0  0  0  0  0  0  0  0  0  0  0
   -0.1116    2.1058   -1.5968 C   0  0  0  0  0  0  0  0  0  0  0  0
    0.4924    3.1142   -1.9469 O   0  0  0  0  0  0  0  0  0  0  0  0
   -1.4765    2.1627   -1.3186 O   0  0  0  0  0  0  0  0  0  0  0  0
   -2.1943    1.0383   -0.8740 C   0  0  0  0  0  0  0  0  0  0  0  0
   -3.5558    1.2112   -0.6038 C   0  0  0  0  0  0  0  0  0  0  0  0
   -6.8041    3.4485    0.9213 H   0  0  0  0  0  0  0  0  0  0  0  0
   -6.7102    2.0418    1.9991 H   0  0  0  0  0  0  0  0  0  0  0  0
   -5.2275    2.7349    1.3357 H   0  0  0  0  0  0  0  0  0  0  0  0
   -6.0686    2.0758   -1.0126 H   0  0  0  0  0  0  0  0  0  0  0  0
   -7.4768    1.3863   -0.2652 H   0  0  0  0  0  0  0  0  0  0  0  0
   -5.9361   -1.3616    1.4454 H   0  0  0  0  0  0  0  0  0  0  0  0
   -7.3212   -0.3202    1.3375 H   0  0  0  0  0  0  0  0  0  0  0  0
   -6.3857   -2.1427   -0.9418 H   0  0  0  0  0  0  0  0  0  0  0  0
   -7.7693   -2.4050    0.1323 H   0  0  0  0  0  0  0  0  0  0  0  0
   -7.7716   -1.0504   -1.0095 H   0  0  0  0  0  0  0  0  0  0  0  0
   -4.2327   -1.9685    0.3213 H   0  0  0  0  0  0  0  0  0  0  0  0
   -1.8752   -2.2366   -0.1275 H   0  0  0  0  0  0  0  0  0  0  0  0
    0.3404   -1.2485   -0.8424 H   0  0  0  0  0  0  0  0  0  0  0  0
    6.4645   -0.9773   -2.3125 H   0  0  0  0  0  0  0  0  0  0  0  0
    8.3903   -1.6392   -0.9361 H   0  0  0  0  0  0  0  0  0  0  0  0
    8.5024   -0.2398    3.2175 H   0  0  0  0  0  0  0  0  0  0  0  0
    7.9668   -1.9418    3.4981 H   0  0  0  0  0  0  0  0  0  0  0  0
    9.6833   -1.5513    3.3142 H   0  0  0  0  0  0  0  0  0  0  0  0
    6.2260   -0.5660    2.6338 H   0  0  0  0  0  0  0  0  0  0  0  0
    4.3130    0.0970    1.2755 H   0  0  0  0  0  0  0  0  0  0  0  0
    5.0387    0.7510   -3.3024 H   0  0  0  0  0  0  0  0  0  0  0  0
   -3.9622    2.2074   -0.7461 H   0  0  0  0  0  0  0  0  0  0  0  0
  1  2  1  0
  2  3  1  0
  3  4  1  0
  4  5  1  0
  3  6  1  0
  6  7  2  0
  7  8  1  0
  8  9  2  0
  9 10  1  0
 10 11  2  0
 11 12  1  0
 12 13  2  0
 13 14  1  0
 14 15  1  0
 15 16  2  0
 16 17  1  0
 17 18  2  0
 18 19  1  0
 19 20  1  0
 18 21  1  0
 21 22  2  0
 14 23  2  0
 23 24  1  0
 11 25  1  0
 25 26  2  0
 25 27  1  0
 27 28  1  0
 28 29  2  0
 29  6  1  0
 28  9  1  0
 24 12  1  0
 22 15  1  0
  1 30  1  0
  1 31  1  0
  1 32  1  0
  2 33  1  0
  2 34  1  0
  4 35  1  0
  4 36  1  0
  5 37  1  0
  5 38  1  0
  5 39  1  0
  7 40  1  0
  8 41  1  0
 10 42  1  0
 16 43  1  0
 17 44  1  0
 20 45  1  0
 20 46  1  0
 20 47  1  0
 21 48  1  0
 22 49  1  0
 23 50  1  0
 29 51  1  0
M  END
$$$$
