
     RDKit          3D

 39 41  0  0  0  0  0  0  0  0999 V2000
   -3.8918   -1.5462   -3.0544 C   0  0  0  0  0  0  0  0  0  0  0  0
   -2.8942   -1.7157   -2.0559 O   0  0  0  0  0  0  0  0  0  0  0  0
   -2.9561   -0.8962   -0.9561 C   0  0  0  0  0  0  0  0  0  0  0  0
   -3.9130    0.1065   -0.7661 C   0  0  0  0  0  0  0  0  0  0  0  0
   -3.8946    0.9061    0.3840 C   0  0  0  0  0  0  0  0  0  0  0  0
   -4.9161    1.9925    0.5655 C   0  0  0  0  0  0  0  0  0  0  0  0
   -2.8888    0.7117    1.3347 C   0  0  0  0  0  0  0  0  0  0  0  0
   -1.9378   -0.2929    1.1648 C   0  0  0  0  0  0  0  0  0  0  0  0
   -1.9767   -1.1103    0.0330 C   0  0  0  0  0  0  0  0  0  0  0  0
   -1.0578   -2.1005   -0.2125 O   0  0  0  0  0  0  0  0  0  0  0  0
   -0.5735   -2.8121    0.9224 C   0  0  0  0  0  0  0  0  0  0  0  0
    0.7600   -2.2761    1.4431 C   0  0  0  0  0  0  0  0  0  0  0  0
    1.1445   -2.5447    2.5754 O   0  0  0  0  0  0  0  0  0  0  0  0
    1.4292   -1.5292    0.4981 N   0  0  0  0  0  0  0  0  0  0  0  0
    2.6023   -0.8856    0.7683 C   0  0  0  0  0  0  0  0  0  0  0  0
    3.2950   -0.8157    1.8794 N   0  0  0  0  0  0  0  0  0  0  0  0
    4.4269   -0.0350    1.7280 N   0  0  0  0  0  0  0  0  0  0  0  0
    4.5244    0.4408    0.5066 C   0  0  0  0  0  0  0  0  0  0  0  0
    5.7337    1.3228    0.0709 C   0  0  0  0  0  0  0  0  0  0  0  0
    5.9717    2.6202    0.8018 C   0  0  0  0  0  0  0  0  0  0  0  0
    5.5115    2.6400   -0.6261 C   0  0  0  0  0  0  0  0  0  0  0  0
    3.2592   -0.0214   -0.5504 S   0  0  0  0  0  0  0  0  0  0  0  0
   -4.8924   -1.7186   -2.6509 H   0  0  0  0  0  0  0  0  0  0  0  0
   -3.8179   -0.5574   -3.5204 H   0  0  0  0  0  0  0  0  0  0  0  0
   -3.7169   -2.2941   -3.8286 H   0  0  0  0  0  0  0  0  0  0  0  0
   -4.6896    0.2930   -1.5023 H   0  0  0  0  0  0  0  0  0  0  0  0
   -5.9076    1.6370    0.2686 H   0  0  0  0  0  0  0  0  0  0  0  0
   -4.9829    2.3009    1.6145 H   0  0  0  0  0  0  0  0  0  0  0  0
   -4.6504    2.8661   -0.0394 H   0  0  0  0  0  0  0  0  0  0  0  0
   -2.8363    1.3470    2.2151 H   0  0  0  0  0  0  0  0  0  0  0  0
   -1.1720   -0.3955    1.9264 H   0  0  0  0  0  0  0  0  0  0  0  0
   -1.3089   -2.8473    1.7382 H   0  0  0  0  0  0  0  0  0  0  0  0
   -0.3961   -3.8441    0.6020 H   0  0  0  0  0  0  0  0  0  0  0  0
    1.0123   -1.4045   -0.4164 H   0  0  0  0  0  0  0  0  0  0  0  0
    6.6127    0.7501   -0.2052 H   0  0  0  0  0  0  0  0  0  0  0  0
    6.9979    2.8955    1.0170 H   0  0  0  0  0  0  0  0  0  0  0  0
    5.2655    2.9152    1.5717 H   0  0  0  0  0  0  0  0  0  0  0  0
    6.2258    2.9319   -1.3868 H   0  0  0  0  0  0  0  0  0  0  0  0
    4.4989    2.9659   -0.8302 H   0  0  0  0  0  0  0  0  0  0  0  0
  1  2  1  0
  2  3  1  0
  3  4  2  0
  4  5  1  0
  5  6  1  0
  5  7  2  0
  7  8  1  0
  8  9  2  0
  9 10  1  0
 10 11  1  0
 11 12  1  0
 12 13  2  0
 12 14  1  0
 14 15  1  0
 15 16  2  0
 16 17  1  0
 17 18  2  0
 18 19  1  0
 19 20  1  0
 20 21  1  0
 18 22  1  0
  9  3  1  0
 22 15  1  0
 21 19  1  0
  1 23  1  0
  1 24  1  0
  1 25  1  0
  4 26  1  0
  6 27  1  0
  6 28  1  0
  6 29  1  0
  7 30  1  0
  8 31  1  0
 11 32  1  0
 11 33  1  0
 14 34  1  0
 19 35  1  0
 20 36  1  0
 20 37  1  0
 21 38  1  0
 21 39  1  0
M  END
$$$$
