
     RDKit          3D

 59 64  0  0  0  0  0  0  0  0999 V2000
   -4.7902    2.1944    2.1714 C   0  0  0  0  0  0  0  0  0  0  0  0
   -4.3186    1.2637    1.2057 O   0  0  0  0  0  0  0  0  0  0  0  0
   -5.2482    0.6584    0.3959 C   0  0  0  0  0  0  0  0  0  0  0  0
   -6.6078    1.0018    0.3751 C   0  0  0  0  0  0  0  0  0  0  0  0
   -7.4938    0.3484   -0.4819 C   0  0  0  0  0  0  0  0  0  0  0  0
   -7.0324   -0.6466   -1.3356 C   0  0  0  0  0  0  0  0  0  0  0  0
   -5.6839   -0.9941   -1.3281 C   0  0  0  0  0  0  0  0  0  0  0  0
   -4.7722   -0.3587   -0.4666 C   0  0  0  0  0  0  0  0  0  0  0  0
   -3.4311   -0.7961   -0.5413 N   0  0  0  0  0  0  0  0  0  0  0  0
   -2.5734    0.1609   -1.2781 C   0  0  0  0  0  0  0  0  0  0  0  0
   -1.0983   -0.2999   -1.2719 C   0  0  0  0  0  0  0  0  0  0  0  0
   -0.5611   -0.5168    0.1036 N   0  0  0  0  0  0  0  0  0  0  0  0
    0.6548    0.0515    0.3731 C   0  0  0  0  0  0  0  0  0  0  0  0
    0.9307    1.2358    1.0332 C   0  0  0  0  0  0  0  0  0  0  0  0
    2.3190    1.4710    0.9466 C   0  0  0  0  0  0  0  0  0  0  0  0
    2.8783    0.4215    0.2431 C   0  0  0  0  0  0  0  0  0  0  0  0
    4.2383    0.1454   -0.1690 C   0  0  0  0  0  0  0  0  0  0  0  0
    5.3131    1.1601   -0.0034 C   0  0  0  0  0  0  0  0  0  0  0  0
    5.1242    2.4926   -0.3812 C   0  0  0  0  0  0  0  0  0  0  0  0
    6.1654    3.4118   -0.2356 C   0  0  0  0  0  0  0  0  0  0  0  0
    7.3981    2.9985    0.2707 C   0  0  0  0  0  0  0  0  0  0  0  0
    7.5955    1.6665    0.6279 C   0  0  0  0  0  0  0  0  0  0  0  0
    6.5566    0.7455    0.4863 C   0  0  0  0  0  0  0  0  0  0  0  0
    4.5543   -1.0031   -0.6908 N   0  0  0  0  0  0  0  0  0  0  0  0
    3.5567   -1.9816   -0.8625 C   0  0  0  0  0  0  0  0  0  0  0  0
    3.9495   -3.2203   -1.3805 C   0  0  0  0  0  0  0  0  0  0  0  0
    3.0228   -4.2485   -1.5519 C   0  0  0  0  0  0  0  0  0  0  0  0
    1.6909   -4.0473   -1.1956 C   0  0  0  0  0  0  0  0  0  0  0  0
    1.2801   -2.8165   -0.6801 C   0  0  0  0  0  0  0  0  0  0  0  0
    2.2055   -1.7794   -0.5328 C   0  0  0  0  0  0  0  0  0  0  0  0
    1.8762   -0.5052   -0.0072 N   0  0  0  0  0  0  0  0  0  0  0  0
   -1.5941   -0.4803    1.1663 C   0  0  0  0  0  0  0  0  0  0  0  0
   -2.8551   -1.2663    0.7447 C   0  0  0  0  0  0  0  0  0  0  0  0
   -5.5030    1.7261    2.8562 H   0  0  0  0  0  0  0  0  0  0  0  0
   -5.2189    3.0798    1.6953 H   0  0  0  0  0  0  0  0  0  0  0  0
   -3.9291    2.5247    2.7650 H   0  0  0  0  0  0  0  0  0  0  0  0
   -7.0118    1.7783    1.0149 H   0  0  0  0  0  0  0  0  0  0  0  0
   -8.5463    0.6217   -0.4856 H   0  0  0  0  0  0  0  0  0  0  0  0
   -7.7168   -1.1523   -2.0067 H   0  0  0  0  0  0  0  0  0  0  0  0
   -5.3281   -1.7760   -1.9954 H   0  0  0  0  0  0  0  0  0  0  0  0
   -2.6346    1.1658   -0.8419 H   0  0  0  0  0  0  0  0  0  0  0  0
   -2.9134    0.2313   -2.3189 H   0  0  0  0  0  0  0  0  0  0  0  0
   -1.0216   -1.2452   -1.8190 H   0  0  0  0  0  0  0  0  0  0  0  0
   -0.4989    0.4388   -1.8169 H   0  0  0  0  0  0  0  0  0  0  0  0
    0.1960    1.8911    1.4812 H   0  0  0  0  0  0  0  0  0  0  0  0
    2.8442    2.3286    1.3449 H   0  0  0  0  0  0  0  0  0  0  0  0
    4.1809    2.8191   -0.8087 H   0  0  0  0  0  0  0  0  0  0  0  0
    6.0219    4.4478   -0.5299 H   0  0  0  0  0  0  0  0  0  0  0  0
    8.2100    3.7140    0.3753 H   0  0  0  0  0  0  0  0  0  0  0  0
    8.5609    1.3410    1.0072 H   0  0  0  0  0  0  0  0  0  0  0  0
    6.7158   -0.2950    0.7547 H   0  0  0  0  0  0  0  0  0  0  0  0
    4.9924   -3.3804   -1.6447 H   0  0  0  0  0  0  0  0  0  0  0  0
    3.3434   -5.2078   -1.9499 H   0  0  0  0  0  0  0  0  0  0  0  0
    0.9709   -4.8532   -1.3105 H   0  0  0  0  0  0  0  0  0  0  0  0
    0.2438   -2.7086   -0.3823 H   0  0  0  0  0  0  0  0  0  0  0  0
   -1.8578    0.5573    1.4006 H   0  0  0  0  0  0  0  0  0  0  0  0
   -1.1904   -0.9345    2.0795 H   0  0  0  0  0  0  0  0  0  0  0  0
   -3.5861   -1.2624    1.5633 H   0  0  0  0  0  0  0  0  0  0  0  0
   -2.5736   -2.3172    0.5963 H   0  0  0  0  0  0  0  0  0  0  0  0
  1  2  1  0
  2  3  1  0
  3  4  2  0
  4  5  1  0
  5  6  2  0
  6  7  1  0
  7  8  2  0
  8  9  1  0
  9 10  1  0
 10 11  1  0
 11 12  1  0
 12 13  1  0
 13 14  2  0
 14 15  1  0
 15 16  2  0
 16 17  1  0
 17 18  1  0
 18 19  2  0
 19 20  1  0
 20 21  2  0
 21 22  1  0
 22 23  2  0
 17 24  2  0
 24 25  1  0
 25 26  2  0
 26 27  1  0
 27 28  2  0
 28 29  1  0
 29 30  2  0
 30 31  1  0
 12 32  1  0
 32 33  1  0
  8  3  1  0
 33  9  1  0
 31 13  1  0
 31 16  1  0
 23 18  1  0
 30 25  1  0
  1 34  1  0
  1 35  1  0
  1 36  1  0
  4 37  1  0
  5 38  1  0
  6 39  1  0
  7 40  1  0
 10 41  1  0
 10 42  1  0
 11 43  1  0
 11 44  1  0
 14 45  1  0
 15 46  1  0
 19 47  1  0
 20 48  1  0
 21 49  1  0
 22 50  1  0
 23 51  1  0
 26 52  1  0
 27 53  1  0
 28 54  1  0
 29 55  1  0
 32 56  1  0
 32 57  1  0
 33 58  1  0
 33 59  1  0
M  END
$$$$
