
     RDKit          3D

 45 47  0  0  0  0  0  0  0  0999 V2000
   -7.7480   -1.5556    0.7079 C   0  0  0  0  0  0  0  0  0  0  0  0
   -6.5181   -0.6638    0.7239 C   0  0  0  0  0  0  0  0  0  0  0  0
   -5.9856   -0.6318   -0.6015 O   0  0  0  0  0  0  0  0  0  0  0  0
   -4.6299   -0.4358   -0.6895 C   0  0  0  0  0  0  0  0  0  0  0  0
   -4.0174   -1.1940   -1.6936 C   0  0  0  0  0  0  0  0  0  0  0  0
   -2.6447   -1.1026   -1.9169 C   0  0  0  0  0  0  0  0  0  0  0  0
   -1.8696   -0.2466   -1.1344 C   0  0  0  0  0  0  0  0  0  0  0  0
   -0.4264   -0.1609   -1.3815 C   0  0  0  0  0  0  0  0  0  0  0  0
    0.5379   -0.5421   -0.5333 C   0  0  0  0  0  0  0  0  0  0  0  0
    0.3582   -1.2367    1.0366 S   0  0  0  0  0  0  0  0  0  0  0  0
    2.0969   -1.3792    1.2867 C   0  0  0  0  0  0  0  0  0  0  0  0
    2.7761   -2.0539    2.6526 S   0  0  0  0  0  0  0  0  0  0  0  0
    2.7401   -0.8856    0.1705 N   0  0  0  0  0  0  0  0  0  0  0  0
    4.1427   -0.7811    0.0886 N   0  0  0  0  0  0  0  0  0  0  0  0
    4.6864    0.4174    0.5236 C   0  0  0  0  0  0  0  0  0  0  0  0
    4.0437    1.2760    1.1202 O   0  0  0  0  0  0  0  0  0  0  0  0
    6.1171    0.6452    0.1928 C   0  0  0  0  0  0  0  0  0  0  0  0
    7.0085   -0.4105   -0.0056 C   0  0  0  0  0  0  0  0  0  0  0  0
    8.3232   -0.0969   -0.3028 C   0  0  0  0  0  0  0  0  0  0  0  0
    8.7869    1.1657   -0.4100 N   0  0  0  0  0  0  0  0  0  0  0  0
    7.9069    2.1669   -0.1941 C   0  0  0  0  0  0  0  0  0  0  0  0
    6.5752    1.9609    0.1116 C   0  0  0  0  0  0  0  0  0  0  0  0
    1.9784   -0.4281   -0.8895 C   0  0  0  0  0  0  0  0  0  0  0  0
    2.4035   -0.0317   -1.9671 O   0  0  0  0  0  0  0  0  0  0  0  0
   -2.4868    0.5435   -0.1522 C   0  0  0  0  0  0  0  0  0  0  0  0
   -3.8692    0.4670    0.0739 C   0  0  0  0  0  0  0  0  0  0  0  0
   -4.5362    1.2427    0.9852 O   0  0  0  0  0  0  0  0  0  0  0  0
   -3.7960    2.2302    1.6917 C   0  0  0  0  0  0  0  0  0  0  0  0
   -7.4799   -2.5748    0.4111 H   0  0  0  0  0  0  0  0  0  0  0  0
   -8.2177   -1.5908    1.6951 H   0  0  0  0  0  0  0  0  0  0  0  0
   -8.4802   -1.1934   -0.0215 H   0  0  0  0  0  0  0  0  0  0  0  0
   -6.8207    0.3464    1.0199 H   0  0  0  0  0  0  0  0  0  0  0  0
   -5.7976   -1.0689    1.4452 H   0  0  0  0  0  0  0  0  0  0  0  0
   -4.6195   -1.8706   -2.2967 H   0  0  0  0  0  0  0  0  0  0  0  0
   -2.1927   -1.7093   -2.6976 H   0  0  0  0  0  0  0  0  0  0  0  0
   -0.1588    0.2368   -2.3599 H   0  0  0  0  0  0  0  0  0  0  0  0
    4.5492   -1.2260   -0.7286 H   0  0  0  0  0  0  0  0  0  0  0  0
    6.7163   -1.4489    0.0933 H   0  0  0  0  0  0  0  0  0  0  0  0
    9.0651   -0.8753   -0.4615 H   0  0  0  0  0  0  0  0  0  0  0  0
    8.3155    3.1705   -0.2749 H   0  0  0  0  0  0  0  0  0  0  0  0
    5.9122    2.8039    0.2802 H   0  0  0  0  0  0  0  0  0  0  0  0
   -1.8652    1.2226    0.4225 H   0  0  0  0  0  0  0  0  0  0  0  0
   -3.0356    1.7714    2.3333 H   0  0  0  0  0  0  0  0  0  0  0  0
   -4.4935    2.7695    2.3395 H   0  0  0  0  0  0  0  0  0  0  0  0
   -3.3509    2.9581    1.0054 H   0  0  0  0  0  0  0  0  0  0  0  0
  1  2  1  0
  2  3  1  0
  3  4  1  0
  4  5  2  0
  5  6  1  0
  6  7  2  0
  7  8  1  0
  8  9  2  3
  9 10  1  0
 10 11  1  0
 11 12  2  0
 11 13  1  0
 13 14  1  0
 14 15  1  0
 15 16  2  0
 15 17  1  0
 17 18  2  0
 18 19  1  0
 19 20  2  0
 20 21  1  0
 21 22  2  0
 13 23  1  0
 23 24  2  0
  7 25  1  0
 25 26  2  0
 26 27  1  0
 27 28  1  0
 26  4  1  0
 23  9  1  0
 22 17  1  0
  1 29  1  0
  1 30  1  0
  1 31  1  0
  2 32  1  0
  2 33  1  0
  5 34  1  0
  6 35  1  0
  8 36  1  0
 14 37  1  0
 18 38  1  0
 19 39  1  0
 21 40  1  0
 22 41  1  0
 25 42  1  0
 28 43  1  0
 28 44  1  0
 28 45  1  0
M  END
$$$$
