
     RDKit          3D

 28 28  0  0  0  0  0  0  0  0999 V2000
   -1.3446   -1.7622    1.3874 C   0  0  0  0  0  0  0  0  0  0  0  0
   -2.0292   -1.3856    0.0675 C   0  0  0  0  0  0  0  0  0  0  0  0
   -2.7659   -2.6288   -0.4650 C   0  0  0  0  0  0  0  0  0  0  0  0
   -3.0553   -0.2686    0.3009 C   0  0  0  0  0  0  0  0  0  0  0  0
   -1.0031   -0.9089   -0.9847 C   0  0  0  0  0  0  0  0  0  0  0  0
   -1.0050   -1.3668   -2.1326 O   0  0  0  0  0  0  0  0  0  0  0  0
   -0.0094    0.1728   -0.6013 C   0  0  0  0  0  0  0  0  0  0  0  0
    1.6105   -0.5750   -0.2784 S   0  0  0  0  0  0  0  0  0  0  0  0
    2.5607    0.8915    0.0248 C   0  0  0  0  0  0  0  0  0  0  0  0
    1.9174    2.0576    0.2131 N   0  0  0  0  0  0  0  0  0  0  0  0
    2.6904    3.1347    0.4494 C   0  0  0  0  0  0  0  0  0  0  0  0
    4.0621    3.0878    0.5085 C   0  0  0  0  0  0  0  0  0  0  0  0
    4.6185    1.8481    0.3093 C   0  0  0  0  0  0  0  0  0  0  0  0
    3.8946    0.7398    0.0699 N   0  0  0  0  0  0  0  0  0  0  0  0
   -2.0663   -2.1711    2.1039 H   0  0  0  0  0  0  0  0  0  0  0  0
   -0.8713   -0.8983    1.8654 H   0  0  0  0  0  0  0  0  0  0  0  0
   -0.5681   -2.5186    1.2275 H   0  0  0  0  0  0  0  0  0  0  0  0
   -2.0638   -3.4437   -0.6765 H   0  0  0  0  0  0  0  0  0  0  0  0
   -3.4998   -2.9984    0.2601 H   0  0  0  0  0  0  0  0  0  0  0  0
   -3.3023   -2.4082   -1.3952 H   0  0  0  0  0  0  0  0  0  0  0  0
   -3.8526   -0.5976    0.9769 H   0  0  0  0  0  0  0  0  0  0  0  0
   -2.5953    0.6207    0.7444 H   0  0  0  0  0  0  0  0  0  0  0  0
   -3.5197    0.0430   -0.6418 H   0  0  0  0  0  0  0  0  0  0  0  0
   -0.3663    0.7228    0.2725 H   0  0  0  0  0  0  0  0  0  0  0  0
    0.0520    0.8771   -1.4382 H   0  0  0  0  0  0  0  0  0  0  0  0
    2.1546    4.0684    0.5948 H   0  0  0  0  0  0  0  0  0  0  0  0
    4.6630    3.9657    0.6991 H   0  0  0  0  0  0  0  0  0  0  0  0
    5.6945    1.7016    0.3367 H   0  0  0  0  0  0  0  0  0  0  0  0
  1  2  1  0
  2  3  1  0
  2  4  1  0
  2  5  1  0
  5  6  2  0
  5  7  1  0
  7  8  1  0
  8  9  1  0
  9 10  2  0
 10 11  1  0
 11 12  2  0
 12 13  1  0
 13 14  2  0
 14  9  1  0
  1 15  1  0
  1 16  1  0
  1 17  1  0
  3 18  1  0
  3 19  1  0
  3 20  1  0
  4 21  1  0
  4 22  1  0
  4 23  1  0
  7 24  1  0
  7 25  1  0
 11 26  1  0
 12 27  1  0
 13 28  1  0
M  END
$$$$
