
     RDKit          3D

 84 89  0  0  0  0  0  0  0  0999 V2000
   11.1784    3.9514   -1.9736 C   0  0  0  0  0  0  0  0  0  0  0  0
   10.1518    2.9977   -2.2497 O   0  0  0  0  0  0  0  0  0  0  0  0
    9.7042    2.3312   -1.1480 C   0  0  0  0  0  0  0  0  0  0  0  0
   10.1028    2.5137   -0.0061 O   0  0  0  0  0  0  0  0  0  0  0  0
    8.6295    1.3511   -1.5562 C   0  0  0  0  0  0  0  0  0  0  0  0
    8.2761    0.3921   -0.4192 C   0  0  0  0  0  0  0  0  0  0  0  0
    7.1944   -0.5992   -0.8472 C   0  0  0  0  0  0  0  0  0  0  0  0
    6.9222   -1.6859    0.1961 C   0  0  0  0  0  0  0  0  0  0  0  0
    6.4278   -1.1906    1.5588 C   0  0  0  0  0  0  0  0  0  0  0  0
    5.1447   -0.3533    1.5404 C   0  0  0  0  0  0  0  0  0  0  0  0
    3.9643   -1.0701    0.8828 C   0  0  0  0  0  0  0  0  0  0  0  0
    2.6545   -0.3053    1.0906 C   0  0  0  0  0  0  0  0  0  0  0  0
    1.4953   -0.9506    0.3431 C   0  0  0  0  0  0  0  0  0  0  0  0
    1.6742   -1.8726   -0.4528 O   0  0  0  0  0  0  0  0  0  0  0  0
    0.2331   -0.4325    0.5879 N   0  0  0  0  0  0  0  0  0  0  0  0
   -0.0674    0.5758    1.6152 C   0  0  0  0  0  0  0  0  0  0  0  0
   -1.5278    1.0761    1.5531 C   0  0  0  0  0  0  0  0  0  0  0  0
   -2.4895   -0.0204    1.6417 N   0  0  0  0  0  0  0  0  0  0  0  0
   -2.0924   -1.2540    0.8769 C   0  0  2  0  0  0  0  0  0  0  0  0
   -0.9251   -1.0191   -0.0961 C   0  0  0  0  0  0  0  0  0  0  0  0
   -3.3508   -1.6589    0.2180 C   0  0  0  0  0  0  0  0  0  0  0  0
   -4.3913   -0.7856    0.5269 C   0  0  0  0  0  0  0  0  0  0  0  0
   -5.5393   -1.2513   -0.0552 C   0  0  0  0  0  0  0  0  0  0  0  0
   -6.7821   -0.8011    0.1106 O   0  0  0  0  0  0  0  0  0  0  0  0
   -5.1844   -2.3600   -0.8518 N   0  0  0  0  0  0  0  0  0  0  0  0
   -6.0382   -3.0286   -1.7869 C   0  0  0  0  0  0  0  0  0  0  0  0
   -5.8667   -4.3884   -2.0718 C   0  0  0  0  0  0  0  0  0  0  0  0
   -6.6967   -5.0245   -2.9984 C   0  0  0  0  0  0  0  0  0  0  0  0
   -7.6979   -4.3090   -3.6517 C   0  0  0  0  0  0  0  0  0  0  0  0
   -7.8683   -2.9531   -3.3846 C   0  0  0  0  0  0  0  0  0  0  0  0
   -7.0420   -2.3117   -2.4586 C   0  0  0  0  0  0  0  0  0  0  0  0
   -3.8309   -2.6568   -0.5899 C   0  0  0  0  0  0  0  0  0  0  0  0
   -3.2009   -3.6953   -1.1320 O   0  0  0  0  0  0  0  0  0  0  0  0
   -3.9384    0.2980    1.4223 C   0  0  1  0  0  0  0  0  0  0  0  0
   -4.6931    0.3541    2.7796 C   0  0  0  0  0  0  0  0  0  0  0  0
   -4.7372   -0.4820    3.6709 O   0  0  0  0  0  0  0  0  0  0  0  0
   -5.3308    1.5948    2.8338 N   0  0  0  0  0  0  0  0  0  0  0  0
   -5.1374    2.3316    1.6676 C   0  0  0  0  0  0  0  0  0  0  0  0
   -4.3242    1.6091    0.7801 C   0  0  0  0  0  0  0  0  0  0  0  0
   -4.0329    2.1198   -0.4766 C   0  0  0  0  0  0  0  0  0  0  0  0
   -4.5538    3.3680   -0.8194 C   0  0  0  0  0  0  0  0  0  0  0  0
   -5.3590    4.0870    0.0851 C   0  0  0  0  0  0  0  0  0  0  0  0
   -5.9735    5.6146   -0.4470 Cl  0  0  0  0  0  0  0  0  0  0  0  0
   -5.6646    3.5823    1.3628 C   0  0  0  0  0  0  0  0  0  0  0  0
   -6.5541    4.3268    2.3118 C   0  0  0  0  0  0  0  0  0  0  0  0
   11.5102    4.3759   -2.9254 H   0  0  0  0  0  0  0  0  0  0  0  0
   12.0369    3.4684   -1.4929 H   0  0  0  0  0  0  0  0  0  0  0  0
   10.7869    4.7597   -1.3479 H   0  0  0  0  0  0  0  0  0  0  0  0
    7.7449    1.9209   -1.8617 H   0  0  0  0  0  0  0  0  0  0  0  0
    8.9958    0.7755   -2.4150 H   0  0  0  0  0  0  0  0  0  0  0  0
    7.9348    0.9690    0.4483 H   0  0  0  0  0  0  0  0  0  0  0  0
    9.1760   -0.1506   -0.1038 H   0  0  0  0  0  0  0  0  0  0  0  0
    6.2699   -0.0599   -1.0811 H   0  0  0  0  0  0  0  0  0  0  0  0
    7.5066   -1.0935   -1.7760 H   0  0  0  0  0  0  0  0  0  0  0  0
    6.1965   -2.3954   -0.2187 H   0  0  0  0  0  0  0  0  0  0  0  0
    7.8426   -2.2615    0.3542 H   0  0  0  0  0  0  0  0  0  0  0  0
    6.2632   -2.0677    2.1979 H   0  0  0  0  0  0  0  0  0  0  0  0
    7.2190   -0.6105    2.0488 H   0  0  0  0  0  0  0  0  0  0  0  0
    5.3255    0.6002    1.0312 H   0  0  0  0  0  0  0  0  0  0  0  0
    4.8877   -0.1046    2.5778 H   0  0  0  0  0  0  0  0  0  0  0  0
    3.8625   -2.0801    1.2997 H   0  0  0  0  0  0  0  0  0  0  0  0
    4.1537   -1.1861   -0.1911 H   0  0  0  0  0  0  0  0  0  0  0  0
    2.4250   -0.2787    2.1625 H   0  0  0  0  0  0  0  0  0  0  0  0
    2.7653    0.7213    0.7225 H   0  0  0  0  0  0  0  0  0  0  0  0
    0.6198    1.4212    1.4910 H   0  0  0  0  0  0  0  0  0  0  0  0
    0.1324    0.1199    2.5933 H   0  0  0  0  0  0  0  0  0  0  0  0
   -1.6309    1.6248    0.6114 H   0  0  0  0  0  0  0  0  0  0  0  0
   -1.6954    1.7842    2.3724 H   0  0  0  0  0  0  0  0  0  0  0  0
   -1.8017   -2.0116    1.6152 H   0  0  0  0  0  0  0  0  0  0  0  0
   -1.2112   -0.3182   -0.8900 H   0  0  0  0  0  0  0  0  0  0  0  0
   -0.6561   -1.9572   -0.5922 H   0  0  0  0  0  0  0  0  0  0  0  0
   -7.4013   -1.5286   -0.0864 H   0  0  0  0  0  0  0  0  0  0  0  0
   -5.1137   -4.9858   -1.5651 H   0  0  0  0  0  0  0  0  0  0  0  0
   -6.5598   -6.0820   -3.2088 H   0  0  0  0  0  0  0  0  0  0  0  0
   -8.3356   -4.8070   -4.3770 H   0  0  0  0  0  0  0  0  0  0  0  0
   -8.6326   -2.3881   -3.9133 H   0  0  0  0  0  0  0  0  0  0  0  0
   -7.1631   -1.2388   -2.3220 H   0  0  0  0  0  0  0  0  0  0  0  0
   -2.2873   -3.7144   -0.7961 H   0  0  0  0  0  0  0  0  0  0  0  0
   -5.9056    1.8568    3.6195 H   0  0  0  0  0  0  0  0  0  0  0  0
   -3.4278    1.5617   -1.1846 H   0  0  0  0  0  0  0  0  0  0  0  0
   -4.3420    3.7792   -1.8044 H   0  0  0  0  0  0  0  0  0  0  0  0
   -6.2358    5.3698    2.4059 H   0  0  0  0  0  0  0  0  0  0  0  0
   -6.5282    3.9055    3.3220 H   0  0  0  0  0  0  0  0  0  0  0  0
   -7.5897    4.2908    1.9591 H   0  0  0  0  0  0  0  0  0  0  0  0
  1  2  1  0
  2  3  1  0
  3  4  2  0
  3  5  1  0
  5  6  1  0
  6  7  1  0
  7  8  1  0
  8  9  1  0
  9 10  1  0
 10 11  1  0
 11 12  1  0
 12 13  1  0
 13 14  2  0
 13 15  1  0
 15 16  1  0
 16 17  1  0
 17 18  1  0
 18 19  1  0
 19 20  1  0
 19 21  1  0
 21 22  1  0
 22 23  2  0
 23 24  1  0
 23 25  1  0
 25 26  1  0
 26 27  2  0
 27 28  1  0
 28 29  2  0
 29 30  1  0
 30 31  2  0
 25 32  1  0
 32 33  1  0
 22 34  1  0
 34 35  1  0
 35 36  2  0
 35 37  1  0
 37 38  1  0
 38 39  2  0
 39 40  1  0
 40 41  2  0
 41 42  1  0
 42 43  1  0
 42 44  2  0
 44 45  1  0
 20 15  1  0
 32 21  2  0
 39 34  1  0
 34 18  1  1
 44 38  1  0
 31 26  1  0
  1 46  1  0
  1 47  1  0
  1 48  1  0
  5 49  1  0
  5 50  1  0
  6 51  1  0
  6 52  1  0
  7 53  1  0
  7 54  1  0
  8 55  1  0
  8 56  1  0
  9 57  1  0
  9 58  1  0
 10 59  1  0
 10 60  1  0
 11 61  1  0
 11 62  1  0
 12 63  1  0
 12 64  1  0
 16 65  1  0
 16 66  1  0
 17 67  1  0
 17 68  1  0
 19 69  1  1
 20 70  1  0
 20 71  1  0
 24 72  1  0
 27 73  1  0
 28 74  1  0
 29 75  1  0
 30 76  1  0
 31 77  1  0
 33 78  1  0
 37 79  1  0
 40 80  1  0
 41 81  1  0
 45 82  1  0
 45 83  1  0
 45 84  1  0
M  END
$$$$
