
     RDKit          3D

 97 99  0  0  0  0  0  0  0  0999 V2000
   -3.6580    4.9535    1.3831 C   0  0  0  0  0  0  0  0  0  0  0  0
   -3.5472    4.0314    0.2087 C   0  0  0  0  0  0  0  0  0  0  0  0
   -4.0459    4.2510   -0.8858 O   0  0  0  0  0  0  0  0  0  0  0  0
   -2.8605    2.9153    0.5679 O   0  0  0  0  0  0  0  0  0  0  0  0
   -2.6301    1.8932   -0.4530 C   0  0  1  0  0  0  0  0  0  0  0  0
   -1.0849    1.7888   -0.6318 C   0  0  2  0  0  0  0  0  0  0  0  0
   -0.7823    1.1699   -1.8924 O   0  0  0  0  0  0  0  0  0  0  0  0
   -0.7238    2.0017   -2.9673 C   0  0  0  0  0  0  0  0  0  0  0  0
   -0.4029    1.2184   -4.2018 C   0  0  0  0  0  0  0  0  0  0  0  0
   -0.9232    3.2079   -2.9459 O   0  0  0  0  0  0  0  0  0  0  0  0
   -0.2997    1.1348    0.5186 C   0  0  0  0  0  0  0  0  0  0  0  0
   -0.5289    1.7752    1.8753 C   0  0  0  0  0  0  0  0  0  0  0  0
    0.6307    0.1560    0.4618 C   0  0  0  0  0  0  0  0  0  0  0  0
    1.1640   -0.6259   -0.7147 C   0  0  1  0  0  0  0  0  0  0  0  0
    2.3595    0.0574   -1.4209 C   0  0  1  0  0  0  0  0  0  0  0  0
    3.2730    0.5946   -0.4497 O   0  0  0  0  0  0  0  0  0  0  0  0
    3.8175    1.8003   -0.7467 C   0  0  0  0  0  0  0  0  0  0  0  0
    3.6980    2.4027   -1.8014 O   0  0  0  0  0  0  0  0  0  0  0  0
    4.6028    2.3077    0.4072 C   0  0  0  0  0  0  0  0  0  0  0  0
    5.4173    3.4304    0.2134 C   0  0  0  0  0  0  0  0  0  0  0  0
    6.1542    3.9583    1.2781 C   0  0  0  0  0  0  0  0  0  0  0  0
    6.0759    3.3672    2.5396 C   0  0  0  0  0  0  0  0  0  0  0  0
    5.2674    2.2464    2.7405 C   0  0  0  0  0  0  0  0  0  0  0  0
    4.5324    1.7159    1.6769 C   0  0  0  0  0  0  0  0  0  0  0  0
    2.9990   -1.0706   -2.2624 C   0  0  1  0  0  0  0  0  0  0  0  0
    4.5255   -1.0959   -2.2776 C   0  0  0  0  0  0  0  0  0  0  0  0
    2.3936   -2.3927   -1.7381 C   0  0  0  0  0  0  0  0  0  0  0  0
    1.7064   -2.0527   -0.3958 C   0  0  1  0  0  0  0  0  0  0  0  0
    2.7229   -1.9039    0.6522 O   0  0  0  0  0  0  0  0  0  0  0  0
    3.4940   -2.9526    1.0346 C   0  0  0  0  0  0  0  0  0  0  0  0
    4.3826   -2.5372    2.1666 C   0  0  0  0  0  0  0  0  0  0  0  0
    3.4763   -4.0726    0.5463 O   0  0  0  0  0  0  0  0  0  0  0  0
    0.6227   -3.0857    0.0559 C   0  0  1  0  0  0  0  0  0  0  0  0
    0.2398   -2.7556    1.4192 O   0  0  0  0  0  0  0  0  0  0  0  0
    0.1479   -3.7692    2.3187 C   0  0  0  0  0  0  0  0  0  0  0  0
   -0.2133   -3.2147    3.6621 C   0  0  0  0  0  0  0  0  0  0  0  0
    0.3435   -4.9542    2.0906 O   0  0  0  0  0  0  0  0  0  0  0  0
   -0.6580   -3.1842   -0.8356 C   0  0  1  0  0  0  0  0  0  0  0  0
   -1.2710   -4.5939   -0.7402 C   0  0  0  0  0  0  0  0  0  0  0  0
   -1.7624   -2.1986   -0.4938 C   0  0  0  0  0  0  0  0  0  0  0  0
   -2.3506   -1.3681   -1.3745 C   0  0  0  0  0  0  0  0  0  0  0  0
   -3.5989   -0.5356   -1.0940 C   0  0  0  0  0  0  0  0  0  0  0  0
   -4.1246    0.0329   -2.4318 C   0  0  0  0  0  0  0  0  0  0  0  0
   -4.7014   -1.5169   -0.5963 C   0  0  0  0  0  0  0  0  0  0  0  0
   -3.3987    0.6071   -0.0262 C   0  0  2  0  0  0  0  0  0  0  0  0
   -4.7459    1.0569    0.3448 O   0  0  0  0  0  0  0  0  0  0  0  0
   -5.0886    1.0223    1.6604 C   0  0  0  0  0  0  0  0  0  0  0  0
   -6.4933    1.5170    1.8309 C   0  0  0  0  0  0  0  0  0  0  0  0
   -4.3688    0.6612    2.5793 O   0  0  0  0  0  0  0  0  0  0  0  0
   -4.4536    4.6081    2.0512 H   0  0  0  0  0  0  0  0  0  0  0  0
   -2.7047    4.9908    1.9216 H   0  0  0  0  0  0  0  0  0  0  0  0
   -3.8891    5.9626    1.0274 H   0  0  0  0  0  0  0  0  0  0  0  0
   -3.0630    2.2405   -1.3967 H   0  0  0  0  0  0  0  0  0  0  0  0
   -0.6906    2.8164   -0.6492 H   0  0  0  0  0  0  0  0  0  0  0  0
   -1.2639    0.6087   -4.4872 H   0  0  0  0  0  0  0  0  0  0  0  0
    0.4737    0.5878   -4.0303 H   0  0  0  0  0  0  0  0  0  0  0  0
   -0.1701    1.9068   -5.0190 H   0  0  0  0  0  0  0  0  0  0  0  0
    0.1948    1.4423    2.6289 H   0  0  0  0  0  0  0  0  0  0  0  0
   -0.4286    2.8629    1.8035 H   0  0  0  0  0  0  0  0  0  0  0  0
   -1.5228    1.5294    2.2591 H   0  0  0  0  0  0  0  0  0  0  0  0
    1.1214   -0.1145    1.3987 H   0  0  0  0  0  0  0  0  0  0  0  0
    0.3833   -0.7501   -1.4673 H   0  0  0  0  0  0  0  0  0  0  0  0
    1.9830    0.8509   -2.0771 H   0  0  0  0  0  0  0  0  0  0  0  0
    5.4747    3.9032   -0.7647 H   0  0  0  0  0  0  0  0  0  0  0  0
    6.7833    4.8311    1.1189 H   0  0  0  0  0  0  0  0  0  0  0  0
    6.6442    3.7864    3.3692 H   0  0  0  0  0  0  0  0  0  0  0  0
    5.2044    1.7946    3.7278 H   0  0  0  0  0  0  0  0  0  0  0  0
    3.8939    0.8521    1.8562 H   0  0  0  0  0  0  0  0  0  0  0  0
    2.6632   -0.9496   -3.3015 H   0  0  0  0  0  0  0  0  0  0  0  0
    4.9385   -1.2931   -1.2858 H   0  0  0  0  0  0  0  0  0  0  0  0
    4.9266   -0.1423   -2.6347 H   0  0  0  0  0  0  0  0  0  0  0  0
    4.8867   -1.8757   -2.9537 H   0  0  0  0  0  0  0  0  0  0  0  0
    3.1531   -3.1732   -1.6583 H   0  0  0  0  0  0  0  0  0  0  0  0
    1.6595   -2.7424   -2.4707 H   0  0  0  0  0  0  0  0  0  0  0  0
    5.0436   -1.7293    1.8411 H   0  0  0  0  0  0  0  0  0  0  0  0
    3.7734   -2.2138    3.0152 H   0  0  0  0  0  0  0  0  0  0  0  0
    4.9908   -3.3892    2.4815 H   0  0  0  0  0  0  0  0  0  0  0  0
    1.1093   -4.0684    0.0479 H   0  0  0  0  0  0  0  0  0  0  0  0
   -1.0918   -2.5689    3.5768 H   0  0  0  0  0  0  0  0  0  0  0  0
    0.6318   -2.6539    4.0688 H   0  0  0  0  0  0  0  0  0  0  0  0
   -0.4545   -4.0394    4.3394 H   0  0  0  0  0  0  0  0  0  0  0  0
   -0.3734   -3.0594   -1.8867 H   0  0  0  0  0  0  0  0  0  0  0  0
   -0.5374   -5.3575   -1.0125 H   0  0  0  0  0  0  0  0  0  0  0  0
   -1.6396   -4.8205    0.2650 H   0  0  0  0  0  0  0  0  0  0  0  0
   -2.1184   -4.6967   -1.4280 H   0  0  0  0  0  0  0  0  0  0  0  0
   -2.1465   -2.2450    0.5260 H   0  0  0  0  0  0  0  0  0  0  0  0
   -1.9768   -1.3619   -2.3984 H   0  0  0  0  0  0  0  0  0  0  0  0
   -3.3734    0.6425   -2.9418 H   0  0  0  0  0  0  0  0  0  0  0  0
   -5.0145    0.6537   -2.2817 H   0  0  0  0  0  0  0  0  0  0  0  0
   -4.4011   -0.7716   -3.1250 H   0  0  0  0  0  0  0  0  0  0  0  0
   -4.7740   -2.4003   -1.2437 H   0  0  0  0  0  0  0  0  0  0  0  0
   -4.5004   -1.8641    0.4232 H   0  0  0  0  0  0  0  0  0  0  0  0
   -5.6930   -1.0509   -0.5924 H   0  0  0  0  0  0  0  0  0  0  0  0
   -2.9145    0.1774    0.8578 H   0  0  0  0  0  0  0  0  0  0  0  0
   -7.1526    1.0299    1.1060 H   0  0  0  0  0  0  0  0  0  0  0  0
   -6.5190    2.6036    1.7069 H   0  0  0  0  0  0  0  0  0  0  0  0
   -6.8499    1.2557    2.8333 H   0  0  0  0  0  0  0  0  0  0  0  0
  1  2  1  0
  2  3  2  0
  2  4  1  0
  4  5  1  0
  5  6  1  0
  6  7  1  0
  7  8  1  0
  8  9  1  0
  8 10  2  0
  6 11  1  0
 11 12  1  0
 11 13  2  0
 13 14  1  0
 14 15  1  0
 15 16  1  0
 16 17  1  0
 17 18  2  0
 17 19  1  0
 19 20  2  0
 20 21  1  0
 21 22  2  0
 22 23  1  0
 23 24  2  0
 15 25  1  0
 25 26  1  0
 25 27  1  0
 27 28  1  0
 28 29  1  1
 29 30  1  0
 30 31  1  0
 30 32  2  0
 28 33  1  0
 33 34  1  0
 34 35  1  0
 35 36  1  0
 35 37  2  0
 33 38  1  0
 38 39  1  0
 38 40  1  0
 40 41  2  0
 41 42  1  0
 42 43  1  0
 42 44  1  0
 42 45  1  0
 45 46  1  0
 46 47  1  0
 47 48  1  0
 47 49  2  0
 45  5  1  0
 28 14  1  0
 24 19  1  0
  1 50  1  0
  1 51  1  0
  1 52  1  0
  5 53  1  6
  6 54  1  6
  9 55  1  0
  9 56  1  0
  9 57  1  0
 12 58  1  0
 12 59  1  0
 12 60  1  0
 13 61  1  0
 14 62  1  6
 15 63  1  6
 20 64  1  0
 21 65  1  0
 22 66  1  0
 23 67  1  0
 24 68  1  0
 25 69  1  6
 26 70  1  0
 26 71  1  0
 26 72  1  0
 27 73  1  0
 27 74  1  0
 31 75  1  0
 31 76  1  0
 31 77  1  0
 33 78  1  1
 36 79  1  0
 36 80  1  0
 36 81  1  0
 38 82  1  6
 39 83  1  0
 39 84  1  0
 39 85  1  0
 40 86  1  0
 41 87  1  0
 43 88  1  0
 43 89  1  0
 43 90  1  0
 44 91  1  0
 44 92  1  0
 44 93  1  0
 45 94  1  1
 48 95  1  0
 48 96  1  0
 48 97  1  0
M  END
$$$$
