
     RDKit          3D

 33 34  0  0  0  0  0  0  0  0999 V2000
   -5.5484    0.7796   -0.9011 N   0  0  0  0  0  0  0  0  0  0  0  0
   -4.3386    0.7827   -0.1999 C   0  0  0  0  0  0  0  0  0  0  0  0
   -3.3223   -0.1112   -0.5464 C   0  0  0  0  0  0  0  0  0  0  0  0
   -2.0651   -0.0407    0.0647 C   0  0  0  0  0  0  0  0  0  0  0  0
   -1.7974    0.9584    1.0074 C   0  0  0  0  0  0  0  0  0  0  0  0
   -0.4795    1.0858    1.6860 C   0  0  0  0  0  0  0  0  0  0  0  0
   -0.1882    2.0086    2.4304 O   0  0  0  0  0  0  0  0  0  0  0  0
    0.3211    0.0380    1.3714 O   0  0  0  0  0  0  0  0  0  0  0  0
    1.6340    0.1049    1.9496 C   0  0  0  0  0  0  0  0  0  0  0  0
    2.4420   -1.1167    1.5128 C   0  0  0  0  0  0  0  0  0  0  0  0
    2.8302   -1.0638    0.0534 C   0  0  0  0  0  0  0  0  0  0  0  0
    2.0380   -1.6927   -0.9166 C   0  0  0  0  0  0  0  0  0  0  0  0
    2.3876   -1.6286   -2.2662 C   0  0  0  0  0  0  0  0  0  0  0  0
    3.5298   -0.9337   -2.6590 C   0  0  0  0  0  0  0  0  0  0  0  0
    4.3227   -0.3014   -1.7031 C   0  0  0  0  0  0  0  0  0  0  0  0
    3.9746   -0.3641   -0.3529 C   0  0  0  0  0  0  0  0  0  0  0  0
   -2.7930    1.8941    1.3106 C   0  0  0  0  0  0  0  0  0  0  0  0
   -4.0462    1.8153    0.6941 C   0  0  0  0  0  0  0  0  0  0  0  0
   -6.3140    1.2273   -0.4069 H   0  0  0  0  0  0  0  0  0  0  0  0
   -5.8091   -0.1277   -1.2743 H   0  0  0  0  0  0  0  0  0  0  0  0
   -3.4994   -0.8737   -1.3008 H   0  0  0  0  0  0  0  0  0  0  0  0
   -1.3020   -0.7600   -0.2204 H   0  0  0  0  0  0  0  0  0  0  0  0
    2.1286    1.0341    1.6421 H   0  0  0  0  0  0  0  0  0  0  0  0
    1.5357    0.0918    3.0416 H   0  0  0  0  0  0  0  0  0  0  0  0
    3.3546   -1.1885    2.1171 H   0  0  0  0  0  0  0  0  0  0  0  0
    1.8687   -2.0332    1.7002 H   0  0  0  0  0  0  0  0  0  0  0  0
    1.1409   -2.2336   -0.6250 H   0  0  0  0  0  0  0  0  0  0  0  0
    1.7674   -2.1191   -3.0116 H   0  0  0  0  0  0  0  0  0  0  0  0
    3.8010   -0.8829   -3.7101 H   0  0  0  0  0  0  0  0  0  0  0  0
    5.2119    0.2432   -2.0095 H   0  0  0  0  0  0  0  0  0  0  0  0
    4.6022    0.1382    0.3798 H   0  0  0  0  0  0  0  0  0  0  0  0
   -2.5950    2.6977    2.0172 H   0  0  0  0  0  0  0  0  0  0  0  0
   -4.7930    2.5720    0.9206 H   0  0  0  0  0  0  0  0  0  0  0  0
  1  2  1  0
  2  3  2  0
  3  4  1  0
  4  5  2  0
  5  6  1  0
  6  7  2  0
  6  8  1  0
  8  9  1  0
  9 10  1  0
 10 11  1  0
 11 12  2  0
 12 13  1  0
 13 14  2  0
 14 15  1  0
 15 16  2  0
  5 17  1  0
 17 18  2  0
 18  2  1  0
 16 11  1  0
  1 19  1  0
  1 20  1  0
  3 21  1  0
  4 22  1  0
  9 23  1  0
  9 24  1  0
 10 25  1  0
 10 26  1  0
 12 27  1  0
 13 28  1  0
 14 29  1  0
 15 30  1  0
 16 31  1  0
 17 32  1  0
 18 33  1  0
M  END
$$$$
