
     RDKit          3D

 60 63  0  0  0  0  0  0  0  0999 V2000
   -6.3993   -0.3580    4.0498 C   0  0  0  0  0  0  0  0  0  0  0  0
   -5.8552    0.8460    3.5196 O   0  0  0  0  0  0  0  0  0  0  0  0
   -4.6530    0.7498    2.8760 C   0  0  0  0  0  0  0  0  0  0  0  0
   -4.1875    1.9484    2.3298 C   0  0  0  0  0  0  0  0  0  0  0  0
   -2.9752    1.9969    1.6379 C   0  0  0  0  0  0  0  0  0  0  0  0
   -2.2103    0.8352    1.4976 C   0  0  0  0  0  0  0  0  0  0  0  0
   -0.9820    0.8823    0.7920 N   0  0  0  0  0  0  0  0  0  0  0  0
   -0.7440    1.4619   -0.4517 C   0  0  0  0  0  0  0  0  0  0  0  0
   -1.7904    1.9535   -1.4037 C   0  0  0  0  0  0  0  0  0  0  0  0
   -2.7095    0.8595   -1.8743 C   0  0  0  0  0  0  0  0  0  0  0  0
   -2.3994   -0.4358   -2.2614 C   0  0  0  0  0  0  0  0  0  0  0  0
   -3.6015   -1.0892   -2.6120 C   0  0  0  0  0  0  0  0  0  0  0  0
   -4.6189   -0.1778   -2.4540 C   0  0  0  0  0  0  0  0  0  0  0  0
   -4.0737    1.0070   -2.0257 N   0  0  0  0  0  0  0  0  0  0  0  0
   -4.8392    2.2182   -1.8127 C   0  0  0  0  0  0  0  0  0  0  0  0
    0.5419    1.3708   -0.7389 N   0  0  0  0  0  0  0  0  0  0  0  0
    1.1584    0.6797    0.2651 N   0  0  0  0  0  0  0  0  0  0  0  0
    0.2467    0.3597    1.1522 C   0  0  0  0  0  0  0  0  0  0  0  0
    0.6301   -0.4020    2.6602 S   0  0  0  0  0  0  0  0  0  0  0  0
    1.1503   -2.0387    2.0780 C   0  0  0  0  0  0  0  0  0  0  0  0
    2.4806   -2.1067    1.3462 C   0  0  0  0  0  0  0  0  0  0  0  0
    2.7918   -3.1257    0.7271 O   0  0  0  0  0  0  0  0  0  0  0  0
    3.3277   -1.0298    1.4619 N   0  0  0  0  0  0  0  0  0  0  0  0
    4.5701   -0.9647    0.7161 C   0  0  0  0  0  0  0  0  0  0  0  0
    4.3521   -0.6267   -0.7609 C   0  0  0  0  0  0  0  0  0  0  0  0
    5.6580   -0.5911   -1.5202 C   0  0  0  0  0  0  0  0  0  0  0  0
    6.3277    0.6218   -1.7360 C   0  0  0  0  0  0  0  0  0  0  0  0
    7.5480    0.6405   -2.4140 C   0  0  0  0  0  0  0  0  0  0  0  0
    8.1093   -0.5492   -2.8818 C   0  0  0  0  0  0  0  0  0  0  0  0
    7.4504   -1.7626   -2.6710 C   0  0  0  0  0  0  0  0  0  0  0  0
    6.2312   -1.7836   -1.9926 C   0  0  0  0  0  0  0  0  0  0  0  0
   -2.6642   -0.3661    2.0526 C   0  0  0  0  0  0  0  0  0  0  0  0
   -3.8864   -0.4069    2.7342 C   0  0  0  0  0  0  0  0  0  0  0  0
   -6.6025   -1.0818    3.2514 H   0  0  0  0  0  0  0  0  0  0  0  0
   -7.3528   -0.1129    4.5285 H   0  0  0  0  0  0  0  0  0  0  0  0
   -5.7444   -0.7858    4.8177 H   0  0  0  0  0  0  0  0  0  0  0  0
   -4.7755    2.8559    2.4531 H   0  0  0  0  0  0  0  0  0  0  0  0
   -2.6305    2.9575    1.2641 H   0  0  0  0  0  0  0  0  0  0  0  0
   -1.2872    2.3641   -2.2888 H   0  0  0  0  0  0  0  0  0  0  0  0
   -2.3370    2.7910   -0.9614 H   0  0  0  0  0  0  0  0  0  0  0  0
   -1.4027   -0.8620   -2.2871 H   0  0  0  0  0  0  0  0  0  0  0  0
   -3.7086   -2.1095   -2.9574 H   0  0  0  0  0  0  0  0  0  0  0  0
   -5.6828   -0.2732   -2.6277 H   0  0  0  0  0  0  0  0  0  0  0  0
   -5.8540    2.0829   -2.1976 H   0  0  0  0  0  0  0  0  0  0  0  0
   -4.3523    3.0403   -2.3472 H   0  0  0  0  0  0  0  0  0  0  0  0
   -4.8766    2.4192   -0.7391 H   0  0  0  0  0  0  0  0  0  0  0  0
    0.3754   -2.4444    1.4202 H   0  0  0  0  0  0  0  0  0  0  0  0
    1.2287   -2.6924    2.9525 H   0  0  0  0  0  0  0  0  0  0  0  0
    2.9089   -0.1470    1.7399 H   0  0  0  0  0  0  0  0  0  0  0  0
    5.1876   -0.2002    1.1960 H   0  0  0  0  0  0  0  0  0  0  0  0
    5.0868   -1.9240    0.8219 H   0  0  0  0  0  0  0  0  0  0  0  0
    3.6793   -1.3532   -1.2315 H   0  0  0  0  0  0  0  0  0  0  0  0
    3.8441    0.3418   -0.8485 H   0  0  0  0  0  0  0  0  0  0  0  0
    5.9014    1.5583   -1.3772 H   0  0  0  0  0  0  0  0  0  0  0  0
    8.0621    1.5821   -2.5743 H   0  0  0  0  0  0  0  0  0  0  0  0
    9.0593   -0.5353   -3.4085 H   0  0  0  0  0  0  0  0  0  0  0  0
    7.8866   -2.6939   -3.0317 H   0  0  0  0  0  0  0  0  0  0  0  0
    5.7271   -2.7375   -1.8291 H   0  0  0  0  0  0  0  0  0  0  0  0
   -2.1130   -1.2951    1.9291 H   0  0  0  0  0  0  0  0  0  0  0  0
   -4.2120   -1.3612    3.1369 H   0  0  0  0  0  0  0  0  0  0  0  0
  1  2  1  0
  2  3  1  0
  3  4  2  0
  4  5  1  0
  5  6  2  0
  6  7  1  0
  7  8  1  0
  8  9  1  0
  9 10  1  0
 10 11  2  0
 11 12  1  0
 12 13  2  0
 13 14  1  0
 14 15  1  0
  8 16  2  0
 16 17  1  0
 17 18  2  0
 18 19  1  0
 19 20  1  0
 20 21  1  0
 21 22  2  0
 21 23  1  0
 23 24  1  0
 24 25  1  0
 25 26  1  0
 26 27  2  0
 27 28  1  0
 28 29  2  0
 29 30  1  0
 30 31  2  0
  6 32  1  0
 32 33  2  0
 33  3  1  0
 18  7  1  0
 31 26  1  0
 14 10  1  0
  1 34  1  0
  1 35  1  0
  1 36  1  0
  4 37  1  0
  5 38  1  0
  9 39  1  0
  9 40  1  0
 11 41  1  0
 12 42  1  0
 13 43  1  0
 15 44  1  0
 15 45  1  0
 15 46  1  0
 20 47  1  0
 20 48  1  0
 23 49  1  0
 24 50  1  0
 24 51  1  0
 25 52  1  0
 25 53  1  0
 27 54  1  0
 28 55  1  0
 29 56  1  0
 30 57  1  0
 31 58  1  0
 32 59  1  0
 33 60  1  0
M  END
$$$$
