
     RDKit          3D

 39 40  0  0  0  0  0  0  0  0999 V2000
   -1.2963    1.8648    0.8623 O   0  0  0  0  0  0  0  0  0  0  0  0
   -1.3828    0.7133    0.4558 C   0  0  0  0  0  0  0  0  0  0  0  0
   -0.1693   -0.0674   -0.0295 C   0  0  0  0  0  0  0  0  0  0  0  0
    1.1198    0.7424    0.0599 C   0  0  0  0  0  0  0  0  0  0  0  0
    2.3191   -0.0562   -0.4415 C   0  0  0  0  0  0  0  0  0  0  0  0
    3.4791    0.7629   -0.3077 O   0  0  0  0  0  0  0  0  0  0  0  0
    4.6743    0.2193   -0.6898 C   0  0  0  0  0  0  0  0  0  0  0  0
    4.8632   -1.0501   -1.2380 C   0  0  0  0  0  0  0  0  0  0  0  0
    6.1478   -1.4808   -1.5859 C   0  0  0  0  0  0  0  0  0  0  0  0
    7.2464   -0.6458   -1.3889 C   0  0  0  0  0  0  0  0  0  0  0  0
    7.0630    0.6225   -0.8439 C   0  0  0  0  0  0  0  0  0  0  0  0
    5.7807    1.0508   -0.4966 C   0  0  0  0  0  0  0  0  0  0  0  0
   -2.5388   -0.0496    0.3637 N   0  0  0  0  0  0  0  0  0  0  0  0
   -3.8608    0.3124    0.7249 C   0  0  0  0  0  0  0  0  0  0  0  0
   -4.1609    1.5653    1.2774 C   0  0  0  0  0  0  0  0  0  0  0  0
   -5.4685    1.9095    1.6339 C   0  0  0  0  0  0  0  0  0  0  0  0
   -6.5048    1.0068    1.4440 C   0  0  0  0  0  0  0  0  0  0  0  0
   -6.2307   -0.2418    0.8953 C   0  0  0  0  0  0  0  0  0  0  0  0
   -4.9151   -0.6073    0.5329 C   0  0  0  0  0  0  0  0  0  0  0  0
   -4.7311   -1.9749   -0.0743 C   0  0  0  0  0  0  0  0  0  0  0  0
   -3.4242   -2.3493   -0.2184 F   0  0  0  0  0  0  0  0  0  0  0  0
   -5.2744   -2.0695   -1.3197 F   0  0  0  0  0  0  0  0  0  0  0  0
   -5.3118   -2.9635    0.6619 F   0  0  0  0  0  0  0  0  0  0  0  0
   -0.0795   -0.9745    0.5803 H   0  0  0  0  0  0  0  0  0  0  0  0
   -0.3483   -0.3672   -1.0690 H   0  0  0  0  0  0  0  0  0  0  0  0
    1.0302    1.6689   -0.5220 H   0  0  0  0  0  0  0  0  0  0  0  0
    1.2994    1.0621    1.0945 H   0  0  0  0  0  0  0  0  0  0  0  0
    2.1652   -0.3204   -1.4947 H   0  0  0  0  0  0  0  0  0  0  0  0
    2.4297   -0.9659    0.1609 H   0  0  0  0  0  0  0  0  0  0  0  0
    4.0354   -1.7288   -1.4100 H   0  0  0  0  0  0  0  0  0  0  0  0
    6.2904   -2.4705   -2.0124 H   0  0  0  0  0  0  0  0  0  0  0  0
    8.2433   -0.9827   -1.6603 H   0  0  0  0  0  0  0  0  0  0  0  0
    7.9147    1.2792   -0.6882 H   0  0  0  0  0  0  0  0  0  0  0  0
    5.6408    2.0413   -0.0707 H   0  0  0  0  0  0  0  0  0  0  0  0
   -2.4099   -0.9906    0.0010 H   0  0  0  0  0  0  0  0  0  0  0  0
   -3.3930    2.3133    1.4512 H   0  0  0  0  0  0  0  0  0  0  0  0
   -5.6686    2.8897    2.0606 H   0  0  0  0  0  0  0  0  0  0  0  0
   -7.5214    1.2755    1.7197 H   0  0  0  0  0  0  0  0  0  0  0  0
   -7.0519   -0.9430    0.7450 H   0  0  0  0  0  0  0  0  0  0  0  0
  1  2  2  0
  2  3  1  0
  3  4  1  0
  4  5  1  0
  5  6  1  0
  6  7  1  0
  7  8  2  0
  8  9  1  0
  9 10  2  0
 10 11  1  0
 11 12  2  0
  2 13  1  0
 13 14  1  0
 14 15  2  0
 15 16  1  0
 16 17  2  0
 17 18  1  0
 18 19  2  0
 19 20  1  0
 20 21  1  0
 20 22  1  0
 20 23  1  0
 12  7  1  0
 19 14  1  0
  3 24  1  0
  3 25  1  0
  4 26  1  0
  4 27  1  0
  5 28  1  0
  5 29  1  0
  8 30  1  0
  9 31  1  0
 10 32  1  0
 11 33  1  0
 12 34  1  0
 13 35  1  0
 15 36  1  0
 16 37  1  0
 17 38  1  0
 18 39  1  0
M  END
$$$$
