
     RDKit          3D

 43 45  0  0  0  0  0  0  0  0999 V2000
    2.2969   -2.3480    1.8758 O   0  0  0  0  0  0  0  0  0  0  0  0
    2.6303   -2.1340    0.7116 C   0  0  0  0  0  0  0  0  0  0  0  0
    4.0336   -2.5136    0.2509 C   0  0  0  0  0  0  0  0  0  0  0  0
    4.6898   -1.4712   -1.0970 S   0  0  0  0  0  0  0  0  0  0  0  0
    4.7092    0.1197   -0.2837 C   0  0  0  0  0  0  0  0  0  0  0  0
    5.5638    0.3632    0.7963 C   0  0  0  0  0  0  0  0  0  0  0  0
    5.5681    1.6136    1.4222 C   0  0  0  0  0  0  0  0  0  0  0  0
    4.7243    2.6293    0.9706 C   0  0  0  0  0  0  0  0  0  0  0  0
    3.8775    2.3984   -0.1117 C   0  0  0  0  0  0  0  0  0  0  0  0
    3.8783    1.1524   -0.7329 C   0  0  0  0  0  0  0  0  0  0  0  0
    3.0466    0.9514   -1.7679 F   0  0  0  0  0  0  0  0  0  0  0  0
    1.8169   -1.6262   -0.2836 N   0  0  0  0  0  0  0  0  0  0  0  0
    0.4747   -1.2158   -0.1824 C   0  0  0  0  0  0  0  0  0  0  0  0
   -0.3106   -1.3751    0.9526 C   0  0  0  0  0  0  0  0  0  0  0  0
   -1.6441   -0.9336    0.9633 C   0  0  0  0  0  0  0  0  0  0  0  0
   -2.2426   -0.3229   -0.1485 C   0  0  0  0  0  0  0  0  0  0  0  0
   -3.5547    0.1108   -0.1285 N   0  0  0  0  0  0  0  0  0  0  0  0
   -4.3184    0.3559   -1.3623 C   0  0  0  0  0  0  0  0  0  0  0  0
   -5.8217    0.1605   -1.1011 C   0  0  0  0  0  0  0  0  0  0  0  0
   -6.3561    1.0210   -0.0855 O   0  0  0  0  0  0  0  0  0  0  0  0
   -5.3921    1.3847    0.9128 C   0  0  0  0  0  0  0  0  0  0  0  0
   -4.2843    0.3393    1.1290 C   0  0  0  0  0  0  0  0  0  0  0  0
   -1.4298   -0.1768   -1.2813 C   0  0  0  0  0  0  0  0  0  0  0  0
   -0.0968   -0.6134   -1.3030 C   0  0  0  0  0  0  0  0  0  0  0  0
    4.0007   -3.5496   -0.1007 H   0  0  0  0  0  0  0  0  0  0  0  0
    4.7137   -2.4660    1.1069 H   0  0  0  0  0  0  0  0  0  0  0  0
    6.2368   -0.4100    1.1589 H   0  0  0  0  0  0  0  0  0  0  0  0
    6.2328    1.7958    2.2638 H   0  0  0  0  0  0  0  0  0  0  0  0
    4.7280    3.5995    1.4617 H   0  0  0  0  0  0  0  0  0  0  0  0
    3.2143    3.1777   -0.4738 H   0  0  0  0  0  0  0  0  0  0  0  0
    2.2765   -1.4353   -1.1697 H   0  0  0  0  0  0  0  0  0  0  0  0
    0.0720   -1.8469    1.8517 H   0  0  0  0  0  0  0  0  0  0  0  0
   -2.2132   -1.1060    1.8728 H   0  0  0  0  0  0  0  0  0  0  0  0
   -4.1283    1.3814   -1.6994 H   0  0  0  0  0  0  0  0  0  0  0  0
   -4.0239   -0.3384   -2.1575 H   0  0  0  0  0  0  0  0  0  0  0  0
   -6.0216   -0.8737   -0.7958 H   0  0  0  0  0  0  0  0  0  0  0  0
   -6.3896    0.3439   -2.0188 H   0  0  0  0  0  0  0  0  0  0  0  0
   -4.9529    2.3434    0.6122 H   0  0  0  0  0  0  0  0  0  0  0  0
   -5.9357    1.5552    1.8477 H   0  0  0  0  0  0  0  0  0  0  0  0
   -3.6176    0.7160    1.9131 H   0  0  0  0  0  0  0  0  0  0  0  0
   -4.7244   -0.6076    1.4625 H   0  0  0  0  0  0  0  0  0  0  0  0
   -1.8103    0.3093   -2.1751 H   0  0  0  0  0  0  0  0  0  0  0  0
    0.4837   -0.4581   -2.2089 H   0  0  0  0  0  0  0  0  0  0  0  0
  1  2  2  0
  2  3  1  0
  3  4  1  0
  4  5  1  0
  5  6  2  0
  6  7  1  0
  7  8  2  0
  8  9  1  0
  9 10  2  0
 10 11  1  0
  2 12  1  0
 12 13  1  0
 13 14  2  0
 14 15  1  0
 15 16  2  0
 16 17  1  0
 17 18  1  0
 18 19  1  0
 19 20  1  0
 20 21  1  0
 21 22  1  0
 16 23  1  0
 23 24  2  0
 10  5  1  0
 24 13  1  0
 22 17  1  0
  3 25  1  0
  3 26  1  0
  6 27  1  0
  7 28  1  0
  8 29  1  0
  9 30  1  0
 12 31  1  0
 14 32  1  0
 15 33  1  0
 18 34  1  0
 18 35  1  0
 19 36  1  0
 19 37  1  0
 21 38  1  0
 21 39  1  0
 22 40  1  0
 22 41  1  0
 23 42  1  0
 24 43  1  0
M  END
$$$$
