
     RDKit          3D

 37 39  0  0  0  0  0  0  0  0999 V2000
   -4.1964   -1.9623   -1.0699 C   0  0  0  0  0  0  0  0  0  0  0  0
   -4.4848   -1.5954    0.3753 C   0  0  0  0  0  0  0  0  0  0  0  0
   -4.1709   -0.2067    0.6717 N   0  0  0  0  0  0  0  0  0  0  0  0
   -5.1946    0.6783    0.7171 N   0  0  0  0  0  0  0  0  0  0  0  0
   -4.6053    1.8322    1.0267 C   0  0  0  0  0  0  0  0  0  0  0  0
   -3.2187    1.6903    1.1443 C   0  0  0  0  0  0  0  0  0  0  0  0
   -2.0882    3.1028    1.6267 Br  0  0  0  0  0  0  0  0  0  0  0  0
   -2.9300    0.3654    0.8804 C   0  0  0  0  0  0  0  0  0  0  0  0
   -1.6760   -0.3635    0.8400 C   0  0  0  0  0  0  0  0  0  0  0  0
   -1.6360   -1.5604    1.0996 O   0  0  0  0  0  0  0  0  0  0  0  0
   -0.6015    0.4017    0.4297 N   0  0  0  0  0  0  0  0  0  0  0  0
    0.7297    0.0181    0.3246 C   0  0  0  0  0  0  0  0  0  0  0  0
    1.2689   -1.4889    0.9372 S   0  0  0  0  0  0  0  0  0  0  0  0
    2.8380   -1.1383    0.5087 C   0  0  0  0  0  0  0  0  0  0  0  0
    2.9966    0.0779   -0.0958 C   0  0  0  0  0  0  0  0  0  0  0  0
    1.7618    0.7820   -0.2366 C   0  0  0  0  0  0  0  0  0  0  0  0
    1.5153    2.0900   -0.8404 C   0  0  0  0  0  0  0  0  0  0  0  0
    2.5385    2.6488   -1.5489 N   0  0  0  0  0  0  0  0  0  0  0  0
    0.4347    2.6695   -0.7663 O   0  0  0  0  0  0  0  0  0  0  0  0
    4.4316    0.3085   -0.4159 C   0  0  0  0  0  0  0  0  0  0  0  0
    5.1502   -0.8033    0.4094 C   0  0  0  0  0  0  0  0  0  0  0  0
    4.0902   -1.9088    0.6844 C   0  0  0  0  0  0  0  0  0  0  0  0
   -4.4724   -3.0044   -1.2583 H   0  0  0  0  0  0  0  0  0  0  0  0
   -4.7670   -1.3284   -1.7569 H   0  0  0  0  0  0  0  0  0  0  0  0
   -3.1357   -1.8434   -1.3121 H   0  0  0  0  0  0  0  0  0  0  0  0
   -3.9355   -2.2313    1.0743 H   0  0  0  0  0  0  0  0  0  0  0  0
   -5.5502   -1.7446    0.5880 H   0  0  0  0  0  0  0  0  0  0  0  0
   -5.2160    2.7164    1.1558 H   0  0  0  0  0  0  0  0  0  0  0  0
   -0.7907    1.3539    0.1181 H   0  0  0  0  0  0  0  0  0  0  0  0
    3.3239    2.1024   -1.8636 H   0  0  0  0  0  0  0  0  0  0  0  0
    2.3104    3.4854   -2.0692 H   0  0  0  0  0  0  0  0  0  0  0  0
    4.6131    0.1626   -1.4860 H   0  0  0  0  0  0  0  0  0  0  0  0
    4.7801    1.3010   -0.1173 H   0  0  0  0  0  0  0  0  0  0  0  0
    6.0370   -1.1927   -0.1002 H   0  0  0  0  0  0  0  0  0  0  0  0
    5.4802   -0.3786    1.3668 H   0  0  0  0  0  0  0  0  0  0  0  0
    4.2060   -2.3293    1.6870 H   0  0  0  0  0  0  0  0  0  0  0  0
    4.1639   -2.7069   -0.0612 H   0  0  0  0  0  0  0  0  0  0  0  0
  1  2  1  0
  2  3  1  0
  3  4  1  0
  4  5  2  0
  5  6  1  0
  6  7  1  0
  6  8  2  0
  8  9  1  0
  9 10  2  0
  9 11  1  0
 11 12  1  0
 12 13  1  0
 13 14  1  0
 14 15  2  0
 15 16  1  0
 16 17  1  0
 17 18  1  0
 17 19  2  0
 15 20  1  0
 20 21  1  0
 21 22  1  0
  8  3  1  0
 16 12  2  0
 22 14  1  0
  1 23  1  0
  1 24  1  0
  1 25  1  0
  2 26  1  0
  2 27  1  0
  5 28  1  0
 11 29  1  0
 18 30  1  0
 18 31  1  0
 20 32  1  0
 20 33  1  0
 21 34  1  0
 21 35  1  0
 22 36  1  0
 22 37  1  0
M  END
$$$$
