
     RDKit          3D

 60 65  0  0  0  0  0  0  0  0999 V2000
   -4.6390   -4.3305   -1.8164 O   0  0  0  0  0  0  0  0  0  0  0  0
   -3.9809   -3.5701   -1.1160 C   0  0  0  0  0  0  0  0  0  0  0  0
   -2.6855   -3.1971   -1.4537 N   0  0  0  0  0  0  0  0  0  0  0  0
   -1.8815   -2.3604   -0.6809 C   0  0  0  0  0  0  0  0  0  0  0  0
   -0.5010   -2.0955   -1.2735 C   0  0  0  0  0  0  0  0  0  0  0  0
    0.4963   -1.5578   -0.2386 C   0  0  0  0  0  0  0  0  0  0  0  0
    0.4159   -0.0431   -0.0803 C   0  0  0  0  0  0  0  0  0  0  0  0
    0.5552    0.6574   -1.3782 N   0  0  0  0  0  0  0  0  0  0  0  0
    1.4969    2.0698   -1.4145 S   0  0  0  0  0  6  0  0  0  0  0  0
    1.2492    2.8041   -0.1920 O   0  0  0  0  0  0  0  0  0  0  0  0
    1.3300    2.6924   -2.7103 O   0  0  0  0  0  0  0  0  0  0  0  0
    3.1597    1.4366   -1.3421 C   0  0  0  0  0  0  0  0  0  0  0  0
    3.8342    1.1296   -2.5300 C   0  0  0  0  0  0  0  0  0  0  0  0
    5.1405    0.6414   -2.4746 C   0  0  0  0  0  0  0  0  0  0  0  0
    5.7683    0.4762   -1.2405 C   0  0  0  0  0  0  0  0  0  0  0  0
    5.1060    0.8344   -0.0602 C   0  0  0  0  0  0  0  0  0  0  0  0
    3.7983    1.3101   -0.1055 C   0  0  0  0  0  0  0  0  0  0  0  0
    5.6810    0.7366    1.1807 O   0  0  0  0  0  0  0  0  0  0  0  0
    7.1036    0.5977    1.0848 C   0  0  0  0  0  0  0  0  0  0  0  0
    7.4678   -0.4448    0.0405 C   0  0  0  0  0  0  0  0  0  0  0  0
    7.0426   -0.0291   -1.2628 O   0  0  0  0  0  0  0  0  0  0  0  0
    0.5216   -0.1789   -2.5910 C   0  0  0  0  0  0  0  0  0  0  0  0
   -0.6393   -1.1614   -2.4871 C   0  0  0  0  0  0  0  0  0  0  0  0
   -2.2661   -1.8079    0.4368 N   0  0  0  0  0  0  0  0  0  0  0  0
   -3.5354   -2.1428    0.7809 C   0  0  0  0  0  0  0  0  0  0  0  0
   -4.4106   -2.9679    0.1154 C   0  0  0  0  0  0  0  0  0  0  0  0
   -5.5858   -3.0682    0.7914 N   0  0  0  0  0  0  0  0  0  0  0  0
   -5.4796   -2.3100    1.8825 N   0  0  0  0  0  0  0  0  0  0  0  0
   -4.2547   -1.7279    1.8668 N   0  0  0  0  0  0  0  0  0  0  0  0
   -3.8350   -0.8423    2.9343 C   0  0  0  0  0  0  0  0  0  0  0  0
   -4.2409    0.5805    2.6635 C   0  0  0  0  0  0  0  0  0  0  0  0
   -3.4934    1.3995    1.8040 C   0  0  0  0  0  0  0  0  0  0  0  0
   -3.8945    2.7133    1.5504 C   0  0  0  0  0  0  0  0  0  0  0  0
   -5.0475    3.2219    2.1479 C   0  0  0  0  0  0  0  0  0  0  0  0
   -5.7992    2.4164    3.0008 C   0  0  0  0  0  0  0  0  0  0  0  0
   -5.3928    1.1091    3.2507 C   0  0  0  0  0  0  0  0  0  0  0  0
   -6.1227    0.3552    4.0845 F   0  0  0  0  0  0  0  0  0  0  0  0
   -2.3448   -3.6023   -2.3129 H   0  0  0  0  0  0  0  0  0  0  0  0
   -0.1194   -3.0653   -1.6226 H   0  0  0  0  0  0  0  0  0  0  0  0
    1.5128   -1.8217   -0.5611 H   0  0  0  0  0  0  0  0  0  0  0  0
    0.3544   -2.0410    0.7356 H   0  0  0  0  0  0  0  0  0  0  0  0
   -0.5452    0.2502    0.3535 H   0  0  0  0  0  0  0  0  0  0  0  0
    1.1894    0.2686    0.6275 H   0  0  0  0  0  0  0  0  0  0  0  0
    3.3532    1.2692   -3.4958 H   0  0  0  0  0  0  0  0  0  0  0  0
    5.6697    0.3892   -3.3902 H   0  0  0  0  0  0  0  0  0  0  0  0
    3.2959    1.5924    0.8164 H   0  0  0  0  0  0  0  0  0  0  0  0
    7.4740    0.2938    2.0688 H   0  0  0  0  0  0  0  0  0  0  0  0
    7.5351    1.5772    0.8440 H   0  0  0  0  0  0  0  0  0  0  0  0
    7.0053   -1.4141    0.2640 H   0  0  0  0  0  0  0  0  0  0  0  0
    8.5528   -0.5842    0.0065 H   0  0  0  0  0  0  0  0  0  0  0  0
    0.3633    0.4453   -3.4763 H   0  0  0  0  0  0  0  0  0  0  0  0
    1.4676   -0.7150   -2.7178 H   0  0  0  0  0  0  0  0  0  0  0  0
   -0.6949   -1.7606   -3.4044 H   0  0  0  0  0  0  0  0  0  0  0  0
   -1.5795   -0.5955   -2.4333 H   0  0  0  0  0  0  0  0  0  0  0  0
   -2.7460   -0.9174    3.0359 H   0  0  0  0  0  0  0  0  0  0  0  0
   -4.2646   -1.2174    3.8705 H   0  0  0  0  0  0  0  0  0  0  0  0
   -2.5952    1.0209    1.3214 H   0  0  0  0  0  0  0  0  0  0  0  0
   -3.3063    3.3398    0.8827 H   0  0  0  0  0  0  0  0  0  0  0  0
   -5.3595    4.2438    1.9477 H   0  0  0  0  0  0  0  0  0  0  0  0
   -6.6997    2.7969    3.4723 H   0  0  0  0  0  0  0  0  0  0  0  0
  1  2  2  0
  2  3  1  0
  3  4  1  0
  4  5  1  0
  5  6  1  0
  6  7  1  0
  7  8  1  0
  8  9  1  0
  9 10  2  0
  9 11  2  0
  9 12  1  0
 12 13  2  0
 13 14  1  0
 14 15  2  0
 15 16  1  0
 16 17  2  0
 16 18  1  0
 18 19  1  0
 19 20  1  0
 20 21  1  0
  8 22  1  0
 22 23  1  0
  4 24  2  0
 24 25  1  0
 25 26  2  0
 26 27  1  0
 27 28  2  0
 28 29  1  0
 29 30  1  0
 30 31  1  0
 31 32  2  0
 32 33  1  0
 33 34  2  0
 34 35  1  0
 35 36  2  0
 36 37  1  0
 26  2  1  0
 36 31  1  0
 23  5  1  0
 29 25  1  0
 17 12  1  0
 21 15  1  0
  3 38  1  0
  5 39  1  0
  6 40  1  0
  6 41  1  0
  7 42  1  0
  7 43  1  0
 13 44  1  0
 14 45  1  0
 17 46  1  0
 19 47  1  0
 19 48  1  0
 20 49  1  0
 20 50  1  0
 22 51  1  0
 22 52  1  0
 23 53  1  0
 23 54  1  0
 30 55  1  0
 30 56  1  0
 32 57  1  0
 33 58  1  0
 34 59  1  0
 35 60  1  0
M  END
$$$$
