
     RDKit          3D

 40 42  0  0  0  0  0  0  0  0999 V2000
   -6.0465   -0.7259    1.5398 C   0  0  0  0  0  0  0  0  0  0  0  0
   -5.4292   -0.3436    0.1821 C   0  0  0  0  0  0  0  0  0  0  0  0
   -6.0413   -1.2645   -0.8956 C   0  0  0  0  0  0  0  0  0  0  0  0
   -5.8016    1.1090   -0.1672 C   0  0  0  0  0  0  0  0  0  0  0  0
   -3.9177   -0.5175    0.2122 C   0  0  0  0  0  0  0  0  0  0  0  0
   -3.2410   -1.3362   -0.5711 N   0  0  0  0  0  0  0  0  0  0  0  0
   -1.8804   -1.3009   -0.3338 N   0  0  0  0  0  0  0  0  0  0  0  0
   -1.5758   -0.4582    0.6181 C   0  0  0  0  0  0  0  0  0  0  0  0
   -0.3645   -0.1179    1.1546 N   0  0  0  0  0  0  0  0  0  0  0  0
    0.8145   -0.7027    0.7307 C   0  0  0  0  0  0  0  0  0  0  0  0
    0.9211   -1.5695   -0.1287 O   0  0  0  0  0  0  0  0  0  0  0  0
    2.0298   -0.1163    1.4659 C   0  0  0  0  0  0  0  0  0  0  0  0
    3.2758   -0.7498    1.2193 O   0  0  0  0  0  0  0  0  0  0  0  0
    4.0679   -0.1386    0.2851 C   0  0  0  0  0  0  0  0  0  0  0  0
    3.5913    0.3618   -0.9408 C   0  0  0  0  0  0  0  0  0  0  0  0
    4.4696    0.9559   -1.8545 C   0  0  0  0  0  0  0  0  0  0  0  0
    5.8040    1.0162   -1.5168 C   0  0  0  0  0  0  0  0  0  0  0  0
    6.2727    0.5054   -0.3297 C   0  0  0  0  0  0  0  0  0  0  0  0
    5.4315   -0.0860    0.5881 C   0  0  0  0  0  0  0  0  0  0  0  0
    7.6179    0.6555   -0.1958 O   0  0  0  0  0  0  0  0  0  0  0  0
    7.9439    1.3024   -1.4435 C   0  0  0  0  0  0  0  0  0  0  0  0
    6.7944    1.5511   -2.2792 O   0  0  0  0  0  0  0  0  0  0  0  0
   -2.9042    0.3634    1.3036 S   0  0  0  0  0  0  0  0  0  0  0  0
   -7.1407   -0.6701    1.5055 H   0  0  0  0  0  0  0  0  0  0  0  0
   -5.7730   -1.7482    1.8267 H   0  0  0  0  0  0  0  0  0  0  0  0
   -5.7139   -0.0588    2.3429 H   0  0  0  0  0  0  0  0  0  0  0  0
   -5.6480   -1.0307   -1.8922 H   0  0  0  0  0  0  0  0  0  0  0  0
   -7.1314   -1.1572   -0.9373 H   0  0  0  0  0  0  0  0  0  0  0  0
   -5.8208   -2.3194   -0.6926 H   0  0  0  0  0  0  0  0  0  0  0  0
   -5.4642    1.8138    0.6010 H   0  0  0  0  0  0  0  0  0  0  0  0
   -6.8875    1.2267   -0.2595 H   0  0  0  0  0  0  0  0  0  0  0  0
   -5.3502    1.4172   -1.1177 H   0  0  0  0  0  0  0  0  0  0  0  0
   -0.3731    0.5728    1.8895 H   0  0  0  0  0  0  0  0  0  0  0  0
    1.8376   -0.2380    2.5392 H   0  0  0  0  0  0  0  0  0  0  0  0
    2.0759    0.9654    1.2799 H   0  0  0  0  0  0  0  0  0  0  0  0
    2.5460    0.2641   -1.2189 H   0  0  0  0  0  0  0  0  0  0  0  0
    4.1158    1.3383   -2.8053 H   0  0  0  0  0  0  0  0  0  0  0  0
    5.8166   -0.4941    1.5152 H   0  0  0  0  0  0  0  0  0  0  0  0
    8.6477    0.6678   -1.9945 H   0  0  0  0  0  0  0  0  0  0  0  0
    8.4310    2.2595   -1.2246 H   0  0  0  0  0  0  0  0  0  0  0  0
  1  2  1  0
  2  3  1  0
  2  4  1  0
  2  5  1  0
  5  6  2  0
  6  7  1  0
  7  8  2  0
  8  9  1  0
  9 10  1  0
 10 11  2  0
 10 12  1  0
 12 13  1  0
 13 14  1  0
 14 15  2  0
 15 16  1  0
 16 17  2  0
 17 18  1  0
 18 19  2  0
 18 20  1  0
 20 21  1  0
 21 22  1  0
  8 23  1  0
 23  5  1  0
 19 14  1  0
 22 17  1  0
  1 24  1  0
  1 25  1  0
  1 26  1  0
  3 27  1  0
  3 28  1  0
  3 29  1  0
  4 30  1  0
  4 31  1  0
  4 32  1  0
  9 33  1  0
 12 34  1  0
 12 35  1  0
 15 36  1  0
 16 37  1  0
 19 38  1  0
 21 39  1  0
 21 40  1  0
M  END
$$$$
