
     RDKit          3D

 58 60  0  0  0  0  0  0  0  0999 V2000
    1.9141   -0.7741   -3.4801 C   0  0  0  0  0  0  0  0  0  0  0  0
    2.7910   -0.7829   -2.2663 C   0  0  0  0  0  0  0  0  0  0  0  0
    2.8240   -1.9007   -1.4347 C   0  0  0  0  0  0  0  0  0  0  0  0
    3.6363   -1.9131   -0.3008 C   0  0  0  0  0  0  0  0  0  0  0  0
    4.4385   -0.8088    0.0202 C   0  0  0  0  0  0  0  0  0  0  0  0
    5.2933   -0.8306    1.2717 C   0  0  0  0  0  0  0  0  0  0  0  0
    5.1143    0.3836    2.1897 C   0  0  0  0  0  0  0  0  0  0  0  0
    3.7291    0.6653    2.5224 N   0  0  0  0  0  0  0  0  0  0  0  0
    3.0023   -0.1189    3.3843 C   0  0  0  0  0  0  0  0  0  0  0  0
    3.4827   -1.0328    4.0480 O   0  0  0  0  0  0  0  0  0  0  0  0
    1.5284    0.2228    3.4217 C   0  0  0  0  0  0  0  0  0  0  0  0
    0.8186   -0.3075    2.1891 C   0  0  0  0  0  0  0  0  0  0  0  0
    1.1474    0.4418    0.9715 N   0  0  0  0  0  0  0  0  0  0  0  0
    0.4046    1.8672    0.5373 S   0  0  0  0  0  6  0  0  0  0  0  0
    0.9012    2.2144   -0.7740 O   0  0  0  0  0  0  0  0  0  0  0  0
    0.5171    2.7786    1.6545 O   0  0  0  0  0  0  0  0  0  0  0  0
   -1.3001    1.4078    0.3644 C   0  0  0  0  0  0  0  0  0  0  0  0
   -2.2298    1.8126    1.3207 C   0  0  0  0  0  0  0  0  0  0  0  0
   -3.5775    1.4707    1.1679 C   0  0  0  0  0  0  0  0  0  0  0  0
   -4.0149    0.7307    0.0558 C   0  0  0  0  0  0  0  0  0  0  0  0
   -3.0683    0.3436   -0.8938 C   0  0  0  0  0  0  0  0  0  0  0  0
   -1.7109    0.6796   -0.7524 C   0  0  0  0  0  0  0  0  0  0  0  0
   -3.5054   -0.4329   -2.0660 C   0  0  0  0  0  0  0  0  0  0  0  0
   -2.6613   -0.8361   -2.8649 O   0  0  0  0  0  0  0  0  0  0  0  0
   -4.8662   -0.6718   -2.1897 N   0  0  0  0  0  0  0  0  0  0  0  0
   -5.3007   -1.4254   -3.3579 C   0  0  0  0  0  0  0  0  0  0  0  0
   -5.8186   -0.3565   -1.2295 C   0  0  0  0  0  0  0  0  0  0  0  0
   -6.9985   -0.6946   -1.3513 O   0  0  0  0  0  0  0  0  0  0  0  0
   -5.3731    0.3571   -0.1157 N   0  0  0  0  0  0  0  0  0  0  0  0
   -6.3572    0.7417    0.8922 C   0  0  0  0  0  0  0  0  0  0  0  0
    4.4318    0.2942   -0.8410 C   0  0  0  0  0  0  0  0  0  0  0  0
    3.6144    0.3077   -1.9696 C   0  0  0  0  0  0  0  0  0  0  0  0
    1.7943    0.2366   -3.8724 H   0  0  0  0  0  0  0  0  0  0  0  0
    2.3462   -1.4001   -4.2664 H   0  0  0  0  0  0  0  0  0  0  0  0
    0.9159   -1.1443   -3.2301 H   0  0  0  0  0  0  0  0  0  0  0  0
    2.2129   -2.7696   -1.6635 H   0  0  0  0  0  0  0  0  0  0  0  0
    3.6394   -2.7932    0.3309 H   0  0  0  0  0  0  0  0  0  0  0  0
    6.3438   -0.9083    0.9676 H   0  0  0  0  0  0  0  0  0  0  0  0
    5.0756   -1.7351    1.8512 H   0  0  0  0  0  0  0  0  0  0  0  0
    5.5135    1.2775    1.7166 H   0  0  0  0  0  0  0  0  0  0  0  0
    5.6635    0.2207    3.1182 H   0  0  0  0  0  0  0  0  0  0  0  0
    3.2046    1.2386    1.8692 H   0  0  0  0  0  0  0  0  0  0  0  0
    1.4086    1.3067    3.5432 H   0  0  0  0  0  0  0  0  0  0  0  0
    1.1033   -0.2435    4.3165 H   0  0  0  0  0  0  0  0  0  0  0  0
    1.1002   -1.3542    2.0199 H   0  0  0  0  0  0  0  0  0  0  0  0
   -0.2618   -0.3026    2.3485 H   0  0  0  0  0  0  0  0  0  0  0  0
    1.6866   -0.0189    0.2365 H   0  0  0  0  0  0  0  0  0  0  0  0
   -1.9178    2.3882    2.1923 H   0  0  0  0  0  0  0  0  0  0  0  0
   -4.2641    1.8032    1.9403 H   0  0  0  0  0  0  0  0  0  0  0  0
   -0.9858    0.3758   -1.5052 H   0  0  0  0  0  0  0  0  0  0  0  0
   -6.3628   -1.2685   -3.5701 H   0  0  0  0  0  0  0  0  0  0  0  0
   -5.1237   -2.4907   -3.1656 H   0  0  0  0  0  0  0  0  0  0  0  0
   -4.7226   -1.1288   -4.2376 H   0  0  0  0  0  0  0  0  0  0  0  0
   -7.3426    0.3109    0.6938 H   0  0  0  0  0  0  0  0  0  0  0  0
   -6.0409    0.3907    1.8802 H   0  0  0  0  0  0  0  0  0  0  0  0
   -6.4636    1.8328    0.8856 H   0  0  0  0  0  0  0  0  0  0  0  0
    5.0566    1.1591   -0.6423 H   0  0  0  0  0  0  0  0  0  0  0  0
    3.6140    1.1846   -2.6088 H   0  0  0  0  0  0  0  0  0  0  0  0
  1  2  1  0
  2  3  2  0
  3  4  1  0
  4  5  2  0
  5  6  1  0
  6  7  1  0
  7  8  1  0
  8  9  1  0
  9 10  2  0
  9 11  1  0
 11 12  1  0
 12 13  1  0
 13 14  1  0
 14 15  2  0
 14 16  2  0
 14 17  1  0
 17 18  2  0
 18 19  1  0
 19 20  2  0
 20 21  1  0
 21 22  2  0
 21 23  1  0
 23 24  2  0
 23 25  1  0
 25 26  1  0
 25 27  1  0
 27 28  2  0
 27 29  1  0
 29 30  1  0
  5 31  1  0
 31 32  2  0
 32  2  1  0
 22 17  1  0
 29 20  1  0
  1 33  1  0
  1 34  1  0
  1 35  1  0
  3 36  1  0
  4 37  1  0
  6 38  1  0
  6 39  1  0
  7 40  1  0
  7 41  1  0
  8 42  1  0
 11 43  1  0
 11 44  1  0
 12 45  1  0
 12 46  1  0
 13 47  1  0
 18 48  1  0
 19 49  1  0
 22 50  1  0
 26 51  1  0
 26 52  1  0
 26 53  1  0
 30 54  1  0
 30 55  1  0
 30 56  1  0
 31 57  1  0
 32 58  1  0
M  END
$$$$
