
     RDKit          3D

 47 50  0  0  0  0  0  0  0  0999 V2000
   -2.1143   -2.9563    1.7003 C   0  0  0  0  0  0  0  0  0  0  0  0
   -1.4333   -1.9930    0.7702 C   0  0  0  0  0  0  0  0  0  0  0  0
   -0.2349   -2.2849    0.3466 N   0  0  0  0  0  0  0  0  0  0  0  0
    0.4559   -1.4144   -0.5049 N   0  0  0  0  0  0  0  0  0  0  0  0
    1.8209   -1.7824   -0.8385 C   0  0  0  0  0  0  0  0  0  0  0  0
    2.8218   -1.0880    0.0882 C   0  0  0  0  0  0  0  0  0  0  0  0
    2.5136   -0.4676    1.1026 O   0  0  0  0  0  0  0  0  0  0  0  0
    4.1352   -1.2430   -0.3111 N   0  0  0  0  0  0  0  0  0  0  0  0
    5.2120   -0.7291    0.5019 C   0  0  0  0  0  0  0  0  0  0  0  0
    6.4732   -0.7947   -0.2953 C   0  0  0  0  0  0  0  0  0  0  0  0
    6.9703    0.1395   -1.1839 C   0  0  0  0  0  0  0  0  0  0  0  0
    8.2045   -0.2687   -1.7663 C   0  0  0  0  0  0  0  0  0  0  0  0
    8.6091   -1.5009   -1.3048 C   0  0  0  0  0  0  0  0  0  0  0  0
    7.5037   -2.1595   -0.1789 S   0  0  0  0  0  0  0  0  0  0  0  0
   -0.0360   -0.1884   -0.9937 C   0  0  0  0  0  0  0  0  0  0  0  0
    0.6020    0.5426   -1.7495 O   0  0  0  0  0  0  0  0  0  0  0  0
   -1.3835    0.1020   -0.5235 C   0  0  0  0  0  0  0  0  0  0  0  0
   -2.1298    1.1572   -0.8566 N   0  0  0  0  0  0  0  0  0  0  0  0
   -3.2583    1.0427   -0.1045 N   0  0  0  0  0  0  0  0  0  0  0  0
   -4.1649    2.1477   -0.0607 C   0  0  0  0  0  0  0  0  0  0  0  0
   -5.1277    2.2897    0.9458 C   0  0  0  0  0  0  0  0  0  0  0  0
   -5.9880    3.3936    0.9504 C   0  0  0  0  0  0  0  0  0  0  0  0
   -5.8870    4.3695   -0.0384 C   0  0  0  0  0  0  0  0  0  0  0  0
   -4.9163    4.2532   -1.0288 C   0  0  0  0  0  0  0  0  0  0  0  0
   -4.0546    3.1537   -1.0369 C   0  0  0  0  0  0  0  0  0  0  0  0
   -3.3174   -0.2110    0.5177 C   0  0  0  0  0  0  0  0  0  0  0  0
   -4.5280   -0.7780    1.1658 C   0  0  0  0  0  0  0  0  0  0  0  0
   -2.0646   -0.7721    0.3306 C   0  0  0  0  0  0  0  0  0  0  0  0
   -1.3954   -3.6871    2.0828 H   0  0  0  0  0  0  0  0  0  0  0  0
   -2.5496   -2.4216    2.5484 H   0  0  0  0  0  0  0  0  0  0  0  0
   -2.8984   -3.4925    1.1593 H   0  0  0  0  0  0  0  0  0  0  0  0
    1.9375   -2.8670   -0.7390 H   0  0  0  0  0  0  0  0  0  0  0  0
    2.0350   -1.4971   -1.8743 H   0  0  0  0  0  0  0  0  0  0  0  0
    4.3635   -1.9108   -1.0359 H   0  0  0  0  0  0  0  0  0  0  0  0
    5.2676   -1.3271    1.4182 H   0  0  0  0  0  0  0  0  0  0  0  0
    4.9856    0.3037    0.7902 H   0  0  0  0  0  0  0  0  0  0  0  0
    6.4678    1.0743   -1.4061 H   0  0  0  0  0  0  0  0  0  0  0  0
    8.7669    0.3128   -2.4866 H   0  0  0  0  0  0  0  0  0  0  0  0
    9.5020   -2.0483   -1.5741 H   0  0  0  0  0  0  0  0  0  0  0  0
   -5.2116    1.5943    1.7718 H   0  0  0  0  0  0  0  0  0  0  0  0
   -6.7296    3.4996    1.7387 H   0  0  0  0  0  0  0  0  0  0  0  0
   -6.5541    5.2276   -0.0289 H   0  0  0  0  0  0  0  0  0  0  0  0
   -4.8227    5.0185   -1.7951 H   0  0  0  0  0  0  0  0  0  0  0  0
   -3.3026    3.0905   -1.8228 H   0  0  0  0  0  0  0  0  0  0  0  0
   -4.5525   -1.8664    1.0631 H   0  0  0  0  0  0  0  0  0  0  0  0
   -4.5437   -0.5417    2.2337 H   0  0  0  0  0  0  0  0  0  0  0  0
   -5.4495   -0.4210    0.6968 H   0  0  0  0  0  0  0  0  0  0  0  0
  1  2  1  0
  2  3  2  0
  3  4  1  0
  4  5  1  0
  5  6  1  0
  6  7  2  0
  6  8  1  0
  8  9  1  0
  9 10  1  0
 10 11  2  0
 11 12  1  0
 12 13  2  0
 13 14  1  0
  4 15  1  0
 15 16  2  0
 15 17  1  0
 17 18  2  0
 18 19  1  0
 19 20  1  0
 20 21  2  0
 21 22  1  0
 22 23  2  0
 23 24  1  0
 24 25  2  0
 19 26  1  0
 26 27  1  0
 26 28  2  0
 28  2  1  0
 14 10  1  0
 28 17  1  0
 25 20  1  0
  1 29  1  0
  1 30  1  0
  1 31  1  0
  5 32  1  0
  5 33  1  0
  8 34  1  0
  9 35  1  0
  9 36  1  0
 11 37  1  0
 12 38  1  0
 13 39  1  0
 21 40  1  0
 22 41  1  0
 23 42  1  0
 24 43  1  0
 25 44  1  0
 27 45  1  0
 27 46  1  0
 27 47  1  0
M  END
$$$$
