
     RDKit          3D

 36 37  0  0  0  0  0  0  0  0999 V2000
   -2.0476   -2.8958   -0.7426 C   0  0  0  0  0  0  0  0  0  0  0  0
   -2.9770   -1.7411   -0.4253 C   0  0  0  0  0  0  0  0  0  0  0  0
   -2.2332   -0.5140   -0.3356 O   0  0  0  0  0  0  0  0  0  0  0  0
   -1.7431   -0.2118    0.8948 C   0  0  0  0  0  0  0  0  0  0  0  0
   -1.8266   -0.9168    1.8877 O   0  0  0  0  0  0  0  0  0  0  0  0
   -1.1311    1.1433    0.9053 C   0  0  0  0  0  0  0  0  0  0  0  0
   -1.0803    1.7923    2.1513 C   0  0  0  0  0  0  0  0  0  0  0  0
   -0.5378    3.0726    2.2646 C   0  0  0  0  0  0  0  0  0  0  0  0
   -0.0404    3.7158    1.1356 C   0  0  0  0  0  0  0  0  0  0  0  0
   -0.0745    3.0769   -0.1048 C   0  0  0  0  0  0  0  0  0  0  0  0
   -0.6073    1.7886   -0.2304 C   0  0  0  0  0  0  0  0  0  0  0  0
   -0.5589    1.1563   -1.5130 N   0  0  0  0  0  0  0  0  0  0  0  0
    0.9342    0.7344   -2.1852 S   0  0  0  0  0  6  0  0  0  0  0  0
    0.6175   -0.1560   -3.2850 O   0  0  0  0  0  0  0  0  0  0  0  0
    1.7205    1.9254   -2.4148 O   0  0  0  0  0  0  0  0  0  0  0  0
    1.7036   -0.2442   -0.9329 C   0  0  0  0  0  0  0  0  0  0  0  0
    1.5413   -1.6351   -0.9466 C   0  0  0  0  0  0  0  0  0  0  0  0
    2.1550   -2.4144    0.0357 C   0  0  0  0  0  0  0  0  0  0  0  0
    2.9395   -1.8095    1.0179 C   0  0  0  0  0  0  0  0  0  0  0  0
    3.1169   -0.4258    1.0133 C   0  0  0  0  0  0  0  0  0  0  0  0
    2.5045    0.3519    0.0330 C   0  0  0  0  0  0  0  0  0  0  0  0
    2.6944    1.6760    0.0735 F   0  0  0  0  0  0  0  0  0  0  0  0
   -1.3000   -3.0269    0.0458 H   0  0  0  0  0  0  0  0  0  0  0  0
   -1.5039   -2.7042   -1.6732 H   0  0  0  0  0  0  0  0  0  0  0  0
   -2.6096   -3.8277   -0.8504 H   0  0  0  0  0  0  0  0  0  0  0  0
   -3.5509   -1.9281    0.4896 H   0  0  0  0  0  0  0  0  0  0  0  0
   -3.7002   -1.6164   -1.2378 H   0  0  0  0  0  0  0  0  0  0  0  0
   -1.4693    1.3015    3.0425 H   0  0  0  0  0  0  0  0  0  0  0  0
   -0.5046    3.5673    3.2327 H   0  0  0  0  0  0  0  0  0  0  0  0
    0.3852    4.7135    1.2173 H   0  0  0  0  0  0  0  0  0  0  0  0
    0.3283    3.5939   -0.9741 H   0  0  0  0  0  0  0  0  0  0  0  0
   -1.2650    0.4349   -1.6855 H   0  0  0  0  0  0  0  0  0  0  0  0
    0.9455   -2.1198   -1.7170 H   0  0  0  0  0  0  0  0  0  0  0  0
    2.0258   -3.4948    0.0331 H   0  0  0  0  0  0  0  0  0  0  0  0
    3.4176   -2.4166    1.7834 H   0  0  0  0  0  0  0  0  0  0  0  0
    3.7312    0.0543    1.7697 H   0  0  0  0  0  0  0  0  0  0  0  0
  1  2  1  0
  2  3  1  0
  3  4  1  0
  4  5  2  0
  4  6  1  0
  6  7  2  0
  7  8  1  0
  8  9  2  0
  9 10  1  0
 10 11  2  0
 11 12  1  0
 12 13  1  0
 13 14  2  0
 13 15  2  0
 13 16  1  0
 16 17  2  0
 17 18  1  0
 18 19  2  0
 19 20  1  0
 20 21  2  0
 21 22  1  0
 11  6  1  0
 21 16  1  0
  1 23  1  0
  1 24  1  0
  1 25  1  0
  2 26  1  0
  2 27  1  0
  7 28  1  0
  8 29  1  0
  9 30  1  0
 10 31  1  0
 12 32  1  0
 17 33  1  0
 18 34  1  0
 19 35  1  0
 20 36  1  0
M  END
$$$$
