
     RDKit          3D

 42 44  0  0  0  0  0  0  0  0999 V2000
   -8.2934   -1.5208    0.6197 C   0  0  0  0  0  0  0  0  0  0  0  0
   -7.6410   -0.2960    0.0339 C   0  0  0  0  0  0  0  0  0  0  0  0
   -8.3158    0.6282   -0.4149 O   0  0  0  0  0  0  0  0  0  0  0  0
   -6.1498   -0.2168    0.0016 C   0  0  0  0  0  0  0  0  0  0  0  0
   -5.3349   -1.2587    0.4537 C   0  0  0  0  0  0  0  0  0  0  0  0
   -3.9404   -1.1347    0.3999 C   0  0  0  0  0  0  0  0  0  0  0  0
   -3.3393    0.0276   -0.1004 C   0  0  0  0  0  0  0  0  0  0  0  0
   -1.9298    0.0659   -0.1241 N   0  0  0  0  0  0  0  0  0  0  0  0
   -1.1274    1.1329   -0.4882 C   0  0  0  0  0  0  0  0  0  0  0  0
   -1.4938    2.2617   -0.7885 O   0  0  0  0  0  0  0  0  0  0  0  0
    0.3346    0.8489   -0.4603 C   0  0  0  0  0  0  0  0  0  0  0  0
    0.8534   -0.3776   -0.8872 C   0  0  0  0  0  0  0  0  0  0  0  0
    2.2344   -0.6012   -0.8488 C   0  0  0  0  0  0  0  0  0  0  0  0
    3.1111    0.3925   -0.3913 C   0  0  0  0  0  0  0  0  0  0  0  0
    4.4824    0.0809   -0.3853 N   0  0  0  0  0  0  0  0  0  0  0  0
    5.5433    0.8689    0.0271 C   0  0  0  0  0  0  0  0  0  0  0  0
    5.4536    2.0042    0.4815 O   0  0  0  0  0  0  0  0  0  0  0  0
    6.8239    0.2004   -0.1283 C   0  0  0  0  0  0  0  0  0  0  0  0
    8.1103    0.6207    0.1527 C   0  0  0  0  0  0  0  0  0  0  0  0
    8.9741   -0.4439   -0.1982 C   0  0  0  0  0  0  0  0  0  0  0  0
    8.1676   -1.4510   -0.6719 C   0  0  0  0  0  0  0  0  0  0  0  0
    6.8627   -1.0756   -0.6351 O   0  0  0  0  0  0  0  0  0  0  0  0
    2.5861    1.6200    0.0172 C   0  0  0  0  0  0  0  0  0  0  0  0
    1.2057    1.8507   -0.0235 C   0  0  0  0  0  0  0  0  0  0  0  0
   -4.1562    1.0630   -0.5540 C   0  0  0  0  0  0  0  0  0  0  0  0
   -5.5508    0.9425   -0.5033 C   0  0  0  0  0  0  0  0  0  0  0  0
   -9.3804   -1.3949    0.5963 H   0  0  0  0  0  0  0  0  0  0  0  0
   -7.9920   -1.6498    1.6624 H   0  0  0  0  0  0  0  0  0  0  0  0
   -8.0408   -2.4038    0.0273 H   0  0  0  0  0  0  0  0  0  0  0  0
   -5.7541   -2.1782    0.8511 H   0  0  0  0  0  0  0  0  0  0  0  0
   -3.3332   -1.9619    0.7595 H   0  0  0  0  0  0  0  0  0  0  0  0
   -1.4605   -0.7553    0.2341 H   0  0  0  0  0  0  0  0  0  0  0  0
    0.2042   -1.1544   -1.2820 H   0  0  0  0  0  0  0  0  0  0  0  0
    2.6160   -1.5603   -1.1918 H   0  0  0  0  0  0  0  0  0  0  0  0
    4.7527   -0.8365   -0.7241 H   0  0  0  0  0  0  0  0  0  0  0  0
    8.3780    1.5859    0.5621 H   0  0  0  0  0  0  0  0  0  0  0  0
   10.0519   -0.4731   -0.1165 H   0  0  0  0  0  0  0  0  0  0  0  0
    8.3591   -2.4445   -1.0538 H   0  0  0  0  0  0  0  0  0  0  0  0
    3.2214    2.4283    0.3669 H   0  0  0  0  0  0  0  0  0  0  0  0
    0.8149    2.8178    0.2887 H   0  0  0  0  0  0  0  0  0  0  0  0
   -3.7434    1.9818   -0.9601 H   0  0  0  0  0  0  0  0  0  0  0  0
   -6.1645    1.7669   -0.8639 H   0  0  0  0  0  0  0  0  0  0  0  0
  1  2  1  0
  2  3  2  0
  2  4  1  0
  4  5  2  0
  5  6  1  0
  6  7  2  0
  7  8  1  0
  8  9  1  0
  9 10  2  0
  9 11  1  0
 11 12  2  0
 12 13  1  0
 13 14  2  0
 14 15  1  0
 15 16  1  0
 16 17  2  0
 16 18  1  0
 18 19  2  0
 19 20  1  0
 20 21  2  0
 21 22  1  0
 14 23  1  0
 23 24  2  0
  7 25  1  0
 25 26  2  0
 26  4  1  0
 24 11  1  0
 22 18  1  0
  1 27  1  0
  1 28  1  0
  1 29  1  0
  5 30  1  0
  6 31  1  0
  8 32  1  0
 12 33  1  0
 13 34  1  0
 15 35  1  0
 19 36  1  0
 20 37  1  0
 21 38  1  0
 23 39  1  0
 24 40  1  0
 25 41  1  0
 26 42  1  0
M  END
$$$$
