
     RDKit          3D

 23 23  0  0  0  0  0  0  0  0999 V2000
    0.0470    2.3833   -0.8758 O   0  0  0  0  0  0  0  0  0  0  0  0
   -1.0680    1.9256   -0.7058 C   0  0  0  0  0  0  0  0  0  0  0  0
   -2.1535    2.7237   -0.7385 O   0  0  0  0  0  0  0  0  0  0  0  0
   -1.4365    0.5086   -0.4621 C   0  0  0  0  0  0  0  0  0  0  0  0
   -2.6797    0.0343   -0.9171 C   0  0  0  0  0  0  0  0  0  0  0  0
   -3.0444   -1.2978   -0.7183 C   0  0  0  0  0  0  0  0  0  0  0  0
   -2.1749   -2.1631   -0.0613 C   0  0  0  0  0  0  0  0  0  0  0  0
   -0.9402   -1.6971    0.3947 C   0  0  0  0  0  0  0  0  0  0  0  0
   -0.5481   -0.3663    0.1921 C   0  0  0  0  0  0  0  0  0  0  0  0
    0.6914    0.0307    0.7274 N   0  0  0  0  0  0  0  0  0  0  0  0
    1.6673    0.1454   -0.1178 C   0  0  0  0  0  0  0  0  0  0  0  0
    3.0104    0.6193    0.3278 C   0  0  0  0  0  0  0  0  0  0  0  0
    3.9677   -0.4517   -0.0529 N   0  0  0  0  0  4  0  0  0  0  0  0
    4.3561   -1.2149    0.8401 O   0  0  0  0  0  0  0  0  0  0  0  0
    4.3106   -0.5042   -1.2420 O   0  0  0  0  0  1  0  0  0  0  0  0
   -1.7856    3.6212   -0.8783 H   0  0  0  0  0  0  0  0  0  0  0  0
   -3.3701    0.7002   -1.4303 H   0  0  0  0  0  0  0  0  0  0  0  0
   -4.0085   -1.6571   -1.0707 H   0  0  0  0  0  0  0  0  0  0  0  0
   -2.4584   -3.1996    0.1059 H   0  0  0  0  0  0  0  0  0  0  0  0
   -0.2748   -2.3755    0.9247 H   0  0  0  0  0  0  0  0  0  0  0  0
    1.5372   -0.0648   -1.1970 H   0  0  0  0  0  0  0  0  0  0  0  0
    3.0603    0.7724    1.4082 H   0  0  0  0  0  0  0  0  0  0  0  0
    3.2947    1.5274   -0.2089 H   0  0  0  0  0  0  0  0  0  0  0  0
  1  2  2  0
  2  3  1  0
  2  4  1  0
  4  5  2  0
  5  6  1  0
  6  7  2  0
  7  8  1  0
  8  9  2  0
  9 10  1  0
 10 11  2  3
 11 12  1  0
 12 13  1  0
 13 14  2  0
 13 15  1  0
  9  4  1  0
  3 16  1  0
  5 17  1  0
  6 18  1  0
  7 19  1  0
  8 20  1  0
 11 21  1  0
 12 22  1  0
 12 23  1  0
M  CHG  2  13   1  15  -1
M  END
$$$$
