
     RDKit          3D

 37 39  0  0  0  0  0  0  0  0999 V2000
   -7.2135    0.4585   -1.0588 C   0  0  0  0  0  0  0  0  0  0  0  0
   -6.5290    1.2457   -0.0919 O   0  0  0  0  0  0  0  0  0  0  0  0
   -5.2092    0.9589    0.1150 C   0  0  0  0  0  0  0  0  0  0  0  0
   -4.5840    1.7479    1.0813 C   0  0  0  0  0  0  0  0  0  0  0  0
   -3.2314    1.5648    1.3960 C   0  0  0  0  0  0  0  0  0  0  0  0
   -2.4718    0.5816    0.7466 C   0  0  0  0  0  0  0  0  0  0  0  0
   -1.0492    0.3329    1.0243 C   0  0  0  0  0  0  0  0  0  0  0  0
   -0.3078   -0.5814    0.4292 N   0  0  0  0  0  0  0  0  0  0  0  0
    0.9789   -0.5347    0.9236 C   0  0  0  0  0  0  0  0  0  0  0  0
    1.9556   -1.3864    0.4752 N   0  0  0  0  0  0  0  0  0  0  0  0
    1.8144   -2.2769   -0.5645 C   0  0  0  0  0  0  0  0  0  0  0  0
    0.8169   -2.4313   -1.2656 O   0  0  0  0  0  0  0  0  0  0  0  0
    3.0591   -3.1159   -0.8100 C   0  0  0  0  0  0  0  0  0  0  0  0
    4.1363   -2.3249   -2.0409 S   0  0  0  0  0  0  0  0  0  0  0  0
    4.8217   -1.0305   -1.0911 C   0  0  0  0  0  0  0  0  0  0  0  0
    4.7518   -1.0147    0.2230 N   0  0  0  0  0  0  0  0  0  0  0  0
    5.3092    0.1242    0.7603 N   0  0  0  0  0  0  0  0  0  0  0  0
    5.8075    0.9147   -0.1683 C   0  0  0  0  0  0  0  0  0  0  0  0
    6.4812    2.2120    0.0890 C   0  0  0  0  0  0  0  0  0  0  0  0
    5.6161    0.3235   -1.7714 S   0  0  0  0  0  0  0  0  0  0  0  0
    1.2715    0.3516    1.8755 N   0  0  0  0  0  0  0  0  0  0  0  0
   -0.1249    1.2066    2.1819 S   0  0  0  0  0  0  0  0  0  0  0  0
   -3.1156   -0.2053   -0.2242 C   0  0  0  0  0  0  0  0  0  0  0  0
   -4.4687   -0.0216   -0.5386 C   0  0  0  0  0  0  0  0  0  0  0  0
   -8.2516    0.8033   -1.0963 H   0  0  0  0  0  0  0  0  0  0  0  0
   -7.2240   -0.5986   -0.7723 H   0  0  0  0  0  0  0  0  0  0  0  0
   -6.7812    0.5937   -2.0559 H   0  0  0  0  0  0  0  0  0  0  0  0
   -5.1567    2.5154    1.5980 H   0  0  0  0  0  0  0  0  0  0  0  0
   -2.8007    2.2095    2.1572 H   0  0  0  0  0  0  0  0  0  0  0  0
    2.8635   -1.2234    0.9008 H   0  0  0  0  0  0  0  0  0  0  0  0
    3.5903   -3.3164    0.1257 H   0  0  0  0  0  0  0  0  0  0  0  0
    2.7374   -4.0871   -1.2021 H   0  0  0  0  0  0  0  0  0  0  0  0
    7.5204    2.1852   -0.2541 H   0  0  0  0  0  0  0  0  0  0  0  0
    5.9628    3.0292   -0.4221 H   0  0  0  0  0  0  0  0  0  0  0  0
    6.4866    2.4341    1.1609 H   0  0  0  0  0  0  0  0  0  0  0  0
   -2.5575   -0.9815   -0.7497 H   0  0  0  0  0  0  0  0  0  0  0  0
   -4.9044   -0.6627   -1.2977 H   0  0  0  0  0  0  0  0  0  0  0  0
  1  2  1  0
  2  3  1  0
  3  4  2  0
  4  5  1  0
  5  6  2  0
  6  7  1  0
  7  8  2  0
  8  9  1  0
  9 10  1  0
 10 11  1  0
 11 12  2  0
 11 13  1  0
 13 14  1  0
 14 15  1  0
 15 16  2  0
 16 17  1  0
 17 18  2  0
 18 19  1  0
 18 20  1  0
  9 21  2  0
 21 22  1  0
  6 23  1  0
 23 24  2  0
 24  3  1  0
 22  7  1  0
 20 15  1  0
  1 25  1  0
  1 26  1  0
  1 27  1  0
  4 28  1  0
  5 29  1  0
 10 30  1  0
 13 31  1  0
 13 32  1  0
 19 33  1  0
 19 34  1  0
 19 35  1  0
 23 36  1  0
 24 37  1  0
M  END
$$$$
