
     RDKit          3D

 44 47  0  0  0  0  0  0  0  0999 V2000
   -6.4597   -0.5032    2.6457 C   0  0  0  0  0  0  0  0  0  0  0  0
   -5.1802   -1.1809    2.1873 C   0  0  0  0  0  0  0  0  0  0  0  0
   -4.5992   -0.3743    1.1669 O   0  0  0  0  0  0  0  0  0  0  0  0
   -3.3828   -0.7542    0.6681 C   0  0  0  0  0  0  0  0  0  0  0  0
   -2.7269   -1.9455    0.9936 C   0  0  0  0  0  0  0  0  0  0  0  0
   -1.4648   -2.2326    0.4578 C   0  0  0  0  0  0  0  0  0  0  0  0
   -0.8345   -1.3267   -0.4011 C   0  0  0  0  0  0  0  0  0  0  0  0
    0.4866   -1.6480   -0.9466 C   0  0  0  0  0  0  0  0  0  0  0  0
    1.6336   -1.0282   -0.6337 C   0  0  0  0  0  0  0  0  0  0  0  0
    1.8494    0.2961    0.4961 S   0  0  0  0  0  0  0  0  0  0  0  0
    3.5322    0.2918    0.1664 C   0  0  0  0  0  0  0  0  0  0  0  0
    4.5584    0.9811    0.5735 N   0  0  0  0  0  0  0  0  0  0  0  0
    5.5900    0.3852   -0.1410 C   0  0  0  0  0  0  0  0  0  0  0  0
    7.0735    0.8606   -0.0050 C   0  0  0  0  0  0  0  0  0  0  0  0
    7.5109    1.8912    0.8053 C   0  0  0  0  0  0  0  0  0  0  0  0
    8.9126    1.9834    0.6274 C   0  0  0  0  0  0  0  0  0  0  0  0
    9.2460    1.0037   -0.2772 C   0  0  0  0  0  0  0  0  0  0  0  0
    8.1405    0.3202   -0.6681 O   0  0  0  0  0  0  0  0  0  0  0  0
    5.2175   -0.6262   -0.9521 N   0  0  0  0  0  0  0  0  0  0  0  0
    3.8945   -0.6502   -0.7262 N   0  0  0  0  0  0  0  0  0  0  0  0
    2.9197   -1.4668   -1.2574 C   0  0  0  0  0  0  0  0  0  0  0  0
    3.1274   -2.3506   -2.0690 O   0  0  0  0  0  0  0  0  0  0  0  0
   -1.4880   -0.1394   -0.7397 C   0  0  0  0  0  0  0  0  0  0  0  0
   -2.7600    0.1324   -0.2264 C   0  0  0  0  0  0  0  0  0  0  0  0
   -3.3098    1.3348   -0.6012 O   0  0  0  0  0  0  0  0  0  0  0  0
   -4.4984    1.1552   -1.3808 C   0  0  0  0  0  0  0  0  0  0  0  0
   -4.6949    2.4046   -2.2215 C   0  0  0  0  0  0  0  0  0  0  0  0
   -7.1672   -0.4148    1.8129 H   0  0  0  0  0  0  0  0  0  0  0  0
   -6.2534    0.5133    2.9991 H   0  0  0  0  0  0  0  0  0  0  0  0
   -6.9349   -1.0703    3.4530 H   0  0  0  0  0  0  0  0  0  0  0  0
   -4.4990   -1.2714    3.0405 H   0  0  0  0  0  0  0  0  0  0  0  0
   -5.4239   -2.1724    1.7902 H   0  0  0  0  0  0  0  0  0  0  0  0
   -3.1673   -2.6755    1.6656 H   0  0  0  0  0  0  0  0  0  0  0  0
   -0.9776   -3.1677    0.7294 H   0  0  0  0  0  0  0  0  0  0  0  0
    0.4930   -2.4788   -1.6526 H   0  0  0  0  0  0  0  0  0  0  0  0
    6.8846    2.4970    1.4460 H   0  0  0  0  0  0  0  0  0  0  0  0
    9.5953    2.6738    1.1016 H   0  0  0  0  0  0  0  0  0  0  0  0
   10.1772    0.6776   -0.7216 H   0  0  0  0  0  0  0  0  0  0  0  0
   -1.0258    0.5815   -1.4091 H   0  0  0  0  0  0  0  0  0  0  0  0
   -5.3674    1.0295   -0.7242 H   0  0  0  0  0  0  0  0  0  0  0  0
   -4.4149    0.2835   -2.0450 H   0  0  0  0  0  0  0  0  0  0  0  0
   -3.8235    2.5780   -2.8648 H   0  0  0  0  0  0  0  0  0  0  0  0
   -4.8024    3.2889   -1.5807 H   0  0  0  0  0  0  0  0  0  0  0  0
   -5.5864    2.3142   -2.8510 H   0  0  0  0  0  0  0  0  0  0  0  0
  1  2  1  0
  2  3  1  0
  3  4  1  0
  4  5  2  0
  5  6  1  0
  6  7  2  0
  7  8  1  0
  8  9  2  3
  9 10  1  0
 10 11  1  0
 11 12  2  0
 12 13  1  0
 13 14  1  0
 14 15  2  0
 15 16  1  0
 16 17  2  0
 17 18  1  0
 13 19  2  0
 19 20  1  0
 20 21  1  0
 21 22  2  0
  7 23  1  0
 23 24  2  0
 24 25  1  0
 25 26  1  0
 26 27  1  0
 24  4  1  0
 21  9  1  0
 20 11  1  0
 18 14  1  0
  1 28  1  0
  1 29  1  0
  1 30  1  0
  2 31  1  0
  2 32  1  0
  5 33  1  0
  6 34  1  0
  8 35  1  0
 15 36  1  0
 16 37  1  0
 17 38  1  0
 23 39  1  0
 26 40  1  0
 26 41  1  0
 27 42  1  0
 27 43  1  0
 27 44  1  0
M  END
$$$$
