
     RDKit          3D

 35 37  0  0  0  0  0  0  0  0999 V2000
   -1.6218   -2.6348    1.8711 C   0  0  0  0  0  0  0  0  0  0  0  0
   -1.7957   -1.3217    1.1106 C   0  0  0  0  0  0  0  0  0  0  0  0
   -2.9543   -0.6810    1.6503 O   0  0  0  0  0  0  0  0  0  0  0  0
   -3.5765    0.0930    0.7102 C   0  0  0  0  0  0  0  0  0  0  0  0
   -3.2776    1.4513    0.6293 C   0  0  0  0  0  0  0  0  0  0  0  0
   -3.9319    2.2468   -0.3123 C   0  0  0  0  0  0  0  0  0  0  0  0
   -4.8920    1.6775   -1.1495 C   0  0  0  0  0  0  0  0  0  0  0  0
   -5.7791    2.7539   -2.4257 Br  0  0  0  0  0  0  0  0  0  0  0  0
   -5.2102    0.3222   -1.0485 C   0  0  0  0  0  0  0  0  0  0  0  0
   -4.5542   -0.4729   -0.1074 C   0  0  0  0  0  0  0  0  0  0  0  0
   -0.4994   -0.4883    1.2440 C   0  0  0  0  0  0  0  0  0  0  0  0
   -0.4215    0.4847    1.9870 O   0  0  0  0  0  0  0  0  0  0  0  0
    0.5178   -0.9725    0.4424 N   0  0  0  0  0  0  0  0  0  0  0  0
    1.7509   -0.3816    0.3991 C   0  0  0  0  0  0  0  0  0  0  0  0
    2.2249    0.6575    1.0407 N   0  0  0  0  0  0  0  0  0  0  0  0
    3.5404    0.9177    0.6929 N   0  0  0  0  0  0  0  0  0  0  0  0
    3.9828    0.0603   -0.1990 C   0  0  0  0  0  0  0  0  0  0  0  0
    5.4373    0.1200   -0.7583 C   0  0  0  0  0  0  0  0  0  0  0  0
    6.0222    1.4583   -1.1326 C   0  0  0  0  0  0  0  0  0  0  0  0
    5.6615    0.4743   -2.2065 C   0  0  0  0  0  0  0  0  0  0  0  0
    2.8512   -1.1334   -0.6721 S   0  0  0  0  0  0  0  0  0  0  0  0
   -0.7744   -3.2164    1.4953 H   0  0  0  0  0  0  0  0  0  0  0  0
   -2.5267   -3.2465    1.7904 H   0  0  0  0  0  0  0  0  0  0  0  0
   -1.4582   -2.4464    2.9385 H   0  0  0  0  0  0  0  0  0  0  0  0
   -1.9431   -1.5634    0.0479 H   0  0  0  0  0  0  0  0  0  0  0  0
   -2.5419    1.8925    1.2984 H   0  0  0  0  0  0  0  0  0  0  0  0
   -3.6917    3.3049   -0.3768 H   0  0  0  0  0  0  0  0  0  0  0  0
   -5.9705   -0.1179   -1.6879 H   0  0  0  0  0  0  0  0  0  0  0  0
   -4.8112   -1.5233   -0.0075 H   0  0  0  0  0  0  0  0  0  0  0  0
    0.3785   -1.7707   -0.1578 H   0  0  0  0  0  0  0  0  0  0  0  0
    6.1121   -0.5988   -0.3057 H   0  0  0  0  0  0  0  0  0  0  0  0
    7.0719    1.6267   -0.9221 H   0  0  0  0  0  0  0  0  0  0  0  0
    5.4035    2.3421   -1.0184 H   0  0  0  0  0  0  0  0  0  0  0  0
    4.8068    0.7084   -2.8314 H   0  0  0  0  0  0  0  0  0  0  0  0
    6.4699   -0.0225   -2.7305 H   0  0  0  0  0  0  0  0  0  0  0  0
  1  2  1  0
  2  3  1  0
  3  4  1  0
  4  5  2  0
  5  6  1  0
  6  7  2  0
  7  8  1  0
  7  9  1  0
  9 10  2  0
  2 11  1  0
 11 12  2  0
 11 13  1  0
 13 14  1  0
 14 15  2  0
 15 16  1  0
 16 17  2  0
 17 18  1  0
 18 19  1  0
 19 20  1  0
 17 21  1  0
 10  4  1  0
 21 14  1  0
 20 18  1  0
  1 22  1  0
  1 23  1  0
  1 24  1  0
  2 25  1  0
  5 26  1  0
  6 27  1  0
  9 28  1  0
 10 29  1  0
 13 30  1  0
 18 31  1  0
 19 32  1  0
 19 33  1  0
 20 34  1  0
 20 35  1  0
M  END
$$$$
