
     RDKit          3D

 63 67  0  0  0  0  0  0  0  0999 V2000
    6.8792    1.6356   -3.6714 C   0  0  0  0  0  0  0  0  0  0  0  0
    5.8917    0.5204   -3.9642 C   0  0  0  0  0  0  0  0  0  0  0  0
    4.9734    0.3722   -2.8728 O   0  0  0  0  0  0  0  0  0  0  0  0
    5.3866   -0.4382   -1.8548 C   0  0  0  0  0  0  0  0  0  0  0  0
    6.4611   -1.0265   -1.8254 O   0  0  0  0  0  0  0  0  0  0  0  0
    4.3971   -0.5269   -0.7885 C   0  0  0  0  0  0  0  0  0  0  0  0
    3.1246    0.1071   -0.6921 C   0  0  0  0  0  0  0  0  0  0  0  0
    2.5364   -0.2826    0.4973 C   0  0  0  0  0  0  0  0  0  0  0  0
    1.2592    0.0601    1.0992 C   0  0  0  0  0  0  0  0  0  0  0  0
    0.3191    0.8502    0.4401 N   0  0  0  0  0  0  0  0  0  0  0  0
   -0.3081    0.2845   -0.7703 C   0  0  0  0  0  0  0  0  0  0  0  0
   -1.0506    1.3722   -1.5744 C   0  0  0  0  0  0  0  0  0  0  0  0
   -1.9679    2.2428   -0.8223 N   0  0  0  0  0  0  0  0  0  0  0  0
   -3.3627    1.7993   -0.7774 C   0  0  0  0  0  0  0  0  0  0  0  0
   -3.7293    0.6246    0.1443 C   0  0  0  0  0  0  0  0  0  0  0  0
   -5.1778    0.2052   -0.0292 C   0  0  0  0  0  0  0  0  0  0  0  0
   -6.1651    0.9152    0.6778 C   0  0  0  0  0  0  0  0  0  0  0  0
   -7.5138    0.5861    0.5504 C   0  0  0  0  0  0  0  0  0  0  0  0
   -7.8992   -0.4550   -0.2873 C   0  0  0  0  0  0  0  0  0  0  0  0
   -6.9348   -1.1677   -0.9992 C   0  0  0  0  0  0  0  0  0  0  0  0
   -5.5666   -0.8503   -0.8884 C   0  0  0  0  0  0  0  0  0  0  0  0
   -4.5602   -1.6652   -1.6727 C   0  0  0  0  0  0  0  0  0  0  0  0
   -5.1274   -2.5121   -2.5781 F   0  0  0  0  0  0  0  0  0  0  0  0
   -3.7843   -2.4479   -0.8726 F   0  0  0  0  0  0  0  0  0  0  0  0
   -3.6941   -0.8946   -2.3901 F   0  0  0  0  0  0  0  0  0  0  0  0
   -1.3851    2.6651    0.4598 C   0  0  0  0  0  0  0  0  0  0  0  0
   -0.6601    1.5730    1.2745 C   0  0  0  0  0  0  0  0  0  0  0  0
    0.9952   -0.3796    2.3037 N   0  0  0  0  0  0  0  0  0  0  0  0
    1.9154   -1.2041    2.9818 C   0  0  0  0  0  0  0  0  0  0  0  0
    1.5808   -1.6609    4.2579 C   0  0  0  0  0  0  0  0  0  0  0  0
    2.4524   -2.4895    4.9706 C   0  0  0  0  0  0  0  0  0  0  0  0
    3.6726   -2.8696    4.4103 C   0  0  0  0  0  0  0  0  0  0  0  0
    4.0285   -2.4244    3.1367 C   0  0  0  0  0  0  0  0  0  0  0  0
    3.1461   -1.5972    2.4355 C   0  0  0  0  0  0  0  0  0  0  0  0
    3.4290   -1.0957    1.1548 N   0  0  0  0  0  0  0  0  0  0  0  0
    4.5425   -1.2724    0.3719 C   0  0  0  0  0  0  0  0  0  0  0  0
    6.3505    2.5716   -3.4600 H   0  0  0  0  0  0  0  0  0  0  0  0
    7.4834    1.4048   -2.7877 H   0  0  0  0  0  0  0  0  0  0  0  0
    7.5496    1.7933   -4.5211 H   0  0  0  0  0  0  0  0  0  0  0  0
    5.2983    0.7783   -4.8482 H   0  0  0  0  0  0  0  0  0  0  0  0
    6.4044   -0.4228   -4.1860 H   0  0  0  0  0  0  0  0  0  0  0  0
    2.6879    0.7828   -1.4168 H   0  0  0  0  0  0  0  0  0  0  0  0
    0.4437   -0.1667   -1.4263 H   0  0  0  0  0  0  0  0  0  0  0  0
   -0.9923   -0.5205   -0.4828 H   0  0  0  0  0  0  0  0  0  0  0  0
   -0.2880    2.0287   -2.0148 H   0  0  0  0  0  0  0  0  0  0  0  0
   -1.5616    0.9119   -2.4286 H   0  0  0  0  0  0  0  0  0  0  0  0
   -3.6891    1.5791   -1.8028 H   0  0  0  0  0  0  0  0  0  0  0  0
   -3.9709    2.6670   -0.4861 H   0  0  0  0  0  0  0  0  0  0  0  0
   -3.0787   -0.2352   -0.0269 H   0  0  0  0  0  0  0  0  0  0  0  0
   -3.5789    0.9072    1.1936 H   0  0  0  0  0  0  0  0  0  0  0  0
   -5.8847    1.7346    1.3388 H   0  0  0  0  0  0  0  0  0  0  0  0
   -8.2641    1.1429    1.1064 H   0  0  0  0  0  0  0  0  0  0  0  0
   -8.9510   -0.7138   -0.3858 H   0  0  0  0  0  0  0  0  0  0  0  0
   -7.2593   -1.9815   -1.6484 H   0  0  0  0  0  0  0  0  0  0  0  0
   -2.1401    3.1544    1.0869 H   0  0  0  0  0  0  0  0  0  0  0  0
   -0.6488    3.4465    0.2280 H   0  0  0  0  0  0  0  0  0  0  0  0
   -0.1438    2.0623    2.1099 H   0  0  0  0  0  0  0  0  0  0  0  0
   -1.3788    0.8655    1.7013 H   0  0  0  0  0  0  0  0  0  0  0  0
    0.6307   -1.3677    4.6969 H   0  0  0  0  0  0  0  0  0  0  0  0
    2.1758   -2.8379    5.9628 H   0  0  0  0  0  0  0  0  0  0  0  0
    4.3482   -3.5138    4.9686 H   0  0  0  0  0  0  0  0  0  0  0  0
    4.9835   -2.7317    2.7235 H   0  0  0  0  0  0  0  0  0  0  0  0
    5.3704   -1.8926    0.6868 H   0  0  0  0  0  0  0  0  0  0  0  0
  1  2  1  0
  2  3  1  0
  3  4  1  0
  4  5  2  0
  4  6  1  0
  6  7  1  0
  7  8  2  0
  8  9  1  0
  9 10  1  0
 10 11  1  0
 11 12  1  0
 12 13  1  0
 13 14  1  0
 14 15  1  0
 15 16  1  0
 16 17  2  0
 17 18  1  0
 18 19  2  0
 19 20  1  0
 20 21  2  0
 21 22  1  0
 22 23  1  0
 22 24  1  0
 22 25  1  0
 13 26  1  0
 26 27  1  0
  9 28  2  0
 28 29  1  0
 29 30  2  0
 30 31  1  0
 31 32  2  0
 32 33  1  0
 33 34  2  0
 34 35  1  0
 35 36  1  0
 36  6  2  0
 35  8  1  0
 27 10  1  0
 34 29  1  0
 21 16  1  0
  1 37  1  0
  1 38  1  0
  1 39  1  0
  2 40  1  0
  2 41  1  0
  7 42  1  0
 11 43  1  0
 11 44  1  0
 12 45  1  0
 12 46  1  0
 14 47  1  0
 14 48  1  0
 15 49  1  0
 15 50  1  0
 17 51  1  0
 18 52  1  0
 19 53  1  0
 20 54  1  0
 26 55  1  0
 26 56  1  0
 27 57  1  0
 27 58  1  0
 30 59  1  0
 31 60  1  0
 32 61  1  0
 33 62  1  0
 36 63  1  0
M  END
$$$$
