
     RDKit          3D

 60 66  0  0  0  0  0  0  0  0999 V2000
    1.2733    3.4342   -1.7190 O   0  0  0  0  0  0  0  0  0  0  0  0
    0.3603    3.5306   -0.9123 C   0  0  0  0  0  0  0  0  0  0  0  0
   -0.5772    4.5649   -0.8810 N   0  0  0  0  0  0  0  0  0  0  0  0
   -1.4165    4.4492    0.2199 C   0  0  0  0  0  0  0  0  0  0  0  0
   -2.4328    5.3082    0.5812 C   0  0  0  0  0  0  0  0  0  0  0  0
   -3.1491    5.0019    1.7407 C   0  0  0  0  0  0  0  0  0  0  0  0
   -2.8336    3.8620    2.5032 C   0  0  0  0  0  0  0  0  0  0  0  0
   -1.7968    3.0068    2.1186 C   0  0  0  0  0  0  0  0  0  0  0  0
   -1.0933    3.3093    0.9636 C   0  0  0  0  0  0  0  0  0  0  0  0
    0.0421    2.5974    0.2916 C   0  0  0  0  0  0  0  0  0  0  0  0
    1.2449    2.3615    1.1514 N   0  0  0  0  0  0  0  0  0  0  0  0
    1.7192    0.9372    0.9575 C   0  0  2  0  0  0  0  0  0  0  0  0
    3.0404    0.8935    0.1650 C   0  0  0  0  0  0  0  0  0  0  0  0
    3.7116   -0.4489    0.1849 C   0  0  0  0  0  0  0  0  0  0  0  0
    4.3895   -1.0093    1.2509 C   0  0  0  0  0  0  0  0  0  0  0  0
    4.8646   -2.2334    0.8654 N   0  0  0  0  0  0  0  0  0  0  0  0
    4.5022   -2.4953   -0.4344 C   0  0  0  0  0  0  0  0  0  0  0  0
    4.7547   -3.6183   -1.2312 C   0  0  0  0  0  0  0  0  0  0  0  0
    4.2581   -3.6103   -2.5377 C   0  0  0  0  0  0  0  0  0  0  0  0
    3.5401   -2.5214   -3.0254 C   0  0  0  0  0  0  0  0  0  0  0  0
    3.2993   -1.4057   -2.2159 C   0  0  0  0  0  0  0  0  0  0  0  0
    3.7887   -1.3879   -0.8937 C   0  0  0  0  0  0  0  0  0  0  0  0
    0.5672    0.3027    0.2710 C   0  0  0  0  0  0  0  0  0  0  0  0
   -0.3930    1.2513   -0.1022 C   0  0  0  0  0  0  0  0  0  0  0  0
   -1.4347    0.6055   -0.7172 C   0  0  0  0  0  0  0  0  0  0  0  0
   -2.5703    1.0443   -1.2468 O   0  0  0  0  0  0  0  0  0  0  0  0
   -1.1231   -0.7441   -0.6921 N   0  0  0  0  0  0  0  0  0  0  0  0
   -1.9520   -1.8022   -1.2548 C   0  0  0  0  0  0  0  0  0  0  0  0
   -2.9537   -2.3265   -0.2544 C   0  0  0  0  0  0  0  0  0  0  0  0
   -4.2503   -1.7947   -0.1961 C   0  0  0  0  0  0  0  0  0  0  0  0
   -5.1746   -2.2785    0.7311 C   0  0  0  0  0  0  0  0  0  0  0  0
   -4.8116   -3.2947    1.6131 C   0  0  0  0  0  0  0  0  0  0  0  0
   -3.5231   -3.8246    1.5722 C   0  0  0  0  0  0  0  0  0  0  0  0
   -2.5981   -3.3420    0.6451 C   0  0  0  0  0  0  0  0  0  0  0  0
    0.1132   -0.9375   -0.0960 C   0  0  0  0  0  0  0  0  0  0  0  0
    0.6298   -2.1529    0.0286 O   0  0  0  0  0  0  0  0  0  0  0  0
   -0.5776    5.3220   -1.5480 H   0  0  0  0  0  0  0  0  0  0  0  0
   -2.6722    6.1902   -0.0017 H   0  0  0  0  0  0  0  0  0  0  0  0
   -3.9590    5.6526    2.0633 H   0  0  0  0  0  0  0  0  0  0  0  0
   -3.4027    3.6431    3.4044 H   0  0  0  0  0  0  0  0  0  0  0  0
   -1.5515    2.1257    2.7049 H   0  0  0  0  0  0  0  0  0  0  0  0
    1.9751    3.0001    0.8409 H   0  0  0  0  0  0  0  0  0  0  0  0
    1.8518    0.4994    1.9536 H   0  0  0  0  0  0  0  0  0  0  0  0
    2.8788    1.2148   -0.8714 H   0  0  0  0  0  0  0  0  0  0  0  0
    3.7468    1.6142    0.5999 H   0  0  0  0  0  0  0  0  0  0  0  0
    4.5813   -0.6358    2.2484 H   0  0  0  0  0  0  0  0  0  0  0  0
    5.4059   -2.8596    1.4455 H   0  0  0  0  0  0  0  0  0  0  0  0
    5.3140   -4.4687   -0.8552 H   0  0  0  0  0  0  0  0  0  0  0  0
    4.4338   -4.4683   -3.1824 H   0  0  0  0  0  0  0  0  0  0  0  0
    3.1584   -2.5358   -4.0435 H   0  0  0  0  0  0  0  0  0  0  0  0
    2.7284   -0.5672   -2.6054 H   0  0  0  0  0  0  0  0  0  0  0  0
   -2.6447    1.9918   -1.0345 H   0  0  0  0  0  0  0  0  0  0  0  0
   -1.2965   -2.6068   -1.6079 H   0  0  0  0  0  0  0  0  0  0  0  0
   -2.4548   -1.4047   -2.1444 H   0  0  0  0  0  0  0  0  0  0  0  0
   -4.5419   -0.9927   -0.8713 H   0  0  0  0  0  0  0  0  0  0  0  0
   -6.1764   -1.8588    0.7672 H   0  0  0  0  0  0  0  0  0  0  0  0
   -5.5305   -3.6693    2.3364 H   0  0  0  0  0  0  0  0  0  0  0  0
   -3.2350   -4.6107    2.2646 H   0  0  0  0  0  0  0  0  0  0  0  0
   -1.5912   -3.7554    0.6301 H   0  0  0  0  0  0  0  0  0  0  0  0
    1.5444   -2.0524    0.3521 H   0  0  0  0  0  0  0  0  0  0  0  0
  1  2  2  0
  2  3  1  0
  3  4  1  0
  4  5  2  0
  5  6  1  0
  6  7  2  0
  7  8  1  0
  8  9  2  0
  9 10  1  0
 10 11  1  0
 11 12  1  0
 12 13  1  0
 13 14  1  0
 14 15  2  0
 15 16  1  0
 16 17  1  0
 17 18  2  0
 18 19  1  0
 19 20  2  0
 20 21  1  0
 21 22  2  0
 12 23  1  0
 23 24  1  0
 24 25  2  0
 25 26  1  0
 25 27  1  0
 27 28  1  0
 28 29  1  0
 29 30  2  0
 30 31  1  0
 31 32  2  0
 32 33  1  0
 33 34  2  0
 27 35  1  0
 35 36  1  0
 10  2  1  0
 22 14  1  0
 35 23  2  0
  9  4  1  0
 24 10  1  0
 34 29  1  0
 22 17  1  0
  3 37  1  0
  5 38  1  0
  6 39  1  0
  7 40  1  0
  8 41  1  0
 11 42  1  0
 12 43  1  1
 13 44  1  0
 13 45  1  0
 15 46  1  0
 16 47  1  0
 18 48  1  0
 19 49  1  0
 20 50  1  0
 21 51  1  0
 26 52  1  0
 28 53  1  0
 28 54  1  0
 30 55  1  0
 31 56  1  0
 32 57  1  0
 33 58  1  0
 34 59  1  0
 36 60  1  0
M  END
$$$$
