
     RDKit          3D

 39 41  0  0  0  0  0  0  0  0999 V2000
   -2.1489   -3.0774   -0.4510 O   0  0  0  0  0  0  0  0  0  0  0  0
   -2.6124   -1.9009   -1.1515 S   0  0  0  0  0  6  0  0  0  0  0  0
   -3.6357   -1.9706   -2.1706 O   0  0  0  0  0  0  0  0  0  0  0  0
   -1.2953   -1.1444   -1.8526 N   0  0  0  0  0  0  0  0  0  0  0  0
   -0.1263   -0.7944   -1.0314 C   0  0  0  0  0  0  0  0  0  0  0  0
    1.1335   -0.8035   -1.9003 C   0  0  0  0  0  0  0  0  0  0  0  0
    2.3786   -0.5088   -1.1374 C   0  0  0  0  0  0  0  0  0  0  0  0
    3.6856   -0.7382   -1.5200 C   0  0  0  0  0  0  0  0  0  0  0  0
    4.4622   -0.2963   -0.4800 N   0  0  0  0  0  0  0  0  0  0  0  0
    5.8492   -0.2894   -0.3474 C   0  0  0  0  0  0  0  0  0  0  0  0
    6.3948    0.2004    0.7793 C   0  0  0  0  0  0  0  0  0  0  0  0
    5.5165    0.7052    1.8250 C   0  0  0  0  0  0  0  0  0  0  0  0
    4.1753    0.6972    1.6857 C   0  0  0  0  0  0  0  0  0  0  0  0
    3.5921    0.1858    0.4915 C   0  0  0  0  0  0  0  0  0  0  0  0
    2.3369    0.0803    0.1066 N   0  0  0  0  0  0  0  0  0  0  0  0
   -3.1447   -0.7085    0.0584 C   0  0  0  0  0  0  0  0  0  0  0  0
   -2.7504   -0.8473    1.3926 C   0  0  0  0  0  0  0  0  0  0  0  0
   -3.1937    0.0811    2.3352 C   0  0  0  0  0  0  0  0  0  0  0  0
   -4.0297    1.1245    1.9416 C   0  0  0  0  0  0  0  0  0  0  0  0
   -4.4455    1.9966    2.8683 F   0  0  0  0  0  0  0  0  0  0  0  0
   -4.4418    1.2678    0.6168 C   0  0  0  0  0  0  0  0  0  0  0  0
   -5.3477    2.4055    0.2507 C   0  0  0  0  0  0  0  0  0  0  0  0
   -5.6469    2.4356   -1.0802 F   0  0  0  0  0  0  0  0  0  0  0  0
   -4.8069    3.6236    0.5276 F   0  0  0  0  0  0  0  0  0  0  0  0
   -6.5452    2.3615    0.8942 F   0  0  0  0  0  0  0  0  0  0  0  0
   -3.9962    0.3346   -0.3327 C   0  0  0  0  0  0  0  0  0  0  0  0
   -1.5203   -0.5704   -2.6626 H   0  0  0  0  0  0  0  0  0  0  0  0
   -0.0092   -1.5057   -0.2057 H   0  0  0  0  0  0  0  0  0  0  0  0
   -0.2853    0.2040   -0.6049 H   0  0  0  0  0  0  0  0  0  0  0  0
    1.0300   -0.0647   -2.7052 H   0  0  0  0  0  0  0  0  0  0  0  0
    1.2339   -1.7836   -2.3857 H   0  0  0  0  0  0  0  0  0  0  0  0
    4.1144   -1.1620   -2.4179 H   0  0  0  0  0  0  0  0  0  0  0  0
    6.4339   -0.6820   -1.1693 H   0  0  0  0  0  0  0  0  0  0  0  0
    7.4682    0.2316    0.9326 H   0  0  0  0  0  0  0  0  0  0  0  0
    5.9763    1.0922    2.7296 H   0  0  0  0  0  0  0  0  0  0  0  0
    3.5197    1.0733    2.4617 H   0  0  0  0  0  0  0  0  0  0  0  0
   -2.1048   -1.6679    1.7029 H   0  0  0  0  0  0  0  0  0  0  0  0
   -2.8973   -0.0027    3.3775 H   0  0  0  0  0  0  0  0  0  0  0  0
   -4.3172    0.4179   -1.3714 H   0  0  0  0  0  0  0  0  0  0  0  0
  1  2  2  0
  2  3  2  0
  2  4  1  0
  4  5  1  0
  5  6  1  0
  6  7  1  0
  7  8  2  0
  8  9  1  0
  9 10  1  0
 10 11  2  0
 11 12  1  0
 12 13  2  0
 13 14  1  0
 14 15  2  0
  2 16  1  0
 16 17  2  0
 17 18  1  0
 18 19  2  0
 19 20  1  0
 19 21  1  0
 21 22  1  0
 22 23  1  0
 22 24  1  0
 22 25  1  0
 21 26  2  0
 15  7  1  0
 26 16  1  0
 14  9  1  0
  4 27  1  0
  5 28  1  0
  5 29  1  0
  6 30  1  0
  6 31  1  0
  8 32  1  0
 10 33  1  0
 11 34  1  0
 12 35  1  0
 13 36  1  0
 17 37  1  0
 18 38  1  0
 26 39  1  0
M  END
$$$$
