
     RDKit          3D

 34 37  0  0  0  0  0  0  0  0999 V2000
   -2.5317   -2.6553   -0.7014 C   0  0  0  0  0  0  0  0  0  0  0  0
   -2.5638   -1.3128   -1.1743 O   0  0  0  0  0  0  0  0  0  0  0  0
   -3.3249   -0.4314   -0.4462 C   0  0  0  0  0  0  0  0  0  0  0  0
   -4.3830   -0.8111    0.3866 C   0  0  0  0  0  0  0  0  0  0  0  0
   -5.1216    0.1560    1.0745 C   0  0  0  0  0  0  0  0  0  0  0  0
   -4.8096    1.5045    0.9243 C   0  0  0  0  0  0  0  0  0  0  0  0
   -5.8151    2.8085    1.8529 Br  0  0  0  0  0  0  0  0  0  0  0  0
   -3.7659    1.9008    0.0909 C   0  0  0  0  0  0  0  0  0  0  0  0
   -3.0167    0.9360   -0.5959 C   0  0  0  0  0  0  0  0  0  0  0  0
   -1.9277    1.3949   -1.4688 C   0  0  0  0  0  0  0  0  0  0  0  0
   -0.6203    1.2048   -1.2382 C   0  0  0  0  0  0  0  0  0  0  0  0
    0.6050    1.7384   -2.3901 S   0  0  0  0  0  0  0  0  0  0  0  0
    1.8261    1.0744   -1.3895 C   0  0  0  0  0  0  0  0  0  0  0  0
    3.1225    0.9856   -1.4476 N   0  0  0  0  0  0  0  0  0  0  0  0
    3.4081    0.3282   -0.2606 C   0  0  0  0  0  0  0  0  0  0  0  0
    4.8709   -0.0310    0.1612 C   0  0  0  0  0  0  0  0  0  0  0  0
    5.2409   -0.6808    1.3237 C   0  0  0  0  0  0  0  0  0  0  0  0
    6.6519   -0.7966    1.2955 C   0  0  0  0  0  0  0  0  0  0  0  0
    7.0575   -0.2117    0.1198 C   0  0  0  0  0  0  0  0  0  0  0  0
    5.9882    0.2547   -0.5741 O   0  0  0  0  0  0  0  0  0  0  0  0
    2.3358    0.0239    0.5013 N   0  0  0  0  0  0  0  0  0  0  0  0
    1.3439    0.5178   -0.2622 N   0  0  0  0  0  0  0  0  0  0  0  0
   -0.0165    0.5348   -0.0368 C   0  0  0  0  0  0  0  0  0  0  0  0
   -0.5286    0.0911    0.9736 O   0  0  0  0  0  0  0  0  0  0  0  0
   -3.4716   -3.1686   -0.9271 H   0  0  0  0  0  0  0  0  0  0  0  0
   -2.3022   -2.7006    0.3687 H   0  0  0  0  0  0  0  0  0  0  0  0
   -1.7317   -3.1769   -1.2356 H   0  0  0  0  0  0  0  0  0  0  0  0
   -4.6633   -1.8516    0.5133 H   0  0  0  0  0  0  0  0  0  0  0  0
   -5.9386   -0.1548    1.7208 H   0  0  0  0  0  0  0  0  0  0  0  0
   -3.5320    2.9569   -0.0195 H   0  0  0  0  0  0  0  0  0  0  0  0
   -2.2638    1.9008   -2.3714 H   0  0  0  0  0  0  0  0  0  0  0  0
    4.5648   -1.0256    2.0943 H   0  0  0  0  0  0  0  0  0  0  0  0
    7.2929   -1.2492    2.0389 H   0  0  0  0  0  0  0  0  0  0  0  0
    8.0202   -0.0539   -0.3465 H   0  0  0  0  0  0  0  0  0  0  0  0
  1  2  1  0
  2  3  1  0
  3  4  2  0
  4  5  1  0
  5  6  2  0
  6  7  1  0
  6  8  1  0
  8  9  2  0
  9 10  1  0
 10 11  2  3
 11 12  1  0
 12 13  1  0
 13 14  2  0
 14 15  1  0
 15 16  1  0
 16 17  2  0
 17 18  1  0
 18 19  2  0
 19 20  1  0
 15 21  2  0
 21 22  1  0
 22 23  1  0
 23 24  2  0
  9  3  1  0
 23 11  1  0
 22 13  1  0
 20 16  1  0
  1 25  1  0
  1 26  1  0
  1 27  1  0
  4 28  1  0
  5 29  1  0
  8 30  1  0
 10 31  1  0
 17 32  1  0
 18 33  1  0
 19 34  1  0
M  END
$$$$
