
     RDKit          3D

 29 30  0  0  0  0  0  0  0  0999 V2000
    4.2920    1.1471    0.1050 C   0  0  0  0  0  0  0  0  0  0  0  0
    4.0228   -0.2911   -0.2928 C   0  0  0  0  0  0  0  0  0  0  0  0
    2.5695   -0.4948   -0.4872 N   0  0  0  0  0  0  0  0  0  0  0  0
    1.7434   -1.1550    0.8426 S   0  0  0  0  0  6  0  0  0  0  0  0
    1.6709   -2.5768    0.5874 O   0  0  0  0  0  0  0  0  0  0  0  0
    2.3019   -0.6222    2.0646 O   0  0  0  0  0  0  0  0  0  0  0  0
    0.1341   -0.4483    0.6264 C   0  0  0  0  0  0  0  0  0  0  0  0
   -0.0536    0.9144    0.9291 C   0  0  0  0  0  0  0  0  0  0  0  0
   -1.3082    1.5010    0.7591 C   0  0  0  0  0  0  0  0  0  0  0  0
   -2.3438    0.6978    0.3119 C   0  0  0  0  0  0  0  0  0  0  0  0
   -2.1597   -0.6601    0.0401 C   0  0  0  0  0  0  0  0  0  0  0  0
   -0.9188   -1.2498    0.1729 C   0  0  0  0  0  0  0  0  0  0  0  0
   -3.3220   -1.2825   -0.4755 N   0  0  0  0  0  0  0  0  0  0  0  0
   -4.3880   -0.3298   -0.1150 C   0  0  0  0  0  0  0  0  0  0  0  0
   -3.7535    1.0687    0.0011 C   0  0  0  0  0  0  0  0  0  0  0  0
    3.9082    1.8404   -0.6511 H   0  0  0  0  0  0  0  0  0  0  0  0
    3.8139    1.3973    1.0569 H   0  0  0  0  0  0  0  0  0  0  0  0
    5.3679    1.3177    0.2095 H   0  0  0  0  0  0  0  0  0  0  0  0
    4.4319   -0.9932    0.4409 H   0  0  0  0  0  0  0  0  0  0  0  0
    4.5237   -0.5055   -1.2437 H   0  0  0  0  0  0  0  0  0  0  0  0
    2.4005   -1.1232   -1.2768 H   0  0  0  0  0  0  0  0  0  0  0  0
    0.7818    1.5157    1.2825 H   0  0  0  0  0  0  0  0  0  0  0  0
   -1.4615    2.5551    0.9661 H   0  0  0  0  0  0  0  0  0  0  0  0
   -0.7724   -2.2957   -0.0742 H   0  0  0  0  0  0  0  0  0  0  0  0
   -3.4416   -2.2190   -0.0964 H   0  0  0  0  0  0  0  0  0  0  0  0
   -4.8213   -0.6276    0.8492 H   0  0  0  0  0  0  0  0  0  0  0  0
   -5.1912   -0.3448   -0.8587 H   0  0  0  0  0  0  0  0  0  0  0  0
   -4.2258    1.6600    0.7901 H   0  0  0  0  0  0  0  0  0  0  0  0
   -3.8011    1.6039   -0.9529 H   0  0  0  0  0  0  0  0  0  0  0  0
  1  2  1  0
  2  3  1  0
  3  4  1  0
  4  5  2  0
  4  6  2  0
  4  7  1  0
  7  8  2  0
  8  9  1  0
  9 10  2  0
 10 11  1  0
 11 12  2  0
 11 13  1  0
 13 14  1  0
 14 15  1  0
 12  7  1  0
 15 10  1  0
  1 16  1  0
  1 17  1  0
  1 18  1  0
  2 19  1  0
  2 20  1  0
  3 21  1  0
  8 22  1  0
  9 23  1  0
 12 24  1  0
 13 25  1  0
 14 26  1  0
 14 27  1  0
 15 28  1  0
 15 29  1  0
M  END
$$$$
