
     RDKit          3D

 60 63  0  0  0  0  0  0  0  0999 V2000
    8.8696   -1.7215   -0.3041 C   0  0  0  0  0  0  0  0  0  0  0  0
    7.7695   -1.6629   -1.2040 O   0  0  0  0  0  0  0  0  0  0  0  0
    6.7582   -0.7994   -0.8841 C   0  0  0  0  0  0  0  0  0  0  0  0
    5.7214   -0.7420   -1.8185 C   0  0  0  0  0  0  0  0  0  0  0  0
    4.6213    0.0955   -1.6160 C   0  0  0  0  0  0  0  0  0  0  0  0
    4.5463    0.8963   -0.4708 C   0  0  0  0  0  0  0  0  0  0  0  0
    3.3518    1.7796   -0.2196 C   0  0  0  0  0  0  0  0  0  0  0  0
    2.3933    1.1069    0.6232 N   0  0  0  0  0  0  0  0  0  0  0  0
    2.3256    1.3250    1.9862 C   0  0  0  0  0  0  0  0  0  0  0  0
    3.0527    2.1288    2.5659 O   0  0  0  0  0  0  0  0  0  0  0  0
    1.4087    0.3359    2.7304 C   0  0  0  0  0  0  0  0  0  0  0  0
    1.0430    0.8119    4.1332 C   0  0  0  0  0  0  0  0  0  0  0  0
    0.2470   -0.0437    1.9078 N   0  0  0  0  0  0  0  0  0  0  0  0
    0.2719   -1.3519    1.3967 N   0  0  0  0  0  0  0  0  0  0  0  0
   -0.7154   -1.8212    0.6854 C   0  0  0  0  0  0  0  0  0  0  0  0
   -0.6194   -3.2310    0.1759 C   0  0  0  0  0  0  0  0  0  0  0  0
   -1.8530   -0.9789    0.4134 C   0  0  0  0  0  0  0  0  0  0  0  0
   -3.0690   -1.1731   -0.2218 C   0  0  0  0  0  0  0  0  0  0  0  0
   -3.6813   -2.4223   -0.7437 C   0  0  0  0  0  0  0  0  0  0  0  0
   -3.6909    0.0826   -0.2278 N   0  0  0  0  0  0  0  0  0  0  0  0
   -4.8683    0.5394   -0.8992 C   0  0  0  0  0  0  0  0  0  0  0  0
   -5.4292   -0.1409   -1.9849 C   0  0  0  0  0  0  0  0  0  0  0  0
   -6.5817    0.3514   -2.6115 C   0  0  0  0  0  0  0  0  0  0  0  0
   -7.1903    1.5301   -2.1689 C   0  0  0  0  0  0  0  0  0  0  0  0
   -8.4034    2.0692   -2.8676 C   0  0  0  0  0  0  0  0  0  0  0  0
   -6.6097    2.2326   -1.1103 C   0  0  0  0  0  0  0  0  0  0  0  0
   -5.4593    1.7446   -0.4829 C   0  0  0  0  0  0  0  0  0  0  0  0
   -3.0054    0.9646    0.5494 N   0  0  0  0  0  0  0  0  0  0  0  0
   -1.8771    0.3371    0.8834 C   0  0  0  0  0  0  0  0  0  0  0  0
   -0.7822    0.8930    1.6691 C   0  0  0  0  0  0  0  0  0  0  0  0
   -0.7587    2.0529    2.0703 O   0  0  0  0  0  0  0  0  0  0  0  0
    5.5848    0.8301    0.4682 C   0  0  0  0  0  0  0  0  0  0  0  0
    6.6849   -0.0095    0.2625 C   0  0  0  0  0  0  0  0  0  0  0  0
    9.5921   -2.4377   -0.7064 H   0  0  0  0  0  0  0  0  0  0  0  0
    9.3702   -0.7508   -0.2276 H   0  0  0  0  0  0  0  0  0  0  0  0
    8.5560   -2.0838    0.6806 H   0  0  0  0  0  0  0  0  0  0  0  0
    5.7723   -1.3575   -2.7133 H   0  0  0  0  0  0  0  0  0  0  0  0
    3.8283    0.1170   -2.3591 H   0  0  0  0  0  0  0  0  0  0  0  0
    2.8474    2.0165   -1.1629 H   0  0  0  0  0  0  0  0  0  0  0  0
    3.6656    2.7288    0.2286 H   0  0  0  0  0  0  0  0  0  0  0  0
    1.9369    0.2756    0.2661 H   0  0  0  0  0  0  0  0  0  0  0  0
    2.0137   -0.5739    2.8538 H   0  0  0  0  0  0  0  0  0  0  0  0
    0.5814    1.8037    4.1286 H   0  0  0  0  0  0  0  0  0  0  0  0
    0.3495    0.1148    4.6147 H   0  0  0  0  0  0  0  0  0  0  0  0
    1.9400    0.8838    4.7586 H   0  0  0  0  0  0  0  0  0  0  0  0
    0.3990   -3.6116    0.3006 H   0  0  0  0  0  0  0  0  0  0  0  0
   -1.2990   -3.8703    0.7450 H   0  0  0  0  0  0  0  0  0  0  0  0
   -0.8769   -3.2691   -0.8856 H   0  0  0  0  0  0  0  0  0  0  0  0
   -4.7674   -2.4292   -0.6162 H   0  0  0  0  0  0  0  0  0  0  0  0
   -3.3207   -3.2960   -0.1944 H   0  0  0  0  0  0  0  0  0  0  0  0
   -3.4320   -2.5662   -1.7992 H   0  0  0  0  0  0  0  0  0  0  0  0
   -4.9803   -1.0292   -2.4110 H   0  0  0  0  0  0  0  0  0  0  0  0
   -6.9955   -0.1886   -3.4611 H   0  0  0  0  0  0  0  0  0  0  0  0
   -9.0015    2.6906   -2.1933 H   0  0  0  0  0  0  0  0  0  0  0  0
   -9.0465    1.2531   -3.2135 H   0  0  0  0  0  0  0  0  0  0  0  0
   -8.1017    2.6736   -3.7284 H   0  0  0  0  0  0  0  0  0  0  0  0
   -7.0445    3.1678   -0.7632 H   0  0  0  0  0  0  0  0  0  0  0  0
   -5.0389    2.3192    0.3419 H   0  0  0  0  0  0  0  0  0  0  0  0
    5.5361    1.4338    1.3741 H   0  0  0  0  0  0  0  0  0  0  0  0
    7.4608   -0.0236    1.0205 H   0  0  0  0  0  0  0  0  0  0  0  0
  1  2  1  0
  2  3  1  0
  3  4  2  0
  4  5  1  0
  5  6  2  0
  6  7  1  0
  7  8  1  0
  8  9  1  0
  9 10  2  0
  9 11  1  0
 11 12  1  0
 11 13  1  0
 13 14  1  0
 14 15  2  0
 15 16  1  0
 15 17  1  0
 17 18  2  0
 18 19  1  0
 18 20  1  0
 20 21  1  0
 21 22  2  0
 22 23  1  0
 23 24  2  0
 24 25  1  0
 24 26  1  0
 26 27  2  0
 20 28  1  0
 28 29  2  0
 29 30  1  0
 30 31  2  0
  6 32  1  0
 32 33  2  0
 33  3  1  0
 30 13  1  0
 29 17  1  0
 27 21  1  0
  1 34  1  0
  1 35  1  0
  1 36  1  0
  4 37  1  0
  5 38  1  0
  7 39  1  0
  7 40  1  0
  8 41  1  0
 11 42  1  0
 12 43  1  0
 12 44  1  0
 12 45  1  0
 16 46  1  0
 16 47  1  0
 16 48  1  0
 19 49  1  0
 19 50  1  0
 19 51  1  0
 22 52  1  0
 23 53  1  0
 25 54  1  0
 25 55  1  0
 25 56  1  0
 26 57  1  0
 27 58  1  0
 32 59  1  0
 33 60  1  0
M  END
$$$$
