
     RDKit          3D

 57 59  0  0  0  0  0  0  0  0999 V2000
   -8.1729    1.4770    0.5890 C   0  0  0  0  0  0  0  0  0  0  0  0
   -7.8065    0.3370   -0.1771 O   0  0  0  0  0  0  0  0  0  0  0  0
   -6.4755    0.1591   -0.4637 C   0  0  0  0  0  0  0  0  0  0  0  0
   -5.4427    0.9313    0.0840 C   0  0  0  0  0  0  0  0  0  0  0  0
   -4.1139    0.6741   -0.2584 C   0  0  0  0  0  0  0  0  0  0  0  0
   -3.8205   -0.3652   -1.1443 C   0  0  0  0  0  0  0  0  0  0  0  0
   -2.1280   -0.6678   -1.5820 S   0  0  0  0  0  6  0  0  0  0  0  0
   -2.0912   -1.6583   -2.6372 O   0  0  0  0  0  0  0  0  0  0  0  0
   -1.4783    0.6158   -1.7329 O   0  0  0  0  0  0  0  0  0  0  0  0
   -1.5154   -1.3975   -0.1875 N   0  0  0  0  0  0  0  0  0  0  0  0
   -2.0187   -2.7445    0.1526 C   0  0  0  0  0  0  0  0  0  0  0  0
   -0.8096   -3.6335   -0.0318 C   0  0  0  0  0  0  0  0  0  0  0  0
    0.2808   -2.7951    0.3541 O   0  0  0  0  0  0  0  0  0  0  0  0
   -0.0366   -1.4945   -0.1869 C   0  0  0  0  0  0  0  0  0  0  0  0
    0.5867   -0.4187    0.7164 C   0  0  0  0  0  0  0  0  0  0  0  0
    2.0352   -0.5153    0.7780 N   0  0  0  0  0  0  0  0  0  0  0  0
    2.7993    0.4862    1.3314 C   0  0  0  0  0  0  0  0  0  0  0  0
    2.4051    1.5934    1.6694 O   0  0  0  0  0  0  0  0  0  0  0  0
    4.2828    0.0984    1.5320 C   0  0  0  0  0  0  0  0  0  0  0  0
    4.6757   -1.0155    1.2148 O   0  0  0  0  0  0  0  0  0  0  0  0
    5.0409    1.1072    2.0733 N   0  0  0  0  0  0  0  0  0  0  0  0
    6.4694    1.0135    2.2251 C   0  0  0  0  0  0  0  0  0  0  0  0
    7.1720    1.8404    1.1771 C   0  0  0  0  0  0  0  0  0  0  0  0
    7.6409    3.1303    1.4797 C   0  0  0  0  0  0  0  0  0  0  0  0
    8.2754    3.8970    0.4992 C   0  0  0  0  0  0  0  0  0  0  0  0
    8.4346    3.3790   -0.7833 C   0  0  0  0  0  0  0  0  0  0  0  0
    9.0429    4.1172   -1.7222 F   0  0  0  0  0  0  0  0  0  0  0  0
    7.9694    2.1087   -1.1061 C   0  0  0  0  0  0  0  0  0  0  0  0
    7.3356    1.3392   -0.1277 C   0  0  0  0  0  0  0  0  0  0  0  0
   -4.8385   -1.1420   -1.7071 C   0  0  0  0  0  0  0  0  0  0  0  0
   -6.1702   -0.8855   -1.3664 C   0  0  0  0  0  0  0  0  0  0  0  0
   -7.2428   -1.5921   -1.8537 O   0  0  0  0  0  0  0  0  0  0  0  0
   -6.9905   -2.5856   -2.8379 C   0  0  0  0  0  0  0  0  0  0  0  0
   -7.7932    1.4002    1.6114 H   0  0  0  0  0  0  0  0  0  0  0  0
   -9.2657    1.5088    0.6432 H   0  0  0  0  0  0  0  0  0  0  0  0
   -7.8385    2.4051    0.1114 H   0  0  0  0  0  0  0  0  0  0  0  0
   -5.6407    1.7397    0.7824 H   0  0  0  0  0  0  0  0  0  0  0  0
   -3.3174    1.2859    0.1640 H   0  0  0  0  0  0  0  0  0  0  0  0
   -2.3289   -2.7228    1.2038 H   0  0  0  0  0  0  0  0  0  0  0  0
   -2.8693   -3.0811   -0.4447 H   0  0  0  0  0  0  0  0  0  0  0  0
   -0.8394   -4.5286    0.5953 H   0  0  0  0  0  0  0  0  0  0  0  0
   -0.6735   -3.9291   -1.0787 H   0  0  0  0  0  0  0  0  0  0  0  0
    0.3884   -1.4527   -1.1972 H   0  0  0  0  0  0  0  0  0  0  0  0
    0.2244   -0.5312    1.7458 H   0  0  0  0  0  0  0  0  0  0  0  0
    0.3143    0.5876    0.3802 H   0  0  0  0  0  0  0  0  0  0  0  0
    2.4634   -1.4400    0.7612 H   0  0  0  0  0  0  0  0  0  0  0  0
    4.5766    2.0027    2.2046 H   0  0  0  0  0  0  0  0  0  0  0  0
    6.8003   -0.0311    2.1665 H   0  0  0  0  0  0  0  0  0  0  0  0
    6.7157    1.3772    3.2301 H   0  0  0  0  0  0  0  0  0  0  0  0
    7.5152    3.5443    2.4798 H   0  0  0  0  0  0  0  0  0  0  0  0
    8.6443    4.8935    0.7256 H   0  0  0  0  0  0  0  0  0  0  0  0
    8.0992    1.7259   -2.1155 H   0  0  0  0  0  0  0  0  0  0  0  0
    6.9652    0.3466   -0.3847 H   0  0  0  0  0  0  0  0  0  0  0  0
   -4.5742   -1.9354   -2.4001 H   0  0  0  0  0  0  0  0  0  0  0  0
   -6.4046   -3.4116   -2.4201 H   0  0  0  0  0  0  0  0  0  0  0  0
   -7.9549   -2.9884   -3.1602 H   0  0  0  0  0  0  0  0  0  0  0  0
   -6.5016   -2.1593   -3.7199 H   0  0  0  0  0  0  0  0  0  0  0  0
  1  2  1  0
  2  3  1  0
  3  4  2  0
  4  5  1  0
  5  6  2  0
  6  7  1  0
  7  8  2  0
  7  9  2  0
  7 10  1  0
 10 11  1  0
 11 12  1  0
 12 13  1  0
 13 14  1  0
 14 15  1  0
 15 16  1  0
 16 17  1  0
 17 18  2  0
 17 19  1  0
 19 20  2  0
 19 21  1  0
 21 22  1  0
 22 23  1  0
 23 24  2  0
 24 25  1  0
 25 26  2  0
 26 27  1  0
 26 28  1  0
 28 29  2  0
  6 30  1  0
 30 31  2  0
 31 32  1  0
 32 33  1  0
 31  3  1  0
 14 10  1  0
 29 23  1  0
  1 34  1  0
  1 35  1  0
  1 36  1  0
  4 37  1  0
  5 38  1  0
 11 39  1  0
 11 40  1  0
 12 41  1  0
 12 42  1  0
 14 43  1  0
 15 44  1  0
 15 45  1  0
 16 46  1  0
 21 47  1  0
 22 48  1  0
 22 49  1  0
 24 50  1  0
 25 51  1  0
 28 52  1  0
 29 53  1  0
 30 54  1  0
 33 55  1  0
 33 56  1  0
 33 57  1  0
M  END
$$$$
