
     RDKit          3D

 36 35  0  0  0  0  0  0  0  0999 V2000
    1.7802    1.3828   -2.3569 C   0  0  0  0  0  0  0  0  0  0  0  0
    2.9625    0.7900   -1.6032 C   0  0  0  0  0  0  0  0  0  0  0  0
    2.5944    0.1276   -0.3343 N   0  0  0  0  0  0  0  0  0  0  0  0
    2.4593   -1.3417   -0.4173 C   0  0  0  0  0  0  0  0  0  0  0  0
    1.0947   -1.7727   -0.9242 C   0  0  0  0  0  0  0  0  0  0  0  0
    2.3762    0.8701    0.8514 C   0  0  0  0  0  0  0  0  0  0  0  0
    2.5673    2.5471    0.9855 S   0  0  0  0  0  0  0  0  0  0  0  0
    1.9913   -0.0589    2.3190 S   0  0  0  0  0  0  0  0  0  0  0  0
    0.1436    0.6528    2.9057 S   0  0  0  0  0  0  0  0  0  0  0  0
   -1.0230   -0.5279    2.2610 C   0  0  0  0  0  0  0  0  0  0  0  0
   -0.8937   -2.1476    2.7360 S   0  0  0  0  0  0  0  0  0  0  0  0
   -2.0656   -0.0096    1.4528 N   0  0  0  0  0  0  0  0  0  0  0  0
   -3.1400   -0.8775    0.9264 C   0  0  0  0  0  0  0  0  0  0  0  0
   -2.7708   -1.6044   -0.3592 C   0  0  0  0  0  0  0  0  0  0  0  0
   -2.1564    1.4089    1.0508 C   0  0  0  0  0  0  0  0  0  0  0  0
   -1.4296    1.6982   -0.2509 C   0  0  0  0  0  0  0  0  0  0  0  0
    1.0157    0.6320   -2.5716 H   0  0  0  0  0  0  0  0  0  0  0  0
    2.1185    1.7987   -3.3114 H   0  0  0  0  0  0  0  0  0  0  0  0
    1.3018    2.1908   -1.7972 H   0  0  0  0  0  0  0  0  0  0  0  0
    3.7016    1.5734   -1.4040 H   0  0  0  0  0  0  0  0  0  0  0  0
    3.4707    0.0619   -2.2461 H   0  0  0  0  0  0  0  0  0  0  0  0
    3.2439   -1.7289   -1.0785 H   0  0  0  0  0  0  0  0  0  0  0  0
    2.6497   -1.8079    0.5515 H   0  0  0  0  0  0  0  0  0  0  0  0
    0.2937   -1.2834   -0.3660 H   0  0  0  0  0  0  0  0  0  0  0  0
    0.9762   -2.8560   -0.8292 H   0  0  0  0  0  0  0  0  0  0  0  0
    0.9690   -1.5200   -1.9798 H   0  0  0  0  0  0  0  0  0  0  0  0
   -3.4262   -1.6098    1.6888 H   0  0  0  0  0  0  0  0  0  0  0  0
   -4.0357   -0.2691    0.7559 H   0  0  0  0  0  0  0  0  0  0  0  0
   -2.5137   -0.9059   -1.1597 H   0  0  0  0  0  0  0  0  0  0  0  0
   -3.6166   -2.2101   -0.7023 H   0  0  0  0  0  0  0  0  0  0  0  0
   -1.9199   -2.2744   -0.2154 H   0  0  0  0  0  0  0  0  0  0  0  0
   -1.7650    2.0562    1.8397 H   0  0  0  0  0  0  0  0  0  0  0  0
   -3.2128    1.6854    0.9564 H   0  0  0  0  0  0  0  0  0  0  0  0
   -1.3982    2.7762   -0.4369 H   0  0  0  0  0  0  0  0  0  0  0  0
   -1.9369    1.2342   -1.1002 H   0  0  0  0  0  0  0  0  0  0  0  0
   -0.4061    1.3195   -0.2290 H   0  0  0  0  0  0  0  0  0  0  0  0
  1  2  1  0
  2  3  1  0
  3  4  1  0
  4  5  1  0
  3  6  1  0
  6  7  2  0
  6  8  1  0
  8  9  1  0
  9 10  1  0
 10 11  2  0
 10 12  1  0
 12 13  1  0
 13 14  1  0
 12 15  1  0
 15 16  1  0
  1 17  1  0
  1 18  1  0
  1 19  1  0
  2 20  1  0
  2 21  1  0
  4 22  1  0
  4 23  1  0
  5 24  1  0
  5 25  1  0
  5 26  1  0
 13 27  1  0
 13 28  1  0
 14 29  1  0
 14 30  1  0
 14 31  1  0
 15 32  1  0
 15 33  1  0
 16 34  1  0
 16 35  1  0
 16 36  1  0
M  END
$$$$
