
     RDKit          3D

 37 39  0  0  0  0  0  0  0  0999 V2000
   -2.6120    1.1529    0.6941 O   0  0  0  0  0  0  0  0  0  0  0  0
   -3.0017    0.0016    0.5247 C   0  0  0  0  0  0  0  0  0  0  0  0
   -2.1833   -1.1090    0.6585 N   0  0  0  0  0  0  0  0  0  0  0  0
   -0.8055   -0.8467    0.7809 N   0  0  0  0  0  0  0  0  0  0  0  0
   -0.0533   -0.6972   -0.3705 C   0  0  0  0  0  0  0  0  0  0  0  0
   -0.4349   -0.8955   -1.5167 O   0  0  0  0  0  0  0  0  0  0  0  0
    1.3320   -0.3028    0.0057 C   0  0  0  0  0  0  0  0  0  0  0  0
    2.2701   -0.0724   -0.9231 C   0  0  0  0  0  0  0  0  0  0  0  0
    3.6639    0.3096   -0.6710 C   0  0  0  0  0  0  0  0  0  0  0  0
    4.6916   -0.5454   -1.0906 C   0  0  0  0  0  0  0  0  0  0  0  0
    6.0300   -0.2002   -0.8830 C   0  0  0  0  0  0  0  0  0  0  0  0
    6.3410    1.0062   -0.2606 C   0  0  0  0  0  0  0  0  0  0  0  0
    7.6440    1.3591   -0.0493 O   0  0  0  0  0  0  0  0  0  0  0  0
    5.3232    1.8667    0.1509 C   0  0  0  0  0  0  0  0  0  0  0  0
    5.6499    3.0486    0.7556 O   0  0  0  0  0  0  0  0  0  0  0  0
    3.9864    1.5266   -0.0560 C   0  0  0  0  0  0  0  0  0  0  0  0
    1.4947   -0.2374    1.7224 S   0  0  0  0  0  0  0  0  0  0  0  0
   -0.1911   -0.6696    2.0032 C   0  0  0  0  0  0  0  0  0  0  0  0
   -0.8479   -0.8616    3.5246 S   0  0  0  0  0  0  0  0  0  0  0  0
   -4.4046   -0.2715    0.1112 C   0  0  0  0  0  0  0  0  0  0  0  0
   -5.1010    0.7263   -0.5819 C   0  0  0  0  0  0  0  0  0  0  0  0
   -6.4177    0.5077   -0.9897 C   0  0  0  0  0  0  0  0  0  0  0  0
   -7.0454   -0.7029   -0.6985 C   0  0  0  0  0  0  0  0  0  0  0  0
   -6.3624   -1.6940    0.0064 C   0  0  0  0  0  0  0  0  0  0  0  0
   -5.0439   -1.4810    0.4156 C   0  0  0  0  0  0  0  0  0  0  0  0
   -2.4109   -1.9398    0.1213 H   0  0  0  0  0  0  0  0  0  0  0  0
    2.0190   -0.1832   -1.9777 H   0  0  0  0  0  0  0  0  0  0  0  0
    4.4588   -1.4893   -1.5792 H   0  0  0  0  0  0  0  0  0  0  0  0
    6.8101   -0.8794   -1.2120 H   0  0  0  0  0  0  0  0  0  0  0  0
    8.2224    0.6572   -0.3836 H   0  0  0  0  0  0  0  0  0  0  0  0
    4.8377    3.5064    1.0211 H   0  0  0  0  0  0  0  0  0  0  0  0
    3.1959    2.2042    0.2533 H   0  0  0  0  0  0  0  0  0  0  0  0
   -4.6186    1.6755   -0.8082 H   0  0  0  0  0  0  0  0  0  0  0  0
   -6.9540    1.2837   -1.5306 H   0  0  0  0  0  0  0  0  0  0  0  0
   -8.0732   -0.8697   -1.0130 H   0  0  0  0  0  0  0  0  0  0  0  0
   -6.8632   -2.6292    0.2463 H   0  0  0  0  0  0  0  0  0  0  0  0
   -4.5461   -2.2546    0.9936 H   0  0  0  0  0  0  0  0  0  0  0  0
  1  2  2  0
  2  3  1  0
  3  4  1  0
  4  5  1  0
  5  6  2  0
  5  7  1  0
  7  8  2  3
  8  9  1  0
  9 10  2  0
 10 11  1  0
 11 12  2  0
 12 13  1  0
 12 14  1  0
 14 15  1  0
 14 16  2  0
  7 17  1  0
 17 18  1  0
 18 19  2  0
  2 20  1  0
 20 21  2  0
 21 22  1  0
 22 23  2  0
 23 24  1  0
 24 25  2  0
 18  4  1  0
 25 20  1  0
 16  9  1  0
  3 26  1  0
  8 27  1  0
 10 28  1  0
 11 29  1  0
 13 30  1  0
 15 31  1  0
 16 32  1  0
 21 33  1  0
 22 34  1  0
 23 35  1  0
 24 36  1  0
 25 37  1  0
M  END
$$$$
