
     RDKit          3D

 40 42  0  0  0  0  0  0  0  0999 V2000
   -2.7951    4.0889    3.7384 C   0  0  0  0  0  0  0  0  0  0  0  0
   -2.0002    3.4336    2.7570 O   0  0  0  0  0  0  0  0  0  0  0  0
   -2.1471    2.0764    2.6469 C   0  0  0  0  0  0  0  0  0  0  0  0
   -3.0064    1.2829    3.4016 C   0  0  0  0  0  0  0  0  0  0  0  0
   -3.0739   -0.1022    3.2018 C   0  0  0  0  0  0  0  0  0  0  0  0
   -2.2521   -0.6741    2.2186 C   0  0  0  0  0  0  0  0  0  0  0  0
   -1.3791    0.0939    1.4433 C   0  0  0  0  0  0  0  0  0  0  0  0
   -1.3340    1.4875    1.6697 C   0  0  0  0  0  0  0  0  0  0  0  0
   -0.7041   -0.7990    0.5520 C   0  0  0  0  0  0  0  0  0  0  0  0
    0.2769   -0.4356   -0.4242 C   0  0  0  0  0  0  0  0  0  0  0  0
    0.9475   -1.2797   -1.2271 C   0  0  0  0  0  0  0  0  0  0  0  0
    1.9469   -0.8400   -2.2066 C   0  0  0  0  0  0  0  0  0  0  0  0
    3.1281   -1.5653   -2.3479 C   0  0  0  0  0  0  0  0  0  0  0  0
    4.0737   -1.1669   -3.2861 C   0  0  0  0  0  0  0  0  0  0  0  0
    3.8548   -0.0867   -4.0686 N   0  0  0  0  0  4  0  0  0  0  0  0
    4.8669    0.3114   -5.0616 C   0  0  0  0  0  0  0  0  0  0  0  0
    2.7051    0.6168   -3.9676 C   0  0  0  0  0  0  0  0  0  0  0  0
    1.7332    0.2558   -3.0417 C   0  0  0  0  0  0  0  0  0  0  0  0
   -1.1780   -2.0688    0.8044 C   0  0  0  0  0  0  0  0  0  0  0  0
   -2.1081   -1.9825    1.8091 N   0  0  0  0  0  0  0  0  0  0  0  0
   -2.8351   -3.1062    2.3584 C   0  0  0  0  0  0  0  0  0  0  0  0
   -2.5549    3.7302    4.7447 H   0  0  0  0  0  0  0  0  0  0  0  0
   -3.8624    3.9763    3.5210 H   0  0  0  0  0  0  0  0  0  0  0  0
   -2.5588    5.1567    3.7006 H   0  0  0  0  0  0  0  0  0  0  0  0
   -3.6490    1.7092    4.1658 H   0  0  0  0  0  0  0  0  0  0  0  0
   -3.7492   -0.7077    3.7988 H   0  0  0  0  0  0  0  0  0  0  0  0
   -0.6672    2.1168    1.0889 H   0  0  0  0  0  0  0  0  0  0  0  0
    0.4891    0.6292   -0.4918 H   0  0  0  0  0  0  0  0  0  0  0  0
    0.7831   -2.3525   -1.1600 H   0  0  0  0  0  0  0  0  0  0  0  0
    3.3242   -2.4352   -1.7233 H   0  0  0  0  0  0  0  0  0  0  0  0
    5.0071   -1.7068   -3.4189 H   0  0  0  0  0  0  0  0  0  0  0  0
    4.6361   -0.2129   -5.9921 H   0  0  0  0  0  0  0  0  0  0  0  0
    5.8583    0.0349   -4.6937 H   0  0  0  0  0  0  0  0  0  0  0  0
    4.8232    1.3944   -5.2028 H   0  0  0  0  0  0  0  0  0  0  0  0
    2.5696    1.4635   -4.6349 H   0  0  0  0  0  0  0  0  0  0  0  0
    0.8090    0.8285   -2.9864 H   0  0  0  0  0  0  0  0  0  0  0  0
   -0.9408   -3.0257    0.3598 H   0  0  0  0  0  0  0  0  0  0  0  0
   -2.6069   -3.1772    3.4249 H   0  0  0  0  0  0  0  0  0  0  0  0
   -2.5270   -4.0247    1.8525 H   0  0  0  0  0  0  0  0  0  0  0  0
   -3.9033   -2.9372    2.2000 H   0  0  0  0  0  0  0  0  0  0  0  0
  1  2  1  0
  2  3  1  0
  3  4  2  0
  4  5  1  0
  5  6  2  0
  6  7  1  0
  7  8  2  0
  7  9  1  0
  9 10  1  0
 10 11  2  3
 11 12  1  0
 12 13  2  0
 13 14  1  0
 14 15  2  0
 15 16  1  0
 15 17  1  0
 17 18  2  0
  9 19  2  0
 19 20  1  0
 20 21  1  0
  8  3  1  0
 18 12  1  0
 20  6  1  0
  1 22  1  0
  1 23  1  0
  1 24  1  0
  4 25  1  0
  5 26  1  0
  8 27  1  0
 10 28  1  0
 11 29  1  0
 13 30  1  0
 14 31  1  0
 16 32  1  0
 16 33  1  0
 16 34  1  0
 17 35  1  0
 18 36  1  0
 19 37  1  0
 21 38  1  0
 21 39  1  0
 21 40  1  0
M  CHG  1  15   1
M  END
$$$$
