
     RDKit          3D

 47 48  0  0  0  0  0  0  0  0999 V2000
   -3.5504    1.0789    3.9048 C   0  0  0  0  0  0  0  0  0  0  0  0
   -3.7217   -0.2994    3.2799 C   0  0  0  0  0  0  0  0  0  0  0  0
   -3.4241   -0.2861    1.8378 N   0  0  0  0  0  0  0  0  0  0  0  0
   -4.5760   -0.4540    0.9389 C   0  0  0  0  0  0  0  0  0  0  0  0
   -5.2680    0.8730    0.6674 C   0  0  0  0  0  0  0  0  0  0  0  0
   -2.1287   -0.1416    1.3507 C   0  0  0  0  0  0  0  0  0  0  0  0
   -1.0022   -0.3318    2.1646 C   0  0  0  0  0  0  0  0  0  0  0  0
    0.3053   -0.1997    1.6797 C   0  0  0  0  0  0  0  0  0  0  0  0
    0.5404    0.1285    0.3438 C   0  0  0  0  0  0  0  0  0  0  0  0
    1.9430    0.2574   -0.0869 C   0  0  0  0  0  0  0  0  0  0  0  0
    2.4200   -0.3623   -1.1781 C   0  0  0  0  0  0  0  0  0  0  0  0
    3.8095   -0.2401   -1.6228 C   0  0  0  0  0  0  0  0  0  0  0  0
    4.3612    1.0216   -1.8849 C   0  0  0  0  0  0  0  0  0  0  0  0
    5.6685    1.1322   -2.3398 C   0  0  0  0  0  0  0  0  0  0  0  0
    6.4130   -0.0191   -2.5361 C   0  0  0  0  0  0  0  0  0  0  0  0
    5.8379   -1.2557   -2.2729 C   0  0  0  0  0  0  0  0  0  0  0  0
    4.5632   -1.3565   -1.8256 N   0  0  0  0  0  4  0  0  0  0  0  0
    4.0157   -2.6983   -1.5394 C   0  0  0  0  0  0  0  0  0  0  0  0
   -0.5608    0.3611   -0.4962 C   0  0  0  0  0  0  0  0  0  0  0  0
   -0.2790    0.7250   -1.7922 O   0  0  0  0  0  0  0  0  0  0  0  0
   -1.3479    1.2667   -2.5616 C   0  0  0  0  0  0  0  0  0  0  0  0
   -1.8642    0.2087    0.0119 C   0  0  0  0  0  0  0  0  0  0  0  0
   -2.5175    1.4332    3.8409 H   0  0  0  0  0  0  0  0  0  0  0  0
   -4.1861    1.8198    3.4103 H   0  0  0  0  0  0  0  0  0  0  0  0
   -3.8279    1.0480    4.9633 H   0  0  0  0  0  0  0  0  0  0  0  0
   -3.1133   -1.0455    3.8027 H   0  0  0  0  0  0  0  0  0  0  0  0
   -4.7596   -0.6136    3.4472 H   0  0  0  0  0  0  0  0  0  0  0  0
   -5.3001   -1.1438    1.3906 H   0  0  0  0  0  0  0  0  0  0  0  0
   -4.2880   -0.9366   -0.0023 H   0  0  0  0  0  0  0  0  0  0  0  0
   -5.6886    1.2928    1.5865 H   0  0  0  0  0  0  0  0  0  0  0  0
   -4.5793    1.6123    0.2475 H   0  0  0  0  0  0  0  0  0  0  0  0
   -6.0900    0.7313   -0.0412 H   0  0  0  0  0  0  0  0  0  0  0  0
   -1.1105   -0.6054    3.2101 H   0  0  0  0  0  0  0  0  0  0  0  0
    1.1310   -0.3661    2.3679 H   0  0  0  0  0  0  0  0  0  0  0  0
    2.5713    0.8736    0.5530 H   0  0  0  0  0  0  0  0  0  0  0  0
    1.7673   -0.9812   -1.7895 H   0  0  0  0  0  0  0  0  0  0  0  0
    3.7657    1.9231   -1.7455 H   0  0  0  0  0  0  0  0  0  0  0  0
    6.0987    2.1115   -2.5451 H   0  0  0  0  0  0  0  0  0  0  0  0
    7.4383    0.0456   -2.8947 H   0  0  0  0  0  0  0  0  0  0  0  0
    6.3986   -2.1753   -2.4184 H   0  0  0  0  0  0  0  0  0  0  0  0
    4.7982   -3.4532   -1.6518 H   0  0  0  0  0  0  0  0  0  0  0  0
    3.2135   -2.8965   -2.2548 H   0  0  0  0  0  0  0  0  0  0  0  0
    3.6533   -2.7132   -0.5082 H   0  0  0  0  0  0  0  0  0  0  0  0
   -2.0769    0.4907   -2.8159 H   0  0  0  0  0  0  0  0  0  0  0  0
   -0.9252    1.6433   -3.4981 H   0  0  0  0  0  0  0  0  0  0  0  0
   -1.8240    2.1095   -2.0492 H   0  0  0  0  0  0  0  0  0  0  0  0
   -2.7037    0.3869   -0.6481 H   0  0  0  0  0  0  0  0  0  0  0  0
  1  2  1  0
  2  3  1  0
  3  4  1  0
  4  5  1  0
  3  6  1  0
  6  7  2  0
  7  8  1  0
  8  9  2  0
  9 10  1  0
 10 11  2  3
 11 12  1  0
 12 13  2  0
 13 14  1  0
 14 15  2  0
 15 16  1  0
 16 17  2  0
 17 18  1  0
  9 19  1  0
 19 20  1  0
 20 21  1  0
 19 22  2  0
 22  6  1  0
 17 12  1  0
  1 23  1  0
  1 24  1  0
  1 25  1  0
  2 26  1  0
  2 27  1  0
  4 28  1  0
  4 29  1  0
  5 30  1  0
  5 31  1  0
  5 32  1  0
  7 33  1  0
  8 34  1  0
 10 35  1  0
 11 36  1  0
 13 37  1  0
 14 38  1  0
 15 39  1  0
 16 40  1  0
 18 41  1  0
 18 42  1  0
 18 43  1  0
 21 44  1  0
 21 45  1  0
 21 46  1  0
 22 47  1  0
M  CHG  1  17   1
M  END
$$$$
