
     RDKit          3D

 67 72  0  0  0  0  0  0  0  0999 V2000
   -4.9330   -4.1105   -1.4491 C   0  0  0  0  0  0  0  0  0  0  0  0
   -4.0927   -3.3307   -0.4826 C   0  0  0  0  0  0  0  0  0  0  0  0
   -4.1818   -3.5413    0.9074 C   0  0  0  0  0  0  0  0  0  0  0  0
   -5.2734   -4.7105    1.5677 Cl  0  0  0  0  0  0  0  0  0  0  0  0
   -3.3880   -2.8154    1.8179 C   0  0  0  0  0  0  0  0  0  0  0  0
   -2.4796   -1.8569    1.3692 C   0  0  0  0  0  0  0  0  0  0  0  0
   -2.3869   -1.6387    0.0048 C   0  0  0  0  0  0  0  0  0  0  0  0
   -3.1765   -2.3712   -0.8955 C   0  0  0  0  0  0  0  0  0  0  0  0
   -2.8796   -1.9804   -2.2007 N   0  0  0  0  0  0  0  0  0  0  0  0
   -1.8871   -0.9976   -2.2392 C   0  0  0  0  0  0  0  0  0  0  0  0
   -1.4222   -0.5174   -3.2615 O   0  0  0  0  0  0  0  0  0  0  0  0
   -1.5138   -0.6931   -0.7670 C   0  0  1  0  0  0  0  0  0  0  0  0
   -1.8141    0.7074   -0.3600 C   0  0  0  0  0  0  0  0  0  0  0  0
   -0.6202    1.4422   -0.2767 C   0  0  0  0  0  0  0  0  0  0  0  0
   -0.9120    2.7269    0.0902 C   0  0  0  0  0  0  0  0  0  0  0  0
   -0.1066    3.7799    0.2061 O   0  0  0  0  0  0  0  0  0  0  0  0
   -2.3129    2.8063    0.2750 N   0  0  0  0  0  0  0  0  0  0  0  0
   -3.0509    3.9726    0.6832 C   0  0  0  0  0  0  0  0  0  0  0  0
   -2.4304    4.9951    1.4164 C   0  0  0  0  0  0  0  0  0  0  0  0
   -3.1487    6.1278    1.8146 C   0  0  0  0  0  0  0  0  0  0  0  0
   -4.4945    6.2556    1.4852 C   0  0  0  0  0  0  0  0  0  0  0  0
   -5.1235    5.2503    0.7574 C   0  0  0  0  0  0  0  0  0  0  0  0
   -4.4082    4.1158    0.3592 C   0  0  0  0  0  0  0  0  0  0  0  0
   -2.8558    1.5313   -0.0168 C   0  0  0  0  0  0  0  0  0  0  0  0
   -4.1518    1.2533    0.1095 O   0  0  0  0  0  0  0  0  0  0  0  0
    0.5225    0.5929   -0.6751 C   0  0  1  0  0  0  0  0  0  0  0  0
    1.8262    0.6831    0.1087 C   0  0  0  0  0  0  0  0  0  0  0  0
    2.7480   -0.3936   -0.2932 N   0  0  0  0  0  0  0  0  0  0  0  0
    4.1021   -0.1930   -0.0835 C   0  0  0  0  0  0  0  0  0  0  0  0
    4.5810    0.8900    0.2275 O   0  0  0  0  0  0  0  0  0  0  0  0
    4.8216   -1.3293   -0.2661 O   0  0  0  0  0  0  0  0  0  0  0  0
    6.2630   -1.3386   -0.1029 C   0  0  0  0  0  0  0  0  0  0  0  0
    6.6759   -2.7903   -0.3913 C   0  0  0  0  0  0  0  0  0  0  0  0
    6.6647   -0.9940    1.3354 C   0  0  0  0  0  0  0  0  0  0  0  0
    6.9458   -0.4239   -1.1256 C   0  0  0  0  0  0  0  0  0  0  0  0
    2.1742   -1.7482   -0.4112 C   0  0  0  0  0  0  0  0  0  0  0  0
    0.7675   -1.7846   -1.0643 C   0  0  0  0  0  0  0  0  0  0  0  0
   -0.0703   -0.7648   -0.4549 N   0  0  0  0  0  0  0  0  0  0  0  0
   -4.6897   -5.1763   -1.3885 H   0  0  0  0  0  0  0  0  0  0  0  0
   -5.9966   -3.9664   -1.2322 H   0  0  0  0  0  0  0  0  0  0  0  0
   -4.7760   -3.8005   -2.4857 H   0  0  0  0  0  0  0  0  0  0  0  0
   -3.4781   -3.0011    2.8867 H   0  0  0  0  0  0  0  0  0  0  0  0
   -1.8645   -1.2976    2.0691 H   0  0  0  0  0  0  0  0  0  0  0  0
   -3.2863   -2.3559   -3.0446 H   0  0  0  0  0  0  0  0  0  0  0  0
    0.7864    3.5222   -0.0788 H   0  0  0  0  0  0  0  0  0  0  0  0
   -1.3925    4.9261    1.7271 H   0  0  0  0  0  0  0  0  0  0  0  0
   -2.6524    6.9066    2.3878 H   0  0  0  0  0  0  0  0  0  0  0  0
   -5.0513    7.1359    1.7936 H   0  0  0  0  0  0  0  0  0  0  0  0
   -6.1724    5.3476    0.4899 H   0  0  0  0  0  0  0  0  0  0  0  0
   -4.9339    3.3775   -0.2380 H   0  0  0  0  0  0  0  0  0  0  0  0
   -4.2776    0.2988   -0.0281 H   0  0  0  0  0  0  0  0  0  0  0  0
    0.7200    0.7506   -1.7453 H   0  0  0  0  0  0  0  0  0  0  0  0
    1.6565    0.5829    1.1887 H   0  0  0  0  0  0  0  0  0  0  0  0
    2.2980    1.6589   -0.0526 H   0  0  0  0  0  0  0  0  0  0  0  0
    7.7579   -2.9318   -0.2996 H   0  0  0  0  0  0  0  0  0  0  0  0
    6.1768   -3.4817    0.2977 H   0  0  0  0  0  0  0  0  0  0  0  0
    6.3721   -3.0885   -1.4015 H   0  0  0  0  0  0  0  0  0  0  0  0
    7.7335   -1.1661    1.5021 H   0  0  0  0  0  0  0  0  0  0  0  0
    6.4615    0.0534    1.5780 H   0  0  0  0  0  0  0  0  0  0  0  0
    6.0980   -1.5983    2.0527 H   0  0  0  0  0  0  0  0  0  0  0  0
    6.7446    0.6333   -0.9284 H   0  0  0  0  0  0  0  0  0  0  0  0
    8.0331   -0.5571   -1.1158 H   0  0  0  0  0  0  0  0  0  0  0  0
    6.5786   -0.6299   -2.1373 H   0  0  0  0  0  0  0  0  0  0  0  0
    2.8494   -2.3924   -0.9842 H   0  0  0  0  0  0  0  0  0  0  0  0
    2.1195   -2.1521    0.6077 H   0  0  0  0  0  0  0  0  0  0  0  0
    0.8678   -1.6221   -2.1441 H   0  0  0  0  0  0  0  0  0  0  0  0
    0.3401   -2.7825   -0.9163 H   0  0  0  0  0  0  0  0  0  0  0  0
  1  2  1  0
  2  3  2  0
  3  4  1  0
  3  5  1  0
  5  6  2  0
  6  7  1  0
  7  8  2  0
  8  9  1  0
  9 10  1  0
 10 11  2  0
 10 12  1  0
 12 13  1  0
 13 14  1  0
 14 15  2  0
 15 16  1  0
 15 17  1  0
 17 18  1  0
 18 19  2  0
 19 20  1  0
 20 21  2  0
 21 22  1  0
 22 23  2  0
 17 24  1  0
 24 25  1  0
 14 26  1  0
 26 27  1  0
 27 28  1  0
 28 29  1  0
 29 30  2  0
 29 31  1  0
 31 32  1  0
 32 33  1  0
 32 34  1  0
 32 35  1  0
 28 36  1  0
 36 37  1  0
 37 38  1  0
  8  2  1  0
 12 38  1  6
 12  7  1  0
 24 13  2  0
 38 26  1  0
 23 18  1  0
  1 39  1  0
  1 40  1  0
  1 41  1  0
  5 42  1  0
  6 43  1  0
  9 44  1  0
 16 45  1  0
 19 46  1  0
 20 47  1  0
 21 48  1  0
 22 49  1  0
 23 50  1  0
 25 51  1  0
 26 52  1  6
 27 53  1  0
 27 54  1  0
 33 55  1  0
 33 56  1  0
 33 57  1  0
 34 58  1  0
 34 59  1  0
 34 60  1  0
 35 61  1  0
 35 62  1  0
 35 63  1  0
 36 64  1  0
 36 65  1  0
 37 66  1  0
 37 67  1  0
M  END
$$$$
