
     RDKit          3D

 59 62  0  0  0  0  0  0  0  0999 V2000
   -8.4348    3.5446   -0.4589 C   0  0  0  0  0  0  0  0  0  0  0  0
   -7.5492    2.3836   -0.1124 C   0  0  0  0  0  0  0  0  0  0  0  0
   -7.7465    1.1368   -0.7212 C   0  0  0  0  0  0  0  0  0  0  0  0
   -6.9071    0.0622   -0.4203 C   0  0  0  0  0  0  0  0  0  0  0  0
   -5.8474    0.2391    0.4726 C   0  0  0  0  0  0  0  0  0  0  0  0
   -4.9825   -0.9176    0.7988 C   0  0  0  0  0  0  0  0  0  0  0  0
   -5.5292   -1.9600    1.1491 O   0  0  0  0  0  0  0  0  0  0  0  0
   -3.5967   -0.7621    0.7232 N   0  0  0  0  0  0  0  0  0  0  0  0
   -2.7837   -1.9307    1.0747 C   0  0  0  0  0  0  0  0  0  0  0  0
   -1.3488   -1.5471    1.4756 C   0  0  0  0  0  0  0  0  0  0  0  0
   -0.7199   -0.7104    0.4283 N   0  0  0  0  0  0  0  0  0  0  0  0
    0.6570   -0.4573    0.5365 C   0  0  0  0  0  0  0  0  0  0  0  0
    1.3642   -0.0137   -0.5908 C   0  0  0  0  0  0  0  0  0  0  0  0
    2.7404    0.2413   -0.5440 C   0  0  0  0  0  0  0  0  0  0  0  0
    3.4578    0.0531    0.6389 C   0  0  0  0  0  0  0  0  0  0  0  0
    4.8415    0.3161    0.6015 N   0  0  0  0  0  0  0  0  0  0  0  0
    5.7719    0.1005    1.6087 C   0  0  0  0  0  0  0  0  0  0  0  0
    5.5343   -0.3089    2.7415 O   0  0  0  0  0  0  0  0  0  0  0  0
    7.1961    0.4268    1.1799 C   0  0  0  0  0  0  0  0  0  0  0  0
    8.0366   -1.0580    0.5335 S   0  0  0  0  0  0  0  0  0  0  0  0
    7.1925   -1.2350   -1.0232 C   0  0  0  0  0  0  0  0  0  0  0  0
    6.1932   -2.2031   -1.1669 C   0  0  0  0  0  0  0  0  0  0  0  0
    5.4955   -2.3205   -2.3716 C   0  0  0  0  0  0  0  0  0  0  0  0
    5.8076   -1.4786   -3.4363 C   0  0  0  0  0  0  0  0  0  0  0  0
    4.9400   -1.6109   -4.9144 Cl  0  0  0  0  0  0  0  0  0  0  0  0
    6.8154   -0.5236   -3.3087 C   0  0  0  0  0  0  0  0  0  0  0  0
    7.5095   -0.4033   -2.1019 C   0  0  0  0  0  0  0  0  0  0  0  0
    2.7742   -0.3922    1.7659 C   0  0  0  0  0  0  0  0  0  0  0  0
    1.3950   -0.6482    1.7111 C   0  0  0  0  0  0  0  0  0  0  0  0
   -1.5164    0.5034    0.1229 C   0  0  0  0  0  0  0  0  0  0  0  0
   -2.9600    0.1265   -0.2616 C   0  0  0  0  0  0  0  0  0  0  0  0
   -5.6486    1.4757    1.0955 C   0  0  0  0  0  0  0  0  0  0  0  0
   -6.4908    2.5475    0.7924 C   0  0  0  0  0  0  0  0  0  0  0  0
   -9.4395    3.2039   -0.7307 H   0  0  0  0  0  0  0  0  0  0  0  0
   -8.5418    4.2213    0.3956 H   0  0  0  0  0  0  0  0  0  0  0  0
   -8.0099    4.1002   -1.3001 H   0  0  0  0  0  0  0  0  0  0  0  0
   -8.5627    0.9914   -1.4259 H   0  0  0  0  0  0  0  0  0  0  0  0
   -7.0795   -0.9098   -0.8769 H   0  0  0  0  0  0  0  0  0  0  0  0
   -2.7699   -2.5912    0.1990 H   0  0  0  0  0  0  0  0  0  0  0  0
   -3.2557   -2.4802    1.8966 H   0  0  0  0  0  0  0  0  0  0  0  0
   -0.7759   -2.4697    1.6255 H   0  0  0  0  0  0  0  0  0  0  0  0
   -1.3819   -0.9972    2.4244 H   0  0  0  0  0  0  0  0  0  0  0  0
    0.8455    0.1089   -1.5388 H   0  0  0  0  0  0  0  0  0  0  0  0
    3.2344    0.5709   -1.4538 H   0  0  0  0  0  0  0  0  0  0  0  0
    5.2040    0.6018   -0.2995 H   0  0  0  0  0  0  0  0  0  0  0  0
    7.7417    0.7862    2.0594 H   0  0  0  0  0  0  0  0  0  0  0  0
    7.2092    1.2355    0.4422 H   0  0  0  0  0  0  0  0  0  0  0  0
    5.9380   -2.8617   -0.3387 H   0  0  0  0  0  0  0  0  0  0  0  0
    4.7115   -3.0680   -2.4683 H   0  0  0  0  0  0  0  0  0  0  0  0
    7.0689    0.1237   -4.1446 H   0  0  0  0  0  0  0  0  0  0  0  0
    8.3022    0.3369   -2.0161 H   0  0  0  0  0  0  0  0  0  0  0  0
    3.2780   -0.5559    2.7134 H   0  0  0  0  0  0  0  0  0  0  0  0
    0.9187   -0.9892    2.6253 H   0  0  0  0  0  0  0  0  0  0  0  0
   -1.5331    1.1572    1.0047 H   0  0  0  0  0  0  0  0  0  0  0  0
   -1.0873    1.0747   -0.7078 H   0  0  0  0  0  0  0  0  0  0  0  0
   -2.9606   -0.4149   -1.2161 H   0  0  0  0  0  0  0  0  0  0  0  0
   -3.5417    1.0367   -0.4169 H   0  0  0  0  0  0  0  0  0  0  0  0
   -4.8487    1.6039    1.8198 H   0  0  0  0  0  0  0  0  0  0  0  0
   -6.3251    3.5085    1.2746 H   0  0  0  0  0  0  0  0  0  0  0  0
  1  2  1  0
  2  3  2  0
  3  4  1  0
  4  5  2  0
  5  6  1  0
  6  7  2  0
  6  8  1  0
  8  9  1  0
  9 10  1  0
 10 11  1  0
 11 12  1  0
 12 13  2  0
 13 14  1  0
 14 15  2  0
 15 16  1  0
 16 17  1  0
 17 18  2  0
 17 19  1  0
 19 20  1  0
 20 21  1  0
 21 22  2  0
 22 23  1  0
 23 24  2  0
 24 25  1  0
 24 26  1  0
 26 27  2  0
 15 28  1  0
 28 29  2  0
 11 30  1  0
 30 31  1  0
  5 32  1  0
 32 33  2  0
 33  2  1  0
 31  8  1  0
 29 12  1  0
 27 21  1  0
  1 34  1  0
  1 35  1  0
  1 36  1  0
  3 37  1  0
  4 38  1  0
  9 39  1  0
  9 40  1  0
 10 41  1  0
 10 42  1  0
 13 43  1  0
 14 44  1  0
 16 45  1  0
 19 46  1  0
 19 47  1  0
 22 48  1  0
 23 49  1  0
 26 50  1  0
 27 51  1  0
 28 52  1  0
 29 53  1  0
 30 54  1  0
 30 55  1  0
 31 56  1  0
 31 57  1  0
 32 58  1  0
 33 59  1  0
M  END
$$$$
