
     RDKit          3D

 36 37  0  0  0  0  0  0  0  0999 V2000
   -0.7871   -2.4840    1.5869 O   0  0  0  0  0  0  0  0  0  0  0  0
   -0.5824   -1.3265    1.9402 C   0  0  0  0  0  0  0  0  0  0  0  0
    0.6023   -0.9393    2.8281 C   0  0  0  0  0  0  0  0  0  0  0  0
    1.7464   -0.5104    2.0878 O   0  0  0  0  0  0  0  0  0  0  0  0
    1.6734    0.7456    1.5876 C   0  0  0  0  0  0  0  0  0  0  0  0
    0.7249    1.5049    1.7130 O   0  0  0  0  0  0  0  0  0  0  0  0
    2.9186    1.0985    0.8572 C   0  0  0  0  0  0  0  0  0  0  0  0
    3.0574    2.4128    0.3880 C   0  0  0  0  0  0  0  0  0  0  0  0
    4.2120    2.7847   -0.2988 C   0  0  0  0  0  0  0  0  0  0  0  0
    4.3787    4.3973   -0.8749 Cl  0  0  0  0  0  0  0  0  0  0  0  0
    5.2327    1.8636   -0.5234 C   0  0  0  0  0  0  0  0  0  0  0  0
    5.0887    0.5577   -0.0608 C   0  0  0  0  0  0  0  0  0  0  0  0
    6.3445   -0.5867   -0.3369 Cl  0  0  0  0  0  0  0  0  0  0  0  0
    3.9399    0.1669    0.6269 C   0  0  0  0  0  0  0  0  0  0  0  0
   -1.3862   -0.2688    1.5741 N   0  0  0  0  0  0  0  0  0  0  0  0
   -2.4842   -0.4333    0.6393 C   0  0  0  0  0  0  0  0  0  0  0  0
   -2.0159   -0.4711   -0.8193 C   0  0  0  0  0  0  0  0  0  0  0  0
   -3.1290   -0.5119   -1.7505 N   0  0  0  0  0  0  0  0  0  0  0  0
   -3.6908   -1.6761   -2.2148 C   0  0  0  0  0  0  0  0  0  0  0  0
   -3.1489   -2.8667   -1.8365 O   0  0  0  0  0  0  0  0  0  0  0  0
   -4.7524   -1.5003   -3.0104 C   0  0  0  0  0  0  0  0  0  0  0  0
   -5.1168    0.1883   -3.2117 S   0  0  0  0  0  0  0  0  0  0  0  0
   -3.7751    0.6486   -2.1457 C   0  0  0  0  0  0  0  0  0  0  0  0
   -3.5217    1.8000   -1.8299 O   0  0  0  0  0  0  0  0  0  0  0  0
    0.8924   -1.8248    3.4051 H   0  0  0  0  0  0  0  0  0  0  0  0
    0.3002   -0.1813    3.5613 H   0  0  0  0  0  0  0  0  0  0  0  0
    2.2691    3.1432    0.5589 H   0  0  0  0  0  0  0  0  0  0  0  0
    6.1310    2.1603   -1.0578 H   0  0  0  0  0  0  0  0  0  0  0  0
    3.8500   -0.8607    0.9751 H   0  0  0  0  0  0  0  0  0  0  0  0
   -0.9948    0.6687    1.6855 H   0  0  0  0  0  0  0  0  0  0  0  0
   -3.0245   -1.3552    0.8852 H   0  0  0  0  0  0  0  0  0  0  0  0
   -3.1684    0.4068    0.8036 H   0  0  0  0  0  0  0  0  0  0  0  0
   -1.4318    0.4350   -1.0272 H   0  0  0  0  0  0  0  0  0  0  0  0
   -1.3440   -1.3185   -1.0016 H   0  0  0  0  0  0  0  0  0  0  0  0
   -3.6719   -3.5879   -2.2252 H   0  0  0  0  0  0  0  0  0  0  0  0
   -5.3363   -2.2794   -3.4782 H   0  0  0  0  0  0  0  0  0  0  0  0
  1  2  2  0
  2  3  1  0
  3  4  1  0
  4  5  1  0
  5  6  2  0
  5  7  1  0
  7  8  2  0
  8  9  1  0
  9 10  1  0
  9 11  2  0
 11 12  1  0
 12 13  1  0
 12 14  2  0
  2 15  1  0
 15 16  1  0
 16 17  1  0
 17 18  1  0
 18 19  1  0
 19 20  1  0
 19 21  2  0
 21 22  1  0
 22 23  1  0
 23 24  2  0
 14  7  1  0
 23 18  1  0
  3 25  1  0
  3 26  1  0
  8 27  1  0
 11 28  1  0
 14 29  1  0
 15 30  1  0
 16 31  1  0
 16 32  1  0
 17 33  1  0
 17 34  1  0
 20 35  1  0
 21 36  1  0
M  END
$$$$
