
     RDKit          3D

 53 55  0  0  0  0  0  0  0  0999 V2000
    8.2538   -1.6776    4.6007 C   0  0  0  0  0  0  0  0  0  0  0  0
    8.0056   -2.1066    3.2680 O   0  0  0  0  0  0  0  0  0  0  0  0
    7.1624   -1.3340    2.5181 C   0  0  0  0  0  0  0  0  0  0  0  0
    6.9608   -1.7871    1.2120 C   0  0  0  0  0  0  0  0  0  0  0  0
    6.1246   -1.0913    0.3343 C   0  0  0  0  0  0  0  0  0  0  0  0
    5.4803    0.0784    0.7521 C   0  0  0  0  0  0  0  0  0  0  0  0
    4.5642    0.8294   -0.1744 C   0  0  0  0  0  0  0  0  0  0  0  0
    3.1870    0.5323    0.1153 N   0  0  0  0  0  0  0  0  0  0  0  0
    2.1671    1.3325   -0.3325 C   0  0  0  0  0  0  0  0  0  0  0  0
    2.2894    2.4095   -0.8980 O   0  0  0  0  0  0  0  0  0  0  0  0
    0.7594    0.7572   -0.0592 C   0  0  0  0  0  0  0  0  0  0  0  0
    0.6234   -0.4079    0.2826 O   0  0  0  0  0  0  0  0  0  0  0  0
   -0.2536    1.6663   -0.2528 N   0  0  0  0  0  0  0  0  0  0  0  0
   -1.6526    1.2742   -0.2134 C   0  0  0  0  0  0  0  0  0  0  0  0
   -2.1011    0.4836   -1.4716 C   0  0  0  0  0  0  0  0  0  0  0  0
   -1.7355    1.2345   -2.6515 O   0  0  0  0  0  0  0  0  0  0  0  0
   -2.8481    2.0849   -2.9365 C   0  0  0  0  0  0  0  0  0  0  0  0
   -4.0638    1.2610   -2.5727 C   0  0  0  0  0  0  0  0  0  0  0  0
   -3.5555    0.2757   -1.6059 N   0  0  0  0  0  0  0  0  0  0  0  0
   -4.4448   -0.0489   -0.2263 S   0  0  0  0  0  6  0  0  0  0  0  0
   -4.7107    1.2208    0.4171 O   0  0  0  0  0  0  0  0  0  0  0  0
   -3.7987   -1.1287    0.4840 O   0  0  0  0  0  0  0  0  0  0  0  0
   -5.9663   -0.6756   -0.8876 C   0  0  0  0  0  0  0  0  0  0  0  0
   -7.1579    0.0294   -0.7011 C   0  0  0  0  0  0  0  0  0  0  0  0
   -8.3433   -0.4794   -1.2321 C   0  0  0  0  0  0  0  0  0  0  0  0
   -8.3332   -1.6818   -1.9411 C   0  0  0  0  0  0  0  0  0  0  0  0
   -7.1405   -2.3865   -2.1154 C   0  0  0  0  0  0  0  0  0  0  0  0
   -5.9518   -1.8870   -1.5849 C   0  0  0  0  0  0  0  0  0  0  0  0
    5.6760    0.5243    2.0669 C   0  0  0  0  0  0  0  0  0  0  0  0
    6.5130   -0.1757    2.9437 C   0  0  0  0  0  0  0  0  0  0  0  0
    8.7291   -0.6912    4.6166 H   0  0  0  0  0  0  0  0  0  0  0  0
    8.9493   -2.3888    5.0566 H   0  0  0  0  0  0  0  0  0  0  0  0
    7.3344   -1.6841    5.1950 H   0  0  0  0  0  0  0  0  0  0  0  0
    7.4595   -2.6931    0.8752 H   0  0  0  0  0  0  0  0  0  0  0  0
    5.9836   -1.4720   -0.6752 H   0  0  0  0  0  0  0  0  0  0  0  0
    4.7537    0.5573   -1.2198 H   0  0  0  0  0  0  0  0  0  0  0  0
    4.7369    1.9094   -0.0919 H   0  0  0  0  0  0  0  0  0  0  0  0
    2.9296   -0.3903    0.4579 H   0  0  0  0  0  0  0  0  0  0  0  0
    0.0121    2.5315   -0.7168 H   0  0  0  0  0  0  0  0  0  0  0  0
   -2.2181    2.2060   -0.1150 H   0  0  0  0  0  0  0  0  0  0  0  0
   -1.8090    0.6793    0.6921 H   0  0  0  0  0  0  0  0  0  0  0  0
   -1.5809   -0.4772   -1.5276 H   0  0  0  0  0  0  0  0  0  0  0  0
   -2.7732    2.9877   -2.3211 H   0  0  0  0  0  0  0  0  0  0  0  0
   -2.8375    2.3806   -3.9893 H   0  0  0  0  0  0  0  0  0  0  0  0
   -4.4378    0.7199   -3.4494 H   0  0  0  0  0  0  0  0  0  0  0  0
   -4.8678    1.8932   -2.1896 H   0  0  0  0  0  0  0  0  0  0  0  0
   -7.1754    0.9594   -0.1387 H   0  0  0  0  0  0  0  0  0  0  0  0
   -9.2779    0.0566   -1.0873 H   0  0  0  0  0  0  0  0  0  0  0  0
   -9.2600   -2.0769   -2.3508 H   0  0  0  0  0  0  0  0  0  0  0  0
   -7.1405   -3.3277   -2.6593 H   0  0  0  0  0  0  0  0  0  0  0  0
   -5.0235   -2.4402   -1.7131 H   0  0  0  0  0  0  0  0  0  0  0  0
    5.1719    1.4233    2.4176 H   0  0  0  0  0  0  0  0  0  0  0  0
    6.6317    0.2112    3.9503 H   0  0  0  0  0  0  0  0  0  0  0  0
  1  2  1  0
  2  3  1  0
  3  4  2  0
  4  5  1  0
  5  6  2  0
  6  7  1  0
  7  8  1  0
  8  9  1  0
  9 10  2  0
  9 11  1  0
 11 12  2  0
 11 13  1  0
 13 14  1  0
 14 15  1  0
 15 16  1  0
 16 17  1  0
 17 18  1  0
 18 19  1  0
 19 20  1  0
 20 21  2  0
 20 22  2  0
 20 23  1  0
 23 24  2  0
 24 25  1  0
 25 26  2  0
 26 27  1  0
 27 28  2  0
  6 29  1  0
 29 30  2  0
 30  3  1  0
 19 15  1  0
 28 23  1  0
  1 31  1  0
  1 32  1  0
  1 33  1  0
  4 34  1  0
  5 35  1  0
  7 36  1  0
  7 37  1  0
  8 38  1  0
 13 39  1  0
 14 40  1  0
 14 41  1  0
 15 42  1  0
 17 43  1  0
 17 44  1  0
 18 45  1  0
 18 46  1  0
 24 47  1  0
 25 48  1  0
 26 49  1  0
 27 50  1  0
 28 51  1  0
 29 52  1  0
 30 53  1  0
M  END
$$$$
