
     RDKit          3D

 52 57  0  0  0  0  0  0  0  0999 V2000
    4.9550   -2.4795   -0.7593 C   0  0  0  0  0  0  0  0  0  0  0  0
    3.9311   -1.8181    0.1130 C   0  0  0  0  0  0  0  0  0  0  0  0
    3.8786   -2.0576    1.5000 C   0  0  0  0  0  0  0  0  0  0  0  0
    4.9976   -3.1340    2.2661 Cl  0  0  0  0  0  0  0  0  0  0  0  0
    2.9230   -1.4305    2.3246 C   0  0  0  0  0  0  0  0  0  0  0  0
    1.9874   -0.5462    1.7885 C   0  0  0  0  0  0  0  0  0  0  0  0
    2.0250   -0.3086    0.4243 C   0  0  0  0  0  0  0  0  0  0  0  0
    2.9875   -0.9289   -0.3872 C   0  0  0  0  0  0  0  0  0  0  0  0
    2.8350   -0.4991   -1.7058 N   0  0  0  0  0  0  0  0  0  0  0  0
    1.7792    0.4067   -1.8391 C   0  0  0  0  0  0  0  0  0  0  0  0
    1.4552    0.9469   -2.8869 O   0  0  0  0  0  0  0  0  0  0  0  0
    1.1687    0.5819   -0.4274 C   0  0  1  0  0  0  0  0  0  0  0  0
   -0.2492    0.1457   -0.3499 C   0  0  0  0  0  0  0  0  0  0  0  0
   -1.0906    1.2625   -0.2267 C   0  0  0  0  0  0  0  0  0  0  0  0
   -2.3888    0.8427   -0.1760 C   0  0  0  0  0  0  0  0  0  0  0  0
   -3.4926    1.5881   -0.1706 O   0  0  0  0  0  0  0  0  0  0  0  0
   -2.3628   -0.5651   -0.2255 N   0  0  0  0  0  0  0  0  0  0  0  0
   -3.5036   -1.4188   -0.1811 C   0  0  0  0  0  0  0  0  0  0  0  0
   -3.5658   -2.5526   -1.0020 C   0  0  0  0  0  0  0  0  0  0  0  0
   -4.6862   -3.3839   -0.9555 C   0  0  0  0  0  0  0  0  0  0  0  0
   -5.7409   -3.0897   -0.0922 C   0  0  0  0  0  0  0  0  0  0  0  0
   -5.6813   -1.9623    0.7262 C   0  0  0  0  0  0  0  0  0  0  0  0
   -4.5663   -1.1237    0.6834 C   0  0  0  0  0  0  0  0  0  0  0  0
   -1.0214   -0.9852   -0.3360 C   0  0  0  0  0  0  0  0  0  0  0  0
   -0.6203   -2.2557   -0.3479 O   0  0  0  0  0  0  0  0  0  0  0  0
   -0.3033    2.5093   -0.2852 C   0  0  1  0  0  0  0  0  0  0  0  0
   -0.6482    3.6469    0.6945 C   0  0  0  0  0  0  0  0  0  0  0  0
    0.5472    4.3814    1.2145 N   0  0  0  0  0  0  0  0  0  0  0  0
    1.6234    4.3845    0.1923 C   0  0  0  0  0  0  0  0  0  0  0  0
    2.0888    2.9579   -0.2413 C   0  0  0  0  0  0  0  0  0  0  0  0
    1.0538    1.9797    0.0467 N   0  0  0  0  0  0  0  0  0  0  0  0
    5.9620   -2.1643   -0.4672 H   0  0  0  0  0  0  0  0  0  0  0  0
    4.8300   -2.2290   -1.8162 H   0  0  0  0  0  0  0  0  0  0  0  0
    4.8771   -3.5689   -0.6805 H   0  0  0  0  0  0  0  0  0  0  0  0
    2.9091   -1.6337    3.3932 H   0  0  0  0  0  0  0  0  0  0  0  0
    1.2491   -0.0596    2.4187 H   0  0  0  0  0  0  0  0  0  0  0  0
    3.3919   -0.7867   -2.4950 H   0  0  0  0  0  0  0  0  0  0  0  0
   -4.2355    1.0570   -0.5095 H   0  0  0  0  0  0  0  0  0  0  0  0
   -2.7772   -2.7796   -1.7175 H   0  0  0  0  0  0  0  0  0  0  0  0
   -4.7422   -4.2569   -1.6018 H   0  0  0  0  0  0  0  0  0  0  0  0
   -6.6119   -3.7401   -0.0579 H   0  0  0  0  0  0  0  0  0  0  0  0
   -6.5014   -1.7421    1.4059 H   0  0  0  0  0  0  0  0  0  0  0  0
   -4.5261   -0.2738    1.3627 H   0  0  0  0  0  0  0  0  0  0  0  0
   -1.3131   -2.8112    0.0518 H   0  0  0  0  0  0  0  0  0  0  0  0
   -0.3101    2.8879   -1.3174 H   0  0  0  0  0  0  0  0  0  0  0  0
   -1.2062    3.2691    1.5598 H   0  0  0  0  0  0  0  0  0  0  0  0
   -1.3043    4.3676    0.1921 H   0  0  0  0  0  0  0  0  0  0  0  0
    0.9017    3.8080    1.9840 H   0  0  0  0  0  0  0  0  0  0  0  0
    1.2671    4.9379   -0.6856 H   0  0  0  0  0  0  0  0  0  0  0  0
    2.4824    4.9388    0.5864 H   0  0  0  0  0  0  0  0  0  0  0  0
    2.3504    2.9909   -1.3044 H   0  0  0  0  0  0  0  0  0  0  0  0
    2.9920    2.6935    0.3199 H   0  0  0  0  0  0  0  0  0  0  0  0
  1  2  1  0
  2  3  2  0
  3  4  1  0
  3  5  1  0
  5  6  2  0
  6  7  1  0
  7  8  2  0
  8  9  1  0
  9 10  1  0
 10 11  2  0
 10 12  1  0
 12 13  1  0
 13 14  1  0
 14 15  2  0
 15 16  1  0
 15 17  1  0
 17 18  1  0
 18 19  2  0
 19 20  1  0
 20 21  2  0
 21 22  1  0
 22 23  2  0
 17 24  1  0
 24 25  1  0
 14 26  1  0
 26 27  1  0
 27 28  1  0
 28 29  1  0
 29 30  1  0
 30 31  1  0
  8  2  1  0
 12 31  1  1
 12  7  1  0
 24 13  2  0
 31 26  1  0
 23 18  1  0
  1 32  1  0
  1 33  1  0
  1 34  1  0
  5 35  1  0
  6 36  1  0
  9 37  1  0
 16 38  1  0
 19 39  1  0
 20 40  1  0
 21 41  1  0
 22 42  1  0
 23 43  1  0
 25 44  1  0
 26 45  1  6
 27 46  1  0
 27 47  1  0
 28 48  1  0
 29 49  1  0
 29 50  1  0
 30 51  1  0
 30 52  1  0
M  END
$$$$
