
     RDKit          3D

 42 45  0  0  0  0  0  0  0  0999 V2000
    2.6236   -2.0825    2.0196 O   0  0  0  0  0  0  0  0  0  0  0  0
    2.7475   -1.1855    1.1892 C   0  0  0  0  0  0  0  0  0  0  0  0
    4.0629   -0.5169    1.0940 C   0  0  0  0  0  0  0  0  0  0  0  0
    4.1778    0.8704    1.2508 C   0  0  0  0  0  0  0  0  0  0  0  0
    5.4336    1.4765    1.1768 C   0  0  0  0  0  0  0  0  0  0  0  0
    6.5682    0.6925    0.9634 C   0  0  0  0  0  0  0  0  0  0  0  0
    6.4414   -0.6884    0.8366 C   0  0  0  0  0  0  0  0  0  0  0  0
    7.5376   -1.4332    0.6448 F   0  0  0  0  0  0  0  0  0  0  0  0
    5.1996   -1.3049    0.9058 C   0  0  0  0  0  0  0  0  0  0  0  0
    1.7179   -0.7756    0.3444 N   0  0  0  0  0  0  0  0  0  0  0  0
    0.4107   -1.4184    0.4942 C   0  0  0  0  0  0  0  0  0  0  0  0
   -0.7380   -0.5428   -0.0236 C   0  0  0  0  0  0  0  0  0  0  0  0
   -0.5231   -0.0618   -1.3953 N   0  0  0  0  0  0  0  0  0  0  0  0
   -1.5558    0.2255   -2.2945 C   0  0  0  0  0  0  0  0  0  0  0  0
   -1.3373    0.3550   -3.4982 O   0  0  0  0  0  0  0  0  0  0  0  0
   -2.9114    0.3958   -1.7427 C   0  0  0  0  0  0  0  0  0  0  0  0
   -3.3088    1.2438   -0.6797 C   0  0  0  0  0  0  0  0  0  0  0  0
   -4.6656    1.0737   -0.5526 C   0  0  0  0  0  0  0  0  0  0  0  0
   -5.5762    1.6289    0.3027 N   0  0  0  0  0  0  0  0  0  0  0  0
   -6.8110    1.2537    0.1283 C   0  0  0  0  0  0  0  0  0  0  0  0
   -7.3031    0.2870   -0.9008 C   0  0  0  0  0  0  0  0  0  0  0  0
   -9.1033   -0.1200   -0.9884 Br  0  0  0  0  0  0  0  0  0  0  0  0
   -6.3576   -0.2224   -1.6994 C   0  0  0  0  0  0  0  0  0  0  0  0
   -5.0315    0.1584   -1.5415 N   0  0  0  0  0  0  0  0  0  0  0  0
   -3.9651   -0.2636   -2.2548 N   0  0  0  0  0  0  0  0  0  0  0  0
    0.8380   -0.1656   -1.9224 C   0  0  0  0  0  0  0  0  0  0  0  0
    1.9031    0.0712   -0.8441 C   0  0  0  0  0  0  0  0  0  0  0  0
    3.2968    1.4781    1.4472 H   0  0  0  0  0  0  0  0  0  0  0  0
    5.5301    2.5535    1.2965 H   0  0  0  0  0  0  0  0  0  0  0  0
    7.5530    1.1467    0.9080 H   0  0  0  0  0  0  0  0  0  0  0  0
    5.1245   -2.3843    0.8177 H   0  0  0  0  0  0  0  0  0  0  0  0
    0.4524   -2.3571   -0.0719 H   0  0  0  0  0  0  0  0  0  0  0  0
    0.2379   -1.6749    1.5448 H   0  0  0  0  0  0  0  0  0  0  0  0
   -0.8242    0.3475    0.6087 H   0  0  0  0  0  0  0  0  0  0  0  0
   -1.6773   -1.1014    0.0352 H   0  0  0  0  0  0  0  0  0  0  0  0
   -2.6916    1.9060   -0.0905 H   0  0  0  0  0  0  0  0  0  0  0  0
   -7.5820    1.6768    0.7939 H   0  0  0  0  0  0  0  0  0  0  0  0
   -6.5528   -0.9333   -2.4905 H   0  0  0  0  0  0  0  0  0  0  0  0
    0.9772    0.5474   -2.7425 H   0  0  0  0  0  0  0  0  0  0  0  0
    0.9420   -1.1745   -2.3403 H   0  0  0  0  0  0  0  0  0  0  0  0
    1.8401    1.1103   -0.5002 H   0  0  0  0  0  0  0  0  0  0  0  0
    2.8996   -0.0916   -1.2677 H   0  0  0  0  0  0  0  0  0  0  0  0
  1  2  2  0
  2  3  1  0
  3  4  2  0
  4  5  1  0
  5  6  2  0
  6  7  1  0
  7  8  1  0
  7  9  2  0
  2 10  1  0
 10 11  1  0
 11 12  1  0
 12 13  1  0
 13 14  1  0
 14 15  2  0
 14 16  1  0
 16 17  1  0
 17 18  2  0
 18 19  1  0
 19 20  2  0
 20 21  1  0
 21 22  1  0
 21 23  2  0
 23 24  1  0
 24 25  1  0
 13 26  1  0
 26 27  1  0
  9  3  1  0
 27 10  1  0
 25 16  2  0
 24 18  1  0
  4 28  1  0
  5 29  1  0
  6 30  1  0
  9 31  1  0
 11 32  1  0
 11 33  1  0
 12 34  1  0
 12 35  1  0
 17 36  1  0
 20 37  1  0
 23 38  1  0
 26 39  1  0
 26 40  1  0
 27 41  1  0
 27 42  1  0
M  END
$$$$
