
     RDKit          3D

 61 66  0  0  0  0  0  0  0  0999 V2000
   10.0450   -1.1734    1.5625 F   0  0  0  0  0  0  0  0  0  0  0  0
    8.7423   -0.9565    1.3396 C   0  0  0  0  0  0  0  0  0  0  0  0
    8.3574   -0.0081    0.3997 C   0  0  0  0  0  0  0  0  0  0  0  0
    7.0005    0.2191    0.1663 C   0  0  0  0  0  0  0  0  0  0  0  0
    6.0294   -0.5079    0.8722 C   0  0  0  0  0  0  0  0  0  0  0  0
    4.5588   -0.2511    0.6334 C   0  0  0  0  0  0  0  0  0  0  0  0
    4.0226    0.8614    1.5535 C   0  0  0  0  0  0  0  0  0  0  0  0
    2.6032    1.2067    1.4164 N   0  0  0  0  0  0  0  0  0  0  0  0
    2.2084    1.6870    0.0784 C   0  0  0  0  0  0  0  0  0  0  0  0
    1.3368    0.7067   -0.7378 C   0  0  0  0  0  0  0  0  0  0  0  0
    0.1144    0.2911   -0.0088 N   0  0  0  0  0  0  0  0  0  0  0  0
   -1.1019    0.6796   -0.5094 C   0  0  0  0  0  0  0  0  0  0  0  0
   -1.4701    1.8958   -1.0547 C   0  0  0  0  0  0  0  0  0  0  0  0
   -2.8637    1.8743   -1.2734 C   0  0  0  0  0  0  0  0  0  0  0  0
   -3.3318    0.6429   -0.8566 C   0  0  0  0  0  0  0  0  0  0  0  0
   -4.6639    0.0794   -0.8018 C   0  0  0  0  0  0  0  0  0  0  0  0
   -5.8610    0.9240   -1.0536 C   0  0  0  0  0  0  0  0  0  0  0  0
   -6.8727    0.4294   -1.8849 C   0  0  0  0  0  0  0  0  0  0  0  0
   -8.0147    1.1947   -2.1247 C   0  0  0  0  0  0  0  0  0  0  0  0
   -8.1533    2.4469   -1.5254 C   0  0  0  0  0  0  0  0  0  0  0  0
   -7.1564    2.9331   -0.6786 C   0  0  0  0  0  0  0  0  0  0  0  0
   -6.0122    2.1707   -0.4358 C   0  0  0  0  0  0  0  0  0  0  0  0
   -4.8428   -1.1801   -0.5325 N   0  0  0  0  0  0  0  0  0  0  0  0
   -3.7233   -1.9963   -0.2780 C   0  0  0  0  0  0  0  0  0  0  0  0
   -3.9532   -3.3549   -0.0415 C   0  0  0  0  0  0  0  0  0  0  0  0
   -2.8918   -4.2291    0.1960 C   0  0  0  0  0  0  0  0  0  0  0  0
   -1.5839   -3.7499    0.1894 C   0  0  0  0  0  0  0  0  0  0  0  0
   -1.3340   -2.3955   -0.0422 C   0  0  0  0  0  0  0  0  0  0  0  0
   -2.4016   -1.5178   -0.2557 C   0  0  0  0  0  0  0  0  0  0  0  0
   -2.2363   -0.1333   -0.5107 N   0  0  0  0  0  0  0  0  0  0  0  0
    0.2320    0.3817    1.4735 C   0  0  0  0  0  0  0  0  0  0  0  0
    1.6911    0.1676    1.9294 C   0  0  0  0  0  0  0  0  0  0  0  0
    6.4383   -1.4573    1.8219 C   0  0  0  0  0  0  0  0  0  0  0  0
    7.7959   -1.6821    2.0530 C   0  0  0  0  0  0  0  0  0  0  0  0
    9.1150    0.5477   -0.1434 H   0  0  0  0  0  0  0  0  0  0  0  0
    6.7054    0.9652   -0.5683 H   0  0  0  0  0  0  0  0  0  0  0  0
    4.0097   -1.1872    0.7864 H   0  0  0  0  0  0  0  0  0  0  0  0
    4.4152    0.0130   -0.4212 H   0  0  0  0  0  0  0  0  0  0  0  0
    4.2162    0.5938    2.6010 H   0  0  0  0  0  0  0  0  0  0  0  0
    4.6085    1.7755    1.3872 H   0  0  0  0  0  0  0  0  0  0  0  0
    3.0815    1.9850   -0.5145 H   0  0  0  0  0  0  0  0  0  0  0  0
    1.6305    2.6082    0.2293 H   0  0  0  0  0  0  0  0  0  0  0  0
    1.9167   -0.1993   -0.9530 H   0  0  0  0  0  0  0  0  0  0  0  0
    1.0993    1.1508   -1.7123 H   0  0  0  0  0  0  0  0  0  0  0  0
   -0.8105    2.7367   -1.2202 H   0  0  0  0  0  0  0  0  0  0  0  0
   -3.4589    2.6873   -1.6683 H   0  0  0  0  0  0  0  0  0  0  0  0
   -6.7716   -0.5510   -2.3450 H   0  0  0  0  0  0  0  0  0  0  0  0
   -8.7980    0.8111   -2.7734 H   0  0  0  0  0  0  0  0  0  0  0  0
   -9.0456    3.0402   -1.7101 H   0  0  0  0  0  0  0  0  0  0  0  0
   -7.2759    3.9017   -0.1997 H   0  0  0  0  0  0  0  0  0  0  0  0
   -5.2569    2.5463    0.2493 H   0  0  0  0  0  0  0  0  0  0  0  0
   -4.9731   -3.7306   -0.0493 H   0  0  0  0  0  0  0  0  0  0  0  0
   -3.0874   -5.2831    0.3741 H   0  0  0  0  0  0  0  0  0  0  0  0
   -0.7547   -4.4329    0.3555 H   0  0  0  0  0  0  0  0  0  0  0  0
   -0.3032   -2.0623   -0.0733 H   0  0  0  0  0  0  0  0  0  0  0  0
   -0.4026   -0.3795    1.9417 H   0  0  0  0  0  0  0  0  0  0  0  0
   -0.1183    1.3626    1.8228 H   0  0  0  0  0  0  0  0  0  0  0  0
    1.7267    0.1761    3.0247 H   0  0  0  0  0  0  0  0  0  0  0  0
    2.0016   -0.8311    1.6010 H   0  0  0  0  0  0  0  0  0  0  0  0
    5.7020   -2.0264    2.3857 H   0  0  0  0  0  0  0  0  0  0  0  0
    8.1209   -2.4162    2.7835 H   0  0  0  0  0  0  0  0  0  0  0  0
  1  2  1  0
  2  3  2  0
  3  4  1  0
  4  5  2  0
  5  6  1  0
  6  7  1  0
  7  8  1  0
  8  9  1  0
  9 10  1  0
 10 11  1  0
 11 12  1  0
 12 13  2  0
 13 14  1  0
 14 15  2  0
 15 16  1  0
 16 17  1  0
 17 18  2  0
 18 19  1  0
 19 20  2  0
 20 21  1  0
 21 22  2  0
 16 23  2  0
 23 24  1  0
 24 25  2  0
 25 26  1  0
 26 27  2  0
 27 28  1  0
 28 29  2  0
 29 30  1  0
 11 31  1  0
 31 32  1  0
  5 33  1  0
 33 34  2  0
 34  2  1  0
 32  8  1  0
 30 12  1  0
 30 15  1  0
 22 17  1  0
 29 24  1  0
  3 35  1  0
  4 36  1  0
  6 37  1  0
  6 38  1  0
  7 39  1  0
  7 40  1  0
  9 41  1  0
  9 42  1  0
 10 43  1  0
 10 44  1  0
 13 45  1  0
 14 46  1  0
 18 47  1  0
 19 48  1  0
 20 49  1  0
 21 50  1  0
 22 51  1  0
 25 52  1  0
 26 53  1  0
 27 54  1  0
 28 55  1  0
 31 56  1  0
 31 57  1  0
 32 58  1  0
 32 59  1  0
 33 60  1  0
 34 61  1  0
M  END
$$$$
