
     RDKit          3D

 51 55  0  0  0  0  0  0  0  0999 V2000
  -10.0943    1.2363   -2.2285 C   0  0  0  0  0  0  0  0  0  0  0  0
   -9.5536    0.1930   -1.2947 C   0  0  0  0  0  0  0  0  0  0  0  0
  -10.4315   -0.6599   -0.6141 C   0  0  0  0  0  0  0  0  0  0  0  0
   -9.9416   -1.6721    0.2095 C   0  0  0  0  0  0  0  0  0  0  0  0
   -8.5668   -1.8438    0.3605 C   0  0  0  0  0  0  0  0  0  0  0  0
   -7.6768   -0.9963   -0.3082 C   0  0  0  0  0  0  0  0  0  0  0  0
   -6.2142   -1.2218   -0.1250 C   0  0  0  0  0  0  0  0  0  0  0  0
   -5.8238   -2.3701    0.0435 O   0  0  0  0  0  0  0  0  0  0  0  0
   -5.4515   -0.0789   -0.1307 N   0  0  0  0  0  0  0  0  0  0  0  0
   -4.0876   -0.0032    0.0142 C   0  0  0  0  0  0  0  0  0  0  0  0
   -3.4565    1.1499    0.0663 N   0  0  0  0  0  0  0  0  0  0  0  0
   -2.0932    0.9888    0.2160 N   0  0  0  0  0  0  0  0  0  0  0  0
   -1.7560   -0.2813    0.2671 C   0  0  0  0  0  0  0  0  0  0  0  0
   -0.1026   -0.8086    0.4568 S   0  0  0  0  0  0  0  0  0  0  0  0
    0.6488    0.7240    1.0698 C   0  0  0  0  0  0  0  0  0  0  0  0
    2.1154    0.4757    1.3769 C   0  0  0  0  0  0  0  0  0  0  0  0
    2.4840    0.2275    2.5205 O   0  0  0  0  0  0  0  0  0  0  0  0
    2.9239    0.5670    0.2537 N   0  0  0  0  0  0  0  0  0  0  0  0
    4.3288    0.4375    0.1929 C   0  0  0  0  0  0  0  0  0  0  0  0
    4.9150    0.5282   -1.0799 C   0  0  0  0  0  0  0  0  0  0  0  0
    6.3042    0.4274   -1.2647 C   0  0  0  0  0  0  0  0  0  0  0  0
    7.1198    0.2287   -0.1390 C   0  0  0  0  0  0  0  0  0  0  0  0
    6.5096    0.1394    1.1067 C   0  0  0  0  0  0  0  0  0  0  0  0
    5.1333    0.2369    1.3195 C   0  0  0  0  0  0  0  0  0  0  0  0
    7.4412   -0.0485    2.0817 O   0  0  0  0  0  0  0  0  0  0  0  0
    8.6567   -0.0848    1.4698 C   0  0  0  0  0  0  0  0  0  0  0  0
    9.8770   -0.2624    2.1159 C   0  0  0  0  0  0  0  0  0  0  0  0
   11.0178   -0.2739    1.3064 C   0  0  0  0  0  0  0  0  0  0  0  0
   10.9229   -0.1099   -0.0776 C   0  0  0  0  0  0  0  0  0  0  0  0
    9.6793    0.0710   -0.6997 C   0  0  0  0  0  0  0  0  0  0  0  0
    8.5180    0.0808    0.0963 C   0  0  0  0  0  0  0  0  0  0  0  0
   -3.0698   -1.3654    0.1195 S   0  0  0  0  0  0  0  0  0  0  0  0
   -8.1714    0.0108   -1.1488 C   0  0  0  0  0  0  0  0  0  0  0  0
   -9.3967    2.0756   -2.3279 H   0  0  0  0  0  0  0  0  0  0  0  0
  -10.2648    0.8025   -3.2190 H   0  0  0  0  0  0  0  0  0  0  0  0
  -11.0379    1.6431   -1.8512 H   0  0  0  0  0  0  0  0  0  0  0  0
  -11.5069   -0.5471   -0.7342 H   0  0  0  0  0  0  0  0  0  0  0  0
  -10.6305   -2.3340    0.7258 H   0  0  0  0  0  0  0  0  0  0  0  0
   -8.1905   -2.6436    0.9960 H   0  0  0  0  0  0  0  0  0  0  0  0
   -5.8988    0.8260   -0.1583 H   0  0  0  0  0  0  0  0  0  0  0  0
    0.5584    1.5266    0.3314 H   0  0  0  0  0  0  0  0  0  0  0  0
    0.1528    1.0512    1.9904 H   0  0  0  0  0  0  0  0  0  0  0  0
    2.4521    0.6981   -0.6330 H   0  0  0  0  0  0  0  0  0  0  0  0
    4.2965    0.6797   -1.9619 H   0  0  0  0  0  0  0  0  0  0  0  0
    6.7354    0.5021   -2.2578 H   0  0  0  0  0  0  0  0  0  0  0  0
    4.7476    0.1618    2.3266 H   0  0  0  0  0  0  0  0  0  0  0  0
    9.9321   -0.3855    3.1901 H   0  0  0  0  0  0  0  0  0  0  0  0
   11.9944   -0.4137    1.7648 H   0  0  0  0  0  0  0  0  0  0  0  0
   11.8267   -0.1221   -0.6828 H   0  0  0  0  0  0  0  0  0  0  0  0
    9.6181    0.1992   -1.7760 H   0  0  0  0  0  0  0  0  0  0  0  0
   -7.4925    0.6381   -1.7226 H   0  0  0  0  0  0  0  0  0  0  0  0
  1  2  1  0
  2  3  2  0
  3  4  1  0
  4  5  2  0
  5  6  1  0
  6  7  1  0
  7  8  2  0
  7  9  1  0
  9 10  1  0
 10 11  2  0
 11 12  1  0
 12 13  2  0
 13 14  1  0
 14 15  1  0
 15 16  1  0
 16 17  2  0
 16 18  1  0
 18 19  1  0
 19 20  2  0
 20 21  1  0
 21 22  2  0
 22 23  1  0
 23 24  2  0
 23 25  1  0
 25 26  1  0
 26 27  2  0
 27 28  1  0
 28 29  2  0
 29 30  1  0
 30 31  2  0
 13 32  1  0
  6 33  2  0
 33  2  1  0
 32 10  1  0
 24 19  1  0
 31 26  1  0
 31 22  1  0
  1 34  1  0
  1 35  1  0
  1 36  1  0
  3 37  1  0
  4 38  1  0
  5 39  1  0
  9 40  1  0
 15 41  1  0
 15 42  1  0
 18 43  1  0
 20 44  1  0
 21 45  1  0
 24 46  1  0
 27 47  1  0
 28 48  1  0
 29 49  1  0
 30 50  1  0
 33 51  1  0
M  END
$$$$
