
     RDKit          3D

 26 27  0  0  0  0  0  0  0  0999 V2000
    0.7342    2.3523   -0.6851 O   0  0  0  0  0  0  0  0  0  0  0  0
    1.2735    1.3985   -0.1329 C   0  0  0  0  0  0  0  0  0  0  0  0
    2.7039    1.4717    0.3552 C   0  0  0  0  0  0  0  0  0  0  0  0
    3.5027    0.2799   -0.1562 C   0  0  0  0  0  0  0  0  0  0  0  0
    2.8614   -1.0414    0.2480 C   0  0  0  0  0  0  0  0  0  0  0  0
    1.4288   -1.1057   -0.2351 C   0  0  0  0  0  0  0  0  0  0  0  0
    1.0040   -2.0726   -0.8604 O   0  0  0  0  0  0  0  0  0  0  0  0
    0.5850    0.0881    0.0802 C   0  0  0  0  0  0  0  0  0  0  0  0
   -0.6462   -0.0134    0.6282 C   0  0  0  0  0  0  0  0  0  0  0  0
   -1.3641   -1.5589    1.0323 S   0  0  0  0  0  0  0  0  0  0  0  0
   -2.8267   -1.4996   -0.0454 C   0  0  0  0  0  0  0  0  0  0  0  0
   -3.4473   -0.1160   -0.2450 C   0  0  0  0  0  0  0  0  0  0  0  0
   -3.2780    0.8260    0.9398 C   0  0  0  0  0  0  0  0  0  0  0  0
   -1.5611    1.3969    1.1390 S   0  0  0  0  0  0  0  0  0  0  0  0
    3.1550    2.4009   -0.0097 H   0  0  0  0  0  0  0  0  0  0  0  0
    2.6969    1.5091    1.4501 H   0  0  0  0  0  0  0  0  0  0  0  0
    3.5656    0.3305   -1.2509 H   0  0  0  0  0  0  0  0  0  0  0  0
    4.5266    0.3275    0.2307 H   0  0  0  0  0  0  0  0  0  0  0  0
    2.8682   -1.1732    1.3356 H   0  0  0  0  0  0  0  0  0  0  0  0
    3.4213   -1.8724   -0.1947 H   0  0  0  0  0  0  0  0  0  0  0  0
   -3.5716   -2.1647    0.4055 H   0  0  0  0  0  0  0  0  0  0  0  0
   -2.5687   -1.9311   -1.0187 H   0  0  0  0  0  0  0  0  0  0  0  0
   -3.0322    0.3455   -1.1512 H   0  0  0  0  0  0  0  0  0  0  0  0
   -4.5172   -0.2477   -0.4501 H   0  0  0  0  0  0  0  0  0  0  0  0
   -3.6162    0.3537    1.8687 H   0  0  0  0  0  0  0  0  0  0  0  0
   -3.8978    1.7161    0.7890 H   0  0  0  0  0  0  0  0  0  0  0  0
  1  2  2  0
  2  3  1  0
  3  4  1  0
  4  5  1  0
  5  6  1  0
  6  7  2  0
  6  8  1  0
  8  9  2  3
  9 10  1  0
 10 11  1  0
 11 12  1  0
 12 13  1  0
 13 14  1  0
  8  2  1  0
 14  9  1  0
  3 15  1  0
  3 16  1  0
  4 17  1  0
  4 18  1  0
  5 19  1  0
  5 20  1  0
 11 21  1  0
 11 22  1  0
 12 23  1  0
 12 24  1  0
 13 25  1  0
 13 26  1  0
M  END
$$$$
