
     RDKit          3D

 58 59  0  0  0  0  0  0  0  0999 V2000
    8.6316    0.1569   -0.3622 C   0  0  0  0  0  0  0  0  0  0  0  0
    8.6845   -0.6004   -1.6793 C   0  0  0  0  0  0  0  0  0  0  0  0
    7.3413   -1.1884   -2.1261 C   0  0  0  0  0  0  0  0  0  0  0  0
    6.2956   -0.1444   -2.5248 C   0  0  0  0  0  0  0  0  0  0  0  0
    5.7933    0.5810   -1.4046 O   0  0  0  0  0  0  0  0  0  0  0  0
    4.7591    0.0580   -0.6822 C   0  0  0  0  0  0  0  0  0  0  0  0
    4.1436   -1.1758   -0.8876 C   0  0  0  0  0  0  0  0  0  0  0  0
    3.0917   -1.5839   -0.0584 C   0  0  0  0  0  0  0  0  0  0  0  0
    2.6416   -0.7589    0.9790 C   0  0  0  0  0  0  0  0  0  0  0  0
    1.5208   -1.2402    1.8341 C   0  0  0  0  0  0  0  0  0  0  0  0
    1.2757   -2.4381    1.9208 O   0  0  0  0  0  0  0  0  0  0  0  0
    0.7705   -0.2708    2.4684 N   0  0  0  0  0  0  0  0  0  0  0  0
   -0.4536   -0.6439    3.1626 C   0  0  0  0  0  0  0  0  0  0  0  0
   -1.6369   -0.6410    2.2042 C   0  0  0  0  0  0  0  0  0  0  0  0
   -1.6798   -0.0298    1.1407 O   0  0  0  0  0  0  0  0  0  0  0  0
   -2.6716   -1.3587    2.7279 O   0  0  0  0  0  0  0  0  0  0  0  0
   -3.8565   -1.3400    1.9237 C   0  0  0  0  0  0  0  0  0  0  0  0
   -4.5214    0.0406    1.9045 C   0  0  0  0  0  0  0  0  0  0  0  0
   -4.2809    0.8669    2.7930 O   0  0  0  0  0  0  0  0  0  0  0  0
   -5.4117    0.3917    0.7444 C   0  0  0  0  0  0  0  0  0  0  0  0
   -5.6113    1.6823    0.3904 C   0  0  0  0  0  0  0  0  0  0  0  0
   -5.0861    2.7480    1.1133 N   0  0  0  0  0  0  0  0  0  0  0  0
   -6.3840    1.9693   -0.7321 N   0  0  0  0  0  0  0  0  0  0  0  0
   -6.6958    3.3649   -1.0415 C   0  0  0  0  0  0  0  0  0  0  0  0
   -6.9011    0.9993   -1.5859 C   0  0  0  0  0  0  0  0  0  0  0  0
   -7.5771    1.2793   -2.5776 O   0  0  0  0  0  0  0  0  0  0  0  0
   -6.6244   -0.3131   -1.2477 N   0  0  0  0  0  0  0  0  0  0  0  0
   -7.1952   -1.3551   -2.0814 C   0  0  0  0  0  0  0  0  0  0  0  0
   -6.0590   -0.6764   -0.0484 C   0  0  0  0  0  0  0  0  0  0  0  0
   -6.0810   -1.8290    0.3822 O   0  0  0  0  0  0  0  0  0  0  0  0
    3.2696    0.4710    1.1975 C   0  0  0  0  0  0  0  0  0  0  0  0
    4.3196    0.8727    0.3660 C   0  0  0  0  0  0  0  0  0  0  0  0
    9.6463    0.4003   -0.0299 H   0  0  0  0  0  0  0  0  0  0  0  0
    8.1544   -0.4417    0.4199 H   0  0  0  0  0  0  0  0  0  0  0  0
    8.0882    1.1004   -0.4628 H   0  0  0  0  0  0  0  0  0  0  0  0
    9.3966   -1.4275   -1.5692 H   0  0  0  0  0  0  0  0  0  0  0  0
    9.0849    0.0550   -2.4615 H   0  0  0  0  0  0  0  0  0  0  0  0
    6.9574   -1.8363   -1.3306 H   0  0  0  0  0  0  0  0  0  0  0  0
    7.5311   -1.8262   -2.9980 H   0  0  0  0  0  0  0  0  0  0  0  0
    5.4829   -0.5917   -3.1087 H   0  0  0  0  0  0  0  0  0  0  0  0
    6.7609    0.5909   -3.1920 H   0  0  0  0  0  0  0  0  0  0  0  0
    4.4580   -1.8532   -1.6740 H   0  0  0  0  0  0  0  0  0  0  0  0
    2.6231   -2.5521   -0.2259 H   0  0  0  0  0  0  0  0  0  0  0  0
    0.7948    0.6630    2.0786 H   0  0  0  0  0  0  0  0  0  0  0  0
   -0.6342    0.0998    3.9434 H   0  0  0  0  0  0  0  0  0  0  0  0
   -0.3390   -1.6368    3.6078 H   0  0  0  0  0  0  0  0  0  0  0  0
   -3.6065   -1.6785    0.9124 H   0  0  0  0  0  0  0  0  0  0  0  0
   -4.5549   -2.0494    2.3777 H   0  0  0  0  0  0  0  0  0  0  0  0
   -4.5172    2.4416    1.9134 H   0  0  0  0  0  0  0  0  0  0  0  0
   -4.5481    3.3798    0.5268 H   0  0  0  0  0  0  0  0  0  0  0  0
   -7.4251    3.4592   -1.8508 H   0  0  0  0  0  0  0  0  0  0  0  0
   -5.7780    3.8749   -1.3516 H   0  0  0  0  0  0  0  0  0  0  0  0
   -7.1183    3.8535   -0.1572 H   0  0  0  0  0  0  0  0  0  0  0  0
   -6.6682   -2.3037   -1.9429 H   0  0  0  0  0  0  0  0  0  0  0  0
   -7.1420   -1.0746   -3.1378 H   0  0  0  0  0  0  0  0  0  0  0  0
   -8.2456   -1.4859   -1.8017 H   0  0  0  0  0  0  0  0  0  0  0  0
    2.9786    1.1168    2.0203 H   0  0  0  0  0  0  0  0  0  0  0  0
    4.8090    1.8284    0.5412 H   0  0  0  0  0  0  0  0  0  0  0  0
  1  2  1  0
  2  3  1  0
  3  4  1  0
  4  5  1  0
  5  6  1  0
  6  7  2  0
  7  8  1  0
  8  9  2  0
  9 10  1  0
 10 11  2  0
 10 12  1  0
 12 13  1  0
 13 14  1  0
 14 15  2  0
 14 16  1  0
 16 17  1  0
 17 18  1  0
 18 19  2  0
 18 20  1  0
 20 21  2  0
 21 22  1  0
 21 23  1  0
 23 24  1  0
 23 25  1  0
 25 26  2  0
 25 27  1  0
 27 28  1  0
 27 29  1  0
 29 30  2  0
  9 31  1  0
 31 32  2  0
 32  6  1  0
 29 20  1  0
  1 33  1  0
  1 34  1  0
  1 35  1  0
  2 36  1  0
  2 37  1  0
  3 38  1  0
  3 39  1  0
  4 40  1  0
  4 41  1  0
  7 42  1  0
  8 43  1  0
 12 44  1  0
 13 45  1  0
 13 46  1  0
 17 47  1  0
 17 48  1  0
 22 49  1  0
 22 50  1  0
 24 51  1  0
 24 52  1  0
 24 53  1  0
 28 54  1  0
 28 55  1  0
 28 56  1  0
 31 57  1  0
 32 58  1  0
M  END
$$$$
