
     RDKit          3D

 56 58  0  0  0  0  0  0  0  0999 V2000
    9.3527    2.1172    1.4136 C   0  0  0  0  0  0  0  0  0  0  0  0
    8.7206    2.8098    0.2164 C   0  0  0  0  0  0  0  0  0  0  0  0
    8.3069    1.8592   -0.7639 O   0  0  0  0  0  0  0  0  0  0  0  0
    7.0583    1.3149   -0.6691 C   0  0  0  0  0  0  0  0  0  0  0  0
    6.1359    1.5251    0.3535 C   0  0  0  0  0  0  0  0  0  0  0  0
    4.8795    0.9009    0.3188 C   0  0  0  0  0  0  0  0  0  0  0  0
    4.5296    0.0583   -0.7369 C   0  0  0  0  0  0  0  0  0  0  0  0
    3.2884   -0.6050   -0.8435 N   0  0  0  0  0  0  0  0  0  0  0  0
    2.2403   -0.5801    0.0635 C   0  0  0  0  0  0  0  0  0  0  0  0
    2.1947    0.0622    1.1084 O   0  0  0  0  0  0  0  0  0  0  0  0
    1.0638   -1.4308   -0.3916 C   0  0  0  0  0  0  0  0  0  0  0  0
    0.1466   -1.8019    0.7720 C   0  0  0  0  0  0  0  0  0  0  0  0
   -0.5486   -0.6096    1.2909 N   0  0  0  0  0  0  0  0  0  0  0  0
   -1.6974   -0.8512    2.5005 S   0  0  0  0  0  6  0  0  0  0  0  0
   -1.7896    0.3787    3.2529 O   0  0  0  0  0  0  0  0  0  0  0  0
   -1.4334   -2.1239    3.1362 O   0  0  0  0  0  0  0  0  0  0  0  0
   -3.1958   -0.9950    1.5596 C   0  0  0  0  0  0  0  0  0  0  0  0
   -3.8785   -2.2088    1.5107 C   0  0  0  0  0  0  0  0  0  0  0  0
   -5.0902   -2.2928    0.8145 C   0  0  0  0  0  0  0  0  0  0  0  0
   -5.6335   -1.1694    0.1647 C   0  0  0  0  0  0  0  0  0  0  0  0
   -4.9281    0.0331    0.2224 C   0  0  0  0  0  0  0  0  0  0  0  0
   -3.7146    0.1321    0.9209 C   0  0  0  0  0  0  0  0  0  0  0  0
   -5.4680    1.2188   -0.4630 C   0  0  0  0  0  0  0  0  0  0  0  0
   -4.7990    2.2472   -0.4860 O   0  0  0  0  0  0  0  0  0  0  0  0
   -6.7083    1.0806   -1.0643 N   0  0  0  0  0  0  0  0  0  0  0  0
   -7.2908    2.2388   -1.7165 C   0  0  0  0  0  0  0  0  0  0  0  0
   -7.4284   -0.1069   -1.1459 C   0  0  0  0  0  0  0  0  0  0  0  0
   -8.5092   -0.1608   -1.7378 O   0  0  0  0  0  0  0  0  0  0  0  0
   -6.8683   -1.2248   -0.5354 N   0  0  0  0  0  0  0  0  0  0  0  0
   -7.6002   -2.4850   -0.6070 C   0  0  0  0  0  0  0  0  0  0  0  0
    5.4605   -0.1544   -1.7603 C   0  0  0  0  0  0  0  0  0  0  0  0
    6.7134    0.4672   -1.7228 C   0  0  0  0  0  0  0  0  0  0  0  0
    9.6998    2.8517    2.1460 H   0  0  0  0  0  0  0  0  0  0  0  0
    8.6474    1.4412    1.9075 H   0  0  0  0  0  0  0  0  0  0  0  0
   10.2077    1.5074    1.0988 H   0  0  0  0  0  0  0  0  0  0  0  0
    9.4834    3.4374   -0.2621 H   0  0  0  0  0  0  0  0  0  0  0  0
    7.9121    3.4917    0.5064 H   0  0  0  0  0  0  0  0  0  0  0  0
    6.3509    2.1662    1.2022 H   0  0  0  0  0  0  0  0  0  0  0  0
    4.1976    1.1055    1.1391 H   0  0  0  0  0  0  0  0  0  0  0  0
    3.1648   -1.1684   -1.6759 H   0  0  0  0  0  0  0  0  0  0  0  0
    1.4471   -2.3574   -0.8430 H   0  0  0  0  0  0  0  0  0  0  0  0
    0.5155   -0.8706   -1.1613 H   0  0  0  0  0  0  0  0  0  0  0  0
    0.7372   -2.2585    1.5752 H   0  0  0  0  0  0  0  0  0  0  0  0
   -0.5943   -2.5280    0.4193 H   0  0  0  0  0  0  0  0  0  0  0  0
    0.0803    0.1616    1.5568 H   0  0  0  0  0  0  0  0  0  0  0  0
   -3.4877   -3.0890    2.0196 H   0  0  0  0  0  0  0  0  0  0  0  0
   -5.5954   -3.2544    0.8101 H   0  0  0  0  0  0  0  0  0  0  0  0
   -3.1850    1.0824    0.9736 H   0  0  0  0  0  0  0  0  0  0  0  0
   -8.2529    2.4617   -1.2385 H   0  0  0  0  0  0  0  0  0  0  0  0
   -6.6505    3.1236   -1.6546 H   0  0  0  0  0  0  0  0  0  0  0  0
   -7.4742    2.0054   -2.7731 H   0  0  0  0  0  0  0  0  0  0  0  0
   -7.8803   -2.7997    0.4034 H   0  0  0  0  0  0  0  0  0  0  0  0
   -8.5185   -2.4003   -1.1944 H   0  0  0  0  0  0  0  0  0  0  0  0
   -6.9722   -3.2441   -1.0846 H   0  0  0  0  0  0  0  0  0  0  0  0
    5.2331   -0.8023   -2.6021 H   0  0  0  0  0  0  0  0  0  0  0  0
    7.4247    0.2934   -2.5273 H   0  0  0  0  0  0  0  0  0  0  0  0
  1  2  1  0
  2  3  1  0
  3  4  1  0
  4  5  2  0
  5  6  1  0
  6  7  2  0
  7  8  1  0
  8  9  1  0
  9 10  2  0
  9 11  1  0
 11 12  1  0
 12 13  1  0
 13 14  1  0
 14 15  2  0
 14 16  2  0
 14 17  1  0
 17 18  2  0
 18 19  1  0
 19 20  2  0
 20 21  1  0
 21 22  2  0
 21 23  1  0
 23 24  2  0
 23 25  1  0
 25 26  1  0
 25 27  1  0
 27 28  2  0
 27 29  1  0
 29 30  1  0
  7 31  1  0
 31 32  2  0
 32  4  1  0
 22 17  1  0
 29 20  1  0
  1 33  1  0
  1 34  1  0
  1 35  1  0
  2 36  1  0
  2 37  1  0
  5 38  1  0
  6 39  1  0
  8 40  1  0
 11 41  1  0
 11 42  1  0
 12 43  1  0
 12 44  1  0
 13 45  1  0
 18 46  1  0
 19 47  1  0
 22 48  1  0
 26 49  1  0
 26 50  1  0
 26 51  1  0
 30 52  1  0
 30 53  1  0
 30 54  1  0
 31 55  1  0
 32 56  1  0
M  END
$$$$
