
     RDKit          3D

 56 58  0  0  0  0  0  0  0  0999 V2000
    2.4231   -0.1846    2.9942 C   0  0  0  0  0  0  0  0  0  0  0  0
    2.6562   -0.7172    1.6975 O   0  0  0  0  0  0  0  0  0  0  0  0
    1.6340   -0.6242    0.7893 C   0  0  0  0  0  0  0  0  0  0  0  0
    0.4346    0.0667    0.9990 C   0  0  0  0  0  0  0  0  0  0  0  0
   -0.5660    0.0927    0.0112 C   0  0  0  0  0  0  0  0  0  0  0  0
   -1.7794    0.8811    0.2683 C   0  0  0  0  0  0  0  0  0  0  0  0
   -3.0092    0.5358   -0.1456 C   0  0  0  0  0  0  0  0  0  0  0  0
   -4.1553    1.4336    0.1697 C   0  0  0  0  0  0  0  0  0  0  0  0
   -4.0032    2.5280    0.6981 O   0  0  0  0  0  0  0  0  0  0  0  0
   -5.4976    0.9980   -0.2798 C   0  0  0  0  0  0  0  0  0  0  0  0
   -6.0352   -0.2494    0.1092 C   0  0  0  0  0  0  0  0  0  0  0  0
   -5.2604   -1.0245    0.9326 O   0  0  0  0  0  0  0  0  0  0  0  0
   -5.7899   -2.2709    1.3741 C   0  0  0  0  0  0  0  0  0  0  0  0
   -7.3148   -0.6184   -0.3401 C   0  0  0  0  0  0  0  0  0  0  0  0
   -8.0629    0.2354   -1.1550 C   0  0  0  0  0  0  0  0  0  0  0  0
   -7.5227    1.4602   -1.5093 C   0  0  0  0  0  0  0  0  0  0  0  0
   -8.2538    2.3369   -2.3134 O   0  0  0  0  0  0  0  0  0  0  0  0
   -7.4860    3.4921   -2.4704 C   0  0  0  0  0  0  0  0  0  0  0  0
   -7.8866    4.4601   -3.1042 O   0  0  0  0  0  0  0  0  0  0  0  0
   -5.8913    3.4520   -1.7218 S   0  0  0  0  0  0  0  0  0  0  0  0
   -6.2583    1.8553   -1.0771 C   0  0  0  0  0  0  0  0  0  0  0  0
   -0.3504   -0.5732   -1.2018 C   0  0  0  0  0  0  0  0  0  0  0  0
    0.8437   -1.2576   -1.4251 C   0  0  0  0  0  0  0  0  0  0  0  0
    1.8360   -1.2604   -0.4431 C   0  0  0  0  0  0  0  0  0  0  0  0
    3.0002   -1.9467   -0.6883 O   0  0  0  0  0  0  0  0  0  0  0  0
    3.9158   -1.1431   -1.4517 C   0  0  0  0  0  0  0  0  0  0  0  0
    5.1664   -0.8851   -0.6134 C   0  0  0  0  0  0  0  0  0  0  0  0
    6.1827   -0.0331   -1.3822 C   0  0  0  0  0  0  0  0  0  0  0  0
    7.3759    0.3989   -0.6390 N   0  0  0  0  0  0  0  0  0  0  0  0
    7.0556    1.3293    0.4420 C   0  0  0  0  0  0  0  0  0  0  0  0
    8.1700   -0.7226   -0.1409 C   0  0  0  0  0  0  0  0  0  0  0  0
    3.3049   -0.3976    3.6064 H   0  0  0  0  0  0  0  0  0  0  0  0
    2.3020    0.9032    2.9552 H   0  0  0  0  0  0  0  0  0  0  0  0
    1.5615   -0.6638    3.4731 H   0  0  0  0  0  0  0  0  0  0  0  0
    0.2532    0.5934    1.9317 H   0  0  0  0  0  0  0  0  0  0  0  0
   -1.6364    1.7961    0.8435 H   0  0  0  0  0  0  0  0  0  0  0  0
   -3.2023   -0.3723   -0.7025 H   0  0  0  0  0  0  0  0  0  0  0  0
   -5.9431   -2.9511    0.5301 H   0  0  0  0  0  0  0  0  0  0  0  0
   -5.0539   -2.7274    2.0431 H   0  0  0  0  0  0  0  0  0  0  0  0
   -6.7135   -2.1310    1.9462 H   0  0  0  0  0  0  0  0  0  0  0  0
   -7.7673   -1.5647   -0.0589 H   0  0  0  0  0  0  0  0  0  0  0  0
   -9.0547   -0.0496   -1.4951 H   0  0  0  0  0  0  0  0  0  0  0  0
   -1.0980   -0.5541   -1.9906 H   0  0  0  0  0  0  0  0  0  0  0  0
    1.0058   -1.7814   -2.3621 H   0  0  0  0  0  0  0  0  0  0  0  0
    4.1763   -1.7143   -2.3504 H   0  0  0  0  0  0  0  0  0  0  0  0
    3.4775   -0.1919   -1.7840 H   0  0  0  0  0  0  0  0  0  0  0  0
    4.8738   -0.3898    0.3166 H   0  0  0  0  0  0  0  0  0  0  0  0
    5.6031   -1.8484   -0.3222 H   0  0  0  0  0  0  0  0  0  0  0  0
    5.6828    0.8612   -1.7779 H   0  0  0  0  0  0  0  0  0  0  0  0
    6.5139   -0.5894   -2.2691 H   0  0  0  0  0  0  0  0  0  0  0  0
    6.4597    2.1705    0.0691 H   0  0  0  0  0  0  0  0  0  0  0  0
    6.5080    0.8534    1.2638 H   0  0  0  0  0  0  0  0  0  0  0  0
    7.9756    1.7592    0.8562 H   0  0  0  0  0  0  0  0  0  0  0  0
    7.6419   -1.3117    0.6179 H   0  0  0  0  0  0  0  0  0  0  0  0
    9.1011   -0.3582    0.3081 H   0  0  0  0  0  0  0  0  0  0  0  0
    8.4569   -1.3852   -0.9644 H   0  0  0  0  0  0  0  0  0  0  0  0
  1  2  1  0
  2  3  1  0
  3  4  2  0
  4  5  1  0
  5  6  1  0
  6  7  2  0
  7  8  1  0
  8  9  2  0
  8 10  1  0
 10 11  2  0
 11 12  1  0
 12 13  1  0
 11 14  1  0
 14 15  2  0
 15 16  1  0
 16 17  1  0
 17 18  1  0
 18 19  2  0
 18 20  1  0
 20 21  1  0
  5 22  2  0
 22 23  1  0
 23 24  2  0
 24 25  1  0
 25 26  1  0
 26 27  1  0
 27 28  1  0
 28 29  1  0
 29 30  1  0
 29 31  1  0
 24  3  1  0
 21 10  1  0
 21 16  2  0
  1 32  1  0
  1 33  1  0
  1 34  1  0
  4 35  1  0
  6 36  1  0
  7 37  1  0
 13 38  1  0
 13 39  1  0
 13 40  1  0
 14 41  1  0
 15 42  1  0
 22 43  1  0
 23 44  1  0
 26 45  1  0
 26 46  1  0
 27 47  1  0
 27 48  1  0
 28 49  1  0
 28 50  1  0
 30 51  1  0
 30 52  1  0
 30 53  1  0
 31 54  1  0
 31 55  1  0
 31 56  1  0
M  END
$$$$
