
     RDKit          3D

 60 63  0  0  0  0  0  0  0  0999 V2000
    8.2254   -2.3161   -0.5257 C   0  0  0  0  0  0  0  0  0  0  0  0
    7.9962   -1.4212    0.5527 O   0  0  0  0  0  0  0  0  0  0  0  0
    6.7196   -1.3469    1.0372 C   0  0  0  0  0  0  0  0  0  0  0  0
    5.6384   -2.1197    0.6177 C   0  0  0  0  0  0  0  0  0  0  0  0
    4.3774   -1.9366    1.1939 C   0  0  0  0  0  0  0  0  0  0  0  0
    4.1821   -0.9833    2.1985 C   0  0  0  0  0  0  0  0  0  0  0  0
    2.8115   -0.7342    2.7753 C   0  0  0  0  0  0  0  0  0  0  0  0
    2.0755    0.1818    1.9401 N   0  0  0  0  0  0  0  0  0  0  0  0
    2.1620    1.5483    2.1080 C   0  0  0  0  0  0  0  0  0  0  0  0
    2.7243    2.0701    3.0693 O   0  0  0  0  0  0  0  0  0  0  0  0
    1.6803    2.3646    0.8987 C   0  0  0  0  0  0  0  0  0  0  0  0
    2.8531    2.5864   -0.0553 C   0  0  0  0  0  0  0  0  0  0  0  0
    0.5422    1.7020    0.2349 N   0  0  0  0  0  0  0  0  0  0  0  0
    0.8362    0.6279   -0.6325 N   0  0  0  0  0  0  0  0  0  0  0  0
   -0.1139   -0.0239   -1.2472 C   0  0  0  0  0  0  0  0  0  0  0  0
    0.2707   -1.1588   -2.1588 C   0  0  0  0  0  0  0  0  0  0  0  0
   -1.4869    0.3556   -1.0285 C   0  0  0  0  0  0  0  0  0  0  0  0
   -2.6975   -0.0509   -1.5610 C   0  0  0  0  0  0  0  0  0  0  0  0
   -2.9793   -0.9656   -2.6913 C   0  0  0  0  0  0  0  0  0  0  0  0
   -3.6737    0.6557   -0.8533 N   0  0  0  0  0  0  0  0  0  0  0  0
   -5.0930    0.5104   -0.8407 C   0  0  0  0  0  0  0  0  0  0  0  0
   -5.8817    1.5797   -0.3836 C   0  0  0  0  0  0  0  0  0  0  0  0
   -7.2750    1.4737   -0.3599 C   0  0  0  0  0  0  0  0  0  0  0  0
   -7.9052    0.2994   -0.7788 C   0  0  0  0  0  0  0  0  0  0  0  0
   -9.3980    0.1782   -0.7154 C   0  0  0  0  0  0  0  0  0  0  0  0
   -7.1180   -0.7831   -1.1886 C   0  0  0  0  0  0  0  0  0  0  0  0
   -5.7226   -0.6776   -1.2188 C   0  0  0  0  0  0  0  0  0  0  0  0
   -3.1070    1.6147   -0.0803 N   0  0  0  0  0  0  0  0  0  0  0  0
   -1.7962    1.3828   -0.1343 C   0  0  0  0  0  0  0  0  0  0  0  0
   -0.7600    2.1082    0.5888 C   0  0  0  0  0  0  0  0  0  0  0  0
   -0.9965    2.9861    1.4122 O   0  0  0  0  0  0  0  0  0  0  0  0
    5.2708   -0.2102    2.6119 C   0  0  0  0  0  0  0  0  0  0  0  0
    6.5292   -0.3998    2.0395 C   0  0  0  0  0  0  0  0  0  0  0  0
    8.0675   -3.3546   -0.2157 H   0  0  0  0  0  0  0  0  0  0  0  0
    9.2737   -2.2157   -0.8313 H   0  0  0  0  0  0  0  0  0  0  0  0
    7.6036   -2.0657   -1.3910 H   0  0  0  0  0  0  0  0  0  0  0  0
    5.7433   -2.8743   -0.1549 H   0  0  0  0  0  0  0  0  0  0  0  0
    3.5459   -2.5438    0.8527 H   0  0  0  0  0  0  0  0  0  0  0  0
    2.8817   -0.3449    3.7955 H   0  0  0  0  0  0  0  0  0  0  0  0
    2.2422   -1.6726    2.8187 H   0  0  0  0  0  0  0  0  0  0  0  0
    1.8184   -0.1196    1.0060 H   0  0  0  0  0  0  0  0  0  0  0  0
    1.3489    3.3358    1.2800 H   0  0  0  0  0  0  0  0  0  0  0  0
    3.6512    3.1479    0.4428 H   0  0  0  0  0  0  0  0  0  0  0  0
    3.2935    1.6423   -0.3948 H   0  0  0  0  0  0  0  0  0  0  0  0
    2.5375    3.1467   -0.9370 H   0  0  0  0  0  0  0  0  0  0  0  0
    0.1692   -0.8440   -3.1985 H   0  0  0  0  0  0  0  0  0  0  0  0
   -0.3634   -2.0303   -1.9718 H   0  0  0  0  0  0  0  0  0  0  0  0
    1.3108   -1.4481   -1.9851 H   0  0  0  0  0  0  0  0  0  0  0  0
   -2.1790   -0.9256   -3.4299 H   0  0  0  0  0  0  0  0  0  0  0  0
   -3.8900   -0.6875   -3.2284 H   0  0  0  0  0  0  0  0  0  0  0  0
   -3.0614   -1.9945   -2.3439 H   0  0  0  0  0  0  0  0  0  0  0  0
   -5.4240    2.5137   -0.0556 H   0  0  0  0  0  0  0  0  0  0  0  0
   -7.8644    2.3202   -0.0066 H   0  0  0  0  0  0  0  0  0  0  0  0
   -9.8725    1.1188   -0.9976 H   0  0  0  0  0  0  0  0  0  0  0  0
   -9.7684   -0.5850   -1.4052 H   0  0  0  0  0  0  0  0  0  0  0  0
   -9.7062   -0.0846    0.2951 H   0  0  0  0  0  0  0  0  0  0  0  0
   -7.5884   -1.7239   -1.4720 H   0  0  0  0  0  0  0  0  0  0  0  0
   -5.1631   -1.5711   -1.4790 H   0  0  0  0  0  0  0  0  0  0  0  0
    5.1394    0.5549    3.3741 H   0  0  0  0  0  0  0  0  0  0  0  0
    7.3637    0.2076    2.3719 H   0  0  0  0  0  0  0  0  0  0  0  0
  1  2  1  0
  2  3  1  0
  3  4  2  0
  4  5  1  0
  5  6  2  0
  6  7  1  0
  7  8  1  0
  8  9  1  0
  9 10  2  0
  9 11  1  0
 11 12  1  0
 11 13  1  0
 13 14  1  0
 14 15  2  0
 15 16  1  0
 15 17  1  0
 17 18  2  0
 18 19  1  0
 18 20  1  0
 20 21  1  0
 21 22  2  0
 22 23  1  0
 23 24  2  0
 24 25  1  0
 24 26  1  0
 26 27  2  0
 20 28  1  0
 28 29  2  0
 29 30  1  0
 30 31  2  0
  6 32  1  0
 32 33  2  0
 33  3  1  0
 30 13  1  0
 29 17  1  0
 27 21  1  0
  1 34  1  0
  1 35  1  0
  1 36  1  0
  4 37  1  0
  5 38  1  0
  7 39  1  0
  7 40  1  0
  8 41  1  0
 11 42  1  0
 12 43  1  0
 12 44  1  0
 12 45  1  0
 16 46  1  0
 16 47  1  0
 16 48  1  0
 19 49  1  0
 19 50  1  0
 19 51  1  0
 22 52  1  0
 23 53  1  0
 25 54  1  0
 25 55  1  0
 25 56  1  0
 26 57  1  0
 27 58  1  0
 32 59  1  0
 33 60  1  0
M  END
$$$$
