
     RDKit          3D

 58 62  0  0  0  0  0  0  0  0999 V2000
    6.4818    4.2294    0.2804 C   0  0  0  0  0  0  0  0  0  0  0  0
    6.4322    2.8474   -0.0341 O   0  0  0  0  0  0  0  0  0  0  0  0
    5.1932    2.2696   -0.1044 C   0  0  0  0  0  0  0  0  0  0  0  0
    5.1967    0.9048   -0.4146 C   0  0  0  0  0  0  0  0  0  0  0  0
    3.9995    0.1903   -0.5192 C   0  0  0  0  0  0  0  0  0  0  0  0
    2.7757    0.8378   -0.3169 C   0  0  0  0  0  0  0  0  0  0  0  0
    1.4745    0.0846   -0.4334 C   0  0  0  0  0  0  0  0  0  0  0  0
    0.8854   -0.2940    0.9315 C   0  0  0  0  0  0  0  0  0  0  0  0
   -0.4347   -0.9279    0.7447 N   0  0  0  0  0  0  0  0  0  0  0  0
   -1.5663   -0.1081    0.6449 C   0  0  0  0  0  0  0  0  0  0  0  0
   -1.4713    1.1694    0.8881 N   0  0  0  0  0  0  0  0  0  0  0  0
   -2.8876   -0.7168    0.2629 C   0  0  0  0  0  0  0  0  0  0  0  0
   -4.1201    0.0339   -0.0991 C   0  0  0  0  0  0  0  0  0  0  0  0
   -5.2400   -0.4479    0.0264 O   0  0  0  0  0  0  0  0  0  0  0  0
   -3.8888    1.2784   -0.6320 N   0  0  0  0  0  0  0  0  0  0  0  0
   -4.9851    2.0970   -1.1015 C   0  0  0  0  0  0  0  0  0  0  0  0
   -4.4985    3.4914   -1.2270 C   0  0  0  0  0  0  0  0  0  0  0  0
   -3.7490    4.1610   -2.1730 C   0  0  0  0  0  0  0  0  0  0  0  0
   -3.5858    5.4847   -1.6927 C   0  0  0  0  0  0  0  0  0  0  0  0
   -4.2510    5.5392   -0.4895 C   0  0  0  0  0  0  0  0  0  0  0  0
   -4.8058    4.3350   -0.1981 O   0  0  0  0  0  0  0  0  0  0  0  0
   -2.9183   -2.0576    0.1839 C   0  0  0  0  0  0  0  0  0  0  0  0
   -1.7409   -2.8849    0.4045 C   0  0  0  0  0  0  0  0  0  0  0  0
   -1.8591   -4.3677    0.3204 C   0  0  0  0  0  0  0  0  0  0  0  0
   -2.9469   -4.8824    0.0607 O   0  0  0  0  0  0  0  0  0  0  0  0
   -0.6958   -5.0843    0.5397 N   0  0  0  0  0  0  0  0  0  0  0  0
   -0.7312   -6.4750    0.5120 C   0  0  0  0  0  0  0  0  0  0  0  0
    0.3706   -7.2135    0.6964 C   0  0  0  0  0  0  0  0  0  0  0  0
    1.6338   -6.5666    0.9246 C   0  0  0  0  0  0  0  0  0  0  0  0
    1.7143   -5.2296    0.9578 C   0  0  0  0  0  0  0  0  0  0  0  0
    0.4875   -4.4056    0.7588 C   0  0  0  0  0  0  0  0  0  0  0  0
    0.5945   -3.1166    0.7994 N   0  0  0  0  0  0  0  0  0  0  0  0
   -0.5280   -2.3358    0.6454 C   0  0  0  0  0  0  0  0  0  0  0  0
    2.7746    2.2044    0.0017 C   0  0  0  0  0  0  0  0  0  0  0  0
    3.9755    2.9167    0.1054 C   0  0  0  0  0  0  0  0  0  0  0  0
    7.5346    4.5253    0.3203 H   0  0  0  0  0  0  0  0  0  0  0  0
    6.0448    4.4287    1.2624 H   0  0  0  0  0  0  0  0  0  0  0  0
    5.9961    4.8245   -0.4986 H   0  0  0  0  0  0  0  0  0  0  0  0
    6.1425    0.3948   -0.5791 H   0  0  0  0  0  0  0  0  0  0  0  0
    4.0325   -0.8709   -0.7624 H   0  0  0  0  0  0  0  0  0  0  0  0
    1.6228   -0.8201   -1.0387 H   0  0  0  0  0  0  0  0  0  0  0  0
    0.7650    0.7013   -1.0024 H   0  0  0  0  0  0  0  0  0  0  0  0
    0.8009    0.5899    1.5787 H   0  0  0  0  0  0  0  0  0  0  0  0
    1.5759   -0.9599    1.4686 H   0  0  0  0  0  0  0  0  0  0  0  0
   -2.3912    1.6290    0.8788 H   0  0  0  0  0  0  0  0  0  0  0  0
   -2.9570    1.5086   -0.9612 H   0  0  0  0  0  0  0  0  0  0  0  0
   -5.8199    2.0280   -0.3983 H   0  0  0  0  0  0  0  0  0  0  0  0
   -5.3176    1.7036   -2.0662 H   0  0  0  0  0  0  0  0  0  0  0  0
   -3.3612    3.7436   -3.0919 H   0  0  0  0  0  0  0  0  0  0  0  0
   -3.0497    6.2984   -2.1561 H   0  0  0  0  0  0  0  0  0  0  0  0
   -4.4148    6.3155    0.2440 H   0  0  0  0  0  0  0  0  0  0  0  0
   -3.8372   -2.5704   -0.0982 H   0  0  0  0  0  0  0  0  0  0  0  0
   -1.6965   -6.9417    0.3344 H   0  0  0  0  0  0  0  0  0  0  0  0
    0.3325   -8.2992    0.6732 H   0  0  0  0  0  0  0  0  0  0  0  0
    2.5140   -7.1858    1.0690 H   0  0  0  0  0  0  0  0  0  0  0  0
    2.6449   -4.7036    1.1278 H   0  0  0  0  0  0  0  0  0  0  0  0
    1.8322    2.7253    0.1708 H   0  0  0  0  0  0  0  0  0  0  0  0
    3.9209    3.9748    0.3500 H   0  0  0  0  0  0  0  0  0  0  0  0
  1  2  1  0
  2  3  1  0
  3  4  2  0
  4  5  1  0
  5  6  2  0
  6  7  1  0
  7  8  1  0
  8  9  1  0
  9 10  1  0
 10 11  2  3
 10 12  1  0
 12 13  1  0
 13 14  2  0
 13 15  1  0
 15 16  1  0
 16 17  1  0
 17 18  2  0
 18 19  1  0
 19 20  2  0
 20 21  1  0
 12 22  2  0
 22 23  1  0
 23 24  1  0
 24 25  2  0
 24 26  1  0
 26 27  1  0
 27 28  2  0
 28 29  1  0
 29 30  2  0
 30 31  1  0
 31 32  2  0
 32 33  1  0
  6 34  1  0
 34 35  2  0
 35  3  1  0
 33  9  1  0
 21 17  1  0
 33 23  2  0
 31 26  1  0
  1 36  1  0
  1 37  1  0
  1 38  1  0
  4 39  1  0
  5 40  1  0
  7 41  1  0
  7 42  1  0
  8 43  1  0
  8 44  1  0
 11 45  1  0
 15 46  1  0
 16 47  1  0
 16 48  1  0
 18 49  1  0
 19 50  1  0
 20 51  1  0
 22 52  1  0
 27 53  1  0
 28 54  1  0
 29 55  1  0
 30 56  1  0
 34 57  1  0
 35 58  1  0
M  END
$$$$
