
     RDKit          3D

 44 46  0  0  0  0  0  0  0  0999 V2000
   -3.0483   -2.4428   -3.2306 C   0  0  0  0  0  0  0  0  0  0  0  0
   -2.8980   -1.3258   -2.2351 C   0  0  0  0  0  0  0  0  0  0  0  0
   -3.2964   -0.0281   -2.5808 C   0  0  0  0  0  0  0  0  0  0  0  0
   -3.1416    1.0272   -1.6806 C   0  0  0  0  0  0  0  0  0  0  0  0
   -2.5922    0.8073   -0.4121 C   0  0  0  0  0  0  0  0  0  0  0  0
   -2.4281    1.9707    0.5512 C   0  0  0  0  0  0  0  0  0  0  0  0
   -3.2579    1.7732    1.8225 C   0  0  0  0  0  0  0  0  0  0  0  0
   -0.9543    2.2105    0.8923 C   0  0  0  0  0  0  0  0  0  0  0  0
   -2.1978   -0.4967   -0.0667 C   0  0  0  0  0  0  0  0  0  0  0  0
   -2.3259   -1.5562   -0.9736 C   0  0  0  0  0  0  0  0  0  0  0  0
   -1.9474   -2.8490   -0.7175 O   0  0  0  0  0  0  0  0  0  0  0  0
   -0.9658   -3.0600    0.2836 C   0  0  0  0  0  0  0  0  0  0  0  0
    0.4197   -2.4531   -0.0028 C   0  0  0  0  0  0  0  0  0  0  0  0
    0.9331   -2.5285   -1.1144 O   0  0  0  0  0  0  0  0  0  0  0  0
    0.9688   -1.8562    1.1139 N   0  0  0  0  0  0  0  0  0  0  0  0
    2.1441   -1.1506    1.1756 C   0  0  0  0  0  0  0  0  0  0  0  0
    2.5847   -0.6421    2.3065 N   0  0  0  0  0  0  0  0  0  0  0  0
    3.7763    0.0379    2.1405 N   0  0  0  0  0  0  0  0  0  0  0  0
    4.1663    0.0208    0.8852 C   0  0  0  0  0  0  0  0  0  0  0  0
    5.4807    0.7111    0.4092 C   0  0  0  0  0  0  0  0  0  0  0  0
    5.8949    2.0200    1.0322 C   0  0  0  0  0  0  0  0  0  0  0  0
    5.3925    1.9916   -0.3817 C   0  0  0  0  0  0  0  0  0  0  0  0
    3.1320   -0.8299   -0.1741 S   0  0  0  0  0  0  0  0  0  0  0  0
   -3.5900   -3.2835   -2.7846 H   0  0  0  0  0  0  0  0  0  0  0  0
   -3.6147   -2.1217   -4.1111 H   0  0  0  0  0  0  0  0  0  0  0  0
   -2.0632   -2.7816   -3.5681 H   0  0  0  0  0  0  0  0  0  0  0  0
   -3.7254    0.1714   -3.5606 H   0  0  0  0  0  0  0  0  0  0  0  0
   -3.4556    2.0241   -1.9821 H   0  0  0  0  0  0  0  0  0  0  0  0
   -2.7982    2.8825    0.0635 H   0  0  0  0  0  0  0  0  0  0  0  0
   -4.3140    1.6098    1.5798 H   0  0  0  0  0  0  0  0  0  0  0  0
   -3.1946    2.6588    2.4643 H   0  0  0  0  0  0  0  0  0  0  0  0
   -2.9133    0.9142    2.4086 H   0  0  0  0  0  0  0  0  0  0  0  0
   -0.3615    2.3628   -0.0173 H   0  0  0  0  0  0  0  0  0  0  0  0
   -0.8451    3.1037    1.5173 H   0  0  0  0  0  0  0  0  0  0  0  0
   -0.5160    1.3676    1.4381 H   0  0  0  0  0  0  0  0  0  0  0  0
   -1.7992   -0.6592    0.9279 H   0  0  0  0  0  0  0  0  0  0  0  0
   -1.3520   -2.7662    1.2664 H   0  0  0  0  0  0  0  0  0  0  0  0
   -0.8067   -4.1435    0.3453 H   0  0  0  0  0  0  0  0  0  0  0  0
    0.5004   -1.9153    2.0073 H   0  0  0  0  0  0  0  0  0  0  0  0
    6.2747    0.0175    0.1547 H   0  0  0  0  0  0  0  0  0  0  0  0
    5.2561    2.4565    1.7925 H   0  0  0  0  0  0  0  0  0  0  0  0
    6.9529    2.1879    1.1959 H   0  0  0  0  0  0  0  0  0  0  0  0
    4.4161    2.4211   -0.5771 H   0  0  0  0  0  0  0  0  0  0  0  0
    6.1097    2.1420   -1.1804 H   0  0  0  0  0  0  0  0  0  0  0  0
  1  2  1  0
  2  3  2  0
  3  4  1  0
  4  5  2  0
  5  6  1  0
  6  7  1  0
  6  8  1  0
  5  9  1  0
  9 10  2  0
 10 11  1  0
 11 12  1  0
 12 13  1  0
 13 14  2  0
 13 15  1  0
 15 16  1  0
 16 17  2  0
 17 18  1  0
 18 19  2  0
 19 20  1  0
 20 21  1  0
 21 22  1  0
 19 23  1  0
 10  2  1  0
 23 16  1  0
 22 20  1  0
  1 24  1  0
  1 25  1  0
  1 26  1  0
  3 27  1  0
  4 28  1  0
  6 29  1  0
  7 30  1  0
  7 31  1  0
  7 32  1  0
  8 33  1  0
  8 34  1  0
  8 35  1  0
  9 36  1  0
 12 37  1  0
 12 38  1  0
 15 39  1  0
 20 40  1  0
 21 41  1  0
 21 42  1  0
 22 43  1  0
 22 44  1  0
M  END
$$$$
