
     RDKit          3D

 43 45  0  0  0  0  0  0  0  0999 V2000
    6.1565   -2.5556    0.0225 C   0  0  0  0  0  0  0  0  0  0  0  0
    5.4681   -1.2332    0.1898 C   0  0  0  0  0  0  0  0  0  0  0  0
    6.2130   -0.0700    0.4091 C   0  0  0  0  0  0  0  0  0  0  0  0
    5.5771    1.1708    0.5289 C   0  0  0  0  0  0  0  0  0  0  0  0
    6.3734    2.4118    0.8062 C   0  0  0  0  0  0  0  0  0  0  0  0
    4.1778    1.2399    0.4411 C   0  0  0  0  0  0  0  0  0  0  0  0
    3.4183    0.0933    0.2041 C   0  0  0  0  0  0  0  0  0  0  0  0
    2.0107    0.0869    0.0963 N   0  0  0  0  0  0  0  0  0  0  0  0
    1.1599    1.1766    0.1207 C   0  0  0  0  0  0  0  0  0  0  0  0
    1.4755    2.3595    0.1715 O   0  0  0  0  0  0  0  0  0  0  0  0
   -0.2911    0.8425    0.0323 C   0  0  0  0  0  0  0  0  0  0  0  0
   -1.1411    1.7257   -0.6388 C   0  0  0  0  0  0  0  0  0  0  0  0
   -2.5077    1.4468   -0.7406 C   0  0  0  0  0  0  0  0  0  0  0  0
   -3.0472    0.2867   -0.1686 C   0  0  0  0  0  0  0  0  0  0  0  0
   -4.4354    0.0848   -0.3223 N   0  0  0  0  0  0  0  0  0  0  0  0
   -5.1981   -0.9870    0.1277 C   0  0  0  0  0  0  0  0  0  0  0  0
   -4.7373   -1.9511    0.7324 O   0  0  0  0  0  0  0  0  0  0  0  0
   -6.6188   -0.8779   -0.1870 C   0  0  0  0  0  0  0  0  0  0  0  0
   -7.3893    0.0702   -0.8437 C   0  0  0  0  0  0  0  0  0  0  0  0
   -8.7277   -0.3984   -0.8273 C   0  0  0  0  0  0  0  0  0  0  0  0
   -8.7032   -1.5991   -0.1633 C   0  0  0  0  0  0  0  0  0  0  0  0
   -7.4402   -1.8986    0.2248 O   0  0  0  0  0  0  0  0  0  0  0  0
   -2.1961   -0.5815    0.5184 C   0  0  0  0  0  0  0  0  0  0  0  0
   -0.8262   -0.3054    0.6252 C   0  0  0  0  0  0  0  0  0  0  0  0
    4.0740   -1.1388    0.0748 C   0  0  0  0  0  0  0  0  0  0  0  0
    7.0913   -2.5856    0.5928 H   0  0  0  0  0  0  0  0  0  0  0  0
    5.5264   -3.3718    0.3903 H   0  0  0  0  0  0  0  0  0  0  0  0
    6.3817   -2.7292   -1.0344 H   0  0  0  0  0  0  0  0  0  0  0  0
    7.2969   -0.1293    0.4879 H   0  0  0  0  0  0  0  0  0  0  0  0
    6.4061    2.6021    1.8835 H   0  0  0  0  0  0  0  0  0  0  0  0
    5.9294    3.2781    0.3040 H   0  0  0  0  0  0  0  0  0  0  0  0
    7.3995    2.3123    0.4352 H   0  0  0  0  0  0  0  0  0  0  0  0
    3.7036    2.2092    0.5616 H   0  0  0  0  0  0  0  0  0  0  0  0
    1.5947   -0.8172   -0.0799 H   0  0  0  0  0  0  0  0  0  0  0  0
   -0.7395    2.6331   -1.0871 H   0  0  0  0  0  0  0  0  0  0  0  0
   -3.1381    2.1540   -1.2741 H   0  0  0  0  0  0  0  0  0  0  0  0
   -4.9249    0.8084   -0.8275 H   0  0  0  0  0  0  0  0  0  0  0  0
   -7.0463    0.9931   -1.2880 H   0  0  0  0  0  0  0  0  0  0  0  0
   -9.6018    0.0808   -1.2454 H   0  0  0  0  0  0  0  0  0  0  0  0
   -9.4579   -2.3269    0.1025 H   0  0  0  0  0  0  0  0  0  0  0  0
   -2.5637   -1.4830    0.9990 H   0  0  0  0  0  0  0  0  0  0  0  0
   -0.2046   -0.9826    1.2060 H   0  0  0  0  0  0  0  0  0  0  0  0
    3.5023   -2.0442   -0.1151 H   0  0  0  0  0  0  0  0  0  0  0  0
  1  2  1  0
  2  3  2  0
  3  4  1  0
  4  5  1  0
  4  6  2  0
  6  7  1  0
  7  8  1  0
  8  9  1  0
  9 10  2  0
  9 11  1  0
 11 12  2  0
 12 13  1  0
 13 14  2  0
 14 15  1  0
 15 16  1  0
 16 17  2  0
 16 18  1  0
 18 19  2  0
 19 20  1  0
 20 21  2  0
 21 22  1  0
 14 23  1  0
 23 24  2  0
  7 25  2  0
 25  2  1  0
 24 11  1  0
 22 18  1  0
  1 26  1  0
  1 27  1  0
  1 28  1  0
  3 29  1  0
  5 30  1  0
  5 31  1  0
  5 32  1  0
  6 33  1  0
  8 34  1  0
 12 35  1  0
 13 36  1  0
 15 37  1  0
 19 38  1  0
 20 39  1  0
 21 40  1  0
 23 41  1  0
 24 42  1  0
 25 43  1  0
M  END
$$$$
