
     RDKit          3D

 34 35  0  0  0  0  0  0  0  0999 V2000
   -1.4804    1.7514    1.8907 C   0  0  0  0  0  0  0  0  0  0  0  0
   -0.1233    1.2885    1.6360 N   0  0  0  0  0  0  0  0  0  0  0  0
    0.1193    0.5115    0.6290 C   0  0  0  0  0  0  0  0  0  0  0  0
    1.5341    0.0511    0.3943 C   0  0  0  0  0  0  0  0  0  0  0  0
    1.8810   -0.7905   -0.6724 C   0  0  0  0  0  0  0  0  0  0  0  0
    3.2076   -1.1937   -0.8532 C   0  0  0  0  0  0  0  0  0  0  0  0
    4.1976   -0.7616    0.0270 C   0  0  0  0  0  0  0  0  0  0  0  0
    3.8648    0.0745    1.0901 C   0  0  0  0  0  0  0  0  0  0  0  0
    2.5403    0.4787    1.2729 C   0  0  0  0  0  0  0  0  0  0  0  0
   -0.9356    0.0453   -0.3168 C   0  0  0  0  0  0  0  0  0  0  0  0
   -1.6211   -1.1580   -0.0483 C   0  0  0  0  0  0  0  0  0  0  0  0
   -1.3131   -1.9974    1.1607 C   0  0  0  0  0  0  0  0  0  0  0  0
   -2.5919   -1.5923   -0.9604 C   0  0  0  0  0  0  0  0  0  0  0  0
   -2.8771   -0.8461   -2.1039 C   0  0  0  0  0  0  0  0  0  0  0  0
   -2.1941    0.3433   -2.3580 C   0  0  0  0  0  0  0  0  0  0  0  0
   -1.2168    0.8093   -1.4689 C   0  0  0  0  0  0  0  0  0  0  0  0
   -0.4752    2.0792   -1.7829 C   0  0  0  0  0  0  0  0  0  0  0  0
   -2.1639    0.9231    2.0992 H   0  0  0  0  0  0  0  0  0  0  0  0
   -1.4711    2.3900    2.7799 H   0  0  0  0  0  0  0  0  0  0  0  0
   -1.8685    2.3569    1.0664 H   0  0  0  0  0  0  0  0  0  0  0  0
    1.1375   -1.1479   -1.3790 H   0  0  0  0  0  0  0  0  0  0  0  0
    3.4670   -1.8464   -1.6831 H   0  0  0  0  0  0  0  0  0  0  0  0
    5.2283   -1.0761   -0.1151 H   0  0  0  0  0  0  0  0  0  0  0  0
    4.6334    0.4143    1.7795 H   0  0  0  0  0  0  0  0  0  0  0  0
    2.2972    1.1320    2.1084 H   0  0  0  0  0  0  0  0  0  0  0  0
   -0.3222   -2.4516    1.0640 H   0  0  0  0  0  0  0  0  0  0  0  0
   -1.3518   -1.3990    2.0755 H   0  0  0  0  0  0  0  0  0  0  0  0
   -2.0411   -2.8073    1.2782 H   0  0  0  0  0  0  0  0  0  0  0  0
   -3.1347   -2.5194   -0.7873 H   0  0  0  0  0  0  0  0  0  0  0  0
   -3.6341   -1.1949   -2.8025 H   0  0  0  0  0  0  0  0  0  0  0  0
   -2.4310    0.9046   -3.2597 H   0  0  0  0  0  0  0  0  0  0  0  0
   -0.4954    2.7673   -0.9328 H   0  0  0  0  0  0  0  0  0  0  0  0
    0.5631    1.8561   -2.0466 H   0  0  0  0  0  0  0  0  0  0  0  0
   -0.9287    2.6051   -2.6301 H   0  0  0  0  0  0  0  0  0  0  0  0
  1  2  1  0
  2  3  2  3
  3  4  1  0
  4  5  2  0
  5  6  1  0
  6  7  2  0
  7  8  1  0
  8  9  2  0
  3 10  1  0
 10 11  2  0
 11 12  1  0
 11 13  1  0
 13 14  2  0
 14 15  1  0
 15 16  2  0
 16 17  1  0
  9  4  1  0
 16 10  1  0
  1 18  1  0
  1 19  1  0
  1 20  1  0
  5 21  1  0
  6 22  1  0
  7 23  1  0
  8 24  1  0
  9 25  1  0
 12 26  1  0
 12 27  1  0
 12 28  1  0
 13 29  1  0
 14 30  1  0
 15 31  1  0
 17 32  1  0
 17 33  1  0
 17 34  1  0
M  END
$$$$
