
     RDKit          3D

 59 64  0  0  0  0  0  0  0  0999 V2000
    3.9249   -2.2188    2.0263 O   0  0  0  0  0  0  0  0  0  0  0  0
    3.3944   -1.2127    1.5728 C   0  0  0  0  0  0  0  0  0  0  0  0
    4.2231   -0.0226    1.2966 C   0  0  0  0  0  0  0  0  0  0  0  0
    4.9879   -0.0304    0.1973 C   0  0  0  0  0  0  0  0  0  0  0  0
    5.7662    1.0992   -0.1804 C   0  0  0  0  0  0  0  0  0  0  0  0
    6.3044    2.1224    0.5807 C   0  0  0  0  0  0  0  0  0  0  0  0
    7.0250    3.0759   -0.1981 C   0  0  0  0  0  0  0  0  0  0  0  0
    7.0135    2.7655   -1.5371 C   0  0  0  0  0  0  0  0  0  0  0  0
    6.1603    1.3263   -1.8416 S   0  0  0  0  0  0  0  0  0  0  0  0
    2.0324   -1.0988    1.2870 N   0  0  0  0  0  0  0  0  0  0  0  0
    1.2679   -2.3375    1.3554 C   0  0  0  0  0  0  0  0  0  0  0  0
   -0.2319   -2.1066    1.5124 C   0  0  0  0  0  0  0  0  0  0  0  0
   -0.7954   -1.1563    0.4232 C   0  0  0  0  0  0  0  0  0  0  0  0
    0.0128    0.1597    0.5435 C   0  0  0  0  0  0  0  0  0  0  0  0
    1.5153   -0.0675    0.3887 C   0  0  0  0  0  0  0  0  0  0  0  0
   -0.5060   -1.6694   -0.9011 O   0  0  0  0  0  0  0  0  0  0  0  0
   -1.2679   -2.7247   -1.3142 C   0  0  0  0  0  0  0  0  0  0  0  0
   -0.7574   -3.4733   -2.3772 C   0  0  0  0  0  0  0  0  0  0  0  0
   -1.4640   -4.5793   -2.8508 C   0  0  0  0  0  0  0  0  0  0  0  0
   -2.6772   -4.9257   -2.2635 C   0  0  0  0  0  0  0  0  0  0  0  0
   -3.3488   -5.9909   -2.7168 F   0  0  0  0  0  0  0  0  0  0  0  0
   -3.2047   -4.1801   -1.2157 C   0  0  0  0  0  0  0  0  0  0  0  0
   -2.4976   -3.0690   -0.7512 C   0  0  0  0  0  0  0  0  0  0  0  0
   -3.0506   -2.2313    0.3299 C   0  0  0  0  0  0  0  0  0  0  0  0
   -4.0632   -2.5964    0.9164 O   0  0  0  0  0  0  0  0  0  0  0  0
   -2.3243   -0.9158    0.5852 C   0  0  0  0  0  0  0  0  0  0  0  0
   -2.9297    0.1329   -0.3398 C   0  0  0  0  0  0  0  0  0  0  0  0
   -3.0722    1.2531    0.6350 C   0  0  0  0  0  0  0  0  0  0  0  0
   -3.3647    2.6427    0.2074 C   0  0  0  0  0  0  0  0  0  0  0  0
   -3.5551    2.9710   -1.1382 C   0  0  0  0  0  0  0  0  0  0  0  0
   -3.8030    4.2981   -1.5051 C   0  0  0  0  0  0  0  0  0  0  0  0
   -3.8713    5.2925   -0.5337 C   0  0  0  0  0  0  0  0  0  0  0  0
   -3.6833    4.9695    0.8076 C   0  0  0  0  0  0  0  0  0  0  0  0
   -3.4319    3.6490    1.1783 C   0  0  0  0  0  0  0  0  0  0  0  0
   -2.9122    0.9162    1.8729 N   0  0  0  0  0  0  0  0  0  0  0  0
   -2.6349   -0.4693    1.9092 O   0  0  0  0  0  0  0  0  0  0  0  0
    4.1289    0.8064    1.9871 H   0  0  0  0  0  0  0  0  0  0  0  0
    4.9916   -0.9039   -0.4482 H   0  0  0  0  0  0  0  0  0  0  0  0
    6.2040    2.1788    1.6587 H   0  0  0  0  0  0  0  0  0  0  0  0
    7.5259    3.9438    0.2032 H   0  0  0  0  0  0  0  0  0  0  0  0
    7.4765    3.3110   -2.3480 H   0  0  0  0  0  0  0  0  0  0  0  0
    1.6213   -2.9396    2.1993 H   0  0  0  0  0  0  0  0  0  0  0  0
    1.4826   -2.9091    0.4444 H   0  0  0  0  0  0  0  0  0  0  0  0
   -0.4218   -1.6819    2.5069 H   0  0  0  0  0  0  0  0  0  0  0  0
   -0.7234   -3.0860    1.4851 H   0  0  0  0  0  0  0  0  0  0  0  0
   -0.1735    0.6375    1.5169 H   0  0  0  0  0  0  0  0  0  0  0  0
   -0.2853    0.8731   -0.2386 H   0  0  0  0  0  0  0  0  0  0  0  0
    2.0264    0.8835    0.5691 H   0  0  0  0  0  0  0  0  0  0  0  0
    1.7606   -0.3716   -0.6364 H   0  0  0  0  0  0  0  0  0  0  0  0
    0.1957   -3.2051   -2.8281 H   0  0  0  0  0  0  0  0  0  0  0  0
   -1.0751   -5.1778   -3.6695 H   0  0  0  0  0  0  0  0  0  0  0  0
   -4.1568   -4.4676   -0.7792 H   0  0  0  0  0  0  0  0  0  0  0  0
   -2.2893    0.3878   -1.1880 H   0  0  0  0  0  0  0  0  0  0  0  0
   -3.9291   -0.1376   -0.7102 H   0  0  0  0  0  0  0  0  0  0  0  0
   -3.5125    2.2209   -1.9200 H   0  0  0  0  0  0  0  0  0  0  0  0
   -3.9451    4.5568   -2.5520 H   0  0  0  0  0  0  0  0  0  0  0  0
   -4.0602    6.3266   -0.8231 H   0  0  0  0  0  0  0  0  0  0  0  0
   -3.7311    5.7441    1.5683 H   0  0  0  0  0  0  0  0  0  0  0  0
   -3.2913    3.4122    2.2309 H   0  0  0  0  0  0  0  0  0  0  0  0
  1  2  2  0
  2  3  1  0
  3  4  2  3
  4  5  1  0
  5  6  2  0
  6  7  1  0
  7  8  2  0
  8  9  1  0
  2 10  1  0
 10 11  1  0
 11 12  1  0
 12 13  1  0
 13 14  1  0
 14 15  1  0
 13 16  1  0
 16 17  1  0
 17 18  2  0
 18 19  1  0
 19 20  2  0
 20 21  1  0
 20 22  1  0
 22 23  2  0
 23 24  1  0
 24 25  2  0
 24 26  1  0
 26 27  1  0
 27 28  1  0
 28 29  1  0
 29 30  2  0
 30 31  1  0
 31 32  2  0
 32 33  1  0
 33 34  2  0
 28 35  2  0
 35 36  1  0
  9  5  1  0
 15 10  1  0
 23 17  1  0
 36 26  1  0
 26 13  1  0
 34 29  1  0
  3 37  1  0
  4 38  1  0
  6 39  1  0
  7 40  1  0
  8 41  1  0
 11 42  1  0
 11 43  1  0
 12 44  1  0
 12 45  1  0
 14 46  1  0
 14 47  1  0
 15 48  1  0
 15 49  1  0
 18 50  1  0
 19 51  1  0
 22 52  1  0
 27 53  1  0
 27 54  1  0
 30 55  1  0
 31 56  1  0
 32 57  1  0
 33 58  1  0
 34 59  1  0
M  END
$$$$
