
     RDKit          3D

 35 37  0  0  0  0  0  0  0  0999 V2000
   -1.6259   -2.6424    1.8915 C   0  0  0  0  0  0  0  0  0  0  0  0
   -1.8006   -1.3346    1.1227 C   0  0  0  0  0  0  0  0  0  0  0  0
   -2.9579   -0.6891    1.6596 O   0  0  0  0  0  0  0  0  0  0  0  0
   -3.5690    0.0948    0.7204 C   0  0  0  0  0  0  0  0  0  0  0  0
   -4.5298   -0.4625   -0.1225 C   0  0  0  0  0  0  0  0  0  0  0  0
   -5.1723    0.3442   -1.0629 C   0  0  0  0  0  0  0  0  0  0  0  0
   -4.8581    1.7020   -1.1383 C   0  0  0  0  0  0  0  0  0  0  0  0
   -5.7269    2.7938   -2.4137 Br  0  0  0  0  0  0  0  0  0  0  0  0
   -3.9158    2.2625   -0.2757 C   0  0  0  0  0  0  0  0  0  0  0  0
   -3.2753    1.4555    0.6653 C   0  0  0  0  0  0  0  0  0  0  0  0
   -0.5031   -0.5019    1.2497 C   0  0  0  0  0  0  0  0  0  0  0  0
   -0.4198    0.4675    1.9967 O   0  0  0  0  0  0  0  0  0  0  0  0
    0.5088   -0.9841    0.4403 N   0  0  0  0  0  0  0  0  0  0  0  0
    1.7414   -0.3925    0.3907 C   0  0  0  0  0  0  0  0  0  0  0  0
    2.2178    0.6461    1.0313 N   0  0  0  0  0  0  0  0  0  0  0  0
    3.5309    0.9080    0.6770 N   0  0  0  0  0  0  0  0  0  0  0  0
    3.9693    0.0526   -0.2187 C   0  0  0  0  0  0  0  0  0  0  0  0
    5.4208    0.1142   -0.7854 C   0  0  0  0  0  0  0  0  0  0  0  0
    6.0079    1.4542   -1.1499 C   0  0  0  0  0  0  0  0  0  0  0  0
    5.6382    0.4818   -2.2313 C   0  0  0  0  0  0  0  0  0  0  0  0
    2.8367   -1.1418   -0.6876 S   0  0  0  0  0  0  0  0  0  0  0  0
   -1.4553   -2.4465    2.9562 H   0  0  0  0  0  0  0  0  0  0  0  0
   -0.7819   -3.2280    1.5146 H   0  0  0  0  0  0  0  0  0  0  0  0
   -2.5328   -3.2525    1.8210 H   0  0  0  0  0  0  0  0  0  0  0  0
   -1.9502   -1.5836    0.0622 H   0  0  0  0  0  0  0  0  0  0  0  0
   -4.7841   -1.5152   -0.0431 H   0  0  0  0  0  0  0  0  0  0  0  0
   -5.9193   -0.0893   -1.7220 H   0  0  0  0  0  0  0  0  0  0  0  0
   -3.6781    3.3220   -0.3206 H   0  0  0  0  0  0  0  0  0  0  0  0
   -2.5523    1.8890    1.3530 H   0  0  0  0  0  0  0  0  0  0  0  0
    0.3662   -1.7817   -0.1598 H   0  0  0  0  0  0  0  0  0  0  0  0
    6.0964   -0.6092   -0.3419 H   0  0  0  0  0  0  0  0  0  0  0  0
    5.3924    2.3388   -1.0242 H   0  0  0  0  0  0  0  0  0  0  0  0
    7.0593    1.6173   -0.9437 H   0  0  0  0  0  0  0  0  0  0  0  0
    4.7804    0.7238   -2.8486 H   0  0  0  0  0  0  0  0  0  0  0  0
    6.4420   -0.0133   -2.7643 H   0  0  0  0  0  0  0  0  0  0  0  0
  1  2  1  0
  2  3  1  0
  3  4  1  0
  4  5  2  0
  5  6  1  0
  6  7  2  0
  7  8  1  0
  7  9  1  0
  9 10  2  0
  2 11  1  0
 11 12  2  0
 11 13  1  0
 13 14  1  0
 14 15  2  0
 15 16  1  0
 16 17  2  0
 17 18  1  0
 18 19  1  0
 19 20  1  0
 17 21  1  0
 10  4  1  0
 21 14  1  0
 20 18  1  0
  1 22  1  0
  1 23  1  0
  1 24  1  0
  2 25  1  0
  5 26  1  0
  6 27  1  0
  9 28  1  0
 10 29  1  0
 13 30  1  0
 18 31  1  0
 19 32  1  0
 19 33  1  0
 20 34  1  0
 20 35  1  0
M  END
$$$$
