
     RDKit          3D

 48 51  0  0  0  0  0  0  0  0999 V2000
    1.8688   -0.9032   -2.3523 C   0  0  0  0  0  0  0  0  0  0  0  0
    1.6840   -1.0270   -0.8465 C   0  0  0  0  0  0  0  0  0  0  0  0
    2.3552    0.0575   -0.1307 N   0  0  0  0  0  0  0  0  0  0  0  0
    1.9148    1.3747    0.0594 C   0  0  0  0  0  0  0  0  0  0  0  0
    0.6806    1.9124    0.0281 C   0  0  0  0  0  0  0  0  0  0  0  0
   -0.5835    1.2205   -0.2132 C   0  0  0  0  0  0  0  0  0  0  0  0
   -1.0899    1.2429   -1.5119 C   0  0  0  0  0  0  0  0  0  0  0  0
   -2.2894    0.6206   -1.7976 C   0  0  0  0  0  0  0  0  0  0  0  0
   -2.9942   -0.0049   -0.7767 C   0  0  0  0  0  0  0  0  0  0  0  0
   -4.2190   -0.6271   -1.0652 C   0  0  0  0  0  0  0  0  0  0  0  0
   -4.9611   -1.2590   -0.0641 C   0  0  0  0  0  0  0  0  0  0  0  0
   -6.2868   -1.8905   -0.3813 C   0  0  0  0  0  0  0  0  0  0  0  0
   -4.4818   -1.2373    1.2437 C   0  0  0  0  0  0  0  0  0  0  0  0
   -3.2607   -0.6220    1.5451 C   0  0  0  0  0  0  0  0  0  0  0  0
   -2.4802   -0.0028    0.5496 C   0  0  0  0  0  0  0  0  0  0  0  0
   -1.2688    0.6050    0.7987 N   0  0  0  0  0  4  0  0  0  0  0  0
   -0.6873    0.5951    2.1776 C   0  0  0  0  0  0  0  0  0  0  0  0
   -1.2025    1.7877    2.9610 C   0  0  0  0  0  0  0  0  0  0  0  0
    3.2168    2.5211    0.5084 S   0  0  0  0  0  0  0  0  0  0  0  0
    4.3799    1.1741    0.4268 C   0  0  0  0  0  0  0  0  0  0  0  0
    5.7439    1.2736    0.6667 C   0  0  0  0  0  0  0  0  0  0  0  0
    6.5244    0.1269    0.5447 C   0  0  0  0  0  0  0  0  0  0  0  0
    5.9345   -1.0903    0.1872 C   0  0  0  0  0  0  0  0  0  0  0  0
    4.5564   -1.1784   -0.0532 C   0  0  0  0  0  0  0  0  0  0  0  0
    3.7603   -0.0414    0.0627 C   0  0  0  0  0  0  0  0  0  0  0  0
    1.5070    0.0609   -2.7223 H   0  0  0  0  0  0  0  0  0  0  0  0
    2.9225   -0.9926   -2.6350 H   0  0  0  0  0  0  0  0  0  0  0  0
    1.3144   -1.6946   -2.8664 H   0  0  0  0  0  0  0  0  0  0  0  0
    0.6161   -1.0348   -0.6146 H   0  0  0  0  0  0  0  0  0  0  0  0
    2.0297   -2.0090   -0.5056 H   0  0  0  0  0  0  0  0  0  0  0  0
    0.5518    2.9792    0.2126 H   0  0  0  0  0  0  0  0  0  0  0  0
   -0.5448    1.7441   -2.3114 H   0  0  0  0  0  0  0  0  0  0  0  0
   -2.6704    0.6388   -2.8186 H   0  0  0  0  0  0  0  0  0  0  0  0
   -4.6112   -0.6218   -2.0834 H   0  0  0  0  0  0  0  0  0  0  0  0
   -7.0849   -1.1468   -0.2957 H   0  0  0  0  0  0  0  0  0  0  0  0
   -6.4989   -2.7184    0.3033 H   0  0  0  0  0  0  0  0  0  0  0  0
   -6.2901   -2.3001   -1.3969 H   0  0  0  0  0  0  0  0  0  0  0  0
   -5.0606   -1.7004    2.0434 H   0  0  0  0  0  0  0  0  0  0  0  0
   -2.9690   -0.6433    2.5905 H   0  0  0  0  0  0  0  0  0  0  0  0
   -0.9302   -0.3544    2.6613 H   0  0  0  0  0  0  0  0  0  0  0  0
    0.4025    0.6039    2.1254 H   0  0  0  0  0  0  0  0  0  0  0  0
   -0.9203    2.7297    2.4807 H   0  0  0  0  0  0  0  0  0  0  0  0
   -0.7852    1.7839    3.9725 H   0  0  0  0  0  0  0  0  0  0  0  0
   -2.2933    1.7744    3.0435 H   0  0  0  0  0  0  0  0  0  0  0  0
    6.1981    2.2214    0.9388 H   0  0  0  0  0  0  0  0  0  0  0  0
    7.5962    0.1772    0.7253 H   0  0  0  0  0  0  0  0  0  0  0  0
    6.5562   -1.9792    0.0949 H   0  0  0  0  0  0  0  0  0  0  0  0
    4.1498   -2.1462   -0.3229 H   0  0  0  0  0  0  0  0  0  0  0  0
  1  2  1  0
  2  3  1  0
  3  4  1  0
  4  5  2  3
  5  6  1  0
  6  7  2  0
  7  8  1  0
  8  9  2  0
  9 10  1  0
 10 11  2  0
 11 12  1  0
 11 13  1  0
 13 14  2  0
 14 15  1  0
 15 16  2  0
 16 17  1  0
 17 18  1  0
  4 19  1  0
 19 20  1  0
 20 21  2  0
 21 22  1  0
 22 23  2  0
 23 24  1  0
 24 25  2  0
 25  3  1  0
 16  6  1  0
 25 20  1  0
 15  9  1  0
  1 26  1  0
  1 27  1  0
  1 28  1  0
  2 29  1  0
  2 30  1  0
  5 31  1  0
  7 32  1  0
  8 33  1  0
 10 34  1  0
 12 35  1  0
 12 36  1  0
 12 37  1  0
 13 38  1  0
 14 39  1  0
 17 40  1  0
 17 41  1  0
 18 42  1  0
 18 43  1  0
 18 44  1  0
 21 45  1  0
 22 46  1  0
 23 47  1  0
 24 48  1  0
M  CHG  1  16   1
M  END
$$$$
