
     RDKit          3D

 35 37  0  0  0  0  0  0  0  0999 V2000
   -1.5412   -1.9193    2.6248 C   0  0  0  0  0  0  0  0  0  0  0  0
   -1.7624   -1.0384    1.3970 C   0  0  0  0  0  0  0  0  0  0  0  0
   -3.0323   -1.4019    0.8496 O   0  0  0  0  0  0  0  0  0  0  0  0
   -3.6316   -0.3356    0.2380 C   0  0  0  0  0  0  0  0  0  0  0  0
   -3.4457   -0.1276   -1.1270 C   0  0  0  0  0  0  0  0  0  0  0  0
   -4.0787    0.9467   -1.7536 C   0  0  0  0  0  0  0  0  0  0  0  0
   -4.9058    1.7896   -1.0106 C   0  0  0  0  0  0  0  0  0  0  0  0
   -5.7647    3.2450   -1.8582 Br  0  0  0  0  0  0  0  0  0  0  0  0
   -5.1125    1.5637    0.3512 C   0  0  0  0  0  0  0  0  0  0  0  0
   -4.4779    0.4899    0.9773 C   0  0  0  0  0  0  0  0  0  0  0  0
   -0.5813   -1.2348    0.4177 C   0  0  0  0  0  0  0  0  0  0  0  0
   -0.6882   -1.8954   -0.6103 O   0  0  0  0  0  0  0  0  0  0  0  0
    0.5648   -0.5896    0.8445 N   0  0  0  0  0  0  0  0  0  0  0  0
    1.7283   -0.6276    0.1257 C   0  0  0  0  0  0  0  0  0  0  0  0
    2.0164   -1.2252   -1.0039 N   0  0  0  0  0  0  0  0  0  0  0  0
    3.3298   -1.0002   -1.3817 N   0  0  0  0  0  0  0  0  0  0  0  0
    3.9576   -0.2371   -0.5159 C   0  0  0  0  0  0  0  0  0  0  0  0
    5.4532    0.1666   -0.6945 C   0  0  0  0  0  0  0  0  0  0  0  0
    5.9506    0.5462   -2.0662 C   0  0  0  0  0  0  0  0  0  0  0  0
    5.8015    1.5997   -1.0079 C   0  0  0  0  0  0  0  0  0  0  0  0
    3.0158    0.2524    0.8269 S   0  0  0  0  0  0  0  0  0  0  0  0
   -0.6058   -1.6770    3.1385 H   0  0  0  0  0  0  0  0  0  0  0  0
   -2.3683   -1.8033    3.3335 H   0  0  0  0  0  0  0  0  0  0  0  0
   -1.5094   -2.9778    2.3421 H   0  0  0  0  0  0  0  0  0  0  0  0
   -1.7657    0.0102    1.7288 H   0  0  0  0  0  0  0  0  0  0  0  0
   -2.8160   -0.8010   -1.7046 H   0  0  0  0  0  0  0  0  0  0  0  0
   -3.9270    1.1094   -2.8174 H   0  0  0  0  0  0  0  0  0  0  0  0
   -5.7703    2.2092    0.9267 H   0  0  0  0  0  0  0  0  0  0  0  0
   -4.6499    0.2943    2.0316 H   0  0  0  0  0  0  0  0  0  0  0  0
    0.5772   -0.0489    1.6955 H   0  0  0  0  0  0  0  0  0  0  0  0
    6.1374   -0.3925   -0.0653 H   0  0  0  0  0  0  0  0  0  0  0  0
    6.9511    0.2354   -2.3439 H   0  0  0  0  0  0  0  0  0  0  0  0
    5.2448    0.5444   -2.8903 H   0  0  0  0  0  0  0  0  0  0  0  0
    5.0018    2.3215   -1.1302 H   0  0  0  0  0  0  0  0  0  0  0  0
    6.7043    2.0091   -0.5696 H   0  0  0  0  0  0  0  0  0  0  0  0
  1  2  1  0
  2  3  1  0
  3  4  1  0
  4  5  2  0
  5  6  1  0
  6  7  2  0
  7  8  1  0
  7  9  1  0
  9 10  2  0
  2 11  1  0
 11 12  2  0
 11 13  1  0
 13 14  1  0
 14 15  2  0
 15 16  1  0
 16 17  2  0
 17 18  1  0
 18 19  1  0
 19 20  1  0
 17 21  1  0
 10  4  1  0
 21 14  1  0
 20 18  1  0
  1 22  1  0
  1 23  1  0
  1 24  1  0
  2 25  1  0
  5 26  1  0
  6 27  1  0
  9 28  1  0
 10 29  1  0
 13 30  1  0
 18 31  1  0
 19 32  1  0
 19 33  1  0
 20 34  1  0
 20 35  1  0
M  END
$$$$
