
     RDKit          3D

 53 52  0  0  0  0  0  0  0  0999 V2000
   -7.3360    0.9719    1.7814 C   0  0  0  0  0  0  0  0  0  0  0  0
   -7.0858    0.2807    0.4438 C   0  0  0  0  0  0  0  0  0  0  0  0
   -8.0171    0.8385   -0.6348 C   0  0  0  0  0  0  0  0  0  0  0  0
   -5.6045    0.3309    0.0208 C   0  0  0  0  0  0  0  0  0  0  0  0
   -5.0140    1.7333   -0.1150 C   0  0  0  0  0  0  0  0  0  0  0  0
   -3.6327    1.6765   -0.5486 N   0  0  0  0  0  0  0  0  0  0  0  0
   -3.2987    1.5961   -1.8813 C   0  0  0  0  0  0  0  0  0  0  0  0
   -4.1120    1.6659   -2.7949 O   0  0  0  0  0  0  0  0  0  0  0  0
   -1.8213    1.4009   -2.1423 C   0  0  0  0  0  0  0  0  0  0  0  0
   -1.4045   -0.0516   -1.9480 C   0  0  0  0  0  0  0  0  0  0  0  0
   -1.1041   -0.4868   -0.1961 S   0  0  0  0  0  0  0  0  0  0  0  0
    0.5931    0.1523    0.0152 C   0  0  0  0  0  0  0  0  0  0  0  0
    1.6294   -0.8002   -0.5706 C   0  0  0  0  0  0  0  0  0  0  0  0
    3.0362   -0.3189   -0.2751 C   0  0  0  0  0  0  0  0  0  0  0  0
    3.2831    0.7113    0.3403 O   0  0  0  0  0  0  0  0  0  0  0  0
    4.0072   -1.1590   -0.7782 N   0  0  0  0  0  0  0  0  0  0  0  0
    5.4199   -0.9336   -0.5223 C   0  0  0  0  0  0  0  0  0  0  0  0
    5.8409   -1.5343    0.8186 C   0  0  0  0  0  0  0  0  0  0  0  0
    7.3505   -1.4323    1.0912 C   0  0  0  0  0  0  0  0  0  0  0  0
    7.7095   -2.2483    2.3355 C   0  0  0  0  0  0  0  0  0  0  0  0
    7.8072    0.0163    1.2716 C   0  0  0  0  0  0  0  0  0  0  0  0
   -6.6438    0.6039    2.5515 H   0  0  0  0  0  0  0  0  0  0  0  0
   -7.2132    2.0580    1.7036 H   0  0  0  0  0  0  0  0  0  0  0  0
   -8.3592    0.7768    2.1288 H   0  0  0  0  0  0  0  0  0  0  0  0
   -7.3447   -0.7800    0.5698 H   0  0  0  0  0  0  0  0  0  0  0  0
   -7.8520    1.9042   -0.8078 H   0  0  0  0  0  0  0  0  0  0  0  0
   -7.8671    0.3080   -1.5867 H   0  0  0  0  0  0  0  0  0  0  0  0
   -9.0687    0.7053   -0.3411 H   0  0  0  0  0  0  0  0  0  0  0  0
   -5.0087   -0.2256    0.7549 H   0  0  0  0  0  0  0  0  0  0  0  0
   -5.4884   -0.2090   -0.9274 H   0  0  0  0  0  0  0  0  0  0  0  0
   -5.0175    2.2536    0.8476 H   0  0  0  0  0  0  0  0  0  0  0  0
   -5.5840    2.3317   -0.8328 H   0  0  0  0  0  0  0  0  0  0  0  0
   -2.9408    1.3669    0.1249 H   0  0  0  0  0  0  0  0  0  0  0  0
   -1.6477    1.6851   -3.1881 H   0  0  0  0  0  0  0  0  0  0  0  0
   -1.2380    2.0991   -1.5322 H   0  0  0  0  0  0  0  0  0  0  0  0
   -0.5013   -0.2668   -2.5243 H   0  0  0  0  0  0  0  0  0  0  0  0
   -2.1838   -0.7217   -2.3157 H   0  0  0  0  0  0  0  0  0  0  0  0
    0.6692    1.1514   -0.4256 H   0  0  0  0  0  0  0  0  0  0  0  0
    0.7589    0.2677    1.0895 H   0  0  0  0  0  0  0  0  0  0  0  0
    1.5224   -0.8728   -1.6591 H   0  0  0  0  0  0  0  0  0  0  0  0
    1.5201   -1.8033   -0.1395 H   0  0  0  0  0  0  0  0  0  0  0  0
    3.7292   -2.0563   -1.1450 H   0  0  0  0  0  0  0  0  0  0  0  0
    5.9690   -1.4082   -1.3445 H   0  0  0  0  0  0  0  0  0  0  0  0
    5.6166    0.1429   -0.5523 H   0  0  0  0  0  0  0  0  0  0  0  0
    5.5462   -2.5883    0.8315 H   0  0  0  0  0  0  0  0  0  0  0  0
    5.2843   -1.0551    1.6283 H   0  0  0  0  0  0  0  0  0  0  0  0
    7.8953   -1.8615    0.2416 H   0  0  0  0  0  0  0  0  0  0  0  0
    7.4361   -3.3006    2.2010 H   0  0  0  0  0  0  0  0  0  0  0  0
    7.1866   -1.8713    3.2231 H   0  0  0  0  0  0  0  0  0  0  0  0
    8.7874   -2.2083    2.5317 H   0  0  0  0  0  0  0  0  0  0  0  0
    7.6635    0.5966    0.3542 H   0  0  0  0  0  0  0  0  0  0  0  0
    8.8729    0.0576    1.5185 H   0  0  0  0  0  0  0  0  0  0  0  0
    7.2550    0.5106    2.0785 H   0  0  0  0  0  0  0  0  0  0  0  0
  1  2  1  0
  2  3  1  0
  2  4  1  0
  4  5  1  0
  5  6  1  0
  6  7  1  0
  7  8  2  0
  7  9  1  0
  9 10  1  0
 10 11  1  0
 11 12  1  0
 12 13  1  0
 13 14  1  0
 14 15  2  0
 14 16  1  0
 16 17  1  0
 17 18  1  0
 18 19  1  0
 19 20  1  0
 19 21  1  0
  1 22  1  0
  1 23  1  0
  1 24  1  0
  2 25  1  0
  3 26  1  0
  3 27  1  0
  3 28  1  0
  4 29  1  0
  4 30  1  0
  5 31  1  0
  5 32  1  0
  6 33  1  0
  9 34  1  0
  9 35  1  0
 10 36  1  0
 10 37  1  0
 12 38  1  0
 12 39  1  0
 13 40  1  0
 13 41  1  0
 16 42  1  0
 17 43  1  0
 17 44  1  0
 18 45  1  0
 18 46  1  0
 19 47  1  0
 20 48  1  0
 20 49  1  0
 20 50  1  0
 21 51  1  0
 21 52  1  0
 21 53  1  0
M  END
$$$$
