
     RDKit          3D

 48 51  0  0  0  0  0  0  0  0999 V2000
    3.2492    1.5889   -2.3214 C   0  0  0  0  0  0  0  0  0  0  0  0
    3.5301    1.5814   -0.8263 C   0  0  0  0  0  0  0  0  0  0  0  0
    2.9809    0.3818   -0.2009 N   0  0  0  0  0  0  0  0  0  0  0  0
    1.7068    0.2129    0.3513 C   0  0  0  0  0  0  0  0  0  0  0  0
    0.7190    1.1294    0.3652 C   0  0  0  0  0  0  0  0  0  0  0  0
   -0.6240    0.9625    0.9469 C   0  0  0  0  0  0  0  0  0  0  0  0
   -0.7161    1.0200    2.3333 C   0  0  0  0  0  0  0  0  0  0  0  0
   -1.9380    0.8758    2.9451 C   0  0  0  0  0  0  0  0  0  0  0  0
   -3.0770    0.7545    2.1664 C   0  0  0  0  0  0  0  0  0  0  0  0
   -4.2922    0.6257    2.8460 C   0  0  0  0  0  0  0  0  0  0  0  0
   -5.4827    0.5362    2.1495 C   0  0  0  0  0  0  0  0  0  0  0  0
   -5.4663    0.6202    0.7669 C   0  0  0  0  0  0  0  0  0  0  0  0
   -4.2603    0.7687    0.0373 C   0  0  0  0  0  0  0  0  0  0  0  0
   -4.4806    0.9905   -1.4384 C   0  0  0  0  0  0  0  0  0  0  0  0
   -3.0091    0.7731    0.7275 C   0  0  0  0  0  0  0  0  0  0  0  0
   -1.7377    0.7959    0.1594 N   0  0  0  0  0  4  0  0  0  0  0  0
   -1.5113    0.4899   -1.2859 C   0  0  0  0  0  0  0  0  0  0  0  0
   -1.6590   -1.0007   -1.5359 C   0  0  0  0  0  0  0  0  0  0  0  0
    1.4342   -1.4118    1.0428 S   0  0  0  0  0  0  0  0  0  0  0  0
    3.0795   -1.8700    0.5186 C   0  0  0  0  0  0  0  0  0  0  0  0
    3.6667   -3.1154    0.6942 C   0  0  0  0  0  0  0  0  0  0  0  0
    4.9599   -3.3105    0.2145 C   0  0  0  0  0  0  0  0  0  0  0  0
    5.6380   -2.2684   -0.4288 C   0  0  0  0  0  0  0  0  0  0  0  0
    5.0346   -1.0153   -0.5996 C   0  0  0  0  0  0  0  0  0  0  0  0
    3.7454   -0.8018   -0.1231 C   0  0  0  0  0  0  0  0  0  0  0  0
    2.1733    1.5524   -2.5217 H   0  0  0  0  0  0  0  0  0  0  0  0
    3.6488    2.5001   -2.7771 H   0  0  0  0  0  0  0  0  0  0  0  0
    3.7105    0.7299   -2.8191 H   0  0  0  0  0  0  0  0  0  0  0  0
    3.0898    2.4784   -0.3750 H   0  0  0  0  0  0  0  0  0  0  0  0
    4.6061    1.6775   -0.6421 H   0  0  0  0  0  0  0  0  0  0  0  0
    0.8828    2.1087   -0.0747 H   0  0  0  0  0  0  0  0  0  0  0  0
    0.1750    1.1467    2.9476 H   0  0  0  0  0  0  0  0  0  0  0  0
   -1.9877    0.8817    4.0340 H   0  0  0  0  0  0  0  0  0  0  0  0
   -4.3311    0.5930    3.9353 H   0  0  0  0  0  0  0  0  0  0  0  0
   -6.4260    0.4315    2.6829 H   0  0  0  0  0  0  0  0  0  0  0  0
   -6.4282    0.5920    0.2511 H   0  0  0  0  0  0  0  0  0  0  0  0
   -4.0202    1.9318   -1.7531 H   0  0  0  0  0  0  0  0  0  0  0  0
   -5.5451    1.0964   -1.6810 H   0  0  0  0  0  0  0  0  0  0  0  0
   -4.1232    0.1470   -2.0316 H   0  0  0  0  0  0  0  0  0  0  0  0
   -0.5127    0.8027   -1.5976 H   0  0  0  0  0  0  0  0  0  0  0  0
   -2.1605    1.1081   -1.8960 H   0  0  0  0  0  0  0  0  0  0  0  0
   -1.5425   -1.2168   -2.6023 H   0  0  0  0  0  0  0  0  0  0  0  0
   -0.8963   -1.5662   -0.9943 H   0  0  0  0  0  0  0  0  0  0  0  0
   -2.6308   -1.3842   -1.2145 H   0  0  0  0  0  0  0  0  0  0  0  0
    3.1379   -3.9215    1.1925 H   0  0  0  0  0  0  0  0  0  0  0  0
    5.4462   -4.2758    0.3392 H   0  0  0  0  0  0  0  0  0  0  0  0
    6.6478   -2.4349   -0.7998 H   0  0  0  0  0  0  0  0  0  0  0  0
    5.5961   -0.2389   -1.1074 H   0  0  0  0  0  0  0  0  0  0  0  0
  1  2  1  0
  2  3  1  0
  3  4  1  0
  4  5  2  3
  5  6  1  0
  6  7  2  0
  7  8  1  0
  8  9  2  0
  9 10  1  0
 10 11  2  0
 11 12  1  0
 12 13  2  0
 13 14  1  0
 13 15  1  0
 15 16  2  0
 16 17  1  0
 17 18  1  0
  4 19  1  0
 19 20  1  0
 20 21  2  0
 21 22  1  0
 22 23  2  0
 23 24  1  0
 24 25  2  0
 25  3  1  0
 16  6  1  0
 25 20  1  0
 15  9  1  0
  1 26  1  0
  1 27  1  0
  1 28  1  0
  2 29  1  0
  2 30  1  0
  5 31  1  0
  7 32  1  0
  8 33  1  0
 10 34  1  0
 11 35  1  0
 12 36  1  0
 14 37  1  0
 14 38  1  0
 14 39  1  0
 17 40  1  0
 17 41  1  0
 18 42  1  0
 18 43  1  0
 18 44  1  0
 21 45  1  0
 22 46  1  0
 23 47  1  0
 24 48  1  0
M  CHG  1  16   1
M  END
$$$$
