
     RDKit          3D

 46 49  0  0  0  0  0  0  0  0999 V2000
   -7.1756   -0.0110   -0.0516 C   0  0  0  0  0  0  0  0  0  0  0  0
   -5.9452    0.5557   -0.7371 C   0  0  0  0  0  0  0  0  0  0  0  0
   -4.7965   -0.0667   -0.1609 O   0  0  0  0  0  0  0  0  0  0  0  0
   -3.5709    0.3157   -0.6503 C   0  0  0  0  0  0  0  0  0  0  0  0
   -3.3514    1.2536   -1.6548 C   0  0  0  0  0  0  0  0  0  0  0  0
   -2.0476    1.5529   -2.0444 C   0  0  0  0  0  0  0  0  0  0  0  0
   -0.9645    0.9119   -1.4348 C   0  0  0  0  0  0  0  0  0  0  0  0
   -1.1433   -0.0508   -0.4189 C   0  0  0  0  0  0  0  0  0  0  0  0
    0.0313   -0.7019    0.1905 C   0  0  0  0  0  0  0  0  0  0  0  0
   -0.0990   -1.9592    0.6619 N   0  0  0  0  0  0  0  0  0  0  0  0
    1.0029   -2.5301    1.2029 C   0  0  0  0  0  0  0  0  0  0  0  0
    0.8426   -3.9071    1.7440 C   0  0  0  0  0  0  0  0  0  0  0  0
   -0.4243   -4.4195    1.6686 N   0  0  0  0  0  0  0  0  0  0  0  0
    1.7745   -4.5357    2.2299 O   0  0  0  0  0  0  0  0  0  0  0  0
    2.1981   -1.8812    1.2536 C   0  0  0  0  0  0  0  0  0  0  0  0
    3.4489   -2.2458    1.7241 N   0  0  0  0  0  0  0  0  0  0  0  0
    4.3360   -1.1837    1.5047 C   0  0  0  0  0  0  0  0  0  0  0  0
    5.5137   -1.2209    1.8209 O   0  0  0  0  0  0  0  0  0  0  0  0
    3.5779   -0.1411    0.8863 N   0  0  0  0  0  0  0  0  0  0  0  0
    4.0532    1.1322    0.4670 C   0  0  0  0  0  0  0  0  0  0  0  0
    5.4319    1.4108    0.4637 C   0  0  0  0  0  0  0  0  0  0  0  0
    5.9369    2.6512    0.0515 C   0  0  0  0  0  0  0  0  0  0  0  0
    5.0698    3.6514   -0.3680 C   0  0  0  0  0  0  0  0  0  0  0  0
    3.7036    3.4033   -0.3667 C   0  0  0  0  0  0  0  0  0  0  0  0
    2.6155    4.6376   -0.8777 Cl  0  0  0  0  0  0  0  0  0  0  0  0
    3.1995    2.1648    0.0471 C   0  0  0  0  0  0  0  0  0  0  0  0
    2.2457   -0.6083    0.7409 C   0  0  0  0  0  0  0  0  0  0  0  0
    1.1887    0.0007    0.1939 N   0  0  0  0  0  0  0  0  0  0  0  0
   -2.4707   -0.3235   -0.0434 C   0  0  0  0  0  0  0  0  0  0  0  0
   -2.7468   -1.2187    0.9664 O   0  0  0  0  0  0  0  0  0  0  0  0
   -8.0881    0.4344   -0.4576 H   0  0  0  0  0  0  0  0  0  0  0  0
   -7.1382    0.1790    1.0262 H   0  0  0  0  0  0  0  0  0  0  0  0
   -7.2236   -1.0972   -0.1822 H   0  0  0  0  0  0  0  0  0  0  0  0
   -5.9995    0.3351   -1.8094 H   0  0  0  0  0  0  0  0  0  0  0  0
   -5.9123    1.6392   -0.5746 H   0  0  0  0  0  0  0  0  0  0  0  0
   -4.1651    1.7721   -2.1502 H   0  0  0  0  0  0  0  0  0  0  0  0
   -1.8680    2.2888   -2.8253 H   0  0  0  0  0  0  0  0  0  0  0  0
    0.0408    1.1705   -1.7678 H   0  0  0  0  0  0  0  0  0  0  0  0
   -0.6243   -5.3275    2.0619 H   0  0  0  0  0  0  0  0  0  0  0  0
   -1.1802   -3.8388    1.3147 H   0  0  0  0  0  0  0  0  0  0  0  0
    3.6875   -3.1348    2.1480 H   0  0  0  0  0  0  0  0  0  0  0  0
    6.1635    0.6667    0.7674 H   0  0  0  0  0  0  0  0  0  0  0  0
    7.0102    2.8259    0.0596 H   0  0  0  0  0  0  0  0  0  0  0  0
    5.4610    4.6128   -0.6880 H   0  0  0  0  0  0  0  0  0  0  0  0
    2.1223    2.0524    0.0499 H   0  0  0  0  0  0  0  0  0  0  0  0
   -3.7208   -1.2150    1.0506 H   0  0  0  0  0  0  0  0  0  0  0  0
  1  2  1  0
  2  3  1  0
  3  4  1  0
  4  5  2  0
  5  6  1  0
  6  7  2  0
  7  8  1  0
  8  9  1  0
  9 10  2  0
 10 11  1  0
 11 12  1  0
 12 13  1  0
 12 14  2  0
 11 15  2  0
 15 16  1  0
 16 17  1  0
 17 18  2  0
 17 19  1  0
 19 20  1  0
 20 21  2  0
 21 22  1  0
 22 23  2  0
 23 24  1  0
 24 25  1  0
 24 26  2  0
 19 27  1  0
 27 28  2  0
  8 29  2  0
 29 30  1  0
 29  4  1  0
 28  9  1  0
 27 15  1  0
 26 20  1  0
  1 31  1  0
  1 32  1  0
  1 33  1  0
  2 34  1  0
  2 35  1  0
  5 36  1  0
  6 37  1  0
  7 38  1  0
 13 39  1  0
 13 40  1  0
 16 41  1  0
 21 42  1  0
 22 43  1  0
 23 44  1  0
 26 45  1  0
 30 46  1  0
M  END
$$$$
