
     RDKit          3D

 61 66  0  0  0  0  0  0  0  0999 V2000
    8.4855    0.8292    4.4372 F   0  0  0  0  0  0  0  0  0  0  0  0
    7.7372    0.4054    3.4103 C   0  0  0  0  0  0  0  0  0  0  0  0
    6.4598   -0.0809    3.6471 C   0  0  0  0  0  0  0  0  0  0  0  0
    5.6809   -0.5231    2.5770 C   0  0  0  0  0  0  0  0  0  0  0  0
    6.1777   -0.4772    1.2682 C   0  0  0  0  0  0  0  0  0  0  0  0
    5.3357   -0.9536    0.1053 C   0  0  0  0  0  0  0  0  0  0  0  0
    4.2312    0.0377   -0.3154 C   0  0  0  0  0  0  0  0  0  0  0  0
    3.0691    0.0947    0.5914 N   0  0  0  0  0  0  0  0  0  0  0  0
    2.3241   -1.1900    0.6202 C   0  0  0  0  0  0  0  0  0  0  0  0
    0.8362   -1.0317    0.9999 C   0  0  0  0  0  0  0  0  0  0  0  0
    0.1229   -0.2263   -0.0222 N   0  0  0  0  0  0  0  0  0  0  0  0
   -1.1717    0.1126    0.2675 C   0  0  0  0  0  0  0  0  0  0  0  0
   -1.6574    0.7771    1.3779 C   0  0  0  0  0  0  0  0  0  0  0  0
   -3.0486    0.9354    1.2189 C   0  0  0  0  0  0  0  0  0  0  0  0
   -3.3962    0.3811    0.0014 C   0  0  0  0  0  0  0  0  0  0  0  0
   -4.6710    0.2642   -0.6750 C   0  0  0  0  0  0  0  0  0  0  0  0
   -5.8894    0.9001   -0.1134 C   0  0  0  0  0  0  0  0  0  0  0  0
   -5.8957    2.2530    0.2458 C   0  0  0  0  0  0  0  0  0  0  0  0
   -7.0595    2.8272    0.7590 C   0  0  0  0  0  0  0  0  0  0  0  0
   -8.2161    2.0563    0.9025 C   0  0  0  0  0  0  0  0  0  0  0  0
   -8.2169    0.7124    0.5246 C   0  0  0  0  0  0  0  0  0  0  0  0
   -7.0563    0.1341    0.0094 C   0  0  0  0  0  0  0  0  0  0  0  0
   -4.7814   -0.4096   -1.7806 N   0  0  0  0  0  0  0  0  0  0  0  0
   -3.6338   -1.0019   -2.3423 C   0  0  0  0  0  0  0  0  0  0  0  0
   -3.7971   -1.7183   -3.5327 C   0  0  0  0  0  0  0  0  0  0  0  0
   -2.7088   -2.3347   -4.1500 C   0  0  0  0  0  0  0  0  0  0  0  0
   -1.4425   -2.2408   -3.5765 C   0  0  0  0  0  0  0  0  0  0  0  0
   -1.2593   -1.5301   -2.3878 C   0  0  0  0  0  0  0  0  0  0  0  0
   -2.3497   -0.9060   -1.7744 C   0  0  0  0  0  0  0  0  0  0  0  0
   -2.2562   -0.1741   -0.5625 N   0  0  0  0  0  0  0  0  0  0  0  0
    0.9523    0.8486   -0.6316 C   0  0  0  0  0  0  0  0  0  0  0  0
    2.1657    1.2204    0.2517 C   0  0  0  0  0  0  0  0  0  0  0  0
    7.4718    0.0196    1.0510 C   0  0  0  0  0  0  0  0  0  0  0  0
    8.2507    0.4594    2.1225 C   0  0  0  0  0  0  0  0  0  0  0  0
    6.0762   -0.1106    4.6593 H   0  0  0  0  0  0  0  0  0  0  0  0
    4.6786   -0.8955    2.7673 H   0  0  0  0  0  0  0  0  0  0  0  0
    4.9270   -1.9449    0.3334 H   0  0  0  0  0  0  0  0  0  0  0  0
    5.9928   -1.1116   -0.7599 H   0  0  0  0  0  0  0  0  0  0  0  0
    4.6880    1.0346   -0.3827 H   0  0  0  0  0  0  0  0  0  0  0  0
    3.8934   -0.2206   -1.3282 H   0  0  0  0  0  0  0  0  0  0  0  0
    2.3694   -1.6833   -0.3615 H   0  0  0  0  0  0  0  0  0  0  0  0
    2.7991   -1.8586    1.3476 H   0  0  0  0  0  0  0  0  0  0  0  0
    0.7622   -0.5720    1.9953 H   0  0  0  0  0  0  0  0  0  0  0  0
    0.3725   -2.0258    1.0581 H   0  0  0  0  0  0  0  0  0  0  0  0
   -1.0613    1.1228    2.2123 H   0  0  0  0  0  0  0  0  0  0  0  0
   -3.7203    1.4095    1.9225 H   0  0  0  0  0  0  0  0  0  0  0  0
   -5.0084    2.8685    0.1129 H   0  0  0  0  0  0  0  0  0  0  0  0
   -7.0677    3.8779    1.0399 H   0  0  0  0  0  0  0  0  0  0  0  0
   -9.1217    2.5078    1.3002 H   0  0  0  0  0  0  0  0  0  0  0  0
   -9.1225    0.1170    0.6262 H   0  0  0  0  0  0  0  0  0  0  0  0
   -7.0596   -0.9106   -0.2944 H   0  0  0  0  0  0  0  0  0  0  0  0
   -4.7866   -1.7934   -3.9777 H   0  0  0  0  0  0  0  0  0  0  0  0
   -2.8517   -2.8889   -5.0739 H   0  0  0  0  0  0  0  0  0  0  0  0
   -0.5941   -2.7259   -4.0522 H   0  0  0  0  0  0  0  0  0  0  0  0
   -0.2621   -1.4923   -1.9672 H   0  0  0  0  0  0  0  0  0  0  0  0
    1.3068    0.4943   -1.6075 H   0  0  0  0  0  0  0  0  0  0  0  0
    0.3577    1.7509   -0.8221 H   0  0  0  0  0  0  0  0  0  0  0  0
    1.7873    1.6208    1.2022 H   0  0  0  0  0  0  0  0  0  0  0  0
    2.7172    2.0495   -0.2114 H   0  0  0  0  0  0  0  0  0  0  0  0
    7.8826    0.0668    0.0458 H   0  0  0  0  0  0  0  0  0  0  0  0
    9.2519    0.8431    1.9607 H   0  0  0  0  0  0  0  0  0  0  0  0
  1  2  1  0
  2  3  2  0
  3  4  1  0
  4  5  2  0
  5  6  1  0
  6  7  1  0
  7  8  1  0
  8  9  1  0
  9 10  1  0
 10 11  1  0
 11 12  1  0
 12 13  2  0
 13 14  1  0
 14 15  2  0
 15 16  1  0
 16 17  1  0
 17 18  2  0
 18 19  1  0
 19 20  2  0
 20 21  1  0
 21 22  2  0
 16 23  2  0
 23 24  1  0
 24 25  2  0
 25 26  1  0
 26 27  2  0
 27 28  1  0
 28 29  2  0
 29 30  1  0
 11 31  1  0
 31 32  1  0
  5 33  1  0
 33 34  2  0
 34  2  1  0
 32  8  1  0
 30 12  1  0
 30 15  1  0
 22 17  1  0
 29 24  1  0
  3 35  1  0
  4 36  1  0
  6 37  1  0
  6 38  1  0
  7 39  1  0
  7 40  1  0
  9 41  1  0
  9 42  1  0
 10 43  1  0
 10 44  1  0
 13 45  1  0
 14 46  1  0
 18 47  1  0
 19 48  1  0
 20 49  1  0
 21 50  1  0
 22 51  1  0
 25 52  1  0
 26 53  1  0
 27 54  1  0
 28 55  1  0
 31 56  1  0
 31 57  1  0
 32 58  1  0
 32 59  1  0
 33 60  1  0
 34 61  1  0
M  END
$$$$
