
     RDKit          3D

 28 28  0  0  0  0  0  0  0  0999 V2000
   -3.6353   -1.2279    0.5806 C   0  0  0  0  0  0  0  0  0  0  0  0
   -2.1335   -1.2163    0.2398 C   0  0  0  0  0  0  0  0  0  0  0  0
   -1.3572   -1.6851    1.4768 C   0  0  0  0  0  0  0  0  0  0  0  0
   -1.8887   -2.1727   -0.9351 C   0  0  0  0  0  0  0  0  0  0  0  0
   -1.7154    0.2100   -0.1821 C   0  0  0  0  0  0  0  0  0  0  0  0
   -2.5602    1.0834   -0.4074 O   0  0  0  0  0  0  0  0  0  0  0  0
   -0.2397    0.5178   -0.3618 C   0  0  0  0  0  0  0  0  0  0  0  0
    0.3692    1.4414    1.0747 S   0  0  0  0  0  0  0  0  0  0  0  0
    2.0349    1.7474    0.5482 C   0  0  0  0  0  0  0  0  0  0  0  0
    2.5150    1.0797   -0.5163 N   0  0  0  0  0  0  0  0  0  0  0  0
    3.7888    1.3455   -0.8630 C   0  0  0  0  0  0  0  0  0  0  0  0
    4.5894    2.2371   -0.1911 C   0  0  0  0  0  0  0  0  0  0  0  0
    4.0048    2.8596    0.8845 C   0  0  0  0  0  0  0  0  0  0  0  0
    2.7377    2.6319    1.2747 N   0  0  0  0  0  0  0  0  0  0  0  0
   -3.8607   -0.5316    1.3968 H   0  0  0  0  0  0  0  0  0  0  0  0
   -4.2436   -0.9305   -0.2816 H   0  0  0  0  0  0  0  0  0  0  0  0
   -3.9663   -2.2257    0.8902 H   0  0  0  0  0  0  0  0  0  0  0  0
   -1.7108   -2.6652    1.8171 H   0  0  0  0  0  0  0  0  0  0  0  0
   -0.2852   -1.7821    1.2763 H   0  0  0  0  0  0  0  0  0  0  0  0
   -1.4760   -0.9807    2.3077 H   0  0  0  0  0  0  0  0  0  0  0  0
   -2.4007   -1.8247   -1.8397 H   0  0  0  0  0  0  0  0  0  0  0  0
   -0.8241   -2.2555   -1.1776 H   0  0  0  0  0  0  0  0  0  0  0  0
   -2.2532   -3.1809   -0.7082 H   0  0  0  0  0  0  0  0  0  0  0  0
    0.3261   -0.4065   -0.4998 H   0  0  0  0  0  0  0  0  0  0  0  0
   -0.1351    1.1139   -1.2750 H   0  0  0  0  0  0  0  0  0  0  0  0
    4.1586    0.8008   -1.7271 H   0  0  0  0  0  0  0  0  0  0  0  0
    5.6097    2.4353   -0.4876 H   0  0  0  0  0  0  0  0  0  0  0  0
    4.5516    3.5816    1.4842 H   0  0  0  0  0  0  0  0  0  0  0  0
  1  2  1  0
  2  3  1  0
  2  4  1  0
  2  5  1  0
  5  6  2  0
  5  7  1  0
  7  8  1  0
  8  9  1  0
  9 10  2  0
 10 11  1  0
 11 12  2  0
 12 13  1  0
 13 14  2  0
 14  9  1  0
  1 15  1  0
  1 16  1  0
  1 17  1  0
  3 18  1  0
  3 19  1  0
  3 20  1  0
  4 21  1  0
  4 22  1  0
  4 23  1  0
  7 24  1  0
  7 25  1  0
 11 26  1  0
 12 27  1  0
 13 28  1  0
M  END
$$$$
