
     RDKit          3D

 58 62  0  0  0  0  0  0  0  0999 V2000
    7.5753    3.6028   -0.2156 C   0  0  0  0  0  0  0  0  0  0  0  0
    7.2395    2.3169    0.3037 O   0  0  0  0  0  0  0  0  0  0  0  0
    5.9980    1.8323   -0.0024 C   0  0  0  0  0  0  0  0  0  0  0  0
    5.0206    2.4942   -0.7469 C   0  0  0  0  0  0  0  0  0  0  0  0
    3.7801    1.8866   -0.9770 C   0  0  0  0  0  0  0  0  0  0  0  0
    3.5045    0.6078   -0.4696 C   0  0  0  0  0  0  0  0  0  0  0  0
    2.1584   -0.0371   -0.7061 C   0  0  0  0  0  0  0  0  0  0  0  0
    1.2529    0.0322    0.5369 C   0  0  0  0  0  0  0  0  0  0  0  0
   -0.0997   -0.4653    0.2041 N   0  0  0  0  0  0  0  0  0  0  0  0
   -1.0152    0.3626   -0.4659 C   0  0  0  0  0  0  0  0  0  0  0  0
   -0.8789    1.6509   -0.6231 N   0  0  0  0  0  0  0  0  0  0  0  0
   -2.2482   -0.2433   -1.0655 C   0  0  0  0  0  0  0  0  0  0  0  0
   -3.2287    0.4980   -1.8893 C   0  0  0  0  0  0  0  0  0  0  0  0
   -3.4747    0.1623   -3.0513 O   0  0  0  0  0  0  0  0  0  0  0  0
   -3.8571    1.5249   -1.2172 N   0  0  0  0  0  0  0  0  0  0  0  0
   -4.6765    2.4813   -1.9201 C   0  0  0  0  0  0  0  0  0  0  0  0
   -5.6092    3.1207   -0.9521 C   0  0  0  0  0  0  0  0  0  0  0  0
   -6.9832    3.0782   -0.8076 C   0  0  0  0  0  0  0  0  0  0  0  0
   -7.2905    3.8795    0.3181 C   0  0  0  0  0  0  0  0  0  0  0  0
   -6.0883    4.3611    0.7891 C   0  0  0  0  0  0  0  0  0  0  0  0
   -5.0589    3.9080    0.0211 O   0  0  0  0  0  0  0  0  0  0  0  0
   -2.4565   -1.5532   -0.8561 C   0  0  0  0  0  0  0  0  0  0  0  0
   -1.5361   -2.3628   -0.0764 C   0  0  0  0  0  0  0  0  0  0  0  0
   -1.8583   -3.7975    0.1731 C   0  0  0  0  0  0  0  0  0  0  0  0
   -2.9044   -4.2822   -0.2693 O   0  0  0  0  0  0  0  0  0  0  0  0
   -0.9272   -4.5081    0.9101 N   0  0  0  0  0  0  0  0  0  0  0  0
   -1.1670   -5.8453    1.2102 C   0  0  0  0  0  0  0  0  0  0  0  0
   -0.2870   -6.5829    1.9001 C   0  0  0  0  0  0  0  0  0  0  0  0
    0.9475   -5.9945    2.3426 C   0  0  0  0  0  0  0  0  0  0  0  0
    1.2184   -4.7105    2.0757 C   0  0  0  0  0  0  0  0  0  0  0  0
    0.2341   -3.8822    1.3208 C   0  0  0  0  0  0  0  0  0  0  0  0
    0.5167   -2.6392    1.0923 N   0  0  0  0  0  0  0  0  0  0  0  0
   -0.3807   -1.8486    0.4090 C   0  0  0  0  0  0  0  0  0  0  0  0
    4.4895   -0.0546    0.2722 C   0  0  0  0  0  0  0  0  0  0  0  0
    5.7252    0.5567    0.5029 C   0  0  0  0  0  0  0  0  0  0  0  0
    8.5898    3.8424    0.1171 H   0  0  0  0  0  0  0  0  0  0  0  0
    7.5741    3.6000   -1.3142 H   0  0  0  0  0  0  0  0  0  0  0  0
    6.9050    4.3806    0.1799 H   0  0  0  0  0  0  0  0  0  0  0  0
    5.1885    3.4842   -1.1626 H   0  0  0  0  0  0  0  0  0  0  0  0
    3.0312    2.4219   -1.5613 H   0  0  0  0  0  0  0  0  0  0  0  0
    2.3072   -1.0849   -1.0115 H   0  0  0  0  0  0  0  0  0  0  0  0
    1.6682    0.4499   -1.5607 H   0  0  0  0  0  0  0  0  0  0  0  0
    1.2058    1.0561    0.9354 H   0  0  0  0  0  0  0  0  0  0  0  0
    1.7004   -0.5445    1.3591 H   0  0  0  0  0  0  0  0  0  0  0  0
   -0.0256    2.0044   -0.1941 H   0  0  0  0  0  0  0  0  0  0  0  0
   -3.4499    1.8378   -0.3400 H   0  0  0  0  0  0  0  0  0  0  0  0
   -4.0114    3.2230   -2.3813 H   0  0  0  0  0  0  0  0  0  0  0  0
   -5.2321    1.9766   -2.7141 H   0  0  0  0  0  0  0  0  0  0  0  0
   -7.6681    2.5264   -1.4406 H   0  0  0  0  0  0  0  0  0  0  0  0
   -8.2676    4.0746    0.7364 H   0  0  0  0  0  0  0  0  0  0  0  0
   -5.8040    5.0027    1.6110 H   0  0  0  0  0  0  0  0  0  0  0  0
   -3.3296   -2.0462   -1.2827 H   0  0  0  0  0  0  0  0  0  0  0  0
   -2.1040   -6.2719    0.8615 H   0  0  0  0  0  0  0  0  0  0  0  0
   -0.4849   -7.6243    2.1319 H   0  0  0  0  0  0  0  0  0  0  0  0
    1.6509   -6.6140    2.8915 H   0  0  0  0  0  0  0  0  0  0  0  0
    2.1364   -4.2300    2.3900 H   0  0  0  0  0  0  0  0  0  0  0  0
    4.3019   -1.0493    0.6763 H   0  0  0  0  0  0  0  0  0  0  0  0
    6.4834    0.0346    1.0818 H   0  0  0  0  0  0  0  0  0  0  0  0
  1  2  1  0
  2  3  1  0
  3  4  2  0
  4  5  1  0
  5  6  2  0
  6  7  1  0
  7  8  1  0
  8  9  1  0
  9 10  1  0
 10 11  2  3
 10 12  1  0
 12 13  1  0
 13 14  2  0
 13 15  1  0
 15 16  1  0
 16 17  1  0
 17 18  2  0
 18 19  1  0
 19 20  2  0
 20 21  1  0
 12 22  2  0
 22 23  1  0
 23 24  1  0
 24 25  2  0
 24 26  1  0
 26 27  1  0
 27 28  2  0
 28 29  1  0
 29 30  2  0
 30 31  1  0
 31 32  2  0
 32 33  1  0
  6 34  1  0
 34 35  2  0
 35  3  1  0
 33  9  1  0
 21 17  1  0
 33 23  2  0
 31 26  1  0
  1 36  1  0
  1 37  1  0
  1 38  1  0
  4 39  1  0
  5 40  1  0
  7 41  1  0
  7 42  1  0
  8 43  1  0
  8 44  1  0
 11 45  1  0
 15 46  1  0
 16 47  1  0
 16 48  1  0
 18 49  1  0
 19 50  1  0
 20 51  1  0
 22 52  1  0
 27 53  1  0
 28 54  1  0
 29 55  1  0
 30 56  1  0
 34 57  1  0
 35 58  1  0
M  END
$$$$
