
     RDKit          3D

 40 42  0  0  0  0  0  0  0  0999 V2000
    0.9558   -2.0757   -2.1700 O   0  0  0  0  0  0  0  0  0  0  0  0
    1.4367   -2.0810   -1.0392 C   0  0  0  0  0  0  0  0  0  0  0  0
    2.9341   -2.0881   -0.7882 C   0  0  0  0  0  0  0  0  0  0  0  0
    3.4389   -0.7656   -0.2609 C   0  0  0  0  0  0  0  0  0  0  0  0
    4.0101   -0.6750    1.0173 C   0  0  0  0  0  0  0  0  0  0  0  0
    4.4565    0.5544    1.5055 C   0  0  0  0  0  0  0  0  0  0  0  0
    4.3446    1.7008    0.7191 C   0  0  0  0  0  0  0  0  0  0  0  0
    3.7828    1.6206   -0.5544 C   0  0  0  0  0  0  0  0  0  0  0  0
    3.3324    0.3944   -1.0437 C   0  0  0  0  0  0  0  0  0  0  0  0
    0.6700   -2.0865    0.1087 N   0  0  0  0  0  0  0  0  0  0  0  0
   -0.7645   -1.8333    0.0308 C   0  0  0  0  0  0  0  0  0  0  0  0
   -1.0693   -0.3226   -0.1189 C   0  0  0  0  0  0  0  0  0  0  0  0
   -0.4781    0.3115    1.0440 O   0  0  0  0  0  0  0  0  0  0  0  0
   -0.8310    1.6912    1.1239 C   0  0  0  0  0  0  0  0  0  0  0  0
   -2.3055    1.7967    1.4868 C   0  0  0  0  0  0  0  0  0  0  0  0
   -3.1434    1.0135    0.5069 C   0  0  0  0  0  0  0  0  0  0  0  0
   -4.5117    1.2893    0.3814 C   0  0  0  0  0  0  0  0  0  0  0  0
   -5.2915    0.5814   -0.5312 C   0  0  0  0  0  0  0  0  0  0  0  0
   -4.7098   -0.4025   -1.3254 C   0  0  0  0  0  0  0  0  0  0  0  0
   -3.3512   -0.6954   -1.1942 C   0  0  0  0  0  0  0  0  0  0  0  0
   -2.5561   -0.0156   -0.2548 C   0  0  0  0  0  0  0  0  0  0  0  0
    3.4491   -2.3283   -1.7254 H   0  0  0  0  0  0  0  0  0  0  0  0
    3.1636   -2.9056   -0.0916 H   0  0  0  0  0  0  0  0  0  0  0  0
    4.1115   -1.5586    1.6432 H   0  0  0  0  0  0  0  0  0  0  0  0
    4.8970    0.6171    2.4983 H   0  0  0  0  0  0  0  0  0  0  0  0
    4.6993    2.6559    1.0961 H   0  0  0  0  0  0  0  0  0  0  0  0
    3.6959    2.5133   -1.1687 H   0  0  0  0  0  0  0  0  0  0  0  0
    2.8923    0.3472   -2.0409 H   0  0  0  0  0  0  0  0  0  0  0  0
    1.1167   -1.7365    0.9502 H   0  0  0  0  0  0  0  0  0  0  0  0
   -1.1692   -2.4169   -0.8029 H   0  0  0  0  0  0  0  0  0  0  0  0
   -1.1946   -2.2190    0.9639 H   0  0  0  0  0  0  0  0  0  0  0  0
   -0.5552    0.0765   -1.0046 H   0  0  0  0  0  0  0  0  0  0  0  0
   -0.2203    2.1524    1.9066 H   0  0  0  0  0  0  0  0  0  0  0  0
   -0.5974    2.1936    0.1757 H   0  0  0  0  0  0  0  0  0  0  0  0
   -2.4743    1.3740    2.4862 H   0  0  0  0  0  0  0  0  0  0  0  0
   -2.6051    2.8518    1.4966 H   0  0  0  0  0  0  0  0  0  0  0  0
   -4.9750    2.0616    0.9927 H   0  0  0  0  0  0  0  0  0  0  0  0
   -6.3509    0.8044   -0.6290 H   0  0  0  0  0  0  0  0  0  0  0  0
   -5.3134   -0.9430   -2.0501 H   0  0  0  0  0  0  0  0  0  0  0  0
   -2.9201   -1.4525   -1.8461 H   0  0  0  0  0  0  0  0  0  0  0  0
  1  2  2  0
  2  3  1  0
  3  4  1  0
  4  5  2  0
  5  6  1  0
  6  7  2  0
  7  8  1  0
  8  9  2  0
  2 10  1  0
 10 11  1  0
 11 12  1  0
 12 13  1  0
 13 14  1  0
 14 15  1  0
 15 16  1  0
 16 17  2  0
 17 18  1  0
 18 19  2  0
 19 20  1  0
 20 21  2  0
  9  4  1  0
 21 12  1  0
 21 16  1  0
  3 22  1  0
  3 23  1  0
  5 24  1  0
  6 25  1  0
  7 26  1  0
  8 27  1  0
  9 28  1  0
 10 29  1  0
 11 30  1  0
 11 31  1  0
 12 32  1  0
 14 33  1  0
 14 34  1  0
 15 35  1  0
 15 36  1  0
 17 37  1  0
 18 38  1  0
 19 39  1  0
 20 40  1  0
M  END
$$$$
