
     RDKit          3D

 58 61  0  0  0  0  0  0  0  0999 V2000
   -3.5375    6.2676    0.4583 C   0  0  0  0  0  0  0  0  0  0  0  0
   -2.6212    5.1828    0.5329 O   0  0  0  0  0  0  0  0  0  0  0  0
   -3.1464    3.9423    0.7727 C   0  0  0  0  0  0  0  0  0  0  0  0
   -4.4899    3.6459    0.9564 C   0  0  0  0  0  0  0  0  0  0  0  0
   -4.9039    2.3302    1.1944 C   0  0  0  0  0  0  0  0  0  0  0  0
   -3.9415    1.3037    1.2483 C   0  0  0  0  0  0  0  0  0  0  0  0
   -4.2308   -0.3665    1.5266 S   0  0  0  0  0  0  0  0  0  0  0  0
   -2.5716   -0.7617    1.4107 C   0  0  0  0  0  0  0  0  0  0  0  0
   -2.1743   -2.1631    1.6028 C   0  0  0  0  0  0  0  0  0  0  0  0
   -1.6943   -2.5580    2.8624 C   0  0  0  0  0  0  0  0  0  0  0  0
   -1.2986   -3.8748    3.0894 C   0  0  0  0  0  0  0  0  0  0  0  0
   -1.3759   -4.8068    2.0590 C   0  0  0  0  0  0  0  0  0  0  0  0
   -1.8465   -4.4266    0.7986 C   0  0  0  0  0  0  0  0  0  0  0  0
   -2.2491   -3.1074    0.5578 C   0  0  0  0  0  0  0  0  0  0  0  0
   -2.6995   -2.6456   -0.6540 O   0  0  0  0  0  0  0  0  0  0  0  0
   -2.9472   -3.6067   -1.6705 C   0  0  0  0  0  0  0  0  0  0  0  0
   -1.7931    0.3588    1.1704 C   0  0  0  0  0  0  0  0  0  0  0  0
   -0.3420    0.2710    1.0509 C   0  0  0  0  0  0  0  0  0  0  0  0
    0.2425   -0.3502   -0.0574 C   0  0  0  0  0  0  0  0  0  0  0  0
    1.6351   -0.4313   -0.1726 C   0  0  0  0  0  0  0  0  0  0  0  0
    2.4540    0.1114    0.8176 C   0  0  0  0  0  0  0  0  0  0  0  0
    3.8206    0.1093    0.8334 O   0  0  0  0  0  0  0  0  0  0  0  0
    4.5203   -0.5519   -0.2260 C   0  0  0  0  0  0  0  0  0  0  0  0
    4.7227    0.3958   -1.4212 C   0  0  0  0  0  0  0  0  0  0  0  0
    5.5425   -0.1765   -2.5074 N   0  0  0  0  0  0  0  0  0  0  0  0
    4.8302   -1.2374   -3.2228 C   0  0  0  0  0  0  0  0  0  0  0  0
    5.9267    0.8791   -3.4494 C   0  0  0  0  0  0  0  0  0  0  0  0
    1.8661    0.7386    1.9202 C   0  0  0  0  0  0  0  0  0  0  0  0
    0.4767    0.8207    2.0402 C   0  0  0  0  0  0  0  0  0  0  0  0
   -2.5825    1.5667    1.0717 C   0  0  0  0  0  0  0  0  0  0  0  0
   -2.1998    2.9122    0.8283 C   0  0  0  0  0  0  0  0  0  0  0  0
   -4.2420    6.1330   -0.3691 H   0  0  0  0  0  0  0  0  0  0  0  0
   -4.0639    6.4057    1.4085 H   0  0  0  0  0  0  0  0  0  0  0  0
   -2.9627    7.1776    0.2612 H   0  0  0  0  0  0  0  0  0  0  0  0
   -5.2549    4.4146    0.9206 H   0  0  0  0  0  0  0  0  0  0  0  0
   -5.9575    2.1047    1.3353 H   0  0  0  0  0  0  0  0  0  0  0  0
   -1.6269   -1.8340    3.6714 H   0  0  0  0  0  0  0  0  0  0  0  0
   -0.9280   -4.1700    4.0674 H   0  0  0  0  0  0  0  0  0  0  0  0
   -1.0640   -5.8337    2.2336 H   0  0  0  0  0  0  0  0  0  0  0  0
   -1.8776   -5.1843    0.0231 H   0  0  0  0  0  0  0  0  0  0  0  0
   -3.3812   -3.0822   -2.5271 H   0  0  0  0  0  0  0  0  0  0  0  0
   -3.6708   -4.3592   -1.3399 H   0  0  0  0  0  0  0  0  0  0  0  0
   -2.0146   -4.0726   -2.0047 H   0  0  0  0  0  0  0  0  0  0  0  0
   -0.3842   -0.7763   -0.8384 H   0  0  0  0  0  0  0  0  0  0  0  0
    2.0383   -0.9219   -1.0511 H   0  0  0  0  0  0  0  0  0  0  0  0
    5.5044   -0.8169    0.1794 H   0  0  0  0  0  0  0  0  0  0  0  0
    4.0430   -1.5013   -0.4896 H   0  0  0  0  0  0  0  0  0  0  0  0
    5.2180    1.2940   -1.0271 H   0  0  0  0  0  0  0  0  0  0  0  0
    3.7556    0.7446   -1.8051 H   0  0  0  0  0  0  0  0  0  0  0  0
    5.4476   -1.6321   -4.0379 H   0  0  0  0  0  0  0  0  0  0  0  0
    3.8843   -0.8853   -3.6498 H   0  0  0  0  0  0  0  0  0  0  0  0
    4.6193   -2.0865   -2.5657 H   0  0  0  0  0  0  0  0  0  0  0  0
    6.5693    0.4749   -4.2397 H   0  0  0  0  0  0  0  0  0  0  0  0
    6.5100    1.6556   -2.9420 H   0  0  0  0  0  0  0  0  0  0  0  0
    5.0560    1.3513   -3.9190 H   0  0  0  0  0  0  0  0  0  0  0  0
    2.4974    1.1669    2.6950 H   0  0  0  0  0  0  0  0  0  0  0  0
    0.0427    1.3109    2.9081 H   0  0  0  0  0  0  0  0  0  0  0  0
   -1.1492    3.1512    0.6779 H   0  0  0  0  0  0  0  0  0  0  0  0
  1  2  1  0
  2  3  1  0
  3  4  2  0
  4  5  1  0
  5  6  2  0
  6  7  1  0
  7  8  1  0
  8  9  1  0
  9 10  2  0
 10 11  1  0
 11 12  2  0
 12 13  1  0
 13 14  2  0
 14 15  1  0
 15 16  1  0
  8 17  2  0
 17 18  1  0
 18 19  2  0
 19 20  1  0
 20 21  2  0
 21 22  1  0
 22 23  1  0
 23 24  1  0
 24 25  1  0
 25 26  1  0
 25 27  1  0
 21 28  1  0
 28 29  2  0
 17 30  1  0
 30 31  2  0
 31  3  1  0
 30  6  1  0
 14  9  1  0
 29 18  1  0
  1 32  1  0
  1 33  1  0
  1 34  1  0
  4 35  1  0
  5 36  1  0
 10 37  1  0
 11 38  1  0
 12 39  1  0
 13 40  1  0
 16 41  1  0
 16 42  1  0
 16 43  1  0
 19 44  1  0
 20 45  1  0
 23 46  1  0
 23 47  1  0
 24 48  1  0
 24 49  1  0
 26 50  1  0
 26 51  1  0
 26 52  1  0
 27 53  1  0
 27 54  1  0
 27 55  1  0
 28 56  1  0
 29 57  1  0
 31 58  1  0
M  END
$$$$
