
     RDKit          3D

 56 59  0  0  0  0  0  0  0  0999 V2000
   -4.2691   -0.9758    2.0026 C   0  0  0  0  0  0  0  0  0  0  0  0
   -4.0976    0.3008    1.1853 C   0  0  0  0  0  0  0  0  0  0  0  0
   -2.9690    0.2795    0.1344 C   0  0  0  0  0  0  0  0  0  0  0  0
   -2.9775   -1.0206   -0.7061 C   0  0  0  0  0  0  0  0  0  0  0  0
   -2.1148   -1.8875   -0.5886 O   0  0  0  0  0  0  0  0  0  0  0  0
   -4.0752   -1.0995   -1.5531 N   0  0  0  0  0  0  0  0  0  0  0  0
   -4.4156   -2.1551   -2.4281 C   0  0  0  0  0  0  0  0  0  0  0  0
   -3.6970   -3.3429   -2.5558 C   0  0  0  0  0  0  0  0  0  0  0  0
   -4.1324   -4.3182   -3.4534 C   0  0  0  0  0  0  0  0  0  0  0  0
   -3.4402   -5.4590   -3.5711 F   0  0  0  0  0  0  0  0  0  0  0  0
   -5.2735   -4.1362   -4.2303 C   0  0  0  0  0  0  0  0  0  0  0  0
   -5.9989   -2.9548   -4.1103 C   0  0  0  0  0  0  0  0  0  0  0  0
   -5.5657   -1.9804   -3.2141 C   0  0  0  0  0  0  0  0  0  0  0  0
   -6.2738   -0.8449   -3.0999 F   0  0  0  0  0  0  0  0  0  0  0  0
   -1.6205    0.5242    0.6594 N   0  0  0  0  0  0  0  0  0  0  0  0
   -1.3540    0.1680    1.9856 N   0  0  0  0  0  0  0  0  0  0  0  0
   -0.1556    0.2716    2.4877 C   0  0  0  0  0  0  0  0  0  0  0  0
    0.0574   -0.1518    3.9130 C   0  0  0  0  0  0  0  0  0  0  0  0
    0.9132    0.7913    1.6715 C   0  0  0  0  0  0  0  0  0  0  0  0
    2.2432    1.1014    1.9032 C   0  0  0  0  0  0  0  0  0  0  0  0
    3.0100    1.1166    3.1754 C   0  0  0  0  0  0  0  0  0  0  0  0
    2.7572    1.4810    0.6564 N   0  0  0  0  0  0  0  0  0  0  0  0
    4.1045    1.7054    0.2330 C   0  0  0  0  0  0  0  0  0  0  0  0
    5.2066    1.2170    0.9425 C   0  0  0  0  0  0  0  0  0  0  0  0
    6.5082    1.4565    0.4832 C   0  0  0  0  0  0  0  0  0  0  0  0
    6.7304    2.1646   -0.7020 C   0  0  0  0  0  0  0  0  0  0  0  0
    8.1262    2.4454   -1.1733 C   0  0  0  0  0  0  0  0  0  0  0  0
    5.6310    2.6435   -1.4187 C   0  0  0  0  0  0  0  0  0  0  0  0
    4.3306    2.4053   -0.9640 C   0  0  0  0  0  0  0  0  0  0  0  0
    1.7548    1.6468   -0.2496 N   0  0  0  0  0  0  0  0  0  0  0  0
    0.6666    1.1519    0.3437 C   0  0  0  0  0  0  0  0  0  0  0  0
   -0.6570    1.0213   -0.2484 C   0  0  0  0  0  0  0  0  0  0  0  0
   -0.9222    1.3265   -1.4105 O   0  0  0  0  0  0  0  0  0  0  0  0
   -5.0702   -0.8385    2.7366 H   0  0  0  0  0  0  0  0  0  0  0  0
   -3.3637   -1.2466    2.5500 H   0  0  0  0  0  0  0  0  0  0  0  0
   -4.5510   -1.8217    1.3682 H   0  0  0  0  0  0  0  0  0  0  0  0
   -5.0495    0.4852    0.6706 H   0  0  0  0  0  0  0  0  0  0  0  0
   -3.9497    1.1480    1.8663 H   0  0  0  0  0  0  0  0  0  0  0  0
   -3.1767    1.1042   -0.5617 H   0  0  0  0  0  0  0  0  0  0  0  0
   -4.6958   -0.2969   -1.5997 H   0  0  0  0  0  0  0  0  0  0  0  0
   -2.8005   -3.5487   -1.9822 H   0  0  0  0  0  0  0  0  0  0  0  0
   -5.5841   -4.9153   -4.9195 H   0  0  0  0  0  0  0  0  0  0  0  0
   -6.8919   -2.7859   -4.7031 H   0  0  0  0  0  0  0  0  0  0  0  0
    0.1771    0.7340    4.5423 H   0  0  0  0  0  0  0  0  0  0  0  0
    0.9451   -0.7845    3.9926 H   0  0  0  0  0  0  0  0  0  0  0  0
   -0.8064   -0.7186    4.2735 H   0  0  0  0  0  0  0  0  0  0  0  0
    3.4742    0.1436    3.3610 H   0  0  0  0  0  0  0  0  0  0  0  0
    3.7763    1.8972    3.1827 H   0  0  0  0  0  0  0  0  0  0  0  0
    2.3567    1.3428    4.0227 H   0  0  0  0  0  0  0  0  0  0  0  0
    5.1022    0.6066    1.8308 H   0  0  0  0  0  0  0  0  0  0  0  0
    7.3508    1.0695    1.0529 H   0  0  0  0  0  0  0  0  0  0  0  0
    8.8115    1.6496   -0.8630 H   0  0  0  0  0  0  0  0  0  0  0  0
    8.4768    3.3955   -0.7587 H   0  0  0  0  0  0  0  0  0  0  0  0
    8.1659    2.4995   -2.2664 H   0  0  0  0  0  0  0  0  0  0  0  0
    5.7742    3.2020   -2.3412 H   0  0  0  0  0  0  0  0  0  0  0  0
    3.4984    2.7870   -1.5545 H   0  0  0  0  0  0  0  0  0  0  0  0
  1  2  1  0
  2  3  1  0
  3  4  1  0
  4  5  2  0
  4  6  1  0
  6  7  1  0
  7  8  2  0
  8  9  1  0
  9 10  1  0
  9 11  2  0
 11 12  1  0
 12 13  2  0
 13 14  1  0
  3 15  1  0
 15 16  1  0
 16 17  2  0
 17 18  1  0
 17 19  1  0
 19 20  2  0
 20 21  1  0
 20 22  1  0
 22 23  1  0
 23 24  2  0
 24 25  1  0
 25 26  2  0
 26 27  1  0
 26 28  1  0
 28 29  2  0
 22 30  1  0
 30 31  2  0
 31 32  1  0
 32 33  2  0
 13  7  1  0
 32 15  1  0
 31 19  1  0
 29 23  1  0
  1 34  1  0
  1 35  1  0
  1 36  1  0
  2 37  1  0
  2 38  1  0
  3 39  1  0
  6 40  1  0
  8 41  1  0
 11 42  1  0
 12 43  1  0
 18 44  1  0
 18 45  1  0
 18 46  1  0
 21 47  1  0
 21 48  1  0
 21 49  1  0
 24 50  1  0
 25 51  1  0
 27 52  1  0
 27 53  1  0
 27 54  1  0
 28 55  1  0
 29 56  1  0
M  END
$$$$
