
     RDKit          3D

 43 46  0  0  0  0  0  0  0  0999 V2000
   -7.2659    1.2220    1.3847 C   0  0  0  0  0  0  0  0  0  0  0  0
   -6.8804    0.9664    0.0400 O   0  0  0  0  0  0  0  0  0  0  0  0
   -5.6177    0.4807   -0.1587 C   0  0  0  0  0  0  0  0  0  0  0  0
   -4.6742    0.2150    0.8331 C   0  0  0  0  0  0  0  0  0  0  0  0
   -3.4122   -0.2836    0.4866 C   0  0  0  0  0  0  0  0  0  0  0  0
   -3.0824   -0.5321   -0.8513 C   0  0  0  0  0  0  0  0  0  0  0  0
   -1.7599   -1.0456   -1.1778 C   0  0  0  0  0  0  0  0  0  0  0  0
   -0.6340   -0.4782   -0.5983 N   0  0  0  0  0  0  0  0  0  0  0  0
    0.4450   -1.0794   -1.0371 C   0  0  0  0  0  0  0  0  0  0  0  0
    1.6857   -0.6830   -0.6277 N   0  0  0  0  0  0  0  0  0  0  0  0
    2.9081   -1.2055   -0.9881 C   0  0  0  0  0  0  0  0  0  0  0  0
    3.1089   -2.1429   -1.7514 O   0  0  0  0  0  0  0  0  0  0  0  0
    4.0170   -0.4795   -0.3216 C   0  0  0  0  0  0  0  0  0  0  0  0
    5.3437   -0.7879   -0.4977 N   0  0  0  0  0  0  0  0  0  0  0  0
    5.9823    0.0778    0.2539 C   0  0  0  0  0  0  0  0  0  0  0  0
    7.3258    0.2225    0.4516 N   0  0  0  0  0  0  0  0  0  0  0  0
    7.6800    1.1751    1.2562 C   0  0  0  0  0  0  0  0  0  0  0  0
    6.7694    2.1102    1.9728 C   0  0  0  0  0  0  0  0  0  0  0  0
    5.4542    1.9345    1.7522 C   0  0  0  0  0  0  0  0  0  0  0  0
    4.3993    2.7834    2.3893 C   0  0  0  0  0  0  0  0  0  0  0  0
    5.0491    0.9100    0.8854 N   0  0  0  0  0  0  0  0  0  0  0  0
    3.7928    0.5517    0.5182 N   0  0  0  0  0  0  0  0  0  0  0  0
    0.1899   -2.3579   -2.1262 S   0  0  0  0  0  0  0  0  0  0  0  0
   -1.5086   -2.1184   -2.0189 C   0  0  0  0  0  0  0  0  0  0  0  0
   -2.4324   -3.0144   -2.7669 C   0  0  0  0  0  0  0  0  0  0  0  0
   -4.0256   -0.2480   -1.8439 C   0  0  0  0  0  0  0  0  0  0  0  0
   -5.2850    0.2499   -1.4957 C   0  0  0  0  0  0  0  0  0  0  0  0
   -6.6325    1.9919    1.8375 H   0  0  0  0  0  0  0  0  0  0  0  0
   -7.2581    0.3024    1.9793 H   0  0  0  0  0  0  0  0  0  0  0  0
   -8.2924    1.6010    1.3718 H   0  0  0  0  0  0  0  0  0  0  0  0
   -4.8819    0.3861    1.8838 H   0  0  0  0  0  0  0  0  0  0  0  0
   -2.6827   -0.4795    1.2703 H   0  0  0  0  0  0  0  0  0  0  0  0
    1.6937    0.0974    0.0189 H   0  0  0  0  0  0  0  0  0  0  0  0
    8.7546    1.3335    1.4493 H   0  0  0  0  0  0  0  0  0  0  0  0
    7.1942    2.8659    2.6191 H   0  0  0  0  0  0  0  0  0  0  0  0
    4.8341    3.5470    3.0434 H   0  0  0  0  0  0  0  0  0  0  0  0
    3.7265    2.1707    2.9986 H   0  0  0  0  0  0  0  0  0  0  0  0
    3.8069    3.3000    1.6267 H   0  0  0  0  0  0  0  0  0  0  0  0
   -2.7027   -2.5646   -3.7276 H   0  0  0  0  0  0  0  0  0  0  0  0
   -1.9805   -3.9921   -2.9655 H   0  0  0  0  0  0  0  0  0  0  0  0
   -3.3503   -3.1944   -2.1981 H   0  0  0  0  0  0  0  0  0  0  0  0
   -3.7902   -0.3924   -2.8950 H   0  0  0  0  0  0  0  0  0  0  0  0
   -6.0115    0.4673   -2.2752 H   0  0  0  0  0  0  0  0  0  0  0  0
  1  2  1  0
  2  3  1  0
  3  4  2  0
  4  5  1  0
  5  6  2  0
  6  7  1  0
  7  8  1  0
  8  9  2  0
  9 10  1  0
 10 11  1  0
 11 12  2  0
 11 13  1  0
 13 14  1  0
 14 15  2  0
 15 16  1  0
 16 17  2  0
 17 18  1  0
 18 19  2  0
 19 20  1  0
 19 21  1  0
 21 22  1  0
  9 23  1  0
 23 24  1  0
 24 25  1  0
  6 26  1  0
 26 27  2  0
 27  3  1  0
 24  7  2  0
 22 13  2  0
 21 15  1  0
  1 28  1  0
  1 29  1  0
  1 30  1  0
  4 31  1  0
  5 32  1  0
 10 33  1  0
 17 34  1  0
 18 35  1  0
 20 36  1  0
 20 37  1  0
 20 38  1  0
 25 39  1  0
 25 40  1  0
 25 41  1  0
 26 42  1  0
 27 43  1  0
M  END
$$$$
