
     RDKit          3D

 49 52  0  0  0  0  0  0  0  0999 V2000
   -5.4582    3.1656    1.2683 C   0  0  0  0  0  0  0  0  0  0  0  0
   -4.2660    2.2569    1.1909 C   0  0  0  0  0  0  0  0  0  0  0  0
   -4.2581    1.0285    1.8599 C   0  0  0  0  0  0  0  0  0  0  0  0
   -3.1309    0.2029    1.8145 C   0  0  0  0  0  0  0  0  0  0  0  0
   -1.9944    0.6103    1.1067 C   0  0  0  0  0  0  0  0  0  0  0  0
   -0.8482   -0.2233    1.0792 N   0  0  0  0  0  0  0  0  0  0  0  0
   -0.8003   -1.5871    0.8044 C   0  0  0  0  0  0  0  0  0  0  0  0
   -1.9233   -2.4156    0.2644 C   0  0  0  0  0  0  0  0  0  0  0  0
   -2.4391   -1.9399   -1.0693 C   0  0  0  0  0  0  0  0  0  0  0  0
   -3.6829   -1.4122   -1.3670 C   0  0  0  0  0  0  0  0  0  0  0  0
   -3.8131   -1.0643   -2.7431 C   0  0  0  0  0  0  0  0  0  0  0  0
   -2.6693   -1.3474   -3.4552 C   0  0  0  0  0  0  0  0  0  0  0  0
   -1.4513   -2.0371   -2.4709 S   0  0  0  0  0  0  0  0  0  0  0  0
    0.4357   -2.0273    0.9752 N   0  0  0  0  0  0  0  0  0  0  0  0
    1.2239   -0.9691    1.3118 N   0  0  0  0  0  0  0  0  0  0  0  0
    0.4702    0.1077    1.3417 C   0  0  0  0  0  0  0  0  0  0  0  0
    1.0412    1.6743    1.8163 S   0  0  0  0  0  0  0  0  0  0  0  0
    2.7250    1.3014    2.3728 C   0  0  0  0  0  0  0  0  0  0  0  0
    3.6916    1.2180    1.2014 C   0  0  0  0  0  0  0  0  0  0  0  0
    4.3618    2.1920    0.8693 O   0  0  0  0  0  0  0  0  0  0  0  0
    3.7286   -0.0323    0.6090 N   0  0  0  0  0  0  0  0  0  0  0  0
    4.5766   -0.4748   -0.4213 C   0  0  0  0  0  0  0  0  0  0  0  0
    4.3157   -1.7479   -0.9563 C   0  0  0  0  0  0  0  0  0  0  0  0
    5.1242   -2.2749   -1.9694 C   0  0  0  0  0  0  0  0  0  0  0  0
    6.1994   -1.5320   -2.4413 C   0  0  0  0  0  0  0  0  0  0  0  0
    6.9804   -2.0407   -3.4052 F   0  0  0  0  0  0  0  0  0  0  0  0
    6.4641   -0.2719   -1.9186 C   0  0  0  0  0  0  0  0  0  0  0  0
    7.5096    0.4375   -2.3715 F   0  0  0  0  0  0  0  0  0  0  0  0
    5.6564    0.2636   -0.9133 C   0  0  0  0  0  0  0  0  0  0  0  0
   -1.9868    1.8432    0.4450 C   0  0  0  0  0  0  0  0  0  0  0  0
   -3.1217    2.6582    0.4859 C   0  0  0  0  0  0  0  0  0  0  0  0
   -5.2437    4.0117    1.9323 H   0  0  0  0  0  0  0  0  0  0  0  0
   -6.3365    2.6389    1.6561 H   0  0  0  0  0  0  0  0  0  0  0  0
   -5.7161    3.5434    0.2744 H   0  0  0  0  0  0  0  0  0  0  0  0
   -5.1269    0.7134    2.4375 H   0  0  0  0  0  0  0  0  0  0  0  0
   -3.1489   -0.7246    2.3820 H   0  0  0  0  0  0  0  0  0  0  0  0
   -1.5731   -3.4515    0.1524 H   0  0  0  0  0  0  0  0  0  0  0  0
   -2.7426   -2.4689    0.9898 H   0  0  0  0  0  0  0  0  0  0  0  0
   -4.4649   -1.2694   -0.6318 H   0  0  0  0  0  0  0  0  0  0  0  0
   -4.7017   -0.6278   -3.1844 H   0  0  0  0  0  0  0  0  0  0  0  0
   -2.4893   -1.1880   -4.5095 H   0  0  0  0  0  0  0  0  0  0  0  0
    3.0606    2.1147    3.0265 H   0  0  0  0  0  0  0  0  0  0  0  0
    2.7618    0.3837    2.9714 H   0  0  0  0  0  0  0  0  0  0  0  0
    2.9963   -0.6846    0.8936 H   0  0  0  0  0  0  0  0  0  0  0  0
    3.4664   -2.3363   -0.6065 H   0  0  0  0  0  0  0  0  0  0  0  0
    4.9213   -3.2554   -2.3905 H   0  0  0  0  0  0  0  0  0  0  0  0
    5.9125    1.2463   -0.5385 H   0  0  0  0  0  0  0  0  0  0  0  0
   -1.1286    2.1780   -0.1354 H   0  0  0  0  0  0  0  0  0  0  0  0
   -3.1072    3.6144   -0.0335 H   0  0  0  0  0  0  0  0  0  0  0  0
  1  2  1  0
  2  3  2  0
  3  4  1  0
  4  5  2  0
  5  6  1  0
  6  7  1  0
  7  8  1  0
  8  9  1  0
  9 10  2  0
 10 11  1  0
 11 12  2  0
 12 13  1  0
  7 14  2  0
 14 15  1  0
 15 16  2  0
 16 17  1  0
 17 18  1  0
 18 19  1  0
 19 20  2  0
 19 21  1  0
 21 22  1  0
 22 23  2  0
 23 24  1  0
 24 25  2  0
 25 26  1  0
 25 27  1  0
 27 28  1  0
 27 29  2  0
  5 30  1  0
 30 31  2  0
 31  2  1  0
 16  6  1  0
 29 22  1  0
 13  9  1  0
  1 32  1  0
  1 33  1  0
  1 34  1  0
  3 35  1  0
  4 36  1  0
  8 37  1  0
  8 38  1  0
 10 39  1  0
 11 40  1  0
 12 41  1  0
 18 42  1  0
 18 43  1  0
 21 44  1  0
 23 45  1  0
 24 46  1  0
 29 47  1  0
 30 48  1  0
 31 49  1  0
M  END
$$$$
