
     RDKit          3D

 57 62  0  0  0  0  0  0  0  0999 V2000
    7.2965    0.2675    2.8122 C   0  0  0  0  0  0  0  0  0  0  0  0
    6.0995   -0.2381    2.0826 C   0  0  0  0  0  0  0  0  0  0  0  0
    5.0174   -0.9317    2.5823 C   0  0  0  0  0  0  0  0  0  0  0  0
    4.0703   -1.2548    1.5670 C   0  0  0  0  0  0  0  0  0  0  0  0
    4.4481   -0.7807    0.3245 C   0  0  0  0  0  0  0  0  0  0  0  0
    3.7734   -0.9053   -0.9593 C   0  0  0  0  0  0  0  0  0  0  0  0
    4.3646   -1.2683   -1.9769 O   0  0  0  0  0  0  0  0  0  0  0  0
    2.3974   -0.6218   -1.0033 N   0  0  0  0  0  0  0  0  0  0  0  0
    1.6919   -0.9026   -2.2501 C   0  0  0  0  0  0  0  0  0  0  0  0
    0.1878   -0.9897   -2.0236 C   0  0  0  0  0  0  0  0  0  0  0  0
   -0.3788    0.3643   -1.5198 C   0  0  0  0  0  0  0  0  0  0  0  0
    0.6539    1.0981   -0.6189 C   0  0  0  0  0  0  0  0  0  0  0  0
    1.6954    0.1712    0.0026 C   0  0  0  0  0  0  0  0  0  0  0  0
   -0.5003    1.1391   -2.7486 O   0  0  0  0  0  0  0  0  0  0  0  0
   -1.3414    2.2103   -2.7522 C   0  0  0  0  0  0  0  0  0  0  0  0
   -1.2291    3.0735   -3.8424 C   0  0  0  0  0  0  0  0  0  0  0  0
   -2.0353    4.2118   -3.9224 C   0  0  0  0  0  0  0  0  0  0  0  0
   -2.9561    4.4824   -2.9106 C   0  0  0  0  0  0  0  0  0  0  0  0
   -3.9416    5.8883   -3.0079 Cl  0  0  0  0  0  0  0  0  0  0  0  0
   -3.0837    3.6209   -1.8246 C   0  0  0  0  0  0  0  0  0  0  0  0
   -2.2777    2.4795   -1.7611 C   0  0  0  0  0  0  0  0  0  0  0  0
   -2.4019    1.5409   -0.6399 C   0  0  0  0  0  0  0  0  0  0  0  0
   -2.9790    1.8902    0.3869 O   0  0  0  0  0  0  0  0  0  0  0  0
   -1.7628    0.1697   -0.8379 C   0  0  0  0  0  0  0  0  0  0  0  0
   -1.7480   -0.6108    0.4699 C   0  0  0  0  0  0  0  0  0  0  0  0
   -3.0237   -1.3650    0.2957 C   0  0  0  0  0  0  0  0  0  0  0  0
   -3.6739   -2.0787    1.4113 C   0  0  0  0  0  0  0  0  0  0  0  0
   -3.1312   -2.1235    2.6962 C   0  0  0  0  0  0  0  0  0  0  0  0
   -3.8033   -2.8230    3.6984 C   0  0  0  0  0  0  0  0  0  0  0  0
   -4.9939   -3.4562    3.3793 C   0  0  0  0  0  0  0  0  0  0  0  0
   -5.5437   -3.4355    2.1473 N   0  0  0  0  0  0  0  0  0  0  0  0
   -4.8737   -2.7457    1.1901 C   0  0  0  0  0  0  0  0  0  0  0  0
   -3.4865   -1.3732   -0.9132 N   0  0  0  0  0  0  0  0  0  0  0  0
   -2.6247   -0.5849   -1.7058 O   0  0  0  0  0  0  0  0  0  0  0  0
    5.9656    0.0081    0.3947 S   0  0  0  0  0  0  0  0  0  0  0  0
    7.2270    0.0412    3.8813 H   0  0  0  0  0  0  0  0  0  0  0  0
    7.3868    1.3536    2.7055 H   0  0  0  0  0  0  0  0  0  0  0  0
    8.2102   -0.1992    2.4297 H   0  0  0  0  0  0  0  0  0  0  0  0
    4.9152   -1.2079    3.6252 H   0  0  0  0  0  0  0  0  0  0  0  0
    3.1634   -1.8207    1.7393 H   0  0  0  0  0  0  0  0  0  0  0  0
    2.0593   -1.8477   -2.6663 H   0  0  0  0  0  0  0  0  0  0  0  0
    1.9420   -0.1100   -2.9654 H   0  0  0  0  0  0  0  0  0  0  0  0
   -0.0031   -1.7985   -1.3109 H   0  0  0  0  0  0  0  0  0  0  0  0
   -0.2927   -1.2755   -2.9679 H   0  0  0  0  0  0  0  0  0  0  0  0
    1.1872    1.8537   -1.2124 H   0  0  0  0  0  0  0  0  0  0  0  0
    0.1544    1.6541    0.1828 H   0  0  0  0  0  0  0  0  0  0  0  0
    2.4052    0.7782    0.5727 H   0  0  0  0  0  0  0  0  0  0  0  0
    1.2214   -0.5291    0.6974 H   0  0  0  0  0  0  0  0  0  0  0  0
   -0.5084    2.8649   -4.6300 H   0  0  0  0  0  0  0  0  0  0  0  0
   -1.9391    4.8814   -4.7738 H   0  0  0  0  0  0  0  0  0  0  0  0
   -3.8089    3.8264   -1.0406 H   0  0  0  0  0  0  0  0  0  0  0  0
   -1.7392    0.0150    1.3649 H   0  0  0  0  0  0  0  0  0  0  0  0
   -0.9412   -1.3435    0.5398 H   0  0  0  0  0  0  0  0  0  0  0  0
   -2.1986   -1.6274    2.9426 H   0  0  0  0  0  0  0  0  0  0  0  0
   -3.4087   -2.8729    4.7077 H   0  0  0  0  0  0  0  0  0  0  0  0
   -5.5530   -4.0122    4.1270 H   0  0  0  0  0  0  0  0  0  0  0  0
   -5.3507   -2.7501    0.2127 H   0  0  0  0  0  0  0  0  0  0  0  0
  1  2  1  0
  2  3  2  0
  3  4  1  0
  4  5  2  0
  5  6  1  0
  6  7  2  0
  6  8  1  0
  8  9  1  0
  9 10  1  0
 10 11  1  0
 11 12  1  0
 12 13  1  0
 11 14  1  0
 14 15  1  0
 15 16  2  0
 16 17  1  0
 17 18  2  0
 18 19  1  0
 18 20  1  0
 20 21  2  0
 21 22  1  0
 22 23  2  0
 22 24  1  0
 24 25  1  0
 25 26  1  0
 26 27  1  0
 27 28  2  0
 28 29  1  0
 29 30  2  0
 30 31  1  0
 31 32  2  0
 26 33  2  0
 33 34  1  0
  5 35  1  0
 35  2  1  0
 13  8  1  0
 21 15  1  0
 34 24  1  0
 24 11  1  0
 32 27  1  0
  1 36  1  0
  1 37  1  0
  1 38  1  0
  3 39  1  0
  4 40  1  0
  9 41  1  0
  9 42  1  0
 10 43  1  0
 10 44  1  0
 12 45  1  0
 12 46  1  0
 13 47  1  0
 13 48  1  0
 16 49  1  0
 17 50  1  0
 20 51  1  0
 25 52  1  0
 25 53  1  0
 28 54  1  0
 29 55  1  0
 30 56  1  0
 32 57  1  0
M  END
$$$$
