
     RDKit          3D

 45 47  0  0  0  0  0  0  0  0999 V2000
   -8.0497    1.5878    2.8696 C   0  0  0  0  0  0  0  0  0  0  0  0
   -7.1975    0.7075    3.5913 O   0  0  0  0  0  0  0  0  0  0  0  0
   -5.9202    0.5644    3.1236 C   0  0  0  0  0  0  0  0  0  0  0  0
   -5.3824    1.1884    1.9985 C   0  0  0  0  0  0  0  0  0  0  0  0
   -4.0536    0.9510    1.6301 C   0  0  0  0  0  0  0  0  0  0  0  0
   -3.2455    0.0899    2.3832 C   0  0  0  0  0  0  0  0  0  0  0  0
   -1.8218   -0.1766    1.9650 C   0  0  0  0  0  0  0  0  0  0  0  0
   -1.7401   -1.2880    0.9160 C   0  0  0  0  0  0  0  0  0  0  0  0
   -0.3721   -1.5776    0.5288 N   0  0  0  0  0  0  0  0  0  0  0  0
    0.3130   -0.7755   -0.3675 C   0  0  0  0  0  0  0  0  0  0  0  0
   -0.2197    0.2089   -0.8757 O   0  0  0  0  0  0  0  0  0  0  0  0
    1.6806   -1.1801   -0.6394 C   0  0  0  0  0  0  0  0  0  0  0  0
    2.4828   -2.2084   -0.1779 C   0  0  0  0  0  0  0  0  0  0  0  0
    3.7411   -2.0692   -0.8179 C   0  0  0  0  0  0  0  0  0  0  0  0
    3.6469   -0.9722   -1.6485 C   0  0  0  0  0  0  0  0  0  0  0  0
    4.5445   -0.2785   -2.5714 C   0  0  0  0  0  0  0  0  0  0  0  0
    4.4488    1.1253   -2.6677 C   0  0  0  0  0  0  0  0  0  0  0  0
    5.2817    1.8594   -3.5176 C   0  0  0  0  0  0  0  0  0  0  0  0
    6.2300    1.1886   -4.2928 C   0  0  0  0  0  0  0  0  0  0  0  0
    7.1110    1.9489   -5.1875 N   0  0  0  0  0  4  0  0  0  0  0  0
    6.9846    3.1809   -5.2103 O   0  0  0  0  0  0  0  0  0  0  0  0
    7.9310    1.3124   -5.8636 O   0  0  0  0  0  1  0  0  0  0  0  0
    6.3440   -0.2038   -4.2251 C   0  0  0  0  0  0  0  0  0  0  0  0
    5.5033   -0.9311   -3.3703 C   0  0  0  0  0  0  0  0  0  0  0  0
    5.6915   -2.6523   -3.3974 Cl  0  0  0  0  0  0  0  0  0  0  0  0
    2.3995   -0.4289   -1.5313 O   0  0  0  0  0  0  0  0  0  0  0  0
   -3.7902   -0.5373    3.5084 C   0  0  0  0  0  0  0  0  0  0  0  0
   -5.1172   -0.2980    3.8732 C   0  0  0  0  0  0  0  0  0  0  0  0
   -7.6607    2.6114    2.8800 H   0  0  0  0  0  0  0  0  0  0  0  0
   -8.2066    1.2338    1.8454 H   0  0  0  0  0  0  0  0  0  0  0  0
   -9.0224    1.5968    3.3709 H   0  0  0  0  0  0  0  0  0  0  0  0
   -5.9668    1.8647    1.3840 H   0  0  0  0  0  0  0  0  0  0  0  0
   -3.6515    1.4454    0.7470 H   0  0  0  0  0  0  0  0  0  0  0  0
   -1.3766    0.7506    1.5827 H   0  0  0  0  0  0  0  0  0  0  0  0
   -1.2218   -0.4473    2.8436 H   0  0  0  0  0  0  0  0  0  0  0  0
   -2.1650   -2.2198    1.3060 H   0  0  0  0  0  0  0  0  0  0  0  0
   -2.3073   -1.0156    0.0181 H   0  0  0  0  0  0  0  0  0  0  0  0
    0.0943   -2.3592    0.9637 H   0  0  0  0  0  0  0  0  0  0  0  0
    2.2104   -2.9706    0.5374 H   0  0  0  0  0  0  0  0  0  0  0  0
    4.6106   -2.6965   -0.6779 H   0  0  0  0  0  0  0  0  0  0  0  0
    3.7125    1.6629   -2.0685 H   0  0  0  0  0  0  0  0  0  0  0  0
    5.1730    2.9418   -3.5597 H   0  0  0  0  0  0  0  0  0  0  0  0
    7.0746   -0.7320   -4.8355 H   0  0  0  0  0  0  0  0  0  0  0  0
   -3.1899   -1.2140    4.1115 H   0  0  0  0  0  0  0  0  0  0  0  0
   -5.5307   -0.7881    4.7514 H   0  0  0  0  0  0  0  0  0  0  0  0
  1  2  1  0
  2  3  1  0
  3  4  2  0
  4  5  1  0
  5  6  2  0
  6  7  1  0
  7  8  1  0
  8  9  1  0
  9 10  1  0
 10 11  2  0
 10 12  1  0
 12 13  2  0
 13 14  1  0
 14 15  2  0
 15 16  1  0
 16 17  2  0
 17 18  1  0
 18 19  2  0
 19 20  1  0
 20 21  2  0
 20 22  1  0
 19 23  1  0
 23 24  2  0
 24 25  1  0
 15 26  1  0
  6 27  1  0
 27 28  2  0
 28  3  1  0
 26 12  1  0
 24 16  1  0
  1 29  1  0
  1 30  1  0
  1 31  1  0
  4 32  1  0
  5 33  1  0
  7 34  1  0
  7 35  1  0
  8 36  1  0
  8 37  1  0
  9 38  1  0
 13 39  1  0
 14 40  1  0
 17 41  1  0
 18 42  1  0
 23 43  1  0
 27 44  1  0
 28 45  1  0
M  CHG  2  20   1  22  -1
M  END
$$$$
