
     RDKit          3D

 52 57  0  0  0  0  0  0  0  0999 V2000
    4.9178   -2.5513   -0.8653 C   0  0  0  0  0  0  0  0  0  0  0  0
    3.9124   -1.9018    0.0367 C   0  0  0  0  0  0  0  0  0  0  0  0
    3.8699   -2.1815    1.4167 C   0  0  0  0  0  0  0  0  0  0  0  0
    4.9797   -3.2974    2.1388 Cl  0  0  0  0  0  0  0  0  0  0  0  0
    2.9335   -1.5634    2.2696 C   0  0  0  0  0  0  0  0  0  0  0  0
    2.0074   -0.6486    1.7696 C   0  0  0  0  0  0  0  0  0  0  0  0
    2.0350   -0.3717    0.4128 C   0  0  0  0  0  0  0  0  0  0  0  0
    2.9796   -0.9819   -0.4268 C   0  0  0  0  0  0  0  0  0  0  0  0
    2.8241   -0.5063   -1.7294 N   0  0  0  0  0  0  0  0  0  0  0  0
    1.7843    0.4233   -1.8229 C   0  0  0  0  0  0  0  0  0  0  0  0
    1.4641    1.0060   -2.8494 O   0  0  0  0  0  0  0  0  0  0  0  0
    1.1858    0.5581   -0.4022 C   0  0  1  0  0  0  0  0  0  0  0  0
   -0.2360    0.1347   -0.3258 C   0  0  0  0  0  0  0  0  0  0  0  0
   -1.0661    1.2572   -0.1756 C   0  0  0  0  0  0  0  0  0  0  0  0
   -2.3647    0.8458   -0.0812 C   0  0  0  0  0  0  0  0  0  0  0  0
   -3.4449    1.5846    0.1675 O   0  0  0  0  0  0  0  0  0  0  0  0
   -2.3569   -0.5558   -0.2274 N   0  0  0  0  0  0  0  0  0  0  0  0
   -3.5031   -1.4031   -0.2053 C   0  0  0  0  0  0  0  0  0  0  0  0
   -4.6884   -0.9997   -0.8343 C   0  0  0  0  0  0  0  0  0  0  0  0
   -5.8068   -1.8346   -0.8105 C   0  0  0  0  0  0  0  0  0  0  0  0
   -5.7473   -3.0664   -0.1596 C   0  0  0  0  0  0  0  0  0  0  0  0
   -4.5692   -3.4698    0.4679 C   0  0  0  0  0  0  0  0  0  0  0  0
   -3.4450   -2.6427    0.4457 C   0  0  0  0  0  0  0  0  0  0  0  0
   -1.0249   -0.9811   -0.4087 C   0  0  0  0  0  0  0  0  0  0  0  0
   -0.6560   -2.2322   -0.6809 O   0  0  0  0  0  0  0  0  0  0  0  0
   -0.2624    2.4958   -0.1679 C   0  0  1  0  0  0  0  0  0  0  0  0
   -0.5834    3.5743    0.8834 C   0  0  0  0  0  0  0  0  0  0  0  0
    0.5776    4.4182    1.2763 N   0  0  0  0  0  0  0  0  0  0  0  0
    1.6687    4.3523    0.2861 C   0  0  0  0  0  0  0  0  0  0  0  0
    2.1441    2.9086   -0.0770 C   0  0  0  0  0  0  0  0  0  0  0  0
    1.0855    1.9372    0.1103 N   0  0  0  0  0  0  0  0  0  0  0  0
    4.8348   -3.6417   -0.8078 H   0  0  0  0  0  0  0  0  0  0  0  0
    4.7762   -2.2795   -1.9149 H   0  0  0  0  0  0  0  0  0  0  0  0
    5.9312   -2.2479   -0.5832 H   0  0  0  0  0  0  0  0  0  0  0  0
    2.9278   -1.7958    3.3322 H   0  0  0  0  0  0  0  0  0  0  0  0
    1.2863   -0.1643    2.4215 H   0  0  0  0  0  0  0  0  0  0  0  0
    3.3725   -0.7740   -2.5312 H   0  0  0  0  0  0  0  0  0  0  0  0
   -4.1374    1.0128    0.5443 H   0  0  0  0  0  0  0  0  0  0  0  0
   -4.7472   -0.0642   -1.3880 H   0  0  0  0  0  0  0  0  0  0  0  0
   -6.7236   -1.5293   -1.3098 H   0  0  0  0  0  0  0  0  0  0  0  0
   -6.6209   -3.7140   -0.1421 H   0  0  0  0  0  0  0  0  0  0  0  0
   -4.5299   -4.4265    0.9838 H   0  0  0  0  0  0  0  0  0  0  0  0
   -2.5510   -2.9619    0.9790 H   0  0  0  0  0  0  0  0  0  0  0  0
   -1.4227   -2.7206   -1.0298 H   0  0  0  0  0  0  0  0  0  0  0  0
   -0.2819    2.9350   -1.1755 H   0  0  0  0  0  0  0  0  0  0  0  0
   -0.9785    3.1194    1.7996 H   0  0  0  0  0  0  0  0  0  0  0  0
   -1.3758    4.2223    0.4892 H   0  0  0  0  0  0  0  0  0  0  0  0
    0.2723    5.3800    1.4074 H   0  0  0  0  0  0  0  0  0  0  0  0
    2.5246    4.9235    0.6619 H   0  0  0  0  0  0  0  0  0  0  0  0
    1.3317    4.8544   -0.6301 H   0  0  0  0  0  0  0  0  0  0  0  0
    2.9859    2.6403    0.5713 H   0  0  0  0  0  0  0  0  0  0  0  0
    2.5112    2.9254   -1.1090 H   0  0  0  0  0  0  0  0  0  0  0  0
  1  2  1  0
  2  3  2  0
  3  4  1  0
  3  5  1  0
  5  6  2  0
  6  7  1  0
  7  8  2  0
  8  9  1  0
  9 10  1  0
 10 11  2  0
 10 12  1  0
 12 13  1  0
 13 14  1  0
 14 15  2  0
 15 16  1  0
 15 17  1  0
 17 18  1  0
 18 19  2  0
 19 20  1  0
 20 21  2  0
 21 22  1  0
 22 23  2  0
 17 24  1  0
 24 25  1  0
 14 26  1  0
 26 27  1  0
 27 28  1  0
 28 29  1  0
 29 30  1  0
 30 31  1  0
  8  2  1  0
 12 31  1  1
 12  7  1  0
 24 13  2  0
 31 26  1  0
 23 18  1  0
  1 32  1  0
  1 33  1  0
  1 34  1  0
  5 35  1  0
  6 36  1  0
  9 37  1  0
 16 38  1  0
 19 39  1  0
 20 40  1  0
 21 41  1  0
 22 42  1  0
 23 43  1  0
 25 44  1  0
 26 45  1  6
 27 46  1  0
 27 47  1  0
 28 48  1  0
 29 49  1  0
 29 50  1  0
 30 51  1  0
 30 52  1  0
M  END
$$$$
