
     RDKit          3D

 39 41  0  0  0  0  0  0  0  0999 V2000
   -4.3247    0.9341   -2.3850 C   0  0  0  0  0  0  0  0  0  0  0  0
   -3.9294    0.7194   -0.9529 C   0  0  0  0  0  0  0  0  0  0  0  0
   -4.9026    0.7081    0.0495 C   0  0  0  0  0  0  0  0  0  0  0  0
   -4.5587    0.5553    1.3958 C   0  0  0  0  0  0  0  0  0  0  0  0
   -3.2025    0.4172    1.7107 C   0  0  0  0  0  0  0  0  0  0  0  0
   -2.5951    0.2753    2.9360 N   0  0  0  0  0  0  0  0  0  0  0  0
   -1.2307    0.1885    2.7959 C   0  0  0  0  0  0  0  0  0  0  0  0
   -0.3462    0.0382    3.9809 C   0  0  0  0  0  0  0  0  0  0  0  0
   -0.9548    0.2534    1.4411 C   0  0  0  0  0  0  0  0  0  0  0  0
    0.3695    0.1839    0.9060 C   0  0  0  0  0  0  0  0  0  0  0  0
    0.7069   -0.4579   -0.2253 C   0  0  0  0  0  0  0  0  0  0  0  0
    2.0701   -0.5287   -0.7617 C   0  0  0  0  0  0  0  0  0  0  0  0
    2.2576   -0.4750   -2.1419 C   0  0  0  0  0  0  0  0  0  0  0  0
    3.5408   -0.5669   -2.6692 C   0  0  0  0  0  0  0  0  0  0  0  0
    4.6098   -0.7158   -1.8560 N   0  0  0  0  0  4  0  0  0  0  0  0
    5.9585   -0.8222   -2.4378 C   0  0  0  0  0  0  0  0  0  0  0  0
    4.4511   -0.7964   -0.5162 C   0  0  0  0  0  0  0  0  0  0  0  0
    3.1862   -0.7068    0.0543 C   0  0  0  0  0  0  0  0  0  0  0  0
   -2.1956    0.4187    0.7458 C   0  0  0  0  0  0  0  0  0  0  0  0
   -2.5732    0.5918   -0.6056 C   0  0  0  0  0  0  0  0  0  0  0  0
   -3.6199    0.4409   -3.0626 H   0  0  0  0  0  0  0  0  0  0  0  0
   -4.3431    2.0046   -2.6113 H   0  0  0  0  0  0  0  0  0  0  0  0
   -5.3153    0.5120   -2.5845 H   0  0  0  0  0  0  0  0  0  0  0  0
   -5.9532    0.8269   -0.2104 H   0  0  0  0  0  0  0  0  0  0  0  0
   -5.3242    0.5542    2.1655 H   0  0  0  0  0  0  0  0  0  0  0  0
   -3.0942    0.2509    3.8147 H   0  0  0  0  0  0  0  0  0  0  0  0
    0.2794    0.9282    4.1027 H   0  0  0  0  0  0  0  0  0  0  0  0
    0.3082   -0.8314    3.8629 H   0  0  0  0  0  0  0  0  0  0  0  0
   -0.9229   -0.0987    4.9015 H   0  0  0  0  0  0  0  0  0  0  0  0
    1.1374    0.6814    1.4935 H   0  0  0  0  0  0  0  0  0  0  0  0
   -0.0609   -0.9688   -0.8039 H   0  0  0  0  0  0  0  0  0  0  0  0
    1.4094   -0.3537   -2.8138 H   0  0  0  0  0  0  0  0  0  0  0  0
    3.7212   -0.5256   -3.7398 H   0  0  0  0  0  0  0  0  0  0  0  0
    6.1481   -1.8805   -2.6330 H   0  0  0  0  0  0  0  0  0  0  0  0
    6.6871   -0.4196   -1.7294 H   0  0  0  0  0  0  0  0  0  0  0  0
    5.9961   -0.2420   -3.3634 H   0  0  0  0  0  0  0  0  0  0  0  0
    5.3409   -0.9391    0.0907 H   0  0  0  0  0  0  0  0  0  0  0  0
    3.0819   -0.7911    1.1343 H   0  0  0  0  0  0  0  0  0  0  0  0
   -1.8132    0.6370   -1.3786 H   0  0  0  0  0  0  0  0  0  0  0  0
  1  2  1  0
  2  3  2  0
  3  4  1  0
  4  5  2  0
  5  6  1  0
  6  7  1  0
  7  8  1  0
  7  9  2  0
  9 10  1  0
 10 11  2  3
 11 12  1  0
 12 13  2  0
 13 14  1  0
 14 15  2  0
 15 16  1  0
 15 17  1  0
 17 18  2  0
  9 19  1  0
 19 20  2  0
 20  2  1  0
 19  5  1  0
 18 12  1  0
  1 21  1  0
  1 22  1  0
  1 23  1  0
  3 24  1  0
  4 25  1  0
  6 26  1  0
  8 27  1  0
  8 28  1  0
  8 29  1  0
 10 30  1  0
 11 31  1  0
 13 32  1  0
 14 33  1  0
 16 34  1  0
 16 35  1  0
 16 36  1  0
 17 37  1  0
 18 38  1  0
 20 39  1  0
M  CHG  1  15   1
M  END
$$$$
