
     RDKit          3D

 46 49  0  0  0  0  0  0  0  0999 V2000
   -6.4889    1.5028   -0.3000 C   0  0  0  0  0  0  0  0  0  0  0  0
   -6.0972    0.0412   -0.4289 C   0  0  0  0  0  0  0  0  0  0  0  0
   -4.8665   -0.2150    0.2489 O   0  0  0  0  0  0  0  0  0  0  0  0
   -3.6897   -0.0729   -0.4429 C   0  0  0  0  0  0  0  0  0  0  0  0
   -3.5497    0.4297   -1.7328 C   0  0  0  0  0  0  0  0  0  0  0  0
   -2.2808    0.5306   -2.3018 C   0  0  0  0  0  0  0  0  0  0  0  0
   -1.1511    0.1273   -1.5837 C   0  0  0  0  0  0  0  0  0  0  0  0
   -1.2498   -0.3910   -0.2766 C   0  0  0  0  0  0  0  0  0  0  0  0
   -0.0336   -0.8094    0.4408 C   0  0  0  0  0  0  0  0  0  0  0  0
   -0.1107   -1.8735    1.2674 N   0  0  0  0  0  0  0  0  0  0  0  0
    1.0311   -2.2469    1.8921 C   0  0  0  0  0  0  0  0  0  0  0  0
    0.9357   -3.4060    2.8207 C   0  0  0  0  0  0  0  0  0  0  0  0
   -0.3183   -3.9339    2.9694 N   0  0  0  0  0  0  0  0  0  0  0  0
    1.9073   -3.8529    3.4172 O   0  0  0  0  0  0  0  0  0  0  0  0
    2.2097   -1.5981    1.6849 C   0  0  0  0  0  0  0  0  0  0  0  0
    3.4917   -1.7968    2.1711 N   0  0  0  0  0  0  0  0  0  0  0  0
    4.3388   -0.8369    1.6024 C   0  0  0  0  0  0  0  0  0  0  0  0
    5.5310   -0.7653    1.8502 O   0  0  0  0  0  0  0  0  0  0  0  0
    3.5242   -0.0283    0.7510 N   0  0  0  0  0  0  0  0  0  0  0  0
    3.9454    1.0744   -0.0412 C   0  0  0  0  0  0  0  0  0  0  0  0
    3.0413    1.9589   -0.6543 C   0  0  0  0  0  0  0  0  0  0  0  0
    3.4777    3.0408   -1.4310 C   0  0  0  0  0  0  0  0  0  0  0  0
    4.8362    3.2662   -1.6123 C   0  0  0  0  0  0  0  0  0  0  0  0
    5.7492    2.4095   -1.0114 C   0  0  0  0  0  0  0  0  0  0  0  0
    7.4358    2.6795   -1.2326 Cl  0  0  0  0  0  0  0  0  0  0  0  0
    5.3137    1.3305   -0.2345 C   0  0  0  0  0  0  0  0  0  0  0  0
    2.1989   -0.5305    0.8206 C   0  0  0  0  0  0  0  0  0  0  0  0
    1.1021   -0.1225    0.1734 N   0  0  0  0  0  0  0  0  0  0  0  0
   -2.5416   -0.4706    0.2718 C   0  0  0  0  0  0  0  0  0  0  0  0
   -2.7272   -0.9221    1.5598 O   0  0  0  0  0  0  0  0  0  0  0  0
   -7.4665    1.6824   -0.7565 H   0  0  0  0  0  0  0  0  0  0  0  0
   -6.5340    1.7953    0.7543 H   0  0  0  0  0  0  0  0  0  0  0  0
   -5.7555    2.1584   -0.7787 H   0  0  0  0  0  0  0  0  0  0  0  0
   -6.8582   -0.5652    0.0755 H   0  0  0  0  0  0  0  0  0  0  0  0
   -6.0844   -0.3006   -1.4695 H   0  0  0  0  0  0  0  0  0  0  0  0
   -4.3975    0.7639   -2.3202 H   0  0  0  0  0  0  0  0  0  0  0  0
   -2.1667    0.9262   -3.3087 H   0  0  0  0  0  0  0  0  0  0  0  0
   -0.1745    0.2163   -2.0596 H   0  0  0  0  0  0  0  0  0  0  0  0
   -0.4718   -4.6871    3.6240 H   0  0  0  0  0  0  0  0  0  0  0  0
   -1.1077   -3.4916    2.5066 H   0  0  0  0  0  0  0  0  0  0  0  0
    3.7746   -2.5201    2.8222 H   0  0  0  0  0  0  0  0  0  0  0  0
    1.9684    1.8607   -0.5294 H   0  0  0  0  0  0  0  0  0  0  0  0
    2.7494    3.7081   -1.8856 H   0  0  0  0  0  0  0  0  0  0  0  0
    5.1745    4.1051   -2.2137 H   0  0  0  0  0  0  0  0  0  0  0  0
    6.0754    0.6888    0.1981 H   0  0  0  0  0  0  0  0  0  0  0  0
   -3.6903   -0.8595    1.7157 H   0  0  0  0  0  0  0  0  0  0  0  0
  1  2  1  0
  2  3  1  0
  3  4  1  0
  4  5  2  0
  5  6  1  0
  6  7  2  0
  7  8  1  0
  8  9  1  0
  9 10  2  0
 10 11  1  0
 11 12  1  0
 12 13  1  0
 12 14  2  0
 11 15  2  0
 15 16  1  0
 16 17  1  0
 17 18  2  0
 17 19  1  0
 19 20  1  0
 20 21  2  0
 21 22  1  0
 22 23  2  0
 23 24  1  0
 24 25  1  0
 24 26  2  0
 19 27  1  0
 27 28  2  0
  8 29  2  0
 29 30  1  0
 29  4  1  0
 28  9  1  0
 27 15  1  0
 26 20  1  0
  1 31  1  0
  1 32  1  0
  1 33  1  0
  2 34  1  0
  2 35  1  0
  5 36  1  0
  6 37  1  0
  7 38  1  0
 13 39  1  0
 13 40  1  0
 16 41  1  0
 21 42  1  0
 22 43  1  0
 23 44  1  0
 26 45  1  0
 30 46  1  0
M  END
$$$$
