
     RDKit          3D

 34 36  0  0  0  0  0  0  0  0999 V2000
    4.7573    1.9581   -0.3938 C   0  0  0  0  0  0  0  0  0  0  0  0
    4.5476    0.5935    0.0406 N   0  0  0  0  0  0  0  0  0  0  0  0
    5.6197   -0.2205    0.1490 N   0  0  0  0  0  0  0  0  0  0  0  0
    5.0965   -1.3737    0.5627 C   0  0  0  0  0  0  0  0  0  0  0  0
    3.7007   -1.3040    0.7052 C   0  0  0  0  0  0  0  0  0  0  0  0
    2.7354   -2.5854    1.2556 Cl  0  0  0  0  0  0  0  0  0  0  0  0
    3.3463   -0.0161    0.3419 C   0  0  0  0  0  0  0  0  0  0  0  0
    2.0636    0.6618    0.2876 C   0  0  0  0  0  0  0  0  0  0  0  0
    2.0064    1.8860    0.3198 O   0  0  0  0  0  0  0  0  0  0  0  0
    0.9803   -0.1866    0.1605 N   0  0  0  0  0  0  0  0  0  0  0  0
   -0.3668    0.1506    0.0985 C   0  0  0  0  0  0  0  0  0  0  0  0
   -0.8933    1.7637    0.3429 S   0  0  0  0  0  0  0  0  0  0  0  0
   -2.4796    1.3168    0.1137 C   0  0  0  0  0  0  0  0  0  0  0  0
   -2.6566   -0.0165   -0.1304 C   0  0  0  0  0  0  0  0  0  0  0  0
   -1.4251   -0.7388   -0.1304 C   0  0  0  0  0  0  0  0  0  0  0  0
   -1.2063   -2.1651   -0.3555 C   0  0  0  0  0  0  0  0  0  0  0  0
   -2.2996   -2.9768   -0.2663 N   0  0  0  0  0  0  0  0  0  0  0  0
   -0.0987   -2.6465   -0.5777 O   0  0  0  0  0  0  0  0  0  0  0  0
   -4.0981   -0.3136   -0.3490 C   0  0  0  0  0  0  0  0  0  0  0  0
   -4.7132    1.1064   -0.5473 C   0  0  0  0  0  0  0  0  0  0  0  0
   -3.7269    2.1149    0.1110 C   0  0  0  0  0  0  0  0  0  0  0  0
    5.7997    2.0844   -0.6996 H   0  0  0  0  0  0  0  0  0  0  0  0
    4.5378    2.6239    0.4440 H   0  0  0  0  0  0  0  0  0  0  0  0
    4.1049    2.1600   -1.2466 H   0  0  0  0  0  0  0  0  0  0  0  0
    5.7539   -2.2131    0.7487 H   0  0  0  0  0  0  0  0  0  0  0  0
    1.1707   -1.1796    0.0285 H   0  0  0  0  0  0  0  0  0  0  0  0
   -2.1125   -3.9704   -0.2833 H   0  0  0  0  0  0  0  0  0  0  0  0
   -3.1443   -2.6683    0.1886 H   0  0  0  0  0  0  0  0  0  0  0  0
   -4.2749   -0.9418   -1.2264 H   0  0  0  0  0  0  0  0  0  0  0  0
   -4.5288   -0.7918    0.5370 H   0  0  0  0  0  0  0  0  0  0  0  0
   -5.7247    1.1832   -0.1366 H   0  0  0  0  0  0  0  0  0  0  0  0
   -4.7771    1.3195   -1.6227 H   0  0  0  0  0  0  0  0  0  0  0  0
   -3.6534    3.0365   -0.4724 H   0  0  0  0  0  0  0  0  0  0  0  0
   -4.0412    2.3492    1.1332 H   0  0  0  0  0  0  0  0  0  0  0  0
  1  2  1  0
  2  3  1  0
  3  4  2  0
  4  5  1  0
  5  6  1  0
  5  7  2  0
  7  8  1  0
  8  9  2  0
  8 10  1  0
 10 11  1  0
 11 12  1  0
 12 13  1  0
 13 14  2  0
 14 15  1  0
 15 16  1  0
 16 17  1  0
 16 18  2  0
 14 19  1  0
 19 20  1  0
 20 21  1  0
  7  2  1  0
 15 11  2  0
 21 13  1  0
  1 22  1  0
  1 23  1  0
  1 24  1  0
  4 25  1  0
 10 26  1  0
 17 27  1  0
 17 28  1  0
 19 29  1  0
 19 30  1  0
 20 31  1  0
 20 32  1  0
 21 33  1  0
 21 34  1  0
M  END
$$$$
