
     RDKit          3D

 44 45  0  0  0  0  0  0  0  0999 V2000
   -7.1641   -1.9381    2.1717 C   0  0  0  0  0  0  0  0  0  0  0  0
   -7.0916   -1.5459    0.7029 C   0  0  0  0  0  0  0  0  0  0  0  0
   -6.7708   -0.0659    0.5122 C   0  0  0  0  0  0  0  0  0  0  0  0
   -5.5107    0.2718    1.1120 O   0  0  0  0  0  0  0  0  0  0  0  0
   -4.4144    0.0589    0.3445 C   0  0  0  0  0  0  0  0  0  0  0  0
   -4.4062   -0.3828   -0.7939 O   0  0  0  0  0  0  0  0  0  0  0  0
   -3.1771    0.4355    1.0794 C   0  0  0  0  0  0  0  0  0  0  0  0
   -3.1991    0.9235    2.3896 C   0  0  0  0  0  0  0  0  0  0  0  0
   -2.0032    1.2573    3.0237 C   0  0  0  0  0  0  0  0  0  0  0  0
   -0.7830    1.1062    2.3569 C   0  0  0  0  0  0  0  0  0  0  0  0
   -0.7434    0.6199    1.0493 C   0  0  0  0  0  0  0  0  0  0  0  0
    0.4427    0.4370    0.3064 N   0  0  0  0  0  0  0  0  0  0  0  0
    1.7472    0.6956    0.7163 C   0  0  0  0  0  0  0  0  0  0  0  0
    2.0827    1.1334    1.8117 O   0  0  0  0  0  0  0  0  0  0  0  0
    2.7631    0.3637   -0.3869 C   0  0  0  0  0  0  0  0  0  0  0  0
    4.0924    0.6291    0.0348 O   0  0  0  0  0  0  0  0  0  0  0  0
    5.1005    0.3777   -0.8516 C   0  0  0  0  0  0  0  0  0  0  0  0
    4.9520   -0.1206   -2.1478 C   0  0  0  0  0  0  0  0  0  0  0  0
    6.0775   -0.3323   -2.9537 C   0  0  0  0  0  0  0  0  0  0  0  0
    7.3549   -0.0425   -2.4558 C   0  0  0  0  0  0  0  0  0  0  0  0
    8.5344   -0.2646   -3.3012 N   0  0  0  0  0  4  0  0  0  0  0  0
    9.6460    0.0039   -2.8242 O   0  0  0  0  0  0  0  0  0  0  0  0
    8.3479   -0.7082   -4.4436 O   0  0  0  0  0  1  0  0  0  0  0  0
    7.5124    0.4568   -1.1591 C   0  0  0  0  0  0  0  0  0  0  0  0
    6.3813    0.6634   -0.3654 C   0  0  0  0  0  0  0  0  0  0  0  0
   -1.9480    0.2862    0.4170 C   0  0  0  0  0  0  0  0  0  0  0  0
   -6.2026   -1.7870    2.6723 H   0  0  0  0  0  0  0  0  0  0  0  0
   -7.9225   -1.3491    2.6972 H   0  0  0  0  0  0  0  0  0  0  0  0
   -7.4299   -2.9957    2.2669 H   0  0  0  0  0  0  0  0  0  0  0  0
   -8.0487   -1.7726    0.2201 H   0  0  0  0  0  0  0  0  0  0  0  0
   -6.3246   -2.1606    0.2187 H   0  0  0  0  0  0  0  0  0  0  0  0
   -7.5333    0.5497    1.0020 H   0  0  0  0  0  0  0  0  0  0  0  0
   -6.7821    0.2043   -0.5505 H   0  0  0  0  0  0  0  0  0  0  0  0
   -4.1348    1.0488    2.9288 H   0  0  0  0  0  0  0  0  0  0  0  0
   -2.0147    1.6375    4.0429 H   0  0  0  0  0  0  0  0  0  0  0  0
    0.1204    1.3800    2.8939 H   0  0  0  0  0  0  0  0  0  0  0  0
    0.3198    0.0756   -0.6317 H   0  0  0  0  0  0  0  0  0  0  0  0
    2.5150    0.9835   -1.2571 H   0  0  0  0  0  0  0  0  0  0  0  0
    2.6508   -0.7011   -0.6252 H   0  0  0  0  0  0  0  0  0  0  0  0
    3.9782   -0.3557   -2.5649 H   0  0  0  0  0  0  0  0  0  0  0  0
    5.9410   -0.7213   -3.9611 H   0  0  0  0  0  0  0  0  0  0  0  0
    8.4946    0.6884   -0.7528 H   0  0  0  0  0  0  0  0  0  0  0  0
    6.4963    1.0519    0.6453 H   0  0  0  0  0  0  0  0  0  0  0  0
   -1.9459   -0.0956   -0.6021 H   0  0  0  0  0  0  0  0  0  0  0  0
  1  2  1  0
  2  3  1  0
  3  4  1  0
  4  5  1  0
  5  6  2  0
  5  7  1  0
  7  8  2  0
  8  9  1  0
  9 10  2  0
 10 11  1  0
 11 12  1  0
 12 13  1  0
 13 14  2  0
 13 15  1  0
 15 16  1  0
 16 17  1  0
 17 18  2  0
 18 19  1  0
 19 20  2  0
 20 21  1  0
 21 22  2  0
 21 23  1  0
 20 24  1  0
 24 25  2  0
 11 26  2  0
 26  7  1  0
 25 17  1  0
  1 27  1  0
  1 28  1  0
  1 29  1  0
  2 30  1  0
  2 31  1  0
  3 32  1  0
  3 33  1  0
  8 34  1  0
  9 35  1  0
 10 36  1  0
 12 37  1  0
 15 38  1  0
 15 39  1  0
 18 40  1  0
 19 41  1  0
 24 42  1  0
 25 43  1  0
 26 44  1  0
M  CHG  2  21   1  23  -1
M  END
$$$$
