
     RDKit          3D

 34 34  0  0  0  0  0  0  0  0999 V2000
    4.6835   -0.6291   -1.4884 C   0  0  0  0  0  0  0  0  0  0  0  0
    4.0871    0.7663   -1.3917 C   0  0  0  0  0  0  0  0  0  0  0  0
    4.1683    1.3684    0.0145 C   0  0  0  0  0  0  0  0  0  0  0  0
    3.3919    0.5964    1.0787 C   0  0  0  0  0  0  0  0  0  0  0  0
    2.0168    0.5105    0.6862 O   0  0  0  0  0  0  0  0  0  0  0  0
    1.2317   -0.1840    1.5455 C   0  0  0  0  0  0  0  0  0  0  0  0
    1.5976   -0.7068    2.5864 O   0  0  0  0  0  0  0  0  0  0  0  0
   -0.1709   -0.2332    1.0509 C   0  0  0  0  0  0  0  0  0  0  0  0
   -0.5678    0.3583   -0.1533 C   0  0  0  0  0  0  0  0  0  0  0  0
   -1.9023    0.2821   -0.5750 C   0  0  0  0  0  0  0  0  0  0  0  0
   -2.8561   -0.3835    0.1973 C   0  0  0  0  0  0  0  0  0  0  0  0
   -4.2151   -0.5045   -0.1579 N   0  0  0  0  0  0  0  0  0  0  0  0
   -4.8396    0.0014   -1.2839 C   0  0  0  0  0  0  0  0  0  0  0  0
   -6.3112   -0.3295   -1.3174 C   0  0  0  0  0  0  0  0  0  0  0  0
   -4.3274    0.6694   -2.1747 O   0  0  0  0  0  0  0  0  0  0  0  0
   -2.4554   -0.9756    1.4017 C   0  0  0  0  0  0  0  0  0  0  0  0
   -1.1242   -0.9020    1.8265 C   0  0  0  0  0  0  0  0  0  0  0  0
    5.7151   -0.6422   -1.1230 H   0  0  0  0  0  0  0  0  0  0  0  0
    4.1016   -1.3542   -0.9118 H   0  0  0  0  0  0  0  0  0  0  0  0
    4.6890   -0.9636   -2.5308 H   0  0  0  0  0  0  0  0  0  0  0  0
    3.0464    0.7417   -1.7346 H   0  0  0  0  0  0  0  0  0  0  0  0
    4.6278    1.4257   -2.0814 H   0  0  0  0  0  0  0  0  0  0  0  0
    5.2174    1.4510    0.3214 H   0  0  0  0  0  0  0  0  0  0  0  0
    3.7664    2.3879   -0.0396 H   0  0  0  0  0  0  0  0  0  0  0  0
    3.8086   -0.4088    1.2074 H   0  0  0  0  0  0  0  0  0  0  0  0
    3.4614    1.1324    2.0326 H   0  0  0  0  0  0  0  0  0  0  0  0
    0.1465    0.8850   -0.7819 H   0  0  0  0  0  0  0  0  0  0  0  0
   -2.1606    0.7564   -1.5173 H   0  0  0  0  0  0  0  0  0  0  0  0
   -4.7988   -1.0146    0.4931 H   0  0  0  0  0  0  0  0  0  0  0  0
   -6.6679   -0.2938   -2.3509 H   0  0  0  0  0  0  0  0  0  0  0  0
   -6.4949   -1.3360   -0.9307 H   0  0  0  0  0  0  0  0  0  0  0  0
   -6.8603    0.4013   -0.7180 H   0  0  0  0  0  0  0  0  0  0  0  0
   -3.1691   -1.5031    2.0297 H   0  0  0  0  0  0  0  0  0  0  0  0
   -0.8356   -1.3697    2.7663 H   0  0  0  0  0  0  0  0  0  0  0  0
  1  2  1  0
  2  3  1  0
  3  4  1  0
  4  5  1  0
  5  6  1  0
  6  7  2  0
  6  8  1  0
  8  9  2  0
  9 10  1  0
 10 11  2  0
 11 12  1  0
 12 13  1  0
 13 14  1  0
 13 15  2  0
 11 16  1  0
 16 17  2  0
 17  8  1  0
  1 18  1  0
  1 19  1  0
  1 20  1  0
  2 21  1  0
  2 22  1  0
  3 23  1  0
  3 24  1  0
  4 25  1  0
  4 26  1  0
  9 27  1  0
 10 28  1  0
 12 29  1  0
 14 30  1  0
 14 31  1  0
 14 32  1  0
 16 33  1  0
 17 34  1  0
M  END
$$$$
