
     RDKit          3D

 68 71  0  0  0  0  0  0  0  0999 V2000
   -2.0075   -5.4911   -0.9416 C   0  0  0  0  0  0  0  0  0  0  0  0
   -1.7478   -4.0287   -0.7331 C   0  0  0  0  0  0  0  0  0  0  0  0
   -2.6984   -3.2208   -0.1013 C   0  0  0  0  0  0  0  0  0  0  0  0
   -2.4659   -1.8538    0.0741 C   0  0  0  0  0  0  0  0  0  0  0  0
   -1.2859   -1.2603   -0.4018 C   0  0  0  0  0  0  0  0  0  0  0  0
   -0.9837    0.2261   -0.2383 C   0  0  0  0  0  0  0  0  0  0  0  0
   -2.2592    1.1105   -0.1156 C   0  0  0  0  0  0  0  0  0  0  0  0
   -2.5664    1.7234    0.9056 O   0  0  0  0  0  0  0  0  0  0  0  0
   -3.0345    1.1512   -1.2667 N   0  0  0  0  0  0  0  0  0  0  0  0
   -4.3136    1.8273   -1.2770 C   0  0  0  0  0  0  0  0  0  0  0  0
   -4.8361    2.0717   -2.6870 C   0  0  0  0  0  0  0  0  0  0  0  0
   -6.3060    2.3847   -2.4546 C   0  0  0  0  0  0  0  0  0  0  0  0
   -6.7223    1.5019   -1.2788 C   0  0  0  0  0  0  0  0  0  0  0  0
   -5.4285    1.0008   -0.6362 C   0  0  0  0  0  0  0  0  0  0  0  0
   -0.0294    0.5258    0.8503 N   0  0  0  0  0  0  0  0  0  0  0  0
   -0.2815   -0.0486    2.1748 C   0  0  0  0  0  0  0  0  0  0  0  0
    0.4808   -1.3193    2.3464 C   0  0  0  0  0  0  0  0  0  0  0  0
    0.1103   -2.6027    2.6957 C   0  0  0  0  0  0  0  0  0  0  0  0
    1.2935   -3.3801    2.6886 C   0  0  0  0  0  0  0  0  0  0  0  0
    2.3111   -2.5234    2.3435 C   0  0  0  0  0  0  0  0  0  0  0  0
    1.8299   -1.2728    2.1373 O   0  0  0  0  0  0  0  0  0  0  0  0
    0.9588    1.5006    0.7644 C   0  0  0  0  0  0  0  0  0  0  0  0
    1.5905    1.8992    1.7453 O   0  0  0  0  0  0  0  0  0  0  0  0
    1.2457    2.0929   -0.6069 C   0  0  0  0  0  0  0  0  0  0  0  0
    2.4609    3.0162   -0.5651 C   0  0  0  0  0  0  0  0  0  0  0  0
    3.7416    2.2098   -0.4250 C   0  0  0  0  0  0  0  0  0  0  0  0
    3.9297    1.1965   -1.0953 O   0  0  0  0  0  0  0  0  0  0  0  0
    4.6345    2.7694    0.4559 N   0  0  0  0  0  0  0  0  0  0  0  0
    5.8806    2.2651    0.7551 C   0  0  0  0  0  0  0  0  0  0  0  0
    6.5275    1.1135    0.2553 C   0  0  0  0  0  0  0  0  0  0  0  0
    7.7440    1.0969    0.8902 C   0  0  0  0  0  0  0  0  0  0  0  0
    8.9110    0.2003    0.8562 C   0  0  0  0  0  0  0  0  0  0  0  0
    7.8296    2.1736    1.7135 O   0  0  0  0  0  0  0  0  0  0  0  0
    6.6600    2.9060    1.6343 N   0  0  0  0  0  0  0  0  0  0  0  0
   -0.3371   -2.0786   -1.0370 C   0  0  0  0  0  0  0  0  0  0  0  0
   -0.5693   -3.4452   -1.2073 C   0  0  0  0  0  0  0  0  0  0  0  0
   -1.0722   -6.0602   -0.9164 H   0  0  0  0  0  0  0  0  0  0  0  0
   -2.4937   -5.6502   -1.9091 H   0  0  0  0  0  0  0  0  0  0  0  0
   -2.6519   -5.8914   -0.1518 H   0  0  0  0  0  0  0  0  0  0  0  0
   -3.6248   -3.6546    0.2700 H   0  0  0  0  0  0  0  0  0  0  0  0
   -3.2193   -1.2668    0.5970 H   0  0  0  0  0  0  0  0  0  0  0  0
   -0.5424    0.5415   -1.1897 H   0  0  0  0  0  0  0  0  0  0  0  0
   -2.8758    0.4306   -1.9630 H   0  0  0  0  0  0  0  0  0  0  0  0
   -4.2137    2.7827   -0.7452 H   0  0  0  0  0  0  0  0  0  0  0  0
   -4.3109    2.8872   -3.1929 H   0  0  0  0  0  0  0  0  0  0  0  0
   -4.7351    1.1727   -3.3074 H   0  0  0  0  0  0  0  0  0  0  0  0
   -6.9143    2.2020   -3.3454 H   0  0  0  0  0  0  0  0  0  0  0  0
   -6.4239    3.4401   -2.1814 H   0  0  0  0  0  0  0  0  0  0  0  0
   -7.3268    2.0711   -0.5644 H   0  0  0  0  0  0  0  0  0  0  0  0
   -7.3291    0.6556   -1.6195 H   0  0  0  0  0  0  0  0  0  0  0  0
   -5.4437    1.1064    0.4537 H   0  0  0  0  0  0  0  0  0  0  0  0
   -5.3005   -0.0668   -0.8559 H   0  0  0  0  0  0  0  0  0  0  0  0
   -1.3550   -0.2182    2.3064 H   0  0  0  0  0  0  0  0  0  0  0  0
    0.0201    0.6510    2.9626 H   0  0  0  0  0  0  0  0  0  0  0  0
   -0.8938   -2.9372    2.9145 H   0  0  0  0  0  0  0  0  0  0  0  0
    1.3924   -4.4338    2.9060 H   0  0  0  0  0  0  0  0  0  0  0  0
    3.3769   -2.6386    2.2077 H   0  0  0  0  0  0  0  0  0  0  0  0
    0.3704    2.6747   -0.9159 H   0  0  0  0  0  0  0  0  0  0  0  0
    1.4144    1.2854   -1.3264 H   0  0  0  0  0  0  0  0  0  0  0  0
    2.5357    3.5689   -1.5093 H   0  0  0  0  0  0  0  0  0  0  0  0
    2.3679    3.7567    0.2369 H   0  0  0  0  0  0  0  0  0  0  0  0
    4.3764    3.5746    1.0102 H   0  0  0  0  0  0  0  0  0  0  0  0
    6.1604    0.3935   -0.4602 H   0  0  0  0  0  0  0  0  0  0  0  0
    8.7017   -0.6952    0.2626 H   0  0  0  0  0  0  0  0  0  0  0  0
    9.1816   -0.1190    1.8676 H   0  0  0  0  0  0  0  0  0  0  0  0
    9.7719    0.7098    0.4120 H   0  0  0  0  0  0  0  0  0  0  0  0
    0.6046   -1.6578   -1.3877 H   0  0  0  0  0  0  0  0  0  0  0  0
    0.1859   -4.0530   -1.7013 H   0  0  0  0  0  0  0  0  0  0  0  0
  1  2  1  0
  2  3  2  0
  3  4  1  0
  4  5  2  0
  5  6  1  0
  6  7  1  0
  7  8  2  0
  7  9  1  0
  9 10  1  0
 10 11  1  0
 11 12  1  0
 12 13  1  0
 13 14  1  0
  6 15  1  0
 15 16  1  0
 16 17  1  0
 17 18  2  0
 18 19  1  0
 19 20  2  0
 20 21  1  0
 15 22  1  0
 22 23  2  0
 22 24  1  0
 24 25  1  0
 25 26  1  0
 26 27  2  0
 26 28  1  0
 28 29  1  0
 29 30  1  0
 30 31  2  0
 31 32  1  0
 31 33  1  0
 33 34  1  0
  5 35  1  0
 35 36  2  0
 36  2  1  0
 14 10  1  0
 21 17  1  0
 34 29  2  0
  1 37  1  0
  1 38  1  0
  1 39  1  0
  3 40  1  0
  4 41  1  0
  6 42  1  0
  9 43  1  0
 10 44  1  0
 11 45  1  0
 11 46  1  0
 12 47  1  0
 12 48  1  0
 13 49  1  0
 13 50  1  0
 14 51  1  0
 14 52  1  0
 16 53  1  0
 16 54  1  0
 18 55  1  0
 19 56  1  0
 20 57  1  0
 24 58  1  0
 24 59  1  0
 25 60  1  0
 25 61  1  0
 28 62  1  0
 30 63  1  0
 32 64  1  0
 32 65  1  0
 32 66  1  0
 35 67  1  0
 36 68  1  0
M  END
$$$$
