
     RDKit          3D

 34 35  0  0  0  0  0  0  0  0999 V2000
    1.8866    2.5604   -0.5516 C   0  0  0  0  0  0  0  0  0  0  0  0
    0.6529    1.8875   -0.9189 N   0  0  0  0  0  0  0  0  0  0  0  0
    0.3066    0.7671   -0.3783 C   0  0  0  0  0  0  0  0  0  0  0  0
    1.0181    0.0718    0.7332 C   0  0  0  0  0  0  0  0  0  0  0  0
    1.3873   -1.2705    0.5939 C   0  0  0  0  0  0  0  0  0  0  0  0
    2.0339   -1.9260    1.6430 C   0  0  0  0  0  0  0  0  0  0  0  0
    2.3054   -1.2462    2.8308 C   0  0  0  0  0  0  0  0  0  0  0  0
    1.9290    0.0891    2.9754 C   0  0  0  0  0  0  0  0  0  0  0  0
    1.2830    0.7487    1.9291 C   0  0  0  0  0  0  0  0  0  0  0  0
   -0.9099    0.0880   -0.9271 C   0  0  0  0  0  0  0  0  0  0  0  0
   -0.8747   -0.4134   -2.2482 C   0  0  0  0  0  0  0  0  0  0  0  0
    0.3239   -0.2378   -3.1406 C   0  0  0  0  0  0  0  0  0  0  0  0
   -2.0076   -1.0659   -2.7557 C   0  0  0  0  0  0  0  0  0  0  0  0
   -3.1446   -1.2316   -1.9681 C   0  0  0  0  0  0  0  0  0  0  0  0
   -3.1759   -0.7273   -0.6694 C   0  0  0  0  0  0  0  0  0  0  0  0
   -2.0716   -0.0445   -0.1364 C   0  0  0  0  0  0  0  0  0  0  0  0
   -2.1738    0.5071    1.2578 C   0  0  0  0  0  0  0  0  0  0  0  0
    1.7318    3.2199    0.3071 H   0  0  0  0  0  0  0  0  0  0  0  0
    2.7102    1.8684   -0.3493 H   0  0  0  0  0  0  0  0  0  0  0  0
    2.2063    3.1883   -1.3897 H   0  0  0  0  0  0  0  0  0  0  0  0
    1.1837   -1.8110   -0.3264 H   0  0  0  0  0  0  0  0  0  0  0  0
    2.3257   -2.9676    1.5343 H   0  0  0  0  0  0  0  0  0  0  0  0
    2.8087   -1.7595    3.6466 H   0  0  0  0  0  0  0  0  0  0  0  0
    2.1349    0.6148    3.9044 H   0  0  0  0  0  0  0  0  0  0  0  0
    0.9730    1.7825    2.0557 H   0  0  0  0  0  0  0  0  0  0  0  0
    0.3836    0.7959   -3.4950 H   0  0  0  0  0  0  0  0  0  0  0  0
    0.2628   -0.8905   -4.0184 H   0  0  0  0  0  0  0  0  0  0  0  0
    1.2482   -0.5014   -2.6175 H   0  0  0  0  0  0  0  0  0  0  0  0
   -2.0108   -1.4503   -3.7735 H   0  0  0  0  0  0  0  0  0  0  0  0
   -4.0140   -1.7444   -2.3719 H   0  0  0  0  0  0  0  0  0  0  0  0
   -4.0795   -0.8571   -0.0771 H   0  0  0  0  0  0  0  0  0  0  0  0
   -1.6904   -0.1682    1.9697 H   0  0  0  0  0  0  0  0  0  0  0  0
   -1.7221    1.5018    1.3228 H   0  0  0  0  0  0  0  0  0  0  0  0
   -3.2208    0.6219    1.5599 H   0  0  0  0  0  0  0  0  0  0  0  0
  1  2  1  0
  2  3  2  3
  3  4  1  0
  4  5  2  0
  5  6  1  0
  6  7  2  0
  7  8  1  0
  8  9  2  0
  3 10  1  0
 10 11  2  0
 11 12  1  0
 11 13  1  0
 13 14  2  0
 14 15  1  0
 15 16  2  0
 16 17  1  0
  9  4  1  0
 16 10  1  0
  1 18  1  0
  1 19  1  0
  1 20  1  0
  5 21  1  0
  6 22  1  0
  7 23  1  0
  8 24  1  0
  9 25  1  0
 12 26  1  0
 12 27  1  0
 12 28  1  0
 13 29  1  0
 14 30  1  0
 15 31  1  0
 17 32  1  0
 17 33  1  0
 17 34  1  0
M  END
$$$$
