
     RDKit          3D

 19 19  0  0  0  0  0  0  0  0999 V2000
   -2.9654   -0.8623   -0.6903 C   0  0  0  0  0  0  0  0  0  0  0  0
   -2.2275    0.2431   -0.1842 O   0  0  0  0  0  0  0  0  0  0  0  0
   -0.8687    0.1071   -0.0793 C   0  0  0  0  0  0  0  0  0  0  0  0
   -0.1531   -1.0336   -0.4508 C   0  0  0  0  0  0  0  0  0  0  0  0
    1.2389   -1.0767   -0.3022 C   0  0  0  0  0  0  0  0  0  0  0  0
    1.9369   -0.0055    0.2555 C   0  0  0  0  0  0  0  0  0  0  0  0
    3.3336   -0.0128    0.2853 N   0  0  0  0  0  0  0  0  0  0  0  0
    1.2309    1.1553    0.5702 C   0  0  0  0  0  0  0  0  0  0  0  0
   -0.1649    1.2110    0.4258 C   0  0  0  0  0  0  0  0  0  0  0  0
   -0.8446    2.4199    0.7956 C   0  0  0  0  0  0  0  0  0  0  0  0
   -1.3543    3.4151    1.1103 N   0  0  0  0  0  0  0  0  0  0  0  0
   -4.0238   -0.5842   -0.6933 H   0  0  0  0  0  0  0  0  0  0  0  0
   -2.6777   -1.0885   -1.7222 H   0  0  0  0  0  0  0  0  0  0  0  0
   -2.8536   -1.7402   -0.0455 H   0  0  0  0  0  0  0  0  0  0  0  0
   -0.6414   -1.9059   -0.8733 H   0  0  0  0  0  0  0  0  0  0  0  0
    1.7749   -1.9646   -0.6300 H   0  0  0  0  0  0  0  0  0  0  0  0
    3.7475   -0.9386    0.3409 H   0  0  0  0  0  0  0  0  0  0  0  0
    3.7449    0.6315    0.9542 H   0  0  0  0  0  0  0  0  0  0  0  0
    1.7674    2.0299    0.9333 H   0  0  0  0  0  0  0  0  0  0  0  0
  1  2  1  0
  2  3  1  0
  3  4  2  0
  4  5  1  0
  5  6  2  0
  6  7  1  0
  6  8  1  0
  8  9  2  0
  9 10  1  0
 10 11  3  0
  9  3  1  0
  1 12  1  0
  1 13  1  0
  1 14  1  0
  4 15  1  0
  5 16  1  0
  7 17  1  0
  7 18  1  0
  8 19  1  0
M  END
$$$$
