
     RDKit          3D

 60 65  0  0  0  0  0  0  0  0999 V2000
    4.5554    0.1998   -4.2526 C   0  0  0  0  0  0  0  0  0  0  0  0
    4.9046    0.1323   -2.8147 C   0  0  0  0  0  0  0  0  0  0  0  0
    5.9425    0.8284   -2.3342 N   0  0  0  0  0  0  0  0  0  0  0  0
    6.0180    0.5096   -0.9920 O   0  0  0  0  0  0  0  0  0  0  0  0
    5.0237   -0.3615   -0.6730 C   0  0  0  0  0  0  0  0  0  0  0  0
    5.0247   -0.8513    0.7175 C   0  0  0  0  0  0  0  0  0  0  0  0
    4.2507   -0.5991   -1.7897 C   0  0  0  0  0  0  0  0  0  0  0  0
    3.1029   -1.4706   -1.9106 C   0  0  0  0  0  0  0  0  0  0  0  0
    3.0873   -2.3577   -2.7597 O   0  0  0  0  0  0  0  0  0  0  0  0
    2.0311   -1.2565   -1.0392 N   0  0  0  0  0  0  0  0  0  0  0  0
    1.8025   -0.0013   -0.3230 C   0  0  0  0  0  0  0  0  0  0  0  0
    0.3109    0.3054   -0.2045 C   0  0  0  0  0  0  0  0  0  0  0  0
   -0.4368   -0.7959    0.5982 C   0  0  0  0  0  0  0  0  0  0  0  0
    0.1594   -2.1960    0.2452 C   0  0  0  0  0  0  0  0  0  0  0  0
    0.9230   -2.2043   -1.0739 C   0  0  0  0  0  0  0  0  0  0  0  0
   -0.1251   -0.4945    1.9860 O   0  0  0  0  0  0  0  0  0  0  0  0
   -0.8497   -1.1696    2.9268 C   0  0  0  0  0  0  0  0  0  0  0  0
   -0.3134   -1.1910    4.2151 C   0  0  0  0  0  0  0  0  0  0  0  0
   -0.9792   -1.8723    5.2350 C   0  0  0  0  0  0  0  0  0  0  0  0
   -2.1782   -2.5223    4.9595 C   0  0  0  0  0  0  0  0  0  0  0  0
   -2.8126   -3.1739    5.9417 F   0  0  0  0  0  0  0  0  0  0  0  0
   -2.7315   -2.4963    3.6860 C   0  0  0  0  0  0  0  0  0  0  0  0
   -2.0640   -1.8056    2.6713 C   0  0  0  0  0  0  0  0  0  0  0  0
   -2.6495   -1.7125    1.3219 C   0  0  0  0  0  0  0  0  0  0  0  0
   -3.6468   -2.3718    1.0487 O   0  0  0  0  0  0  0  0  0  0  0  0
   -1.9740   -0.7275    0.3722 C   0  0  0  0  0  0  0  0  0  0  0  0
   -2.6218    0.6353    0.5892 C   0  0  0  0  0  0  0  0  0  0  0  0
   -2.8660    1.0176   -0.8283 C   0  0  0  0  0  0  0  0  0  0  0  0
   -3.2993    2.3819   -1.2121 C   0  0  0  0  0  0  0  0  0  0  0  0
   -3.4375    2.6916   -2.5721 C   0  0  0  0  0  0  0  0  0  0  0  0
   -3.8403    3.9700   -2.9678 C   0  0  0  0  0  0  0  0  0  0  0  0
   -4.1046    4.9403   -2.0046 C   0  0  0  0  0  0  0  0  0  0  0  0
   -4.5974    6.5154   -2.4883 Cl  0  0  0  0  0  0  0  0  0  0  0  0
   -3.9716    4.6421   -0.6486 C   0  0  0  0  0  0  0  0  0  0  0  0
   -3.5717    3.3621   -0.2498 C   0  0  0  0  0  0  0  0  0  0  0  0
   -2.6690    0.0717   -1.6888 N   0  0  0  0  0  0  0  0  0  0  0  0
   -2.2892   -1.0878   -0.9770 O   0  0  0  0  0  0  0  0  0  0  0  0
    4.7517   -0.7622   -4.7368 H   0  0  0  0  0  0  0  0  0  0  0  0
    3.4950    0.4407   -4.3793 H   0  0  0  0  0  0  0  0  0  0  0  0
    5.1383    0.9669   -4.7728 H   0  0  0  0  0  0  0  0  0  0  0  0
    4.3631   -1.7142    0.8374 H   0  0  0  0  0  0  0  0  0  0  0  0
    6.0320   -1.1591    1.0159 H   0  0  0  0  0  0  0  0  0  0  0  0
    4.6908   -0.0638    1.3996 H   0  0  0  0  0  0  0  0  0  0  0  0
    2.2492   -0.0988    0.6717 H   0  0  0  0  0  0  0  0  0  0  0  0
    2.3001    0.8240   -0.8415 H   0  0  0  0  0  0  0  0  0  0  0  0
   -0.0922    0.3994   -1.2188 H   0  0  0  0  0  0  0  0  0  0  0  0
    0.2002    1.2801    0.2858 H   0  0  0  0  0  0  0  0  0  0  0  0
    0.8455   -2.5175    1.0411 H   0  0  0  0  0  0  0  0  0  0  0  0
   -0.6230   -2.9619    0.1969 H   0  0  0  0  0  0  0  0  0  0  0  0
    1.3102   -3.2103   -1.2706 H   0  0  0  0  0  0  0  0  0  0  0  0
    0.2714   -1.9360   -1.9136 H   0  0  0  0  0  0  0  0  0  0  0  0
    0.6271   -0.6874    4.4251 H   0  0  0  0  0  0  0  0  0  0  0  0
   -0.5710   -1.9031    6.2410 H   0  0  0  0  0  0  0  0  0  0  0  0
   -3.6749   -3.0020    3.4997 H   0  0  0  0  0  0  0  0  0  0  0  0
   -3.5854    0.5783    1.1071 H   0  0  0  0  0  0  0  0  0  0  0  0
   -1.9781    1.3476    1.1097 H   0  0  0  0  0  0  0  0  0  0  0  0
   -3.2368    1.9398   -3.3340 H   0  0  0  0  0  0  0  0  0  0  0  0
   -3.9487    4.1972   -4.0252 H   0  0  0  0  0  0  0  0  0  0  0  0
   -4.1831    5.4004    0.1013 H   0  0  0  0  0  0  0  0  0  0  0  0
   -3.4888    3.1576    0.8133 H   0  0  0  0  0  0  0  0  0  0  0  0
  1  2  1  0
  2  3  2  0
  3  4  1  0
  4  5  1  0
  5  6  1  0
  5  7  2  0
  7  8  1  0
  8  9  2  0
  8 10  1  0
 10 11  1  0
 11 12  1  0
 12 13  1  0
 13 14  1  0
 14 15  1  0
 13 16  1  0
 16 17  1  0
 17 18  2  0
 18 19  1  0
 19 20  2  0
 20 21  1  0
 20 22  1  0
 22 23  2  0
 23 24  1  0
 24 25  2  0
 24 26  1  0
 26 27  1  0
 27 28  1  0
 28 29  1  0
 29 30  2  0
 30 31  1  0
 31 32  2  0
 32 33  1  0
 32 34  1  0
 34 35  2  0
 28 36  2  0
 36 37  1  0
  7  2  1  0
 15 10  1  0
 23 17  1  0
 37 26  1  0
 26 13  1  0
 35 29  1  0
  1 38  1  0
  1 39  1  0
  1 40  1  0
  6 41  1  0
  6 42  1  0
  6 43  1  0
 11 44  1  0
 11 45  1  0
 12 46  1  0
 12 47  1  0
 14 48  1  0
 14 49  1  0
 15 50  1  0
 15 51  1  0
 18 52  1  0
 19 53  1  0
 22 54  1  0
 27 55  1  0
 27 56  1  0
 30 57  1  0
 31 58  1  0
 34 59  1  0
 35 60  1  0
M  END
$$$$
