
     RDKit          3D

 46 49  0  0  0  0  0  0  0  0999 V2000
   -5.3055   -3.2802    1.0901 C   0  0  0  0  0  0  0  0  0  0  0  0
   -4.4280   -2.2171    1.4397 O   0  0  0  0  0  0  0  0  0  0  0  0
   -3.7267   -1.6326    0.4212 C   0  0  0  0  0  0  0  0  0  0  0  0
   -3.8101   -1.9669   -0.9299 C   0  0  0  0  0  0  0  0  0  0  0  0
   -3.0243   -1.2928   -1.8676 C   0  0  0  0  0  0  0  0  0  0  0  0
   -2.1605   -0.2753   -1.4608 C   0  0  0  0  0  0  0  0  0  0  0  0
   -2.0792    0.0838   -0.1106 C   0  0  0  0  0  0  0  0  0  0  0  0
   -1.1715    1.1406    0.3255 C   0  0  0  0  0  0  0  0  0  0  0  0
    0.2203    1.1788    0.2791 C   0  0  0  0  0  0  0  0  0  0  0  0
    1.1615    0.2418   -0.3326 C   0  0  0  0  0  0  0  0  0  0  0  0
    0.8125   -0.7050   -1.0303 O   0  0  0  0  0  0  0  0  0  0  0  0
    2.4809    0.5659   -0.0400 N   0  0  0  0  0  0  0  0  0  0  0  0
    3.5055   -0.1536   -0.5784 N   0  0  0  0  0  0  0  0  0  0  0  0
    4.7380    0.1298   -0.2616 C   0  0  0  0  0  0  0  0  0  0  0  0
    5.1153    1.2104    0.7333 C   0  0  0  0  0  0  0  0  0  0  0  0
    5.7748   -0.6396   -0.9459 C   0  0  0  0  0  0  0  0  0  0  0  0
    5.5959   -1.7754   -1.7245 C   0  0  0  0  0  0  0  0  0  0  0  0
    6.8166   -2.2769   -2.2659 C   0  0  0  0  0  0  0  0  0  0  0  0
    7.8745   -1.4957   -1.8866 C   0  0  0  0  0  0  0  0  0  0  0  0
    9.5226   -1.7255   -2.3088 Cl  0  0  0  0  0  0  0  0  0  0  0  0
    7.4318   -0.1903   -0.9100 S   0  0  0  0  0  0  0  0  0  0  0  0
    0.6702    2.2649    0.9782 N   0  0  0  0  0  0  0  0  0  0  0  0
   -0.3732    2.8980    1.4738 N   0  0  0  0  0  0  0  0  0  0  0  0
   -1.5238    2.3031    1.0291 N   0  0  0  0  0  0  0  0  0  0  0  0
   -2.7922    2.8902    1.3046 C   0  0  0  0  0  0  0  0  0  0  0  0
   -2.8353    3.8230    2.2649 N   0  0  0  0  0  0  0  0  0  0  0  0
   -4.1710    4.1809    2.3546 O   0  0  0  0  0  0  0  0  0  0  0  0
   -4.9310    3.5002    1.4191 N   0  0  0  0  0  0  0  0  0  0  0  0
   -4.0773    2.7246    0.7498 C   0  0  0  0  0  0  0  0  0  0  0  0
   -4.4728    1.9913   -0.3057 N   0  0  0  0  0  0  0  0  0  0  0  0
   -2.8581   -0.6125    0.8243 C   0  0  0  0  0  0  0  0  0  0  0  0
   -6.1009   -2.9317    0.4232 H   0  0  0  0  0  0  0  0  0  0  0  0
   -4.7555   -4.1171    0.6473 H   0  0  0  0  0  0  0  0  0  0  0  0
   -5.7765   -3.6408    2.0097 H   0  0  0  0  0  0  0  0  0  0  0  0
   -4.4644   -2.7560   -1.2853 H   0  0  0  0  0  0  0  0  0  0  0  0
   -3.0720   -1.5743   -2.9170 H   0  0  0  0  0  0  0  0  0  0  0  0
   -1.5379    0.2153   -2.2068 H   0  0  0  0  0  0  0  0  0  0  0  0
    2.6555    1.3962    0.5179 H   0  0  0  0  0  0  0  0  0  0  0  0
    6.1126    1.0632    1.1519 H   0  0  0  0  0  0  0  0  0  0  0  0
    5.0737    2.1838    0.2363 H   0  0  0  0  0  0  0  0  0  0  0  0
    4.4237    1.2103    1.5806 H   0  0  0  0  0  0  0  0  0  0  0  0
    4.6226   -2.2251   -1.8944 H   0  0  0  0  0  0  0  0  0  0  0  0
    6.9010   -3.1535   -2.8956 H   0  0  0  0  0  0  0  0  0  0  0  0
   -3.8424    1.6875   -1.0373 H   0  0  0  0  0  0  0  0  0  0  0  0
   -5.4228    2.1295   -0.6384 H   0  0  0  0  0  0  0  0  0  0  0  0
   -2.7967   -0.3754    1.8846 H   0  0  0  0  0  0  0  0  0  0  0  0
  1  2  1  0
  2  3  1  0
  3  4  2  0
  4  5  1  0
  5  6  2  0
  6  7  1  0
  7  8  1  0
  8  9  2  0
  9 10  1  0
 10 11  2  0
 10 12  1  0
 12 13  1  0
 13 14  2  3
 14 15  1  0
 14 16  1  0
 16 17  2  0
 17 18  1  0
 18 19  2  0
 19 20  1  0
 19 21  1  0
  9 22  1  0
 22 23  2  0
 23 24  1  0
 24 25  1  0
 25 26  2  0
 26 27  1  0
 27 28  1  0
 28 29  2  0
 29 30  1  0
  7 31  2  0
 31  3  1  0
 24  8  1  0
 29 25  1  0
 21 16  1  0
  1 32  1  0
  1 33  1  0
  1 34  1  0
  4 35  1  0
  5 36  1  0
  6 37  1  0
 12 38  1  0
 15 39  1  0
 15 40  1  0
 15 41  1  0
 17 42  1  0
 18 43  1  0
 30 44  1  0
 30 45  1  0
 31 46  1  0
M  END
$$$$
