
     RDKit          3D

 36 37  0  0  0  0  0  0  0  0999 V2000
    0.7348   -1.2012    0.0704 O   0  0  0  0  0  0  0  0  0  0  0  0
    0.6741   -1.1020   -1.1540 C   0  0  0  0  0  0  0  0  0  0  0  0
   -0.5875   -1.4056   -1.9685 C   0  0  0  0  0  0  0  0  0  0  0  0
   -1.7994   -1.2624   -1.2286 O   0  0  0  0  0  0  0  0  0  0  0  0
   -2.0500    0.0151   -0.8528 C   0  0  0  0  0  0  0  0  0  0  0  0
   -1.4032    1.0050   -1.1482 O   0  0  0  0  0  0  0  0  0  0  0  0
   -3.2508    0.0253   -0.0008 C   0  0  0  0  0  0  0  0  0  0  0  0
   -4.4415   -0.5035   -0.5200 C   0  0  0  0  0  0  0  0  0  0  0  0
   -5.5978   -0.4821    0.2577 C   0  0  0  0  0  0  0  0  0  0  0  0
   -7.0606   -1.1243   -0.3798 Cl  0  0  0  0  0  0  0  0  0  0  0  0
   -5.5769    0.0648    1.5410 C   0  0  0  0  0  0  0  0  0  0  0  0
   -4.3877    0.5903    2.0572 C   0  0  0  0  0  0  0  0  0  0  0  0
   -3.2199    0.5718    1.2888 C   0  0  0  0  0  0  0  0  0  0  0  0
   -1.7840    1.2089    2.0003 Cl  0  0  0  0  0  0  0  0  0  0  0  0
    1.7592   -0.7016   -1.9054 N   0  0  0  0  0  0  0  0  0  0  0  0
    2.9964   -0.3355   -1.2391 C   0  0  0  0  0  0  0  0  0  0  0  0
    2.8751    0.9598   -0.4173 C   0  0  0  0  0  0  0  0  0  0  0  0
    3.6682    0.8988    0.7920 N   0  0  0  0  0  0  0  0  0  0  0  0
    3.2222    0.4294    2.0061 C   0  0  0  0  0  0  0  0  0  0  0  0
    1.9502   -0.0186    2.1955 O   0  0  0  0  0  0  0  0  0  0  0  0
    4.1418    0.4518    2.9770 C   0  0  0  0  0  0  0  0  0  0  0  0
    5.6651    1.0661    2.4059 S   0  0  0  0  0  0  0  0  0  0  0  0
    5.0049    1.2772    0.7755 C   0  0  0  0  0  0  0  0  0  0  0  0
    5.6584    1.6690   -0.1804 O   0  0  0  0  0  0  0  0  0  0  0  0
   -0.5186   -2.4514   -2.2877 H   0  0  0  0  0  0  0  0  0  0  0  0
   -0.6275   -0.7918   -2.8748 H   0  0  0  0  0  0  0  0  0  0  0  0
   -4.4674   -0.9219   -1.5250 H   0  0  0  0  0  0  0  0  0  0  0  0
   -6.4804    0.0821    2.1465 H   0  0  0  0  0  0  0  0  0  0  0  0
   -4.3767    1.0063    3.0623 H   0  0  0  0  0  0  0  0  0  0  0  0
    1.6080   -0.3618   -2.8488 H   0  0  0  0  0  0  0  0  0  0  0  0
    3.7688   -0.2307   -2.0094 H   0  0  0  0  0  0  0  0  0  0  0  0
    3.2801   -1.1825   -0.5997 H   0  0  0  0  0  0  0  0  0  0  0  0
    3.2342    1.7965   -1.0370 H   0  0  0  0  0  0  0  0  0  0  0  0
    1.8402    1.2090   -0.1520 H   0  0  0  0  0  0  0  0  0  0  0  0
    1.5759   -0.3664    1.3551 H   0  0  0  0  0  0  0  0  0  0  0  0
    3.9720    0.1159    3.9888 H   0  0  0  0  0  0  0  0  0  0  0  0
  1  2  2  0
  2  3  1  0
  3  4  1  0
  4  5  1  0
  5  6  2  0
  5  7  1  0
  7  8  2  0
  8  9  1  0
  9 10  1  0
  9 11  2  0
 11 12  1  0
 12 13  2  0
 13 14  1  0
  2 15  1  0
 15 16  1  0
 16 17  1  0
 17 18  1  0
 18 19  1  0
 19 20  1  0
 19 21  2  0
 21 22  1  0
 22 23  1  0
 23 24  2  0
 13  7  1  0
 23 18  1  0
  3 25  1  0
  3 26  1  0
  8 27  1  0
 11 28  1  0
 12 29  1  0
 15 30  1  0
 16 31  1  0
 16 32  1  0
 17 33  1  0
 17 34  1  0
 20 35  1  0
 21 36  1  0
M  END
$$$$
