
     RDKit          3D

 39 41  0  0  0  0  0  0  0  0999 V2000
   -2.9398   -2.3307    3.5740 C   0  0  0  0  0  0  0  0  0  0  0  0
   -3.4326   -2.2800    2.2407 O   0  0  0  0  0  0  0  0  0  0  0  0
   -3.1706   -1.1431    1.5273 C   0  0  0  0  0  0  0  0  0  0  0  0
   -3.6481   -1.1592    0.2120 C   0  0  0  0  0  0  0  0  0  0  0  0
   -3.4459   -0.0679   -0.6347 C   0  0  0  0  0  0  0  0  0  0  0  0
   -2.7508    1.0449   -0.1584 C   0  0  0  0  0  0  0  0  0  0  0  0
   -2.4778    2.4355   -1.2339 S   0  0  0  0  0  6  0  0  0  0  0  0
   -2.2267    3.5996   -0.4120 O   0  0  0  0  0  0  0  0  0  0  0  0
   -3.5309    2.4317   -2.2278 O   0  0  0  0  0  0  0  0  0  0  0  0
   -1.0606    2.0063   -2.0533 N   0  0  0  0  0  0  0  0  0  0  0  0
    0.0935    1.6552   -1.2985 C   0  0  0  0  0  0  0  0  0  0  0  0
    0.7458    2.6056   -0.5168 C   0  0  0  0  0  0  0  0  0  0  0  0
    1.8413    2.2305    0.2589 C   0  0  0  0  0  0  0  0  0  0  0  0
    2.2843    0.9087    0.2465 C   0  0  0  0  0  0  0  0  0  0  0  0
    3.3663    0.6368    1.0375 O   0  0  0  0  0  0  0  0  0  0  0  0
    1.6358   -0.0611   -0.5313 C   0  0  0  0  0  0  0  0  0  0  0  0
    2.0639   -1.7958   -0.5260 S   0  0  0  0  0  0  0  0  0  0  0  0
    3.6675   -1.7777   -1.1973 C   0  0  0  0  0  0  0  0  0  0  0  0
    4.7074   -1.1233   -0.5874 N   0  0  0  0  0  0  0  0  0  0  0  0
    5.7175   -1.3719   -1.3890 C   0  0  0  0  0  0  0  0  0  0  0  0
    5.2969   -2.1471   -2.4240 N   0  0  0  0  0  0  0  0  0  0  0  0
    3.9876   -2.4243   -2.3204 N   0  0  0  0  0  0  0  0  0  0  0  0
    0.5316    0.3283   -1.3043 C   0  0  0  0  0  0  0  0  0  0  0  0
   -2.2905    1.0844    1.1606 C   0  0  0  0  0  0  0  0  0  0  0  0
   -2.4952   -0.0154    1.9997 C   0  0  0  0  0  0  0  0  0  0  0  0
   -3.4019   -1.5559    4.1946 H   0  0  0  0  0  0  0  0  0  0  0  0
   -3.2152   -3.3024    3.9952 H   0  0  0  0  0  0  0  0  0  0  0  0
   -1.8475   -2.2562    3.5948 H   0  0  0  0  0  0  0  0  0  0  0  0
   -4.1854   -2.0323   -0.1522 H   0  0  0  0  0  0  0  0  0  0  0  0
   -3.8324   -0.0963   -1.6505 H   0  0  0  0  0  0  0  0  0  0  0  0
   -1.2633    1.4676   -2.8940 H   0  0  0  0  0  0  0  0  0  0  0  0
    0.4109    3.6402   -0.5045 H   0  0  0  0  0  0  0  0  0  0  0  0
    2.3528    2.9681    0.8719 H   0  0  0  0  0  0  0  0  0  0  0  0
    3.8300   -0.1416    0.6623 H   0  0  0  0  0  0  0  0  0  0  0  0
    6.7377   -1.0328   -1.2757 H   0  0  0  0  0  0  0  0  0  0  0  0
    5.8251   -2.5150   -3.2079 H   0  0  0  0  0  0  0  0  0  0  0  0
    0.0001   -0.4133   -1.8958 H   0  0  0  0  0  0  0  0  0  0  0  0
   -1.7646    1.9583    1.5401 H   0  0  0  0  0  0  0  0  0  0  0  0
   -2.1162    0.0418    3.0151 H   0  0  0  0  0  0  0  0  0  0  0  0
  1  2  1  0
  2  3  1  0
  3  4  2  0
  4  5  1  0
  5  6  2  0
  6  7  1  0
  7  8  2  0
  7  9  2  0
  7 10  1  0
 10 11  1  0
 11 12  2  0
 12 13  1  0
 13 14  2  0
 14 15  1  0
 14 16  1  0
 16 17  1  0
 17 18  1  0
 18 19  1  0
 19 20  2  0
 20 21  1  0
 21 22  1  0
 16 23  2  0
  6 24  1  0
 24 25  2  0
 25  3  1  0
 23 11  1  0
 22 18  2  0
  1 26  1  0
  1 27  1  0
  1 28  1  0
  4 29  1  0
  5 30  1  0
 10 31  1  0
 12 32  1  0
 13 33  1  0
 15 34  1  0
 20 35  1  0
 21 36  1  0
 23 37  1  0
 24 38  1  0
 25 39  1  0
M  END
$$$$
