
     RDKit          3D

 34 35  0  0  0  0  0  0  0  0999 V2000
   -3.1260   -1.3164    1.4577 C   0  0  0  0  0  0  0  0  0  0  0  0
   -3.0821   -0.6173    0.1253 C   0  0  0  0  0  0  0  0  0  0  0  0
   -4.0864   -0.9122   -0.8146 C   0  0  0  0  0  0  0  0  0  0  0  0
   -4.0991   -0.2972   -2.0643 C   0  0  0  0  0  0  0  0  0  0  0  0
   -3.1010    0.6105   -2.3947 C   0  0  0  0  0  0  0  0  0  0  0  0
   -2.0954    0.9113   -1.4729 C   0  0  0  0  0  0  0  0  0  0  0  0
   -2.0821    0.3246   -0.2019 C   0  0  0  0  0  0  0  0  0  0  0  0
   -1.0482    0.5819    0.7308 N   0  0  0  0  0  0  0  0  0  0  0  0
   -0.2255    1.6702    0.8759 C   0  0  0  0  0  0  0  0  0  0  0  0
   -0.4711    3.2357    0.3466 S   0  0  0  0  0  0  0  0  0  0  0  0
    0.9145    1.4415    1.6011 N   0  0  0  0  0  0  0  0  0  0  0  0
    1.5891    0.1719    1.8156 C   0  0  0  0  0  0  0  0  0  0  0  0
    2.6195   -0.0815    0.7461 C   0  0  0  0  0  0  0  0  0  0  0  0
    2.2338   -0.5667   -0.5122 C   0  0  0  0  0  0  0  0  0  0  0  0
    3.1849   -0.7853   -1.5098 C   0  0  0  0  0  0  0  0  0  0  0  0
    4.5296   -0.5173   -1.2624 C   0  0  0  0  0  0  0  0  0  0  0  0
    4.9243   -0.0267   -0.0192 C   0  0  0  0  0  0  0  0  0  0  0  0
    3.9745    0.1938    0.9799 C   0  0  0  0  0  0  0  0  0  0  0  0
   -2.2450   -1.9545    1.5800 H   0  0  0  0  0  0  0  0  0  0  0  0
   -4.0110   -1.9550    1.5507 H   0  0  0  0  0  0  0  0  0  0  0  0
   -3.1669   -0.5845    2.2710 H   0  0  0  0  0  0  0  0  0  0  0  0
   -4.8714   -1.6268   -0.5758 H   0  0  0  0  0  0  0  0  0  0  0  0
   -4.8816   -0.5322   -2.7808 H   0  0  0  0  0  0  0  0  0  0  0  0
   -3.0938    1.0820   -3.3740 H   0  0  0  0  0  0  0  0  0  0  0  0
   -1.3084    1.5868   -1.7923 H   0  0  0  0  0  0  0  0  0  0  0  0
   -1.0394   -0.0221    1.5386 H   0  0  0  0  0  0  0  0  0  0  0  0
    1.5144    2.2580    1.6408 H   0  0  0  0  0  0  0  0  0  0  0  0
    0.8800   -0.6604    1.8516 H   0  0  0  0  0  0  0  0  0  0  0  0
    2.0671    0.2286    2.7999 H   0  0  0  0  0  0  0  0  0  0  0  0
    1.1860   -0.7692   -0.7257 H   0  0  0  0  0  0  0  0  0  0  0  0
    2.8744   -1.1590   -2.4821 H   0  0  0  0  0  0  0  0  0  0  0  0
    5.2691   -0.6850   -2.0410 H   0  0  0  0  0  0  0  0  0  0  0  0
    5.9728    0.1884    0.1706 H   0  0  0  0  0  0  0  0  0  0  0  0
    4.3005    0.5839    1.9414 H   0  0  0  0  0  0  0  0  0  0  0  0
  1  2  1  0
  2  3  2  0
  3  4  1  0
  4  5  2  0
  5  6  1  0
  6  7  2  0
  7  8  1  0
  8  9  1  0
  9 10  2  0
  9 11  1  0
 11 12  1  0
 12 13  1  0
 13 14  2  0
 14 15  1  0
 15 16  2  0
 16 17  1  0
 17 18  2  0
  7  2  1  0
 18 13  1  0
  1 19  1  0
  1 20  1  0
  1 21  1  0
  3 22  1  0
  4 23  1  0
  5 24  1  0
  6 25  1  0
  8 26  1  0
 11 27  1  0
 12 28  1  0
 12 29  1  0
 14 30  1  0
 15 31  1  0
 16 32  1  0
 17 33  1  0
 18 34  1  0
M  END
$$$$
