
     RDKit          3D

 37 39  0  0  0  0  0  0  0  0999 V2000
   -0.0704    0.6666    4.8305 C   0  0  0  0  0  0  0  0  0  0  0  0
    1.4442    0.2249    3.9381 S   0  0  0  0  0  0  0  0  0  0  0  0
    0.8390    0.2128    2.2558 C   0  0  0  0  0  0  0  0  0  0  0  0
    1.7517    0.1013    1.2284 C   0  0  0  0  0  0  0  0  0  0  0  0
    1.2619    0.0741   -0.0621 C   0  0  0  0  0  0  0  0  0  0  0  0
    2.1156   -0.0229   -1.1542 N   0  0  0  0  0  0  0  0  0  0  0  0
    3.2952   -0.9037   -1.0890 C   0  0  0  0  0  0  0  0  0  0  0  0
    3.3518   -1.8323   -2.3145 C   0  0  0  0  0  0  0  0  0  0  0  0
    3.3721   -1.1363   -3.5678 O   0  0  0  0  0  0  0  0  0  0  0  0
    2.6013    0.0763   -3.5588 C   0  0  0  0  0  0  0  0  0  0  0  0
    1.5015    0.1079   -2.4863 C   0  0  0  0  0  0  0  0  0  0  0  0
   -0.0580    0.1862   -0.2860 N   0  0  0  0  0  0  0  0  0  0  0  0
   -0.8785    0.3079    0.7743 C   0  0  0  0  0  0  0  0  0  0  0  0
   -2.3184    0.3700    0.4976 C   0  0  0  0  0  0  0  0  0  0  0  0
   -2.8808   -0.5472   -0.4181 C   0  0  0  0  0  0  0  0  0  0  0  0
   -4.2472   -0.5504   -0.7107 C   0  0  0  0  0  0  0  0  0  0  0  0
   -5.0880    0.3703   -0.0971 C   0  0  0  0  0  0  0  0  0  0  0  0
   -4.5595    1.2962    0.8003 C   0  0  0  0  0  0  0  0  0  0  0  0
   -3.1878    1.3013    1.0947 C   0  0  0  0  0  0  0  0  0  0  0  0
   -2.6374    2.5408    2.1736 Cl  0  0  0  0  0  0  0  0  0  0  0  0
   -0.4814    0.2965    2.0520 N   0  0  0  0  0  0  0  0  0  0  0  0
   -0.8421   -0.0955    4.6914 H   0  0  0  0  0  0  0  0  0  0  0  0
    0.1552    0.7330    5.8984 H   0  0  0  0  0  0  0  0  0  0  0  0
   -0.4447    1.6389    4.4991 H   0  0  0  0  0  0  0  0  0  0  0  0
    2.8130    0.0609    1.4331 H   0  0  0  0  0  0  0  0  0  0  0  0
    3.3031   -1.5295   -0.1896 H   0  0  0  0  0  0  0  0  0  0  0  0
    4.1882   -0.2683   -1.0705 H   0  0  0  0  0  0  0  0  0  0  0  0
    4.2512   -2.4549   -2.2708 H   0  0  0  0  0  0  0  0  0  0  0  0
    2.4891   -2.5093   -2.3206 H   0  0  0  0  0  0  0  0  0  0  0  0
    2.1623    0.1933   -4.5546 H   0  0  0  0  0  0  0  0  0  0  0  0
    3.3011    0.9068   -3.4090 H   0  0  0  0  0  0  0  0  0  0  0  0
    0.9581    1.0568   -2.5671 H   0  0  0  0  0  0  0  0  0  0  0  0
    0.7999   -0.7180   -2.6598 H   0  0  0  0  0  0  0  0  0  0  0  0
   -2.2384   -1.2786   -0.9086 H   0  0  0  0  0  0  0  0  0  0  0  0
   -4.6496   -1.2726   -1.4169 H   0  0  0  0  0  0  0  0  0  0  0  0
   -6.1517    0.3738   -0.3212 H   0  0  0  0  0  0  0  0  0  0  0  0
   -5.2215    2.0229    1.2658 H   0  0  0  0  0  0  0  0  0  0  0  0
  1  2  1  0
  2  3  1  0
  3  4  2  0
  4  5  1  0
  5  6  1  0
  6  7  1  0
  7  8  1  0
  8  9  1  0
  9 10  1  0
 10 11  1  0
  5 12  2  0
 12 13  1  0
 13 14  1  0
 14 15  2  0
 15 16  1  0
 16 17  2  0
 17 18  1  0
 18 19  2  0
 19 20  1  0
 13 21  2  0
 21  3  1  0
 11  6  1  0
 19 14  1  0
  1 22  1  0
  1 23  1  0
  1 24  1  0
  4 25  1  0
  7 26  1  0
  7 27  1  0
  8 28  1  0
  8 29  1  0
 10 30  1  0
 10 31  1  0
 11 32  1  0
 11 33  1  0
 15 34  1  0
 16 35  1  0
 17 36  1  0
 18 37  1  0
M  END
$$$$
