
     RDKit          3D

 35 36  0  0  0  0  0  0  0  0999 V2000
    3.1693    3.0127    1.8253 C   0  0  0  0  0  0  0  0  0  0  0  0
    2.9919    2.4122    0.5411 O   0  0  0  0  0  0  0  0  0  0  0  0
    3.4326    1.1153    0.5526 C   0  0  0  0  0  0  0  0  0  0  0  0
    4.8032    0.8742    0.4165 C   0  0  0  0  0  0  0  0  0  0  0  0
    5.2798   -0.4358    0.3527 C   0  0  0  0  0  0  0  0  0  0  0  0
    4.3886   -1.5070    0.4080 C   0  0  0  0  0  0  0  0  0  0  0  0
    3.0170   -1.2696    0.5223 C   0  0  0  0  0  0  0  0  0  0  0  0
    2.5310    0.0456    0.5871 C   0  0  0  0  0  0  0  0  0  0  0  0
    1.0772    0.2872    0.7306 C   0  0  0  0  0  0  0  0  0  0  0  0
    0.5762    1.1176    1.4692 O   0  0  0  0  0  0  0  0  0  0  0  0
    0.4080   -0.5672   -0.0863 O   0  0  0  0  0  0  0  0  0  0  0  0
   -1.0188   -0.4110   -0.0543 C   0  0  0  0  0  0  0  0  0  0  0  0
   -1.6277   -1.4063   -1.0380 C   0  0  0  0  0  0  0  0  0  0  0  0
   -3.1311   -1.3274   -1.0732 C   0  0  0  0  0  0  0  0  0  0  0  0
   -3.9049   -2.1200   -0.2150 C   0  0  0  0  0  0  0  0  0  0  0  0
   -5.2976   -2.0312   -0.2351 C   0  0  0  0  0  0  0  0  0  0  0  0
   -5.9286   -1.1477   -1.1087 C   0  0  0  0  0  0  0  0  0  0  0  0
   -5.1678   -0.3511   -1.9622 C   0  0  0  0  0  0  0  0  0  0  0  0
   -3.7750   -0.4383   -1.9440 C   0  0  0  0  0  0  0  0  0  0  0  0
    2.7682    2.3853    2.6293 H   0  0  0  0  0  0  0  0  0  0  0  0
    4.2272    3.2294    2.0069 H   0  0  0  0  0  0  0  0  0  0  0  0
    2.6234    3.9609    1.8298 H   0  0  0  0  0  0  0  0  0  0  0  0
    5.4985    1.7065    0.3459 H   0  0  0  0  0  0  0  0  0  0  0  0
    6.3465   -0.6203    0.2498 H   0  0  0  0  0  0  0  0  0  0  0  0
    4.7612   -2.5274    0.3559 H   0  0  0  0  0  0  0  0  0  0  0  0
    2.3319   -2.1131    0.5642 H   0  0  0  0  0  0  0  0  0  0  0  0
   -1.2811    0.6154   -0.3389 H   0  0  0  0  0  0  0  0  0  0  0  0
   -1.3829   -0.6068    0.9617 H   0  0  0  0  0  0  0  0  0  0  0  0
   -1.2195   -1.2347   -2.0426 H   0  0  0  0  0  0  0  0  0  0  0  0
   -1.3109   -2.4255   -0.7804 H   0  0  0  0  0  0  0  0  0  0  0  0
   -3.4276   -2.8118    0.4754 H   0  0  0  0  0  0  0  0  0  0  0  0
   -5.8907   -2.6505    0.4328 H   0  0  0  0  0  0  0  0  0  0  0  0
   -7.0130   -1.0784   -1.1230 H   0  0  0  0  0  0  0  0  0  0  0  0
   -5.6593    0.3404   -2.6417 H   0  0  0  0  0  0  0  0  0  0  0  0
   -3.1952    0.1932   -2.6136 H   0  0  0  0  0  0  0  0  0  0  0  0
  1  2  1  0
  2  3  1  0
  3  4  2  0
  4  5  1  0
  5  6  2  0
  6  7  1  0
  7  8  2  0
  8  9  1  0
  9 10  2  0
  9 11  1  0
 11 12  1  0
 12 13  1  0
 13 14  1  0
 14 15  2  0
 15 16  1  0
 16 17  2  0
 17 18  1  0
 18 19  2  0
  8  3  1  0
 19 14  1  0
  1 20  1  0
  1 21  1  0
  1 22  1  0
  4 23  1  0
  5 24  1  0
  6 25  1  0
  7 26  1  0
 12 27  1  0
 12 28  1  0
 13 29  1  0
 13 30  1  0
 15 31  1  0
 16 32  1  0
 17 33  1  0
 18 34  1  0
 19 35  1  0
M  END
$$$$
