
     RDKit          3D

 59 62  0  0  0  0  0  0  0  0999 V2000
    8.8378   -2.4752    1.3724 C   0  0  0  0  0  0  0  0  0  0  0  0
    7.4810   -1.8347    1.3789 C   0  0  0  0  0  0  0  0  0  0  0  0
    6.3452   -2.5857    1.6925 C   0  0  0  0  0  0  0  0  0  0  0  0
    5.0768   -1.9982    1.6634 C   0  0  0  0  0  0  0  0  0  0  0  0
    4.9210   -0.6439    1.3259 C   0  0  0  0  0  0  0  0  0  0  0  0
    3.6051   -0.0864    1.3013 N   0  0  0  0  0  0  0  0  0  0  0  0
    2.5413   -0.9335    1.2499 N   0  0  0  0  0  0  0  0  0  0  0  0
    1.4879   -0.1521    1.0018 C   0  0  0  0  0  0  0  0  0  0  0  0
    0.1189   -0.5938    0.7698 C   0  0  0  0  0  0  0  0  0  0  0  0
   -0.2288   -1.7737    0.7744 O   0  0  0  0  0  0  0  0  0  0  0  0
   -0.7658    0.4804    0.5394 N   0  0  0  0  0  0  0  0  0  0  0  0
   -2.1772    0.1960    0.3039 C   0  0  0  0  0  0  0  0  0  0  0  0
   -2.9586    0.0962    1.6172 C   0  0  0  0  0  0  0  0  0  0  0  0
   -4.3534   -0.4904    1.4093 C   0  0  0  0  0  0  0  0  0  0  0  0
   -5.2393    0.3934    0.5525 C   0  0  0  0  0  0  0  0  0  0  0  0
   -5.1118    1.6111    0.4967 O   0  0  0  0  0  0  0  0  0  0  0  0
   -6.2205   -0.3066   -0.1119 N   0  0  0  0  0  0  0  0  0  0  0  0
   -7.0003    0.3157   -1.1600 C   0  0  0  0  0  0  0  0  0  0  0  0
   -6.5524   -0.2360   -2.4654 C   0  0  0  0  0  0  0  0  0  0  0  0
   -7.1671   -1.0066   -3.4311 C   0  0  0  0  0  0  0  0  0  0  0  0
   -6.2043   -1.2183   -4.4483 C   0  0  0  0  0  0  0  0  0  0  0  0
   -5.0603   -0.5656   -4.0422 C   0  0  0  0  0  0  0  0  0  0  0  0
   -3.7175   -0.3944   -4.6320 C   0  0  0  0  0  0  0  0  0  0  0  0
   -5.2657    0.0327   -2.8372 O   0  0  0  0  0  0  0  0  0  0  0  0
   -0.4173    1.8335    0.5814 N   0  0  0  0  0  0  0  0  0  0  0  0
    0.8121    2.2062    0.8005 C   0  0  0  0  0  0  0  0  0  0  0  0
    1.1184    3.6762    0.8222 C   0  0  0  0  0  0  0  0  0  0  0  0
    1.8277    1.2048    1.0175 C   0  0  0  0  0  0  0  0  0  0  0  0
    3.1807    1.2485    1.3119 C   0  0  0  0  0  0  0  0  0  0  0  0
    4.0482    2.4091    1.6434 C   0  0  0  0  0  0  0  0  0  0  0  0
    6.0552    0.0961    0.9740 C   0  0  0  0  0  0  0  0  0  0  0  0
    7.3239   -0.4968    1.0023 C   0  0  0  0  0  0  0  0  0  0  0  0
    9.0451   -2.9026    0.3863 H   0  0  0  0  0  0  0  0  0  0  0  0
    9.6161   -1.7430    1.6122 H   0  0  0  0  0  0  0  0  0  0  0  0
    8.8985   -3.2699    2.1237 H   0  0  0  0  0  0  0  0  0  0  0  0
    6.4346   -3.6364    1.9599 H   0  0  0  0  0  0  0  0  0  0  0  0
    4.2147   -2.6137    1.9190 H   0  0  0  0  0  0  0  0  0  0  0  0
   -2.2527   -0.7464   -0.2510 H   0  0  0  0  0  0  0  0  0  0  0  0
   -2.5844    0.9835   -0.3400 H   0  0  0  0  0  0  0  0  0  0  0  0
   -3.0205    1.0870    2.0841 H   0  0  0  0  0  0  0  0  0  0  0  0
   -2.4174   -0.5461    2.3232 H   0  0  0  0  0  0  0  0  0  0  0  0
   -4.8495   -0.6061    2.3799 H   0  0  0  0  0  0  0  0  0  0  0  0
   -4.2690   -1.4865    0.9593 H   0  0  0  0  0  0  0  0  0  0  0  0
   -6.1659   -1.3156   -0.1264 H   0  0  0  0  0  0  0  0  0  0  0  0
   -8.0492    0.0607   -0.9773 H   0  0  0  0  0  0  0  0  0  0  0  0
   -6.8978    1.4051   -1.1455 H   0  0  0  0  0  0  0  0  0  0  0  0
   -8.1837   -1.3718   -3.4047 H   0  0  0  0  0  0  0  0  0  0  0  0
   -6.3268   -1.7770   -5.3655 H   0  0  0  0  0  0  0  0  0  0  0  0
   -2.9442   -0.7165   -3.9271 H   0  0  0  0  0  0  0  0  0  0  0  0
   -3.6111   -0.9855   -5.5470 H   0  0  0  0  0  0  0  0  0  0  0  0
   -3.5419    0.6566   -4.8818 H   0  0  0  0  0  0  0  0  0  0  0  0
    1.3203    3.9912    1.8493 H   0  0  0  0  0  0  0  0  0  0  0  0
    1.9858    3.8926    0.1928 H   0  0  0  0  0  0  0  0  0  0  0  0
    0.2650    4.2480    0.4462 H   0  0  0  0  0  0  0  0  0  0  0  0
    4.4845    2.8390    0.7364 H   0  0  0  0  0  0  0  0  0  0  0  0
    3.4759    3.1944    2.1448 H   0  0  0  0  0  0  0  0  0  0  0  0
    4.8462    2.1396    2.3420 H   0  0  0  0  0  0  0  0  0  0  0  0
    5.9951    1.1184    0.6216 H   0  0  0  0  0  0  0  0  0  0  0  0
    8.1915    0.0932    0.7132 H   0  0  0  0  0  0  0  0  0  0  0  0
  1  2  1  0
  2  3  2  0
  3  4  1  0
  4  5  2  0
  5  6  1  0
  6  7  1  0
  7  8  2  0
  8  9  1  0
  9 10  2  0
  9 11  1  0
 11 12  1  0
 12 13  1  0
 13 14  1  0
 14 15  1  0
 15 16  2  0
 15 17  1  0
 17 18  1  0
 18 19  1  0
 19 20  2  0
 20 21  1  0
 21 22  2  0
 22 23  1  0
 22 24  1  0
 11 25  1  0
 25 26  2  0
 26 27  1  0
 26 28  1  0
 28 29  2  0
 29 30  1  0
  5 31  1  0
 31 32  2  0
 32  2  1  0
 29  6  1  0
 28  8  1  0
 24 19  1  0
  1 33  1  0
  1 34  1  0
  1 35  1  0
  3 36  1  0
  4 37  1  0
 12 38  1  0
 12 39  1  0
 13 40  1  0
 13 41  1  0
 14 42  1  0
 14 43  1  0
 17 44  1  0
 18 45  1  0
 18 46  1  0
 20 47  1  0
 21 48  1  0
 23 49  1  0
 23 50  1  0
 23 51  1  0
 27 52  1  0
 27 53  1  0
 27 54  1  0
 30 55  1  0
 30 56  1  0
 30 57  1  0
 31 58  1  0
 32 59  1  0
M  END
$$$$
