
     RDKit          3D

 42 44  0  0  0  0  0  0  0  0999 V2000
   -2.7433   -2.2661    0.2566 C   0  0  0  0  0  0  0  0  0  0  0  0
   -3.4247   -0.9436    0.0151 C   0  0  0  0  0  0  0  0  0  0  0  0
   -4.8217   -0.9540   -0.1716 C   0  0  0  0  0  0  0  0  0  0  0  0
   -5.5257    0.2317   -0.3666 C   0  0  0  0  0  0  0  0  0  0  0  0
   -4.8355    1.4354   -0.3824 C   0  0  0  0  0  0  0  0  0  0  0  0
   -5.6926    2.9099   -0.6220 Cl  0  0  0  0  0  0  0  0  0  0  0  0
   -3.4483    1.4622   -0.2162 C   0  0  0  0  0  0  0  0  0  0  0  0
   -2.7106    0.2789   -0.0280 C   0  0  0  0  0  0  0  0  0  0  0  0
   -1.3116    0.2994    0.1063 N   0  0  0  0  0  0  0  0  0  0  0  0
   -0.5828   -0.2675   -1.0521 C   0  0  0  0  0  0  0  0  0  0  0  0
    0.7235    0.4971   -1.3732 C   0  0  0  0  0  0  0  0  0  0  0  0
    1.5632    0.8297   -0.1849 N   0  0  0  0  0  0  0  0  0  0  0  0
    2.6098   -0.0704    0.0325 C   0  0  0  0  0  0  0  0  0  0  0  0
    2.4054   -1.3896    0.4740 C   0  0  0  0  0  0  0  0  0  0  0  0
    3.4821   -2.2489    0.6627 C   0  0  0  0  0  0  0  0  0  0  0  0
    4.7636   -1.7890    0.4099 C   0  0  0  0  0  0  0  0  0  0  0  0
    4.9404   -0.4816   -0.0229 C   0  0  0  0  0  0  0  0  0  0  0  0
    3.8846    0.3446   -0.2030 N   0  0  0  0  0  4  0  0  0  0  0  0
    4.1203    1.7277   -0.6560 C   0  0  0  0  0  0  0  0  0  0  0  0
    0.7869    1.1525    1.0494 C   0  0  0  0  0  0  0  0  0  0  0  0
   -0.6906    1.4741    0.7414 C   0  0  0  0  0  0  0  0  0  0  0  0
   -2.3681   -2.6729   -0.6884 H   0  0  0  0  0  0  0  0  0  0  0  0
   -3.4389   -2.9938    0.6935 H   0  0  0  0  0  0  0  0  0  0  0  0
   -1.9143   -2.1639    0.9668 H   0  0  0  0  0  0  0  0  0  0  0  0
   -5.3725   -1.8935   -0.1503 H   0  0  0  0  0  0  0  0  0  0  0  0
   -6.6049    0.2081   -0.4996 H   0  0  0  0  0  0  0  0  0  0  0  0
   -2.9516    2.4271   -0.2610 H   0  0  0  0  0  0  0  0  0  0  0  0
   -1.2039   -0.2717   -1.9583 H   0  0  0  0  0  0  0  0  0  0  0  0
   -0.3347   -1.3103   -0.8254 H   0  0  0  0  0  0  0  0  0  0  0  0
    0.4560    1.4522   -1.8452 H   0  0  0  0  0  0  0  0  0  0  0  0
    1.3025   -0.0528   -2.1281 H   0  0  0  0  0  0  0  0  0  0  0  0
    1.4012   -1.7522    0.6837 H   0  0  0  0  0  0  0  0  0  0  0  0
    3.3190   -3.2693    1.0085 H   0  0  0  0  0  0  0  0  0  0  0  0
    5.6217   -2.4437    0.5521 H   0  0  0  0  0  0  0  0  0  0  0  0
    5.9327   -0.0870   -0.2275 H   0  0  0  0  0  0  0  0  0  0  0  0
    3.6042    1.8696   -1.6094 H   0  0  0  0  0  0  0  0  0  0  0  0
    3.7439    2.4099    0.1116 H   0  0  0  0  0  0  0  0  0  0  0  0
    5.1909    1.8993   -0.7973 H   0  0  0  0  0  0  0  0  0  0  0  0
    1.2549    2.0200    1.5305 H   0  0  0  0  0  0  0  0  0  0  0  0
    0.8137    0.3268    1.7724 H   0  0  0  0  0  0  0  0  0  0  0  0
   -1.2000    1.7137    1.6820 H   0  0  0  0  0  0  0  0  0  0  0  0
   -0.7443    2.3521    0.0863 H   0  0  0  0  0  0  0  0  0  0  0  0
  1  2  1  0
  2  3  2  0
  3  4  1  0
  4  5  2  0
  5  6  1  0
  5  7  1  0
  7  8  2  0
  8  9  1  0
  9 10  1  0
 10 11  1  0
 11 12  1  0
 12 13  1  0
 13 14  2  0
 14 15  1  0
 15 16  2  0
 16 17  1  0
 17 18  2  0
 18 19  1  0
 12 20  1  0
 20 21  1  0
  8  2  1  0
 21  9  1  0
 18 13  1  0
  1 22  1  0
  1 23  1  0
  1 24  1  0
  3 25  1  0
  4 26  1  0
  7 27  1  0
 10 28  1  0
 10 29  1  0
 11 30  1  0
 11 31  1  0
 14 32  1  0
 15 33  1  0
 16 34  1  0
 17 35  1  0
 19 36  1  0
 19 37  1  0
 19 38  1  0
 20 39  1  0
 20 40  1  0
 21 41  1  0
 21 42  1  0
M  CHG  1  18   1
M  END
$$$$
