
     RDKit          3D

 35 36  0  0  0  0  0  0  0  0999 V2000
    3.0631   -0.0587    1.7634 C   0  0  0  0  0  0  0  0  0  0  0  0
    2.7281    0.7264    0.5767 N   0  0  0  0  0  0  0  0  0  0  0  0
    1.2969    0.6477    0.2351 C   0  0  0  0  0  0  0  0  0  0  0  0
    0.4177    1.4073    1.2388 C   0  0  0  0  0  0  0  0  0  0  0  0
   -1.0441    1.4369    0.7942 C   0  0  0  0  0  0  0  0  0  0  0  0
   -1.5481    0.1027    0.7941 O   0  0  0  0  0  0  0  0  0  0  0  0
   -2.8315   -0.1039    0.3648 C   0  0  0  0  0  0  0  0  0  0  0  0
   -3.7208    0.9138    0.0042 C   0  0  0  0  0  0  0  0  0  0  0  0
   -5.0169    0.6018   -0.4209 C   0  0  0  0  0  0  0  0  0  0  0  0
   -5.4296   -0.7271   -0.4854 C   0  0  0  0  0  0  0  0  0  0  0  0
   -7.0252   -1.1001   -1.0086 Cl  0  0  0  0  0  0  0  0  0  0  0  0
   -4.5610   -1.7523   -0.1282 C   0  0  0  0  0  0  0  0  0  0  0  0
   -3.2674   -1.4394    0.2961 C   0  0  0  0  0  0  0  0  0  0  0  0
   -2.2225   -2.7485    0.7317 Cl  0  0  0  0  0  0  0  0  0  0  0  0
    3.5822    0.3861   -0.5727 C   0  0  0  0  0  0  0  0  0  0  0  0
    3.3980   -0.9890   -1.1384 C   0  0  0  0  0  0  0  0  0  0  0  0
    3.7830   -1.2843   -2.5658 C   0  0  0  0  0  0  0  0  0  0  0  0
    2.4145   -1.1039   -2.1756 O   0  0  0  0  0  0  0  0  0  0  0  0
    2.7641   -1.1084    1.6733 H   0  0  0  0  0  0  0  0  0  0  0  0
    4.1408   -0.0244    1.9601 H   0  0  0  0  0  0  0  0  0  0  0  0
    2.5840    0.3559    2.6559 H   0  0  0  0  0  0  0  0  0  0  0  0
    1.1383    1.1080   -0.7490 H   0  0  0  0  0  0  0  0  0  0  0  0
    0.9696   -0.3967    0.1577 H   0  0  0  0  0  0  0  0  0  0  0  0
    0.4732    0.9272    2.2223 H   0  0  0  0  0  0  0  0  0  0  0  0
    0.7792    2.4370    1.3449 H   0  0  0  0  0  0  0  0  0  0  0  0
   -1.1152    1.8761   -0.2082 H   0  0  0  0  0  0  0  0  0  0  0  0
   -1.6140    2.0460    1.5057 H   0  0  0  0  0  0  0  0  0  0  0  0
   -3.4402    1.9615    0.0443 H   0  0  0  0  0  0  0  0  0  0  0  0
   -5.6986    1.4023   -0.6990 H   0  0  0  0  0  0  0  0  0  0  0  0
   -4.8852   -2.7879   -0.1786 H   0  0  0  0  0  0  0  0  0  0  0  0
    3.4220    1.1391   -1.3559 H   0  0  0  0  0  0  0  0  0  0  0  0
    4.6341    0.5034   -0.2828 H   0  0  0  0  0  0  0  0  0  0  0  0
    3.4914   -1.7891   -0.4182 H   0  0  0  0  0  0  0  0  0  0  0  0
    4.2397   -0.5040   -3.1611 H   0  0  0  0  0  0  0  0  0  0  0  0
    4.1002   -2.2891   -2.8150 H   0  0  0  0  0  0  0  0  0  0  0  0
  1  2  1  0
  2  3  1  0
  3  4  1  0
  4  5  1  0
  5  6  1  0
  6  7  1  0
  7  8  2  0
  8  9  1  0
  9 10  2  0
 10 11  1  0
 10 12  1  0
 12 13  2  0
 13 14  1  0
  2 15  1  0
 15 16  1  0
 16 17  1  0
 17 18  1  0
 13  7  1  0
 18 16  1  0
  1 19  1  0
  1 20  1  0
  1 21  1  0
  3 22  1  0
  3 23  1  0
  4 24  1  0
  4 25  1  0
  5 26  1  0
  5 27  1  0
  8 28  1  0
  9 29  1  0
 12 30  1  0
 15 31  1  0
 15 32  1  0
 16 33  1  0
 17 34  1  0
 17 35  1  0
M  END
$$$$
