
     RDKit          3D

 59 62  0  0  0  0  0  0  0  0999 V2000
    7.8059    3.8670   -0.3726 C   0  0  0  0  0  0  0  0  0  0  0  0
    7.5989    3.1487    0.8390 O   0  0  0  0  0  0  0  0  0  0  0  0
    6.6930    2.1284    0.8068 C   0  0  0  0  0  0  0  0  0  0  0  0
    6.5673    1.4292    2.0110 C   0  0  0  0  0  0  0  0  0  0  0  0
    5.6904    0.3461    2.1164 C   0  0  0  0  0  0  0  0  0  0  0  0
    4.9318   -0.0516    1.0087 C   0  0  0  0  0  0  0  0  0  0  0  0
    4.0463   -1.2400    1.1529 C   0  0  0  0  0  0  0  0  0  0  0  0
    3.4966   -1.4291    2.2393 O   0  0  0  0  0  0  0  0  0  0  0  0
    3.9845   -2.2322    0.0030 C   0  0  0  0  0  0  0  0  0  0  0  0
    2.3362   -2.9730   -0.1605 S   0  0  0  0  0  0  0  0  0  0  0  0
    1.4366   -1.6286   -0.7646 C   0  0  0  0  0  0  0  0  0  0  0  0
    1.9443   -0.5013   -1.2097 N   0  0  0  0  0  0  0  0  0  0  0  0
    0.9046    0.2831   -1.6377 N   0  0  0  0  0  0  0  0  0  0  0  0
   -0.2181   -0.3859   -1.4541 C   0  0  0  0  0  0  0  0  0  0  0  0
   -1.5922    0.0646   -1.8436 C   0  0  0  0  0  0  0  0  0  0  0  0
   -2.5358    0.1122   -0.7311 N   0  0  0  0  0  0  0  0  0  0  0  0
   -3.8862    0.4286   -0.9457 C   0  0  0  0  0  0  0  0  0  0  0  0
   -4.4918    0.3387   -2.2075 C   0  0  0  0  0  0  0  0  0  0  0  0
   -5.8574    0.5913   -2.3886 C   0  0  0  0  0  0  0  0  0  0  0  0
   -6.6666    0.9302   -1.3045 C   0  0  0  0  0  0  0  0  0  0  0  0
   -8.1362    1.1688   -1.4951 C   0  0  0  0  0  0  0  0  0  0  0  0
   -6.0938    0.9739   -0.0312 C   0  0  0  0  0  0  0  0  0  0  0  0
   -4.7210    0.7121    0.1612 C   0  0  0  0  0  0  0  0  0  0  0  0
   -4.1754    0.7742    1.5652 C   0  0  0  0  0  0  0  0  0  0  0  0
    0.0717   -1.5944   -0.8546 N   0  0  0  0  0  0  0  0  0  0  0  0
   -0.8720   -2.6155   -0.4375 C   0  0  0  0  0  0  0  0  0  0  0  0
   -1.2096   -2.5173    1.0082 C   0  0  0  0  0  0  0  0  0  0  0  0
   -0.5989   -1.9776    2.1229 C   0  0  0  0  0  0  0  0  0  0  0  0
   -1.4561   -2.2385    3.2212 C   0  0  0  0  0  0  0  0  0  0  0  0
   -2.5320   -2.9247    2.7114 C   0  0  0  0  0  0  0  0  0  0  0  0
   -2.3873   -3.1081    1.3742 O   0  0  0  0  0  0  0  0  0  0  0  0
    5.0313    0.6647   -0.1880 C   0  0  0  0  0  0  0  0  0  0  0  0
    5.9143    1.7498   -0.2896 C   0  0  0  0  0  0  0  0  0  0  0  0
    6.8971    4.3993   -0.6732 H   0  0  0  0  0  0  0  0  0  0  0  0
    8.5856    4.6112   -0.1787 H   0  0  0  0  0  0  0  0  0  0  0  0
    8.1649    3.2047   -1.1761 H   0  0  0  0  0  0  0  0  0  0  0  0
    7.1608    1.7291    2.8742 H   0  0  0  0  0  0  0  0  0  0  0  0
    5.6106   -0.1896    3.0623 H   0  0  0  0  0  0  0  0  0  0  0  0
    4.6944   -3.0346    0.2319 H   0  0  0  0  0  0  0  0  0  0  0  0
    4.2889   -1.7979   -0.9512 H   0  0  0  0  0  0  0  0  0  0  0  0
   -1.9411   -0.6266   -2.6207 H   0  0  0  0  0  0  0  0  0  0  0  0
   -1.5188    1.0600   -2.2939 H   0  0  0  0  0  0  0  0  0  0  0  0
   -2.1542    0.6456    0.0504 H   0  0  0  0  0  0  0  0  0  0  0  0
   -3.9205    0.0729   -3.0921 H   0  0  0  0  0  0  0  0  0  0  0  0
   -6.2839    0.5118   -3.3894 H   0  0  0  0  0  0  0  0  0  0  0  0
   -8.5305    1.8350   -0.7197 H   0  0  0  0  0  0  0  0  0  0  0  0
   -8.6791    0.2187   -1.4561 H   0  0  0  0  0  0  0  0  0  0  0  0
   -8.3279    1.6466   -2.4617 H   0  0  0  0  0  0  0  0  0  0  0  0
   -6.7232    1.2070    0.8283 H   0  0  0  0  0  0  0  0  0  0  0  0
   -4.9782    0.8183    2.3128 H   0  0  0  0  0  0  0  0  0  0  0  0
   -3.5842   -0.1152    1.7874 H   0  0  0  0  0  0  0  0  0  0  0  0
   -3.5527    1.6662    1.6871 H   0  0  0  0  0  0  0  0  0  0  0  0
   -0.4408   -3.5959   -0.6622 H   0  0  0  0  0  0  0  0  0  0  0  0
   -1.7714   -2.5249   -1.0551 H   0  0  0  0  0  0  0  0  0  0  0  0
    0.3488   -1.4514    2.1489 H   0  0  0  0  0  0  0  0  0  0  0  0
   -1.3046   -1.9504    4.2525 H   0  0  0  0  0  0  0  0  0  0  0  0
   -3.4386   -3.3301    3.1424 H   0  0  0  0  0  0  0  0  0  0  0  0
    4.4121    0.4147   -1.0479 H   0  0  0  0  0  0  0  0  0  0  0  0
    5.9634    2.2817   -1.2375 H   0  0  0  0  0  0  0  0  0  0  0  0
  1  2  1  0
  2  3  1  0
  3  4  2  0
  4  5  1  0
  5  6  2  0
  6  7  1  0
  7  8  2  0
  7  9  1  0
  9 10  1  0
 10 11  1  0
 11 12  2  0
 12 13  1  0
 13 14  2  0
 14 15  1  0
 15 16  1  0
 16 17  1  0
 17 18  2  0
 18 19  1  0
 19 20  2  0
 20 21  1  0
 20 22  1  0
 22 23  2  0
 23 24  1  0
 14 25  1  0
 25 26  1  0
 26 27  1  0
 27 28  2  0
 28 29  1  0
 29 30  2  0
 30 31  1  0
  6 32  1  0
 32 33  2  0
 33  3  1  0
 25 11  1  0
 31 27  1  0
 23 17  1  0
  1 34  1  0
  1 35  1  0
  1 36  1  0
  4 37  1  0
  5 38  1  0
  9 39  1  0
  9 40  1  0
 15 41  1  0
 15 42  1  0
 16 43  1  0
 18 44  1  0
 19 45  1  0
 21 46  1  0
 21 47  1  0
 21 48  1  0
 22 49  1  0
 24 50  1  0
 24 51  1  0
 24 52  1  0
 26 53  1  0
 26 54  1  0
 28 55  1  0
 29 56  1  0
 30 57  1  0
 32 58  1  0
 33 59  1  0
M  END
$$$$
