
     RDKit          3D

 42 45  0  0  0  0  0  0  0  0999 V2000
    4.1107   -2.0653   -0.9493 O   0  0  0  0  0  0  0  0  0  0  0  0
    3.4452   -1.1358   -0.5005 C   0  0  0  0  0  0  0  0  0  0  0  0
    3.9994   -0.3825    0.6451 C   0  0  0  0  0  0  0  0  0  0  0  0
    4.1666    1.0075    0.5766 C   0  0  0  0  0  0  0  0  0  0  0  0
    4.7129    1.6953    1.6621 C   0  0  0  0  0  0  0  0  0  0  0  0
    5.1012    0.9920    2.8028 C   0  0  0  0  0  0  0  0  0  0  0  0
    4.9516   -0.3919    2.8466 C   0  0  0  0  0  0  0  0  0  0  0  0
    5.3365   -1.0591    3.9421 F   0  0  0  0  0  0  0  0  0  0  0  0
    4.4112   -1.0908    1.7755 C   0  0  0  0  0  0  0  0  0  0  0  0
    2.2083   -0.7648   -1.0173 N   0  0  0  0  0  0  0  0  0  0  0  0
    1.2421    0.1087   -0.3375 C   0  0  0  0  0  0  0  0  0  0  0  0
   -0.2176   -0.2931   -0.6087 C   0  0  0  0  0  0  0  0  0  0  0  0
   -0.5179   -0.4127   -2.0412 N   0  0  0  0  0  0  0  0  0  0  0  0
   -1.7364   -0.0540   -2.6273 C   0  0  0  0  0  0  0  0  0  0  0  0
   -1.8373    0.1080   -3.8432 O   0  0  0  0  0  0  0  0  0  0  0  0
   -2.9012    0.0949   -1.7373 C   0  0  0  0  0  0  0  0  0  0  0  0
   -3.3669   -0.8287   -0.7684 C   0  0  0  0  0  0  0  0  0  0  0  0
   -4.4878   -0.2586   -0.2167 C   0  0  0  0  0  0  0  0  0  0  0  0
   -5.3410   -0.6902    0.7607 N   0  0  0  0  0  0  0  0  0  0  0  0
   -6.3408    0.1018    1.0227 C   0  0  0  0  0  0  0  0  0  0  0  0
   -6.6222    1.4153    0.3652 C   0  0  0  0  0  0  0  0  0  0  0  0
   -8.0982    2.3996    0.8816 Br  0  0  0  0  0  0  0  0  0  0  0  0
   -5.7416    1.7808   -0.5747 C   0  0  0  0  0  0  0  0  0  0  0  0
   -4.6659    0.9573   -0.8807 N   0  0  0  0  0  0  0  0  0  0  0  0
   -3.6907    1.1821   -1.7882 N   0  0  0  0  0  0  0  0  0  0  0  0
    0.6115   -0.6939   -2.9305 C   0  0  0  0  0  0  0  0  0  0  0  0
    1.7403   -1.4504   -2.2251 C   0  0  0  0  0  0  0  0  0  0  0  0
    3.8915    1.5512   -0.3239 H   0  0  0  0  0  0  0  0  0  0  0  0
    4.8470    2.7733    1.6151 H   0  0  0  0  0  0  0  0  0  0  0  0
    5.5319    1.5105    3.6543 H   0  0  0  0  0  0  0  0  0  0  0  0
    4.3183   -2.1713    1.8239 H   0  0  0  0  0  0  0  0  0  0  0  0
    1.4229    0.1095    0.7415 H   0  0  0  0  0  0  0  0  0  0  0  0
    1.4163    1.1225   -0.7165 H   0  0  0  0  0  0  0  0  0  0  0  0
   -0.4132   -1.2764   -0.1654 H   0  0  0  0  0  0  0  0  0  0  0  0
   -0.8826    0.4366   -0.1376 H   0  0  0  0  0  0  0  0  0  0  0  0
   -2.9509   -1.7927   -0.5145 H   0  0  0  0  0  0  0  0  0  0  0  0
   -7.0581   -0.2064    1.8022 H   0  0  0  0  0  0  0  0  0  0  0  0
   -5.8055    2.7017   -1.1382 H   0  0  0  0  0  0  0  0  0  0  0  0
    0.2596   -1.2641   -3.7974 H   0  0  0  0  0  0  0  0  0  0  0  0
    0.9785    0.2734   -3.2953 H   0  0  0  0  0  0  0  0  0  0  0  0
    2.5829   -1.5981   -2.9098 H   0  0  0  0  0  0  0  0  0  0  0  0
    1.3895   -2.4415   -1.9117 H   0  0  0  0  0  0  0  0  0  0  0  0
  1  2  2  0
  2  3  1  0
  3  4  2  0
  4  5  1  0
  5  6  2  0
  6  7  1  0
  7  8  1  0
  7  9  2  0
  2 10  1  0
 10 11  1  0
 11 12  1  0
 12 13  1  0
 13 14  1  0
 14 15  2  0
 14 16  1  0
 16 17  1  0
 17 18  2  0
 18 19  1  0
 19 20  2  0
 20 21  1  0
 21 22  1  0
 21 23  2  0
 23 24  1  0
 24 25  1  0
 13 26  1  0
 26 27  1  0
  9  3  1  0
 27 10  1  0
 25 16  2  0
 24 18  1  0
  4 28  1  0
  5 29  1  0
  6 30  1  0
  9 31  1  0
 11 32  1  0
 11 33  1  0
 12 34  1  0
 12 35  1  0
 17 36  1  0
 20 37  1  0
 23 38  1  0
 26 39  1  0
 26 40  1  0
 27 41  1  0
 27 42  1  0
M  END
$$$$
