
     RDKit          3D

 40 41  0  0  0  0  0  0  0  0999 V2000
    7.7368    1.7302    0.8059 C   0  0  0  0  0  0  0  0  0  0  0  0
    6.4520    0.8432   -0.1045 S   0  0  0  0  0  0  0  0  0  0  0  0
    5.1241    0.9492    1.1325 C   0  0  0  0  0  0  0  0  0  0  0  0
    3.8709    0.2540    0.6618 C   0  0  0  0  0  0  0  0  0  0  0  0
    2.9415    0.9278   -0.1447 C   0  0  0  0  0  0  0  0  0  0  0  0
    1.7842    0.2820   -0.5910 C   0  0  0  0  0  0  0  0  0  0  0  0
    1.5405   -1.0488   -0.2314 C   0  0  0  0  0  0  0  0  0  0  0  0
    0.3220   -1.7795   -0.6793 C   0  0  0  0  0  0  0  0  0  0  0  0
    0.3217   -3.0034   -0.7522 O   0  0  0  0  0  0  0  0  0  0  0  0
   -0.7902   -1.0087   -0.9542 N   0  0  0  0  0  0  0  0  0  0  0  0
   -2.0705   -1.6311   -1.2432 C   0  0  0  0  0  0  0  0  0  0  0  0
   -2.8017   -2.1171    0.0123 C   0  0  0  0  0  0  0  0  0  0  0  0
   -3.1938   -0.7542    1.1807 S   0  0  0  0  0  0  0  0  0  0  0  0
   -4.4190    0.1459    0.2496 C   0  0  0  0  0  0  0  0  0  0  0  0
   -4.2071    1.5035   -0.0148 C   0  0  0  0  0  0  0  0  0  0  0  0
   -5.1499    2.2393   -0.7379 C   0  0  0  0  0  0  0  0  0  0  0  0
   -6.3128    1.6179   -1.1878 C   0  0  0  0  0  0  0  0  0  0  0  0
   -7.5898    2.6106   -2.1651 Br  0  0  0  0  0  0  0  0  0  0  0  0
   -6.5437    0.2712   -0.9155 C   0  0  0  0  0  0  0  0  0  0  0  0
   -5.5987   -0.4622   -0.1922 C   0  0  0  0  0  0  0  0  0  0  0  0
    2.4767   -1.7336    0.5514 C   0  0  0  0  0  0  0  0  0  0  0  0
    3.6330   -1.0869    0.9953 C   0  0  0  0  0  0  0  0  0  0  0  0
    7.9680    1.2127    1.7405 H   0  0  0  0  0  0  0  0  0  0  0  0
    8.6449    1.7724    0.1986 H   0  0  0  0  0  0  0  0  0  0  0  0
    7.4149    2.7525    1.0205 H   0  0  0  0  0  0  0  0  0  0  0  0
    4.9027    2.0024    1.3396 H   0  0  0  0  0  0  0  0  0  0  0  0
    5.4666    0.5000    2.0715 H   0  0  0  0  0  0  0  0  0  0  0  0
    3.1251    1.9577   -0.4451 H   0  0  0  0  0  0  0  0  0  0  0  0
    1.1038    0.8216   -1.2430 H   0  0  0  0  0  0  0  0  0  0  0  0
   -0.8150   -0.0613   -0.6015 H   0  0  0  0  0  0  0  0  0  0  0  0
   -1.8965   -2.4853   -1.9077 H   0  0  0  0  0  0  0  0  0  0  0  0
   -2.6688   -0.9028   -1.8001 H   0  0  0  0  0  0  0  0  0  0  0  0
   -3.7199   -2.6436   -0.2645 H   0  0  0  0  0  0  0  0  0  0  0  0
   -2.1755   -2.8306    0.5584 H   0  0  0  0  0  0  0  0  0  0  0  0
   -3.3077    2.0009    0.3408 H   0  0  0  0  0  0  0  0  0  0  0  0
   -4.9698    3.2922   -0.9383 H   0  0  0  0  0  0  0  0  0  0  0  0
   -7.4557   -0.2147   -1.2527 H   0  0  0  0  0  0  0  0  0  0  0  0
   -5.8038   -1.5059    0.0327 H   0  0  0  0  0  0  0  0  0  0  0  0
    2.3091   -2.7760    0.8158 H   0  0  0  0  0  0  0  0  0  0  0  0
    4.3515   -1.6413    1.5957 H   0  0  0  0  0  0  0  0  0  0  0  0
  1  2  1  0
  2  3  1  0
  3  4  1  0
  4  5  2  0
  5  6  1  0
  6  7  2  0
  7  8  1  0
  8  9  2  0
  8 10  1  0
 10 11  1  0
 11 12  1  0
 12 13  1  0
 13 14  1  0
 14 15  2  0
 15 16  1  0
 16 17  2  0
 17 18  1  0
 17 19  1  0
 19 20  2  0
  7 21  1  0
 21 22  2  0
 22  4  1  0
 20 14  1  0
  1 23  1  0
  1 24  1  0
  1 25  1  0
  3 26  1  0
  3 27  1  0
  5 28  1  0
  6 29  1  0
 10 30  1  0
 11 31  1  0
 11 32  1  0
 12 33  1  0
 12 34  1  0
 15 35  1  0
 16 36  1  0
 19 37  1  0
 20 38  1  0
 21 39  1  0
 22 40  1  0
M  END
$$$$
