
     RDKit          3D

 52 51  0  0  0  0  0  0  0  0999 V2000
   -7.6587    1.2931    0.6564 C   0  0  0  0  0  0  0  0  0  0  0  0
   -6.5307    0.9207    0.8364 C   0  0  0  0  0  0  0  0  0  0  0  0
   -5.1610    0.4481    1.0629 C   0  0  0  0  0  0  0  0  0  0  0  0
   -4.1100    1.3925    0.4557 N   0  0  0  0  0  4  0  0  0  0  0  0
   -4.2838    1.4954   -1.0564 C   0  0  0  0  0  0  0  0  0  0  0  0
   -4.2930    2.8064    1.0391 C   0  0  0  0  0  0  0  0  0  0  0  0
   -2.6836    0.9502    0.8394 C   0  0  0  0  0  0  0  0  0  0  0  0
   -2.3321   -0.5323    0.6705 C   0  0  0  0  0  0  0  0  0  0  0  0
   -2.2714   -1.0470   -0.7685 C   0  0  0  0  0  0  0  0  0  0  0  0
   -1.4977   -2.3663   -0.8969 C   0  0  0  0  0  0  0  0  0  0  0  0
   -0.0445   -2.2068   -1.3588 C   0  0  0  0  0  0  0  0  0  0  0  0
    0.8434   -1.4353   -0.3831 C   0  0  0  0  0  0  0  0  0  0  0  0
    2.3010   -1.4230   -0.8498 C   0  0  0  0  0  0  0  0  0  0  0  0
    3.1891   -0.6440    0.1220 C   0  0  0  0  0  0  0  0  0  0  0  0
    4.6459   -0.6313   -0.3437 C   0  0  0  0  0  0  0  0  0  0  0  0
    5.5338    0.1479    0.6279 C   0  0  0  0  0  0  0  0  0  0  0  0
    6.9897    0.1606    0.1625 C   0  0  0  0  0  0  0  0  0  0  0  0
    7.8757    0.9343    1.1258 C   0  0  0  0  0  0  0  0  0  0  0  0
   -8.6666    1.6116    0.5031 H   0  0  0  0  0  0  0  0  0  0  0  0
   -4.9435    0.3701    2.1338 H   0  0  0  0  0  0  0  0  0  0  0  0
   -5.0293   -0.5336    0.5978 H   0  0  0  0  0  0  0  0  0  0  0  0
   -5.1849    2.0768   -1.2741 H   0  0  0  0  0  0  0  0  0  0  0  0
   -4.3933    0.4969   -1.4783 H   0  0  0  0  0  0  0  0  0  0  0  0
   -3.4102    2.0041   -1.4739 H   0  0  0  0  0  0  0  0  0  0  0  0
   -5.2497    3.2186    0.7071 H   0  0  0  0  0  0  0  0  0  0  0  0
   -4.2625    2.7376    2.1307 H   0  0  0  0  0  0  0  0  0  0  0  0
   -3.4754    3.4341    0.6710 H   0  0  0  0  0  0  0  0  0  0  0  0
   -2.5653    1.1993    1.9018 H   0  0  0  0  0  0  0  0  0  0  0  0
   -1.9857    1.5798    0.2742 H   0  0  0  0  0  0  0  0  0  0  0  0
   -3.0059   -1.1639    1.2604 H   0  0  0  0  0  0  0  0  0  0  0  0
   -1.3481   -0.6653    1.1349 H   0  0  0  0  0  0  0  0  0  0  0  0
   -3.2951   -1.2448   -1.1019 H   0  0  0  0  0  0  0  0  0  0  0  0
   -1.8495   -0.2906   -1.4394 H   0  0  0  0  0  0  0  0  0  0  0  0
   -1.5367   -2.9344    0.0402 H   0  0  0  0  0  0  0  0  0  0  0  0
   -2.0053   -2.9825   -1.6505 H   0  0  0  0  0  0  0  0  0  0  0  0
   -0.0276   -1.7126   -2.3382 H   0  0  0  0  0  0  0  0  0  0  0  0
    0.3747   -3.2097   -1.5091 H   0  0  0  0  0  0  0  0  0  0  0  0
    0.4901   -0.4018   -0.2949 H   0  0  0  0  0  0  0  0  0  0  0  0
    0.7819   -1.8924    0.6116 H   0  0  0  0  0  0  0  0  0  0  0  0
    2.6680   -2.4529   -0.9372 H   0  0  0  0  0  0  0  0  0  0  0  0
    2.3633   -0.9714   -1.8474 H   0  0  0  0  0  0  0  0  0  0  0  0
    2.8225    0.3860    0.2095 H   0  0  0  0  0  0  0  0  0  0  0  0
    3.1261   -1.0956    1.1195 H   0  0  0  0  0  0  0  0  0  0  0  0
    4.7088   -0.1799   -1.3414 H   0  0  0  0  0  0  0  0  0  0  0  0
    5.0126   -1.6613   -0.4311 H   0  0  0  0  0  0  0  0  0  0  0  0
    5.1671    1.1779    0.7155 H   0  0  0  0  0  0  0  0  0  0  0  0
    5.4710   -0.3033    1.6257 H   0  0  0  0  0  0  0  0  0  0  0  0
    7.0586    0.6145   -0.8329 H   0  0  0  0  0  0  0  0  0  0  0  0
    7.3625   -0.8668    0.0773 H   0  0  0  0  0  0  0  0  0  0  0  0
    8.9120    0.9305    0.7738 H   0  0  0  0  0  0  0  0  0  0  0  0
    7.8545    0.4862    2.1244 H   0  0  0  0  0  0  0  0  0  0  0  0
    7.5489    1.9757    1.2091 H   0  0  0  0  0  0  0  0  0  0  0  0
  1  2  3  0
  2  3  1  0
  3  4  1  0
  4  5  1  0
  4  6  1  0
  4  7  1  0
  7  8  1  0
  8  9  1  0
  9 10  1  0
 10 11  1  0
 11 12  1  0
 12 13  1  0
 13 14  1  0
 14 15  1  0
 15 16  1  0
 16 17  1  0
 17 18  1  0
  1 19  1  0
  3 20  1  0
  3 21  1  0
  5 22  1  0
  5 23  1  0
  5 24  1  0
  6 25  1  0
  6 26  1  0
  6 27  1  0
  7 28  1  0
  7 29  1  0
  8 30  1  0
  8 31  1  0
  9 32  1  0
  9 33  1  0
 10 34  1  0
 10 35  1  0
 11 36  1  0
 11 37  1  0
 12 38  1  0
 12 39  1  0
 13 40  1  0
 13 41  1  0
 14 42  1  0
 14 43  1  0
 15 44  1  0
 15 45  1  0
 16 46  1  0
 16 47  1  0
 17 48  1  0
 17 49  1  0
 18 50  1  0
 18 51  1  0
 18 52  1  0
M  CHG  1   4   1
M  END
$$$$
