
     RDKit          3D

 61 67  0  0  0  0  0  0  0  0999 V2000
    3.6718    0.8088   -2.7362 O   0  0  0  0  0  0  0  0  0  0  0  0
    3.2986    0.5007   -1.6077 C   0  0  0  0  0  0  0  0  0  0  0  0
    4.2761    0.6295   -0.5046 C   0  0  0  0  0  0  0  0  0  0  0  0
    4.6141   -0.4907    0.2845 C   0  0  0  0  0  0  0  0  0  0  0  0
    5.5520   -0.3687    1.3135 C   0  0  0  0  0  0  0  0  0  0  0  0
    6.1304    0.8685    1.5072 C   0  0  0  0  0  0  0  0  0  0  0  0
    5.8137    1.9538    0.7211 C   0  0  0  0  0  0  0  0  0  0  0  0
    4.8946    1.8685   -0.3013 C   0  0  0  0  0  0  0  0  0  0  0  0
    6.5050    3.0694    1.0768 O   0  0  0  0  0  0  0  0  0  0  0  0
    7.3051    2.5606    2.1638 C   0  0  0  0  0  0  0  0  0  0  0  0
    7.0594    1.1683    2.4538 O   0  0  0  0  0  0  0  0  0  0  0  0
    2.0165    0.0355   -1.3176 N   0  0  0  0  0  0  0  0  0  0  0  0
    1.4588   -0.0455    0.0316 C   0  0  0  0  0  0  0  0  0  0  0  0
   -0.0555    0.1477    0.0247 C   0  0  0  0  0  0  0  0  0  0  0  0
   -0.7695   -0.9406   -0.8236 C   0  0  0  0  0  0  0  0  0  0  0  0
    0.0776   -1.2529   -2.0982 C   0  0  0  0  0  0  0  0  0  0  0  0
    1.0908   -0.1632   -2.4271 C   0  0  0  0  0  0  0  0  0  0  0  0
   -0.7714   -2.1162    0.0334 O   0  0  0  0  0  0  0  0  0  0  0  0
   -1.5448   -3.1617   -0.3848 C   0  0  0  0  0  0  0  0  0  0  0  0
   -1.2530   -4.4047    0.1763 C   0  0  0  0  0  0  0  0  0  0  0  0
   -1.9814   -5.5331   -0.2075 C   0  0  0  0  0  0  0  0  0  0  0  0
   -3.0047   -5.4131   -1.1480 C   0  0  0  0  0  0  0  0  0  0  0  0
   -3.8975   -6.8058   -1.6172 Cl  0  0  0  0  0  0  0  0  0  0  0  0
   -3.3131   -4.1732   -1.7016 C   0  0  0  0  0  0  0  0  0  0  0  0
   -2.5830   -3.0471   -1.3069 C   0  0  0  0  0  0  0  0  0  0  0  0
   -2.9217   -1.7145   -1.8398 C   0  0  0  0  0  0  0  0  0  0  0  0
   -3.7523   -1.6163   -2.7372 O   0  0  0  0  0  0  0  0  0  0  0  0
   -2.2318   -0.5336   -1.1633 C   0  0  0  0  0  0  0  0  0  0  0  0
   -3.0996   -0.1145    0.0177 C   0  0  0  0  0  0  0  0  0  0  0  0
   -3.1287    1.3561   -0.2110 C   0  0  0  0  0  0  0  0  0  0  0  0
   -3.6721    2.2957    0.7973 C   0  0  0  0  0  0  0  0  0  0  0  0
   -4.2836    1.8374    1.9701 C   0  0  0  0  0  0  0  0  0  0  0  0
   -4.7799    2.7521    2.9028 C   0  0  0  0  0  0  0  0  0  0  0  0
   -4.6694    4.1225    2.6682 C   0  0  0  0  0  0  0  0  0  0  0  0
   -4.0653    4.5831    1.4999 C   0  0  0  0  0  0  0  0  0  0  0  0
   -3.5684    3.6729    0.5653 C   0  0  0  0  0  0  0  0  0  0  0  0
   -2.6434    1.7393   -1.3477 N   0  0  0  0  0  0  0  0  0  0  0  0
   -2.2384    0.5855   -2.0558 O   0  0  0  0  0  0  0  0  0  0  0  0
    4.1584   -1.4571    0.0827 H   0  0  0  0  0  0  0  0  0  0  0  0
    5.8267   -1.2165    1.9308 H   0  0  0  0  0  0  0  0  0  0  0  0
    4.6631    2.7249   -0.9250 H   0  0  0  0  0  0  0  0  0  0  0  0
    7.0889    3.1486    3.0631 H   0  0  0  0  0  0  0  0  0  0  0  0
    8.3638    2.6842    1.9084 H   0  0  0  0  0  0  0  0  0  0  0  0
    1.9186    0.7168    0.6685 H   0  0  0  0  0  0  0  0  0  0  0  0
    1.7163   -1.0291    0.4391 H   0  0  0  0  0  0  0  0  0  0  0  0
   -0.4076    0.1185    1.0627 H   0  0  0  0  0  0  0  0  0  0  0  0
   -0.2623    1.1503   -0.3647 H   0  0  0  0  0  0  0  0  0  0  0  0
    0.6236   -2.1957   -1.9578 H   0  0  0  0  0  0  0  0  0  0  0  0
   -0.5623   -1.4044   -2.9749 H   0  0  0  0  0  0  0  0  0  0  0  0
    0.5953    0.7931   -2.6313 H   0  0  0  0  0  0  0  0  0  0  0  0
    1.6481   -0.4392   -3.3293 H   0  0  0  0  0  0  0  0  0  0  0  0
   -0.4497   -4.5012    0.9032 H   0  0  0  0  0  0  0  0  0  0  0  0
   -1.7438   -6.5019    0.2263 H   0  0  0  0  0  0  0  0  0  0  0  0
   -4.1187   -4.0800   -2.4271 H   0  0  0  0  0  0  0  0  0  0  0  0
   -4.1243   -0.4986   -0.0405 H   0  0  0  0  0  0  0  0  0  0  0  0
   -2.6743   -0.3779    0.9886 H   0  0  0  0  0  0  0  0  0  0  0  0
   -4.3946    0.7778    2.1791 H   0  0  0  0  0  0  0  0  0  0  0  0
   -5.2578    2.3966    3.8128 H   0  0  0  0  0  0  0  0  0  0  0  0
   -5.0587    4.8324    3.3941 H   0  0  0  0  0  0  0  0  0  0  0  0
   -3.9827    5.6509    1.3127 H   0  0  0  0  0  0  0  0  0  0  0  0
   -3.1019    4.0470   -0.3445 H   0  0  0  0  0  0  0  0  0  0  0  0
  1  2  2  0
  2  3  1  0
  3  4  2  0
  4  5  1  0
  5  6  2  0
  6  7  1  0
  7  8  2  0
  7  9  1  0
  9 10  1  0
 10 11  1  0
  2 12  1  0
 12 13  1  0
 13 14  1  0
 14 15  1  0
 15 16  1  0
 16 17  1  0
 15 18  1  0
 18 19  1  0
 19 20  2  0
 20 21  1  0
 21 22  2  0
 22 23  1  0
 22 24  1  0
 24 25  2  0
 25 26  1  0
 26 27  2  0
 26 28  1  0
 28 29  1  0
 29 30  1  0
 30 31  1  0
 31 32  2  0
 32 33  1  0
 33 34  2  0
 34 35  1  0
 35 36  2  0
 30 37  2  0
 37 38  1  0
  8  3  1  0
 17 12  1  0
 25 19  1  0
 38 28  1  0
 11  6  1  0
 28 15  1  0
 36 31  1  0
  4 39  1  0
  5 40  1  0
  8 41  1  0
 10 42  1  0
 10 43  1  0
 13 44  1  0
 13 45  1  0
 14 46  1  0
 14 47  1  0
 16 48  1  0
 16 49  1  0
 17 50  1  0
 17 51  1  0
 20 52  1  0
 21 53  1  0
 24 54  1  0
 29 55  1  0
 29 56  1  0
 32 57  1  0
 33 58  1  0
 34 59  1  0
 35 60  1  0
 36 61  1  0
M  END
$$$$
