
     RDKit          3D

 24 25  0  0  0  0  0  0  0  0999 V2000
    4.4534   -1.3616    0.9454 C   0  0  0  0  0  0  0  0  0  0  0  0
    2.6633   -1.1097    0.9411 S   0  0  0  0  0  0  0  0  0  0  0  0
    2.4706   -0.1109   -0.4622 C   0  0  0  0  0  0  0  0  0  0  0  0
    3.4719    0.2578   -1.2325 N   0  0  0  0  0  0  0  0  0  0  0  0
    2.9227    0.9264   -2.2839 N   0  0  0  0  0  0  0  0  0  0  0  0
    1.6060    0.9737   -2.1805 N   0  0  0  0  0  0  0  0  0  0  0  0
    1.2780    0.3577   -1.0081 N   0  0  0  0  0  0  0  0  0  0  0  0
   -0.0879    0.3175   -0.5971 C   0  0  0  0  0  0  0  0  0  0  0  0
   -0.4921   -0.0922    0.6761 C   0  0  0  0  0  0  0  0  0  0  0  0
   -1.8507   -0.1085    1.0217 C   0  0  0  0  0  0  0  0  0  0  0  0
   -2.8370    0.2884    0.1098 C   0  0  0  0  0  0  0  0  0  0  0  0
   -4.2827    0.2570    0.5184 C   0  0  0  0  0  0  0  0  0  0  0  0
   -2.4327    0.7130   -1.1609 C   0  0  0  0  0  0  0  0  0  0  0  0
   -3.5797    1.2282   -2.3462 Cl  0  0  0  0  0  0  0  0  0  0  0  0
   -1.0770    0.7316   -1.5095 C   0  0  0  0  0  0  0  0  0  0  0  0
    4.7247   -1.9874    1.7999 H   0  0  0  0  0  0  0  0  0  0  0  0
    4.9779   -0.4065    1.0374 H   0  0  0  0  0  0  0  0  0  0  0  0
    4.7746   -1.8687    0.0313 H   0  0  0  0  0  0  0  0  0  0  0  0
    0.2023   -0.3817    1.4550 H   0  0  0  0  0  0  0  0  0  0  0  0
   -2.1312   -0.4315    2.0237 H   0  0  0  0  0  0  0  0  0  0  0  0
   -4.7116    1.2636    0.4822 H   0  0  0  0  0  0  0  0  0  0  0  0
   -4.8513   -0.4090   -0.1385 H   0  0  0  0  0  0  0  0  0  0  0  0
   -4.4020   -0.1140    1.5421 H   0  0  0  0  0  0  0  0  0  0  0  0
   -0.8096    1.0667   -2.5113 H   0  0  0  0  0  0  0  0  0  0  0  0
  1  2  1  0
  2  3  1  0
  3  4  2  0
  4  5  1  0
  5  6  2  0
  6  7  1  0
  7  8  1  0
  8  9  2  0
  9 10  1  0
 10 11  2  0
 11 12  1  0
 11 13  1  0
 13 14  1  0
 13 15  2  0
  7  3  1  0
 15  8  1  0
  1 16  1  0
  1 17  1  0
  1 18  1  0
  9 19  1  0
 10 20  1  0
 12 21  1  0
 12 22  1  0
 12 23  1  0
 15 24  1  0
M  END
$$$$
