
     RDKit          3D

 51 54  0  0  0  0  0  0  0  0999 V2000
    4.1682    0.5841    2.4847 O   0  0  0  0  0  0  0  0  0  0  0  0
    3.1558    0.2268    1.8872 C   0  0  0  0  0  0  0  0  0  0  0  0
    2.1952   -0.7879    2.5312 C   0  0  0  0  0  0  0  0  0  0  0  0
    0.9875   -1.0391    1.7654 N   0  0  0  0  0  0  0  0  0  0  0  0
    0.8816   -2.1004    0.8948 C   0  0  0  0  0  0  0  0  0  0  0  0
    1.7009   -2.9874    0.7393 O   0  0  0  0  0  0  0  0  0  0  0  0
   -0.3764   -2.0271    0.0429 C   0  0  0  0  0  0  0  0  0  0  0  0
   -0.5988   -0.8618   -0.4887 N   0  0  0  0  0  0  0  0  0  0  0  0
   -1.7405   -0.6800   -1.2354 N   0  0  0  0  0  0  0  0  0  0  0  0
   -1.9604    0.6698   -1.7553 C   0  0  0  0  0  0  0  0  0  0  0  0
   -2.3194    1.6421   -0.6539 C   0  0  0  0  0  0  0  0  0  0  0  0
   -3.6131    1.6537   -0.1127 C   0  0  0  0  0  0  0  0  0  0  0  0
   -3.9391    2.5339    0.9199 C   0  0  0  0  0  0  0  0  0  0  0  0
   -2.9762    3.4073    1.4231 C   0  0  0  0  0  0  0  0  0  0  0  0
   -1.6858    3.4015    0.8960 C   0  0  0  0  0  0  0  0  0  0  0  0
   -1.3575    2.5218   -0.1364 C   0  0  0  0  0  0  0  0  0  0  0  0
   -2.7041   -1.6642   -1.4381 C   0  0  0  0  0  0  0  0  0  0  0  0
   -3.7492   -1.4917   -2.0603 O   0  0  0  0  0  0  0  0  0  0  0  0
   -2.4251   -2.9893   -0.8481 C   0  0  0  0  0  0  0  0  0  0  0  0
   -3.3318   -4.0428   -1.0259 C   0  0  0  0  0  0  0  0  0  0  0  0
   -3.0716   -5.2893   -0.4571 C   0  0  0  0  0  0  0  0  0  0  0  0
   -1.9104   -5.4837    0.2895 C   0  0  0  0  0  0  0  0  0  0  0  0
   -1.0057   -4.4340    0.4695 C   0  0  0  0  0  0  0  0  0  0  0  0
   -1.2643   -3.1844   -0.1056 C   0  0  0  0  0  0  0  0  0  0  0  0
    2.7641    0.6618    0.6349 N   0  0  0  0  0  0  0  0  0  0  0  0
    3.4184    1.5832   -0.2101 C   0  0  0  0  0  0  0  0  0  0  0  0
    4.6156    2.2315    0.1085 C   0  0  0  0  0  0  0  0  0  0  0  0
    5.1924    3.1330   -0.7951 C   0  0  0  0  0  0  0  0  0  0  0  0
    4.5722    3.3870   -2.0143 C   0  0  0  0  0  0  0  0  0  0  0  0
    5.1327    4.2538   -2.8681 F   0  0  0  0  0  0  0  0  0  0  0  0
    3.3843    2.7525   -2.3423 C   0  0  0  0  0  0  0  0  0  0  0  0
    2.7850    3.0033   -3.5150 F   0  0  0  0  0  0  0  0  0  0  0  0
    2.8146    1.8576   -1.4460 C   0  0  0  0  0  0  0  0  0  0  0  0
    1.6591    1.2503   -1.7625 F   0  0  0  0  0  0  0  0  0  0  0  0
    2.7403   -1.7246    2.6832 H   0  0  0  0  0  0  0  0  0  0  0  0
    1.8798   -0.3858    3.4987 H   0  0  0  0  0  0  0  0  0  0  0  0
    0.2735   -0.3159    1.7098 H   0  0  0  0  0  0  0  0  0  0  0  0
   -2.7520    0.6699   -2.5134 H   0  0  0  0  0  0  0  0  0  0  0  0
   -1.0424    0.9854   -2.2660 H   0  0  0  0  0  0  0  0  0  0  0  0
   -4.3723    0.9739   -0.4967 H   0  0  0  0  0  0  0  0  0  0  0  0
   -4.9458    2.5388    1.3299 H   0  0  0  0  0  0  0  0  0  0  0  0
   -3.2333    4.0949    2.2246 H   0  0  0  0  0  0  0  0  0  0  0  0
   -0.9368    4.0855    1.2865 H   0  0  0  0  0  0  0  0  0  0  0  0
   -0.3474    2.5255   -0.5393 H   0  0  0  0  0  0  0  0  0  0  0  0
   -4.2407   -3.8942   -1.6064 H   0  0  0  0  0  0  0  0  0  0  0  0
   -3.7741   -6.1080   -0.5970 H   0  0  0  0  0  0  0  0  0  0  0  0
   -1.7066   -6.4573    0.7312 H   0  0  0  0  0  0  0  0  0  0  0  0
   -0.1083   -4.6218    1.0540 H   0  0  0  0  0  0  0  0  0  0  0  0
    1.9148    0.2484    0.2561 H   0  0  0  0  0  0  0  0  0  0  0  0
    5.1294    2.0570    1.0496 H   0  0  0  0  0  0  0  0  0  0  0  0
    6.1237    3.6365   -0.5504 H   0  0  0  0  0  0  0  0  0  0  0  0
  1  2  2  0
  2  3  1  0
  3  4  1  0
  4  5  1  0
  5  6  2  0
  5  7  1  0
  7  8  2  0
  8  9  1  0
  9 10  1  0
 10 11  1  0
 11 12  2  0
 12 13  1  0
 13 14  2  0
 14 15  1  0
 15 16  2  0
  9 17  1  0
 17 18  2  0
 17 19  1  0
 19 20  2  0
 20 21  1  0
 21 22  2  0
 22 23  1  0
 23 24  2  0
  2 25  1  0
 25 26  1  0
 26 27  2  0
 27 28  1  0
 28 29  2  0
 29 30  1  0
 29 31  1  0
 31 32  1  0
 31 33  2  0
 33 34  1  0
 24  7  1  0
 33 26  1  0
 16 11  1  0
 24 19  1  0
  3 35  1  0
  3 36  1  0
  4 37  1  0
 10 38  1  0
 10 39  1  0
 12 40  1  0
 13 41  1  0
 14 42  1  0
 15 43  1  0
 16 44  1  0
 20 45  1  0
 21 46  1  0
 22 47  1  0
 23 48  1  0
 25 49  1  0
 27 50  1  0
 28 51  1  0
M  END
$$$$
