
     RDKit          3D

 53 55  0  0  0  0  0  0  0  0999 V2000
   -5.5549   -2.6647    0.1225 C   0  0  0  0  0  0  0  0  0  0  0  0
   -5.8659   -1.5252   -0.6809 O   0  0  0  0  0  0  0  0  0  0  0  0
   -5.8019   -0.3674    0.0498 C   0  0  0  0  0  0  0  0  0  0  0  0
   -6.7273   -0.1304    1.0704 C   0  0  0  0  0  0  0  0  0  0  0  0
   -6.6883    1.0672    1.7823 C   0  0  0  0  0  0  0  0  0  0  0  0
   -5.7372    2.0336    1.4642 C   0  0  0  0  0  0  0  0  0  0  0  0
   -4.8270    1.8053    0.4305 C   0  0  0  0  0  0  0  0  0  0  0  0
   -4.8478    0.6005   -0.2944 C   0  0  0  0  0  0  0  0  0  0  0  0
   -3.8525    0.3733   -1.4044 C   0  0  0  0  0  0  0  0  0  0  0  0
   -2.4991    0.3484   -0.9021 N   0  0  0  0  0  0  0  0  0  0  0  0
   -1.8767   -0.8141   -0.5152 C   0  0  0  0  0  0  0  0  0  0  0  0
   -2.2843   -1.9556   -0.6743 O   0  0  0  0  0  0  0  0  0  0  0  0
   -0.5250   -0.5705    0.1960 C   0  0  0  0  0  0  0  0  0  0  0  0
   -0.0916    0.5664    0.3313 O   0  0  0  0  0  0  0  0  0  0  0  0
    0.0986   -1.7210    0.6150 N   0  0  0  0  0  0  0  0  0  0  0  0
    1.4026   -1.7058    1.2570 C   0  0  0  0  0  0  0  0  0  0  0  0
    2.5379   -1.2266    0.3323 C   0  0  0  0  0  0  0  0  0  0  0  0
    2.6847   -2.1609   -0.7595 O   0  0  0  0  0  0  0  0  0  0  0  0
    4.0533   -2.0573   -1.1613 C   0  0  0  0  0  0  0  0  0  0  0  0
    4.8053   -1.9054    0.1428 C   0  0  0  0  0  0  0  0  0  0  0  0
    3.8412   -1.2221    1.0126 N   0  0  0  0  0  0  0  0  0  0  0  0
    4.3027    0.1495    1.8587 S   0  0  0  0  0  6  0  0  0  0  0  0
    3.1998    0.5512    2.7033 O   0  0  0  0  0  0  0  0  0  0  0  0
    5.6143   -0.1026    2.4179 O   0  0  0  0  0  0  0  0  0  0  0  0
    4.4956    1.3973    0.5996 C   0  0  0  0  0  0  0  0  0  0  0  0
    3.4147    2.2253    0.2742 C   0  0  0  0  0  0  0  0  0  0  0  0
    3.5728    3.2186   -0.6937 C   0  0  0  0  0  0  0  0  0  0  0  0
    4.8116    3.3919   -1.3117 C   0  0  0  0  0  0  0  0  0  0  0  0
    5.0238    4.7382   -2.6217 Br  0  0  0  0  0  0  0  0  0  0  0  0
    5.8987    2.5875   -0.9656 C   0  0  0  0  0  0  0  0  0  0  0  0
    5.7448    1.5907   -0.0001 C   0  0  0  0  0  0  0  0  0  0  0  0
   -6.4325   -2.9757    0.6989 H   0  0  0  0  0  0  0  0  0  0  0  0
   -4.7048   -2.4798    0.7897 H   0  0  0  0  0  0  0  0  0  0  0  0
   -5.2864   -3.4851   -0.5498 H   0  0  0  0  0  0  0  0  0  0  0  0
   -7.4893   -0.8683    1.3032 H   0  0  0  0  0  0  0  0  0  0  0  0
   -7.4061    1.2502    2.5775 H   0  0  0  0  0  0  0  0  0  0  0  0
   -5.7081    2.9697    2.0166 H   0  0  0  0  0  0  0  0  0  0  0  0
   -4.0992    2.5775    0.1908 H   0  0  0  0  0  0  0  0  0  0  0  0
   -3.9213    1.1972   -2.1232 H   0  0  0  0  0  0  0  0  0  0  0  0
   -4.0478   -0.5524   -1.9537 H   0  0  0  0  0  0  0  0  0  0  0  0
   -2.0629    1.2123   -0.5963 H   0  0  0  0  0  0  0  0  0  0  0  0
   -0.3222   -2.6023    0.3308 H   0  0  0  0  0  0  0  0  0  0  0  0
    1.5926   -2.7311    1.5944 H   0  0  0  0  0  0  0  0  0  0  0  0
    1.3215   -1.0654    2.1404 H   0  0  0  0  0  0  0  0  0  0  0  0
    2.3099   -0.2587   -0.1184 H   0  0  0  0  0  0  0  0  0  0  0  0
    4.3516   -2.9453   -1.7248 H   0  0  0  0  0  0  0  0  0  0  0  0
    4.1642   -1.1727   -1.7985 H   0  0  0  0  0  0  0  0  0  0  0  0
    5.0172   -2.8861    0.5828 H   0  0  0  0  0  0  0  0  0  0  0  0
    5.7523   -1.3806    0.0045 H   0  0  0  0  0  0  0  0  0  0  0  0
    2.4495    2.1053    0.7652 H   0  0  0  0  0  0  0  0  0  0  0  0
    2.7290    3.8545   -0.9513 H   0  0  0  0  0  0  0  0  0  0  0  0
    6.8688    2.7381   -1.4327 H   0  0  0  0  0  0  0  0  0  0  0  0
    6.6011    0.9833    0.2855 H   0  0  0  0  0  0  0  0  0  0  0  0
  1  2  1  0
  2  3  1  0
  3  4  2  0
  4  5  1  0
  5  6  2  0
  6  7  1  0
  7  8  2  0
  8  9  1  0
  9 10  1  0
 10 11  1  0
 11 12  2  0
 11 13  1  0
 13 14  2  0
 13 15  1  0
 15 16  1  0
 16 17  1  0
 17 18  1  0
 18 19  1  0
 19 20  1  0
 20 21  1  0
 21 22  1  0
 22 23  2  0
 22 24  2  0
 22 25  1  0
 25 26  2  0
 26 27  1  0
 27 28  2  0
 28 29  1  0
 28 30  1  0
 30 31  2  0
  8  3  1  0
 21 17  1  0
 31 25  1  0
  1 32  1  0
  1 33  1  0
  1 34  1  0
  4 35  1  0
  5 36  1  0
  6 37  1  0
  7 38  1  0
  9 39  1  0
  9 40  1  0
 10 41  1  0
 15 42  1  0
 16 43  1  0
 16 44  1  0
 17 45  1  0
 19 46  1  0
 19 47  1  0
 20 48  1  0
 20 49  1  0
 26 50  1  0
 27 51  1  0
 30 52  1  0
 31 53  1  0
M  END
$$$$
