
     RDKit          3D

 40 42  0  0  0  0  0  0  0  0999 V2000
    5.3727   -0.9113    0.2386 N   0  0  0  0  0  0  0  0  0  0  0  0
    4.1118   -0.6337   -0.4371 C   0  0  0  0  0  0  0  0  0  0  0  0
    3.0314   -0.2991    0.5890 C   0  0  0  0  0  0  0  0  0  0  0  0
    1.6983    0.0130   -0.0932 C   0  0  0  0  0  0  0  0  0  0  0  0
    0.6187    0.3638    0.9416 C   0  0  0  0  0  0  0  0  0  0  0  0
   -0.6832    0.6480    0.2951 N   0  0  0  0  0  0  0  0  0  0  0  0
   -0.9642    2.0097   -0.0254 C   0  0  0  0  0  0  0  0  0  0  0  0
    0.0450    2.9998   -0.0662 C   0  0  0  0  0  0  0  0  0  0  0  0
   -0.2189    4.3363   -0.3917 C   0  0  0  0  0  0  0  0  0  0  0  0
   -1.5098    4.7329   -0.6937 C   0  0  0  0  0  0  0  0  0  0  0  0
   -2.5287    3.7886   -0.6709 C   0  0  0  0  0  0  0  0  0  0  0  0
   -2.2673    2.4419   -0.3461 C   0  0  0  0  0  0  0  0  0  0  0  0
   -3.6871    1.3743   -0.3376 S   0  0  0  0  0  0  0  0  0  0  0  0
   -2.9516   -0.2324   -0.1619 C   0  0  0  0  0  0  0  0  0  0  0  0
   -3.8356   -1.3181   -0.3174 C   0  0  0  0  0  0  0  0  0  0  0  0
   -3.3953   -2.6308   -0.1860 C   0  0  0  0  0  0  0  0  0  0  0  0
   -2.0556   -2.8807    0.0976 C   0  0  0  0  0  0  0  0  0  0  0  0
   -1.5475   -4.2918    0.2592 C   0  0  0  0  0  0  0  0  0  0  0  0
   -0.2767   -4.4536   -0.2060 F   0  0  0  0  0  0  0  0  0  0  0  0
   -1.5192   -4.6845    1.5623 F   0  0  0  0  0  0  0  0  0  0  0  0
   -2.3027   -5.2167   -0.3958 F   0  0  0  0  0  0  0  0  0  0  0  0
   -1.1803   -1.7879    0.2641 C   0  0  0  0  0  0  0  0  0  0  0  0
   -1.5920   -0.4396    0.1435 C   0  0  0  0  0  0  0  0  0  0  0  0
    6.0814   -1.1516   -0.4542 H   0  0  0  0  0  0  0  0  0  0  0  0
    5.2724   -1.7323    0.8348 H   0  0  0  0  0  0  0  0  0  0  0  0
    4.2525    0.2079   -1.1238 H   0  0  0  0  0  0  0  0  0  0  0  0
    3.8167   -1.5050   -1.0320 H   0  0  0  0  0  0  0  0  0  0  0  0
    2.8992   -1.1419    1.2792 H   0  0  0  0  0  0  0  0  0  0  0  0
    3.3449    0.5646    1.1891 H   0  0  0  0  0  0  0  0  0  0  0  0
    1.3887   -0.8475   -0.6968 H   0  0  0  0  0  0  0  0  0  0  0  0
    1.8351    0.8391   -0.7999 H   0  0  0  0  0  0  0  0  0  0  0  0
    0.5234   -0.4416    1.6814 H   0  0  0  0  0  0  0  0  0  0  0  0
    0.9457    1.2075    1.5631 H   0  0  0  0  0  0  0  0  0  0  0  0
    1.0839    2.7638    0.1393 H   0  0  0  0  0  0  0  0  0  0  0  0
    0.5925    5.0596   -0.4108 H   0  0  0  0  0  0  0  0  0  0  0  0
   -1.7253    5.7670   -0.9471 H   0  0  0  0  0  0  0  0  0  0  0  0
   -3.5416    4.1083   -0.9086 H   0  0  0  0  0  0  0  0  0  0  0  0
   -4.8862   -1.1400   -0.5424 H   0  0  0  0  0  0  0  0  0  0  0  0
   -4.1016   -3.4498   -0.3100 H   0  0  0  0  0  0  0  0  0  0  0  0
   -0.1439   -2.0365    0.4766 H   0  0  0  0  0  0  0  0  0  0  0  0
  1  2  1  0
  2  3  1  0
  3  4  1  0
  4  5  1  0
  5  6  1  0
  6  7  1  0
  7  8  2  0
  8  9  1  0
  9 10  2  0
 10 11  1  0
 11 12  2  0
 12 13  1  0
 13 14  1  0
 14 15  2  0
 15 16  1  0
 16 17  2  0
 17 18  1  0
 18 19  1  0
 18 20  1  0
 18 21  1  0
 17 22  1  0
 22 23  2  0
 23  6  1  0
 12  7  1  0
 23 14  1  0
  1 24  1  0
  1 25  1  0
  2 26  1  0
  2 27  1  0
  3 28  1  0
  3 29  1  0
  4 30  1  0
  4 31  1  0
  5 32  1  0
  5 33  1  0
  8 34  1  0
  9 35  1  0
 10 36  1  0
 11 37  1  0
 15 38  1  0
 16 39  1  0
 22 40  1  0
M  END
$$$$
