
     RDKit          3D

 50 53  0  0  0  0  0  0  0  0999 V2000
   -0.5286    1.7879    4.2743 C   0  0  0  0  0  0  0  0  0  0  0  0
   -0.5163    0.7500    3.1634 C   0  0  0  0  0  0  0  0  0  0  0  0
   -1.0678    1.2987    1.8542 C   0  0  0  0  0  0  0  0  0  0  0  0
   -1.5332    2.4387    1.7933 O   0  0  0  0  0  0  0  0  0  0  0  0
   -1.0089    0.4656    0.7415 N   0  0  0  0  0  0  0  0  0  0  0  0
   -1.5368    0.9647   -0.5328 C   0  0  0  0  0  0  0  0  0  0  0  0
   -2.9369    0.4735   -0.8137 C   0  0  0  0  0  0  0  0  0  0  0  0
   -3.1608   -0.5927   -1.6953 C   0  0  0  0  0  0  0  0  0  0  0  0
   -4.4567   -1.0367   -1.9533 C   0  0  0  0  0  0  0  0  0  0  0  0
   -5.5541   -0.4232   -1.3389 C   0  0  0  0  0  0  0  0  0  0  0  0
   -6.9433   -0.9027   -1.6384 C   0  0  0  0  0  0  0  0  0  0  0  0
   -5.3344    0.6359   -0.4550 C   0  0  0  0  0  0  0  0  0  0  0  0
   -4.0375    1.0772   -0.1910 C   0  0  0  0  0  0  0  0  0  0  0  0
   -0.4600   -0.8969    0.7510 C   0  0  0  0  0  0  0  0  0  0  0  0
    0.9735   -0.9435    0.2843 C   0  0  0  0  0  0  0  0  0  0  0  0
    1.7921    0.1058    0.0791 C   0  0  0  0  0  0  0  0  0  0  0  0
    3.1586   -0.0778   -0.4110 C   0  0  0  0  0  0  0  0  0  0  0  0
    4.0135    1.0153   -0.6005 C   0  0  0  0  0  0  0  0  0  0  0  0
    5.2777    0.7593   -1.0892 C   0  0  0  0  0  0  0  0  0  0  0  0
    5.6995   -0.5166   -1.3875 C   0  0  0  0  0  0  0  0  0  0  0  0
    4.8878   -1.6148   -1.2048 C   0  0  0  0  0  0  0  0  0  0  0  0
    3.6045   -1.3820   -0.7079 C   0  0  0  0  0  0  0  0  0  0  0  0
    2.7407   -2.4562   -0.4828 N   0  0  0  0  0  0  0  0  0  0  0  0
    1.4809   -2.3271    0.0351 C   0  0  0  0  0  0  0  0  0  0  0  0
    0.7978   -3.3135    0.2912 O   0  0  0  0  0  0  0  0  0  0  0  0
    6.9726   -0.5404   -1.8646 O   0  0  0  0  0  0  0  0  0  0  0  0
    7.3137    0.8625   -1.8112 C   0  0  0  0  0  0  0  0  0  0  0  0
    6.2350    1.6925   -1.3381 O   0  0  0  0  0  0  0  0  0  0  0  0
    0.0484    2.6747    3.9916 H   0  0  0  0  0  0  0  0  0  0  0  0
   -0.0920    1.3772    5.1885 H   0  0  0  0  0  0  0  0  0  0  0  0
   -1.5515    2.1085    4.4970 H   0  0  0  0  0  0  0  0  0  0  0  0
   -1.1294   -0.1025    3.4740 H   0  0  0  0  0  0  0  0  0  0  0  0
    0.5153    0.4156    3.0091 H   0  0  0  0  0  0  0  0  0  0  0  0
   -1.5363    2.0624   -0.5441 H   0  0  0  0  0  0  0  0  0  0  0  0
   -0.8572    0.6625   -1.3411 H   0  0  0  0  0  0  0  0  0  0  0  0
   -2.3271   -1.0858   -2.1906 H   0  0  0  0  0  0  0  0  0  0  0  0
   -4.6069   -1.8655   -2.6409 H   0  0  0  0  0  0  0  0  0  0  0  0
   -7.0567   -1.9479   -1.3352 H   0  0  0  0  0  0  0  0  0  0  0  0
   -7.6933   -0.3138   -1.1030 H   0  0  0  0  0  0  0  0  0  0  0  0
   -7.1493   -0.8158   -2.7105 H   0  0  0  0  0  0  0  0  0  0  0  0
   -6.1705    1.1289    0.0358 H   0  0  0  0  0  0  0  0  0  0  0  0
   -3.8880    1.9053    0.4999 H   0  0  0  0  0  0  0  0  0  0  0  0
   -0.5200   -1.3209    1.7554 H   0  0  0  0  0  0  0  0  0  0  0  0
   -1.0944   -1.5194    0.1092 H   0  0  0  0  0  0  0  0  0  0  0  0
    1.4637    1.1257    0.2557 H   0  0  0  0  0  0  0  0  0  0  0  0
    3.7080    2.0343   -0.3733 H   0  0  0  0  0  0  0  0  0  0  0  0
    5.2445   -2.6079   -1.4410 H   0  0  0  0  0  0  0  0  0  0  0  0
    3.0507   -3.4013   -0.6523 H   0  0  0  0  0  0  0  0  0  0  0  0
    7.5967    1.1933   -2.8164 H   0  0  0  0  0  0  0  0  0  0  0  0
    8.1732    0.9890   -1.1438 H   0  0  0  0  0  0  0  0  0  0  0  0
  1  2  1  0
  2  3  1  0
  3  4  2  0
  3  5  1  0
  5  6  1  0
  6  7  1  0
  7  8  2  0
  8  9  1  0
  9 10  2  0
 10 11  1  0
 10 12  1  0
 12 13  2  0
  5 14  1  0
 14 15  1  0
 15 16  2  0
 16 17  1  0
 17 18  2  0
 18 19  1  0
 19 20  2  0
 20 21  1  0
 21 22  2  0
 22 23  1  0
 23 24  1  0
 24 25  2  0
 20 26  1  0
 26 27  1  0
 27 28  1  0
 13  7  1  0
 24 15  1  0
 22 17  1  0
 28 19  1  0
  1 29  1  0
  1 30  1  0
  1 31  1  0
  2 32  1  0
  2 33  1  0
  6 34  1  0
  6 35  1  0
  8 36  1  0
  9 37  1  0
 11 38  1  0
 11 39  1  0
 11 40  1  0
 12 41  1  0
 13 42  1  0
 14 43  1  0
 14 44  1  0
 16 45  1  0
 18 46  1  0
 21 47  1  0
 23 48  1  0
 27 49  1  0
 27 50  1  0
M  END
$$$$
