
     RDKit          3D

 29 30  0  0  0  0  0  0  0  0999 V2000
    2.3987    2.1144   -0.2678 C   0  0  0  0  0  0  0  0  0  0  0  0
    1.4436    2.9712    0.1219 C   0  0  0  0  0  0  0  0  0  0  0  0
   -0.0304    2.7145    0.3164 C   0  0  0  0  0  0  0  0  0  0  0  0
   -0.3869    1.3063    0.1483 N   0  0  0  0  0  0  0  0  0  0  0  0
   -0.2836    0.3607    1.1557 C   0  0  0  0  0  0  0  0  0  0  0  0
    0.2898    0.8647    2.7372 S   0  0  0  0  0  0  0  0  0  0  0  0
    1.2404   -0.6158    3.1996 C   0  0  0  0  0  0  0  0  0  0  0  0
    2.3682   -0.8918    2.2986 C   0  0  0  0  0  0  0  0  0  0  0  0
    3.2643   -1.1092    1.5923 N   0  0  0  0  0  0  0  0  0  0  0  0
   -0.5959   -0.8868    1.0250 N   0  0  0  0  0  0  0  0  0  0  0  0
   -1.0513   -1.3336   -0.2181 C   0  0  0  0  0  0  0  0  0  0  0  0
   -1.3674   -2.6853   -0.3758 C   0  0  0  0  0  0  0  0  0  0  0  0
   -1.8251   -3.1707   -1.6039 C   0  0  0  0  0  0  0  0  0  0  0  0
   -1.9709   -2.3046   -2.6867 C   0  0  0  0  0  0  0  0  0  0  0  0
   -1.6586   -0.9538   -2.5402 C   0  0  0  0  0  0  0  0  0  0  0  0
   -1.2001   -0.4791   -1.3052 C   0  0  0  0  0  0  0  0  0  0  0  0
   -0.8608    0.9406   -1.1115 C   0  0  0  0  0  0  0  0  0  0  0  0
   -1.0187    1.7193   -2.0493 O   0  0  0  0  0  0  0  0  0  0  0  0
    3.4292    2.4445   -0.3673 H   0  0  0  0  0  0  0  0  0  0  0  0
    2.2014    1.0743   -0.5065 H   0  0  0  0  0  0  0  0  0  0  0  0
    1.7459    3.9979    0.3248 H   0  0  0  0  0  0  0  0  0  0  0  0
   -0.5840    3.3356   -0.3971 H   0  0  0  0  0  0  0  0  0  0  0  0
   -0.3308    3.0607    1.3101 H   0  0  0  0  0  0  0  0  0  0  0  0
    0.5737   -1.4816    3.2651 H   0  0  0  0  0  0  0  0  0  0  0  0
    1.6250   -0.4453    4.2108 H   0  0  0  0  0  0  0  0  0  0  0  0
   -1.2543   -3.3654    0.4646 H   0  0  0  0  0  0  0  0  0  0  0  0
   -2.0659   -4.2255   -1.7141 H   0  0  0  0  0  0  0  0  0  0  0  0
   -2.3257   -2.6808   -3.6433 H   0  0  0  0  0  0  0  0  0  0  0  0
   -1.7698   -0.2756   -3.3834 H   0  0  0  0  0  0  0  0  0  0  0  0
  1  2  2  0
  2  3  1  0
  3  4  1  0
  4  5  1  0
  5  6  1  0
  6  7  1  0
  7  8  1  0
  8  9  3  0
  5 10  2  0
 10 11  1  0
 11 12  2  0
 12 13  1  0
 13 14  2  0
 14 15  1  0
 15 16  2  0
 16 17  1  0
 17 18  2  0
 17  4  1  0
 16 11  1  0
  1 19  1  0
  1 20  1  0
  2 21  1  0
  3 22  1  0
  3 23  1  0
  7 24  1  0
  7 25  1  0
 12 26  1  0
 13 27  1  0
 14 28  1  0
 15 29  1  0
M  END
$$$$
