
     RDKit          3D

 47 50  0  0  0  0  0  0  0  0999 V2000
   -6.3119    1.6101   -0.0475 C   0  0  0  0  0  0  0  0  0  0  0  0
   -6.0461    1.0408   -1.4337 C   0  0  0  0  0  0  0  0  0  0  0  0
   -4.5601    0.7973   -1.6906 C   0  0  0  0  0  0  0  0  0  0  0  0
   -4.0901   -0.1951   -0.7806 O   0  0  0  0  0  0  0  0  0  0  0  0
   -2.7881   -0.6011   -0.8979 C   0  0  0  0  0  0  0  0  0  0  0  0
   -1.8639   -0.0707   -1.8016 C   0  0  0  0  0  0  0  0  0  0  0  0
   -0.5612   -0.5827   -1.8730 C   0  0  0  0  0  0  0  0  0  0  0  0
   -0.1593   -1.6285   -1.0369 C   0  0  0  0  0  0  0  0  0  0  0  0
    1.1802   -2.2167   -1.1251 C   0  0  0  0  0  0  0  0  0  0  0  0
    2.3468   -1.5961   -0.8925 C   0  0  0  0  0  0  0  0  0  0  0  0
    3.8822   -2.4591   -1.0303 S   0  0  0  0  0  0  0  0  0  0  0  0
    4.7193   -1.0348   -0.5801 C   0  0  0  0  0  0  0  0  0  0  0  0
    5.9673   -0.7086   -0.4142 N   0  0  0  0  0  0  0  0  0  0  0  0
    5.8591    0.6260   -0.0535 C   0  0  0  0  0  0  0  0  0  0  0  0
    7.1120    1.5060    0.2662 C   0  0  0  0  0  0  0  0  0  0  0  0
    7.0927    2.8389    0.6314 C   0  0  0  0  0  0  0  0  0  0  0  0
    8.4403    3.2292    0.8227 C   0  0  0  0  0  0  0  0  0  0  0  0
    9.1995    2.1134    0.5634 C   0  0  0  0  0  0  0  0  0  0  0  0
    8.4061    1.0653    0.2257 O   0  0  0  0  0  0  0  0  0  0  0  0
    4.5984    1.1067   -0.0004 N   0  0  0  0  0  0  0  0  0  0  0  0
    3.9018    0.0081   -0.3429 N   0  0  0  0  0  0  0  0  0  0  0  0
    2.5403   -0.1653   -0.4799 C   0  0  0  0  0  0  0  0  0  0  0  0
    1.7336    0.7244   -0.2890 O   0  0  0  0  0  0  0  0  0  0  0  0
   -1.0802   -2.1669   -0.1360 C   0  0  0  0  0  0  0  0  0  0  0  0
   -2.3721   -1.6390   -0.0505 C   0  0  0  0  0  0  0  0  0  0  0  0
   -3.2159   -2.2450    0.8482 O   0  0  0  0  0  0  0  0  0  0  0  0
   -3.4869   -1.3841    1.9607 C   0  0  0  0  0  0  0  0  0  0  0  0
   -4.0591   -2.2362    3.0794 C   0  0  0  0  0  0  0  0  0  0  0  0
   -5.9978    0.9143    0.7363 H   0  0  0  0  0  0  0  0  0  0  0  0
   -7.3818    1.8005    0.0826 H   0  0  0  0  0  0  0  0  0  0  0  0
   -5.7789    2.5551    0.0970 H   0  0  0  0  0  0  0  0  0  0  0  0
   -6.4351    1.7338   -2.1878 H   0  0  0  0  0  0  0  0  0  0  0  0
   -6.5945    0.0968   -1.5327 H   0  0  0  0  0  0  0  0  0  0  0  0
   -4.4404    0.4454   -2.7227 H   0  0  0  0  0  0  0  0  0  0  0  0
   -4.0064    1.7334   -1.5512 H   0  0  0  0  0  0  0  0  0  0  0  0
   -2.1215    0.7417   -2.4730 H   0  0  0  0  0  0  0  0  0  0  0  0
    0.1302   -0.1502   -2.5926 H   0  0  0  0  0  0  0  0  0  0  0  0
    1.1734   -3.2740   -1.3894 H   0  0  0  0  0  0  0  0  0  0  0  0
    6.2061    3.4481    0.7428 H   0  0  0  0  0  0  0  0  0  0  0  0
    8.8117    4.2017    1.1131 H   0  0  0  0  0  0  0  0  0  0  0  0
   10.2614    1.9096    0.5733 H   0  0  0  0  0  0  0  0  0  0  0  0
   -0.8072   -2.9948    0.5138 H   0  0  0  0  0  0  0  0  0  0  0  0
   -4.2215   -0.6222    1.6826 H   0  0  0  0  0  0  0  0  0  0  0  0
   -2.5709   -0.8930    2.3130 H   0  0  0  0  0  0  0  0  0  0  0  0
   -3.3443   -3.0094    3.3793 H   0  0  0  0  0  0  0  0  0  0  0  0
   -4.3011   -1.6219    3.9513 H   0  0  0  0  0  0  0  0  0  0  0  0
   -4.9662   -2.7511    2.7470 H   0  0  0  0  0  0  0  0  0  0  0  0
  1  2  1  0
  2  3  1  0
  3  4  1  0
  4  5  1  0
  5  6  2  0
  6  7  1  0
  7  8  2  0
  8  9  1  0
  9 10  2  3
 10 11  1  0
 11 12  1  0
 12 13  2  0
 13 14  1  0
 14 15  1  0
 15 16  2  0
 16 17  1  0
 17 18  2  0
 18 19  1  0
 14 20  2  0
 20 21  1  0
 21 22  1  0
 22 23  2  0
  8 24  1  0
 24 25  2  0
 25 26  1  0
 26 27  1  0
 27 28  1  0
 25  5  1  0
 22 10  1  0
 21 12  1  0
 19 15  1  0
  1 29  1  0
  1 30  1  0
  1 31  1  0
  2 32  1  0
  2 33  1  0
  3 34  1  0
  3 35  1  0
  6 36  1  0
  7 37  1  0
  9 38  1  0
 16 39  1  0
 17 40  1  0
 18 41  1  0
 24 42  1  0
 27 43  1  0
 27 44  1  0
 28 45  1  0
 28 46  1  0
 28 47  1  0
M  END
$$$$
