
     RDKit          3D

 61 67  0  0  0  0  0  0  0  0999 V2000
    4.1526   -2.4719   -0.1223 O   0  0  0  0  0  0  0  0  0  0  0  0
    3.5175   -1.4575    0.1533 C   0  0  0  0  0  0  0  0  0  0  0  0
    4.2771   -0.2229    0.4498 C   0  0  0  0  0  0  0  0  0  0  0  0
    4.1172    0.4257    1.6940 C   0  0  0  0  0  0  0  0  0  0  0  0
    4.8432    1.5851    1.9795 C   0  0  0  0  0  0  0  0  0  0  0  0
    5.7097    2.0508    1.0120 C   0  0  0  0  0  0  0  0  0  0  0  0
    5.8739    1.4051   -0.1941 C   0  0  0  0  0  0  0  0  0  0  0  0
    5.1801    0.2561   -0.5059 C   0  0  0  0  0  0  0  0  0  0  0  0
    6.7726    2.0326   -0.9981 O   0  0  0  0  0  0  0  0  0  0  0  0
    7.1688    3.1368   -0.1568 C   0  0  0  0  0  0  0  0  0  0  0  0
    6.4894    3.1596    1.1164 O   0  0  0  0  0  0  0  0  0  0  0  0
    2.1256   -1.4142    0.2094 N   0  0  0  0  0  0  0  0  0  0  0  0
    1.3357   -0.1816    0.1889 C   0  0  0  0  0  0  0  0  0  0  0  0
    0.0842   -0.3621   -0.6630 C   0  0  0  0  0  0  0  0  0  0  0  0
   -0.8628   -1.4770   -0.1265 C   0  0  0  0  0  0  0  0  0  0  0  0
   -0.0126   -2.5588    0.6152 C   0  0  0  0  0  0  0  0  0  0  0  0
    1.3978   -2.6669    0.0475 C   0  0  0  0  0  0  0  0  0  0  0  0
   -1.4432   -2.0622   -1.3252 O   0  0  0  0  0  0  0  0  0  0  0  0
   -2.4882   -2.9235   -1.1316 C   0  0  0  0  0  0  0  0  0  0  0  0
   -2.8055   -3.7571   -2.2044 C   0  0  0  0  0  0  0  0  0  0  0  0
   -3.8405   -4.6856   -2.0807 C   0  0  0  0  0  0  0  0  0  0  0  0
   -4.5527   -4.7702   -0.8874 C   0  0  0  0  0  0  0  0  0  0  0  0
   -5.5430   -5.6639   -0.7745 F   0  0  0  0  0  0  0  0  0  0  0  0
   -4.2578   -3.9378    0.1843 C   0  0  0  0  0  0  0  0  0  0  0  0
   -3.2268   -3.0049    0.0508 C   0  0  0  0  0  0  0  0  0  0  0  0
   -2.9150   -2.0711    1.1490 C   0  0  0  0  0  0  0  0  0  0  0  0
   -3.4272   -2.2332    2.2498 O   0  0  0  0  0  0  0  0  0  0  0  0
   -1.9980   -0.9113    0.7779 C   0  0  0  0  0  0  0  0  0  0  0  0
   -2.8737    0.1742    0.1555 C   0  0  0  0  0  0  0  0  0  0  0  0
   -2.3594    1.3596    0.8964 C   0  0  0  0  0  0  0  0  0  0  0  0
   -2.7310    2.7465    0.5241 C   0  0  0  0  0  0  0  0  0  0  0  0
   -3.5395    3.0169   -0.5874 C   0  0  0  0  0  0  0  0  0  0  0  0
   -3.8420    4.3391   -0.9274 C   0  0  0  0  0  0  0  0  0  0  0  0
   -3.3472    5.3884   -0.1530 C   0  0  0  0  0  0  0  0  0  0  0  0
   -3.7135    7.0114   -0.5801 Cl  0  0  0  0  0  0  0  0  0  0  0  0
   -2.5543    5.1279    0.9626 C   0  0  0  0  0  0  0  0  0  0  0  0
   -2.2447    3.8085    1.3000 C   0  0  0  0  0  0  0  0  0  0  0  0
   -1.5604    1.0833    1.8759 N   0  0  0  0  0  0  0  0  0  0  0  0
   -1.4516   -0.3230    1.9616 O   0  0  0  0  0  0  0  0  0  0  0  0
    3.4373    0.0167    2.4385 H   0  0  0  0  0  0  0  0  0  0  0  0
    4.7367    2.0987    2.9290 H   0  0  0  0  0  0  0  0  0  0  0  0
    5.3250   -0.2537   -1.4520 H   0  0  0  0  0  0  0  0  0  0  0  0
    6.9537    4.0735   -0.6836 H   0  0  0  0  0  0  0  0  0  0  0  0
    8.2490    3.0730    0.0225 H   0  0  0  0  0  0  0  0  0  0  0  0
    1.9303    0.6408   -0.2201 H   0  0  0  0  0  0  0  0  0  0  0  0
    1.0821    0.0673    1.2241 H   0  0  0  0  0  0  0  0  0  0  0  0
   -0.4276    0.5982   -0.7662 H   0  0  0  0  0  0  0  0  0  0  0  0
    0.3990   -0.6163   -1.6858 H   0  0  0  0  0  0  0  0  0  0  0  0
    0.0710   -2.3131    1.6810 H   0  0  0  0  0  0  0  0  0  0  0  0
   -0.4771   -3.5482    0.5528 H   0  0  0  0  0  0  0  0  0  0  0  0
    1.3754   -2.9085   -1.0223 H   0  0  0  0  0  0  0  0  0  0  0  0
    1.9452   -3.4711    0.5539 H   0  0  0  0  0  0  0  0  0  0  0  0
   -2.2388   -3.6967   -3.1302 H   0  0  0  0  0  0  0  0  0  0  0  0
   -4.0936   -5.3471   -2.9040 H   0  0  0  0  0  0  0  0  0  0  0  0
   -4.8337   -4.0166    1.1027 H   0  0  0  0  0  0  0  0  0  0  0  0
   -2.7468    0.2665   -0.9255 H   0  0  0  0  0  0  0  0  0  0  0  0
   -3.9407    0.0579    0.3854 H   0  0  0  0  0  0  0  0  0  0  0  0
   -3.9417    2.2222   -1.2097 H   0  0  0  0  0  0  0  0  0  0  0  0
   -4.4622    4.5452   -1.7974 H   0  0  0  0  0  0  0  0  0  0  0  0
   -2.1732    5.9439    1.5729 H   0  0  0  0  0  0  0  0  0  0  0  0
   -1.6240    3.6169    2.1742 H   0  0  0  0  0  0  0  0  0  0  0  0
  1  2  2  0
  2  3  1  0
  3  4  2  0
  4  5  1  0
  5  6  2  0
  6  7  1  0
  7  8  2  0
  7  9  1  0
  9 10  1  0
 10 11  1  0
  2 12  1  0
 12 13  1  0
 13 14  1  0
 14 15  1  0
 15 16  1  0
 16 17  1  0
 15 18  1  0
 18 19  1  0
 19 20  2  0
 20 21  1  0
 21 22  2  0
 22 23  1  0
 22 24  1  0
 24 25  2  0
 25 26  1  0
 26 27  2  0
 26 28  1  0
 28 29  1  0
 29 30  1  0
 30 31  1  0
 31 32  2  0
 32 33  1  0
 33 34  2  0
 34 35  1  0
 34 36  1  0
 36 37  2  0
 30 38  2  0
 38 39  1  0
  8  3  1  0
 17 12  1  0
 25 19  1  0
 39 28  1  0
 11  6  1  0
 28 15  1  0
 37 31  1  0
  4 40  1  0
  5 41  1  0
  8 42  1  0
 10 43  1  0
 10 44  1  0
 13 45  1  0
 13 46  1  0
 14 47  1  0
 14 48  1  0
 16 49  1  0
 16 50  1  0
 17 51  1  0
 17 52  1  0
 20 53  1  0
 21 54  1  0
 24 55  1  0
 29 56  1  0
 29 57  1  0
 32 58  1  0
 33 59  1  0
 36 60  1  0
 37 61  1  0
M  END
$$$$
