
     RDKit          3D

 38 38  0  0  0  0  0  0  0  0999 V2000
    4.1348    2.3861   -0.7807 C   0  0  0  0  0  0  0  0  0  0  0  0
    4.5840    1.1684   -1.5696 C   0  0  0  0  0  0  0  0  0  0  0  0
    3.5008    0.6663   -2.3680 O   0  0  0  0  0  0  0  0  0  0  0  0
    2.6334   -0.1731   -1.7311 C   0  0  0  0  0  0  0  0  0  0  0  0
    2.7111   -0.5053   -0.5575 O   0  0  0  0  0  0  0  0  0  0  0  0
    1.5635   -0.6042   -2.6896 C   0  0  0  0  0  0  0  0  0  0  0  0
    0.5063   -1.4846   -2.0751 C   0  0  0  0  0  0  0  0  0  0  0  0
    0.3271   -2.6325   -2.4835 O   0  0  0  0  0  0  0  0  0  0  0  0
   -0.3703   -0.9585   -0.9843 C   0  0  0  0  0  0  0  0  0  0  0  0
   -0.4786    0.4069   -0.7090 C   0  0  0  0  0  0  0  0  0  0  0  0
   -1.3059    0.8359    0.3281 C   0  0  0  0  0  0  0  0  0  0  0  0
   -1.3934    2.1891    0.5389 O   0  0  0  0  0  0  0  0  0  0  0  0
   -0.6902    2.5560    1.7255 C   0  0  0  0  0  0  0  0  0  0  0  0
   -2.0737   -0.0837    1.0538 C   0  0  0  0  0  0  0  0  0  0  0  0
   -2.8971    0.3747    2.0542 O   0  0  0  0  0  0  0  0  0  0  0  0
   -4.2343    0.4923    1.5703 C   0  0  0  0  0  0  0  0  0  0  0  0
   -1.9606   -1.4588    0.7981 C   0  0  0  0  0  0  0  0  0  0  0  0
   -2.7141   -2.2890    1.5875 O   0  0  0  0  0  0  0  0  0  0  0  0
   -2.5260   -3.6900    1.4294 C   0  0  0  0  0  0  0  0  0  0  0  0
   -1.1129   -1.8851   -0.2300 C   0  0  0  0  0  0  0  0  0  0  0  0
    3.3489    2.1199   -0.0665 H   0  0  0  0  0  0  0  0  0  0  0  0
    4.9729    2.8226   -0.2296 H   0  0  0  0  0  0  0  0  0  0  0  0
    3.7150    3.1462   -1.4483 H   0  0  0  0  0  0  0  0  0  0  0  0
    4.9861    0.3868   -0.9119 H   0  0  0  0  0  0  0  0  0  0  0  0
    5.3843    1.4531   -2.2605 H   0  0  0  0  0  0  0  0  0  0  0  0
    2.0478   -1.1762   -3.4900 H   0  0  0  0  0  0  0  0  0  0  0  0
    1.0836    0.2681   -3.1432 H   0  0  0  0  0  0  0  0  0  0  0  0
    0.0624    1.1575   -1.2758 H   0  0  0  0  0  0  0  0  0  0  0  0
   -1.1353    2.1131    2.6236 H   0  0  0  0  0  0  0  0  0  0  0  0
    0.3697    2.2811    1.6519 H   0  0  0  0  0  0  0  0  0  0  0  0
   -0.7490    3.6458    1.8220 H   0  0  0  0  0  0  0  0  0  0  0  0
   -4.2850    1.1335    0.6830 H   0  0  0  0  0  0  0  0  0  0  0  0
   -4.8364    0.9571    2.3589 H   0  0  0  0  0  0  0  0  0  0  0  0
   -4.6669   -0.4896    1.3537 H   0  0  0  0  0  0  0  0  0  0  0  0
   -1.4837   -3.9745    1.6062 H   0  0  0  0  0  0  0  0  0  0  0  0
   -2.8676   -4.0200    0.4431 H   0  0  0  0  0  0  0  0  0  0  0  0
   -3.1403   -4.1952    2.1800 H   0  0  0  0  0  0  0  0  0  0  0  0
   -1.0103   -2.9397   -0.4689 H   0  0  0  0  0  0  0  0  0  0  0  0
  1  2  1  0
  2  3  1  0
  3  4  1  0
  4  5  2  0
  4  6  1  0
  6  7  1  0
  7  8  2  0
  7  9  1  0
  9 10  2  0
 10 11  1  0
 11 12  1  0
 12 13  1  0
 11 14  2  0
 14 15  1  0
 15 16  1  0
 14 17  1  0
 17 18  1  0
 18 19  1  0
 17 20  2  0
 20  9  1  0
  1 21  1  0
  1 22  1  0
  1 23  1  0
  2 24  1  0
  2 25  1  0
  6 26  1  0
  6 27  1  0
 10 28  1  0
 13 29  1  0
 13 30  1  0
 13 31  1  0
 16 32  1  0
 16 33  1  0
 16 34  1  0
 19 35  1  0
 19 36  1  0
 19 37  1  0
 20 38  1  0
M  END
$$$$
