
     RDKit          3D

 52 57  0  0  0  0  0  0  0  0999 V2000
    4.9229   -2.4577   -0.6392 C   0  0  0  0  0  0  0  0  0  0  0  0
    3.8886   -1.6990    0.1369 C   0  0  0  0  0  0  0  0  0  0  0  0
    3.8037   -1.7919    1.5388 C   0  0  0  0  0  0  0  0  0  0  0  0
    4.9015   -2.7805    2.4410 Cl  0  0  0  0  0  0  0  0  0  0  0  0
    2.8212   -1.0935    2.2674 C   0  0  0  0  0  0  0  0  0  0  0  0
    1.8911   -0.2820    1.6173 C   0  0  0  0  0  0  0  0  0  0  0  0
    1.9628   -0.1791    0.2356 C   0  0  0  0  0  0  0  0  0  0  0  0
    2.9422   -0.8876   -0.4792 C   0  0  0  0  0  0  0  0  0  0  0  0
    2.7876   -0.6543   -1.8438 N   0  0  0  0  0  0  0  0  0  0  0  0
    1.7052    0.1865   -2.1118 C   0  0  0  0  0  0  0  0  0  0  0  0
    1.3560    0.5195   -3.2354 O   0  0  0  0  0  0  0  0  0  0  0  0
    1.1049    0.5927   -0.7395 C   0  0  1  0  0  0  0  0  0  0  0  0
   -0.2942    0.1596   -0.5410 C   0  0  0  0  0  0  0  0  0  0  0  0
   -1.1135    1.2349   -0.1959 C   0  0  0  0  0  0  0  0  0  0  0  0
   -2.3895    0.7735   -0.0019 C   0  0  0  0  0  0  0  0  0  0  0  0
   -3.5038    1.4381    0.2929 O   0  0  0  0  0  0  0  0  0  0  0  0
   -2.3762   -0.6102   -0.2703 N   0  0  0  0  0  0  0  0  0  0  0  0
   -3.5145   -1.4767   -0.3052 C   0  0  0  0  0  0  0  0  0  0  0  0
   -3.5541   -2.5514   -1.2072 C   0  0  0  0  0  0  0  0  0  0  0  0
   -4.6604   -3.4038   -1.2403 C   0  0  0  0  0  0  0  0  0  0  0  0
   -5.7348   -3.1880   -0.3803 C   0  0  0  0  0  0  0  0  0  0  0  0
   -5.7097   -2.1139    0.5068 C   0  0  0  0  0  0  0  0  0  0  0  0
   -4.6070   -1.2560    0.5425 C   0  0  0  0  0  0  0  0  0  0  0  0
   -1.0430   -0.9868   -0.5313 C   0  0  0  0  0  0  0  0  0  0  0  0
   -0.6183   -2.2419   -0.6721 O   0  0  0  0  0  0  0  0  0  0  0  0
   -0.3554    2.5051   -0.1776 C   0  0  1  0  0  0  0  0  0  0  0  0
   -0.3497    3.2308    1.1878 C   0  0  0  0  0  0  0  0  0  0  0  0
    0.5608    4.3906    1.2692 N   0  0  0  0  0  0  0  0  0  0  0  0
    1.7181    4.2455    0.3625 C   0  0  0  0  0  0  0  0  0  0  0  0
    2.1003    2.7791    0.0608 C   0  0  0  0  0  0  0  0  0  0  0  0
    1.0120    2.0805   -0.6171 N   0  0  0  0  0  0  0  0  0  0  0  0
    4.9283   -2.1924   -1.7000 H   0  0  0  0  0  0  0  0  0  0  0  0
    5.9259   -2.2389   -0.2580 H   0  0  0  0  0  0  0  0  0  0  0  0
    4.7335   -3.5337   -0.5688 H   0  0  0  0  0  0  0  0  0  0  0  0
    2.7775   -1.1884    3.3504 H   0  0  0  0  0  0  0  0  0  0  0  0
    1.1293    0.2468    2.1816 H   0  0  0  0  0  0  0  0  0  0  0  0
    3.3311   -1.0641   -2.5868 H   0  0  0  0  0  0  0  0  0  0  0  0
   -3.3021    2.3891    0.2763 H   0  0  0  0  0  0  0  0  0  0  0  0
   -2.7605   -2.7124   -1.9344 H   0  0  0  0  0  0  0  0  0  0  0  0
   -4.6907   -4.2265   -1.9506 H   0  0  0  0  0  0  0  0  0  0  0  0
   -6.5971   -3.8491   -0.4095 H   0  0  0  0  0  0  0  0  0  0  0  0
   -6.5503   -1.9409    1.1743 H   0  0  0  0  0  0  0  0  0  0  0  0
   -4.6125   -0.4416    1.2618 H   0  0  0  0  0  0  0  0  0  0  0  0
   -1.2725   -2.8408   -0.2689 H   0  0  0  0  0  0  0  0  0  0  0  0
   -0.7586    3.1807   -0.9426 H   0  0  0  0  0  0  0  0  0  0  0  0
   -1.3643    3.5620    1.4400 H   0  0  0  0  0  0  0  0  0  0  0  0
   -0.0637    2.5273    1.9807 H   0  0  0  0  0  0  0  0  0  0  0  0
    0.0614    5.2419    1.0127 H   0  0  0  0  0  0  0  0  0  0  0  0
    1.4969    4.7595   -0.5819 H   0  0  0  0  0  0  0  0  0  0  0  0
    2.5735    4.7621    0.8111 H   0  0  0  0  0  0  0  0  0  0  0  0
    2.3662    2.3138    1.0152 H   0  0  0  0  0  0  0  0  0  0  0  0
    2.9938    2.7634   -0.5732 H   0  0  0  0  0  0  0  0  0  0  0  0
  1  2  1  0
  2  3  2  0
  3  4  1  0
  3  5  1  0
  5  6  2  0
  6  7  1  0
  7  8  2  0
  8  9  1  0
  9 10  1  0
 10 11  2  0
 10 12  1  0
 12 13  1  0
 13 14  1  0
 14 15  2  0
 15 16  1  0
 15 17  1  0
 17 18  1  0
 18 19  2  0
 19 20  1  0
 20 21  2  0
 21 22  1  0
 22 23  2  0
 17 24  1  0
 24 25  1  0
 14 26  1  0
 26 27  1  0
 27 28  1  0
 28 29  1  0
 29 30  1  0
 30 31  1  0
  8  2  1  0
 12 31  1  1
 12  7  1  0
 24 13  2  0
 31 26  1  0
 23 18  1  0
  1 32  1  0
  1 33  1  0
  1 34  1  0
  5 35  1  0
  6 36  1  0
  9 37  1  0
 16 38  1  0
 19 39  1  0
 20 40  1  0
 21 41  1  0
 22 42  1  0
 23 43  1  0
 25 44  1  0
 26 45  1  6
 27 46  1  0
 27 47  1  0
 28 48  1  0
 29 49  1  0
 29 50  1  0
 30 51  1  0
 30 52  1  0
M  END
$$$$
