
     RDKit          3D

 43 45  0  0  0  0  0  0  0  0999 V2000
   -7.3882    1.1230   -0.1420 C   0  0  0  0  0  0  0  0  0  0  0  0
   -6.7898   -0.1778   -0.4352 N   0  0  0  0  0  0  0  0  0  0  0  0
   -7.6920   -1.3244   -0.3475 C   0  0  0  0  0  0  0  0  0  0  0  0
   -5.4241   -0.3710   -0.1981 C   0  0  0  0  0  0  0  0  0  0  0  0
   -4.5484    0.6974    0.0596 C   0  0  0  0  0  0  0  0  0  0  0  0
   -3.1739    0.5091    0.2792 C   0  0  0  0  0  0  0  0  0  0  0  0
   -2.6123   -0.7657    0.2283 C   0  0  0  0  0  0  0  0  0  0  0  0
   -1.1863   -1.0155    0.4792 C   0  0  0  0  0  0  0  0  0  0  0  0
   -0.1993   -0.2076    0.0597 C   0  0  0  0  0  0  0  0  0  0  0  0
    1.2004   -0.4885    0.3160 C   0  0  0  0  0  0  0  0  0  0  0  0
    2.2486    0.2605   -0.0573 C   0  0  0  0  0  0  0  0  0  0  0  0
    2.2297    1.7405   -0.9149 S   0  0  0  0  0  0  0  0  0  0  0  0
    3.9910    1.8394   -0.9771 C   0  0  0  0  0  0  0  0  0  0  0  0
    4.7119    3.0227   -1.9185 S   0  0  0  0  0  0  0  0  0  0  0  0
    4.5516    0.7965   -0.2456 N   0  0  0  0  0  0  0  0  0  0  0  0
    5.9580    0.6259   -0.0133 C   0  0  0  0  0  0  0  0  0  0  0  0
    6.7896    1.7135    0.2949 C   0  0  0  0  0  0  0  0  0  0  0  0
    8.1577    1.5350    0.5278 C   0  0  0  0  0  0  0  0  0  0  0  0
    8.7175    0.2633    0.4667 C   0  0  0  0  0  0  0  0  0  0  0  0
    7.9085   -0.8313    0.1819 C   0  0  0  0  0  0  0  0  0  0  0  0
    6.5410   -0.6515   -0.0500 C   0  0  0  0  0  0  0  0  0  0  0  0
    3.6477   -0.1352    0.2677 C   0  0  0  0  0  0  0  0  0  0  0  0
    3.8911   -1.1386    0.9286 O   0  0  0  0  0  0  0  0  0  0  0  0
   -3.4585   -1.8440   -0.0238 C   0  0  0  0  0  0  0  0  0  0  0  0
   -4.8313   -1.6446   -0.2425 C   0  0  0  0  0  0  0  0  0  0  0  0
   -8.4554    1.1345   -0.3907 H   0  0  0  0  0  0  0  0  0  0  0  0
   -6.9320    1.9144   -0.7467 H   0  0  0  0  0  0  0  0  0  0  0  0
   -7.2936    1.3697    0.9213 H   0  0  0  0  0  0  0  0  0  0  0  0
   -8.7323   -1.0276   -0.5224 H   0  0  0  0  0  0  0  0  0  0  0  0
   -7.4601   -2.0697   -1.1153 H   0  0  0  0  0  0  0  0  0  0  0  0
   -7.6445   -1.7885    0.6437 H   0  0  0  0  0  0  0  0  0  0  0  0
   -4.9112    1.7196    0.1027 H   0  0  0  0  0  0  0  0  0  0  0  0
   -2.5601    1.3794    0.4966 H   0  0  0  0  0  0  0  0  0  0  0  0
   -0.9621   -1.9303    1.0232 H   0  0  0  0  0  0  0  0  0  0  0  0
   -0.4411    0.6879   -0.5080 H   0  0  0  0  0  0  0  0  0  0  0  0
    1.4003   -1.4073    0.8695 H   0  0  0  0  0  0  0  0  0  0  0  0
    6.3915    2.7186    0.4060 H   0  0  0  0  0  0  0  0  0  0  0  0
    8.7824    2.3924    0.7668 H   0  0  0  0  0  0  0  0  0  0  0  0
    9.7800    0.1242    0.6490 H   0  0  0  0  0  0  0  0  0  0  0  0
    8.3378   -1.8294    0.1387 H   0  0  0  0  0  0  0  0  0  0  0  0
    5.9484   -1.5333   -0.2842 H   0  0  0  0  0  0  0  0  0  0  0  0
   -3.0646   -2.8567   -0.0693 H   0  0  0  0  0  0  0  0  0  0  0  0
   -5.4235   -2.5289   -0.4560 H   0  0  0  0  0  0  0  0  0  0  0  0
  1  2  1  0
  2  3  1  0
  2  4  1  0
  4  5  2  0
  5  6  1  0
  6  7  2  0
  7  8  1  0
  8  9  2  3
  9 10  1  0
 10 11  2  3
 11 12  1  0
 12 13  1  0
 13 14  2  0
 13 15  1  0
 15 16  1  0
 16 17  2  0
 17 18  1  0
 18 19  2  0
 19 20  1  0
 20 21  2  0
 15 22  1  0
 22 23  2  0
  7 24  1  0
 24 25  2  0
 25  4  1  0
 22 11  1  0
 21 16  1  0
  1 26  1  0
  1 27  1  0
  1 28  1  0
  3 29  1  0
  3 30  1  0
  3 31  1  0
  5 32  1  0
  6 33  1  0
  8 34  1  0
  9 35  1  0
 10 36  1  0
 17 37  1  0
 18 38  1  0
 19 39  1  0
 20 40  1  0
 21 41  1  0
 24 42  1  0
 25 43  1  0
M  END
$$$$
