
     RDKit          3D

 70 75  0  0  0  0  0  0  0  0999 V2000
   -5.4055   -3.2679    2.5117 C   0  0  0  0  0  0  0  0  0  0  0  0
   -4.2731   -2.6398    1.7412 C   0  0  0  0  0  0  0  0  0  0  0  0
   -3.6549   -1.4830    2.2762 C   0  0  0  0  0  0  0  0  0  0  0  0
   -2.6068   -0.8424    1.6144 C   0  0  0  0  0  0  0  0  0  0  0  0
   -2.1868   -1.3637    0.4040 C   0  0  0  0  0  0  0  0  0  0  0  0
   -2.7832   -2.5184   -0.1208 C   0  0  0  0  0  0  0  0  0  0  0  0
   -3.8135   -3.1942    0.5239 C   0  0  0  0  0  0  0  0  0  0  0  0
   -4.4471   -4.4164   -0.0749 C   0  0  0  0  0  0  0  0  0  0  0  0
   -2.1887   -2.8410   -1.3397 N   0  0  0  0  0  0  0  0  0  0  0  0
   -1.1772   -1.9407   -1.6791 C   0  0  0  0  0  0  0  0  0  0  0  0
   -0.4868   -2.0129   -2.6861 O   0  0  0  0  0  0  0  0  0  0  0  0
   -1.1230   -0.8905   -0.5399 C   0  0  1  0  0  0  0  0  0  0  0  0
   -1.4454    0.4894   -1.0008 C   0  0  0  0  0  0  0  0  0  0  0  0
   -0.2686    1.2545   -1.0694 C   0  0  0  0  0  0  0  0  0  0  0  0
   -0.5837    2.5171   -1.4924 C   0  0  0  0  0  0  0  0  0  0  0  0
    0.2140    3.5460   -1.7692 O   0  0  0  0  0  0  0  0  0  0  0  0
   -1.9842    2.5590   -1.6878 N   0  0  0  0  0  0  0  0  0  0  0  0
   -2.7443    3.6948   -2.1343 C   0  0  0  0  0  0  0  0  0  0  0  0
   -2.2867    5.0005   -1.9012 C   0  0  0  0  0  0  0  0  0  0  0  0
   -3.0274    6.1032   -2.3384 C   0  0  0  0  0  0  0  0  0  0  0  0
   -4.2297    5.9167   -3.0160 C   0  0  0  0  0  0  0  0  0  0  0  0
   -4.6930    4.6261   -3.2581 C   0  0  0  0  0  0  0  0  0  0  0  0
   -3.9578    3.5212   -2.8171 C   0  0  0  0  0  0  0  0  0  0  0  0
   -2.5020    1.2818   -1.3699 C   0  0  0  0  0  0  0  0  0  0  0  0
   -3.8050    1.0072   -1.3906 O   0  0  0  0  0  0  0  0  0  0  0  0
    0.8963    0.4124   -0.7223 C   0  0  1  0  0  0  0  0  0  0  0  0
    2.0141    0.9947    0.1348 C   0  0  0  0  0  0  0  0  0  0  0  0
    2.9568   -0.0655    0.5298 N   0  0  0  0  0  0  0  0  0  0  0  0
    4.2747    0.2817    0.7627 C   0  0  0  0  0  0  0  0  0  0  0  0
    4.7370    1.3843    0.4994 O   0  0  0  0  0  0  0  0  0  0  0  0
    4.9850   -0.7428    1.2977 O   0  0  0  0  0  0  0  0  0  0  0  0
    6.4038   -0.6109    1.5703 C   0  0  0  0  0  0  0  0  0  0  0  0
    6.8160   -1.9753    2.1447 C   0  0  0  0  0  0  0  0  0  0  0  0
    6.6746    0.4658    2.6275 C   0  0  0  0  0  0  0  0  0  0  0  0
    7.1962   -0.3629    0.2818 C   0  0  0  0  0  0  0  0  0  0  0  0
    2.3638   -1.3101    1.0564 C   0  0  0  0  0  0  0  0  0  0  0  0
    1.1178   -1.7922    0.2669 C   0  0  0  0  0  0  0  0  0  0  0  0
    0.2148   -0.6719    0.0540 N   0  0  0  0  0  0  0  0  0  0  0  0
   -5.0884   -4.2250    2.9375 H   0  0  0  0  0  0  0  0  0  0  0  0
   -5.7355   -2.6257    3.3356 H   0  0  0  0  0  0  0  0  0  0  0  0
   -6.2708   -3.4259    1.8601 H   0  0  0  0  0  0  0  0  0  0  0  0
   -3.9992   -1.0704    3.2243 H   0  0  0  0  0  0  0  0  0  0  0  0
   -2.1442    0.0479    2.0317 H   0  0  0  0  0  0  0  0  0  0  0  0
   -3.7654   -4.9351   -0.7556 H   0  0  0  0  0  0  0  0  0  0  0  0
   -4.7132   -5.1439    0.6983 H   0  0  0  0  0  0  0  0  0  0  0  0
   -5.3479   -4.1370   -0.6297 H   0  0  0  0  0  0  0  0  0  0  0  0
   -2.4266   -3.6256   -1.9272 H   0  0  0  0  0  0  0  0  0  0  0  0
    1.1371    3.2543   -1.6785 H   0  0  0  0  0  0  0  0  0  0  0  0
   -1.3690    5.1930   -1.3545 H   0  0  0  0  0  0  0  0  0  0  0  0
   -2.6615    7.1084   -2.1477 H   0  0  0  0  0  0  0  0  0  0  0  0
   -4.8010    6.7740   -3.3596 H   0  0  0  0  0  0  0  0  0  0  0  0
   -5.6242    4.4743   -3.7986 H   0  0  0  0  0  0  0  0  0  0  0  0
   -4.3375    2.5326   -3.0583 H   0  0  0  0  0  0  0  0  0  0  0  0
   -3.9367    0.1253   -0.9994 H   0  0  0  0  0  0  0  0  0  0  0  0
    1.3188    0.0018   -1.6513 H   0  0  0  0  0  0  0  0  0  0  0  0
    1.6259    1.4479    1.0563 H   0  0  0  0  0  0  0  0  0  0  0  0
    2.5408    1.7833   -0.4142 H   0  0  0  0  0  0  0  0  0  0  0  0
    6.2576   -2.1967    3.0626 H   0  0  0  0  0  0  0  0  0  0  0  0
    6.5860   -2.7823    1.4395 H   0  0  0  0  0  0  0  0  0  0  0  0
    7.8855   -2.0127    2.3776 H   0  0  0  0  0  0  0  0  0  0  0  0
    6.0340    0.3193    3.5045 H   0  0  0  0  0  0  0  0  0  0  0  0
    7.7205    0.4512    2.9529 H   0  0  0  0  0  0  0  0  0  0  0  0
    6.4635    1.4721    2.2535 H   0  0  0  0  0  0  0  0  0  0  0  0
    8.2750   -0.4470    0.4533 H   0  0  0  0  0  0  0  0  0  0  0  0
    6.9098   -1.0796   -0.4955 H   0  0  0  0  0  0  0  0  0  0  0  0
    7.0088    0.6344   -0.1276 H   0  0  0  0  0  0  0  0  0  0  0  0
    3.1087   -2.1116    1.0680 H   0  0  0  0  0  0  0  0  0  0  0  0
    2.0868   -1.1041    2.0975 H   0  0  0  0  0  0  0  0  0  0  0  0
    0.6281   -2.5858    0.8425 H   0  0  0  0  0  0  0  0  0  0  0  0
    1.4434   -2.2252   -0.6870 H   0  0  0  0  0  0  0  0  0  0  0  0
  1  2  1  0
  2  3  2  0
  3  4  1  0
  4  5  2  0
  5  6  1  0
  6  7  2  0
  7  8  1  0
  6  9  1  0
  9 10  1  0
 10 11  2  0
 10 12  1  0
 12 13  1  0
 13 14  1  0
 14 15  2  0
 15 16  1  0
 15 17  1  0
 17 18  1  0
 18 19  2  0
 19 20  1  0
 20 21  2  0
 21 22  1  0
 22 23  2  0
 17 24  1  0
 24 25  1  0
 14 26  1  0
 26 27  1  0
 27 28  1  0
 28 29  1  0
 29 30  2  0
 29 31  1  0
 31 32  1  0
 32 33  1  0
 32 34  1  0
 32 35  1  0
 28 36  1  0
 36 37  1  0
 37 38  1  0
  7  2  1  0
 12 38  1  1
 12  5  1  0
 24 13  2  0
 38 26  1  0
 23 18  1  0
  1 39  1  0
  1 40  1  0
  1 41  1  0
  3 42  1  0
  4 43  1  0
  8 44  1  0
  8 45  1  0
  8 46  1  0
  9 47  1  0
 16 48  1  0
 19 49  1  0
 20 50  1  0
 21 51  1  0
 22 52  1  0
 23 53  1  0
 25 54  1  0
 26 55  1  6
 27 56  1  0
 27 57  1  0
 33 58  1  0
 33 59  1  0
 33 60  1  0
 34 61  1  0
 34 62  1  0
 34 63  1  0
 35 64  1  0
 35 65  1  0
 35 66  1  0
 36 67  1  0
 36 68  1  0
 37 69  1  0
 37 70  1  0
M  END
$$$$
