
     RDKit          3D

 27 27  0  0  0  0  0  0  0  0999 V2000
    3.5535   -1.1097    0.5400 C   0  0  0  0  0  0  0  0  0  0  0  0
    2.3007   -0.3954    0.2017 C   0  0  0  0  0  0  0  0  0  0  0  0
    2.1447    0.8050   -0.5051 C   0  0  0  0  0  0  0  0  0  0  0  0
    0.7853    1.0769   -0.5109 C   0  0  0  0  0  0  0  0  0  0  0  0
    0.1978    2.2611   -1.0600 C   0  0  0  0  0  0  0  0  0  0  0  0
    0.6269    2.9418   -1.9791 O   0  0  0  0  0  0  0  0  0  0  0  0
   -0.8900    2.6640   -0.3807 O   0  0  0  0  0  0  0  0  0  0  0  0
    0.1961   -0.0263    0.0805 N   0  0  0  0  0  0  0  0  0  0  0  0
   -1.2254   -0.4328    0.1736 C   0  0  0  0  0  0  0  0  0  0  0  0
   -1.3470   -1.9697    0.3934 C   0  0  0  0  0  0  0  0  0  0  0  0
   -1.8937    0.2444    1.3827 C   0  0  0  0  0  0  0  0  0  0  0  0
   -2.0050   -0.1451   -1.1271 C   0  0  0  0  0  0  0  0  0  0  0  0
    1.1228   -0.8794    0.5919 N   0  0  0  0  0  0  0  0  0  0  0  0
    4.4255   -0.5975    0.1210 H   0  0  0  0  0  0  0  0  0  0  0  0
    3.5355   -2.1287    0.1400 H   0  0  0  0  0  0  0  0  0  0  0  0
    3.6825   -1.1654    1.6257 H   0  0  0  0  0  0  0  0  0  0  0  0
    2.9202    1.4331   -0.9235 H   0  0  0  0  0  0  0  0  0  0  0  0
   -1.1215    3.5080   -0.8209 H   0  0  0  0  0  0  0  0  0  0  0  0
   -0.8929   -2.2849    1.3404 H   0  0  0  0  0  0  0  0  0  0  0  0
   -0.8596   -2.5268   -0.4157 H   0  0  0  0  0  0  0  0  0  0  0  0
   -2.3971   -2.2841    0.4260 H   0  0  0  0  0  0  0  0  0  0  0  0
   -2.9322   -0.0878    1.4956 H   0  0  0  0  0  0  0  0  0  0  0  0
   -1.3640    0.0020    2.3117 H   0  0  0  0  0  0  0  0  0  0  0  0
   -1.9117    1.3328    1.3011 H   0  0  0  0  0  0  0  0  0  0  0  0
   -2.9969   -0.6125   -1.1030 H   0  0  0  0  0  0  0  0  0  0  0  0
   -1.4737   -0.5405   -2.0007 H   0  0  0  0  0  0  0  0  0  0  0  0
   -2.1807    0.9176   -1.2985 H   0  0  0  0  0  0  0  0  0  0  0  0
  1  2  1  0
  2  3  1  0
  3  4  2  0
  4  5  1  0
  5  6  2  0
  5  7  1  0
  4  8  1  0
  8  9  1  0
  9 10  1  0
  9 11  1  0
  9 12  1  0
  8 13  1  0
 13  2  2  0
  1 14  1  0
  1 15  1  0
  1 16  1  0
  3 17  1  0
  7 18  1  0
 10 19  1  0
 10 20  1  0
 10 21  1  0
 11 22  1  0
 11 23  1  0
 11 24  1  0
 12 25  1  0
 12 26  1  0
 12 27  1  0
M  END
$$$$
