
     RDKit          3D

 32 34  0  0  0  0  0  0  0  0999 V2000
   -0.3943   -0.5296   -1.9597 O   0  0  0  0  0  0  0  0  0  0  0  0
   -0.3837   -0.1331   -0.8003 C   0  0  0  0  0  0  0  0  0  0  0  0
   -1.6672    0.0676    0.0170 C   0  0  0  0  0  0  0  0  0  0  0  0
   -2.8263   -0.0576   -0.7908 O   0  0  0  0  0  0  0  0  0  0  0  0
   -4.0391    0.1059   -0.1841 C   0  0  0  0  0  0  0  0  0  0  0  0
   -5.1353    0.0167   -1.0478 C   0  0  0  0  0  0  0  0  0  0  0  0
   -6.4378    0.1635   -0.5661 C   0  0  0  0  0  0  0  0  0  0  0  0
   -6.6437    0.3998    0.7898 C   0  0  0  0  0  0  0  0  0  0  0  0
   -8.4017    0.5999    1.4534 Br  0  0  0  0  0  0  0  0  0  0  0  0
   -5.5598    0.4888    1.6619 C   0  0  0  0  0  0  0  0  0  0  0  0
   -4.2560    0.3419    1.1747 C   0  0  0  0  0  0  0  0  0  0  0  0
    0.7426    0.1775   -0.0599 N   0  0  0  0  0  0  0  0  0  0  0  0
    2.0040    0.0688   -0.5794 C   0  0  0  0  0  0  0  0  0  0  0  0
    2.4117   -0.3164   -1.7630 N   0  0  0  0  0  0  0  0  0  0  0  0
    3.7922   -0.2738   -1.8684 N   0  0  0  0  0  0  0  0  0  0  0  0
    4.3496    0.1332   -0.7503 C   0  0  0  0  0  0  0  0  0  0  0  0
    5.8943    0.2827   -0.5984 C   0  0  0  0  0  0  0  0  0  0  0  0
    6.6460   -0.6621    0.3049 C   0  0  0  0  0  0  0  0  0  0  0  0
    6.7934   -0.7764   -1.1841 C   0  0  0  0  0  0  0  0  0  0  0  0
    3.2499    0.5102    0.5060 S   0  0  0  0  0  0  0  0  0  0  0  0
   -1.6692   -0.6989    0.8016 H   0  0  0  0  0  0  0  0  0  0  0  0
   -1.6280    1.0709    0.4593 H   0  0  0  0  0  0  0  0  0  0  0  0
   -4.9708   -0.1695   -2.1072 H   0  0  0  0  0  0  0  0  0  0  0  0
   -7.2751    0.0908   -1.2547 H   0  0  0  0  0  0  0  0  0  0  0  0
   -5.7186    0.6708    2.7216 H   0  0  0  0  0  0  0  0  0  0  0  0
   -3.4392    0.4147    1.8840 H   0  0  0  0  0  0  0  0  0  0  0  0
    0.6727    0.4989    0.8932 H   0  0  0  0  0  0  0  0  0  0  0  0
    6.2444    1.3076   -0.6587 H   0  0  0  0  0  0  0  0  0  0  0  0
    7.4836   -0.2659    0.8679 H   0  0  0  0  0  0  0  0  0  0  0  0
    6.0998   -1.4463    0.8169 H   0  0  0  0  0  0  0  0  0  0  0  0
    7.7258   -0.4548   -1.6338 H   0  0  0  0  0  0  0  0  0  0  0  0
    6.3358   -1.6256   -1.6809 H   0  0  0  0  0  0  0  0  0  0  0  0
  1  2  2  0
  2  3  1  0
  3  4  1  0
  4  5  1  0
  5  6  2  0
  6  7  1  0
  7  8  2  0
  8  9  1  0
  8 10  1  0
 10 11  2  0
  2 12  1  0
 12 13  1  0
 13 14  2  0
 14 15  1  0
 15 16  2  0
 16 17  1  0
 17 18  1  0
 18 19  1  0
 16 20  1  0
 11  5  1  0
 20 13  1  0
 19 17  1  0
  3 21  1  0
  3 22  1  0
  6 23  1  0
  7 24  1  0
 10 25  1  0
 11 26  1  0
 12 27  1  0
 17 28  1  0
 18 29  1  0
 18 30  1  0
 19 31  1  0
 19 32  1  0
M  END
$$$$
