
     RDKit          3D

 37 39  0  0  0  0  0  0  0  0999 V2000
   -7.7027    0.6898   -0.8857 C   0  0  0  0  0  0  0  0  0  0  0  0
   -6.9905    1.3645    0.2759 C   0  0  0  0  0  0  0  0  0  0  0  0
   -5.5086    1.3267    0.1061 C   0  0  0  0  0  0  0  0  0  0  0  0
   -4.8086    2.2102   -0.5752 N   0  0  0  0  0  0  0  0  0  0  0  0
   -3.4590    1.9191   -0.5608 N   0  0  0  0  0  0  0  0  0  0  0  0
   -3.1918    0.8321    0.1288 C   0  0  0  0  0  0  0  0  0  0  0  0
   -1.9165    0.3561    0.2762 N   0  0  0  0  0  0  0  0  0  0  0  0
   -1.5105   -0.7613    0.9669 C   0  0  0  0  0  0  0  0  0  0  0  0
   -2.2221   -1.5474    1.5857 O   0  0  0  0  0  0  0  0  0  0  0  0
    0.0053   -0.9763    0.9082 C   0  0  0  0  0  0  0  0  0  0  0  0
    0.6409    0.0443    0.1425 O   0  0  0  0  0  0  0  0  0  0  0  0
    2.0004   -0.0325    0.0124 C   0  0  0  0  0  0  0  0  0  0  0  0
    2.5690    0.9907   -0.7461 C   0  0  0  0  0  0  0  0  0  0  0  0
    3.9481    1.0355   -0.9599 C   0  0  0  0  0  0  0  0  0  0  0  0
    4.7858    0.0525   -0.4158 C   0  0  0  0  0  0  0  0  0  0  0  0
    6.1748    0.0807   -0.6199 C   0  0  0  0  0  0  0  0  0  0  0  0
    6.9958   -0.9054   -0.0715 C   0  0  0  0  0  0  0  0  0  0  0  0
    6.4390   -1.9306    0.6868 C   0  0  0  0  0  0  0  0  0  0  0  0
    5.0598   -1.9721    0.8985 C   0  0  0  0  0  0  0  0  0  0  0  0
    4.2177   -0.9879    0.3541 C   0  0  0  0  0  0  0  0  0  0  0  0
    2.8251   -1.0176    0.5597 C   0  0  0  0  0  0  0  0  0  0  0  0
   -4.5593    0.0818    0.8120 S   0  0  0  0  0  0  0  0  0  0  0  0
   -8.7874    0.7480   -0.7508 H   0  0  0  0  0  0  0  0  0  0  0  0
   -7.4523    1.1711   -1.8374 H   0  0  0  0  0  0  0  0  0  0  0  0
   -7.4264   -0.3674   -0.9617 H   0  0  0  0  0  0  0  0  0  0  0  0
   -7.3143    2.4102    0.3385 H   0  0  0  0  0  0  0  0  0  0  0  0
   -7.2877    0.8877    1.2172 H   0  0  0  0  0  0  0  0  0  0  0  0
   -1.2024    0.9077   -0.1870 H   0  0  0  0  0  0  0  0  0  0  0  0
    0.3716   -0.9574    1.9412 H   0  0  0  0  0  0  0  0  0  0  0  0
    0.1720   -1.9556    0.4449 H   0  0  0  0  0  0  0  0  0  0  0  0
    1.9375    1.7636   -1.1775 H   0  0  0  0  0  0  0  0  0  0  0  0
    4.3623    1.8457   -1.5557 H   0  0  0  0  0  0  0  0  0  0  0  0
    6.6285    0.8741   -1.2098 H   0  0  0  0  0  0  0  0  0  0  0  0
    8.0696   -0.8719   -0.2371 H   0  0  0  0  0  0  0  0  0  0  0  0
    7.0775   -2.6993    1.1145 H   0  0  0  0  0  0  0  0  0  0  0  0
    4.6466   -2.7829    1.4945 H   0  0  0  0  0  0  0  0  0  0  0  0
    2.4127   -1.8266    1.1544 H   0  0  0  0  0  0  0  0  0  0  0  0
  1  2  1  0
  2  3  1  0
  3  4  2  0
  4  5  1  0
  5  6  2  0
  6  7  1  0
  7  8  1  0
  8  9  2  0
  8 10  1  0
 10 11  1  0
 11 12  1  0
 12 13  2  0
 13 14  1  0
 14 15  2  0
 15 16  1  0
 16 17  2  0
 17 18  1  0
 18 19  2  0
 19 20  1  0
 20 21  2  0
  6 22  1  0
 22  3  1  0
 21 12  1  0
 20 15  1  0
  1 23  1  0
  1 24  1  0
  1 25  1  0
  2 26  1  0
  2 27  1  0
  7 28  1  0
 10 29  1  0
 10 30  1  0
 13 31  1  0
 14 32  1  0
 16 33  1  0
 17 34  1  0
 18 35  1  0
 19 36  1  0
 21 37  1  0
M  END
$$$$
