
     RDKit          3D

 42 44  0  0  0  0  0  0  0  0999 V2000
   -3.5340   -1.7705    1.1942 C   0  0  0  0  0  0  0  0  0  0  0  0
   -3.6291   -0.7215    0.1153 C   0  0  0  0  0  0  0  0  0  0  0  0
   -4.8999   -0.1936   -0.1805 C   0  0  0  0  0  0  0  0  0  0  0  0
   -5.0604    0.7542   -1.1870 C   0  0  0  0  0  0  0  0  0  0  0  0
   -3.9493    1.1802   -1.9000 C   0  0  0  0  0  0  0  0  0  0  0  0
   -4.1296    2.3532   -3.1470 Cl  0  0  0  0  0  0  0  0  0  0  0  0
   -2.6795    0.6770   -1.6080 C   0  0  0  0  0  0  0  0  0  0  0  0
   -2.4874   -0.2677   -0.5884 C   0  0  0  0  0  0  0  0  0  0  0  0
   -1.2183   -0.7528   -0.2543 N   0  0  0  0  0  0  0  0  0  0  0  0
   -0.2541   -1.0631   -1.3236 C   0  0  0  0  0  0  0  0  0  0  0  0
    0.7979    0.0441   -1.5590 C   0  0  0  0  0  0  0  0  0  0  0  0
    1.3520    0.6545   -0.3229 N   0  0  0  0  0  0  0  0  0  0  0  0
    2.5294    0.1102    0.1698 C   0  0  0  0  0  0  0  0  0  0  0  0
    2.6527   -1.2197    0.6000 C   0  0  0  0  0  0  0  0  0  0  0  0
    3.8629   -1.7005    1.0879 C   0  0  0  0  0  0  0  0  0  0  0  0
    4.9531   -0.8509    1.1448 C   0  0  0  0  0  0  0  0  0  0  0  0
    4.8098    0.4583    0.7114 C   0  0  0  0  0  0  0  0  0  0  0  0
    3.6275    0.9133    0.2386 N   0  0  0  0  0  4  0  0  0  0  0  0
    3.5313    2.3097   -0.2270 C   0  0  0  0  0  0  0  0  0  0  0  0
    0.3167    0.9731    0.6951 C   0  0  0  0  0  0  0  0  0  0  0  0
   -0.6475   -0.1944    0.9852 C   0  0  0  0  0  0  0  0  0  0  0  0
   -4.4872   -2.2971    1.3142 H   0  0  0  0  0  0  0  0  0  0  0  0
   -2.7869   -2.5305    0.9443 H   0  0  0  0  0  0  0  0  0  0  0  0
   -3.2755   -1.3068    2.1507 H   0  0  0  0  0  0  0  0  0  0  0  0
   -5.7769   -0.5334    0.3681 H   0  0  0  0  0  0  0  0  0  0  0  0
   -6.0489    1.1467   -1.4104 H   0  0  0  0  0  0  0  0  0  0  0  0
   -1.8424    1.0552   -2.1811 H   0  0  0  0  0  0  0  0  0  0  0  0
    0.2621   -1.9855   -1.0356 H   0  0  0  0  0  0  0  0  0  0  0  0
   -0.7623   -1.3014   -2.2666 H   0  0  0  0  0  0  0  0  0  0  0  0
    0.3390    0.8584   -2.1300 H   0  0  0  0  0  0  0  0  0  0  0  0
    1.6040   -0.3416   -2.1965 H   0  0  0  0  0  0  0  0  0  0  0  0
    1.8065   -1.8992    0.5687 H   0  0  0  0  0  0  0  0  0  0  0  0
    3.9498   -2.7334    1.4221 H   0  0  0  0  0  0  0  0  0  0  0  0
    5.9095   -1.2058    1.5227 H   0  0  0  0  0  0  0  0  0  0  0  0
    5.6448    1.1529    0.7385 H   0  0  0  0  0  0  0  0  0  0  0  0
    2.8026    2.8306    0.3997 H   0  0  0  0  0  0  0  0  0  0  0  0
    3.2296    2.3029   -1.2778 H   0  0  0  0  0  0  0  0  0  0  0  0
    4.5027    2.8024   -0.1361 H   0  0  0  0  0  0  0  0  0  0  0  0
   -0.2623    1.8237    0.3139 H   0  0  0  0  0  0  0  0  0  0  0  0
    0.7836    1.3129    1.6281 H   0  0  0  0  0  0  0  0  0  0  0  0
   -1.4221    0.1534    1.6793 H   0  0  0  0  0  0  0  0  0  0  0  0
   -0.1142   -0.9973    1.5054 H   0  0  0  0  0  0  0  0  0  0  0  0
  1  2  1  0
  2  3  2  0
  3  4  1  0
  4  5  2  0
  5  6  1  0
  5  7  1  0
  7  8  2  0
  8  9  1  0
  9 10  1  0
 10 11  1  0
 11 12  1  0
 12 13  1  0
 13 14  2  0
 14 15  1  0
 15 16  2  0
 16 17  1  0
 17 18  2  0
 18 19  1  0
 12 20  1  0
 20 21  1  0
  8  2  1  0
 21  9  1  0
 18 13  1  0
  1 22  1  0
  1 23  1  0
  1 24  1  0
  3 25  1  0
  4 26  1  0
  7 27  1  0
 10 28  1  0
 10 29  1  0
 11 30  1  0
 11 31  1  0
 14 32  1  0
 15 33  1  0
 16 34  1  0
 17 35  1  0
 19 36  1  0
 19 37  1  0
 19 38  1  0
 20 39  1  0
 20 40  1  0
 21 41  1  0
 21 42  1  0
M  CHG  1  18   1
M  END
$$$$
