
     RDKit          3D

 43 46  0  0  0  0  0  0  0  0999 V2000
    0.7914   -0.8442    2.5697 O   0  0  0  0  0  0  0  0  0  0  0  0
    1.8927   -1.2204    2.1646 C   0  0  0  0  0  0  0  0  0  0  0  0
    2.0884   -2.4430    1.2770 C   0  0  0  0  0  0  0  0  0  0  0  0
    0.5693   -2.8555    0.3620 S   0  0  0  0  0  0  0  0  0  0  0  0
    0.3781   -1.3723   -0.5054 C   0  0  0  0  0  0  0  0  0  0  0  0
    1.3193   -0.7829   -1.2008 N   0  0  0  0  0  0  0  0  0  0  0  0
    0.7932    0.3828   -1.6976 N   0  0  0  0  0  0  0  0  0  0  0  0
   -0.4502    0.5020   -1.2655 C   0  0  0  0  0  0  0  0  0  0  0  0
   -1.3457    1.6012   -1.5893 C   0  0  0  0  0  0  0  0  0  0  0  0
   -1.8539    2.4627   -0.6149 C   0  0  0  0  0  0  0  0  0  0  0  0
   -2.7069    3.4999   -0.9881 C   0  0  0  0  0  0  0  0  0  0  0  0
   -3.0163    3.6480   -2.3307 C   0  0  0  0  0  0  0  0  0  0  0  0
   -2.5317    2.8486   -3.3040 N   0  0  0  0  0  0  0  0  0  0  0  0
   -1.7017    1.8503   -2.9112 C   0  0  0  0  0  0  0  0  0  0  0  0
   -0.7549   -0.6082   -0.5012 N   0  0  0  0  0  0  0  0  0  0  0  0
   -2.0106   -0.8939    0.1626 C   0  0  0  0  0  0  0  0  0  0  0  0
   -3.0008   -1.4217   -0.8065 C   0  0  0  0  0  0  0  0  0  0  0  0
   -3.1592   -2.6350   -1.4447 C   0  0  0  0  0  0  0  0  0  0  0  0
   -4.3003   -2.5031   -2.2725 C   0  0  0  0  0  0  0  0  0  0  0  0
   -4.7673   -1.2242   -2.0826 C   0  0  0  0  0  0  0  0  0  0  0  0
   -3.9900   -0.5637   -1.1877 O   0  0  0  0  0  0  0  0  0  0  0  0
    3.1010   -0.4477    2.5817 C   0  0  0  0  0  0  0  0  0  0  0  0
    2.9219    0.8520    3.0756 C   0  0  0  0  0  0  0  0  0  0  0  0
    4.0206    1.6141    3.4820 C   0  0  0  0  0  0  0  0  0  0  0  0
    5.3093    1.0822    3.4050 C   0  0  0  0  0  0  0  0  0  0  0  0
    6.6228    2.0731    3.9281 Cl  0  0  0  0  0  0  0  0  0  0  0  0
    5.4936   -0.2177    2.9201 C   0  0  0  0  0  0  0  0  0  0  0  0
    7.0564   -0.9487    2.8080 Cl  0  0  0  0  0  0  0  0  0  0  0  0
    4.3925   -0.9822    2.5103 C   0  0  0  0  0  0  0  0  0  0  0  0
    2.8874   -2.2703    0.5503 H   0  0  0  0  0  0  0  0  0  0  0  0
    2.3543   -3.2945    1.9104 H   0  0  0  0  0  0  0  0  0  0  0  0
   -1.5824    2.3444    0.4305 H   0  0  0  0  0  0  0  0  0  0  0  0
   -3.1165    4.1807   -0.2501 H   0  0  0  0  0  0  0  0  0  0  0  0
   -3.6771    4.4411   -2.6695 H   0  0  0  0  0  0  0  0  0  0  0  0
   -1.3210    1.2307   -3.7199 H   0  0  0  0  0  0  0  0  0  0  0  0
   -1.8460   -1.6118    0.9706 H   0  0  0  0  0  0  0  0  0  0  0  0
   -2.3646    0.0244    0.6401 H   0  0  0  0  0  0  0  0  0  0  0  0
   -2.5238   -3.5040   -1.3362 H   0  0  0  0  0  0  0  0  0  0  0  0
   -4.7274   -3.2462   -2.9315 H   0  0  0  0  0  0  0  0  0  0  0  0
   -5.5958   -0.6600   -2.4888 H   0  0  0  0  0  0  0  0  0  0  0  0
    1.9235    1.2828    3.1421 H   0  0  0  0  0  0  0  0  0  0  0  0
    3.8618    2.6226    3.8578 H   0  0  0  0  0  0  0  0  0  0  0  0
    4.5667   -1.9925    2.1508 H   0  0  0  0  0  0  0  0  0  0  0  0
  1  2  2  0
  2  3  1  0
  3  4  1  0
  4  5  1  0
  5  6  2  0
  6  7  1  0
  7  8  2  0
  8  9  1  0
  9 10  2  0
 10 11  1  0
 11 12  2  0
 12 13  1  0
 13 14  2  0
  8 15  1  0
 15 16  1  0
 16 17  1  0
 17 18  2  0
 18 19  1  0
 19 20  2  0
 20 21  1  0
  2 22  1  0
 22 23  2  0
 23 24  1  0
 24 25  2  0
 25 26  1  0
 25 27  1  0
 27 28  1  0
 27 29  2  0
 15  5  1  0
 21 17  1  0
 29 22  1  0
 14  9  1  0
  3 30  1  0
  3 31  1  0
 10 32  1  0
 11 33  1  0
 12 34  1  0
 14 35  1  0
 16 36  1  0
 16 37  1  0
 18 38  1  0
 19 39  1  0
 20 40  1  0
 23 41  1  0
 24 42  1  0
 29 43  1  0
M  END
$$$$
