
     RDKit          3D

 57 59  0  0  0  0  0  0  0  0999 V2000
   -3.5107    1.1864   -2.1282 C   0  0  0  0  0  0  0  0  0  0  0  0
   -2.3388    0.6945   -2.8306 N   0  0  0  0  0  0  0  0  0  0  0  0
   -1.5374   -0.3190   -2.3850 C   0  0  0  0  0  0  0  0  0  0  0  0
   -0.9145   -1.3524   -3.5485 S   0  0  0  0  0  0  0  0  0  0  0  0
   -1.2982   -0.3996   -1.0250 N   0  0  0  0  0  0  0  0  0  0  0  0
   -1.0511   -1.7016   -0.3660 C   0  0  0  0  0  0  0  0  0  0  0  0
   -1.7549   -1.8889    0.9899 C   0  0  0  0  0  0  0  0  0  0  0  0
   -3.2574   -1.7138    0.9576 C   0  0  0  0  0  0  0  0  0  0  0  0
   -3.8794   -0.8530    1.8720 C   0  0  0  0  0  0  0  0  0  0  0  0
   -5.2638   -0.6861    1.8610 C   0  0  0  0  0  0  0  0  0  0  0  0
   -6.0447   -1.3789    0.9373 C   0  0  0  0  0  0  0  0  0  0  0  0
   -5.4464   -2.2414    0.0131 C   0  0  0  0  0  0  0  0  0  0  0  0
   -6.2889   -3.0143   -0.9579 C   0  0  0  0  0  0  0  0  0  0  0  0
   -4.0558   -2.4175    0.0431 C   0  0  0  0  0  0  0  0  0  0  0  0
   -1.0383    0.8272   -0.2430 C   0  0  0  0  0  0  0  0  0  0  0  0
    0.4015    0.9437    0.1846 C   0  0  0  0  0  0  0  0  0  0  0  0
    1.4598    0.6828   -0.6055 C   0  0  0  0  0  0  0  0  0  0  0  0
    2.8285    0.8311   -0.1146 C   0  0  0  0  0  0  0  0  0  0  0  0
    3.9285    0.5479   -0.9226 C   0  0  0  0  0  0  0  0  0  0  0  0
    5.2197    0.7190   -0.4141 C   0  0  0  0  0  0  0  0  0  0  0  0
    6.3013    0.3994   -1.1987 O   0  0  0  0  0  0  0  0  0  0  0  0
    6.4936    1.3791   -2.2166 C   0  0  0  0  0  0  0  0  0  0  0  0
    5.4329    1.1401    0.9099 C   0  0  0  0  0  0  0  0  0  0  0  0
    6.7409    1.2608    1.3000 O   0  0  0  0  0  0  0  0  0  0  0  0
    6.9932    1.5765    2.6620 C   0  0  0  0  0  0  0  0  0  0  0  0
    4.3262    1.4209    1.7153 C   0  0  0  0  0  0  0  0  0  0  0  0
    3.0360    1.2651    1.1990 C   0  0  0  0  0  0  0  0  0  0  0  0
    1.9257    1.5415    2.0049 N   0  0  0  0  0  0  0  0  0  0  0  0
    0.6277    1.4112    1.5872 C   0  0  0  0  0  0  0  0  0  0  0  0
   -0.3038    1.6699    2.3438 O   0  0  0  0  0  0  0  0  0  0  0  0
   -3.6418    0.7084   -1.1559 H   0  0  0  0  0  0  0  0  0  0  0  0
   -4.3869    0.9689   -2.7457 H   0  0  0  0  0  0  0  0  0  0  0  0
   -3.4128    2.2682   -2.0153 H   0  0  0  0  0  0  0  0  0  0  0  0
   -2.4238    0.6961   -3.8412 H   0  0  0  0  0  0  0  0  0  0  0  0
   -1.3664   -2.5117   -1.0317 H   0  0  0  0  0  0  0  0  0  0  0  0
    0.0310   -1.8164   -0.2343 H   0  0  0  0  0  0  0  0  0  0  0  0
   -1.3155   -1.2015    1.7225 H   0  0  0  0  0  0  0  0  0  0  0  0
   -1.5417   -2.8981    1.3642 H   0  0  0  0  0  0  0  0  0  0  0  0
   -3.2869   -0.3012    2.5997 H   0  0  0  0  0  0  0  0  0  0  0  0
   -5.7340   -0.0171    2.5765 H   0  0  0  0  0  0  0  0  0  0  0  0
   -7.1234   -1.2434    0.9441 H   0  0  0  0  0  0  0  0  0  0  0  0
   -7.1690   -2.4350   -1.2568 H   0  0  0  0  0  0  0  0  0  0  0  0
   -6.6194   -3.9524   -0.5014 H   0  0  0  0  0  0  0  0  0  0  0  0
   -5.7262   -3.2429   -1.8699 H   0  0  0  0  0  0  0  0  0  0  0  0
   -3.5950   -3.1087   -0.6592 H   0  0  0  0  0  0  0  0  0  0  0  0
   -1.7310    0.8255    0.6016 H   0  0  0  0  0  0  0  0  0  0  0  0
   -1.2646    1.7215   -0.8325 H   0  0  0  0  0  0  0  0  0  0  0  0
    1.3240    0.3567   -1.6319 H   0  0  0  0  0  0  0  0  0  0  0  0
    3.7931    0.1844   -1.9374 H   0  0  0  0  0  0  0  0  0  0  0  0
    7.5060    1.2555   -2.6122 H   0  0  0  0  0  0  0  0  0  0  0  0
    5.7879    1.2209   -3.0380 H   0  0  0  0  0  0  0  0  0  0  0  0
    6.4035    2.4008   -1.8278 H   0  0  0  0  0  0  0  0  0  0  0  0
    8.0771    1.5699    2.8113 H   0  0  0  0  0  0  0  0  0  0  0  0
    6.5606    0.8247    3.3310 H   0  0  0  0  0  0  0  0  0  0  0  0
    6.6295    2.5804    2.9061 H   0  0  0  0  0  0  0  0  0  0  0  0
    4.4456    1.7594    2.7380 H   0  0  0  0  0  0  0  0  0  0  0  0
    2.0489    1.8564    2.9575 H   0  0  0  0  0  0  0  0  0  0  0  0
  1  2  1  0
  2  3  1  0
  3  4  2  0
  3  5  1  0
  5  6  1  0
  6  7  1  0
  7  8  1  0
  8  9  2  0
  9 10  1  0
 10 11  2  0
 11 12  1  0
 12 13  1  0
 12 14  2  0
  5 15  1  0
 15 16  1  0
 16 17  2  0
 17 18  1  0
 18 19  2  0
 19 20  1  0
 20 21  1  0
 21 22  1  0
 20 23  2  0
 23 24  1  0
 24 25  1  0
 23 26  1  0
 26 27  2  0
 27 28  1  0
 28 29  1  0
 29 30  2  0
 14  8  1  0
 29 16  1  0
 27 18  1  0
  1 31  1  0
  1 32  1  0
  1 33  1  0
  2 34  1  0
  6 35  1  0
  6 36  1  0
  7 37  1  0
  7 38  1  0
  9 39  1  0
 10 40  1  0
 11 41  1  0
 13 42  1  0
 13 43  1  0
 13 44  1  0
 14 45  1  0
 15 46  1  0
 15 47  1  0
 17 48  1  0
 19 49  1  0
 22 50  1  0
 22 51  1  0
 22 52  1  0
 25 53  1  0
 25 54  1  0
 25 55  1  0
 26 56  1  0
 28 57  1  0
M  END
$$$$
