
     RDKit          3D

 46 48  0  0  0  0  0  0  0  0999 V2000
   -3.8404   -1.7880   -2.0427 C   0  0  0  0  0  0  0  0  0  0  0  0
   -3.1354   -0.6866   -2.3386 C   0  0  0  0  0  0  0  0  0  0  0  0
   -1.9093   -0.1501   -1.6480 C   0  0  0  0  0  0  0  0  0  0  0  0
   -1.5317   -0.8382   -0.4279 N   0  0  0  0  0  0  0  0  0  0  0  0
   -0.6231   -1.8531   -0.2884 C   0  0  0  0  0  0  0  0  0  0  0  0
    0.3211   -2.5041   -1.5809 S   0  0  0  0  0  0  0  0  0  0  0  0
    1.8578   -2.9154   -0.6987 C   0  0  0  0  0  0  0  0  0  0  0  0
    2.7061   -1.6939   -0.4322 C   0  0  0  0  0  0  0  0  0  0  0  0
    3.5553   -1.1848   -1.4259 C   0  0  0  0  0  0  0  0  0  0  0  0
    4.3253   -0.0419   -1.1880 C   0  0  0  0  0  0  0  0  0  0  0  0
    4.2531    0.6125    0.0484 C   0  0  0  0  0  0  0  0  0  0  0  0
    5.0455    1.8352    0.3534 C   0  0  0  0  0  0  0  0  0  0  0  0
    4.9715    2.4424    1.4101 O   0  0  0  0  0  0  0  0  0  0  0  0
    5.8423    2.1639   -0.6946 O   0  0  0  0  0  0  0  0  0  0  0  0
    6.6401    3.3276   -0.4725 C   0  0  0  0  0  0  0  0  0  0  0  0
    3.4028    0.1101    1.0411 C   0  0  0  0  0  0  0  0  0  0  0  0
    2.6359   -1.0334    0.8026 C   0  0  0  0  0  0  0  0  0  0  0  0
   -0.6013   -2.2664    0.9568 N   0  0  0  0  0  0  0  0  0  0  0  0
   -1.4975   -1.5048    1.6639 N   0  0  0  0  0  0  0  0  0  0  0  0
   -2.0368   -0.6307    0.8369 C   0  0  0  0  0  0  0  0  0  0  0  0
   -3.0371    0.3088    1.2308 C   0  0  0  0  0  0  0  0  0  0  0  0
   -2.8015    2.0031    1.1406 S   0  0  0  0  0  0  0  0  0  0  0  0
   -4.3677    2.2531    1.7867 C   0  0  0  0  0  0  0  0  0  0  0  0
   -4.8579    3.4894    1.9813 N   0  0  0  0  0  0  0  0  0  0  0  0
   -5.0319    1.1681    2.0904 N   0  0  0  0  0  0  0  0  0  0  0  0
   -4.2724    0.0430    1.7988 C   0  0  0  0  0  0  0  0  0  0  0  0
   -4.8445   -1.2945    2.1089 C   0  0  0  0  0  0  0  0  0  0  0  0
   -3.5815   -2.4564   -1.2269 H   0  0  0  0  0  0  0  0  0  0  0  0
   -4.7138   -2.0570   -2.6314 H   0  0  0  0  0  0  0  0  0  0  0  0
   -3.4740   -0.0868   -3.1831 H   0  0  0  0  0  0  0  0  0  0  0  0
   -2.0649    0.9044   -1.4066 H   0  0  0  0  0  0  0  0  0  0  0  0
   -1.0619   -0.1703   -2.3406 H   0  0  0  0  0  0  0  0  0  0  0  0
    2.4267   -3.6135   -1.3240 H   0  0  0  0  0  0  0  0  0  0  0  0
    1.6442   -3.4554    0.2307 H   0  0  0  0  0  0  0  0  0  0  0  0
    3.6208   -1.6752   -2.3955 H   0  0  0  0  0  0  0  0  0  0  0  0
    4.9745    0.3267   -1.9783 H   0  0  0  0  0  0  0  0  0  0  0  0
    7.3140    3.1749    0.3764 H   0  0  0  0  0  0  0  0  0  0  0  0
    7.2444    3.4996   -1.3674 H   0  0  0  0  0  0  0  0  0  0  0  0
    6.0037    4.2033   -0.3108 H   0  0  0  0  0  0  0  0  0  0  0  0
    3.3306    0.6071    2.0072 H   0  0  0  0  0  0  0  0  0  0  0  0
    1.9765   -1.4017    1.5884 H   0  0  0  0  0  0  0  0  0  0  0  0
   -4.1823    4.2279    2.1357 H   0  0  0  0  0  0  0  0  0  0  0  0
   -5.6411    3.5256    2.6255 H   0  0  0  0  0  0  0  0  0  0  0  0
   -4.8359   -1.9350    1.2215 H   0  0  0  0  0  0  0  0  0  0  0  0
   -4.2674   -1.7830    2.9001 H   0  0  0  0  0  0  0  0  0  0  0  0
   -5.8807   -1.2063    2.4503 H   0  0  0  0  0  0  0  0  0  0  0  0
  1  2  2  0
  2  3  1  0
  3  4  1  0
  4  5  1  0
  5  6  1  0
  6  7  1  0
  7  8  1  0
  8  9  2  0
  9 10  1  0
 10 11  2  0
 11 12  1  0
 12 13  2  0
 12 14  1  0
 14 15  1  0
 11 16  1  0
 16 17  2  0
  5 18  2  0
 18 19  1  0
 19 20  2  0
 20 21  1  0
 21 22  1  0
 22 23  1  0
 23 24  1  0
 23 25  2  0
 25 26  1  0
 26 27  1  0
 20  4  1  0
 26 21  2  0
 17  8  1  0
  1 28  1  0
  1 29  1  0
  2 30  1  0
  3 31  1  0
  3 32  1  0
  7 33  1  0
  7 34  1  0
  9 35  1  0
 10 36  1  0
 15 37  1  0
 15 38  1  0
 15 39  1  0
 16 40  1  0
 17 41  1  0
 24 42  1  0
 24 43  1  0
 27 44  1  0
 27 45  1  0
 27 46  1  0
M  END
$$$$
