
     RDKit          3D

 57 60  0  0  0  0  0  0  0  0999 V2000
   -7.8554    1.3397    3.4700 C   0  0  0  0  0  0  0  0  0  0  0  0
   -8.0813    0.4470    2.2597 C   0  0  0  0  0  0  0  0  0  0  0  0
   -6.8176    0.2662    1.4581 C   0  0  0  0  0  0  0  0  0  0  0  0
   -5.8648   -0.6858    1.8353 C   0  0  0  0  0  0  0  0  0  0  0  0
   -4.6798   -0.8343    1.1060 C   0  0  0  0  0  0  0  0  0  0  0  0
   -4.4055   -0.0352   -0.0189 C   0  0  0  0  0  0  0  0  0  0  0  0
   -3.1483   -0.1629   -0.7834 C   0  0  0  0  0  0  0  0  0  0  0  0
   -1.9383   -0.4682   -0.1865 C   0  0  0  0  0  0  0  0  0  0  0  0
   -0.7997   -0.5444   -0.9902 C   0  0  0  0  0  0  0  0  0  0  0  0
    0.4753   -0.7930   -0.2792 C   0  0  0  0  0  0  0  0  0  0  0  0
    0.5614   -1.8024    0.4083 O   0  0  0  0  0  0  0  0  0  0  0  0
    1.4169    0.2051   -0.4495 N   0  0  0  0  0  0  0  0  0  0  0  0
    2.6899    0.2916    0.1502 C   0  0  0  0  0  0  0  0  0  0  0  0
    3.4949    1.3803   -0.2164 C   0  0  0  0  0  0  0  0  0  0  0  0
    4.7649    1.5521    0.3421 C   0  0  0  0  0  0  0  0  0  0  0  0
    5.2396    0.6256    1.2728 C   0  0  0  0  0  0  0  0  0  0  0  0
    6.8178    0.8829    2.0421 S   0  0  0  0  0  6  0  0  0  0  0  0
    6.7821    0.3648    3.3915 O   0  0  0  0  0  0  0  0  0  0  0  0
    7.1997    2.2600    1.7923 O   0  0  0  0  0  0  0  0  0  0  0  0
    7.8586   -0.0213    1.1145 N   0  0  0  0  0  0  0  0  0  0  0  0
    7.9326   -1.4193    1.1102 C   0  0  0  0  0  0  0  0  0  0  0  0
    9.0693   -1.9676    0.2958 C   0  0  0  0  0  0  0  0  0  0  0  0
    7.1256   -2.1452    1.6729 O   0  0  0  0  0  0  0  0  0  0  0  0
    4.4440   -0.4536    1.6560 C   0  0  0  0  0  0  0  0  0  0  0  0
    3.1772   -0.6253    1.0842 C   0  0  0  0  0  0  0  0  0  0  0  0
   -0.8756   -0.3699   -2.3877 C   0  0  0  0  0  0  0  0  0  0  0  0
    0.2113   -0.5107   -3.2886 C   0  0  0  0  0  0  0  0  0  0  0  0
    0.0420   -0.3004   -4.6571 C   0  0  0  0  0  0  0  0  0  0  0  0
   -1.2123    0.0365   -5.1441 C   0  0  0  0  0  0  0  0  0  0  0  0
   -2.2891    0.1531   -4.2612 C   0  0  0  0  0  0  0  0  0  0  0  0
   -2.1475   -0.0488   -2.8957 C   0  0  0  0  0  0  0  0  0  0  0  0
   -3.2366    0.0704   -2.1179 N   0  0  0  0  0  0  0  0  0  0  0  0
   -5.3795    0.9085   -0.3907 C   0  0  0  0  0  0  0  0  0  0  0  0
   -6.5647    1.0633    0.3378 C   0  0  0  0  0  0  0  0  0  0  0  0
   -8.7991    1.5151    3.9974 H   0  0  0  0  0  0  0  0  0  0  0  0
   -7.4441    2.3119    3.1765 H   0  0  0  0  0  0  0  0  0  0  0  0
   -7.1532    0.8791    4.1741 H   0  0  0  0  0  0  0  0  0  0  0  0
   -8.4545   -0.5341    2.5827 H   0  0  0  0  0  0  0  0  0  0  0  0
   -8.8656    0.8770    1.6254 H   0  0  0  0  0  0  0  0  0  0  0  0
   -6.0361   -1.3202    2.7031 H   0  0  0  0  0  0  0  0  0  0  0  0
   -3.9737   -1.5988    1.4262 H   0  0  0  0  0  0  0  0  0  0  0  0
   -1.8581   -0.6179    0.8856 H   0  0  0  0  0  0  0  0  0  0  0  0
    1.1589    0.9763   -1.0540 H   0  0  0  0  0  0  0  0  0  0  0  0
    3.1411    2.1161   -0.9344 H   0  0  0  0  0  0  0  0  0  0  0  0
    5.3638    2.4139    0.0564 H   0  0  0  0  0  0  0  0  0  0  0  0
    8.5353    0.5445    0.6112 H   0  0  0  0  0  0  0  0  0  0  0  0
    9.2245   -3.0205    0.5460 H   0  0  0  0  0  0  0  0  0  0  0  0
    9.9900   -1.4189    0.5113 H   0  0  0  0  0  0  0  0  0  0  0  0
    8.8273   -1.8834   -0.7685 H   0  0  0  0  0  0  0  0  0  0  0  0
    4.7945   -1.1694    2.3979 H   0  0  0  0  0  0  0  0  0  0  0  0
    2.5910   -1.4813    1.4038 H   0  0  0  0  0  0  0  0  0  0  0  0
    1.1981   -0.8031   -2.9336 H   0  0  0  0  0  0  0  0  0  0  0  0
    0.8840   -0.4071   -5.3395 H   0  0  0  0  0  0  0  0  0  0  0  0
   -1.3629    0.1987   -6.2087 H   0  0  0  0  0  0  0  0  0  0  0  0
   -3.2728    0.4031   -4.6540 H   0  0  0  0  0  0  0  0  0  0  0  0
   -5.2121    1.5446   -1.2593 H   0  0  0  0  0  0  0  0  0  0  0  0
   -7.2833    1.8156    0.0227 H   0  0  0  0  0  0  0  0  0  0  0  0
  1  2  1  0
  2  3  1  0
  3  4  2  0
  4  5  1  0
  5  6  2  0
  6  7  1  0
  7  8  2  0
  8  9  1  0
  9 10  1  0
 10 11  2  0
 10 12  1  0
 12 13  1  0
 13 14  2  0
 14 15  1  0
 15 16  2  0
 16 17  1  0
 17 18  2  0
 17 19  2  0
 17 20  1  0
 20 21  1  0
 21 22  1  0
 21 23  2  0
 16 24  1  0
 24 25  2  0
  9 26  2  0
 26 27  1  0
 27 28  2  0
 28 29  1  0
 29 30  2  0
 30 31  1  0
 31 32  2  0
  6 33  1  0
 33 34  2  0
 34  3  1  0
 32  7  1  0
 25 13  1  0
 31 26  1  0
  1 35  1  0
  1 36  1  0
  1 37  1  0
  2 38  1  0
  2 39  1  0
  4 40  1  0
  5 41  1  0
  8 42  1  0
 12 43  1  0
 14 44  1  0
 15 45  1  0
 20 46  1  0
 22 47  1  0
 22 48  1  0
 22 49  1  0
 24 50  1  0
 25 51  1  0
 27 52  1  0
 28 53  1  0
 29 54  1  0
 30 55  1  0
 33 56  1  0
 34 57  1  0
M  END
$$$$
