
     RDKit          3D

 43 43  0  0  0  0  0  0  0  0999 V2000
   -6.7157    1.3558    2.3923 C   0  0  0  0  0  0  0  0  0  0  0  0
   -5.6610    1.2096    1.3394 C   0  0  0  0  0  0  0  0  0  0  0  0
   -5.6577    2.4710    0.1567 Cl  0  0  0  0  0  0  0  0  0  0  0  0
   -4.7805    0.1965    1.2988 C   0  0  0  0  0  0  0  0  0  0  0  0
   -3.7442   -0.0558    0.2474 C   0  0  0  0  0  0  0  0  0  0  0  0
   -2.2876    0.2185    0.6578 N   0  0  0  0  0  4  0  0  0  0  0  0
   -1.8723   -0.6460    1.8369 C   0  0  0  0  0  0  0  0  0  0  0  0
   -2.1080    1.6946    1.0135 C   0  0  0  0  0  0  0  0  0  0  0  0
   -1.3919   -0.1421   -0.5842 C   0  0  0  0  0  0  0  0  0  0  0  0
    0.1120    0.0575   -0.4212 C   0  0  0  0  0  0  0  0  0  0  0  0
    0.6307    1.1217   -0.1154 O   0  0  0  0  0  0  0  0  0  0  0  0
    0.7693   -1.1108   -0.6357 O   0  0  0  0  0  0  0  0  0  0  0  0
    2.2032   -1.0693   -0.4828 C   0  0  0  0  0  0  0  0  0  0  0  0
    2.8672   -0.6098   -1.7786 C   0  0  0  0  0  0  0  0  0  0  0  0
    4.3686   -0.6284   -1.6752 C   0  0  0  0  0  0  0  0  0  0  0  0
    5.0801   -1.8235   -1.8534 C   0  0  0  0  0  0  0  0  0  0  0  0
    6.4707   -1.8434   -1.7342 C   0  0  0  0  0  0  0  0  0  0  0  0
    7.1621   -0.6712   -1.4361 C   0  0  0  0  0  0  0  0  0  0  0  0
    6.4642    0.5224   -1.2565 C   0  0  0  0  0  0  0  0  0  0  0  0
    5.0733    0.5446   -1.3723 C   0  0  0  0  0  0  0  0  0  0  0  0
   -6.6714    0.5457    3.1291 H   0  0  0  0  0  0  0  0  0  0  0  0
   -6.5948    2.3017    2.9283 H   0  0  0  0  0  0  0  0  0  0  0  0
   -7.7117    1.3343    1.9391 H   0  0  0  0  0  0  0  0  0  0  0  0
   -4.8603   -0.5702    2.0685 H   0  0  0  0  0  0  0  0  0  0  0  0
   -3.9270    0.5252   -0.6643 H   0  0  0  0  0  0  0  0  0  0  0  0
   -3.7942   -1.1159   -0.0408 H   0  0  0  0  0  0  0  0  0  0  0  0
   -2.4749   -0.3723    2.7072 H   0  0  0  0  0  0  0  0  0  0  0  0
   -0.8154   -0.4656    2.0531 H   0  0  0  0  0  0  0  0  0  0  0  0
   -2.0336   -1.6940    1.5712 H   0  0  0  0  0  0  0  0  0  0  0  0
   -2.8040    1.9510    1.8174 H   0  0  0  0  0  0  0  0  0  0  0  0
   -1.0912    1.8553    1.3771 H   0  0  0  0  0  0  0  0  0  0  0  0
   -2.3076    2.2939    0.1194 H   0  0  0  0  0  0  0  0  0  0  0  0
   -1.6022   -1.1914   -0.8158 H   0  0  0  0  0  0  0  0  0  0  0  0
   -1.7341    0.4733   -1.4265 H   0  0  0  0  0  0  0  0  0  0  0  0
    2.4838   -0.4394    0.3716 H   0  0  0  0  0  0  0  0  0  0  0  0
    2.5172   -2.0882   -0.2334 H   0  0  0  0  0  0  0  0  0  0  0  0
    2.5190    0.3968   -2.0462 H   0  0  0  0  0  0  0  0  0  0  0  0
    2.5432   -1.2467   -2.6146 H   0  0  0  0  0  0  0  0  0  0  0  0
    4.5600   -2.7482   -2.0870 H   0  0  0  0  0  0  0  0  0  0  0  0
    7.0179   -2.7746   -1.8765 H   0  0  0  0  0  0  0  0  0  0  0  0
    8.2457   -0.6873   -1.3471 H   0  0  0  0  0  0  0  0  0  0  0  0
    7.0060    1.4383   -1.0272 H   0  0  0  0  0  0  0  0  0  0  0  0
    4.5471    1.4863   -1.2279 H   0  0  0  0  0  0  0  0  0  0  0  0
  1  2  1  0
  2  3  1  0
  2  4  2  3
  4  5  1  0
  5  6  1  0
  6  7  1  0
  6  8  1  0
  6  9  1  0
  9 10  1  0
 10 11  2  0
 10 12  1  0
 12 13  1  0
 13 14  1  0
 14 15  1  0
 15 16  2  0
 16 17  1  0
 17 18  2  0
 18 19  1  0
 19 20  2  0
 20 15  1  0
  1 21  1  0
  1 22  1  0
  1 23  1  0
  4 24  1  0
  5 25  1  0
  5 26  1  0
  7 27  1  0
  7 28  1  0
  7 29  1  0
  8 30  1  0
  8 31  1  0
  8 32  1  0
  9 33  1  0
  9 34  1  0
 13 35  1  0
 13 36  1  0
 14 37  1  0
 14 38  1  0
 16 39  1  0
 17 40  1  0
 18 41  1  0
 19 42  1  0
 20 43  1  0
M  CHG  1   6   1
M  END
$$$$
