
     RDKit          3D

 28 29  0  0  0  0  0  0  0  0999 V2000
    4.6373   -1.5633    1.3141 C   0  0  0  0  0  0  0  0  0  0  0  0
    4.1128   -0.1553    1.5242 C   0  0  0  0  0  0  0  0  0  0  0  0
    2.8126   -0.0181    0.9329 O   0  0  0  0  0  0  0  0  0  0  0  0
    2.7993    0.3211   -0.3884 C   0  0  0  0  0  0  0  0  0  0  0  0
    3.7915    0.5049   -1.0794 O   0  0  0  0  0  0  0  0  0  0  0  0
    1.4330    0.4247   -0.8406 C   0  0  0  0  0  0  0  0  0  0  0  0
    0.9614    0.7442   -2.1028 C   0  0  0  0  0  0  0  0  0  0  0  0
   -0.4550    0.7204   -2.0628 C   0  0  0  0  0  0  0  0  0  0  0  0
   -0.8285    0.3867   -0.7773 C   0  0  0  0  0  0  0  0  0  0  0  0
   -2.1205    0.2235   -0.1906 C   0  0  0  0  0  0  0  0  0  0  0  0
   -3.3676    0.3582   -0.7622 C   0  0  0  0  0  0  0  0  0  0  0  0
   -4.2829    0.0825    0.2771 C   0  0  0  0  0  0  0  0  0  0  0  0
   -5.7612    0.0809    0.2274 C   0  0  0  0  0  0  0  0  0  0  0  0
   -3.6467   -0.2041    1.4171 N   0  0  0  0  0  0  0  0  0  0  0  0
   -2.2993   -0.1159    1.1243 O   0  0  0  0  0  0  0  0  0  0  0  0
    0.3236    0.2114   -0.0514 N   0  0  0  0  0  0  0  0  0  0  0  0
    3.9302   -2.2999    1.7096 H   0  0  0  0  0  0  0  0  0  0  0  0
    5.6015   -1.6963    1.8128 H   0  0  0  0  0  0  0  0  0  0  0  0
    4.7619   -1.7817    0.2488 H   0  0  0  0  0  0  0  0  0  0  0  0
    4.8102    0.5959    1.1361 H   0  0  0  0  0  0  0  0  0  0  0  0
    3.9978    0.0377    2.5959 H   0  0  0  0  0  0  0  0  0  0  0  0
    1.5834    0.9704   -2.9611 H   0  0  0  0  0  0  0  0  0  0  0  0
   -1.1223    0.9263   -2.8898 H   0  0  0  0  0  0  0  0  0  0  0  0
   -3.5859    0.6191   -1.7865 H   0  0  0  0  0  0  0  0  0  0  0  0
   -6.1228    0.3346   -0.7743 H   0  0  0  0  0  0  0  0  0  0  0  0
   -6.1543   -0.9070    0.4882 H   0  0  0  0  0  0  0  0  0  0  0  0
   -6.1710    0.8136    0.9301 H   0  0  0  0  0  0  0  0  0  0  0  0
    0.3617   -0.0403    0.9288 H   0  0  0  0  0  0  0  0  0  0  0  0
  1  2  1  0
  2  3  1  0
  3  4  1  0
  4  5  2  0
  4  6  1  0
  6  7  2  0
  7  8  1  0
  8  9  2  0
  9 10  1  0
 10 11  2  0
 11 12  1  0
 12 13  1  0
 12 14  2  0
 14 15  1  0
  9 16  1  0
 16  6  1  0
 15 10  1  0
  1 17  1  0
  1 18  1  0
  1 19  1  0
  2 20  1  0
  2 21  1  0
  7 22  1  0
  8 23  1  0
 11 24  1  0
 13 25  1  0
 13 26  1  0
 13 27  1  0
 16 28  1  0
M  END
$$$$
