
     RDKit          3D

 36 37  0  0  0  0  0  0  0  0999 V2000
    0.1601   -0.4941   -0.6059 O   0  0  0  0  0  0  0  0  0  0  0  0
    0.4118    0.6612   -0.2764 C   0  0  0  0  0  0  0  0  0  0  0  0
   -0.6089    1.6064    0.3548 C   0  0  0  0  0  0  0  0  0  0  0  0
   -1.8667    0.9558    0.5162 O   0  0  0  0  0  0  0  0  0  0  0  0
   -2.8208    1.7338    1.0751 C   0  0  0  0  0  0  0  0  0  0  0  0
   -2.6742    2.8924    1.4305 O   0  0  0  0  0  0  0  0  0  0  0  0
   -4.0986    0.9818    1.2052 C   0  0  0  0  0  0  0  0  0  0  0  0
   -5.1998    1.6398    1.7720 C   0  0  0  0  0  0  0  0  0  0  0  0
   -6.4216    0.9764    1.9158 C   0  0  0  0  0  0  0  0  0  0  0  0
   -6.5434   -0.3462    1.4927 C   0  0  0  0  0  0  0  0  0  0  0  0
   -8.1952   -1.2442    1.6867 Br  0  0  0  0  0  0  0  0  0  0  0  0
   -5.4565   -1.0119    0.9275 C   0  0  0  0  0  0  0  0  0  0  0  0
   -4.2336   -0.3492    0.7831 C   0  0  0  0  0  0  0  0  0  0  0  0
    1.6596    1.2306   -0.4438 N   0  0  0  0  0  0  0  0  0  0  0  0
    2.7715    0.4812   -1.0026 C   0  0  0  0  0  0  0  0  0  0  0  0
    3.3881   -0.5066   -0.0053 C   0  0  0  0  0  0  0  0  0  0  0  0
    4.6370   -1.0641   -0.4925 N   0  0  0  0  0  0  0  0  0  0  0  0
    4.7198   -2.2109   -1.2414 C   0  0  0  0  0  0  0  0  0  0  0  0
    3.5797   -2.9003   -1.5170 O   0  0  0  0  0  0  0  0  0  0  0  0
    5.9577   -2.5283   -1.6372 C   0  0  0  0  0  0  0  0  0  0  0  0
    7.1152   -1.3553   -1.0834 S   0  0  0  0  0  0  0  0  0  0  0  0
    5.8382   -0.4000   -0.3065 C   0  0  0  0  0  0  0  0  0  0  0  0
    6.0320    0.6614    0.2628 O   0  0  0  0  0  0  0  0  0  0  0  0
   -0.7219    2.4737   -0.3062 H   0  0  0  0  0  0  0  0  0  0  0  0
   -0.2242    1.9173    1.3331 H   0  0  0  0  0  0  0  0  0  0  0  0
   -5.1106    2.6728    2.1043 H   0  0  0  0  0  0  0  0  0  0  0  0
   -7.2667    1.4989    2.3569 H   0  0  0  0  0  0  0  0  0  0  0  0
   -5.5481   -2.0434    0.5963 H   0  0  0  0  0  0  0  0  0  0  0  0
   -3.3959   -0.8842    0.3396 H   0  0  0  0  0  0  0  0  0  0  0  0
    1.8447    2.1534   -0.0691 H   0  0  0  0  0  0  0  0  0  0  0  0
    2.4241   -0.0521   -1.8950 H   0  0  0  0  0  0  0  0  0  0  0  0
    3.5146    1.2182   -1.3265 H   0  0  0  0  0  0  0  0  0  0  0  0
    3.5965    0.0194    0.9352 H   0  0  0  0  0  0  0  0  0  0  0  0
    2.6886   -1.3137    0.2407 H   0  0  0  0  0  0  0  0  0  0  0  0
    3.8072   -3.6855   -2.0425 H   0  0  0  0  0  0  0  0  0  0  0  0
    6.2402   -3.3845   -2.2316 H   0  0  0  0  0  0  0  0  0  0  0  0
  1  2  2  0
  2  3  1  0
  3  4  1  0
  4  5  1  0
  5  6  2  0
  5  7  1  0
  7  8  2  0
  8  9  1  0
  9 10  2  0
 10 11  1  0
 10 12  1  0
 12 13  2  0
  2 14  1  0
 14 15  1  0
 15 16  1  0
 16 17  1  0
 17 18  1  0
 18 19  1  0
 18 20  2  0
 20 21  1  0
 21 22  1  0
 22 23  2  0
 13  7  1  0
 22 17  1  0
  3 24  1  0
  3 25  1  0
  8 26  1  0
  9 27  1  0
 12 28  1  0
 13 29  1  0
 14 30  1  0
 15 31  1  0
 15 32  1  0
 16 33  1  0
 16 34  1  0
 19 35  1  0
 20 36  1  0
M  END
$$$$
