
     RDKit          3D

 68 71  0  0  0  0  0  0  0  0999 V2000
   -4.2128   -5.4741    0.2097 C   0  0  0  0  0  0  0  0  0  0  0  0
   -3.5025   -4.1537    0.1680 C   0  0  0  0  0  0  0  0  0  0  0  0
   -3.5353   -3.3642   -0.9859 C   0  0  0  0  0  0  0  0  0  0  0  0
   -2.8958   -2.1217   -1.0174 C   0  0  0  0  0  0  0  0  0  0  0  0
   -2.2242   -1.6332    0.1135 C   0  0  0  0  0  0  0  0  0  0  0  0
   -1.5229   -0.2790    0.1426 C   0  0  0  0  0  0  0  0  0  0  0  0
   -2.1292    0.7649   -0.8396 C   0  0  0  0  0  0  0  0  0  0  0  0
   -1.5476    1.1625   -1.8506 O   0  0  0  0  0  0  0  0  0  0  0  0
   -3.3955    1.2039   -0.4919 N   0  0  0  0  0  0  0  0  0  0  0  0
   -4.1428    2.1103   -1.3326 C   0  0  0  0  0  0  0  0  0  0  0  0
   -4.7966    1.4149   -2.5308 C   0  0  0  0  0  0  0  0  0  0  0  0
   -6.0589    2.2227   -2.8389 C   0  0  0  0  0  0  0  0  0  0  0  0
   -6.1615    3.2870   -1.7480 C   0  0  0  0  0  0  0  0  0  0  0  0
   -5.3235    2.7419   -0.6051 C   0  0  0  0  0  0  0  0  0  0  0  0
   -0.0564   -0.3601   -0.0144 N   0  0  0  0  0  0  0  0  0  0  0  0
    0.4640   -1.0193   -1.2189 C   0  0  0  0  0  0  0  0  0  0  0  0
    1.1927   -2.2714   -0.8805 C   0  0  0  0  0  0  0  0  0  0  0  0
    2.5304   -2.6090   -0.8002 C   0  0  0  0  0  0  0  0  0  0  0  0
    2.5785   -3.9887   -0.4776 C   0  0  0  0  0  0  0  0  0  0  0  0
    1.2724   -4.4063   -0.3896 C   0  0  0  0  0  0  0  0  0  0  0  0
    0.4280   -3.3739   -0.6368 O   0  0  0  0  0  0  0  0  0  0  0  0
    0.6890    0.5401    0.7425 C   0  0  0  0  0  0  0  0  0  0  0  0
    0.1615    1.2820    1.5769 O   0  0  0  0  0  0  0  0  0  0  0  0
    2.1958    0.5551    0.5617 C   0  0  0  0  0  0  0  0  0  0  0  0
    2.8307    1.7333    1.2955 C   0  0  0  0  0  0  0  0  0  0  0  0
    4.3423    1.7146    1.1858 C   0  0  0  0  0  0  0  0  0  0  0  0
    4.9513    0.8054    0.6304 O   0  0  0  0  0  0  0  0  0  0  0  0
    4.9068    2.8158    1.7872 N   0  0  0  0  0  0  0  0  0  0  0  0
    6.2568    3.0412    1.9350 C   0  0  0  0  0  0  0  0  0  0  0  0
    7.3511    2.2356    1.5453 C   0  0  0  0  0  0  0  0  0  0  0  0
    8.4574    2.9314    1.9686 C   0  0  0  0  0  0  0  0  0  0  0  0
    9.9094    2.6875    1.9146 C   0  0  0  0  0  0  0  0  0  0  0  0
    8.0540    4.0737    2.5837 O   0  0  0  0  0  0  0  0  0  0  0  0
    6.6730    4.1457    2.5619 N   0  0  0  0  0  0  0  0  0  0  0  0
   -2.1963   -2.4318    1.2683 C   0  0  0  0  0  0  0  0  0  0  0  0
   -2.8350   -3.6732    1.2983 C   0  0  0  0  0  0  0  0  0  0  0  0
   -5.2400   -5.3371    0.5618 H   0  0  0  0  0  0  0  0  0  0  0  0
   -4.2370   -5.9369   -0.7825 H   0  0  0  0  0  0  0  0  0  0  0  0
   -3.6981   -6.1733    0.8772 H   0  0  0  0  0  0  0  0  0  0  0  0
   -4.0528   -3.7152   -1.8765 H   0  0  0  0  0  0  0  0  0  0  0  0
   -2.9304   -1.5494   -1.9421 H   0  0  0  0  0  0  0  0  0  0  0  0
   -1.7383    0.1346    1.1383 H   0  0  0  0  0  0  0  0  0  0  0  0
   -3.8958    0.6854    0.2208 H   0  0  0  0  0  0  0  0  0  0  0  0
   -3.4630    2.8937   -1.6950 H   0  0  0  0  0  0  0  0  0  0  0  0
   -4.1190    1.3713   -3.3901 H   0  0  0  0  0  0  0  0  0  0  0  0
   -5.0737    0.3812   -2.2894 H   0  0  0  0  0  0  0  0  0  0  0  0
   -6.9363    1.5667   -2.8179 H   0  0  0  0  0  0  0  0  0  0  0  0
   -6.0176    2.6824   -3.8317 H   0  0  0  0  0  0  0  0  0  0  0  0
   -5.7343    4.2289   -2.1106 H   0  0  0  0  0  0  0  0  0  0  0  0
   -7.1963    3.4815   -1.4497 H   0  0  0  0  0  0  0  0  0  0  0  0
   -5.0180    3.5187    0.0999 H   0  0  0  0  0  0  0  0  0  0  0  0
   -5.8920    1.9892   -0.0484 H   0  0  0  0  0  0  0  0  0  0  0  0
   -0.3528   -1.2514   -1.9089 H   0  0  0  0  0  0  0  0  0  0  0  0
    1.1201   -0.3285   -1.7576 H   0  0  0  0  0  0  0  0  0  0  0  0
    3.3692   -1.9456   -0.9630 H   0  0  0  0  0  0  0  0  0  0  0  0
    3.4565   -4.6033   -0.3339 H   0  0  0  0  0  0  0  0  0  0  0  0
    0.7974   -5.3539   -0.1771 H   0  0  0  0  0  0  0  0  0  0  0  0
    2.4593    0.6260   -0.4966 H   0  0  0  0  0  0  0  0  0  0  0  0
    2.5892   -0.3825    0.9669 H   0  0  0  0  0  0  0  0  0  0  0  0
    2.5693    1.7065    2.3613 H   0  0  0  0  0  0  0  0  0  0  0  0
    2.4576    2.6761    0.8776 H   0  0  0  0  0  0  0  0  0  0  0  0
    4.3239    3.5291    2.2035 H   0  0  0  0  0  0  0  0  0  0  0  0
    7.3409    1.2764    1.0440 H   0  0  0  0  0  0  0  0  0  0  0  0
   10.3005    2.4959    2.9200 H   0  0  0  0  0  0  0  0  0  0  0  0
   10.4317    3.5580    1.5011 H   0  0  0  0  0  0  0  0  0  0  0  0
   10.1383    1.8205    1.2860 H   0  0  0  0  0  0  0  0  0  0  0  0
   -1.6669   -2.0884    2.1555 H   0  0  0  0  0  0  0  0  0  0  0  0
   -2.7993   -4.2663    2.2088 H   0  0  0  0  0  0  0  0  0  0  0  0
  1  2  1  0
  2  3  2  0
  3  4  1  0
  4  5  2  0
  5  6  1  0
  6  7  1  0
  7  8  2  0
  7  9  1  0
  9 10  1  0
 10 11  1  0
 11 12  1  0
 12 13  1  0
 13 14  1  0
  6 15  1  0
 15 16  1  0
 16 17  1  0
 17 18  2  0
 18 19  1  0
 19 20  2  0
 20 21  1  0
 15 22  1  0
 22 23  2  0
 22 24  1  0
 24 25  1  0
 25 26  1  0
 26 27  2  0
 26 28  1  0
 28 29  1  0
 29 30  1  0
 30 31  2  0
 31 32  1  0
 31 33  1  0
 33 34  1  0
  5 35  1  0
 35 36  2  0
 36  2  1  0
 14 10  1  0
 21 17  1  0
 34 29  2  0
  1 37  1  0
  1 38  1  0
  1 39  1  0
  3 40  1  0
  4 41  1  0
  6 42  1  0
  9 43  1  0
 10 44  1  0
 11 45  1  0
 11 46  1  0
 12 47  1  0
 12 48  1  0
 13 49  1  0
 13 50  1  0
 14 51  1  0
 14 52  1  0
 16 53  1  0
 16 54  1  0
 18 55  1  0
 19 56  1  0
 20 57  1  0
 24 58  1  0
 24 59  1  0
 25 60  1  0
 25 61  1  0
 28 62  1  0
 30 63  1  0
 32 64  1  0
 32 65  1  0
 32 66  1  0
 35 67  1  0
 36 68  1  0
M  END
$$$$
