
     RDKit          3D

 67 72  0  0  0  0  0  0  0  0999 V2000
   -4.4347    4.8908   -1.5216 C   0  0  0  0  0  0  0  0  0  0  0  0
   -3.5106    3.7458   -1.7882 C   0  0  0  0  0  0  0  0  0  0  0  0
   -3.2910    3.2775   -3.0926 C   0  0  0  0  0  0  0  0  0  0  0  0
   -2.4170    2.2032   -3.3461 C   0  0  0  0  0  0  0  0  0  0  0  0
   -1.7429    1.5671   -2.3023 C   0  0  0  0  0  0  0  0  0  0  0  0
   -1.9626    2.0199   -1.0113 C   0  0  0  0  0  0  0  0  0  0  0  0
   -2.8274    3.0961   -0.7720 C   0  0  0  0  0  0  0  0  0  0  0  0
   -2.8629    3.3893    0.5899 N   0  0  0  0  0  0  0  0  0  0  0  0
   -2.0348    2.5332    1.3200 C   0  0  0  0  0  0  0  0  0  0  0  0
   -1.8554    2.5944    2.5283 O   0  0  0  0  0  0  0  0  0  0  0  0
   -1.3921    1.5629    0.2957 C   0  0  1  0  0  0  0  0  0  0  0  0
   -1.7461    0.1419    0.5385 C   0  0  0  0  0  0  0  0  0  0  0  0
   -0.6465   -0.5565    1.0656 C   0  0  0  0  0  0  0  0  0  0  0  0
   -1.0199   -1.8520    1.3074 C   0  0  0  0  0  0  0  0  0  0  0  0
   -0.3156   -2.8716    1.7912 O   0  0  0  0  0  0  0  0  0  0  0  0
   -2.3558   -1.9836    0.8722 N   0  0  0  0  0  0  0  0  0  0  0  0
   -3.1112   -3.1979    0.7983 C   0  0  0  0  0  0  0  0  0  0  0  0
   -2.8913   -4.2387    1.7084 C   0  0  0  0  0  0  0  0  0  0  0  0
   -3.6407   -5.4158    1.6268 C   0  0  0  0  0  0  0  0  0  0  0  0
   -4.6048   -5.5670    0.6324 C   0  0  0  0  0  0  0  0  0  0  0  0
   -4.8188   -4.5439   -0.2879 C   0  0  0  0  0  0  0  0  0  0  0  0
   -4.0748   -3.3641   -0.2095 C   0  0  0  0  0  0  0  0  0  0  0  0
   -2.8211   -0.7033    0.5030 C   0  0  0  0  0  0  0  0  0  0  0  0
   -4.0919   -0.4039    0.2368 O   0  0  0  0  0  0  0  0  0  0  0  0
    0.5049    0.3593    1.2278 C   0  0  1  0  0  0  0  0  0  0  0  0
    1.8738   -0.1159    0.7395 C   0  0  0  0  0  0  0  0  0  0  0  0
    2.8146    1.0025    0.5388 N   0  0  0  0  0  0  0  0  0  0  0  0
    4.1270    0.7943    0.1682 C   0  0  0  0  0  0  0  0  0  0  0  0
    4.9571    1.6883    0.0747 O   0  0  0  0  0  0  0  0  0  0  0  0
    4.3776   -0.5195   -0.0701 O   0  0  0  0  0  0  0  0  0  0  0  0
    5.6923   -0.9667   -0.4885 C   0  0  0  0  0  0  0  0  0  0  0  0
    6.0811   -0.3648   -1.8431 C   0  0  0  0  0  0  0  0  0  0  0  0
    5.5493   -2.4879   -0.6517 C   0  0  0  0  0  0  0  0  0  0  0  0
    6.7463   -0.6883    0.5886 C   0  0  0  0  0  0  0  0  0  0  0  0
    2.3621    2.3512    0.9063 C   0  0  0  0  0  0  0  0  0  0  0  0
    0.9029    2.6724    0.4759 C   0  0  0  0  0  0  0  0  0  0  0  0
    0.0817    1.4832    0.3578 N   0  0  0  0  0  0  0  0  0  0  0  0
   -5.2452    4.5774   -0.8556 H   0  0  0  0  0  0  0  0  0  0  0  0
   -4.8890    5.2638   -2.4455 H   0  0  0  0  0  0  0  0  0  0  0  0
   -3.8883    5.7198   -1.0604 H   0  0  0  0  0  0  0  0  0  0  0  0
   -3.7986    3.7453   -3.9342 H   0  0  0  0  0  0  0  0  0  0  0  0
   -2.2663    1.8641   -4.3686 H   0  0  0  0  0  0  0  0  0  0  0  0
   -1.0674    0.7394   -2.4946 H   0  0  0  0  0  0  0  0  0  0  0  0
   -3.4084    4.1187    1.0207 H   0  0  0  0  0  0  0  0  0  0  0  0
    0.5780   -2.5529    2.0022 H   0  0  0  0  0  0  0  0  0  0  0  0
   -2.1662   -4.1482    2.5124 H   0  0  0  0  0  0  0  0  0  0  0  0
   -3.4697   -6.2151    2.3438 H   0  0  0  0  0  0  0  0  0  0  0  0
   -5.1814   -6.4863    0.5695 H   0  0  0  0  0  0  0  0  0  0  0  0
   -5.5548   -4.6700   -1.0782 H   0  0  0  0  0  0  0  0  0  0  0  0
   -4.2276   -2.6096   -0.9790 H   0  0  0  0  0  0  0  0  0  0  0  0
   -4.6623   -1.0871    0.6333 H   0  0  0  0  0  0  0  0  0  0  0  0
    0.5577    0.6891    2.2744 H   0  0  0  0  0  0  0  0  0  0  0  0
    2.3139   -0.8120    1.4637 H   0  0  0  0  0  0  0  0  0  0  0  0
    1.7935   -0.6517   -0.2153 H   0  0  0  0  0  0  0  0  0  0  0  0
    6.9915   -0.8282   -2.2384 H   0  0  0  0  0  0  0  0  0  0  0  0
    5.2757   -0.4999   -2.5738 H   0  0  0  0  0  0  0  0  0  0  0  0
    6.2656    0.7115   -1.7754 H   0  0  0  0  0  0  0  0  0  0  0  0
    4.7739   -2.7295   -1.3883 H   0  0  0  0  0  0  0  0  0  0  0  0
    6.4876   -2.9532   -0.9717 H   0  0  0  0  0  0  0  0  0  0  0  0
    5.2357   -2.9531    0.2903 H   0  0  0  0  0  0  0  0  0  0  0  0
    6.9463    0.3816    0.6993 H   0  0  0  0  0  0  0  0  0  0  0  0
    7.6980   -1.1751    0.3495 H   0  0  0  0  0  0  0  0  0  0  0  0
    6.4070   -1.0474    1.5666 H   0  0  0  0  0  0  0  0  0  0  0  0
    3.0410    3.1105    0.5039 H   0  0  0  0  0  0  0  0  0  0  0  0
    2.4335    2.4019    2.0002 H   0  0  0  0  0  0  0  0  0  0  0  0
    0.9305    3.1690   -0.5009 H   0  0  0  0  0  0  0  0  0  0  0  0
    0.4950    3.3950    1.1910 H   0  0  0  0  0  0  0  0  0  0  0  0
  1  2  1  0
  2  3  2  0
  3  4  1  0
  4  5  2  0
  5  6  1  0
  6  7  2  0
  7  8  1  0
  8  9  1  0
  9 10  2  0
  9 11  1  0
 11 12  1  0
 12 13  1  0
 13 14  2  0
 14 15  1  0
 14 16  1  0
 16 17  1  0
 17 18  2  0
 18 19  1  0
 19 20  2  0
 20 21  1  0
 21 22  2  0
 16 23  1  0
 23 24  1  0
 13 25  1  0
 25 26  1  0
 26 27  1  0
 27 28  1  0
 28 29  2  0
 28 30  1  0
 30 31  1  0
 31 32  1  0
 31 33  1  0
 31 34  1  0
 27 35  1  0
 35 36  1  0
 36 37  1  0
  7  2  1  0
 11 37  1  6
 11  6  1  0
 23 12  2  0
 37 25  1  0
 22 17  1  0
  1 38  1  0
  1 39  1  0
  1 40  1  0
  3 41  1  0
  4 42  1  0
  5 43  1  0
  8 44  1  0
 15 45  1  0
 18 46  1  0
 19 47  1  0
 20 48  1  0
 21 49  1  0
 22 50  1  0
 24 51  1  0
 25 52  1  1
 26 53  1  0
 26 54  1  0
 32 55  1  0
 32 56  1  0
 32 57  1  0
 33 58  1  0
 33 59  1  0
 33 60  1  0
 34 61  1  0
 34 62  1  0
 34 63  1  0
 35 64  1  0
 35 65  1  0
 36 66  1  0
 36 67  1  0
M  END
$$$$
