
     RDKit          3D

 57 59  0  0  0  0  0  0  0  0999 V2000
    9.8368    0.4403    0.9977 C   0  0  0  0  0  0  0  0  0  0  0  0
    8.3579    0.3747    0.7310 C   0  0  0  0  0  0  0  0  0  0  0  0
    7.7218    1.4571    0.1024 C   0  0  0  0  0  0  0  0  0  0  0  0
    6.3486    1.4334   -0.1623 C   0  0  0  0  0  0  0  0  0  0  0  0
    5.5890    0.3238    0.1998 C   0  0  0  0  0  0  0  0  0  0  0  0
    4.2435    0.1693    0.0084 O   0  0  0  0  0  0  0  0  0  0  0  0
    3.5578    1.2301   -0.6569 C   0  0  0  0  0  0  0  0  0  0  0  0
    2.1297    0.8417   -0.7252 C   0  0  0  0  0  0  0  0  0  0  0  0
    1.2636    0.1984    0.1254 C   0  0  0  0  0  0  0  0  0  0  0  0
    0.0281    0.1767   -0.5671 C   0  0  0  0  0  0  0  0  0  0  0  0
   -1.2394   -0.3935   -0.1061 C   0  0  0  0  0  0  0  0  0  0  0  0
   -1.3609   -0.9287    0.9913 O   0  0  0  0  0  0  0  0  0  0  0  0
   -2.2743   -0.2636   -1.0084 N   0  0  0  0  0  0  0  0  0  0  0  0
   -3.6301   -0.7051   -0.7382 C   0  0  0  0  0  0  0  0  0  0  0  0
   -4.5972    0.4276   -0.2491 C   0  0  0  0  0  0  0  0  0  0  0  0
   -4.6150    1.5692   -1.2998 C   0  0  0  0  0  0  0  0  0  0  0  0
   -4.0533    1.0612    1.0575 C   0  0  0  0  0  0  0  0  0  0  0  0
   -6.0034   -0.0351   -0.0129 N   0  0  0  0  0  0  0  0  0  0  0  0
   -6.1473   -1.0429    1.0666 C   0  0  0  0  0  0  0  0  0  0  0  0
   -7.6224   -1.4027    1.3171 C   0  0  0  0  0  0  0  0  0  0  0  0
   -8.2453   -1.8982    0.1264 O   0  0  0  0  0  0  0  0  0  0  0  0
   -8.1688   -0.9082   -0.9052 C   0  0  0  0  0  0  0  0  0  0  0  0
   -6.7067   -0.5415   -1.2153 C   0  0  0  0  0  0  0  0  0  0  0  0
    0.1439    0.7796   -1.7660 N   0  0  0  0  0  0  0  0  0  0  0  0
    1.4609    1.1932   -1.8564 O   0  0  0  0  0  0  0  0  0  0  0  0
    6.2165   -0.7589    0.8244 C   0  0  0  0  0  0  0  0  0  0  0  0
    7.5958   -0.7526    1.0920 C   0  0  0  0  0  0  0  0  0  0  0  0
    8.2195   -1.9427    1.7704 C   0  0  0  0  0  0  0  0  0  0  0  0
   10.3588   -0.3436    0.4383 H   0  0  0  0  0  0  0  0  0  0  0  0
   10.2578    1.4040    0.6895 H   0  0  0  0  0  0  0  0  0  0  0  0
   10.0374    0.3222    2.0682 H   0  0  0  0  0  0  0  0  0  0  0  0
    8.2957    2.3357   -0.1878 H   0  0  0  0  0  0  0  0  0  0  0  0
    5.9132    2.3002   -0.6494 H   0  0  0  0  0  0  0  0  0  0  0  0
    3.6435    2.1633   -0.0858 H   0  0  0  0  0  0  0  0  0  0  0  0
    3.9588    1.3649   -1.6696 H   0  0  0  0  0  0  0  0  0  0  0  0
    1.4827   -0.2058    1.1029 H   0  0  0  0  0  0  0  0  0  0  0  0
   -2.0597    0.2094   -1.8816 H   0  0  0  0  0  0  0  0  0  0  0  0
   -3.9891   -1.1343   -1.6798 H   0  0  0  0  0  0  0  0  0  0  0  0
   -3.5847   -1.5156   -0.0028 H   0  0  0  0  0  0  0  0  0  0  0  0
   -4.8206    1.1972   -2.3094 H   0  0  0  0  0  0  0  0  0  0  0  0
   -3.6501    2.0875   -1.3473 H   0  0  0  0  0  0  0  0  0  0  0  0
   -5.3704    2.3251   -1.0520 H   0  0  0  0  0  0  0  0  0  0  0  0
   -4.7749    1.7686    1.4848 H   0  0  0  0  0  0  0  0  0  0  0  0
   -3.8242    0.3070    1.8176 H   0  0  0  0  0  0  0  0  0  0  0  0
   -3.1292    1.6231    0.8797 H   0  0  0  0  0  0  0  0  0  0  0  0
   -5.7436   -0.6711    2.0128 H   0  0  0  0  0  0  0  0  0  0  0  0
   -5.6101   -1.9606    0.7998 H   0  0  0  0  0  0  0  0  0  0  0  0
   -7.6860   -2.1902    2.0754 H   0  0  0  0  0  0  0  0  0  0  0  0
   -8.1851   -0.5374    1.6892 H   0  0  0  0  0  0  0  0  0  0  0  0
   -8.7464   -0.0243   -0.6065 H   0  0  0  0  0  0  0  0  0  0  0  0
   -8.6415   -1.3266   -1.8003 H   0  0  0  0  0  0  0  0  0  0  0  0
   -6.7268    0.2107   -2.0092 H   0  0  0  0  0  0  0  0  0  0  0  0
   -6.2016   -1.4352   -1.6005 H   0  0  0  0  0  0  0  0  0  0  0  0
    5.6140   -1.6218    1.1041 H   0  0  0  0  0  0  0  0  0  0  0  0
    7.4962   -2.7546    1.9043 H   0  0  0  0  0  0  0  0  0  0  0  0
    9.0440   -2.3388    1.1678 H   0  0  0  0  0  0  0  0  0  0  0  0
    8.5921   -1.6615    2.7615 H   0  0  0  0  0  0  0  0  0  0  0  0
  1  2  1  0
  2  3  2  0
  3  4  1  0
  4  5  2  0
  5  6  1  0
  6  7  1  0
  7  8  1  0
  8  9  2  0
  9 10  1  0
 10 11  1  0
 11 12  2  0
 11 13  1  0
 13 14  1  0
 14 15  1  0
 15 16  1  0
 15 17  1  0
 15 18  1  0
 18 19  1  0
 19 20  1  0
 20 21  1  0
 21 22  1  0
 22 23  1  0
 10 24  2  0
 24 25  1  0
  5 26  1  0
 26 27  2  0
 27 28  1  0
 27  2  1  0
 25  8  1  0
 23 18  1  0
  1 29  1  0
  1 30  1  0
  1 31  1  0
  3 32  1  0
  4 33  1  0
  7 34  1  0
  7 35  1  0
  9 36  1  0
 13 37  1  0
 14 38  1  0
 14 39  1  0
 16 40  1  0
 16 41  1  0
 16 42  1  0
 17 43  1  0
 17 44  1  0
 17 45  1  0
 19 46  1  0
 19 47  1  0
 20 48  1  0
 20 49  1  0
 22 50  1  0
 22 51  1  0
 23 52  1  0
 23 53  1  0
 26 54  1  0
 28 55  1  0
 28 56  1  0
 28 57  1  0
M  END
$$$$
