
     RDKit          3D

 50 53  0  0  0  0  0  0  0  0999 V2000
   -5.9829    0.4792   -1.4124 C   0  0  0  0  0  0  0  0  0  0  0  0
   -5.1642   -0.7128   -1.3706 N   0  0  0  0  0  0  0  0  0  0  0  0
   -5.5551   -1.8857   -0.7756 C   0  0  0  0  0  0  0  0  0  0  0  0
   -4.5848   -2.8309   -1.0061 C   0  0  0  0  0  0  0  0  0  0  0  0
   -3.5638   -2.2037   -1.7529 C   0  0  0  0  0  0  0  0  0  0  0  0
   -3.9214   -0.8782   -1.9469 C   0  0  0  0  0  0  0  0  0  0  0  0
   -3.1790    0.2129   -2.6656 C   0  0  0  0  0  0  0  0  0  0  0  0
   -1.7022    0.1935   -2.4172 C   0  0  0  0  0  0  0  0  0  0  0  0
   -0.7974   -0.0390   -3.3501 N   0  0  0  0  0  0  0  0  0  0  0  0
    0.4240   -0.1515   -2.7493 N   0  0  0  0  0  0  0  0  0  0  0  0
    0.2583    0.0285   -1.4604 C   0  0  0  0  0  0  0  0  0  0  0  0
    1.5622    0.1291   -0.3151 S   0  0  0  0  0  0  0  0  0  0  0  0
    2.9886    0.0829   -1.4495 C   0  0  0  0  0  0  0  0  0  0  0  0
    4.3301    0.2934   -0.7525 C   0  0  0  0  0  0  0  0  0  0  0  0
    5.3061    0.6414   -1.4160 O   0  0  0  0  0  0  0  0  0  0  0  0
    4.3399    0.0228    0.6033 N   0  0  0  0  0  0  0  0  0  0  0  0
    5.4201    0.1134    1.5031 C   0  0  0  0  0  0  0  0  0  0  0  0
    6.7262    0.4365    1.1301 C   0  0  0  0  0  0  0  0  0  0  0  0
    7.7399    0.5160    2.0930 C   0  0  0  0  0  0  0  0  0  0  0  0
    7.4569    0.2723    3.4356 C   0  0  0  0  0  0  0  0  0  0  0  0
    6.1587   -0.0542    3.8181 C   0  0  0  0  0  0  0  0  0  0  0  0
    5.1464   -0.1334    2.8558 C   0  0  0  0  0  0  0  0  0  0  0  0
   -1.0739    0.2810   -1.1785 N   0  0  0  0  0  0  0  0  0  0  0  0
   -1.6762    0.5493    0.0780 C   0  0  0  0  0  0  0  0  0  0  0  0
   -2.5824    1.6109    0.2098 C   0  0  0  0  0  0  0  0  0  0  0  0
   -3.1955    1.8485    1.4410 C   0  0  0  0  0  0  0  0  0  0  0  0
   -2.9042    1.0290    2.5259 C   0  0  0  0  0  0  0  0  0  0  0  0
   -3.5125    1.2432    3.6981 F   0  0  0  0  0  0  0  0  0  0  0  0
   -2.0019   -0.0196    2.4084 C   0  0  0  0  0  0  0  0  0  0  0  0
   -1.3822   -0.2627    1.1826 C   0  0  0  0  0  0  0  0  0  0  0  0
   -6.2611    0.6640   -2.4508 H   0  0  0  0  0  0  0  0  0  0  0  0
   -5.4136    1.3161   -1.0061 H   0  0  0  0  0  0  0  0  0  0  0  0
   -6.8842    0.3263   -0.8104 H   0  0  0  0  0  0  0  0  0  0  0  0
   -6.5021   -1.9658   -0.2545 H   0  0  0  0  0  0  0  0  0  0  0  0
   -4.6151   -3.8623   -0.6799 H   0  0  0  0  0  0  0  0  0  0  0  0
   -2.6551   -2.6698   -2.1123 H   0  0  0  0  0  0  0  0  0  0  0  0
   -3.3522    0.0744   -3.7407 H   0  0  0  0  0  0  0  0  0  0  0  0
   -3.5754    1.2041   -2.4304 H   0  0  0  0  0  0  0  0  0  0  0  0
    2.8707    0.8894   -2.1805 H   0  0  0  0  0  0  0  0  0  0  0  0
    3.0202   -0.8832   -1.9629 H   0  0  0  0  0  0  0  0  0  0  0  0
    3.4382   -0.2091    1.0058 H   0  0  0  0  0  0  0  0  0  0  0  0
    6.9956    0.6363    0.0984 H   0  0  0  0  0  0  0  0  0  0  0  0
    8.7509    0.7741    1.7875 H   0  0  0  0  0  0  0  0  0  0  0  0
    8.2460    0.3400    4.1804 H   0  0  0  0  0  0  0  0  0  0  0  0
    5.9304   -0.2407    4.8652 H   0  0  0  0  0  0  0  0  0  0  0  0
    4.1410   -0.3829    3.1833 H   0  0  0  0  0  0  0  0  0  0  0  0
   -2.7961    2.2839   -0.6162 H   0  0  0  0  0  0  0  0  0  0  0  0
   -3.8963    2.6681    1.5649 H   0  0  0  0  0  0  0  0  0  0  0  0
   -1.8013   -0.6550    3.2663 H   0  0  0  0  0  0  0  0  0  0  0  0
   -0.7185   -1.1199    1.1008 H   0  0  0  0  0  0  0  0  0  0  0  0
  1  2  1  0
  2  3  1  0
  3  4  2  0
  4  5  1  0
  5  6  2  0
  6  7  1  0
  7  8  1  0
  8  9  2  0
  9 10  1  0
 10 11  2  0
 11 12  1  0
 12 13  1  0
 13 14  1  0
 14 15  2  0
 14 16  1  0
 16 17  1  0
 17 18  2  0
 18 19  1  0
 19 20  2  0
 20 21  1  0
 21 22  2  0
 11 23  1  0
 23 24  1  0
 24 25  2  0
 25 26  1  0
 26 27  2  0
 27 28  1  0
 27 29  1  0
 29 30  2  0
  6  2  1  0
 23  8  1  0
 30 24  1  0
 22 17  1  0
  1 31  1  0
  1 32  1  0
  1 33  1  0
  3 34  1  0
  4 35  1  0
  5 36  1  0
  7 37  1  0
  7 38  1  0
 13 39  1  0
 13 40  1  0
 16 41  1  0
 18 42  1  0
 19 43  1  0
 20 44  1  0
 21 45  1  0
 22 46  1  0
 25 47  1  0
 26 48  1  0
 29 49  1  0
 30 50  1  0
M  END
$$$$
