
     RDKit          3D

 49 53  0  0  0  0  0  0  0  0999 V2000
   -0.9056    1.5104    2.8675 O   0  0  0  0  0  0  0  0  0  0  0  0
   -0.8501    0.9094    1.7919 C   0  0  0  0  0  0  0  0  0  0  0  0
   -2.0774    0.5856    1.0764 C   0  0  0  0  0  0  0  0  0  0  0  0
   -3.3924    0.7424    1.4861 C   0  0  0  0  0  0  0  0  0  0  0  0
   -4.2293    0.3050    0.4212 C   0  0  0  0  0  0  0  0  0  0  0  0
   -3.3585   -0.0873   -0.5872 C   0  0  0  0  0  0  0  0  0  0  0  0
   -3.7577   -0.5886   -1.8216 C   0  0  0  0  0  0  0  0  0  0  0  0
   -5.1355   -0.6951   -2.0412 C   0  0  0  0  0  0  0  0  0  0  0  0
   -6.0708   -0.3130   -1.0648 C   0  0  0  0  0  0  0  0  0  0  0  0
   -7.4508   -0.4217   -1.2936 C   0  0  0  0  0  0  0  0  0  0  0  0
   -8.3714   -0.0384   -0.3131 C   0  0  0  0  0  0  0  0  0  0  0  0
   -7.9298    0.4597    0.9128 C   0  0  0  0  0  0  0  0  0  0  0  0
   -6.5638    0.5791    1.1672 C   0  0  0  0  0  0  0  0  0  0  0  0
   -5.6266    0.1951    0.1859 C   0  0  0  0  0  0  0  0  0  0  0  0
   -2.0677    0.0880   -0.1996 O   0  0  0  0  0  0  0  0  0  0  0  0
    0.3939    0.5470    1.2671 N   0  0  0  0  0  0  0  0  0  0  0  0
    1.6096    0.9941    1.9530 C   0  0  0  0  0  0  0  0  0  0  0  0
    2.7393    1.3700    0.9717 C   0  0  0  0  0  0  0  0  0  0  0  0
    2.9958    0.3224   -0.0439 N   0  0  0  0  0  0  0  0  0  0  0  0
    4.3429   -0.0266   -0.2145 C   0  0  0  0  0  0  0  0  0  0  0  0
    4.6873   -1.3218    0.0038 N   0  0  0  0  0  0  0  0  0  0  0  0
    5.9804   -1.6969   -0.1393 C   0  0  0  0  0  0  0  0  0  0  0  0
    6.9991   -0.8372   -0.5046 C   0  0  0  0  0  0  0  0  0  0  0  0
    8.3992   -1.3391   -0.6574 C   0  0  0  0  0  0  0  0  0  0  0  0
    8.6904   -2.3685    0.1831 F   0  0  0  0  0  0  0  0  0  0  0  0
    9.3359   -0.3809   -0.4113 F   0  0  0  0  0  0  0  0  0  0  0  0
    8.6545   -1.7956   -1.9129 F   0  0  0  0  0  0  0  0  0  0  0  0
    6.6508    0.4876   -0.7614 C   0  0  0  0  0  0  0  0  0  0  0  0
    5.3220    0.9003   -0.6207 C   0  0  0  0  0  0  0  0  0  0  0  0
    4.9672    2.5429   -1.0321 Cl  0  0  0  0  0  0  0  0  0  0  0  0
    2.0608   -0.8189   -0.0221 C   0  0  0  0  0  0  0  0  0  0  0  0
    0.6085   -0.3181    0.0981 C   0  0  0  0  0  0  0  0  0  0  0  0
   -3.6973    1.1317    2.4483 H   0  0  0  0  0  0  0  0  0  0  0  0
   -3.0343   -0.8804   -2.5729 H   0  0  0  0  0  0  0  0  0  0  0  0
   -5.4766   -1.0863   -2.9981 H   0  0  0  0  0  0  0  0  0  0  0  0
   -7.8236   -0.8075   -2.2395 H   0  0  0  0  0  0  0  0  0  0  0  0
   -9.4370   -0.1304   -0.5079 H   0  0  0  0  0  0  0  0  0  0  0  0
   -8.6504    0.7551    1.6719 H   0  0  0  0  0  0  0  0  0  0  0  0
   -6.2380    0.9703    2.1291 H   0  0  0  0  0  0  0  0  0  0  0  0
    1.9320    0.1670    2.5993 H   0  0  0  0  0  0  0  0  0  0  0  0
    1.3997    1.8511    2.6034 H   0  0  0  0  0  0  0  0  0  0  0  0
    3.6354    1.6003    1.5617 H   0  0  0  0  0  0  0  0  0  0  0  0
    2.4415    2.2830    0.4421 H   0  0  0  0  0  0  0  0  0  0  0  0
    6.1688   -2.7505    0.0599 H   0  0  0  0  0  0  0  0  0  0  0  0
    7.4098    1.1995   -1.0831 H   0  0  0  0  0  0  0  0  0  0  0  0
    2.1521   -1.4029   -0.9477 H   0  0  0  0  0  0  0  0  0  0  0  0
    2.2781   -1.4837    0.8257 H   0  0  0  0  0  0  0  0  0  0  0  0
   -0.0618   -1.1809    0.1593 H   0  0  0  0  0  0  0  0  0  0  0  0
    0.3518    0.2734   -0.7911 H   0  0  0  0  0  0  0  0  0  0  0  0
  1  2  2  0
  2  3  1  0
  3  4  2  0
  4  5  1  0
  5  6  2  0
  6  7  1  0
  7  8  2  0
  8  9  1  0
  9 10  2  0
 10 11  1  0
 11 12  2  0
 12 13  1  0
 13 14  2  0
  6 15  1  0
  2 16  1  0
 16 17  1  0
 17 18  1  0
 18 19  1  0
 19 20  1  0
 20 21  2  0
 21 22  1  0
 22 23  2  0
 23 24  1  0
 24 25  1  0
 24 26  1  0
 24 27  1  0
 23 28  1  0
 28 29  2  0
 29 30  1  0
 19 31  1  0
 31 32  1  0
 15  3  1  0
 32 16  1  0
 14  5  1  0
 29 20  1  0
 14  9  1  0
  4 33  1  0
  7 34  1  0
  8 35  1  0
 10 36  1  0
 11 37  1  0
 12 38  1  0
 13 39  1  0
 17 40  1  0
 17 41  1  0
 18 42  1  0
 18 43  1  0
 22 44  1  0
 28 45  1  0
 31 46  1  0
 31 47  1  0
 32 48  1  0
 32 49  1  0
M  END
$$$$
