
     RDKit          3D

 39 40  0  0  0  0  0  0  0  0999 V2000
   -1.6100   -2.3989    2.0218 C   0  0  0  0  0  0  0  0  0  0  0  0
   -2.0699   -1.0061    1.6300 C   0  0  0  0  0  0  0  0  0  0  0  0
   -1.6607   -0.7680    0.2813 O   0  0  0  0  0  0  0  0  0  0  0  0
   -2.2938    0.2732   -0.3541 C   0  0  0  0  0  0  0  0  0  0  0  0
   -2.8105    1.3944    0.3001 C   0  0  0  0  0  0  0  0  0  0  0  0
   -3.4163    2.4166   -0.4350 C   0  0  0  0  0  0  0  0  0  0  0  0
   -3.5106    2.3224   -1.8227 C   0  0  0  0  0  0  0  0  0  0  0  0
   -2.9872    1.2119   -2.4845 C   0  0  0  0  0  0  0  0  0  0  0  0
   -2.3537    0.2032   -1.7561 C   0  0  0  0  0  0  0  0  0  0  0  0
   -1.8522   -0.9255   -2.3570 O   0  0  0  0  0  0  0  0  0  0  0  0
   -0.9095   -0.6746   -3.3951 C   0  0  0  0  0  0  0  0  0  0  0  0
    0.5146   -0.3394   -2.9348 C   0  0  0  0  0  0  0  0  0  0  0  0
    1.3200    0.1447   -3.7254 O   0  0  0  0  0  0  0  0  0  0  0  0
    0.7565   -0.6815   -1.6246 N   0  0  0  0  0  0  0  0  0  0  0  0
    1.9682   -0.4774   -1.0299 C   0  0  0  0  0  0  0  0  0  0  0  0
    3.0912   -0.0196   -1.5242 N   0  0  0  0  0  0  0  0  0  0  0  0
    4.0940    0.0241   -0.5717 N   0  0  0  0  0  0  0  0  0  0  0  0
    3.6810   -0.4010    0.6056 C   0  0  0  0  0  0  0  0  0  0  0  0
    4.5302   -0.5092    1.8303 C   0  0  0  0  0  0  0  0  0  0  0  0
    4.7742    0.7909    2.3772 O   0  0  0  0  0  0  0  0  0  0  0  0
    3.7197    1.2671    3.2004 C   0  0  0  0  0  0  0  0  0  0  0  0
    2.0316   -0.9014    0.6219 S   0  0  0  0  0  0  0  0  0  0  0  0
   -0.5248   -2.4931    1.9208 H   0  0  0  0  0  0  0  0  0  0  0  0
   -2.0569   -3.1509    1.3633 H   0  0  0  0  0  0  0  0  0  0  0  0
   -1.8882   -2.6242    3.0550 H   0  0  0  0  0  0  0  0  0  0  0  0
   -1.5999   -0.2714    2.2929 H   0  0  0  0  0  0  0  0  0  0  0  0
   -3.1608   -0.9537    1.7268 H   0  0  0  0  0  0  0  0  0  0  0  0
   -2.7449    1.5070    1.3773 H   0  0  0  0  0  0  0  0  0  0  0  0
   -3.8185    3.2881    0.0766 H   0  0  0  0  0  0  0  0  0  0  0  0
   -3.9966    3.1135   -2.3895 H   0  0  0  0  0  0  0  0  0  0  0  0
   -3.1011    1.1414   -3.5620 H   0  0  0  0  0  0  0  0  0  0  0  0
   -1.2462    0.1028   -4.0890 H   0  0  0  0  0  0  0  0  0  0  0  0
   -0.8327   -1.6017   -3.9753 H   0  0  0  0  0  0  0  0  0  0  0  0
   -0.0078   -1.0170   -1.0464 H   0  0  0  0  0  0  0  0  0  0  0  0
    5.5033   -0.9228    1.5431 H   0  0  0  0  0  0  0  0  0  0  0  0
    4.1078   -1.1770    2.5898 H   0  0  0  0  0  0  0  0  0  0  0  0
    3.5145    0.5637    4.0126 H   0  0  0  0  0  0  0  0  0  0  0  0
    4.0320    2.2201    3.6370 H   0  0  0  0  0  0  0  0  0  0  0  0
    2.8142    1.4426    2.6135 H   0  0  0  0  0  0  0  0  0  0  0  0
  1  2  1  0
  2  3  1  0
  3  4  1  0
  4  5  2  0
  5  6  1  0
  6  7  2  0
  7  8  1  0
  8  9  2  0
  9 10  1  0
 10 11  1  0
 11 12  1  0
 12 13  2  0
 12 14  1  0
 14 15  1  0
 15 16  2  0
 16 17  1  0
 17 18  2  0
 18 19  1  0
 19 20  1  0
 20 21  1  0
 18 22  1  0
  9  4  1  0
 22 15  1  0
  1 23  1  0
  1 24  1  0
  1 25  1  0
  2 26  1  0
  2 27  1  0
  5 28  1  0
  6 29  1  0
  7 30  1  0
  8 31  1  0
 11 32  1  0
 11 33  1  0
 14 34  1  0
 19 35  1  0
 19 36  1  0
 21 37  1  0
 21 38  1  0
 21 39  1  0
M  END
$$$$
