
     RDKit          3D

 53 56  0  0  0  0  0  0  0  0999 V2000
   -5.5655   -2.5790    1.6753 C   0  0  0  0  0  0  0  0  0  0  0  0
   -6.7874   -2.1972    1.0566 O   0  0  0  0  0  0  0  0  0  0  0  0
   -6.7509   -1.1446    0.1839 C   0  0  0  0  0  0  0  0  0  0  0  0
   -7.9851   -0.8262   -0.3878 C   0  0  0  0  0  0  0  0  0  0  0  0
   -8.0980    0.2244   -1.2959 C   0  0  0  0  0  0  0  0  0  0  0  0
   -6.9693    0.9660   -1.6383 C   0  0  0  0  0  0  0  0  0  0  0  0
   -5.7222    0.6608   -1.0744 C   0  0  0  0  0  0  0  0  0  0  0  0
   -4.5442    1.4924   -1.4798 C   0  0  0  0  0  0  0  0  0  0  0  0
   -4.7120    2.4066   -2.2859 O   0  0  0  0  0  0  0  0  0  0  0  0
   -3.1833    1.1645   -0.8697 C   0  0  0  0  0  0  0  0  0  0  0  0
   -2.1838    2.0470   -1.3659 O   0  0  0  0  0  0  0  0  0  0  0  0
   -0.9090    1.8660   -0.9117 C   0  0  0  0  0  0  0  0  0  0  0  0
    0.0323    2.7474   -1.4436 C   0  0  0  0  0  0  0  0  0  0  0  0
    1.3807    2.6760   -1.0671 C   0  0  0  0  0  0  0  0  0  0  0  0
    1.8212    1.7187   -0.1442 C   0  0  0  0  0  0  0  0  0  0  0  0
    3.2263    1.5731    0.2901 C   0  0  0  0  0  0  0  0  0  0  0  0
    4.2246    2.5234   -0.3223 C   0  0  0  0  0  0  0  0  0  0  0  0
    3.5432    0.6049    1.1813 C   0  0  0  0  0  0  0  0  0  0  0  0
    4.9347    0.3163    1.7101 C   0  0  0  0  0  0  0  0  0  0  0  0
    5.6372   -0.8020    0.9673 C   0  0  0  0  0  0  0  0  0  0  0  0
    5.5406   -2.1261    1.4201 C   0  0  0  0  0  0  0  0  0  0  0  0
    6.1718   -3.1629    0.7307 C   0  0  0  0  0  0  0  0  0  0  0  0
    6.9068   -2.8897   -0.4202 C   0  0  0  0  0  0  0  0  0  0  0  0
    7.0109   -1.5798   -0.8822 C   0  0  0  0  0  0  0  0  0  0  0  0
    6.3794   -0.5417   -0.1938 C   0  0  0  0  0  0  0  0  0  0  0  0
    2.4912   -0.2653    1.7847 C   0  0  0  0  0  0  0  0  0  0  0  0
    2.7374   -1.0685    2.6791 O   0  0  0  0  0  0  0  0  0  0  0  0
    1.1990   -0.1302    1.3098 O   0  0  0  0  0  0  0  0  0  0  0  0
    0.8608    0.8547    0.3712 C   0  0  0  0  0  0  0  0  0  0  0  0
   -0.4895    0.9104    0.0056 C   0  0  0  0  0  0  0  0  0  0  0  0
   -5.6184   -0.4002   -0.1598 C   0  0  0  0  0  0  0  0  0  0  0  0
   -5.7744   -3.4277    2.3336 H   0  0  0  0  0  0  0  0  0  0  0  0
   -4.8325   -2.9067    0.9308 H   0  0  0  0  0  0  0  0  0  0  0  0
   -5.1663   -1.7679    2.2930 H   0  0  0  0  0  0  0  0  0  0  0  0
   -8.8676   -1.4042   -0.1216 H   0  0  0  0  0  0  0  0  0  0  0  0
   -9.0628    0.4646   -1.7355 H   0  0  0  0  0  0  0  0  0  0  0  0
   -7.0678    1.7854   -2.3491 H   0  0  0  0  0  0  0  0  0  0  0  0
   -3.2661    1.2840    0.2167 H   0  0  0  0  0  0  0  0  0  0  0  0
   -2.9302    0.1353   -1.1491 H   0  0  0  0  0  0  0  0  0  0  0  0
   -0.2854    3.4999   -2.1633 H   0  0  0  0  0  0  0  0  0  0  0  0
    2.0649    3.3878   -1.5209 H   0  0  0  0  0  0  0  0  0  0  0  0
    3.9535    3.5616   -0.0994 H   0  0  0  0  0  0  0  0  0  0  0  0
    5.2441    2.3932    0.0424 H   0  0  0  0  0  0  0  0  0  0  0  0
    4.2634    2.3922   -1.4094 H   0  0  0  0  0  0  0  0  0  0  0  0
    5.5691    1.2093    1.6887 H   0  0  0  0  0  0  0  0  0  0  0  0
    4.8976    0.0743    2.7810 H   0  0  0  0  0  0  0  0  0  0  0  0
    4.9683   -2.3612    2.3162 H   0  0  0  0  0  0  0  0  0  0  0  0
    6.0866   -4.1840    1.0934 H   0  0  0  0  0  0  0  0  0  0  0  0
    7.3976   -3.6974   -0.9565 H   0  0  0  0  0  0  0  0  0  0  0  0
    7.5846   -1.3658   -1.7802 H   0  0  0  0  0  0  0  0  0  0  0  0
    6.4778    0.4715   -0.5730 H   0  0  0  0  0  0  0  0  0  0  0  0
   -1.1720    0.1997    0.4566 H   0  0  0  0  0  0  0  0  0  0  0  0
   -4.6617   -0.6459    0.2827 H   0  0  0  0  0  0  0  0  0  0  0  0
  1  2  1  0
  2  3  1  0
  3  4  2  0
  4  5  1  0
  5  6  2  0
  6  7  1  0
  7  8  1  0
  8  9  2  0
  8 10  1  0
 10 11  1  0
 11 12  1  0
 12 13  2  0
 13 14  1  0
 14 15  2  0
 15 16  1  0
 16 17  1  0
 16 18  2  0
 18 19  1  0
 19 20  1  0
 20 21  2  0
 21 22  1  0
 22 23  2  0
 23 24  1  0
 24 25  2  0
 18 26  1  0
 26 27  2  0
 26 28  1  0
 28 29  1  0
 29 30  2  0
  7 31  2  0
 31  3  1  0
 30 12  1  0
 29 15  1  0
 25 20  1  0
  1 32  1  0
  1 33  1  0
  1 34  1  0
  4 35  1  0
  5 36  1  0
  6 37  1  0
 10 38  1  0
 10 39  1  0
 13 40  1  0
 14 41  1  0
 17 42  1  0
 17 43  1  0
 17 44  1  0
 19 45  1  0
 19 46  1  0
 21 47  1  0
 22 48  1  0
 23 49  1  0
 24 50  1  0
 25 51  1  0
 30 52  1  0
 31 53  1  0
M  END
$$$$
