
     RDKit          3D

 61 66  0  0  0  0  0  0  0  0999 V2000
   -2.4804    2.6146   -0.1862 C   0  0  0  0  0  0  0  0  0  0  0  0
   -3.2738    1.3251   -0.4244 C   0  0  0  0  0  0  0  0  0  0  0  0
   -4.7706    1.5596   -0.1867 C   0  0  0  0  0  0  0  0  0  0  0  0
   -2.9695    0.7635   -1.8108 C   0  0  0  0  0  0  0  0  0  0  0  0
   -3.4764    1.4279   -2.9444 C   0  0  0  0  0  0  0  0  0  0  0  0
   -3.1322    1.0320   -4.2401 C   0  0  0  0  0  0  0  0  0  0  0  0
   -2.2590   -0.0315   -4.4398 C   0  0  0  0  0  0  0  0  0  0  0  0
   -1.7358   -0.7111   -3.3437 C   0  0  0  0  0  0  0  0  0  0  0  0
   -2.1008   -0.3276   -2.0404 C   0  0  0  0  0  0  0  0  0  0  0  0
   -1.5641   -1.0879   -0.9748 N   0  0  0  0  0  0  0  0  0  0  0  0
   -0.2418   -1.1703   -0.5989 C   0  0  0  0  0  0  0  0  0  0  0  0
    1.0567   -0.3190   -1.3727 S   0  0  0  0  0  0  0  0  0  0  0  0
    2.1476   -0.0417    0.0617 C   0  0  0  0  0  0  0  0  0  0  0  0
    3.3145    0.8982   -0.1708 C   0  0  0  0  0  0  0  0  0  0  0  0
    3.2916    1.8226   -1.1478 C   0  0  0  0  0  0  0  0  0  0  0  0
    4.4352    2.6435   -1.5490 C   0  0  0  0  0  0  0  0  0  0  0  0
    4.3304    3.4928   -2.4284 O   0  0  0  0  0  0  0  0  0  0  0  0
    5.6300    2.3469   -0.9399 O   0  0  0  0  0  0  0  0  0  0  0  0
    5.6888    1.4659    0.1568 C   0  0  0  0  0  0  0  0  0  0  0  0
    6.9584    1.3652    0.7178 C   0  0  0  0  0  0  0  0  0  0  0  0
    7.1428    0.5769    1.8382 C   0  0  0  0  0  0  0  0  0  0  0  0
    6.0586   -0.0645    2.4352 C   0  0  0  0  0  0  0  0  0  0  0  0
    6.3088   -0.8030    3.6009 C   0  0  0  0  0  0  0  0  0  0  0  0
    5.2816   -1.4367    4.2872 C   0  0  0  0  0  0  0  0  0  0  0  0
    3.9848   -1.3146    3.8239 C   0  0  0  0  0  0  0  0  0  0  0  0
    3.7236   -0.5818    2.6620 C   0  0  0  0  0  0  0  0  0  0  0  0
    4.7416    0.0447    1.8871 C   0  0  0  0  0  0  0  0  0  0  0  0
    4.5634    0.7848    0.6575 C   0  0  0  0  0  0  0  0  0  0  0  0
   -0.1275   -1.8749    0.5029 N   0  0  0  0  0  0  0  0  0  0  0  0
   -1.3802   -2.3047    0.8518 N   0  0  0  0  0  0  0  0  0  0  0  0
   -2.2487   -1.8731   -0.0487 C   0  0  0  0  0  0  0  0  0  0  0  0
   -3.6806   -2.1807   -0.0237 C   0  0  0  0  0  0  0  0  0  0  0  0
   -4.4603   -2.3634   -1.1711 C   0  0  0  0  0  0  0  0  0  0  0  0
   -5.8244   -2.6355   -1.0539 C   0  0  0  0  0  0  0  0  0  0  0  0
   -6.3709   -2.7345    0.2142 C   0  0  0  0  0  0  0  0  0  0  0  0
   -5.6538   -2.5885    1.3483 N   0  0  0  0  0  0  0  0  0  0  0  0
   -4.3298   -2.3285    1.2017 C   0  0  0  0  0  0  0  0  0  0  0  0
   -1.4034    2.4387   -0.2933 H   0  0  0  0  0  0  0  0  0  0  0  0
   -2.6560    2.9979    0.8234 H   0  0  0  0  0  0  0  0  0  0  0  0
   -2.7620    3.4014   -0.8937 H   0  0  0  0  0  0  0  0  0  0  0  0
   -2.9525    0.6218    0.3486 H   0  0  0  0  0  0  0  0  0  0  0  0
   -4.9530    1.8135    0.8654 H   0  0  0  0  0  0  0  0  0  0  0  0
   -5.1621    2.3857   -0.7930 H   0  0  0  0  0  0  0  0  0  0  0  0
   -5.3553    0.6634   -0.4232 H   0  0  0  0  0  0  0  0  0  0  0  0
   -4.1307    2.2914   -2.8323 H   0  0  0  0  0  0  0  0  0  0  0  0
   -3.5347    1.5711   -5.0951 H   0  0  0  0  0  0  0  0  0  0  0  0
   -1.9827   -0.3260   -5.4497 H   0  0  0  0  0  0  0  0  0  0  0  0
   -1.0608   -1.5477   -3.5206 H   0  0  0  0  0  0  0  0  0  0  0  0
    1.5317    0.3593    0.8723 H   0  0  0  0  0  0  0  0  0  0  0  0
    2.5193   -1.0406    0.3159 H   0  0  0  0  0  0  0  0  0  0  0  0
    2.4217    2.0016   -1.7697 H   0  0  0  0  0  0  0  0  0  0  0  0
    7.7962    1.9011    0.2830 H   0  0  0  0  0  0  0  0  0  0  0  0
    8.1433    0.4971    2.2620 H   0  0  0  0  0  0  0  0  0  0  0  0
    7.3207   -0.8850    3.9958 H   0  0  0  0  0  0  0  0  0  0  0  0
    5.4924   -2.0050    5.1864 H   0  0  0  0  0  0  0  0  0  0  0  0
    3.1643   -1.7826    4.3653 H   0  0  0  0  0  0  0  0  0  0  0  0
    2.6746   -0.4978    2.4086 H   0  0  0  0  0  0  0  0  0  0  0  0
   -4.0296   -2.3064   -2.1671 H   0  0  0  0  0  0  0  0  0  0  0  0
   -6.4457   -2.7673   -1.9335 H   0  0  0  0  0  0  0  0  0  0  0  0
   -7.4281   -2.9441    0.3549 H   0  0  0  0  0  0  0  0  0  0  0  0
   -3.7854   -2.2323    2.1386 H   0  0  0  0  0  0  0  0  0  0  0  0
  1  2  1  0
  2  3  1  0
  2  4  1  0
  4  5  2  0
  5  6  1  0
  6  7  2  0
  7  8  1  0
  8  9  2  0
  9 10  1  0
 10 11  1  0
 11 12  1  0
 12 13  1  0
 13 14  1  0
 14 15  2  0
 15 16  1  0
 16 17  2  0
 16 18  1  0
 18 19  1  0
 19 20  2  0
 20 21  1  0
 21 22  2  0
 22 23  1  0
 23 24  2  0
 24 25  1  0
 25 26  2  0
 26 27  1  0
 27 28  2  0
 11 29  2  0
 29 30  1  0
 30 31  2  0
 31 32  1  0
 32 33  2  0
 33 34  1  0
 34 35  2  0
 35 36  1  0
 36 37  2  0
  9  4  1  0
 31 10  1  0
 37 32  1  0
 28 14  1  0
 28 19  1  0
 27 22  1  0
  1 38  1  0
  1 39  1  0
  1 40  1  0
  2 41  1  0
  3 42  1  0
  3 43  1  0
  3 44  1  0
  5 45  1  0
  6 46  1  0
  7 47  1  0
  8 48  1  0
 13 49  1  0
 13 50  1  0
 15 51  1  0
 20 52  1  0
 21 53  1  0
 23 54  1  0
 24 55  1  0
 25 56  1  0
 26 57  1  0
 33 58  1  0
 34 59  1  0
 35 60  1  0
 37 61  1  0
M  END
$$$$
