
     RDKit          3D

 53 52  0  0  0  0  0  0  0  0999 V2000
   -5.4605    1.2102    1.9281 C   0  0  0  0  0  0  0  0  0  0  0  0
   -5.3564    1.3441    0.4051 C   0  0  0  0  0  0  0  0  0  0  0  0
   -5.2306   -0.0458   -0.2178 C   0  0  0  0  0  0  0  0  0  0  0  0
   -4.1842    2.2818    0.0516 C   0  0  0  0  0  0  0  0  0  0  0  0
   -4.0808    2.6625   -1.4285 C   0  0  0  0  0  0  0  0  0  0  0  0
   -3.4816    1.6337   -2.2520 N   0  0  0  0  0  0  0  0  0  0  0  0
   -2.1254    1.3898   -2.2483 C   0  0  0  0  0  0  0  0  0  0  0  0
   -1.3231    2.0525   -1.5997 O   0  0  0  0  0  0  0  0  0  0  0  0
   -1.7244    0.2446   -3.1540 C   0  0  0  0  0  0  0  0  0  0  0  0
   -0.3321   -0.3003   -2.8554 C   0  0  0  0  0  0  0  0  0  0  0  0
   -0.3233   -1.6900   -1.6615 S   0  0  0  0  0  0  0  0  0  0  0  0
   -0.7384   -0.8459   -0.0888 C   0  0  0  0  0  0  0  0  0  0  0  0
    0.3479    0.0922    0.4206 C   0  0  0  0  0  0  0  0  0  0  0  0
    1.5198   -0.6416    1.0408 C   0  0  0  0  0  0  0  0  0  0  0  0
    1.4270   -1.7460    1.5652 O   0  0  0  0  0  0  0  0  0  0  0  0
    2.6893    0.0917    1.0230 N   0  0  0  0  0  0  0  0  0  0  0  0
    3.9375   -0.4545    1.5183 C   0  0  0  0  0  0  0  0  0  0  0  0
    4.6220   -1.3216    0.4600 C   0  0  0  0  0  0  0  0  0  0  0  0
    5.9687   -1.9352    0.8846 C   0  0  0  0  0  0  0  0  0  0  0  0
    5.8213   -2.9006    2.0607 C   0  0  0  0  0  0  0  0  0  0  0  0
    7.0211   -0.8710    1.1951 C   0  0  0  0  0  0  0  0  0  0  0  0
   -5.5985    2.1901    2.3975 H   0  0  0  0  0  0  0  0  0  0  0  0
   -4.5571    0.7557    2.3492 H   0  0  0  0  0  0  0  0  0  0  0  0
   -6.3162    0.5862    2.2073 H   0  0  0  0  0  0  0  0  0  0  0  0
   -6.2893    1.7973    0.0465 H   0  0  0  0  0  0  0  0  0  0  0  0
   -6.0069   -0.7164    0.1669 H   0  0  0  0  0  0  0  0  0  0  0  0
   -4.2577   -0.4963    0.0039 H   0  0  0  0  0  0  0  0  0  0  0  0
   -5.3570   -0.0087   -1.3028 H   0  0  0  0  0  0  0  0  0  0  0  0
   -3.2403    1.8467    0.4027 H   0  0  0  0  0  0  0  0  0  0  0  0
   -4.3226    3.2151    0.6136 H   0  0  0  0  0  0  0  0  0  0  0  0
   -3.4609    3.5618   -1.5223 H   0  0  0  0  0  0  0  0  0  0  0  0
   -5.0669    2.8919   -1.8451 H   0  0  0  0  0  0  0  0  0  0  0  0
   -4.0903    1.0397   -2.8004 H   0  0  0  0  0  0  0  0  0  0  0  0
   -2.4809   -0.5479   -3.1253 H   0  0  0  0  0  0  0  0  0  0  0  0
   -1.7253    0.6574   -4.1711 H   0  0  0  0  0  0  0  0  0  0  0  0
    0.3763    0.4720   -2.5451 H   0  0  0  0  0  0  0  0  0  0  0  0
    0.0680   -0.7256   -3.7830 H   0  0  0  0  0  0  0  0  0  0  0  0
   -1.6789   -0.3061   -0.2207 H   0  0  0  0  0  0  0  0  0  0  0  0
   -0.9434   -1.6309    0.6473 H   0  0  0  0  0  0  0  0  0  0  0  0
   -0.0752    0.7157    1.2183 H   0  0  0  0  0  0  0  0  0  0  0  0
    0.6975    0.7720   -0.3611 H   0  0  0  0  0  0  0  0  0  0  0  0
    2.7216    0.9479    0.4848 H   0  0  0  0  0  0  0  0  0  0  0  0
    4.5635    0.4001    1.7911 H   0  0  0  0  0  0  0  0  0  0  0  0
    3.7288   -1.0325    2.4239 H   0  0  0  0  0  0  0  0  0  0  0  0
    3.9446   -2.1330    0.1629 H   0  0  0  0  0  0  0  0  0  0  0  0
    4.7774   -0.7196   -0.4454 H   0  0  0  0  0  0  0  0  0  0  0  0
    6.3356   -2.5173    0.0287 H   0  0  0  0  0  0  0  0  0  0  0  0
    5.0583   -3.6574    1.8506 H   0  0  0  0  0  0  0  0  0  0  0  0
    5.5433   -2.3804    2.9827 H   0  0  0  0  0  0  0  0  0  0  0  0
    6.7657   -3.4229    2.2484 H   0  0  0  0  0  0  0  0  0  0  0  0
    7.1219   -0.1676    0.3620 H   0  0  0  0  0  0  0  0  0  0  0  0
    6.7717   -0.3019    2.0962 H   0  0  0  0  0  0  0  0  0  0  0  0
    7.9994   -1.3359    1.3588 H   0  0  0  0  0  0  0  0  0  0  0  0
  1  2  1  0
  2  3  1  0
  2  4  1  0
  4  5  1  0
  5  6  1  0
  6  7  1  0
  7  8  2  0
  7  9  1  0
  9 10  1  0
 10 11  1  0
 11 12  1  0
 12 13  1  0
 13 14  1  0
 14 15  2  0
 14 16  1  0
 16 17  1  0
 17 18  1  0
 18 19  1  0
 19 20  1  0
 19 21  1  0
  1 22  1  0
  1 23  1  0
  1 24  1  0
  2 25  1  0
  3 26  1  0
  3 27  1  0
  3 28  1  0
  4 29  1  0
  4 30  1  0
  5 31  1  0
  5 32  1  0
  6 33  1  0
  9 34  1  0
  9 35  1  0
 10 36  1  0
 10 37  1  0
 12 38  1  0
 12 39  1  0
 13 40  1  0
 13 41  1  0
 16 42  1  0
 17 43  1  0
 17 44  1  0
 18 45  1  0
 18 46  1  0
 19 47  1  0
 20 48  1  0
 20 49  1  0
 20 50  1  0
 21 51  1  0
 21 52  1  0
 21 53  1  0
M  END
$$$$
