
     RDKit          3D

 33 33  0  0  0  0  0  0  0  0999 V2000
   -3.1102    1.3373   -0.4524 C   0  0  0  0  0  0  0  0  0  0  0  0
   -3.1955    0.1206    0.4729 C   0  0  0  0  0  0  0  0  0  0  0  0
   -4.6515   -0.3370    0.5895 C   0  0  0  0  0  0  0  0  0  0  0  0
   -2.3200   -1.0463   -0.0247 C   0  0  0  0  0  0  0  0  0  0  0  0
   -0.8377   -0.7631    0.0295 C   0  0  0  0  0  0  0  0  0  0  0  0
   -0.1661   -0.7220    1.2570 C   0  0  0  0  0  0  0  0  0  0  0  0
    1.2042   -0.4545    1.3095 C   0  0  0  0  0  0  0  0  0  0  0  0
    1.9336   -0.2240    0.1350 C   0  0  0  0  0  0  0  0  0  0  0  0
    3.4213    0.0663    0.2101 C   0  0  0  0  0  0  0  0  0  0  0  0
    4.2498   -1.0065   -0.5003 C   0  0  0  0  0  0  0  0  0  0  0  0
    3.7553    1.4402   -0.3407 C   0  0  0  0  0  0  0  0  0  0  0  0
    4.0725    1.7171   -1.4870 O   0  0  0  0  0  0  0  0  0  0  0  0
    3.6562    2.4145    0.5884 O   0  0  0  0  0  0  0  0  0  0  0  0
    1.2574   -0.2649   -1.0932 C   0  0  0  0  0  0  0  0  0  0  0  0
   -0.1128   -0.5325   -1.1449 C   0  0  0  0  0  0  0  0  0  0  0  0
   -2.0956    1.7466   -0.4796 H   0  0  0  0  0  0  0  0  0  0  0  0
   -3.7742    2.1359   -0.1042 H   0  0  0  0  0  0  0  0  0  0  0  0
   -3.4015    1.0791   -1.4762 H   0  0  0  0  0  0  0  0  0  0  0  0
   -2.8619    0.4291    1.4718 H   0  0  0  0  0  0  0  0  0  0  0  0
   -5.0484   -0.6525   -0.3815 H   0  0  0  0  0  0  0  0  0  0  0  0
   -5.2849    0.4723    0.9679 H   0  0  0  0  0  0  0  0  0  0  0  0
   -4.7398   -1.1802    1.2827 H   0  0  0  0  0  0  0  0  0  0  0  0
   -2.6103   -1.3214   -1.0473 H   0  0  0  0  0  0  0  0  0  0  0  0
   -2.5104   -1.9396    0.5853 H   0  0  0  0  0  0  0  0  0  0  0  0
   -0.7079   -0.8979    2.1836 H   0  0  0  0  0  0  0  0  0  0  0  0
    1.6959   -0.4260    2.2796 H   0  0  0  0  0  0  0  0  0  0  0  0
    3.7443    0.0597    1.2602 H   0  0  0  0  0  0  0  0  0  0  0  0
    4.0515   -1.9980   -0.0784 H   0  0  0  0  0  0  0  0  0  0  0  0
    4.0347   -1.0507   -1.5738 H   0  0  0  0  0  0  0  0  0  0  0  0
    5.3205   -0.7999   -0.3930 H   0  0  0  0  0  0  0  0  0  0  0  0
    3.8511    3.2358    0.0907 H   0  0  0  0  0  0  0  0  0  0  0  0
    1.7908   -0.0833   -2.0249 H   0  0  0  0  0  0  0  0  0  0  0  0
   -0.6107   -0.5540   -2.1118 H   0  0  0  0  0  0  0  0  0  0  0  0
  1  2  1  0
  2  3  1  0
  2  4  1  0
  4  5  1  0
  5  6  2  0
  6  7  1  0
  7  8  2  0
  8  9  1  0
  9 10  1  0
  9 11  1  0
 11 12  2  0
 11 13  1  0
  8 14  1  0
 14 15  2  0
 15  5  1  0
  1 16  1  0
  1 17  1  0
  1 18  1  0
  2 19  1  0
  3 20  1  0
  3 21  1  0
  3 22  1  0
  4 23  1  0
  4 24  1  0
  6 25  1  0
  7 26  1  0
  9 27  1  0
 10 28  1  0
 10 29  1  0
 10 30  1  0
 13 31  1  0
 14 32  1  0
 15 33  1  0
M  END
$$$$
