
     RDKit          3D

 39 41  0  0  0  0  0  0  0  0999 V2000
   -1.5725    1.4060   -1.3135 C   0  0  0  0  0  0  0  0  0  0  0  0
   -1.4257    0.2270   -0.5289 O   0  0  0  0  0  0  0  0  0  0  0  0
   -2.5616   -0.2928    0.0358 C   0  0  0  0  0  0  0  0  0  0  0  0
   -3.8193    0.3154    0.0332 C   0  0  0  0  0  0  0  0  0  0  0  0
   -4.9172   -0.3074    0.6524 C   0  0  0  0  0  0  0  0  0  0  0  0
   -6.2726    0.3375    0.6123 C   0  0  0  0  0  0  0  0  0  0  0  0
   -4.7518   -1.5627    1.2517 C   0  0  0  0  0  0  0  0  0  0  0  0
   -3.5012   -2.1769    1.2633 C   0  0  0  0  0  0  0  0  0  0  0  0
   -2.4149   -1.5322    0.6749 C   0  0  0  0  0  0  0  0  0  0  0  0
   -1.1984   -2.1661    0.6691 O   0  0  0  0  0  0  0  0  0  0  0  0
   -0.4671   -1.8695    1.8610 C   0  0  0  0  0  0  0  0  0  0  0  0
    0.9848   -1.5127    1.5336 C   0  0  0  0  0  0  0  0  0  0  0  0
    1.8854   -1.7710    2.3273 O   0  0  0  0  0  0  0  0  0  0  0  0
    1.1036   -0.8487    0.3347 N   0  0  0  0  0  0  0  0  0  0  0  0
    2.2407   -0.3437   -0.2362 C   0  0  0  0  0  0  0  0  0  0  0  0
    2.2241    0.3098   -1.3790 N   0  0  0  0  0  0  0  0  0  0  0  0
    3.4856    0.7295   -1.7581 N   0  0  0  0  0  0  0  0  0  0  0  0
    4.3925    0.3714   -0.8771 C   0  0  0  0  0  0  0  0  0  0  0  0
    5.9054    0.7034   -1.0578 C   0  0  0  0  0  0  0  0  0  0  0  0
    6.5506    1.7243   -0.1551 C   0  0  0  0  0  0  0  0  0  0  0  0
    6.3027    2.0539   -1.5980 C   0  0  0  0  0  0  0  0  0  0  0  0
    3.7887   -0.5019    0.4601 S   0  0  0  0  0  0  0  0  0  0  0  0
   -0.5959    1.6418   -1.7470 H   0  0  0  0  0  0  0  0  0  0  0  0
   -2.2748    1.2484   -2.1387 H   0  0  0  0  0  0  0  0  0  0  0  0
   -1.8745    2.2545   -0.6912 H   0  0  0  0  0  0  0  0  0  0  0  0
   -3.9765    1.2780   -0.4437 H   0  0  0  0  0  0  0  0  0  0  0  0
   -6.8726    0.0414    1.4792 H   0  0  0  0  0  0  0  0  0  0  0  0
   -6.1858    1.4289    0.6358 H   0  0  0  0  0  0  0  0  0  0  0  0
   -6.7998    0.0427   -0.3001 H   0  0  0  0  0  0  0  0  0  0  0  0
   -5.5987   -2.0707    1.7082 H   0  0  0  0  0  0  0  0  0  0  0  0
   -3.3776   -3.1547    1.7195 H   0  0  0  0  0  0  0  0  0  0  0  0
   -0.4656   -2.7713    2.4830 H   0  0  0  0  0  0  0  0  0  0  0  0
   -0.8889   -1.0365    2.4392 H   0  0  0  0  0  0  0  0  0  0  0  0
    0.2540   -0.6890   -0.2030 H   0  0  0  0  0  0  0  0  0  0  0  0
    6.5069   -0.1446   -1.3670 H   0  0  0  0  0  0  0  0  0  0  0  0
    7.5728    1.5467    0.1584 H   0  0  0  0  0  0  0  0  0  0  0  0
    5.9409    2.2260    0.5880 H   0  0  0  0  0  0  0  0  0  0  0  0
    5.5200    2.7674   -1.8318 H   0  0  0  0  0  0  0  0  0  0  0  0
    7.1542    2.0986   -2.2669 H   0  0  0  0  0  0  0  0  0  0  0  0
  1  2  1  0
  2  3  1  0
  3  4  2  0
  4  5  1  0
  5  6  1  0
  5  7  2  0
  7  8  1  0
  8  9  2  0
  9 10  1  0
 10 11  1  0
 11 12  1  0
 12 13  2  0
 12 14  1  0
 14 15  1  0
 15 16  2  0
 16 17  1  0
 17 18  2  0
 18 19  1  0
 19 20  1  0
 20 21  1  0
 18 22  1  0
  9  3  1  0
 22 15  1  0
 21 19  1  0
  1 23  1  0
  1 24  1  0
  1 25  1  0
  4 26  1  0
  6 27  1  0
  6 28  1  0
  6 29  1  0
  7 30  1  0
  8 31  1  0
 11 32  1  0
 11 33  1  0
 14 34  1  0
 19 35  1  0
 20 36  1  0
 20 37  1  0
 21 38  1  0
 21 39  1  0
M  END
$$$$
