
     RDKit          3D

 47 49  0  0  0  0  0  0  0  0999 V2000
   -3.6466   -2.4875    2.5840 C   0  0  0  0  0  0  0  0  0  0  0  0
   -3.7074   -0.9935    2.3142 C   0  0  0  0  0  0  0  0  0  0  0  0
   -4.1168   -0.7045    0.9331 N   0  0  0  0  0  4  0  0  0  0  0  0
   -3.2464   -0.4845   -0.0460 C   0  0  0  0  0  0  0  0  0  0  0  0
   -1.8310   -0.5665    0.0526 C   0  0  0  0  0  0  0  0  0  0  0  0
   -1.0200    0.3624   -0.4790 C   0  0  0  0  0  0  0  0  0  0  0  0
    0.4223    0.2882   -0.3765 C   0  0  0  0  0  0  0  0  0  0  0  0
    1.2324    1.2183   -0.9060 C   0  0  0  0  0  0  0  0  0  0  0  0
    2.6985    1.1617   -0.8289 C   0  0  0  0  0  0  0  0  0  0  0  0
    3.3763    0.7712    0.3250 C   0  0  0  0  0  0  0  0  0  0  0  0
    4.7803    0.7646    0.3638 C   0  0  0  0  0  0  0  0  0  0  0  0
    5.5673    1.1446   -0.7369 C   0  0  0  0  0  0  0  0  0  0  0  0
    6.9643    1.1538   -0.6835 N   0  0  0  0  0  0  0  0  0  0  0  0
    7.7288    1.3346   -1.9169 C   0  0  0  0  0  0  0  0  0  0  0  0
    7.6430    0.4081    0.3755 C   0  0  0  0  0  0  0  0  0  0  0  0
    4.8572    1.5620   -1.8753 C   0  0  0  0  0  0  0  0  0  0  0  0
    3.4540    1.5732   -1.9253 C   0  0  0  0  0  0  0  0  0  0  0  0
   -4.0659   -0.1326   -1.5161 S   0  0  0  0  0  0  0  0  0  0  0  0
   -5.6107   -0.2895   -0.7818 C   0  0  0  0  0  0  0  0  0  0  0  0
   -6.8780   -0.1405   -1.3660 C   0  0  0  0  0  0  0  0  0  0  0  0
   -8.0017   -0.3235   -0.5569 C   0  0  0  0  0  0  0  0  0  0  0  0
   -7.8675   -0.6454    0.7895 C   0  0  0  0  0  0  0  0  0  0  0  0
   -6.6002   -0.7923    1.3670 C   0  0  0  0  0  0  0  0  0  0  0  0
   -5.4551   -0.6083    0.5642 C   0  0  0  0  0  0  0  0  0  0  0  0
   -4.6231   -2.9566    2.4297 H   0  0  0  0  0  0  0  0  0  0  0  0
   -3.3353   -2.6760    3.6158 H   0  0  0  0  0  0  0  0  0  0  0  0
   -2.9338   -2.9790    1.9147 H   0  0  0  0  0  0  0  0  0  0  0  0
   -4.4041   -0.5106    3.0083 H   0  0  0  0  0  0  0  0  0  0  0  0
   -2.7327   -0.5364    2.5198 H   0  0  0  0  0  0  0  0  0  0  0  0
   -1.4007   -1.4067    0.5923 H   0  0  0  0  0  0  0  0  0  0  0  0
   -1.4172    1.2250   -1.0146 H   0  0  0  0  0  0  0  0  0  0  0  0
    0.8526   -0.5701    0.1367 H   0  0  0  0  0  0  0  0  0  0  0  0
    0.8312    2.0689   -1.4531 H   0  0  0  0  0  0  0  0  0  0  0  0
    2.8345    0.4843    1.2218 H   0  0  0  0  0  0  0  0  0  0  0  0
    5.2425    0.4629    1.2989 H   0  0  0  0  0  0  0  0  0  0  0  0
    8.8068    1.3404   -1.7200 H   0  0  0  0  0  0  0  0  0  0  0  0
    7.5263    0.5251   -2.6268 H   0  0  0  0  0  0  0  0  0  0  0  0
    7.5050    2.2996   -2.3842 H   0  0  0  0  0  0  0  0  0  0  0  0
    7.3784   -0.6545    0.3397 H   0  0  0  0  0  0  0  0  0  0  0  0
    7.4013    0.8147    1.3632 H   0  0  0  0  0  0  0  0  0  0  0  0
    8.7323    0.4797    0.2799 H   0  0  0  0  0  0  0  0  0  0  0  0
    5.3792    1.8985   -2.7663 H   0  0  0  0  0  0  0  0  0  0  0  0
    2.9699    1.9071   -2.8403 H   0  0  0  0  0  0  0  0  0  0  0  0
   -6.9904    0.1091   -2.4190 H   0  0  0  0  0  0  0  0  0  0  0  0
   -8.9968   -0.2134   -0.9891 H   0  0  0  0  0  0  0  0  0  0  0  0
   -8.7614   -0.7849    1.3979 H   0  0  0  0  0  0  0  0  0  0  0  0
   -6.5416   -1.0489    2.4209 H   0  0  0  0  0  0  0  0  0  0  0  0
  1  2  1  0
  2  3  1  0
  3  4  2  0
  4  5  1  0
  5  6  2  3
  6  7  1  0
  7  8  2  3
  8  9  1  0
  9 10  2  0
 10 11  1  0
 11 12  2  0
 12 13  1  0
 13 14  1  0
 13 15  1  0
 12 16  1  0
 16 17  2  0
  4 18  1  0
 18 19  1  0
 19 20  2  0
 20 21  1  0
 21 22  2  0
 22 23  1  0
 23 24  2  0
 24  3  1  0
 17  9  1  0
 24 19  1  0
  1 25  1  0
  1 26  1  0
  1 27  1  0
  2 28  1  0
  2 29  1  0
  5 30  1  0
  6 31  1  0
  7 32  1  0
  8 33  1  0
 10 34  1  0
 11 35  1  0
 14 36  1  0
 14 37  1  0
 14 38  1  0
 15 39  1  0
 15 40  1  0
 15 41  1  0
 16 42  1  0
 17 43  1  0
 20 44  1  0
 21 45  1  0
 22 46  1  0
 23 47  1  0
M  CHG  1   3   1
M  END
$$$$
