
     RDKit          3D

 44 46  0  0  0  0  0  0  0  0999 V2000
    6.2808    1.9122   -1.5816 C   0  0  0  0  0  0  0  0  0  0  0  0
    4.9470    1.3387   -1.1857 C   0  0  0  0  0  0  0  0  0  0  0  0
    4.9053    0.2412   -0.3146 C   0  0  0  0  0  0  0  0  0  0  0  0
    3.6860   -0.3164    0.0733 C   0  0  0  0  0  0  0  0  0  0  0  0
    2.4814    0.2130   -0.4003 C   0  0  0  0  0  0  0  0  0  0  0  0
    1.2025   -0.4228    0.0477 C   0  0  0  0  0  0  0  0  0  0  0  0
    1.2567   -1.4561    0.7129 O   0  0  0  0  0  0  0  0  0  0  0  0
   -0.1118    0.2416   -0.3573 C   0  0  0  0  0  0  0  0  0  0  0  0
   -1.2154   -0.3893    0.2762 O   0  0  0  0  0  0  0  0  0  0  0  0
   -2.4807    0.0331   -0.0493 C   0  0  0  0  0  0  0  0  0  0  0  0
   -2.7496    1.0691   -0.9559 C   0  0  0  0  0  0  0  0  0  0  0  0
   -4.0643    1.4478   -1.2359 C   0  0  0  0  0  0  0  0  0  0  0  0
   -5.1231    0.7980   -0.6145 C   0  0  0  0  0  0  0  0  0  0  0  0
   -4.8671   -0.2300    0.2923 C   0  0  0  0  0  0  0  0  0  0  0  0
   -3.5502   -0.6315    0.5966 C   0  0  0  0  0  0  0  0  0  0  0  0
   -3.3431   -1.7223    1.5736 C   0  0  0  0  0  0  0  0  0  0  0  0
   -2.6252   -2.8809    1.2353 C   0  0  0  0  0  0  0  0  0  0  0  0
   -2.4438   -3.9142    2.1588 C   0  0  0  0  0  0  0  0  0  0  0  0
   -2.9826   -3.8092    3.4383 C   0  0  0  0  0  0  0  0  0  0  0  0
   -3.6989   -2.6703    3.7962 C   0  0  0  0  0  0  0  0  0  0  0  0
   -3.8765   -1.6368    2.8720 C   0  0  0  0  0  0  0  0  0  0  0  0
    2.5156    1.3078   -1.2741 C   0  0  0  0  0  0  0  0  0  0  0  0
    3.7395    1.8783   -1.6720 C   0  0  0  0  0  0  0  0  0  0  0  0
    3.7340    3.0539   -2.6126 C   0  0  0  0  0  0  0  0  0  0  0  0
    7.1076    1.3706   -1.1097 H   0  0  0  0  0  0  0  0  0  0  0  0
    6.4178    1.8430   -2.6653 H   0  0  0  0  0  0  0  0  0  0  0  0
    6.3524    2.9588   -1.2693 H   0  0  0  0  0  0  0  0  0  0  0  0
    5.8258   -0.1926    0.0718 H   0  0  0  0  0  0  0  0  0  0  0  0
    3.6840   -1.1688    0.7511 H   0  0  0  0  0  0  0  0  0  0  0  0
   -0.0753    1.2916   -0.0462 H   0  0  0  0  0  0  0  0  0  0  0  0
   -0.2014    0.1406   -1.4451 H   0  0  0  0  0  0  0  0  0  0  0  0
   -1.9574    1.6080   -1.4633 H   0  0  0  0  0  0  0  0  0  0  0  0
   -4.2602    2.2511   -1.9416 H   0  0  0  0  0  0  0  0  0  0  0  0
   -6.1477    1.0867   -0.8333 H   0  0  0  0  0  0  0  0  0  0  0  0
   -5.7092   -0.7348    0.7630 H   0  0  0  0  0  0  0  0  0  0  0  0
   -2.1887   -2.9801    0.2435 H   0  0  0  0  0  0  0  0  0  0  0  0
   -1.8727   -4.7946    1.8769 H   0  0  0  0  0  0  0  0  0  0  0  0
   -2.8361   -4.6104    4.1573 H   0  0  0  0  0  0  0  0  0  0  0  0
   -4.1136   -2.5804    4.7964 H   0  0  0  0  0  0  0  0  0  0  0  0
   -4.4271   -0.7495    3.1766 H   0  0  0  0  0  0  0  0  0  0  0  0
    1.5980    1.7359   -1.6670 H   0  0  0  0  0  0  0  0  0  0  0  0
    2.7147    3.3450   -2.8875 H   0  0  0  0  0  0  0  0  0  0  0  0
    4.2073    3.9206   -2.1406 H   0  0  0  0  0  0  0  0  0  0  0  0
    4.2653    2.8039   -3.5363 H   0  0  0  0  0  0  0  0  0  0  0  0
  1  2  1  0
  2  3  2  0
  3  4  1  0
  4  5  2  0
  5  6  1  0
  6  7  2  0
  6  8  1  0
  8  9  1  0
  9 10  1  0
 10 11  2  0
 11 12  1  0
 12 13  2  0
 13 14  1  0
 14 15  2  0
 15 16  1  0
 16 17  2  0
 17 18  1  0
 18 19  2  0
 19 20  1  0
 20 21  2  0
  5 22  1  0
 22 23  2  0
 23 24  1  0
 23  2  1  0
 15 10  1  0
 21 16  1  0
  1 25  1  0
  1 26  1  0
  1 27  1  0
  3 28  1  0
  4 29  1  0
  8 30  1  0
  8 31  1  0
 11 32  1  0
 12 33  1  0
 13 34  1  0
 14 35  1  0
 17 36  1  0
 18 37  1  0
 19 38  1  0
 20 39  1  0
 21 40  1  0
 22 41  1  0
 24 42  1  0
 24 43  1  0
 24 44  1  0
M  END
$$$$
