
     RDKit          3D

 47 49  0  0  0  0  0  0  0  0999 V2000
   -3.4098   -0.5919   -2.5196 C   0  0  0  0  0  0  0  0  0  0  0  0
   -2.9102   -0.9855   -1.1394 C   0  0  0  0  0  0  0  0  0  0  0  0
   -3.4454   -0.0989   -0.0970 N   0  0  0  0  0  4  0  0  0  0  0  0
   -2.8116    0.9893    0.3199 C   0  0  0  0  0  0  0  0  0  0  0  0
   -1.5581    1.4749   -0.1188 C   0  0  0  0  0  0  0  0  0  0  0  0
   -0.3808    0.9631    0.2758 C   0  0  0  0  0  0  0  0  0  0  0  0
   -0.1594   -0.1194    1.2175 C   0  0  0  0  0  0  0  0  0  0  0  0
    1.0310   -0.6751    1.4991 C   0  0  0  0  0  0  0  0  0  0  0  0
    2.3092   -0.2993    0.8929 C   0  0  0  0  0  0  0  0  0  0  0  0
    3.0252    0.7972    1.3647 C   0  0  0  0  0  0  0  0  0  0  0  0
    4.2348    1.1667    0.7580 C   0  0  0  0  0  0  0  0  0  0  0  0
    4.7821    0.4560   -0.3255 C   0  0  0  0  0  0  0  0  0  0  0  0
    5.9765    0.8420   -0.9450 N   0  0  0  0  0  0  0  0  0  0  0  0
    6.6833   -0.1304   -1.7804 C   0  0  0  0  0  0  0  0  0  0  0  0
    6.8293    1.8366   -0.2928 C   0  0  0  0  0  0  0  0  0  0  0  0
    4.0284   -0.6419   -0.7798 C   0  0  0  0  0  0  0  0  0  0  0  0
    2.8167   -1.0211   -0.1831 C   0  0  0  0  0  0  0  0  0  0  0  0
   -3.7360    1.8349    1.4890 S   0  0  0  0  0  0  0  0  0  0  0  0
   -4.9950    0.6644    1.4398 C   0  0  0  0  0  0  0  0  0  0  0  0
   -6.1914    0.6332    2.1728 C   0  0  0  0  0  0  0  0  0  0  0  0
   -7.0743   -0.4253    1.9473 C   0  0  0  0  0  0  0  0  0  0  0  0
   -6.7770   -1.4186    1.0199 C   0  0  0  0  0  0  0  0  0  0  0  0
   -5.5816   -1.3827    0.2912 C   0  0  0  0  0  0  0  0  0  0  0  0
   -4.6760   -0.3243    0.5115 C   0  0  0  0  0  0  0  0  0  0  0  0
   -4.5019   -0.6368   -2.5717 H   0  0  0  0  0  0  0  0  0  0  0  0
   -3.0022   -1.2659   -3.2790 H   0  0  0  0  0  0  0  0  0  0  0  0
   -3.1064    0.4299   -2.7684 H   0  0  0  0  0  0  0  0  0  0  0  0
   -3.1910   -2.0203   -0.9152 H   0  0  0  0  0  0  0  0  0  0  0  0
   -1.8166   -0.9767   -1.1296 H   0  0  0  0  0  0  0  0  0  0  0  0
   -1.5555    2.3290   -0.7944 H   0  0  0  0  0  0  0  0  0  0  0  0
    0.5170    1.4267   -0.1399 H   0  0  0  0  0  0  0  0  0  0  0  0
   -1.0154   -0.5077    1.7651 H   0  0  0  0  0  0  0  0  0  0  0  0
    1.0982   -1.4769    2.2325 H   0  0  0  0  0  0  0  0  0  0  0  0
    2.6563    1.3816    2.2043 H   0  0  0  0  0  0  0  0  0  0  0  0
    4.7405    2.0359    1.1682 H   0  0  0  0  0  0  0  0  0  0  0  0
    6.0898   -0.4024   -2.6597 H   0  0  0  0  0  0  0  0  0  0  0  0
    6.9327   -1.0321   -1.2100 H   0  0  0  0  0  0  0  0  0  0  0  0
    7.6205    0.2843   -2.1685 H   0  0  0  0  0  0  0  0  0  0  0  0
    6.3044    2.7901   -0.1705 H   0  0  0  0  0  0  0  0  0  0  0  0
    7.1770    1.4781    0.6824 H   0  0  0  0  0  0  0  0  0  0  0  0
    7.7142    2.0589   -0.8998 H   0  0  0  0  0  0  0  0  0  0  0  0
    4.3656   -1.2361   -1.6240 H   0  0  0  0  0  0  0  0  0  0  0  0
    2.2837   -1.8825   -0.5762 H   0  0  0  0  0  0  0  0  0  0  0  0
   -6.4328    1.4093    2.8961 H   0  0  0  0  0  0  0  0  0  0  0  0
   -8.0104   -0.4701    2.5047 H   0  0  0  0  0  0  0  0  0  0  0  0
   -7.4858   -2.2315    0.8610 H   0  0  0  0  0  0  0  0  0  0  0  0
   -5.3916   -2.1764   -0.4255 H   0  0  0  0  0  0  0  0  0  0  0  0
  1  2  1  0
  2  3  1  0
  3  4  2  0
  4  5  1  0
  5  6  2  3
  6  7  1  0
  7  8  2  3
  8  9  1  0
  9 10  2  0
 10 11  1  0
 11 12  2  0
 12 13  1  0
 13 14  1  0
 13 15  1  0
 12 16  1  0
 16 17  2  0
  4 18  1  0
 18 19  1  0
 19 20  2  0
 20 21  1  0
 21 22  2  0
 22 23  1  0
 23 24  2  0
 24  3  1  0
 17  9  1  0
 24 19  1  0
  1 25  1  0
  1 26  1  0
  1 27  1  0
  2 28  1  0
  2 29  1  0
  5 30  1  0
  6 31  1  0
  7 32  1  0
  8 33  1  0
 10 34  1  0
 11 35  1  0
 14 36  1  0
 14 37  1  0
 14 38  1  0
 15 39  1  0
 15 40  1  0
 15 41  1  0
 16 42  1  0
 17 43  1  0
 20 44  1  0
 21 45  1  0
 22 46  1  0
 23 47  1  0
M  CHG  1   3   1
M  END
$$$$
