
     RDKit          3D

 41 43  0  0  0  0  0  0  0  0999 V2000
   -3.2668   -1.0309    1.4567 C   0  0  0  0  0  0  0  0  0  0  0  0
   -3.1018   -0.1488    0.3294 N   0  0  0  0  0  0  0  0  0  0  0  0
   -1.9391    0.1413   -0.3291 C   0  0  0  0  0  0  0  0  0  0  0  0
   -0.3768   -0.3883    0.1820 S   0  0  0  0  0  0  0  0  0  0  0  0
    0.5891   -0.0024   -1.3082 C   0  0  0  0  0  0  0  0  0  0  0  0
    2.0473   -0.3285   -1.0491 C   0  0  0  0  0  0  0  0  0  0  0  0
    2.5320   -1.4214   -1.3343 O   0  0  0  0  0  0  0  0  0  0  0  0
    2.7383    0.7322   -0.4595 N   0  0  0  0  0  0  0  0  0  0  0  0
    4.0225    0.6479    0.0237 N   0  0  0  0  0  0  0  0  0  0  0  0
    4.8862   -0.0482   -0.6499 C   0  0  0  0  0  0  0  0  0  0  0  0
    6.2337   -0.1983   -0.1508 C   0  0  0  0  0  0  0  0  0  0  0  0
    6.7868    0.2863    1.0200 C   0  0  0  0  0  0  0  0  0  0  0  0
    8.1602   -0.0770    1.1613 C   0  0  0  0  0  0  0  0  0  0  0  0
    8.5940   -0.8248    0.0878 C   0  0  0  0  0  0  0  0  0  0  0  0
    9.9163   -1.3616   -0.1047 N   0  0  0  0  0  4  0  0  0  0  0  0
   10.1577   -1.9683   -1.1558 O   0  0  0  0  0  0  0  0  0  0  0  0
   10.7255   -1.1677    0.8130 O   0  0  0  0  0  1  0  0  0  0  0  0
    7.3752   -1.0861   -1.0671 S   0  0  0  0  0  0  0  0  0  0  0  0
   -2.1928    0.8880   -1.3749 N   0  0  0  0  0  0  0  0  0  0  0  0
   -3.5458    1.1148   -1.4008 N   0  0  0  0  0  0  0  0  0  0  0  0
   -4.0943    0.5274   -0.3510 C   0  0  0  0  0  0  0  0  0  0  0  0
   -5.5153    0.5703   -0.0123 C   0  0  0  0  0  0  0  0  0  0  0  0
   -6.4682    0.3461   -1.0167 C   0  0  0  0  0  0  0  0  0  0  0  0
   -7.8348    0.3865   -0.7253 C   0  0  0  0  0  0  0  0  0  0  0  0
   -8.2560    0.6643    0.5723 C   0  0  0  0  0  0  0  0  0  0  0  0
   -9.9363    0.7125    0.9357 Cl  0  0  0  0  0  0  0  0  0  0  0  0
   -7.3232    0.9094    1.5780 C   0  0  0  0  0  0  0  0  0  0  0  0
   -5.9562    0.8682    1.2852 C   0  0  0  0  0  0  0  0  0  0  0  0
   -2.5583   -1.8600    1.3865 H   0  0  0  0  0  0  0  0  0  0  0  0
   -4.2746   -1.4518    1.4554 H   0  0  0  0  0  0  0  0  0  0  0  0
   -3.0936   -0.4574    2.3704 H   0  0  0  0  0  0  0  0  0  0  0  0
    0.4927    1.0564   -1.5717 H   0  0  0  0  0  0  0  0  0  0  0  0
    0.2408   -0.6003   -2.1569 H   0  0  0  0  0  0  0  0  0  0  0  0
    2.1769    1.4290    0.0253 H   0  0  0  0  0  0  0  0  0  0  0  0
    4.6494   -0.5148   -1.6218 H   0  0  0  0  0  0  0  0  0  0  0  0
    6.2283    0.8740    1.7407 H   0  0  0  0  0  0  0  0  0  0  0  0
    8.7853    0.1974    2.0038 H   0  0  0  0  0  0  0  0  0  0  0  0
   -6.1466    0.1417   -2.0372 H   0  0  0  0  0  0  0  0  0  0  0  0
   -8.5596    0.2060   -1.5151 H   0  0  0  0  0  0  0  0  0  0  0  0
   -7.6527    1.1426    2.5870 H   0  0  0  0  0  0  0  0  0  0  0  0
   -5.2451    1.0943    2.0761 H   0  0  0  0  0  0  0  0  0  0  0  0
  1  2  1  0
  2  3  1  0
  3  4  1  0
  4  5  1  0
  5  6  1  0
  6  7  2  0
  6  8  1  0
  8  9  1  0
  9 10  2  3
 10 11  1  0
 11 12  2  0
 12 13  1  0
 13 14  2  0
 14 15  1  0
 15 16  2  0
 15 17  1  0
 14 18  1  0
  3 19  2  0
 19 20  1  0
 20 21  2  0
 21 22  1  0
 22 23  2  0
 23 24  1  0
 24 25  2  0
 25 26  1  0
 25 27  1  0
 27 28  2  0
 21  2  1  0
 28 22  1  0
 18 11  1  0
  1 29  1  0
  1 30  1  0
  1 31  1  0
  5 32  1  0
  5 33  1  0
  8 34  1  0
 10 35  1  0
 12 36  1  0
 13 37  1  0
 23 38  1  0
 24 39  1  0
 27 40  1  0
 28 41  1  0
M  CHG  2  15   1  17  -1
M  END
$$$$
