
     RDKit          3D

 39 39  0  0  0  0  0  0  0  0999 V2000
   -1.8690   -3.2567    2.2818 C   0  0  0  0  0  0  0  0  0  0  0  0
   -2.2298   -3.0917    0.8176 C   0  0  0  0  0  0  0  0  0  0  0  0
   -1.8129   -1.7986    0.3472 O   0  0  0  0  0  0  0  0  0  0  0  0
   -0.5040   -1.7034   -0.0807 C   0  0  0  0  0  0  0  0  0  0  0  0
    0.2488   -2.6687   -0.0982 O   0  0  0  0  0  0  0  0  0  0  0  0
   -0.1703   -0.2463   -0.5351 C   0  0  0  0  0  0  0  0  0  0  0  0
   -1.3982    0.5633   -0.2808 N   0  0  0  0  0  0  0  0  0  0  0  0
   -1.5438    1.8807   -0.6200 C   0  0  0  0  0  0  0  0  0  0  0  0
   -0.5996    2.5676   -0.9863 O   0  0  0  0  0  0  0  0  0  0  0  0
   -2.9566    2.3967   -0.4421 C   0  0  0  0  0  0  0  0  0  0  0  0
   -3.0945    3.8524   -0.8498 C   0  0  0  0  0  0  0  0  0  0  0  0
    0.8248    0.4145    0.3500 N   0  0  0  0  0  0  0  0  0  0  0  0
    2.2088    0.2502    0.2706 C   0  0  0  0  0  0  0  0  0  0  0  0
    3.0126    1.3078    0.7365 C   0  0  0  0  0  0  0  0  0  0  0  0
    4.4083    1.2239    0.7636 C   0  0  0  0  0  0  0  0  0  0  0  0
    5.0372    0.0577    0.3509 C   0  0  0  0  0  0  0  0  0  0  0  0
    4.2650   -1.0186   -0.0696 C   0  0  0  0  0  0  0  0  0  0  0  0
    2.8660   -0.9250   -0.0922 C   0  0  0  0  0  0  0  0  0  0  0  0
    0.1569   -0.3696   -2.0559 C   0  0  0  0  0  0  0  0  0  0  0  0
    0.6069    0.7855   -2.5990 F   0  0  0  0  0  0  0  0  0  0  0  0
   -0.9722   -0.7024   -2.7468 F   0  0  0  0  0  0  0  0  0  0  0  0
    1.0709   -1.3207   -2.3521 F   0  0  0  0  0  0  0  0  0  0  0  0
   -2.2363   -4.2123    2.6663 H   0  0  0  0  0  0  0  0  0  0  0  0
   -0.7850   -3.2150    2.4275 H   0  0  0  0  0  0  0  0  0  0  0  0
   -2.3014   -2.4461    2.8776 H   0  0  0  0  0  0  0  0  0  0  0  0
   -1.8075   -3.8948    0.2032 H   0  0  0  0  0  0  0  0  0  0  0  0
   -3.3175   -3.1365    0.6999 H   0  0  0  0  0  0  0  0  0  0  0  0
   -2.2216    0.0276   -0.0280 H   0  0  0  0  0  0  0  0  0  0  0  0
   -3.2385    2.2815    0.6104 H   0  0  0  0  0  0  0  0  0  0  0  0
   -3.6303    1.7818   -1.0492 H   0  0  0  0  0  0  0  0  0  0  0  0
   -2.4431    4.4932   -0.2463 H   0  0  0  0  0  0  0  0  0  0  0  0
   -2.8225    3.9935   -1.9011 H   0  0  0  0  0  0  0  0  0  0  0  0
   -4.1266    4.1902   -0.7147 H   0  0  0  0  0  0  0  0  0  0  0  0
    0.6304    1.4188    0.2903 H   0  0  0  0  0  0  0  0  0  0  0  0
    2.5499    2.2302    1.0828 H   0  0  0  0  0  0  0  0  0  0  0  0
    4.9957    2.0683    1.1131 H   0  0  0  0  0  0  0  0  0  0  0  0
    6.1205   -0.0189    0.3698 H   0  0  0  0  0  0  0  0  0  0  0  0
    4.7451   -1.9455   -0.3740 H   0  0  0  0  0  0  0  0  0  0  0  0
    2.3333   -1.8146   -0.4020 H   0  0  0  0  0  0  0  0  0  0  0  0
  1  2  1  0
  2  3  1  0
  3  4  1  0
  4  5  2  0
  4  6  1  0
  6  7  1  0
  7  8  1  0
  8  9  2  0
  8 10  1  0
 10 11  1  0
  6 12  1  0
 12 13  1  0
 13 14  2  0
 14 15  1  0
 15 16  2  0
 16 17  1  0
 17 18  2  0
  6 19  1  0
 19 20  1  0
 19 21  1  0
 19 22  1  0
 18 13  1  0
  1 23  1  0
  1 24  1  0
  1 25  1  0
  2 26  1  0
  2 27  1  0
  7 28  1  0
 10 29  1  0
 10 30  1  0
 11 31  1  0
 11 32  1  0
 11 33  1  0
 12 34  1  0
 14 35  1  0
 15 36  1  0
 16 37  1  0
 17 38  1  0
 18 39  1  0
M  END
$$$$
