
     RDKit          3D

 41 43  0  0  0  0  0  0  0  0999 V2000
   -4.0867   -0.8754   -1.6459 C   0  0  0  0  0  0  0  0  0  0  0  0
   -3.6064   -0.8587   -0.2242 C   0  0  0  0  0  0  0  0  0  0  0  0
   -3.9820   -1.8724    0.6614 C   0  0  0  0  0  0  0  0  0  0  0  0
   -3.5703   -1.8395    1.9965 C   0  0  0  0  0  0  0  0  0  0  0  0
   -2.7755   -0.7904    2.4893 C   0  0  0  0  0  0  0  0  0  0  0  0
   -2.3949   -0.8163    3.9440 C   0  0  0  0  0  0  0  0  0  0  0  0
   -2.3845    0.2214    1.5913 C   0  0  0  0  0  0  0  0  0  0  0  0
   -1.3326    1.5867    2.0722 S   0  0  0  0  0  6  0  0  0  0  0  0
   -2.1550    2.7785    2.0289 O   0  0  0  0  0  0  0  0  0  0  0  0
   -0.5820    1.2408    3.2595 O   0  0  0  0  0  0  0  0  0  0  0  0
   -0.2455    1.7350    0.8042 N   0  0  0  0  0  0  0  0  0  0  0  0
    0.6161    0.7022    0.3393 C   0  0  0  0  0  0  0  0  0  0  0  0
    1.0117   -0.3914    1.1124 C   0  0  0  0  0  0  0  0  0  0  0  0
    1.9044   -1.3371    0.5984 C   0  0  0  0  0  0  0  0  0  0  0  0
    2.4189   -1.1785   -0.6822 C   0  0  0  0  0  0  0  0  0  0  0  0
    3.3052   -2.1253   -1.1191 O   0  0  0  0  0  0  0  0  0  0  0  0
    2.0500   -0.0812   -1.4676 C   0  0  0  0  0  0  0  0  0  0  0  0
    2.7062    0.1428   -3.1134 S   0  0  0  0  0  0  0  0  0  0  0  0
    4.1662    1.0178   -2.7342 C   0  0  0  0  0  0  0  0  0  0  0  0
    4.1763    2.2010   -2.0520 N   0  0  0  0  0  0  0  0  0  0  0  0
    5.4564    2.4750   -1.9544 C   0  0  0  0  0  0  0  0  0  0  0  0
    6.1770    1.4977   -2.5661 N   0  0  0  0  0  0  0  0  0  0  0  0
    5.3722    0.5551   -3.0824 N   0  0  0  0  0  0  0  0  0  0  0  0
    1.1512    0.8586   -0.9437 C   0  0  0  0  0  0  0  0  0  0  0  0
   -2.8210    0.1961    0.2524 C   0  0  0  0  0  0  0  0  0  0  0  0
   -4.1281   -1.8997   -2.0269 H   0  0  0  0  0  0  0  0  0  0  0  0
   -3.4087   -0.3149   -2.2990 H   0  0  0  0  0  0  0  0  0  0  0  0
   -5.0840   -0.4295   -1.7116 H   0  0  0  0  0  0  0  0  0  0  0  0
   -4.6067   -2.6965    0.3215 H   0  0  0  0  0  0  0  0  0  0  0  0
   -3.8858   -2.6454    2.6569 H   0  0  0  0  0  0  0  0  0  0  0  0
   -1.3413   -1.0830    4.0612 H   0  0  0  0  0  0  0  0  0  0  0  0
   -2.9807   -1.5573    4.4955 H   0  0  0  0  0  0  0  0  0  0  0  0
   -2.6010    0.1492    4.4181 H   0  0  0  0  0  0  0  0  0  0  0  0
   -0.4140    2.5509    0.2199 H   0  0  0  0  0  0  0  0  0  0  0  0
    0.6603   -0.5319    2.1283 H   0  0  0  0  0  0  0  0  0  0  0  0
    2.2088   -2.1858    1.2047 H   0  0  0  0  0  0  0  0  0  0  0  0
    3.5876   -1.8666   -2.0173 H   0  0  0  0  0  0  0  0  0  0  0  0
    5.9028    3.3290   -1.4660 H   0  0  0  0  0  0  0  0  0  0  0  0
    7.1834    1.4079   -2.6692 H   0  0  0  0  0  0  0  0  0  0  0  0
    0.8827    1.7254   -1.5440 H   0  0  0  0  0  0  0  0  0  0  0  0
   -2.5508    1.0056   -0.4220 H   0  0  0  0  0  0  0  0  0  0  0  0
  1  2  1  0
  2  3  2  0
  3  4  1  0
  4  5  2  0
  5  6  1  0
  5  7  1  0
  7  8  1  0
  8  9  2  0
  8 10  2  0
  8 11  1  0
 11 12  1  0
 12 13  2  0
 13 14  1  0
 14 15  2  0
 15 16  1  0
 15 17  1  0
 17 18  1  0
 18 19  1  0
 19 20  1  0
 20 21  2  0
 21 22  1  0
 22 23  1  0
 17 24  2  0
  7 25  2  0
 25  2  1  0
 24 12  1  0
 23 19  2  0
  1 26  1  0
  1 27  1  0
  1 28  1  0
  3 29  1  0
  4 30  1  0
  6 31  1  0
  6 32  1  0
  6 33  1  0
 11 34  1  0
 13 35  1  0
 14 36  1  0
 16 37  1  0
 21 38  1  0
 22 39  1  0
 24 40  1  0
 25 41  1  0
M  END
$$$$
