
     RDKit          3D

 46 48  0  0  0  0  0  0  0  0999 V2000
    4.3996    0.0968   -3.3261 C   0  0  0  0  0  0  0  0  0  0  0  0
    3.3662    0.7580   -2.4278 C   0  0  0  0  0  0  0  0  0  0  0  0
    2.0298   -0.0193   -2.3020 N   0  0  0  0  0  4  0  0  0  0  0  0
    1.3425   -0.1184   -3.6602 C   0  0  0  0  0  0  0  0  0  0  0  0
    2.2856   -1.4221   -1.7500 C   0  0  0  0  0  0  0  0  0  0  0  0
    1.1546    0.7985   -1.3049 C   0  0  0  0  0  0  0  0  0  0  0  0
   -0.2877    0.2951   -1.1531 C   0  0  0  0  0  0  0  0  0  0  0  0
   -1.0066    0.9956   -0.0259 C   0  0  0  0  0  0  0  0  0  0  0  0
   -1.4162    0.4852    1.1594 C   0  0  0  0  0  0  0  0  0  0  0  0
   -2.3405    1.3122    1.9843 C   0  0  0  0  0  0  0  0  0  0  0  0
   -2.0740    2.6565    2.2874 C   0  0  0  0  0  0  0  0  0  0  0  0
   -2.9674    3.3956    3.0654 C   0  0  0  0  0  0  0  0  0  0  0  0
   -4.1286    2.7996    3.5527 C   0  0  0  0  0  0  0  0  0  0  0  0
   -4.3964    1.4589    3.2741 C   0  0  0  0  0  0  0  0  0  0  0  0
   -3.5039    0.7060    2.5020 C   0  0  0  0  0  0  0  0  0  0  0  0
   -3.8903   -1.0203    2.1931 S   0  0  0  0  0  0  0  0  0  0  0  0
   -2.2452   -1.7057    2.0123 C   0  0  0  0  0  0  0  0  0  0  0  0
   -2.0365   -3.0465    2.3623 C   0  0  0  0  0  0  0  0  0  0  0  0
   -0.7589   -3.6058    2.2854 C   0  0  0  0  0  0  0  0  0  0  0  0
    0.3135   -2.8163    1.8831 C   0  0  0  0  0  0  0  0  0  0  0  0
    1.8942   -3.4875    1.7841 Cl  0  0  0  0  0  0  0  0  0  0  0  0
    0.1203   -1.4795    1.5382 C   0  0  0  0  0  0  0  0  0  0  0  0
   -1.1669   -0.9261    1.5504 C   0  0  0  0  0  0  0  0  0  0  0  0
    4.0478   -0.0143   -4.3547 H   0  0  0  0  0  0  0  0  0  0  0  0
    4.7097   -0.8817   -2.9505 H   0  0  0  0  0  0  0  0  0  0  0  0
    5.2983    0.7225   -3.3622 H   0  0  0  0  0  0  0  0  0  0  0  0
    3.7683    0.8652   -1.4136 H   0  0  0  0  0  0  0  0  0  0  0  0
    3.1196    1.7541   -2.8135 H   0  0  0  0  0  0  0  0  0  0  0  0
    1.1590    0.8944   -4.0292 H   0  0  0  0  0  0  0  0  0  0  0  0
    1.9865   -0.6728   -4.3465 H   0  0  0  0  0  0  0  0  0  0  0  0
    0.4043   -0.6666   -3.5423 H   0  0  0  0  0  0  0  0  0  0  0  0
    2.8117   -1.3271   -0.7963 H   0  0  0  0  0  0  0  0  0  0  0  0
    1.3311   -1.9346   -1.6171 H   0  0  0  0  0  0  0  0  0  0  0  0
    2.8848   -1.9825   -2.4716 H   0  0  0  0  0  0  0  0  0  0  0  0
    1.6844    0.7802   -0.3451 H   0  0  0  0  0  0  0  0  0  0  0  0
    1.1457    1.8328   -1.6714 H   0  0  0  0  0  0  0  0  0  0  0  0
   -0.3320   -0.7881   -1.0306 H   0  0  0  0  0  0  0  0  0  0  0  0
   -0.8489    0.5096   -2.0708 H   0  0  0  0  0  0  0  0  0  0  0  0
   -1.3069    2.0149   -0.2787 H   0  0  0  0  0  0  0  0  0  0  0  0
   -1.1673    3.1394    1.9336 H   0  0  0  0  0  0  0  0  0  0  0  0
   -2.7571    4.4374    3.2971 H   0  0  0  0  0  0  0  0  0  0  0  0
   -4.8240    3.3765    4.1586 H   0  0  0  0  0  0  0  0  0  0  0  0
   -5.3027    1.0062    3.6711 H   0  0  0  0  0  0  0  0  0  0  0  0
   -2.8655   -3.6608    2.7098 H   0  0  0  0  0  0  0  0  0  0  0  0
   -0.6104   -4.6473    2.5609 H   0  0  0  0  0  0  0  0  0  0  0  0
    0.9767   -0.8680    1.2786 H   0  0  0  0  0  0  0  0  0  0  0  0
  1  2  1  0
  2  3  1  0
  3  4  1  0
  3  5  1  0
  3  6  1  0
  6  7  1  0
  7  8  1  0
  8  9  2  3
  9 10  1  0
 10 11  2  0
 11 12  1  0
 12 13  2  0
 13 14  1  0
 14 15  2  0
 15 16  1  0
 16 17  1  0
 17 18  2  0
 18 19  1  0
 19 20  2  0
 20 21  1  0
 20 22  1  0
 22 23  2  0
 23  9  1  0
 15 10  1  0
 23 17  1  0
  1 24  1  0
  1 25  1  0
  1 26  1  0
  2 27  1  0
  2 28  1  0
  4 29  1  0
  4 30  1  0
  4 31  1  0
  5 32  1  0
  5 33  1  0
  5 34  1  0
  6 35  1  0
  6 36  1  0
  7 37  1  0
  7 38  1  0
  8 39  1  0
 11 40  1  0
 12 41  1  0
 13 42  1  0
 14 43  1  0
 18 44  1  0
 19 45  1  0
 22 46  1  0
M  CHG  1   3   1
M  END
$$$$
