
     RDKit          3D

 40 42  0  0  0  0  0  0  0  0999 V2000
   -7.2657   -0.2133   -0.8692 C   0  0  0  0  0  0  0  0  0  0  0  0
   -6.4866    0.6318    0.4892 S   0  0  0  0  0  6  0  0  0  0  0  0
   -7.4741    0.7833    1.5373 O   0  0  0  0  0  0  0  0  0  0  0  0
   -5.7470    1.7675   -0.0124 O   0  0  0  0  0  0  0  0  0  0  0  0
   -5.4186   -0.5560    1.0570 N   0  0  0  0  0  0  0  0  0  0  0  0
   -4.0776   -0.5010    0.5802 C   0  0  0  0  0  0  0  0  0  0  0  0
   -3.1417    0.3201    1.2107 C   0  0  0  0  0  0  0  0  0  0  0  0
   -1.8383    0.4052    0.7108 C   0  0  0  0  0  0  0  0  0  0  0  0
   -1.4712   -0.3387   -0.4192 C   0  0  0  0  0  0  0  0  0  0  0  0
   -0.0948   -0.2800   -0.9927 C   0  0  0  0  0  0  0  0  0  0  0  0
    0.0316   -0.4102   -2.2042 O   0  0  0  0  0  0  0  0  0  0  0  0
    0.9194   -0.1231   -0.0651 N   0  0  0  0  0  0  0  0  0  0  0  0
    2.3018    0.0031   -0.3216 C   0  0  0  0  0  0  0  0  0  0  0  0
    2.8545    0.0821   -1.6026 C   0  0  0  0  0  0  0  0  0  0  0  0
    4.2383    0.2056   -1.7745 C   0  0  0  0  0  0  0  0  0  0  0  0
    5.0774    0.2509   -0.6663 C   0  0  0  0  0  0  0  0  0  0  0  0
    4.5318    0.2045    0.6178 C   0  0  0  0  0  0  0  0  0  0  0  0
    3.1535    0.0676    0.7894 C   0  0  0  0  0  0  0  0  0  0  0  0
    5.2893    0.2798    1.7597 O   0  0  0  0  0  0  0  0  0  0  0  0
    6.6115    0.7538    1.4766 C   0  0  0  0  0  0  0  0  0  0  0  0
    7.1878    0.0462    0.2613 C   0  0  0  0  0  0  0  0  0  0  0  0
    6.4224    0.3504   -0.9101 O   0  0  0  0  0  0  0  0  0  0  0  0
   -2.4264   -1.1386   -1.0612 C   0  0  0  0  0  0  0  0  0  0  0  0
   -3.7290   -1.2178   -0.5627 C   0  0  0  0  0  0  0  0  0  0  0  0
   -7.7031   -1.1446   -0.5046 H   0  0  0  0  0  0  0  0  0  0  0  0
   -8.0519    0.4361   -1.2605 H   0  0  0  0  0  0  0  0  0  0  0  0
   -6.5245   -0.4027   -1.6468 H   0  0  0  0  0  0  0  0  0  0  0  0
   -5.5157   -0.6155    2.0729 H   0  0  0  0  0  0  0  0  0  0  0  0
   -3.4256    0.9224    2.0700 H   0  0  0  0  0  0  0  0  0  0  0  0
   -1.1395    1.0868    1.1883 H   0  0  0  0  0  0  0  0  0  0  0  0
    0.6626   -0.1692    0.9118 H   0  0  0  0  0  0  0  0  0  0  0  0
    2.2359    0.0508   -2.4943 H   0  0  0  0  0  0  0  0  0  0  0  0
    4.6554    0.2566   -2.7766 H   0  0  0  0  0  0  0  0  0  0  0  0
    2.7596    0.0211    1.8004 H   0  0  0  0  0  0  0  0  0  0  0  0
    6.5673    1.8396    1.3258 H   0  0  0  0  0  0  0  0  0  0  0  0
    7.2298    0.5566    2.3579 H   0  0  0  0  0  0  0  0  0  0  0  0
    7.1989   -1.0423    0.3979 H   0  0  0  0  0  0  0  0  0  0  0  0
    8.2152    0.3781    0.0817 H   0  0  0  0  0  0  0  0  0  0  0  0
   -2.1560   -1.6999   -1.9541 H   0  0  0  0  0  0  0  0  0  0  0  0
   -4.4567   -1.8469   -1.0668 H   0  0  0  0  0  0  0  0  0  0  0  0
  1  2  1  0
  2  3  2  0
  2  4  2  0
  2  5  1  0
  5  6  1  0
  6  7  2  0
  7  8  1  0
  8  9  2  0
  9 10  1  0
 10 11  2  0
 10 12  1  0
 12 13  1  0
 13 14  2  0
 14 15  1  0
 15 16  2  0
 16 17  1  0
 17 18  2  0
 17 19  1  0
 19 20  1  0
 20 21  1  0
 21 22  1  0
  9 23  1  0
 23 24  2  0
 24  6  1  0
 18 13  1  0
 22 16  1  0
  1 25  1  0
  1 26  1  0
  1 27  1  0
  5 28  1  0
  7 29  1  0
  8 30  1  0
 12 31  1  0
 14 32  1  0
 15 33  1  0
 18 34  1  0
 20 35  1  0
 20 36  1  0
 21 37  1  0
 21 38  1  0
 23 39  1  0
 24 40  1  0
M  END
$$$$
