
     RDKit          3D

 42 44  0  0  0  0  0  0  0  0999 V2000
   -0.7693   -3.1934   -0.6592 C   0  0  0  0  0  0  0  0  0  0  0  0
   -0.8915   -1.7432   -0.3186 C   0  0  0  0  0  0  0  0  0  0  0  0
    0.0782   -0.8794    0.0268 C   0  0  0  0  0  0  0  0  0  0  0  0
    1.4434   -0.9437    0.1214 N   0  0  0  0  0  0  0  0  0  0  0  0
    2.3008   -1.8483   -0.4700 C   0  0  0  0  0  0  0  0  0  0  0  0
    1.9740   -2.7405   -1.2487 O   0  0  0  0  0  0  0  0  0  0  0  0
    3.7493   -1.6628   -0.0810 C   0  0  0  0  0  0  0  0  0  0  0  0
    4.2725   -0.4186   -0.6074 N   0  0  0  0  0  0  0  0  0  0  0  0
    4.9621   -0.2394   -1.7729 C   0  0  0  0  0  0  0  0  0  0  0  0
    5.2520    1.1045   -1.8445 C   0  0  0  0  0  0  0  0  0  0  0  0
    4.6968    1.6542   -0.6670 C   0  0  0  0  0  0  0  0  0  0  0  0
    4.7203    3.0368   -0.2211 N   0  0  0  0  0  4  0  0  0  0  0  0
    4.2537    3.3089    0.8939 O   0  0  0  0  0  0  0  0  0  0  0  0
    5.2302    3.8525   -1.0051 O   0  0  0  0  0  1  0  0  0  0  0  0
    4.0857    0.7221    0.0891 N   0  0  0  0  0  0  0  0  0  0  0  0
   -0.6262    0.3895    0.4011 C   0  0  0  0  0  0  0  0  0  0  0  0
   -0.0215    1.3645    0.8231 O   0  0  0  0  0  0  0  0  0  0  0  0
   -1.9914    0.1587    0.2218 N   0  0  0  0  0  0  0  0  0  0  0  0
   -3.0408    0.8630    0.8673 C   0  0  0  0  0  0  0  0  0  0  0  0
   -4.2713    0.2456    1.1415 C   0  0  0  0  0  0  0  0  0  0  0  0
   -5.3047    0.9426    1.7760 C   0  0  0  0  0  0  0  0  0  0  0  0
   -5.1230    2.2704    2.1494 C   0  0  0  0  0  0  0  0  0  0  0  0
   -3.9077    2.8979    1.8930 C   0  0  0  0  0  0  0  0  0  0  0  0
   -2.8748    2.1984    1.2594 C   0  0  0  0  0  0  0  0  0  0  0  0
   -2.1757   -1.1626   -0.2804 N   0  0  0  0  0  0  0  0  0  0  0  0
   -2.9678   -1.2074   -1.5250 C   0  0  0  0  0  0  0  0  0  0  0  0
    0.0397   -3.6741   -0.1023 H   0  0  0  0  0  0  0  0  0  0  0  0
   -1.6835   -3.7313   -0.3831 H   0  0  0  0  0  0  0  0  0  0  0  0
   -0.6110   -3.3281   -1.7332 H   0  0  0  0  0  0  0  0  0  0  0  0
    1.8661   -0.0979    0.5183 H   0  0  0  0  0  0  0  0  0  0  0  0
    3.8545   -1.6553    1.0089 H   0  0  0  0  0  0  0  0  0  0  0  0
    4.3515   -2.4853   -0.4804 H   0  0  0  0  0  0  0  0  0  0  0  0
    5.1808   -1.0621   -2.4416 H   0  0  0  0  0  0  0  0  0  0  0  0
    5.7900    1.6205   -2.6281 H   0  0  0  0  0  0  0  0  0  0  0  0
   -4.4341   -0.8001    0.8960 H   0  0  0  0  0  0  0  0  0  0  0  0
   -6.2465    0.4424    1.9862 H   0  0  0  0  0  0  0  0  0  0  0  0
   -5.9231    2.8136    2.6451 H   0  0  0  0  0  0  0  0  0  0  0  0
   -3.7565    3.9342    2.1851 H   0  0  0  0  0  0  0  0  0  0  0  0
   -1.9460    2.7294    1.0664 H   0  0  0  0  0  0  0  0  0  0  0  0
   -3.9304   -0.7000   -1.4162 H   0  0  0  0  0  0  0  0  0  0  0  0
   -3.1807   -2.2453   -1.8020 H   0  0  0  0  0  0  0  0  0  0  0  0
   -2.4244   -0.7312   -2.3495 H   0  0  0  0  0  0  0  0  0  0  0  0
  1  2  1  0
  2  3  2  0
  3  4  1  0
  4  5  1  0
  5  6  2  0
  5  7  1  0
  7  8  1  0
  8  9  1  0
  9 10  2  0
 10 11  1  0
 11 12  1  0
 12 13  2  0
 12 14  1  0
 11 15  2  0
  3 16  1  0
 16 17  2  0
 16 18  1  0
 18 19  1  0
 19 20  2  0
 20 21  1  0
 21 22  2  0
 22 23  1  0
 23 24  2  0
 18 25  1  0
 25 26  1  0
 25  2  1  0
 15  8  1  0
 24 19  1  0
  1 27  1  0
  1 28  1  0
  1 29  1  0
  4 30  1  0
  7 31  1  0
  7 32  1  0
  9 33  1  0
 10 34  1  0
 20 35  1  0
 21 36  1  0
 22 37  1  0
 23 38  1  0
 24 39  1  0
 26 40  1  0
 26 41  1  0
 26 42  1  0
M  CHG  2  12   1  14  -1
M  END
$$$$
