
     RDKit          3D

 38 39  0  0  0  0  0  0  0  0999 V2000
    0.1870    0.1966   -1.9290 C   0  0  0  0  0  0  0  0  0  0  0  0
   -0.2904    0.3094   -0.5563 N   0  0  0  0  0  0  0  0  0  0  0  0
   -1.7250    0.5475   -0.3788 C   0  0  0  0  0  0  0  0  0  0  0  0
   -2.5342   -0.7492   -0.3319 C   0  0  0  0  0  0  0  0  0  0  0  0
   -3.9904   -0.4592   -0.0877 C   0  0  0  0  0  0  0  0  0  0  0  0
   -4.4989   -0.4444    1.2091 C   0  0  0  0  0  0  0  0  0  0  0  0
   -5.8462   -0.1516    1.3982 C   0  0  0  0  0  0  0  0  0  0  0  0
   -6.6450    0.1206    0.2947 C   0  0  0  0  0  0  0  0  0  0  0  0
   -6.0586    0.0920   -0.9593 C   0  0  0  0  0  0  0  0  0  0  0  0
   -4.7537   -0.1861   -1.1743 N   0  0  0  0  0  0  0  0  0  0  0  0
    0.4587   -0.0036    0.5770 C   0  0  0  0  0  0  0  0  0  0  0  0
   -0.0443   -0.2007    1.6816 O   0  0  0  0  0  0  0  0  0  0  0  0
    1.9322   -0.0910    0.4701 C   0  0  0  0  0  0  0  0  0  0  0  0
    2.6774    0.9688   -0.0564 C   0  0  0  0  0  0  0  0  0  0  0  0
    4.0730    0.8812   -0.1194 C   0  0  0  0  0  0  0  0  0  0  0  0
    4.7280   -0.2571    0.3582 C   0  0  0  0  0  0  0  0  0  0  0  0
    6.0757   -0.4767    0.3617 O   0  0  0  0  0  0  0  0  0  0  0  0
    6.9127    0.5303   -0.1797 C   0  0  0  0  0  0  0  0  0  0  0  0
    6.7919    1.6866    0.5066 F   0  0  0  0  0  0  0  0  0  0  0  0
    6.6310    0.7481   -1.4823 F   0  0  0  0  0  0  0  0  0  0  0  0
    8.1974    0.1210   -0.0912 F   0  0  0  0  0  0  0  0  0  0  0  0
    3.9733   -1.3019    0.9062 C   0  0  0  0  0  0  0  0  0  0  0  0
    2.5808   -1.2199    0.9720 C   0  0  0  0  0  0  0  0  0  0  0  0
   -0.4854   -0.4608   -2.4884 H   0  0  0  0  0  0  0  0  0  0  0  0
    0.1770    1.1921   -2.3819 H   0  0  0  0  0  0  0  0  0  0  0  0
    1.1914   -0.2250   -1.9901 H   0  0  0  0  0  0  0  0  0  0  0  0
   -1.8652    1.1056    0.5560 H   0  0  0  0  0  0  0  0  0  0  0  0
   -2.0696    1.2027   -1.1882 H   0  0  0  0  0  0  0  0  0  0  0  0
   -2.1527   -1.4245    0.4434 H   0  0  0  0  0  0  0  0  0  0  0  0
   -2.4326   -1.2920   -1.2796 H   0  0  0  0  0  0  0  0  0  0  0  0
   -3.8575   -0.6536    2.0601 H   0  0  0  0  0  0  0  0  0  0  0  0
   -6.2669   -0.1355    2.3995 H   0  0  0  0  0  0  0  0  0  0  0  0
   -7.6979    0.3508    0.4084 H   0  0  0  0  0  0  0  0  0  0  0  0
   -6.6401    0.2993   -1.8529 H   0  0  0  0  0  0  0  0  0  0  0  0
    2.1774    1.8690   -0.4059 H   0  0  0  0  0  0  0  0  0  0  0  0
    4.6106    1.7274   -0.5382 H   0  0  0  0  0  0  0  0  0  0  0  0
    4.4731   -2.1869    1.2948 H   0  0  0  0  0  0  0  0  0  0  0  0
    2.0062   -2.0293    1.4167 H   0  0  0  0  0  0  0  0  0  0  0  0
  1  2  1  0
  2  3  1  0
  3  4  1  0
  4  5  1  0
  5  6  2  0
  6  7  1  0
  7  8  2  0
  8  9  1  0
  9 10  2  0
  2 11  1  0
 11 12  2  0
 11 13  1  0
 13 14  2  0
 14 15  1  0
 15 16  2  0
 16 17  1  0
 17 18  1  0
 18 19  1  0
 18 20  1  0
 18 21  1  0
 16 22  1  0
 22 23  2  0
 10  5  1  0
 23 13  1  0
  1 24  1  0
  1 25  1  0
  1 26  1  0
  3 27  1  0
  3 28  1  0
  4 29  1  0
  4 30  1  0
  6 31  1  0
  7 32  1  0
  8 33  1  0
  9 34  1  0
 14 35  1  0
 15 36  1  0
 22 37  1  0
 23 38  1  0
M  END
$$$$
