
     RDKit          3D

 58 62  0  0  0  0  0  0  0  0999 V2000
    7.1695    0.2122    1.6890 C   0  0  0  0  0  0  0  0  0  0  0  0
    6.1252    1.1339    1.1224 C   0  0  0  0  0  0  0  0  0  0  0  0
    6.0564    2.4742    1.8032 C   0  0  0  0  0  0  0  0  0  0  0  0
    5.3203    0.7912    0.1011 C   0  0  0  0  0  0  0  0  0  0  0  0
    4.1888    1.5630   -0.6029 C   0  0  0  0  0  0  0  0  0  0  0  0
    4.8172    1.5296   -2.0179 C   0  0  0  0  0  0  0  0  0  0  0  0
    5.5037    0.1210   -2.0911 C   0  0  0  0  0  0  0  0  0  0  0  0
    5.2053   -0.5101   -0.7083 C   0  0  0  0  0  0  0  0  0  0  0  0
    3.7283   -0.7380   -0.6125 C   0  0  0  0  0  0  0  0  0  0  0  0
    3.1141    0.5258   -0.5521 C   0  0  0  0  0  0  0  0  0  0  0  0
    1.7651    0.3606   -0.4790 C   0  0  0  0  0  0  0  0  0  0  0  0
    0.8077    1.2878   -0.4226 O   0  0  0  0  0  0  0  0  0  0  0  0
    1.5136   -1.0388   -0.4705 N   0  0  0  0  0  0  0  0  0  0  0  0
    0.2126   -1.5746   -0.3789 C   0  0  0  0  0  0  0  0  0  0  0  0
   -0.8475   -0.7931   -0.2967 N   0  0  0  0  0  0  0  0  0  0  0  0
   -1.9925   -1.5743   -0.2219 C   0  0  0  0  0  0  0  0  0  0  0  0
   -3.2981   -0.9377   -0.1207 C   0  0  0  0  0  0  0  0  0  0  0  0
   -4.3725   -1.3327   -0.9245 C   0  0  0  0  0  0  0  0  0  0  0  0
   -5.6137   -0.6980   -0.8106 C   0  0  0  0  0  0  0  0  0  0  0  0
   -5.8038    0.3502    0.1011 C   0  0  0  0  0  0  0  0  0  0  0  0
   -7.1595    1.0276    0.2017 C   0  0  0  0  0  0  0  0  0  0  0  0
   -7.7293    0.9585    1.6214 C   0  0  0  0  0  0  0  0  0  0  0  0
   -7.0952    2.4759   -0.2894 C   0  0  0  0  0  0  0  0  0  0  0  0
   -4.7171    0.7564    0.8889 C   0  0  0  0  0  0  0  0  0  0  0  0
   -3.4772    0.1207    0.7769 C   0  0  0  0  0  0  0  0  0  0  0  0
   -1.7703   -2.9439   -0.2103 C   0  0  0  0  0  0  0  0  0  0  0  0
   -2.7188   -4.0857   -0.0851 C   0  0  0  0  0  0  0  0  0  0  0  0
   -0.0826   -3.2448   -0.3591 S   0  0  0  0  0  0  0  0  0  0  0  0
    2.7627   -1.7027   -0.5656 C   0  0  0  0  0  0  0  0  0  0  0  0
    2.8865   -3.0261   -0.5957 O   0  0  0  0  0  0  0  0  0  0  0  0
    6.9520   -0.0047    2.7404 H   0  0  0  0  0  0  0  0  0  0  0  0
    7.2307   -0.7429    1.1616 H   0  0  0  0  0  0  0  0  0  0  0  0
    8.1578    0.6801    1.6294 H   0  0  0  0  0  0  0  0  0  0  0  0
    7.0282    2.9761    1.7478 H   0  0  0  0  0  0  0  0  0  0  0  0
    5.3192    3.1455    1.3564 H   0  0  0  0  0  0  0  0  0  0  0  0
    5.7915    2.3480    2.8583 H   0  0  0  0  0  0  0  0  0  0  0  0
    3.9203    2.5463   -0.2229 H   0  0  0  0  0  0  0  0  0  0  0  0
    5.5701    2.3176   -2.1387 H   0  0  0  0  0  0  0  0  0  0  0  0
    4.0691    1.6436   -2.8104 H   0  0  0  0  0  0  0  0  0  0  0  0
    5.0950   -0.4714   -2.9177 H   0  0  0  0  0  0  0  0  0  0  0  0
    6.5822    0.2395   -2.2514 H   0  0  0  0  0  0  0  0  0  0  0  0
    5.8332   -1.3519   -0.4240 H   0  0  0  0  0  0  0  0  0  0  0  0
   -0.0604    0.8258   -0.3823 H   0  0  0  0  0  0  0  0  0  0  0  0
   -4.2544   -2.1233   -1.6610 H   0  0  0  0  0  0  0  0  0  0  0  0
   -6.4313   -1.0255   -1.4498 H   0  0  0  0  0  0  0  0  0  0  0  0
   -7.8646    0.4941   -0.4499 H   0  0  0  0  0  0  0  0  0  0  0  0
   -7.7710   -0.0772    1.9771 H   0  0  0  0  0  0  0  0  0  0  0  0
   -8.7470    1.3627    1.6464 H   0  0  0  0  0  0  0  0  0  0  0  0
   -7.1280    1.5330    2.3340 H   0  0  0  0  0  0  0  0  0  0  0  0
   -8.0898    2.9344   -0.2687 H   0  0  0  0  0  0  0  0  0  0  0  0
   -6.7250    2.5229   -1.3197 H   0  0  0  0  0  0  0  0  0  0  0  0
   -6.4323    3.0893    0.3305 H   0  0  0  0  0  0  0  0  0  0  0  0
   -4.8214    1.5779    1.5947 H   0  0  0  0  0  0  0  0  0  0  0  0
   -2.6485    0.4575    1.3969 H   0  0  0  0  0  0  0  0  0  0  0  0
   -3.1630   -4.3177   -1.0580 H   0  0  0  0  0  0  0  0  0  0  0  0
   -2.2245   -4.9905    0.2841 H   0  0  0  0  0  0  0  0  0  0  0  0
   -3.5246   -3.8492    0.6169 H   0  0  0  0  0  0  0  0  0  0  0  0
    3.8379   -3.2282   -0.6303 H   0  0  0  0  0  0  0  0  0  0  0  0
  1  2  1  0
  2  3  1  0
  2  4  2  3
  4  5  1  0
  5  6  1  0
  6  7  1  0
  7  8  1  0
  8  9  1  0
  9 10  1  0
 10 11  2  0
 11 12  1  0
 11 13  1  0
 13 14  1  0
 14 15  2  0
 15 16  1  0
 16 17  1  0
 17 18  2  0
 18 19  1  0
 19 20  2  0
 20 21  1  0
 21 22  1  0
 21 23  1  0
 20 24  1  0
 24 25  2  0
 16 26  2  0
 26 27  1  0
 26 28  1  0
 13 29  1  0
 29 30  1  0
  8  4  1  0
 29  9  2  0
 10  5  1  0
 28 14  1  0
 25 17  1  0
  1 31  1  0
  1 32  1  0
  1 33  1  0
  3 34  1  0
  3 35  1  0
  3 36  1  0
  5 37  1  0
  6 38  1  0
  6 39  1  0
  7 40  1  0
  7 41  1  0
  8 42  1  0
 12 43  1  0
 18 44  1  0
 19 45  1  0
 21 46  1  0
 22 47  1  0
 22 48  1  0
 22 49  1  0
 23 50  1  0
 23 51  1  0
 23 52  1  0
 24 53  1  0
 25 54  1  0
 27 55  1  0
 27 56  1  0
 27 57  1  0
 30 58  1  0
M  END
$$$$
