
     RDKit          3D

 30 31  0  0  0  0  0  0  0  0999 V2000
   -2.9610   -1.2901   -0.2269 C   0  0  0  0  0  0  0  0  0  0  0  0
   -3.2538   -0.1511    0.7545 C   0  0  0  0  0  0  0  0  0  0  0  0
   -4.7669   -0.0241    0.9397 C   0  0  0  0  0  0  0  0  0  0  0  0
   -2.8128    1.1063    0.2211 O   0  0  0  0  0  0  0  0  0  0  0  0
   -1.5197    1.4380    0.3382 C   0  0  0  0  0  0  0  0  0  0  0  0
   -1.0144    2.4429   -0.1343 O   0  0  0  0  0  0  0  0  0  0  0  0
   -0.7187    0.4463    1.1354 C   0  0  0  0  0  0  0  0  0  0  0  0
    0.4948    0.0717    0.8432 N   0  0  0  0  0  0  0  0  0  0  0  0
    1.0825    0.6552   -0.2412 N   0  0  0  0  0  0  0  0  0  0  0  0
    2.4342    0.3423   -0.5124 C   0  0  0  0  0  0  0  0  0  0  0  0
    3.0847   -0.7518    0.0727 C   0  0  0  0  0  0  0  0  0  0  0  0
    4.4018   -1.0724   -0.2687 C   0  0  0  0  0  0  0  0  0  0  0  0
    5.0799   -0.3146   -1.2201 C   0  0  0  0  0  0  0  0  0  0  0  0
    4.4383    0.7573   -1.8355 C   0  0  0  0  0  0  0  0  0  0  0  0
    3.1214    1.0754   -1.4909 C   0  0  0  0  0  0  0  0  0  0  0  0
   -1.4227   -0.1987    2.2973 C   0  0  0  0  0  0  0  0  0  0  0  0
   -0.8670   -0.4311    3.3548 O   0  0  0  0  0  0  0  0  0  0  0  0
   -2.7188   -0.4478    2.0522 O   0  0  0  0  0  0  0  0  0  0  0  0
   -3.4079   -1.0903   -1.2067 H   0  0  0  0  0  0  0  0  0  0  0  0
   -3.3391   -2.2449    0.1539 H   0  0  0  0  0  0  0  0  0  0  0  0
   -1.8866   -1.4192   -0.3907 H   0  0  0  0  0  0  0  0  0  0  0  0
   -5.1982   -0.9412    1.3554 H   0  0  0  0  0  0  0  0  0  0  0  0
   -5.2679    0.2130   -0.0051 H   0  0  0  0  0  0  0  0  0  0  0  0
   -4.9982    0.7873    1.6400 H   0  0  0  0  0  0  0  0  0  0  0  0
    0.8596    1.6353   -0.4580 H   0  0  0  0  0  0  0  0  0  0  0  0
    2.5680   -1.3617    0.8094 H   0  0  0  0  0  0  0  0  0  0  0  0
    4.8923   -1.9168    0.2078 H   0  0  0  0  0  0  0  0  0  0  0  0
    6.1033   -0.5644   -1.4866 H   0  0  0  0  0  0  0  0  0  0  0  0
    4.9589    1.3434   -2.5880 H   0  0  0  0  0  0  0  0  0  0  0  0
    2.6340    1.9056   -1.9955 H   0  0  0  0  0  0  0  0  0  0  0  0
  1  2  1  0
  2  3  1  0
  2  4  1  0
  4  5  1  0
  5  6  2  0
  5  7  1  0
  7  8  2  3
  8  9  1  0
  9 10  1  0
 10 11  2  0
 11 12  1  0
 12 13  2  0
 13 14  1  0
 14 15  2  0
  7 16  1  0
 16 17  2  0
 16 18  1  0
 18  2  1  0
 15 10  1  0
  1 19  1  0
  1 20  1  0
  1 21  1  0
  3 22  1  0
  3 23  1  0
  3 24  1  0
  9 25  1  0
 11 26  1  0
 12 27  1  0
 13 28  1  0
 14 29  1  0
 15 30  1  0
M  END
$$$$
