
     RDKit          3D

 68 74  0  0  0  0  0  0  0  0999 V2000
   -4.7190   -4.1235   -2.3629 C   0  0  0  0  0  0  0  0  0  0  0  0
   -3.9062   -3.4487   -1.2987 C   0  0  0  0  0  0  0  0  0  0  0  0
   -3.9120   -3.9062    0.0338 C   0  0  0  0  0  0  0  0  0  0  0  0
   -4.8647   -5.2707    0.5071 Cl  0  0  0  0  0  0  0  0  0  0  0  0
   -3.1451   -3.2768    1.0347 C   0  0  0  0  0  0  0  0  0  0  0  0
   -2.3513   -2.1694    0.7375 C   0  0  0  0  0  0  0  0  0  0  0  0
   -2.3449   -1.7065   -0.5679 C   0  0  0  0  0  0  0  0  0  0  0  0
   -3.1032   -2.3450   -1.5607 C   0  0  0  0  0  0  0  0  0  0  0  0
   -2.9015   -1.7057   -2.7833 N   0  0  0  0  0  0  0  0  0  0  0  0
   -2.0010   -0.6419   -2.6755 C   0  0  0  0  0  0  0  0  0  0  0  0
   -1.6265    0.0478   -3.6114 O   0  0  0  0  0  0  0  0  0  0  0  0
   -1.5990   -0.5583   -1.1830 C   0  0  1  0  0  0  0  0  0  0  0  0
   -2.0231    0.7081   -0.5258 C   0  0  0  0  0  0  0  0  0  0  0  0
   -0.9045    1.5377   -0.3441 C   0  0  0  0  0  0  0  0  0  0  0  0
   -1.2896    2.6674    0.3170 C   0  0  0  0  0  0  0  0  0  0  0  0
   -0.5134    3.6338    0.8025 O   0  0  0  0  0  0  0  0  0  0  0  0
   -2.6945    2.6109    0.4497 N   0  0  0  0  0  0  0  0  0  0  0  0
   -3.5338    3.6624    0.9409 C   0  0  0  0  0  0  0  0  0  0  0  0
   -4.7267    3.3739    1.6160 C   0  0  0  0  0  0  0  0  0  0  0  0
   -5.5376    4.4094    2.0900 C   0  0  0  0  0  0  0  0  0  0  0  0
   -5.1695    5.7379    1.8878 C   0  0  0  0  0  0  0  0  0  0  0  0
   -3.9934    6.0352    1.2039 C   0  0  0  0  0  0  0  0  0  0  0  0
   -3.1787    5.0039    0.7287 C   0  0  0  0  0  0  0  0  0  0  0  0
   -3.1243    1.3482   -0.0143 C   0  0  0  0  0  0  0  0  0  0  0  0
   -4.3983    0.9649    0.0217 O   0  0  0  0  0  0  0  0  0  0  0  0
    0.3070    0.8984   -0.8946 C   0  0  1  0  0  0  0  0  0  0  0  0
    1.6234    0.9889   -0.1287 C   0  0  0  0  0  0  0  0  0  0  0  0
    2.6288    0.0821   -0.7203 N   0  0  0  0  0  0  0  0  0  0  0  0
    3.9672    0.3727   -0.5190 C   0  0  0  0  0  0  0  0  0  0  0  0
    4.3724    1.4317   -0.0523 O   0  0  0  0  0  0  0  0  0  0  0  0
    4.7783   -0.6438   -0.9135 O   0  0  0  0  0  0  0  0  0  0  0  0
    6.1840   -0.4115   -0.7760 C   0  0  0  0  0  0  0  0  0  0  0  0
    6.6815   -1.0090    0.5150 C   0  0  0  0  0  0  0  0  0  0  0  0
    6.9498   -0.1899    1.6206 C   0  0  0  0  0  0  0  0  0  0  0  0
    7.4092   -0.7429    2.8174 C   0  0  0  0  0  0  0  0  0  0  0  0
    7.5963   -2.1201    2.9226 C   0  0  0  0  0  0  0  0  0  0  0  0
    7.3172   -2.9468    1.8348 C   0  0  0  0  0  0  0  0  0  0  0  0
    6.8579   -2.3950    0.6367 C   0  0  0  0  0  0  0  0  0  0  0  0
    2.1759   -1.2826   -1.0522 C   0  0  0  0  0  0  0  0  0  0  0  0
    0.7684   -1.3400   -1.7017 C   0  0  0  0  0  0  0  0  0  0  0  0
   -0.1467   -0.5331   -0.9145 N   0  0  0  0  0  0  0  0  0  0  0  0
   -4.6105   -3.6447   -3.3406 H   0  0  0  0  0  0  0  0  0  0  0  0
   -4.4046   -5.1668   -2.4783 H   0  0  0  0  0  0  0  0  0  0  0  0
   -5.7838   -4.0886   -2.1058 H   0  0  0  0  0  0  0  0  0  0  0  0
   -3.1649   -3.6547    2.0553 H   0  0  0  0  0  0  0  0  0  0  0  0
   -1.7544   -1.6853    1.5064 H   0  0  0  0  0  0  0  0  0  0  0  0
   -3.3042   -1.9688   -3.6703 H   0  0  0  0  0  0  0  0  0  0  0  0
   -0.9925    4.0868    1.5204 H   0  0  0  0  0  0  0  0  0  0  0  0
   -5.0354    2.3514    1.8142 H   0  0  0  0  0  0  0  0  0  0  0  0
   -6.4590    4.1735    2.6169 H   0  0  0  0  0  0  0  0  0  0  0  0
   -5.8061    6.5398    2.2531 H   0  0  0  0  0  0  0  0  0  0  0  0
   -3.7166    7.0707    1.0227 H   0  0  0  0  0  0  0  0  0  0  0  0
   -2.3014    5.2741    0.1448 H   0  0  0  0  0  0  0  0  0  0  0  0
   -4.4553    0.0616   -0.3328 H   0  0  0  0  0  0  0  0  0  0  0  0
    0.4539    1.2573   -1.9241 H   0  0  0  0  0  0  0  0  0  0  0  0
    1.4981    0.6939    0.9216 H   0  0  0  0  0  0  0  0  0  0  0  0
    1.9987    2.0188   -0.1321 H   0  0  0  0  0  0  0  0  0  0  0  0
    6.4481    0.6496   -0.8647 H   0  0  0  0  0  0  0  0  0  0  0  0
    6.6810   -0.9100   -1.6172 H   0  0  0  0  0  0  0  0  0  0  0  0
    6.7956    0.8863    1.5560 H   0  0  0  0  0  0  0  0  0  0  0  0
    7.6172   -0.0984    3.6680 H   0  0  0  0  0  0  0  0  0  0  0  0
    7.9552   -2.5473    3.8544 H   0  0  0  0  0  0  0  0  0  0  0  0
    7.4560   -4.0219    1.9195 H   0  0  0  0  0  0  0  0  0  0  0  0
    6.6370   -3.0500   -0.2041 H   0  0  0  0  0  0  0  0  0  0  0  0
    2.8938   -1.7658   -1.7221 H   0  0  0  0  0  0  0  0  0  0  0  0
    2.1742   -1.8462   -0.1101 H   0  0  0  0  0  0  0  0  0  0  0  0
    0.4426   -2.3856   -1.7337 H   0  0  0  0  0  0  0  0  0  0  0  0
    0.8287   -0.9779   -2.7353 H   0  0  0  0  0  0  0  0  0  0  0  0
  1  2  1  0
  2  3  2  0
  3  4  1  0
  3  5  1  0
  5  6  2  0
  6  7  1  0
  7  8  2  0
  8  9  1  0
  9 10  1  0
 10 11  2  0
 10 12  1  0
 12 13  1  0
 13 14  1  0
 14 15  2  0
 15 16  1  0
 15 17  1  0
 17 18  1  0
 18 19  2  0
 19 20  1  0
 20 21  2  0
 21 22  1  0
 22 23  2  0
 17 24  1  0
 24 25  1  0
 14 26  1  0
 26 27  1  0
 27 28  1  0
 28 29  1  0
 29 30  2  0
 29 31  1  0
 31 32  1  0
 32 33  1  0
 33 34  2  0
 34 35  1  0
 35 36  2  0
 36 37  1  0
 37 38  2  0
 28 39  1  0
 39 40  1  0
 40 41  1  0
  8  2  1  0
 12 41  1  6
 12  7  1  0
 24 13  2  0
 41 26  1  0
 23 18  1  0
 38 33  1  0
  1 42  1  0
  1 43  1  0
  1 44  1  0
  5 45  1  0
  6 46  1  0
  9 47  1  0
 16 48  1  0
 19 49  1  0
 20 50  1  0
 21 51  1  0
 22 52  1  0
 23 53  1  0
 25 54  1  0
 26 55  1  6
 27 56  1  0
 27 57  1  0
 32 58  1  0
 32 59  1  0
 34 60  1  0
 35 61  1  0
 36 62  1  0
 37 63  1  0
 38 64  1  0
 39 65  1  0
 39 66  1  0
 40 67  1  0
 40 68  1  0
M  END
$$$$
