
     RDKit          3D

 54 57  0  0  0  0  0  0  0  0999 V2000
   -5.5485    1.6484    2.5667 C   0  0  0  0  0  0  0  0  0  0  0  0
   -5.0353    0.6127    1.6112 C   0  0  0  0  0  0  0  0  0  0  0  0
   -5.6799   -0.6181    1.4864 C   0  0  0  0  0  0  0  0  0  0  0  0
   -5.2245   -1.5616    0.5653 C   0  0  0  0  0  0  0  0  0  0  0  0
   -4.1133   -1.2959   -0.2524 C   0  0  0  0  0  0  0  0  0  0  0  0
   -3.6732   -2.3479   -1.2367 C   0  0  0  0  0  0  0  0  0  0  0  0
   -3.4598   -0.0460   -0.1571 C   0  0  0  0  0  0  0  0  0  0  0  0
   -2.3011    0.3052   -0.9947 C   0  0  0  0  0  0  0  0  0  0  0  0
   -1.0731    0.6227   -0.4429 C   0  0  0  0  0  0  0  0  0  0  0  0
   -0.0277    0.9496   -1.3071 C   0  0  0  0  0  0  0  0  0  0  0  0
    1.2856    1.2775   -0.7007 C   0  0  0  0  0  0  0  0  0  0  0  0
    1.7586    2.3840   -0.9170 O   0  0  0  0  0  0  0  0  0  0  0  0
    1.8035    0.2470    0.0573 N   0  0  0  0  0  0  0  0  0  0  0  0
    3.0168    0.2188    0.7313 C   0  0  0  0  0  0  0  0  0  0  0  0
    4.0792    1.5309    0.6947 S   0  0  0  0  0  0  0  0  0  0  0  0
    5.2540    0.7139    1.6180 C   0  0  0  0  0  0  0  0  0  0  0  0
    6.5478    1.3987    1.9223 C   0  0  0  0  0  0  0  0  0  0  0  0
    4.8479   -0.5664    1.9696 C   0  0  0  0  0  0  0  0  0  0  0  0
    5.7220   -1.5304    2.7124 C   0  0  0  0  0  0  0  0  0  0  0  0
    3.4939   -0.8362    1.5006 C   0  0  0  0  0  0  0  0  0  0  0  0
    2.6722   -2.0300    1.7184 C   0  0  0  0  0  0  0  0  0  0  0  0
    2.9216   -2.7525    2.8491 N   0  0  0  0  0  0  0  0  0  0  0  0
    1.7380   -2.3439    0.9839 O   0  0  0  0  0  0  0  0  0  0  0  0
   -0.2169    0.9737   -2.7054 C   0  0  0  0  0  0  0  0  0  0  0  0
    0.7848    1.2968   -3.6554 C   0  0  0  0  0  0  0  0  0  0  0  0
    0.5111    1.2848   -5.0218 C   0  0  0  0  0  0  0  0  0  0  0  0
   -0.7614    0.9484   -5.4594 C   0  0  0  0  0  0  0  0  0  0  0  0
   -1.7504    0.6267   -4.5269 C   0  0  0  0  0  0  0  0  0  0  0  0
   -1.5039    0.6321   -3.1606 C   0  0  0  0  0  0  0  0  0  0  0  0
   -2.5098    0.3038   -2.3320 N   0  0  0  0  0  0  0  0  0  0  0  0
   -3.9423    0.8923    0.7799 C   0  0  0  0  0  0  0  0  0  0  0  0
   -4.7320    2.2787    2.9346 H   0  0  0  0  0  0  0  0  0  0  0  0
   -6.0135    1.1782    3.4398 H   0  0  0  0  0  0  0  0  0  0  0  0
   -6.2895    2.2822    2.0695 H   0  0  0  0  0  0  0  0  0  0  0  0
   -6.5470   -0.8507    2.1003 H   0  0  0  0  0  0  0  0  0  0  0  0
   -5.7475   -2.5124    0.4858 H   0  0  0  0  0  0  0  0  0  0  0  0
   -2.5867   -2.4784   -1.2105 H   0  0  0  0  0  0  0  0  0  0  0  0
   -3.9878   -2.0751   -2.2486 H   0  0  0  0  0  0  0  0  0  0  0  0
   -4.1132   -3.3226   -0.9981 H   0  0  0  0  0  0  0  0  0  0  0  0
   -0.9330    0.6208    0.6333 H   0  0  0  0  0  0  0  0  0  0  0  0
    1.2853   -0.6317    0.0928 H   0  0  0  0  0  0  0  0  0  0  0  0
    7.3618    0.9338    1.3561 H   0  0  0  0  0  0  0  0  0  0  0  0
    6.7792    1.3178    2.9898 H   0  0  0  0  0  0  0  0  0  0  0  0
    6.5272    2.4641    1.6699 H   0  0  0  0  0  0  0  0  0  0  0  0
    6.7828   -1.2929    2.5812 H   0  0  0  0  0  0  0  0  0  0  0  0
    5.4997   -1.4982    3.7835 H   0  0  0  0  0  0  0  0  0  0  0  0
    5.5808   -2.5522    2.3472 H   0  0  0  0  0  0  0  0  0  0  0  0
    3.4086   -2.3289    3.6246 H   0  0  0  0  0  0  0  0  0  0  0  0
    2.2353   -3.4621    3.0700 H   0  0  0  0  0  0  0  0  0  0  0  0
    1.7882    1.5713   -3.3325 H   0  0  0  0  0  0  0  0  0  0  0  0
    1.2891    1.5417   -5.7361 H   0  0  0  0  0  0  0  0  0  0  0  0
   -0.9918    0.9371   -6.5211 H   0  0  0  0  0  0  0  0  0  0  0  0
   -2.7466    0.3648   -4.8771 H   0  0  0  0  0  0  0  0  0  0  0  0
   -3.4650    1.8696    0.8486 H   0  0  0  0  0  0  0  0  0  0  0  0
  1  2  1  0
  2  3  2  0
  3  4  1  0
  4  5  2  0
  5  6  1  0
  5  7  1  0
  7  8  1  0
  8  9  2  0
  9 10  1  0
 10 11  1  0
 11 12  2  0
 11 13  1  0
 13 14  1  0
 14 15  1  0
 15 16  1  0
 16 17  1  0
 16 18  2  0
 18 19  1  0
 18 20  1  0
 20 21  1  0
 21 22  1  0
 21 23  2  0
 10 24  2  0
 24 25  1  0
 25 26  2  0
 26 27  1  0
 27 28  2  0
 28 29  1  0
 29 30  2  0
  7 31  2  0
 31  2  1  0
 30  8  1  0
 20 14  2  0
 29 24  1  0
  1 32  1  0
  1 33  1  0
  1 34  1  0
  3 35  1  0
  4 36  1  0
  6 37  1  0
  6 38  1  0
  6 39  1  0
  9 40  1  0
 13 41  1  0
 17 42  1  0
 17 43  1  0
 17 44  1  0
 19 45  1  0
 19 46  1  0
 19 47  1  0
 22 48  1  0
 22 49  1  0
 25 50  1  0
 26 51  1  0
 27 52  1  0
 28 53  1  0
 31 54  1  0
M  END
$$$$
