
     RDKit          3D

 46 49  0  0  0  0  0  0  0  0999 V2000
    3.4338    2.6975    0.2338 O   0  0  0  0  0  0  0  0  0  0  0  0
    2.8313    2.0803   -0.6421 C   0  0  0  0  0  0  0  0  0  0  0  0
    2.0393    2.8250   -1.7128 C   0  0  0  0  0  0  0  0  0  0  0  0
    0.3353    3.1235   -1.1443 S   0  0  0  0  0  0  0  0  0  0  0  0
   -0.2951    1.5123   -1.2058 C   0  0  0  0  0  0  0  0  0  0  0  0
    0.1946    0.5399   -1.9379 N   0  0  0  0  0  0  0  0  0  0  0  0
   -0.4884   -0.6007   -1.6269 N   0  0  0  0  0  0  0  0  0  0  0  0
   -1.4147   -0.2974   -0.7354 C   0  0  0  0  0  0  0  0  0  0  0  0
   -2.3984   -1.2525   -0.1429 C   0  0  0  0  0  0  0  0  0  0  0  0
   -3.5023   -1.5888   -1.1043 C   0  0  0  0  0  0  0  0  0  0  0  0
   -3.5787   -2.6618   -1.9702 C   0  0  0  0  0  0  0  0  0  0  0  0
   -4.7668   -2.6491   -2.7499 C   0  0  0  0  0  0  0  0  0  0  0  0
   -5.5652   -1.5684   -2.4556 C   0  0  0  0  0  0  0  0  0  0  0  0
   -4.8934   -0.5915   -1.2282 S   0  0  0  0  0  0  0  0  0  0  0  0
   -1.3202    1.0449   -0.4349 N   0  0  0  0  0  0  0  0  0  0  0  0
   -2.1242    1.7918    0.5123 C   0  0  0  0  0  0  0  0  0  0  0  0
   -1.5820    1.6528    1.8864 C   0  0  0  0  0  0  0  0  0  0  0  0
   -0.4762    2.1571    2.5384 C   0  0  0  0  0  0  0  0  0  0  0  0
   -0.5305    1.6574    3.8614 C   0  0  0  0  0  0  0  0  0  0  0  0
   -1.6608    0.8823    3.9336 C   0  0  0  0  0  0  0  0  0  0  0  0
   -2.3052    0.8737    2.7413 O   0  0  0  0  0  0  0  0  0  0  0  0
    2.7588    0.7041   -0.7648 N   0  0  0  0  0  0  0  0  0  0  0  0
    3.3681   -0.2681    0.0462 C   0  0  0  0  0  0  0  0  0  0  0  0
    4.3084    0.0193    1.0340 C   0  0  0  0  0  0  0  0  0  0  0  0
    4.8794   -1.0114    1.7853 C   0  0  0  0  0  0  0  0  0  0  0  0
    4.5041   -2.3329    1.5553 C   0  0  0  0  0  0  0  0  0  0  0  0
    5.2603   -3.7184    2.5857 Br  0  0  0  0  0  0  0  0  0  0  0  0
    3.5628   -2.6330    0.5773 C   0  0  0  0  0  0  0  0  0  0  0  0
    3.0029   -1.6047   -0.1787 C   0  0  0  0  0  0  0  0  0  0  0  0
    2.0557    2.2837   -2.6656 H   0  0  0  0  0  0  0  0  0  0  0  0
    2.5261    3.7896   -1.8839 H   0  0  0  0  0  0  0  0  0  0  0  0
   -1.8600   -2.1743    0.1134 H   0  0  0  0  0  0  0  0  0  0  0  0
   -2.8132   -0.8865    0.7992 H   0  0  0  0  0  0  0  0  0  0  0  0
   -2.8022   -3.4137   -2.0528 H   0  0  0  0  0  0  0  0  0  0  0  0
   -5.0188   -3.3839   -3.5008 H   0  0  0  0  0  0  0  0  0  0  0  0
   -6.5087   -1.3081   -2.9058 H   0  0  0  0  0  0  0  0  0  0  0  0
   -3.1512    1.4228    0.4517 H   0  0  0  0  0  0  0  0  0  0  0  0
   -2.1579    2.8407    0.2090 H   0  0  0  0  0  0  0  0  0  0  0  0
    0.2804    2.8034    2.1192 H   0  0  0  0  0  0  0  0  0  0  0  0
    0.1666    1.8387    4.6651 H   0  0  0  0  0  0  0  0  0  0  0  0
   -2.1184    0.3025    4.7187 H   0  0  0  0  0  0  0  0  0  0  0  0
    2.0786    0.3472   -1.4427 H   0  0  0  0  0  0  0  0  0  0  0  0
    4.6225    1.0378    1.2496 H   0  0  0  0  0  0  0  0  0  0  0  0
    5.6097   -0.7677    2.5493 H   0  0  0  0  0  0  0  0  0  0  0  0
    3.2553   -3.6586    0.4046 H   0  0  0  0  0  0  0  0  0  0  0  0
    2.2585   -1.8568   -0.9328 H   0  0  0  0  0  0  0  0  0  0  0  0
  1  2  2  0
  2  3  1  0
  3  4  1  0
  4  5  1  0
  5  6  2  0
  6  7  1  0
  7  8  2  0
  8  9  1  0
  9 10  1  0
 10 11  2  0
 11 12  1  0
 12 13  2  0
 13 14  1  0
  8 15  1  0
 15 16  1  0
 16 17  1  0
 17 18  2  0
 18 19  1  0
 19 20  2  0
 20 21  1  0
  2 22  1  0
 22 23  1  0
 23 24  2  0
 24 25  1  0
 25 26  2  0
 26 27  1  0
 26 28  1  0
 28 29  2  0
 15  5  1  0
 21 17  1  0
 29 23  1  0
 14 10  1  0
  3 30  1  0
  3 31  1  0
  9 32  1  0
  9 33  1  0
 11 34  1  0
 12 35  1  0
 13 36  1  0
 16 37  1  0
 16 38  1  0
 18 39  1  0
 19 40  1  0
 20 41  1  0
 22 42  1  0
 24 43  1  0
 25 44  1  0
 28 45  1  0
 29 46  1  0
M  END
$$$$
