
     RDKit          3D

 57 62  0  0  0  0  0  0  0  0999 V2000
    8.1977    0.8190    1.1149 C   0  0  0  0  0  0  0  0  0  0  0  0
    6.8689    0.2622    0.7348 C   0  0  0  0  0  0  0  0  0  0  0  0
    6.3717    0.0080   -0.5260 C   0  0  0  0  0  0  0  0  0  0  0  0
    5.0552   -0.5370   -0.4850 C   0  0  0  0  0  0  0  0  0  0  0  0
    4.5767   -0.6636    0.8059 C   0  0  0  0  0  0  0  0  0  0  0  0
    3.2991   -1.1802    1.2768 C   0  0  0  0  0  0  0  0  0  0  0  0
    3.2247   -2.0008    2.1925 O   0  0  0  0  0  0  0  0  0  0  0  0
    2.1356   -0.7335    0.6303 N   0  0  0  0  0  0  0  0  0  0  0  0
    0.8675   -1.3541    0.9977 C   0  0  0  0  0  0  0  0  0  0  0  0
   -0.1459   -1.2030   -0.1284 C   0  0  0  0  0  0  0  0  0  0  0  0
   -0.4819    0.2840   -0.4488 C   0  0  0  0  0  0  0  0  0  0  0  0
    0.7257    1.1837   -0.0339 C   0  0  0  0  0  0  0  0  0  0  0  0
    2.0656    0.4696   -0.1970 C   0  0  0  0  0  0  0  0  0  0  0  0
   -0.6245    0.3140   -1.8959 O   0  0  0  0  0  0  0  0  0  0  0  0
   -1.1595    1.4521   -2.4317 C   0  0  0  0  0  0  0  0  0  0  0  0
   -0.9800    1.6288   -3.8030 C   0  0  0  0  0  0  0  0  0  0  0  0
   -1.4701    2.7776   -4.4291 C   0  0  0  0  0  0  0  0  0  0  0  0
   -2.1424    3.7451   -3.6814 C   0  0  0  0  0  0  0  0  0  0  0  0
   -2.7396    5.1580   -4.4582 Cl  0  0  0  0  0  0  0  0  0  0  0  0
   -2.3396    3.5706   -2.3141 C   0  0  0  0  0  0  0  0  0  0  0  0
   -1.8538    2.4135   -1.6975 C   0  0  0  0  0  0  0  0  0  0  0  0
   -2.0888    2.1761   -0.2607 C   0  0  0  0  0  0  0  0  0  0  0  0
   -2.5312    3.0793    0.4401 O   0  0  0  0  0  0  0  0  0  0  0  0
   -1.8066    0.7566    0.2203 C   0  0  0  0  0  0  0  0  0  0  0  0
   -3.0504   -0.0769   -0.0790 C   0  0  0  0  0  0  0  0  0  0  0  0
   -3.2147   -0.7557    1.2360 C   0  0  0  0  0  0  0  0  0  0  0  0
   -4.1846   -1.8495    1.4388 C   0  0  0  0  0  0  0  0  0  0  0  0
   -4.2423   -2.5158    2.6644 C   0  0  0  0  0  0  0  0  0  0  0  0
   -5.1578   -3.5509    2.8414 C   0  0  0  0  0  0  0  0  0  0  0  0
   -5.9863   -3.8842    1.7823 C   0  0  0  0  0  0  0  0  0  0  0  0
   -5.9585   -3.2598    0.5840 N   0  0  0  0  0  0  0  0  0  0  0  0
   -5.0613   -2.2542    0.4407 C   0  0  0  0  0  0  0  0  0  0  0  0
   -2.4382   -0.3199    2.1737 N   0  0  0  0  0  0  0  0  0  0  0  0
   -1.6771    0.7445    1.6440 O   0  0  0  0  0  0  0  0  0  0  0  0
    5.7466   -0.1665    1.9531 S   0  0  0  0  0  0  0  0  0  0  0  0
    8.7604    0.1017    1.7213 H   0  0  0  0  0  0  0  0  0  0  0  0
    8.7949    1.0466    0.2257 H   0  0  0  0  0  0  0  0  0  0  0  0
    8.0821    1.7458    1.6866 H   0  0  0  0  0  0  0  0  0  0  0  0
    6.9298    0.1913   -1.4365 H   0  0  0  0  0  0  0  0  0  0  0  0
    4.4926   -0.8333   -1.3616 H   0  0  0  0  0  0  0  0  0  0  0  0
    1.0295   -2.4177    1.2061 H   0  0  0  0  0  0  0  0  0  0  0  0
    0.5164   -0.8886    1.9251 H   0  0  0  0  0  0  0  0  0  0  0  0
    0.2675   -1.6838   -1.0270 H   0  0  0  0  0  0  0  0  0  0  0  0
   -1.0392   -1.7860    0.1083 H   0  0  0  0  0  0  0  0  0  0  0  0
    0.6313    1.4873    1.0162 H   0  0  0  0  0  0  0  0  0  0  0  0
    0.7623    2.1035   -0.6276 H   0  0  0  0  0  0  0  0  0  0  0  0
    2.2093    0.1652   -1.2398 H   0  0  0  0  0  0  0  0  0  0  0  0
    2.8704    1.1601    0.0732 H   0  0  0  0  0  0  0  0  0  0  0  0
   -0.4487    0.8799   -4.3862 H   0  0  0  0  0  0  0  0  0  0  0  0
   -1.3213    2.9140   -5.4979 H   0  0  0  0  0  0  0  0  0  0  0  0
   -2.8731    4.3210   -1.7343 H   0  0  0  0  0  0  0  0  0  0  0  0
   -2.9119   -0.7881   -0.8972 H   0  0  0  0  0  0  0  0  0  0  0  0
   -3.9422    0.5285   -0.2755 H   0  0  0  0  0  0  0  0  0  0  0  0
   -3.5820   -2.2352    3.4823 H   0  0  0  0  0  0  0  0  0  0  0  0
   -5.2224   -4.0830    3.7844 H   0  0  0  0  0  0  0  0  0  0  0  0
   -6.7163   -4.6842    1.8725 H   0  0  0  0  0  0  0  0  0  0  0  0
   -5.0893   -1.7824   -0.5361 H   0  0  0  0  0  0  0  0  0  0  0  0
  1  2  1  0
  2  3  2  0
  3  4  1  0
  4  5  2  0
  5  6  1  0
  6  7  2  0
  6  8  1  0
  8  9  1  0
  9 10  1  0
 10 11  1  0
 11 12  1  0
 12 13  1  0
 11 14  1  0
 14 15  1  0
 15 16  2  0
 16 17  1  0
 17 18  2  0
 18 19  1  0
 18 20  1  0
 20 21  2  0
 21 22  1  0
 22 23  2  0
 22 24  1  0
 24 25  1  0
 25 26  1  0
 26 27  1  0
 27 28  2  0
 28 29  1  0
 29 30  2  0
 30 31  1  0
 31 32  2  0
 26 33  2  0
 33 34  1  0
  5 35  1  0
 35  2  1  0
 13  8  1  0
 21 15  1  0
 34 24  1  0
 24 11  1  0
 32 27  1  0
  1 36  1  0
  1 37  1  0
  1 38  1  0
  3 39  1  0
  4 40  1  0
  9 41  1  0
  9 42  1  0
 10 43  1  0
 10 44  1  0
 12 45  1  0
 12 46  1  0
 13 47  1  0
 13 48  1  0
 16 49  1  0
 17 50  1  0
 20 51  1  0
 25 52  1  0
 25 53  1  0
 28 54  1  0
 29 55  1  0
 30 56  1  0
 32 57  1  0
M  END
$$$$
