
     RDKit          3D

 39 42  0  0  0  0  0  0  0  0999 V2000
   -6.8976   -2.2673   -1.6813 O   0  0  0  0  0  0  0  0  0  0  0  0
   -6.6872   -1.9481   -0.5244 C   0  0  0  0  0  0  0  0  0  0  0  0
   -7.2637   -2.6178    0.4918 O   0  0  0  0  0  0  0  0  0  0  0  0
   -5.8200   -0.8263   -0.0364 C   0  0  0  0  0  0  0  0  0  0  0  0
   -5.1456   -0.1269   -1.2125 C   0  0  0  0  0  0  0  0  0  0  0  0
   -4.2901    0.9798   -0.7689 N   0  0  0  0  0  0  0  0  0  0  0  0
   -2.9891    0.6931   -0.3805 C   0  0  0  0  0  0  0  0  0  0  0  0
   -2.5032   -0.4281   -0.3798 O   0  0  0  0  0  0  0  0  0  0  0  0
   -2.2801    1.9350    0.0452 C   0  0  0  0  0  0  0  0  0  0  0  0
   -1.0176    2.1159    0.4574 C   0  0  0  0  0  0  0  0  0  0  0  0
   -0.0223    1.1176    0.6289 C   0  0  0  0  0  0  0  0  0  0  0  0
   -0.0694   -0.1609    1.1652 C   0  0  0  0  0  0  0  0  0  0  0  0
    1.2379   -0.6999    1.1239 C   0  0  0  0  0  0  0  0  0  0  0  0
    2.0601    0.2707    0.5864 C   0  0  0  0  0  0  0  0  0  0  0  0
    3.4761    0.1994    0.3483 C   0  0  0  0  0  0  0  0  0  0  0  0
    4.1863   -0.8672    0.6505 N   0  0  0  0  0  0  0  0  0  0  0  0
    5.5132   -0.6587    0.3139 C   0  0  0  0  0  0  0  0  0  0  0  0
    6.5651   -1.5805    0.4908 C   0  0  0  0  0  0  0  0  0  0  0  0
    7.8648   -1.2366    0.1044 C   0  0  0  0  0  0  0  0  0  0  0  0
    8.1270    0.0106   -0.4538 C   0  0  0  0  0  0  0  0  0  0  0  0
    7.1015    0.9429   -0.6399 C   0  0  0  0  0  0  0  0  0  0  0  0
    5.8001    0.5867   -0.2483 C   0  0  0  0  0  0  0  0  0  0  0  0
    4.3465    1.5029   -0.3468 S   0  0  0  0  0  0  0  0  0  0  0  0
    1.2928    1.3711    0.3072 O   0  0  0  0  0  0  0  0  0  0  0  0
   -3.3647    3.2808   -0.0980 S   0  0  0  0  0  0  0  0  0  0  0  0
   -4.6998    2.2900   -0.6584 C   0  0  0  0  0  0  0  0  0  0  0  0
   -6.2066    2.9305   -0.9739 S   0  0  0  0  0  0  0  0  0  0  0  0
   -7.7971   -3.3159    0.0557 H   0  0  0  0  0  0  0  0  0  0  0  0
   -5.0651   -1.2383    0.6422 H   0  0  0  0  0  0  0  0  0  0  0  0
   -6.4440   -0.1205    0.5219 H   0  0  0  0  0  0  0  0  0  0  0  0
   -5.8943    0.2441   -1.9206 H   0  0  0  0  0  0  0  0  0  0  0  0
   -4.5275   -0.8454   -1.7657 H   0  0  0  0  0  0  0  0  0  0  0  0
   -0.6711    3.1285    0.6552 H   0  0  0  0  0  0  0  0  0  0  0  0
   -0.9503   -0.6582    1.5477 H   0  0  0  0  0  0  0  0  0  0  0  0
    1.5560   -1.6805    1.4519 H   0  0  0  0  0  0  0  0  0  0  0  0
    6.3563   -2.5526    0.9265 H   0  0  0  0  0  0  0  0  0  0  0  0
    8.6730   -1.9510    0.2425 H   0  0  0  0  0  0  0  0  0  0  0  0
    9.1425    0.2654   -0.7503 H   0  0  0  0  0  0  0  0  0  0  0  0
    7.3073    1.9158   -1.0760 H   0  0  0  0  0  0  0  0  0  0  0  0
  1  2  2  0
  2  3  1  0
  2  4  1  0
  4  5  1  0
  5  6  1  0
  6  7  1  0
  7  8  2  0
  7  9  1  0
  9 10  2  3
 10 11  1  0
 11 12  2  0
 12 13  1  0
 13 14  2  0
 14 15  1  0
 15 16  2  0
 16 17  1  0
 17 18  2  0
 18 19  1  0
 19 20  2  0
 20 21  1  0
 21 22  2  0
 22 23  1  0
 14 24  1  0
  9 25  1  0
 25 26  1  0
 26 27  2  0
 26  6  1  0
 24 11  1  0
 23 15  1  0
 22 17  1  0
  3 28  1  0
  4 29  1  0
  4 30  1  0
  5 31  1  0
  5 32  1  0
 10 33  1  0
 12 34  1  0
 13 35  1  0
 18 36  1  0
 19 37  1  0
 20 38  1  0
 21 39  1  0
M  END
$$$$
