
     RDKit          3D

 57 60  0  0  0  0  0  0  0  0999 V2000
   -5.1282   -3.5138    0.7737 C   0  0  0  0  0  0  0  0  0  0  0  0
   -4.4890   -2.4056   -0.0634 C   0  0  0  0  0  0  0  0  0  0  0  0
   -5.2910   -2.1918   -1.3463 C   0  0  0  0  0  0  0  0  0  0  0  0
   -4.4278   -1.0981    0.7296 C   0  0  0  0  0  0  0  0  0  0  0  0
   -5.2549   -0.8603    1.6122 O   0  0  0  0  0  0  0  0  0  0  0  0
   -3.4487   -0.1761    0.3869 N   0  0  0  0  0  0  0  0  0  0  0  0
   -2.3616   -0.4150   -0.5733 C   0  0  0  0  0  0  0  0  0  0  0  0
   -1.6294    0.8771   -0.9751 C   0  0  0  0  0  0  0  0  0  0  0  0
   -1.0702    1.5596    0.2187 N   0  0  0  0  0  0  0  0  0  0  0  0
   -0.5996    2.8574   -0.1304 C   0  0  0  0  0  0  0  0  0  0  0  0
   -1.4612    3.9500   -0.3071 C   0  0  0  0  0  0  0  0  0  0  0  0
   -0.9571    5.1951   -0.6867 C   0  0  0  0  0  0  0  0  0  0  0  0
    0.4107    5.3611   -0.8970 C   0  0  0  0  0  0  0  0  0  0  0  0
    1.2852    4.2856   -0.7267 C   0  0  0  0  0  0  0  0  0  0  0  0
    0.7898    3.0387   -0.3458 C   0  0  0  0  0  0  0  0  0  0  0  0
    1.5935    1.9012   -0.1258 N   0  0  0  0  0  0  0  0  0  0  0  0
    2.9506    1.7608   -0.3039 C   0  0  0  0  0  0  0  0  0  0  0  0
    3.7187    2.5982   -0.7618 O   0  0  0  0  0  0  0  0  0  0  0  0
    3.4963    0.4248    0.0746 C   0  0  0  0  0  0  0  0  0  0  0  0
    2.9545   -0.3259    1.1289 C   0  0  0  0  0  0  0  0  0  0  0  0
    3.4953   -1.5737    1.4497 C   0  0  0  0  0  0  0  0  0  0  0  0
    4.5830   -2.0654    0.7309 C   0  0  0  0  0  0  0  0  0  0  0  0
    5.1202   -1.3233   -0.3260 C   0  0  0  0  0  0  0  0  0  0  0  0
    4.5924   -0.0729   -0.6422 C   0  0  0  0  0  0  0  0  0  0  0  0
    6.1731   -1.7584   -1.0899 O   0  0  0  0  0  0  0  0  0  0  0  0
    6.4185   -3.1565   -0.9003 C   0  0  0  0  0  0  0  0  0  0  0  0
    6.3793   -3.5164    0.5754 C   0  0  0  0  0  0  0  0  0  0  0  0
    5.0728   -3.2862    1.1166 O   0  0  0  0  0  0  0  0  0  0  0  0
   -1.9352    1.5255    1.4275 C   0  0  0  0  0  0  0  0  0  0  0  0
   -3.3807    1.0923    1.1261 C   0  0  0  0  0  0  0  0  0  0  0  0
   -6.1693   -3.2850    1.0261 H   0  0  0  0  0  0  0  0  0  0  0  0
   -5.1143   -4.4647    0.2309 H   0  0  0  0  0  0  0  0  0  0  0  0
   -4.5842   -3.6519    1.7144 H   0  0  0  0  0  0  0  0  0  0  0  0
   -3.4743   -2.7328   -0.3093 H   0  0  0  0  0  0  0  0  0  0  0  0
   -6.3221   -1.8936   -1.1223 H   0  0  0  0  0  0  0  0  0  0  0  0
   -5.3244   -3.1108   -1.9407 H   0  0  0  0  0  0  0  0  0  0  0  0
   -4.8597   -1.4028   -1.9694 H   0  0  0  0  0  0  0  0  0  0  0  0
   -1.6609   -1.1084   -0.0931 H   0  0  0  0  0  0  0  0  0  0  0  0
   -2.7543   -0.9031   -1.4675 H   0  0  0  0  0  0  0  0  0  0  0  0
   -0.8161    0.6262   -1.6669 H   0  0  0  0  0  0  0  0  0  0  0  0
   -2.3347    1.5292   -1.5084 H   0  0  0  0  0  0  0  0  0  0  0  0
   -2.5319    3.8411   -0.1647 H   0  0  0  0  0  0  0  0  0  0  0  0
   -1.6319    6.0364   -0.8232 H   0  0  0  0  0  0  0  0  0  0  0  0
    0.8025    6.3310   -1.1941 H   0  0  0  0  0  0  0  0  0  0  0  0
    2.3456    4.4492   -0.8911 H   0  0  0  0  0  0  0  0  0  0  0  0
    1.0373    1.1048    0.1703 H   0  0  0  0  0  0  0  0  0  0  0  0
    2.1342    0.0583    1.7299 H   0  0  0  0  0  0  0  0  0  0  0  0
    3.0846   -2.1521    2.2723 H   0  0  0  0  0  0  0  0  0  0  0  0
    5.0252    0.5072   -1.4553 H   0  0  0  0  0  0  0  0  0  0  0  0
    5.6705   -3.7208   -1.4707 H   0  0  0  0  0  0  0  0  0  0  0  0
    7.4052   -3.3792   -1.3171 H   0  0  0  0  0  0  0  0  0  0  0  0
    7.1045   -2.9298    1.1526 H   0  0  0  0  0  0  0  0  0  0  0  0
    6.6123   -4.5770    0.7127 H   0  0  0  0  0  0  0  0  0  0  0  0
   -1.4897    0.7894    2.1088 H   0  0  0  0  0  0  0  0  0  0  0  0
   -1.9350    2.4798    1.9687 H   0  0  0  0  0  0  0  0  0  0  0  0
   -3.9414    1.0282    2.0640 H   0  0  0  0  0  0  0  0  0  0  0  0
   -3.8770    1.8432    0.5008 H   0  0  0  0  0  0  0  0  0  0  0  0
  1  2  1  0
  2  3  1  0
  2  4  1  0
  4  5  2  0
  4  6  1  0
  6  7  1  0
  7  8  1  0
  8  9  1  0
  9 10  1  0
 10 11  2  0
 11 12  1  0
 12 13  2  0
 13 14  1  0
 14 15  2  0
 15 16  1  0
 16 17  1  0
 17 18  2  0
 17 19  1  0
 19 20  2  0
 20 21  1  0
 21 22  2  0
 22 23  1  0
 23 24  2  0
 23 25  1  0
 25 26  1  0
 26 27  1  0
 27 28  1  0
  9 29  1  0
 29 30  1  0
 30  6  1  0
 15 10  1  0
 24 19  1  0
 28 22  1  0
  1 31  1  0
  1 32  1  0
  1 33  1  0
  2 34  1  0
  3 35  1  0
  3 36  1  0
  3 37  1  0
  7 38  1  0
  7 39  1  0
  8 40  1  0
  8 41  1  0
 11 42  1  0
 12 43  1  0
 13 44  1  0
 14 45  1  0
 16 46  1  0
 20 47  1  0
 21 48  1  0
 24 49  1  0
 26 50  1  0
 26 51  1  0
 27 52  1  0
 27 53  1  0
 29 54  1  0
 29 55  1  0
 30 56  1  0
 30 57  1  0
M  END
$$$$
