
     RDKit          3D

 32 34  0  0  0  0  0  0  0  0999 V2000
    4.9561    0.9156    0.6314 C   0  0  0  0  0  0  0  0  0  0  0  0
    4.3965   -0.4586    0.3148 C   0  0  0  0  0  0  0  0  0  0  0  0
    2.9644   -0.4324    0.3673 O   0  0  0  0  0  0  0  0  0  0  0  0
    2.3438   -0.0716   -0.7860 C   0  0  0  0  0  0  0  0  0  0  0  0
    2.8822    0.2535   -1.8342 O   0  0  0  0  0  0  0  0  0  0  0  0
    0.8904   -0.1081   -0.5761 C   0  0  0  0  0  0  0  0  0  0  0  0
    0.2136    1.0607   -0.5390 C   0  0  0  0  0  0  0  0  0  0  0  0
    0.8426    2.2820   -0.6806 O   0  0  0  0  0  0  0  0  0  0  0  0
   -1.2453    1.0656   -0.3330 C   0  0  0  0  0  0  0  0  0  0  0  0
   -2.0939    2.1676   -0.2114 C   0  0  0  0  0  0  0  0  0  0  0  0
   -3.4820    1.9835   -0.0127 C   0  0  0  0  0  0  0  0  0  0  0  0
   -4.0459    0.7015    0.0778 C   0  0  0  0  0  0  0  0  0  0  0  0
   -3.2035   -0.3860   -0.0242 C   0  0  0  0  0  0  0  0  0  0  0  0
   -1.8483   -0.1736   -0.2213 C   0  0  0  0  0  0  0  0  0  0  0  0
   -1.1543   -1.3698   -0.2750 N   0  0  0  0  0  0  0  0  0  0  0  0
    0.2063   -1.4331   -0.4342 C   0  0  0  0  0  0  0  0  0  0  0  0
    0.8242   -2.4931   -0.4741 O   0  0  0  0  0  0  0  0  0  0  0  0
   -2.0862   -2.4830   -0.1038 C   0  0  0  0  0  0  0  0  0  0  0  0
   -3.4937   -1.8546    0.0485 C   0  0  0  0  0  0  0  0  0  0  0  0
    4.5917    1.2644    1.6033 H   0  0  0  0  0  0  0  0  0  0  0  0
    4.6342    1.6518   -0.1119 H   0  0  0  0  0  0  0  0  0  0  0  0
    6.0493    0.8941    0.6512 H   0  0  0  0  0  0  0  0  0  0  0  0
    4.7318   -1.1757    1.0713 H   0  0  0  0  0  0  0  0  0  0  0  0
    4.7543   -0.8235   -0.6549 H   0  0  0  0  0  0  0  0  0  0  0  0
    0.2346    2.8991   -1.1207 H   0  0  0  0  0  0  0  0  0  0  0  0
   -1.7117    3.1835   -0.2488 H   0  0  0  0  0  0  0  0  0  0  0  0
   -4.1264    2.8565    0.0796 H   0  0  0  0  0  0  0  0  0  0  0  0
   -5.1129    0.5766    0.2339 H   0  0  0  0  0  0  0  0  0  0  0  0
   -2.0226   -3.1426   -0.9760 H   0  0  0  0  0  0  0  0  0  0  0  0
   -1.7963   -3.0571    0.7831 H   0  0  0  0  0  0  0  0  0  0  0  0
   -3.9411   -2.1258    1.0096 H   0  0  0  0  0  0  0  0  0  0  0  0
   -4.1517   -2.1676   -0.7679 H   0  0  0  0  0  0  0  0  0  0  0  0
  1  2  1  0
  2  3  1  0
  3  4  1  0
  4  5  2  0
  4  6  1  0
  6  7  2  0
  7  8  1  0
  7  9  1  0
  9 10  2  0
 10 11  1  0
 11 12  2  0
 12 13  1  0
 13 14  2  0
 14 15  1  0
 15 16  1  0
 16 17  2  0
 15 18  1  0
 18 19  1  0
 16  6  1  0
 14  9  1  0
 19 13  1  0
  1 20  1  0
  1 21  1  0
  1 22  1  0
  2 23  1  0
  2 24  1  0
  8 25  1  0
 10 26  1  0
 11 27  1  0
 12 28  1  0
 18 29  1  0
 18 30  1  0
 19 31  1  0
 19 32  1  0
M  END
$$$$
