
     RDKit          3D

 46 48  0  0  0  0  0  0  0  0999 V2000
    1.8644   -2.4620    1.4623 C   0  0  0  0  0  0  0  0  0  0  0  0
    2.1550   -1.2482    0.6077 C   0  0  0  0  0  0  0  0  0  0  0  0
    3.5992   -0.9306    0.3931 C   0  0  0  0  0  0  0  0  0  0  0  0
    3.9843   -0.1917   -0.6581 C   0  0  0  0  0  0  0  0  0  0  0  0
    5.3796    0.1721   -0.9372 C   0  0  0  0  0  0  0  0  0  0  0  0
    5.6512    1.4384   -1.4713 C   0  0  0  0  0  0  0  0  0  0  0  0
    6.9610    1.8173   -1.7754 C   0  0  0  0  0  0  0  0  0  0  0  0
    8.0119    0.9288   -1.5591 C   0  0  0  0  0  0  0  0  0  0  0  0
    7.7532   -0.3398   -1.0442 C   0  0  0  0  0  0  0  0  0  0  0  0
    6.4430   -0.7187   -0.7392 C   0  0  0  0  0  0  0  0  0  0  0  0
    1.2353   -0.4893    0.0856 N   0  0  0  0  0  0  0  0  0  0  0  0
   -0.0756   -0.7855    0.2983 N   0  0  0  0  0  0  0  0  0  0  0  0
   -1.0629   -0.0017   -0.2687 C   0  0  0  0  0  0  0  0  0  0  0  0
   -0.9042    0.9645   -1.0023 O   0  0  0  0  0  0  0  0  0  0  0  0
   -2.4397   -0.4644    0.0510 C   0  0  0  0  0  0  0  0  0  0  0  0
   -2.8777   -0.7892    1.4556 C   0  0  0  0  0  0  0  0  0  0  0  0
   -3.4212    0.4571    0.7827 C   0  0  0  0  0  0  0  0  0  0  0  0
   -2.9398    1.7917    1.3070 C   0  0  0  0  0  0  0  0  0  0  0  0
   -4.8646    0.4620    0.2957 C   0  0  0  0  0  0  0  0  0  0  0  0
   -5.1810    0.8194   -1.0266 C   0  0  0  0  0  0  0  0  0  0  0  0
   -6.5017    0.8349   -1.4819 C   0  0  0  0  0  0  0  0  0  0  0  0
   -7.5390    0.4975   -0.6177 C   0  0  0  0  0  0  0  0  0  0  0  0
   -7.2552    0.1498    0.6999 C   0  0  0  0  0  0  0  0  0  0  0  0
   -5.9321    0.1361    1.1496 C   0  0  0  0  0  0  0  0  0  0  0  0
    1.3138   -2.1571    2.3569 H   0  0  0  0  0  0  0  0  0  0  0  0
    2.7862   -2.9591    1.7768 H   0  0  0  0  0  0  0  0  0  0  0  0
    1.2686   -3.1796    0.8908 H   0  0  0  0  0  0  0  0  0  0  0  0
    4.3038   -1.3220    1.1166 H   0  0  0  0  0  0  0  0  0  0  0  0
    3.2440    0.2071   -1.3510 H   0  0  0  0  0  0  0  0  0  0  0  0
    4.8427    2.1453   -1.6481 H   0  0  0  0  0  0  0  0  0  0  0  0
    7.1579    2.8055   -2.1828 H   0  0  0  0  0  0  0  0  0  0  0  0
    9.0306    1.2228   -1.7979 H   0  0  0  0  0  0  0  0  0  0  0  0
    8.5708   -1.0382   -0.8860 H   0  0  0  0  0  0  0  0  0  0  0  0
    6.2649   -1.7211   -0.3592 H   0  0  0  0  0  0  0  0  0  0  0  0
   -0.3364   -1.5869    0.8561 H   0  0  0  0  0  0  0  0  0  0  0  0
   -2.8558   -1.0795   -0.7424 H   0  0  0  0  0  0  0  0  0  0  0  0
   -3.5371   -1.6405    1.5878 H   0  0  0  0  0  0  0  0  0  0  0  0
   -2.1805   -0.6544    2.2754 H   0  0  0  0  0  0  0  0  0  0  0  0
   -3.6007    2.1499    2.1039 H   0  0  0  0  0  0  0  0  0  0  0  0
   -2.9319    2.5388    0.5062 H   0  0  0  0  0  0  0  0  0  0  0  0
   -1.9288    1.7335    1.7243 H   0  0  0  0  0  0  0  0  0  0  0  0
   -4.3807    1.0962   -1.7116 H   0  0  0  0  0  0  0  0  0  0  0  0
   -6.7164    1.1151   -2.5097 H   0  0  0  0  0  0  0  0  0  0  0  0
   -8.5671    0.5114   -0.9691 H   0  0  0  0  0  0  0  0  0  0  0  0
   -8.0623   -0.1070    1.3807 H   0  0  0  0  0  0  0  0  0  0  0  0
   -5.7293   -0.1287    2.1849 H   0  0  0  0  0  0  0  0  0  0  0  0
  1  2  1  0
  2  3  1  0
  3  4  2  3
  4  5  1  0
  5  6  2  0
  6  7  1  0
  7  8  2  0
  8  9  1  0
  9 10  2  0
  2 11  2  3
 11 12  1  0
 12 13  1  0
 13 14  2  0
 13 15  1  0
 15 16  1  0
 16 17  1  0
 17 18  1  0
 17 19  1  0
 19 20  2  0
 20 21  1  0
 21 22  2  0
 22 23  1  0
 23 24  2  0
 10  5  1  0
 17 15  1  0
 24 19  1  0
  1 25  1  0
  1 26  1  0
  1 27  1  0
  3 28  1  0
  4 29  1  0
  6 30  1  0
  7 31  1  0
  8 32  1  0
  9 33  1  0
 10 34  1  0
 12 35  1  0
 15 36  1  0
 16 37  1  0
 16 38  1  0
 18 39  1  0
 18 40  1  0
 18 41  1  0
 20 42  1  0
 21 43  1  0
 22 44  1  0
 23 45  1  0
 24 46  1  0
M  END
$$$$
