
     RDKit          3D

 63 67  0  0  0  0  0  0  0  0999 V2000
    2.5872    5.2052   -4.3677 C   0  0  0  0  0  0  0  0  0  0  0  0
    3.5209    4.7446   -3.3976 O   0  0  0  0  0  0  0  0  0  0  0  0
    3.4505    3.4245   -3.0495 C   0  0  0  0  0  0  0  0  0  0  0  0
    4.3972    3.0186   -2.1060 C   0  0  0  0  0  0  0  0  0  0  0  0
    4.4359    1.6956   -1.6563 C   0  0  0  0  0  0  0  0  0  0  0  0
    3.5247    0.7545   -2.1492 C   0  0  0  0  0  0  0  0  0  0  0  0
    3.5383   -0.6332   -1.6687 C   0  0  0  0  0  0  0  0  0  0  0  0
    4.9178   -1.5939   -1.9892 S   0  0  0  0  0  0  0  0  0  0  0  0
    4.2501   -2.9736   -1.2160 C   0  0  0  0  0  0  0  0  0  0  0  0
    4.8592   -4.2344   -1.0672 C   0  0  0  0  0  0  0  0  0  0  0  0
    4.1716   -5.2511   -0.3940 C   0  0  0  0  0  0  0  0  0  0  0  0
    2.9010   -5.0275    0.1179 C   0  0  0  0  0  0  0  0  0  0  0  0
    2.1353   -5.9389    0.7940 O   0  0  0  0  0  0  0  0  0  0  0  0
    2.7049   -7.2244    1.0077 C   0  0  0  0  0  0  0  0  0  0  0  0
    2.3044   -3.7712   -0.0441 C   0  0  0  0  0  0  0  0  0  0  0  0
    2.9733   -2.7146   -0.7168 C   0  0  0  0  0  0  0  0  0  0  0  0
    2.5676   -1.3519   -0.9856 C   0  0  0  0  0  0  0  0  0  0  0  0
    1.2990   -0.7457   -0.5938 C   0  0  0  0  0  0  0  0  0  0  0  0
    0.1126   -1.1387   -1.2188 C   0  0  0  0  0  0  0  0  0  0  0  0
   -1.0968   -0.5414   -0.8562 C   0  0  0  0  0  0  0  0  0  0  0  0
   -1.1379    0.4428    0.1353 C   0  0  0  0  0  0  0  0  0  0  0  0
   -2.3820    0.9547    0.3812 O   0  0  0  0  0  0  0  0  0  0  0  0
   -2.5010    1.8804    1.4635 C   0  0  0  0  0  0  0  0  0  0  0  0
   -3.9621    2.3578    1.5798 C   0  0  0  0  0  0  0  0  0  0  0  0
   -4.9271    1.3101    1.9557 N   0  0  0  0  0  0  0  0  0  0  0  0
   -6.3102    1.7453    1.6692 C   0  0  0  0  0  0  0  0  0  0  0  0
   -7.3372    0.8928    2.4257 C   0  0  0  0  0  0  0  0  0  0  0  0
   -7.2297    1.0335    3.8479 O   0  0  0  0  0  0  0  0  0  0  0  0
   -5.9075    1.3740    4.2837 C   0  0  0  0  0  0  0  0  0  0  0  0
   -4.8009    0.8472    3.3529 C   0  0  0  0  0  0  0  0  0  0  0  0
    0.0456    0.8255    0.7677 C   0  0  0  0  0  0  0  0  0  0  0  0
    1.2599    0.2330    0.4051 C   0  0  0  0  0  0  0  0  0  0  0  0
    2.5790    1.1656   -3.0974 C   0  0  0  0  0  0  0  0  0  0  0  0
    2.5401    2.4917   -3.5444 C   0  0  0  0  0  0  0  0  0  0  0  0
    1.5585    5.1087   -4.0020 H   0  0  0  0  0  0  0  0  0  0  0  0
    2.7206    4.6842   -5.3226 H   0  0  0  0  0  0  0  0  0  0  0  0
    2.7800    6.2698   -4.5397 H   0  0  0  0  0  0  0  0  0  0  0  0
    5.1110    3.7405   -1.7157 H   0  0  0  0  0  0  0  0  0  0  0  0
    5.1777    1.4108   -0.9139 H   0  0  0  0  0  0  0  0  0  0  0  0
    5.8539   -4.4170   -1.4659 H   0  0  0  0  0  0  0  0  0  0  0  0
    4.6690   -6.2095   -0.2898 H   0  0  0  0  0  0  0  0  0  0  0  0
    1.9750   -7.8260    1.5550 H   0  0  0  0  0  0  0  0  0  0  0  0
    2.9070   -7.7291    0.0583 H   0  0  0  0  0  0  0  0  0  0  0  0
    3.6095   -7.1595    1.6207 H   0  0  0  0  0  0  0  0  0  0  0  0
    1.3093   -3.6029    0.3619 H   0  0  0  0  0  0  0  0  0  0  0  0
    0.1213   -1.9013   -1.9933 H   0  0  0  0  0  0  0  0  0  0  0  0
   -2.0171   -0.8449   -1.3492 H   0  0  0  0  0  0  0  0  0  0  0  0
   -1.8818    2.7612    1.2561 H   0  0  0  0  0  0  0  0  0  0  0  0
   -2.1656    1.4182    2.3972 H   0  0  0  0  0  0  0  0  0  0  0  0
   -4.0148    3.1904    2.2926 H   0  0  0  0  0  0  0  0  0  0  0  0
   -4.2442    2.7522    0.5943 H   0  0  0  0  0  0  0  0  0  0  0  0
   -6.4467    2.7916    1.9661 H   0  0  0  0  0  0  0  0  0  0  0  0
   -6.4943    1.6725    0.5911 H   0  0  0  0  0  0  0  0  0  0  0  0
   -8.3544    1.1883    2.1448 H   0  0  0  0  0  0  0  0  0  0  0  0
   -7.2244   -0.1689    2.1757 H   0  0  0  0  0  0  0  0  0  0  0  0
   -5.7780    0.9625    5.2899 H   0  0  0  0  0  0  0  0  0  0  0  0
   -5.8488    2.4656    4.3721 H   0  0  0  0  0  0  0  0  0  0  0  0
   -4.8660   -0.2487    3.3293 H   0  0  0  0  0  0  0  0  0  0  0  0
   -3.8242    1.0905    3.7858 H   0  0  0  0  0  0  0  0  0  0  0  0
    0.0642    1.5862    1.5402 H   0  0  0  0  0  0  0  0  0  0  0  0
    2.1743    0.5460    0.9039 H   0  0  0  0  0  0  0  0  0  0  0  0
    1.8604    0.4532   -3.4963 H   0  0  0  0  0  0  0  0  0  0  0  0
    1.7851    2.7583   -4.2762 H   0  0  0  0  0  0  0  0  0  0  0  0
  1  2  1  0
  2  3  1  0
  3  4  2  0
  4  5  1  0
  5  6  2  0
  6  7  1  0
  7  8  1  0
  8  9  1  0
  9 10  2  0
 10 11  1  0
 11 12  2  0
 12 13  1  0
 13 14  1  0
 12 15  1  0
 15 16  2  0
 16 17  1  0
 17 18  1  0
 18 19  2  0
 19 20  1  0
 20 21  2  0
 21 22  1  0
 22 23  1  0
 23 24  1  0
 24 25  1  0
 25 26  1  0
 26 27  1  0
 27 28  1  0
 28 29  1  0
 29 30  1  0
 21 31  1  0
 31 32  2  0
  6 33  1  0
 33 34  2  0
 34  3  1  0
 17  7  2  0
 32 18  1  0
 16  9  1  0
 30 25  1  0
  1 35  1  0
  1 36  1  0
  1 37  1  0
  4 38  1  0
  5 39  1  0
 10 40  1  0
 11 41  1  0
 14 42  1  0
 14 43  1  0
 14 44  1  0
 15 45  1  0
 19 46  1  0
 20 47  1  0
 23 48  1  0
 23 49  1  0
 24 50  1  0
 24 51  1  0
 26 52  1  0
 26 53  1  0
 27 54  1  0
 27 55  1  0
 29 56  1  0
 29 57  1  0
 30 58  1  0
 30 59  1  0
 31 60  1  0
 32 61  1  0
 33 62  1  0
 34 63  1  0
M  END
$$$$
