
     RDKit          3D

 52 54  0  0  0  0  0  0  0  0999 V2000
   -3.8857    0.4025   -2.9545 C   0  0  0  0  0  0  0  0  0  0  0  0
   -3.9171    0.5638   -1.5074 N   0  0  0  0  0  0  0  0  0  0  0  0
   -5.2336    0.7381   -0.8936 C   0  0  0  0  0  0  0  0  0  0  0  0
   -6.0660   -0.5226   -0.9417 C   0  0  0  0  0  0  0  0  0  0  0  0
   -7.0967   -0.6659   -1.8822 C   0  0  0  0  0  0  0  0  0  0  0  0
   -7.8514   -1.8394   -1.9320 C   0  0  0  0  0  0  0  0  0  0  0  0
   -7.5832   -2.8805   -1.0452 C   0  0  0  0  0  0  0  0  0  0  0  0
   -6.5610   -2.7503   -0.1073 C   0  0  0  0  0  0  0  0  0  0  0  0
   -5.8055   -1.5781   -0.0558 C   0  0  0  0  0  0  0  0  0  0  0  0
   -2.8330    0.3010   -0.6736 C   0  0  0  0  0  0  0  0  0  0  0  0
   -2.9322    0.3021    0.5569 O   0  0  0  0  0  0  0  0  0  0  0  0
   -1.4884   -0.0168   -1.3439 C   0  0  0  0  0  0  0  0  0  0  0  0
   -0.4539   -0.2460   -0.3828 O   0  0  0  0  0  0  0  0  0  0  0  0
    0.0466    0.8944    0.1801 C   0  0  0  0  0  0  0  0  0  0  0  0
   -0.2418    2.0312   -0.1755 O   0  0  0  0  0  0  0  0  0  0  0  0
    0.9699    0.5805    1.3395 C   0  0  0  0  0  0  0  0  0  0  0  0
    1.5785   -0.7546    1.2277 N   0  0  0  0  0  0  0  0  0  0  0  0
    2.7863   -1.1624    2.3072 S   0  0  0  0  0  6  0  0  0  0  0  0
    2.5545   -0.4382    3.5363 O   0  0  0  0  0  0  0  0  0  0  0  0
    2.8911   -2.6040    2.2763 O   0  0  0  0  0  0  0  0  0  0  0  0
    4.2247   -0.5017    1.5088 C   0  0  0  0  0  0  0  0  0  0  0  0
    4.7756   -1.1831    0.4227 C   0  0  0  0  0  0  0  0  0  0  0  0
    5.9128   -0.6710   -0.2029 C   0  0  0  0  0  0  0  0  0  0  0  0
    6.5098    0.5164    0.2534 C   0  0  0  0  0  0  0  0  0  0  0  0
    7.6532    1.0430   -0.3678 C   0  0  0  0  0  0  0  0  0  0  0  0
    8.2392    2.2215    0.0973 C   0  0  0  0  0  0  0  0  0  0  0  0
    7.6909    2.8879    1.1892 C   0  0  0  0  0  0  0  0  0  0  0  0
    6.5546    2.3786    1.8195 C   0  0  0  0  0  0  0  0  0  0  0  0
    5.9517    1.1956    1.3638 C   0  0  0  0  0  0  0  0  0  0  0  0
    4.8090    0.6740    1.9886 C   0  0  0  0  0  0  0  0  0  0  0  0
   -4.1613   -0.6268   -3.2012 H   0  0  0  0  0  0  0  0  0  0  0  0
   -4.5936    1.0973   -3.4158 H   0  0  0  0  0  0  0  0  0  0  0  0
   -2.8948    0.6058   -3.3630 H   0  0  0  0  0  0  0  0  0  0  0  0
   -5.7430    1.5573   -1.4159 H   0  0  0  0  0  0  0  0  0  0  0  0
   -5.1375    1.0631    0.1493 H   0  0  0  0  0  0  0  0  0  0  0  0
   -7.3199    0.1364   -2.5815 H   0  0  0  0  0  0  0  0  0  0  0  0
   -8.6506   -1.9413   -2.6617 H   0  0  0  0  0  0  0  0  0  0  0  0
   -8.1722   -3.7931   -1.0830 H   0  0  0  0  0  0  0  0  0  0  0  0
   -6.3518   -3.5602    0.5867 H   0  0  0  0  0  0  0  0  0  0  0  0
   -5.0107   -1.4874    0.6832 H   0  0  0  0  0  0  0  0  0  0  0  0
   -1.1964    0.7833   -2.0321 H   0  0  0  0  0  0  0  0  0  0  0  0
   -1.6009   -0.9436   -1.9157 H   0  0  0  0  0  0  0  0  0  0  0  0
    1.7549    1.3426    1.3529 H   0  0  0  0  0  0  0  0  0  0  0  0
    0.3711    0.6366    2.2537 H   0  0  0  0  0  0  0  0  0  0  0  0
    0.9508   -1.5279    1.0021 H   0  0  0  0  0  0  0  0  0  0  0  0
    4.3287   -2.1071    0.0628 H   0  0  0  0  0  0  0  0  0  0  0  0
    6.3350   -1.2082   -1.0499 H   0  0  0  0  0  0  0  0  0  0  0  0
    8.0992    0.5366   -1.2211 H   0  0  0  0  0  0  0  0  0  0  0  0
    9.1250    2.6174   -0.3928 H   0  0  0  0  0  0  0  0  0  0  0  0
    8.1481    3.8048    1.5527 H   0  0  0  0  0  0  0  0  0  0  0  0
    6.1434    2.9143    2.6726 H   0  0  0  0  0  0  0  0  0  0  0  0
    4.3775    1.1840    2.8478 H   0  0  0  0  0  0  0  0  0  0  0  0
  1  2  1  0
  2  3  1  0
  3  4  1  0
  4  5  2  0
  5  6  1  0
  6  7  2  0
  7  8  1  0
  8  9  2  0
  2 10  1  0
 10 11  2  0
 10 12  1  0
 12 13  1  0
 13 14  1  0
 14 15  2  0
 14 16  1  0
 16 17  1  0
 17 18  1  0
 18 19  2  0
 18 20  2  0
 18 21  1  0
 21 22  2  0
 22 23  1  0
 23 24  2  0
 24 25  1  0
 25 26  2  0
 26 27  1  0
 27 28  2  0
 28 29  1  0
 29 30  2  0
  9  4  1  0
 30 21  1  0
 29 24  1  0
  1 31  1  0
  1 32  1  0
  1 33  1  0
  3 34  1  0
  3 35  1  0
  5 36  1  0
  6 37  1  0
  7 38  1  0
  8 39  1  0
  9 40  1  0
 12 41  1  0
 12 42  1  0
 16 43  1  0
 16 44  1  0
 17 45  1  0
 22 46  1  0
 23 47  1  0
 25 48  1  0
 26 49  1  0
 27 50  1  0
 28 51  1  0
 30 52  1  0
M  END
$$$$
