
     RDKit          3D

 51 55  0  0  0  0  0  0  0  0999 V2000
    6.1584   -0.9638    1.6967 F   0  0  0  0  0  0  0  0  0  0  0  0
    6.2298   -0.3382    0.5131 C   0  0  0  0  0  0  0  0  0  0  0  0
    7.3757    0.3903    0.2081 C   0  0  0  0  0  0  0  0  0  0  0  0
    7.4648    1.0562   -1.0127 C   0  0  0  0  0  0  0  0  0  0  0  0
    6.4056    0.9898   -1.9184 C   0  0  0  0  0  0  0  0  0  0  0  0
    5.2573    0.2568   -1.6064 C   0  0  0  0  0  0  0  0  0  0  0  0
    5.1608   -0.4218   -0.3838 C   0  0  0  0  0  0  0  0  0  0  0  0
    3.9190   -1.2009   -0.0275 C   0  0  0  0  0  0  0  0  0  0  0  0
    2.9528   -0.3658    0.8308 C   0  0  0  0  0  0  0  0  0  0  0  0
    1.7412   -1.1017    1.2383 N   0  0  0  0  0  0  0  0  0  0  0  0
    0.9368   -0.3175    2.2056 C   0  0  0  0  0  0  0  0  0  0  0  0
   -0.2833    0.4059    1.6004 C   0  0  0  0  0  0  0  0  0  0  0  0
   -1.2074   -0.5519    0.9685 N   0  0  0  0  0  0  0  0  0  0  0  0
   -2.4507   -0.1087    0.5292 C   0  0  0  0  0  0  0  0  0  0  0  0
   -2.6304    1.1837    0.3979 N   0  0  0  0  0  0  0  0  0  0  0  0
   -3.8492    1.6999   -0.0805 C   0  0  0  0  0  0  0  0  0  0  0  0
   -3.9757    3.0840   -0.2149 C   0  0  0  0  0  0  0  0  0  0  0  0
   -5.1593    3.6493   -0.6971 C   0  0  0  0  0  0  0  0  0  0  0  0
   -6.2320    2.8306   -1.0515 C   0  0  0  0  0  0  0  0  0  0  0  0
   -6.1278    1.4449   -0.9247 C   0  0  0  0  0  0  0  0  0  0  0  0
   -4.9369    0.8943   -0.4412 C   0  0  0  0  0  0  0  0  0  0  0  0
   -4.7514   -0.4866   -0.2676 N   0  0  0  0  0  0  0  0  0  0  0  0
   -5.6287   -1.5194   -0.5003 C   0  0  0  0  0  0  0  0  0  0  0  0
   -5.0264   -2.6931   -0.1050 C   0  0  0  0  0  0  0  0  0  0  0  0
   -3.7354   -2.3613    0.3672 C   0  0  0  0  0  0  0  0  0  0  0  0
   -3.5655   -0.9950    0.2194 C   0  0  0  0  0  0  0  0  0  0  0  0
   -0.5701   -1.7534    0.4109 C   0  0  0  0  0  0  0  0  0  0  0  0
    0.9175   -1.5027    0.0753 C   0  0  0  0  0  0  0  0  0  0  0  0
    8.1891    0.4344    0.9251 H   0  0  0  0  0  0  0  0  0  0  0  0
    8.3567    1.6270   -1.2578 H   0  0  0  0  0  0  0  0  0  0  0  0
    6.4733    1.5111   -2.8706 H   0  0  0  0  0  0  0  0  0  0  0  0
    4.4403    0.2189   -2.3237 H   0  0  0  0  0  0  0  0  0  0  0  0
    4.2053   -2.1164    0.5060 H   0  0  0  0  0  0  0  0  0  0  0  0
    3.4338   -1.5304   -0.9541 H   0  0  0  0  0  0  0  0  0  0  0  0
    3.4943   -0.0569    1.7349 H   0  0  0  0  0  0  0  0  0  0  0  0
    2.6801    0.5571    0.3010 H   0  0  0  0  0  0  0  0  0  0  0  0
    1.5564    0.4039    2.7523 H   0  0  0  0  0  0  0  0  0  0  0  0
    0.5737   -1.0250    2.9629 H   0  0  0  0  0  0  0  0  0  0  0  0
   -0.8039    0.9402    2.4041 H   0  0  0  0  0  0  0  0  0  0  0  0
    0.0525    1.1469    0.8642 H   0  0  0  0  0  0  0  0  0  0  0  0
   -3.1409    3.7237    0.0587 H   0  0  0  0  0  0  0  0  0  0  0  0
   -5.2414    4.7287   -0.7954 H   0  0  0  0  0  0  0  0  0  0  0  0
   -7.1514    3.2746   -1.4254 H   0  0  0  0  0  0  0  0  0  0  0  0
   -6.9764    0.8294   -1.2032 H   0  0  0  0  0  0  0  0  0  0  0  0
   -6.6154   -1.3491   -0.9056 H   0  0  0  0  0  0  0  0  0  0  0  0
   -5.4743   -3.6779   -0.1408 H   0  0  0  0  0  0  0  0  0  0  0  0
   -3.0116   -3.0529    0.7753 H   0  0  0  0  0  0  0  0  0  0  0  0
   -1.0671   -2.0666   -0.5141 H   0  0  0  0  0  0  0  0  0  0  0  0
   -0.6545   -2.5733    1.1335 H   0  0  0  0  0  0  0  0  0  0  0  0
    0.9572   -0.7299   -0.7049 H   0  0  0  0  0  0  0  0  0  0  0  0
    1.3341   -2.4214   -0.3532 H   0  0  0  0  0  0  0  0  0  0  0  0
  1  2  1  0
  2  3  2  0
  3  4  1  0
  4  5  2  0
  5  6  1  0
  6  7  2  0
  7  8  1  0
  8  9  1  0
  9 10  1  0
 10 11  1  0
 11 12  1  0
 12 13  1  0
 13 14  1  0
 14 15  2  0
 15 16  1  0
 16 17  2  0
 17 18  1  0
 18 19  2  0
 19 20  1  0
 20 21  2  0
 21 22  1  0
 22 23  1  0
 23 24  2  0
 24 25  1  0
 25 26  2  0
 13 27  1  0
 27 28  1  0
  7  2  1  0
 28 10  1  0
 26 14  1  0
 21 16  1  0
 26 22  1  0
  3 29  1  0
  4 30  1  0
  5 31  1  0
  6 32  1  0
  8 33  1  0
  8 34  1  0
  9 35  1  0
  9 36  1  0
 11 37  1  0
 11 38  1  0
 12 39  1  0
 12 40  1  0
 17 41  1  0
 18 42  1  0
 19 43  1  0
 20 44  1  0
 23 45  1  0
 24 46  1  0
 25 47  1  0
 27 48  1  0
 27 49  1  0
 28 50  1  0
 28 51  1  0
M  END
$$$$
