
     RDKit          3D

 54 57  0  0  0  0  0  0  0  0999 V2000
   -5.0874    3.9309   -2.4054 C   0  0  0  0  0  0  0  0  0  0  0  0
   -4.1825    2.8820   -1.8313 C   0  0  0  0  0  0  0  0  0  0  0  0
   -3.7227    2.9816   -0.5190 C   0  0  0  0  0  0  0  0  0  0  0  0
   -2.8644    2.0105    0.0263 C   0  0  0  0  0  0  0  0  0  0  0  0
   -2.4369    2.1776    1.4628 C   0  0  0  0  0  0  0  0  0  0  0  0
   -2.4522    0.9098   -0.7649 C   0  0  0  0  0  0  0  0  0  0  0  0
   -1.6096   -0.0477   -0.1516 N   0  0  0  0  0  0  0  0  0  0  0  0
   -1.6190   -1.4179   -0.3544 C   0  0  0  0  0  0  0  0  0  0  0  0
   -2.4413   -2.0500   -1.0127 O   0  0  0  0  0  0  0  0  0  0  0  0
   -0.5632   -2.1565    0.4730 C   0  0  0  0  0  0  0  0  0  0  0  0
    0.7785   -1.5830    0.3169 N   0  0  0  0  0  0  0  0  0  0  0  0
    1.1595   -0.5943    1.2131 C   0  0  0  0  0  0  0  0  0  0  0  0
    0.3403   -0.1302    2.0141 O   0  0  0  0  0  0  0  0  0  0  0  0
    2.4616   -0.1357    1.1375 N   0  0  0  0  0  0  0  0  0  0  0  0
    2.9009    0.8225    2.1419 C   0  0  0  0  0  0  0  0  0  0  0  0
    3.2869    0.0946    3.3838 C   0  0  0  0  0  0  0  0  0  0  0  0
    2.5977   -0.2624    4.5255 C   0  0  0  0  0  0  0  0  0  0  0  0
    3.5192   -0.9505    5.3504 C   0  0  0  0  0  0  0  0  0  0  0  0
    4.7092   -0.9690    4.6622 C   0  0  0  0  0  0  0  0  0  0  0  0
    4.5778   -0.3373    3.4682 O   0  0  0  0  0  0  0  0  0  0  0  0
    3.3635   -0.4841    0.1440 C   0  0  0  0  0  0  0  0  0  0  0  0
    4.4918   -0.0097    0.0372 O   0  0  0  0  0  0  0  0  0  0  0  0
    2.9010   -1.4578   -0.8584 C   0  0  0  0  0  0  0  0  0  0  0  0
    3.7611   -1.8315   -1.9031 C   0  0  0  0  0  0  0  0  0  0  0  0
    3.3336   -2.7364   -2.8696 C   0  0  0  0  0  0  0  0  0  0  0  0
    2.0485   -3.2613   -2.7941 C   0  0  0  0  0  0  0  0  0  0  0  0
    1.1940   -2.8891   -1.7496 C   0  0  0  0  0  0  0  0  0  0  0  0
    1.6141   -1.9861   -0.7593 C   0  0  0  0  0  0  0  0  0  0  0  0
   -2.8397    0.8529   -2.1199 C   0  0  0  0  0  0  0  0  0  0  0  0
   -2.3312   -0.1601   -3.1109 C   0  0  0  0  0  0  0  0  0  0  0  0
   -3.7244    1.8281   -2.6235 C   0  0  0  0  0  0  0  0  0  0  0  0
   -5.7261    3.5101   -3.1899 H   0  0  0  0  0  0  0  0  0  0  0  0
   -4.4933    4.7454   -2.8316 H   0  0  0  0  0  0  0  0  0  0  0  0
   -5.7483    4.3403   -1.6340 H   0  0  0  0  0  0  0  0  0  0  0  0
   -4.0464    3.8215    0.0932 H   0  0  0  0  0  0  0  0  0  0  0  0
   -1.3547    2.3324    1.5195 H   0  0  0  0  0  0  0  0  0  0  0  0
   -2.9176    3.0438    1.9306 H   0  0  0  0  0  0  0  0  0  0  0  0
   -2.7170    1.2972    2.0503 H   0  0  0  0  0  0  0  0  0  0  0  0
   -1.1793    0.2299    0.7277 H   0  0  0  0  0  0  0  0  0  0  0  0
   -0.8747   -2.1035    1.5237 H   0  0  0  0  0  0  0  0  0  0  0  0
   -0.5575   -3.2215    0.2208 H   0  0  0  0  0  0  0  0  0  0  0  0
    3.7466    1.4166    1.7789 H   0  0  0  0  0  0  0  0  0  0  0  0
    2.0893    1.5259    2.3619 H   0  0  0  0  0  0  0  0  0  0  0  0
    1.5557   -0.0545    4.7288 H   0  0  0  0  0  0  0  0  0  0  0  0
    3.3400   -1.3813    6.3253 H   0  0  0  0  0  0  0  0  0  0  0  0
    5.6910   -1.3702    4.8715 H   0  0  0  0  0  0  0  0  0  0  0  0
    4.7646   -1.4138   -1.9654 H   0  0  0  0  0  0  0  0  0  0  0  0
    3.9979   -3.0245   -3.6807 H   0  0  0  0  0  0  0  0  0  0  0  0
    1.7026   -3.9609   -3.5525 H   0  0  0  0  0  0  0  0  0  0  0  0
    0.1958   -3.3185   -1.7587 H   0  0  0  0  0  0  0  0  0  0  0  0
   -3.0179   -1.0081   -3.1810 H   0  0  0  0  0  0  0  0  0  0  0  0
   -2.2496    0.2874   -4.1086 H   0  0  0  0  0  0  0  0  0  0  0  0
   -1.3238   -0.5050   -2.8612 H   0  0  0  0  0  0  0  0  0  0  0  0
   -4.0422    1.7716   -3.6640 H   0  0  0  0  0  0  0  0  0  0  0  0
  1  2  1  0
  2  3  2  0
  3  4  1  0
  4  5  1  0
  4  6  2  0
  6  7  1  0
  7  8  1  0
  8  9  2  0
  8 10  1  0
 10 11  1  0
 11 12  1  0
 12 13  2  0
 12 14  1  0
 14 15  1  0
 15 16  1  0
 16 17  2  0
 17 18  1  0
 18 19  2  0
 19 20  1  0
 14 21  1  0
 21 22  2  0
 21 23  1  0
 23 24  2  0
 24 25  1  0
 25 26  2  0
 26 27  1  0
 27 28  2  0
  6 29  1  0
 29 30  1  0
 29 31  2  0
 31  2  1  0
 28 11  1  0
 20 16  1  0
 28 23  1  0
  1 32  1  0
  1 33  1  0
  1 34  1  0
  3 35  1  0
  5 36  1  0
  5 37  1  0
  5 38  1  0
  7 39  1  0
 10 40  1  0
 10 41  1  0
 15 42  1  0
 15 43  1  0
 17 44  1  0
 18 45  1  0
 19 46  1  0
 24 47  1  0
 25 48  1  0
 26 49  1  0
 27 50  1  0
 30 51  1  0
 30 52  1  0
 30 53  1  0
 31 54  1  0
M  END
$$$$
