
     RDKit          3D

 60 62  0  0  0  0  0  0  0  0999 V2000
   -8.8274    0.9213    0.3105 C   0  0  0  0  0  0  0  0  0  0  0  0
   -8.3371   -0.5177    0.2611 C   0  0  0  0  0  0  0  0  0  0  0  0
   -6.8325   -0.5980    0.2762 C   0  0  0  0  0  0  0  0  0  0  0  0
   -6.1361   -0.6657    1.4874 C   0  0  0  0  0  0  0  0  0  0  0  0
   -4.7374   -0.7221    1.5074 C   0  0  0  0  0  0  0  0  0  0  0  0
   -4.0110   -0.7061    0.3172 C   0  0  0  0  0  0  0  0  0  0  0  0
   -2.6034   -0.7651    0.2474 N   0  0  0  0  0  0  0  0  0  0  0  0
   -1.7080   -0.8076    1.3036 C   0  0  0  0  0  0  0  0  0  0  0  0
   -1.9856   -0.7930    2.5020 O   0  0  0  0  0  0  0  0  0  0  0  0
   -0.2393   -0.9329    0.8478 C   0  0  0  0  0  0  0  0  0  0  0  0
    0.6343   -0.4354    1.9365 N   0  0  0  0  0  0  0  0  0  0  0  0
    0.9692    1.2153    1.9448 S   0  0  0  0  0  6  0  0  0  0  0  0
   -0.0698    1.8913    1.1993 O   0  0  0  0  0  0  0  0  0  0  0  0
    1.3114    1.5735    3.3013 O   0  0  0  0  0  0  0  0  0  0  0  0
    2.4687    1.2700    0.9933 C   0  0  0  0  0  0  0  0  0  0  0  0
    3.6037    0.5949    1.4744 C   0  0  0  0  0  0  0  0  0  0  0  0
    4.7926    0.6072    0.7379 C   0  0  0  0  0  0  0  0  0  0  0  0
    4.8244    1.3038   -0.4603 C   0  0  0  0  0  0  0  0  0  0  0  0
    3.6936    1.9810   -0.9252 C   0  0  0  0  0  0  0  0  0  0  0  0
    2.5024    1.9748   -0.2135 C   0  0  0  0  0  0  0  0  0  0  0  0
    3.9582    2.6502   -2.2350 C   0  0  0  0  0  0  0  0  0  0  0  0
    5.4470    2.3534   -2.4528 C   0  0  0  0  0  0  0  0  0  0  0  0
    5.8914    1.4686   -1.3626 N   0  0  0  0  0  0  0  0  0  0  0  0
    7.1566    0.9244   -1.2280 C   0  0  0  0  0  0  0  0  0  0  0  0
    8.1359    1.2923   -2.3173 C   0  0  0  0  0  0  0  0  0  0  0  0
    7.5157    0.1817   -0.3154 O   0  0  0  0  0  0  0  0  0  0  0  0
    0.1116   -2.3932    0.4857 C   0  0  0  0  0  0  0  0  0  0  0  0
    1.4966   -2.4787   -0.1647 C   0  0  0  0  0  0  0  0  0  0  0  0
    0.0366   -3.3583    1.6736 C   0  0  0  0  0  0  0  0  0  0  0  0
   -4.7075   -0.6321   -0.8955 C   0  0  0  0  0  0  0  0  0  0  0  0
   -6.1048   -0.5759   -0.9172 C   0  0  0  0  0  0  0  0  0  0  0  0
   -8.4639    1.4946   -0.5491 H   0  0  0  0  0  0  0  0  0  0  0  0
   -9.9215    0.9489    0.2984 H   0  0  0  0  0  0  0  0  0  0  0  0
   -8.4852    1.4267    1.2200 H   0  0  0  0  0  0  0  0  0  0  0  0
   -8.7237   -1.0101   -0.6395 H   0  0  0  0  0  0  0  0  0  0  0  0
   -8.7451   -1.0777    1.1114 H   0  0  0  0  0  0  0  0  0  0  0  0
   -6.6757   -0.6724    2.4324 H   0  0  0  0  0  0  0  0  0  0  0  0
   -4.2502   -0.7738    2.4758 H   0  0  0  0  0  0  0  0  0  0  0  0
   -2.2132   -0.7259   -0.6853 H   0  0  0  0  0  0  0  0  0  0  0  0
   -0.0958   -0.3207   -0.0514 H   0  0  0  0  0  0  0  0  0  0  0  0
    0.3313   -0.7272    2.8728 H   0  0  0  0  0  0  0  0  0  0  0  0
    3.5636    0.0585    2.4205 H   0  0  0  0  0  0  0  0  0  0  0  0
    5.6621    0.0820    1.1194 H   0  0  0  0  0  0  0  0  0  0  0  0
    1.6298    2.5050   -0.5833 H   0  0  0  0  0  0  0  0  0  0  0  0
    3.3495    2.2054   -3.0285 H   0  0  0  0  0  0  0  0  0  0  0  0
    3.7711    3.7271   -2.1867 H   0  0  0  0  0  0  0  0  0  0  0  0
    5.6221    1.8668   -3.4183 H   0  0  0  0  0  0  0  0  0  0  0  0
    6.0420    3.2733   -2.4205 H   0  0  0  0  0  0  0  0  0  0  0  0
    8.2614    2.3768   -2.3672 H   0  0  0  0  0  0  0  0  0  0  0  0
    7.7946    0.9017   -3.2793 H   0  0  0  0  0  0  0  0  0  0  0  0
    9.1108    0.8482   -2.0934 H   0  0  0  0  0  0  0  0  0  0  0  0
   -0.6169   -2.7421   -0.2584 H   0  0  0  0  0  0  0  0  0  0  0  0
    2.2904   -2.2072    0.5386 H   0  0  0  0  0  0  0  0  0  0  0  0
    1.6957   -3.4973   -0.5150 H   0  0  0  0  0  0  0  0  0  0  0  0
    1.5638   -1.8111   -1.0301 H   0  0  0  0  0  0  0  0  0  0  0  0
    0.7654   -3.1052    2.4505 H   0  0  0  0  0  0  0  0  0  0  0  0
    0.2455   -4.3831    1.3470 H   0  0  0  0  0  0  0  0  0  0  0  0
   -0.9601   -3.3579    2.1252 H   0  0  0  0  0  0  0  0  0  0  0  0
   -4.1772   -0.6132   -1.8437 H   0  0  0  0  0  0  0  0  0  0  0  0
   -6.6207   -0.5123   -1.8726 H   0  0  0  0  0  0  0  0  0  0  0  0
  1  2  1  0
  2  3  1  0
  3  4  2  0
  4  5  1  0
  5  6  2  0
  6  7  1  0
  7  8  1  0
  8  9  2  0
  8 10  1  0
 10 11  1  0
 11 12  1  0
 12 13  2  0
 12 14  2  0
 12 15  1  0
 15 16  2  0
 16 17  1  0
 17 18  2  0
 18 19  1  0
 19 20  2  0
 19 21  1  0
 21 22  1  0
 22 23  1  0
 23 24  1  0
 24 25  1  0
 24 26  2  0
 10 27  1  0
 27 28  1  0
 27 29  1  0
  6 30  1  0
 30 31  2  0
 31  3  1  0
 20 15  1  0
 23 18  1  0
  1 32  1  0
  1 33  1  0
  1 34  1  0
  2 35  1  0
  2 36  1  0
  4 37  1  0
  5 38  1  0
  7 39  1  0
 10 40  1  0
 11 41  1  0
 16 42  1  0
 17 43  1  0
 20 44  1  0
 21 45  1  0
 21 46  1  0
 22 47  1  0
 22 48  1  0
 25 49  1  0
 25 50  1  0
 25 51  1  0
 27 52  1  0
 28 53  1  0
 28 54  1  0
 28 55  1  0
 29 56  1  0
 29 57  1  0
 29 58  1  0
 30 59  1  0
 31 60  1  0
M  END
$$$$
