
     RDKit          3D

 57 60  0  0  0  0  0  0  0  0999 V2000
   -0.4512    4.5655   -1.1634 C   0  0  0  0  0  0  0  0  0  0  0  0
   -0.6250    3.0503   -1.1215 C   0  0  0  0  0  0  0  0  0  0  0  0
    0.7229    2.3177   -1.1382 C   0  0  0  0  0  0  0  0  0  0  0  0
    0.6451    0.5388   -1.5978 S   0  0  0  0  0  0  0  0  0  0  0  0
   -0.9159    0.0404   -0.9715 C   0  0  0  0  0  0  0  0  0  0  0  0
   -1.0996    0.2724    0.2952 N   0  0  0  0  0  0  0  0  0  0  0  0
   -2.3566   -0.0920    0.7767 C   0  0  0  0  0  0  0  0  0  0  0  0
   -2.7755    0.0889    2.1136 C   0  0  0  0  0  0  0  0  0  0  0  0
   -4.0730   -0.3530    2.2856 C   0  0  0  0  0  0  0  0  0  0  0  0
   -4.7462   -0.9665    0.8256 S   0  0  0  0  0  0  0  0  0  0  0  0
   -3.3143   -0.6392   -0.0211 C   0  0  0  0  0  0  0  0  0  0  0  0
   -3.1106   -0.8952   -1.4152 C   0  0  0  0  0  0  0  0  0  0  0  0
   -3.9739   -1.3582   -2.1577 O   0  0  0  0  0  0  0  0  0  0  0  0
   -1.8235   -0.5498   -1.8537 N   0  0  0  0  0  0  0  0  0  0  0  0
   -1.5251   -0.8577   -3.2586 C   0  0  0  0  0  0  0  0  0  0  0  0
   -0.8591   -2.2109   -3.4329 C   0  0  0  0  0  0  0  0  0  0  0  0
    0.4927   -2.3049   -3.7965 C   0  0  0  0  0  0  0  0  0  0  0  0
    1.1096   -3.5520   -3.9458 C   0  0  0  0  0  0  0  0  0  0  0  0
    0.3791   -4.7269   -3.7410 C   0  0  0  0  0  0  0  0  0  0  0  0
    0.9873   -6.0712   -3.8889 C   0  0  0  0  0  0  0  0  0  0  0  0
    0.4098   -7.1341   -3.7509 O   0  0  0  0  0  0  0  0  0  0  0  0
    2.2934   -6.0218   -4.2047 O   0  0  0  0  0  0  0  0  0  0  0  0
   -0.9722   -4.6442   -3.3920 C   0  0  0  0  0  0  0  0  0  0  0  0
   -1.5859   -3.3968   -3.2420 C   0  0  0  0  0  0  0  0  0  0  0  0
    1.5259    2.5152    0.1565 C   0  0  0  0  0  0  0  0  0  0  0  0
    2.4850    3.2860    0.1606 O   0  0  0  0  0  0  0  0  0  0  0  0
    1.0564    1.8173    1.2515 N   0  0  0  0  0  0  0  0  0  0  0  0
    1.5684    1.8266    2.5648 C   0  0  0  0  0  0  0  0  0  0  0  0
    1.0587    0.8731    3.4522 C   0  0  0  0  0  0  0  0  0  0  0  0
    1.5067    0.8125    4.7745 C   0  0  0  0  0  0  0  0  0  0  0  0
    2.4721    1.7124    5.2420 C   0  0  0  0  0  0  0  0  0  0  0  0
    2.9331    1.6315    6.6705 C   0  0  0  0  0  0  0  0  0  0  0  0
    2.9778    2.6692    4.3500 C   0  0  0  0  0  0  0  0  0  0  0  0
    4.1661    3.8221    4.8516 Cl  0  0  0  0  0  0  0  0  0  0  0  0
    2.5321    2.7242    3.0231 C   0  0  0  0  0  0  0  0  0  0  0  0
    0.1070    4.8729   -2.0533 H   0  0  0  0  0  0  0  0  0  0  0  0
   -1.4299    5.0554   -1.1920 H   0  0  0  0  0  0  0  0  0  0  0  0
    0.0796    4.9303   -0.2785 H   0  0  0  0  0  0  0  0  0  0  0  0
   -1.2246    2.7590   -1.9926 H   0  0  0  0  0  0  0  0  0  0  0  0
   -1.2028    2.8094   -0.2234 H   0  0  0  0  0  0  0  0  0  0  0  0
    1.3347    2.7549   -1.9381 H   0  0  0  0  0  0  0  0  0  0  0  0
   -2.1812    0.5199    2.9086 H   0  0  0  0  0  0  0  0  0  0  0  0
   -4.6650   -0.3433    3.1909 H   0  0  0  0  0  0  0  0  0  0  0  0
   -0.9062   -0.0672   -3.6958 H   0  0  0  0  0  0  0  0  0  0  0  0
   -2.4452   -0.8511   -3.8561 H   0  0  0  0  0  0  0  0  0  0  0  0
    1.0867   -1.4092   -3.9697 H   0  0  0  0  0  0  0  0  0  0  0  0
    2.1603   -3.5938   -4.2232 H   0  0  0  0  0  0  0  0  0  0  0  0
    2.5525   -6.9650   -4.2715 H   0  0  0  0  0  0  0  0  0  0  0  0
   -1.5560   -5.5505   -3.2380 H   0  0  0  0  0  0  0  0  0  0  0  0
   -2.6433   -3.3666   -2.9834 H   0  0  0  0  0  0  0  0  0  0  0  0
    0.3121    1.1448    1.0663 H   0  0  0  0  0  0  0  0  0  0  0  0
    0.3180    0.1493    3.1213 H   0  0  0  0  0  0  0  0  0  0  0  0
    1.0968    0.0524    5.4349 H   0  0  0  0  0  0  0  0  0  0  0  0
    4.0067    1.4208    6.7140 H   0  0  0  0  0  0  0  0  0  0  0  0
    2.4198    0.8306    7.2130 H   0  0  0  0  0  0  0  0  0  0  0  0
    2.7202    2.5690    7.1937 H   0  0  0  0  0  0  0  0  0  0  0  0
    2.9451    3.4882    2.3727 H   0  0  0  0  0  0  0  0  0  0  0  0
  1  2  1  0
  2  3  1  0
  3  4  1  0
  4  5  1  0
  5  6  2  0
  6  7  1  0
  7  8  1  0
  8  9  2  0
  9 10  1  0
 10 11  1  0
 11 12  1  0
 12 13  2  0
 12 14  1  0
 14 15  1  0
 15 16  1  0
 16 17  2  0
 17 18  1  0
 18 19  2  0
 19 20  1  0
 20 21  2  0
 20 22  1  0
 19 23  1  0
 23 24  2  0
  3 25  1  0
 25 26  2  0
 25 27  1  0
 27 28  1  0
 28 29  2  0
 29 30  1  0
 30 31  2  0
 31 32  1  0
 31 33  1  0
 33 34  1  0
 33 35  2  0
 14  5  1  0
 24 16  1  0
 35 28  1  0
 11  7  2  0
  1 36  1  0
  1 37  1  0
  1 38  1  0
  2 39  1  0
  2 40  1  0
  3 41  1  0
  8 42  1  0
  9 43  1  0
 15 44  1  0
 15 45  1  0
 17 46  1  0
 18 47  1  0
 22 48  1  0
 23 49  1  0
 24 50  1  0
 27 51  1  0
 29 52  1  0
 30 53  1  0
 32 54  1  0
 32 55  1  0
 32 56  1  0
 35 57  1  0
M  END
$$$$
