
     RDKit          3D

 35 36  0  0  0  0  0  0  0  0999 V2000
    6.1630   -0.8140    2.2574 C   0  0  0  0  0  0  0  0  0  0  0  0
    4.9741   -0.6172    1.3624 C   0  0  0  0  0  0  0  0  0  0  0  0
    4.3251   -1.7152    0.7818 C   0  0  0  0  0  0  0  0  0  0  0  0
    3.2127   -1.5262   -0.0398 C   0  0  0  0  0  0  0  0  0  0  0  0
    2.7388   -0.2324   -0.2666 C   0  0  0  0  0  0  0  0  0  0  0  0
    1.3243    0.0138   -1.3166 S   0  0  0  0  0  6  0  0  0  0  0  0
    1.4200    1.3557   -1.8589 O   0  0  0  0  0  0  0  0  0  0  0  0
    1.2310   -1.1401   -2.1904 O   0  0  0  0  0  0  0  0  0  0  0  0
   -0.0325   -0.0367   -0.1662 C   0  0  0  0  0  0  0  0  0  0  0  0
   -1.3446    0.1581   -0.9002 C   0  0  0  0  0  0  0  0  0  0  0  0
   -2.7163    0.1022    0.2994 S   0  0  0  0  0  0  0  0  0  0  0  0
   -4.0640    0.3512   -0.7595 C   0  0  0  0  0  0  0  0  0  0  0  0
   -3.9880    0.5251   -2.0585 N   0  0  0  0  0  0  0  0  0  0  0  0
   -5.2830    0.6812   -2.4793 C   0  0  0  0  0  0  0  0  0  0  0  0
   -6.1545    0.6017   -1.4183 C   0  0  0  0  0  0  0  0  0  0  0  0
   -5.3610    0.3894   -0.3212 N   0  0  0  0  0  0  0  0  0  0  0  0
   -5.8357    0.2359    1.0318 C   0  0  0  0  0  0  0  0  0  0  0  0
    3.3782    0.8729    0.2982 C   0  0  0  0  0  0  0  0  0  0  0  0
    4.4900    0.6758    1.1182 C   0  0  0  0  0  0  0  0  0  0  0  0
    6.9709   -0.1315    1.9733 H   0  0  0  0  0  0  0  0  0  0  0  0
    6.5537   -1.8342    2.1844 H   0  0  0  0  0  0  0  0  0  0  0  0
    5.8831   -0.6260    3.2988 H   0  0  0  0  0  0  0  0  0  0  0  0
    4.6896   -2.7255    0.9576 H   0  0  0  0  0  0  0  0  0  0  0  0
    2.7320   -2.3870   -0.4993 H   0  0  0  0  0  0  0  0  0  0  0  0
    0.0048   -1.0102    0.3348 H   0  0  0  0  0  0  0  0  0  0  0  0
    0.1367    0.7588    0.5678 H   0  0  0  0  0  0  0  0  0  0  0  0
   -1.4864   -0.6299   -1.6478 H   0  0  0  0  0  0  0  0  0  0  0  0
   -1.3547    1.1237   -1.4173 H   0  0  0  0  0  0  0  0  0  0  0  0
   -5.5193    0.8437   -3.5231 H   0  0  0  0  0  0  0  0  0  0  0  0
   -7.2313    0.6754   -1.3590 H   0  0  0  0  0  0  0  0  0  0  0  0
   -5.5272   -0.7443    1.4040 H   0  0  0  0  0  0  0  0  0  0  0  0
   -5.4153    1.0374    1.6446 H   0  0  0  0  0  0  0  0  0  0  0  0
   -6.9272    0.3016    1.0446 H   0  0  0  0  0  0  0  0  0  0  0  0
    3.0267    1.8837    0.1029 H   0  0  0  0  0  0  0  0  0  0  0  0
    4.9861    1.5381    1.5599 H   0  0  0  0  0  0  0  0  0  0  0  0
  1  2  1  0
  2  3  2  0
  3  4  1  0
  4  5  2  0
  5  6  1  0
  6  7  2  0
  6  8  2  0
  6  9  1  0
  9 10  1  0
 10 11  1  0
 11 12  1  0
 12 13  2  0
 13 14  1  0
 14 15  2  0
 15 16  1  0
 16 17  1  0
  5 18  1  0
 18 19  2  0
 19  2  1  0
 16 12  1  0
  1 20  1  0
  1 21  1  0
  1 22  1  0
  3 23  1  0
  4 24  1  0
  9 25  1  0
  9 26  1  0
 10 27  1  0
 10 28  1  0
 14 29  1  0
 15 30  1  0
 17 31  1  0
 17 32  1  0
 17 33  1  0
 18 34  1  0
 19 35  1  0
M  END
$$$$
