
     RDKit          3D

 67 72  0  0  0  0  0  0  0  0999 V2000
   -5.4789   -3.7155   -2.0173 C   0  0  0  0  0  0  0  0  0  0  0  0
   -4.5143   -3.1945   -0.9951 C   0  0  0  0  0  0  0  0  0  0  0  0
   -4.6010   -3.5715    0.3592 C   0  0  0  0  0  0  0  0  0  0  0  0
   -5.8302   -4.6598    0.9090 Cl  0  0  0  0  0  0  0  0  0  0  0  0
   -3.6936   -3.0873    1.3227 C   0  0  0  0  0  0  0  0  0  0  0  0
   -2.6731   -2.2068    0.9643 C   0  0  0  0  0  0  0  0  0  0  0  0
   -2.5843   -1.8212   -0.3630 C   0  0  0  0  0  0  0  0  0  0  0  0
   -3.4864   -2.3168   -1.3177 C   0  0  0  0  0  0  0  0  0  0  0  0
   -3.1663   -1.8030   -2.5752 N   0  0  0  0  0  0  0  0  0  0  0  0
   -2.0613   -0.9503   -2.5226 C   0  0  0  0  0  0  0  0  0  0  0  0
   -1.5638   -0.3917   -3.4896 O   0  0  0  0  0  0  0  0  0  0  0  0
   -1.6108   -0.9049   -1.0428 C   0  0  1  0  0  0  0  0  0  0  0  0
   -1.6894    0.4506   -0.4420 C   0  0  0  0  0  0  0  0  0  0  0  0
   -0.4040    1.0048   -0.3174 C   0  0  0  0  0  0  0  0  0  0  0  0
   -0.5143    2.2636    0.2103 C   0  0  0  0  0  0  0  0  0  0  0  0
    0.4267    3.1569    0.5034 O   0  0  0  0  0  0  0  0  0  0  0  0
   -1.8828    2.4774    0.4820 N   0  0  0  0  0  0  0  0  0  0  0  0
   -2.4490    3.5968    1.1726 C   0  0  0  0  0  0  0  0  0  0  0  0
   -3.5953    3.4251    1.9653 C   0  0  0  0  0  0  0  0  0  0  0  0
   -4.1564    4.5118    2.6405 C   0  0  0  0  0  0  0  0  0  0  0  0
   -3.5774    5.7740    2.5350 C   0  0  0  0  0  0  0  0  0  0  0  0
   -2.4319    5.9501    1.7618 C   0  0  0  0  0  0  0  0  0  0  0  0
   -1.8644    4.8659    1.0864 C   0  0  0  0  0  0  0  0  0  0  0  0
   -2.6058    1.3807   -0.0353 C   0  0  0  0  0  0  0  0  0  0  0  0
   -3.9327    1.3264   -0.1426 O   0  0  0  0  0  0  0  0  0  0  0  0
    0.5962    0.0616   -0.8632 C   0  0  1  0  0  0  0  0  0  0  0  0
    1.9139   -0.1401   -0.1230 C   0  0  0  0  0  0  0  0  0  0  0  0
    2.6612   -1.2789   -0.6942 N   0  0  0  0  0  0  0  0  0  0  0  0
    4.0290   -1.4096   -0.5177 C   0  0  0  0  0  0  0  0  0  0  0  0
    4.6466   -2.4374   -0.7633 O   0  0  0  0  0  0  0  0  0  0  0  0
    4.5932   -0.2681   -0.0460 O   0  0  0  0  0  0  0  0  0  0  0  0
    6.0184   -0.1890    0.2129 C   0  0  0  0  0  0  0  0  0  0  0  0
    6.2392    1.2429    0.7247 C   0  0  0  0  0  0  0  0  0  0  0  0
    6.8318   -0.3787   -1.0720 C   0  0  0  0  0  0  0  0  0  0  0  0
    6.4408   -1.1705    1.3115 C   0  0  0  0  0  0  0  0  0  0  0  0
    1.8902   -2.5029   -0.9731 C   0  0  0  0  0  0  0  0  0  0  0  0
    0.4868   -2.2488   -1.5799 C   0  0  0  0  0  0  0  0  0  0  0  0
   -0.1812   -1.2154   -0.8065 N   0  0  0  0  0  0  0  0  0  0  0  0
   -6.5018   -3.4233   -1.7583 H   0  0  0  0  0  0  0  0  0  0  0  0
   -5.2787   -3.3266   -3.0192 H   0  0  0  0  0  0  0  0  0  0  0  0
   -5.4161   -4.8069   -2.0776 H   0  0  0  0  0  0  0  0  0  0  0  0
   -3.7856   -3.3981    2.3611 H   0  0  0  0  0  0  0  0  0  0  0  0
   -1.9732   -1.8294    1.7037 H   0  0  0  0  0  0  0  0  0  0  0  0
   -3.6527   -1.9926   -3.4375 H   0  0  0  0  0  0  0  0  0  0  0  0
    1.2871    2.7975    0.2286 H   0  0  0  0  0  0  0  0  0  0  0  0
   -4.0399    2.4433    2.1163 H   0  0  0  0  0  0  0  0  0  0  0  0
   -5.0369    4.3693    3.2622 H   0  0  0  0  0  0  0  0  0  0  0  0
   -4.0120    6.6189    3.0630 H   0  0  0  0  0  0  0  0  0  0  0  0
   -1.9767    6.9342    1.6815 H   0  0  0  0  0  0  0  0  0  0  0  0
   -0.9858    5.0478    0.4737 H   0  0  0  0  0  0  0  0  0  0  0  0
   -4.2836    2.2357   -0.1220 H   0  0  0  0  0  0  0  0  0  0  0  0
    0.7970    0.3347   -1.9094 H   0  0  0  0  0  0  0  0  0  0  0  0
    2.5142    0.7740   -0.1807 H   0  0  0  0  0  0  0  0  0  0  0  0
    1.7533   -0.3553    0.9412 H   0  0  0  0  0  0  0  0  0  0  0  0
    5.6418    1.4314    1.6244 H   0  0  0  0  0  0  0  0  0  0  0  0
    7.2911    1.4333    0.9618 H   0  0  0  0  0  0  0  0  0  0  0  0
    5.9140    1.9776   -0.0212 H   0  0  0  0  0  0  0  0  0  0  0  0
    6.7720   -1.4047   -1.4473 H   0  0  0  0  0  0  0  0  0  0  0  0
    7.8910   -0.1516   -0.9099 H   0  0  0  0  0  0  0  0  0  0  0  0
    6.4545    0.2702   -1.8704 H   0  0  0  0  0  0  0  0  0  0  0  0
    5.7894   -1.0770    2.1877 H   0  0  0  0  0  0  0  0  0  0  0  0
    7.4752   -0.9951    1.6261 H   0  0  0  0  0  0  0  0  0  0  0  0
    6.3726   -2.2109    0.9799 H   0  0  0  0  0  0  0  0  0  0  0  0
    1.7860   -3.0296   -0.0156 H   0  0  0  0  0  0  0  0  0  0  0  0
    2.4639   -3.1544   -1.6419 H   0  0  0  0  0  0  0  0  0  0  0  0
    0.5941   -1.9522   -2.6301 H   0  0  0  0  0  0  0  0  0  0  0  0
   -0.0794   -3.1864   -1.5544 H   0  0  0  0  0  0  0  0  0  0  0  0
  1  2  1  0
  2  3  2  0
  3  4  1  0
  3  5  1  0
  5  6  2  0
  6  7  1  0
  7  8  2  0
  8  9  1  0
  9 10  1  0
 10 11  2  0
 10 12  1  0
 12 13  1  0
 13 14  1  0
 14 15  2  0
 15 16  1  0
 15 17  1  0
 17 18  1  0
 18 19  2  0
 19 20  1  0
 20 21  2  0
 21 22  1  0
 22 23  2  0
 17 24  1  0
 24 25  1  0
 14 26  1  0
 26 27  1  0
 27 28  1  0
 28 29  1  0
 29 30  2  0
 29 31  1  0
 31 32  1  0
 32 33  1  0
 32 34  1  0
 32 35  1  0
 28 36  1  0
 36 37  1  0
 37 38  1  0
  8  2  1  0
 12 38  1  6
 12  7  1  0
 24 13  2  0
 38 26  1  0
 23 18  1  0
  1 39  1  0
  1 40  1  0
  1 41  1  0
  5 42  1  0
  6 43  1  0
  9 44  1  0
 16 45  1  0
 19 46  1  0
 20 47  1  0
 21 48  1  0
 22 49  1  0
 23 50  1  0
 25 51  1  0
 26 52  1  6
 27 53  1  0
 27 54  1  0
 33 55  1  0
 33 56  1  0
 33 57  1  0
 34 58  1  0
 34 59  1  0
 34 60  1  0
 35 61  1  0
 35 62  1  0
 35 63  1  0
 36 64  1  0
 36 65  1  0
 37 66  1  0
 37 67  1  0
M  END
$$$$
