
     RDKit          3D

 61 67  0  0  0  0  0  0  0  0999 V2000
    3.9568   -1.8418   -2.0847 O   0  0  0  0  0  0  0  0  0  0  0  0
    3.5551   -1.0736   -1.2140 C   0  0  0  0  0  0  0  0  0  0  0  0
    4.5276   -0.1099   -0.6496 C   0  0  0  0  0  0  0  0  0  0  0  0
    5.7848   -0.5873   -0.2241 C   0  0  0  0  0  0  0  0  0  0  0  0
    6.7391    0.2972    0.2868 C   0  0  0  0  0  0  0  0  0  0  0  0
    6.4078    1.6350    0.3388 C   0  0  0  0  0  0  0  0  0  0  0  0
    5.1884    2.1012   -0.0986 C   0  0  0  0  0  0  0  0  0  0  0  0
    4.2255    1.2577   -0.6079 C   0  0  0  0  0  0  0  0  0  0  0  0
    5.0723    3.4499    0.0312 O   0  0  0  0  0  0  0  0  0  0  0  0
    6.3603    3.7818    0.5923 C   0  0  0  0  0  0  0  0  0  0  0  0
    7.2082    2.6329    0.7994 O   0  0  0  0  0  0  0  0  0  0  0  0
    2.2285   -1.0416   -0.7619 N   0  0  0  0  0  0  0  0  0  0  0  0
    1.3105   -1.9793   -1.3976 C   0  0  0  0  0  0  0  0  0  0  0  0
   -0.1340   -1.4934   -1.3141 C   0  0  0  0  0  0  0  0  0  0  0  0
   -0.5618   -1.1728    0.1380 C   0  0  0  0  0  0  0  0  0  0  0  0
    0.4721   -0.1922    0.7522 C   0  0  0  0  0  0  0  0  0  0  0  0
    1.9026   -0.7107    0.6261 C   0  0  0  0  0  0  0  0  0  0  0  0
   -0.4260   -2.3728    0.9444 O   0  0  0  0  0  0  0  0  0  0  0  0
   -1.4484   -3.2726    0.9273 C   0  0  0  0  0  0  0  0  0  0  0  0
   -1.1744   -4.5206    1.4874 C   0  0  0  0  0  0  0  0  0  0  0  0
   -2.1547   -5.5160    1.4966 C   0  0  0  0  0  0  0  0  0  0  0  0
   -3.4104   -5.2587    0.9468 C   0  0  0  0  0  0  0  0  0  0  0  0
   -4.6123   -6.4885    0.9539 Cl  0  0  0  0  0  0  0  0  0  0  0  0
   -3.6968   -4.0130    0.3955 C   0  0  0  0  0  0  0  0  0  0  0  0
   -2.7104   -3.0212    0.4007 C   0  0  0  0  0  0  0  0  0  0  0  0
   -2.9881   -1.6913   -0.1577 C   0  0  0  0  0  0  0  0  0  0  0  0
   -3.9643   -1.5309   -0.8855 O   0  0  0  0  0  0  0  0  0  0  0  0
   -2.0018   -0.5899    0.2149 C   0  0  0  0  0  0  0  0  0  0  0  0
   -2.2470    0.6653   -0.6114 C   0  0  0  0  0  0  0  0  0  0  0  0
   -3.0939    1.4201    0.3558 C   0  0  0  0  0  0  0  0  0  0  0  0
   -3.8414    2.6384   -0.0368 C   0  0  0  0  0  0  0  0  0  0  0  0
   -3.7391    3.1791   -1.3237 C   0  0  0  0  0  0  0  0  0  0  0  0
   -4.4549    4.3324   -1.6571 C   0  0  0  0  0  0  0  0  0  0  0  0
   -5.2715    4.9491   -0.7102 C   0  0  0  0  0  0  0  0  0  0  0  0
   -5.3757    4.4158    0.5730 C   0  0  0  0  0  0  0  0  0  0  0  0
   -4.6627    3.2638    0.9100 C   0  0  0  0  0  0  0  0  0  0  0  0
   -3.0924    0.9492    1.5624 N   0  0  0  0  0  0  0  0  0  0  0  0
   -2.2897   -0.2107    1.5716 O   0  0  0  0  0  0  0  0  0  0  0  0
    6.0141   -1.6486   -0.2994 H   0  0  0  0  0  0  0  0  0  0  0  0
    7.7092   -0.0530    0.6215 H   0  0  0  0  0  0  0  0  0  0  0  0
    3.2790    1.6436   -0.9675 H   0  0  0  0  0  0  0  0  0  0  0  0
    6.2044    4.2807    1.5557 H   0  0  0  0  0  0  0  0  0  0  0  0
    6.8696    4.4765   -0.0856 H   0  0  0  0  0  0  0  0  0  0  0  0
    1.5801   -2.1074   -2.4523 H   0  0  0  0  0  0  0  0  0  0  0  0
    1.4322   -2.9552   -0.9123 H   0  0  0  0  0  0  0  0  0  0  0  0
   -0.2356   -0.5981   -1.9396 H   0  0  0  0  0  0  0  0  0  0  0  0
   -0.7751   -2.2667   -1.7520 H   0  0  0  0  0  0  0  0  0  0  0  0
    0.4212    0.7860    0.2633 H   0  0  0  0  0  0  0  0  0  0  0  0
    0.2652   -0.0378    1.8182 H   0  0  0  0  0  0  0  0  0  0  0  0
    2.0481   -1.6206    1.2215 H   0  0  0  0  0  0  0  0  0  0  0  0
    2.5903    0.0315    1.0361 H   0  0  0  0  0  0  0  0  0  0  0  0
   -0.1941   -4.7236    1.9126 H   0  0  0  0  0  0  0  0  0  0  0  0
   -1.9323   -6.4875    1.9315 H   0  0  0  0  0  0  0  0  0  0  0  0
   -4.6788   -3.8091   -0.0253 H   0  0  0  0  0  0  0  0  0  0  0  0
   -1.3466    1.2547   -0.7994 H   0  0  0  0  0  0  0  0  0  0  0  0
   -2.7535    0.4821   -1.5619 H   0  0  0  0  0  0  0  0  0  0  0  0
   -3.1118    2.7255   -2.0845 H   0  0  0  0  0  0  0  0  0  0  0  0
   -4.3769    4.7503   -2.6580 H   0  0  0  0  0  0  0  0  0  0  0  0
   -5.8285    5.8453   -0.9725 H   0  0  0  0  0  0  0  0  0  0  0  0
   -6.0130    4.8942    1.3125 H   0  0  0  0  0  0  0  0  0  0  0  0
   -4.7552    2.8572    1.9153 H   0  0  0  0  0  0  0  0  0  0  0  0
  1  2  2  0
  2  3  1  0
  3  4  2  0
  4  5  1  0
  5  6  2  0
  6  7  1  0
  7  8  2  0
  7  9  1  0
  9 10  1  0
 10 11  1  0
  2 12  1  0
 12 13  1  0
 13 14  1  0
 14 15  1  0
 15 16  1  0
 16 17  1  0
 15 18  1  0
 18 19  1  0
 19 20  2  0
 20 21  1  0
 21 22  2  0
 22 23  1  0
 22 24  1  0
 24 25  2  0
 25 26  1  0
 26 27  2  0
 26 28  1  0
 28 29  1  0
 29 30  1  0
 30 31  1  0
 31 32  2  0
 32 33  1  0
 33 34  2  0
 34 35  1  0
 35 36  2  0
 30 37  2  0
 37 38  1  0
  8  3  1  0
 17 12  1  0
 25 19  1  0
 38 28  1  0
 11  6  1  0
 28 15  1  0
 36 31  1  0
  4 39  1  0
  5 40  1  0
  8 41  1  0
 10 42  1  0
 10 43  1  0
 13 44  1  0
 13 45  1  0
 14 46  1  0
 14 47  1  0
 16 48  1  0
 16 49  1  0
 17 50  1  0
 17 51  1  0
 20 52  1  0
 21 53  1  0
 24 54  1  0
 29 55  1  0
 29 56  1  0
 32 57  1  0
 33 58  1  0
 34 59  1  0
 35 60  1  0
 36 61  1  0
M  END
$$$$
