
     RDKit          3D

 44 46  0  0  0  0  0  0  0  0999 V2000
    7.6863   -3.1723   -0.8568 C   0  0  0  0  0  0  0  0  0  0  0  0
    6.5090   -2.4941   -0.2199 C   0  0  0  0  0  0  0  0  0  0  0  0
    6.4844   -2.2696    1.1615 C   0  0  0  0  0  0  0  0  0  0  0  0
    5.3743   -1.6690    1.7604 C   0  0  0  0  0  0  0  0  0  0  0  0
    4.2737   -1.2862    0.9851 C   0  0  0  0  0  0  0  0  0  0  0  0
    3.1143   -0.6495    1.6701 C   0  0  0  0  0  0  0  0  0  0  0  0
    2.9164   -0.8347    2.8657 O   0  0  0  0  0  0  0  0  0  0  0  0
    2.3179    0.1687    0.9034 N   0  0  0  0  0  0  0  0  0  0  0  0
    1.2116    0.8979    1.5018 C   0  0  0  0  0  0  0  0  0  0  0  0
    0.5073    1.7389    0.4507 C   0  0  0  0  0  0  0  0  0  0  0  0
    0.9062    1.8811   -0.7008 O   0  0  0  0  0  0  0  0  0  0  0  0
   -0.6021    2.3188    0.9780 O   0  0  0  0  0  0  0  0  0  0  0  0
   -1.3690    3.1199    0.0637 C   0  0  0  0  0  0  0  0  0  0  0  0
   -2.3442    2.3025   -0.7224 C   0  0  0  0  0  0  0  0  0  0  0  0
   -2.1407    1.7622   -1.9760 C   0  0  0  0  0  0  0  0  0  0  0  0
   -3.5259    0.8958   -2.4756 S   0  0  0  0  0  0  0  0  0  0  0  0
   -4.3192    1.2907   -0.9945 C   0  0  0  0  0  0  0  0  0  0  0  0
   -5.6901    0.8302   -0.6850 C   0  0  0  0  0  0  0  0  0  0  0  0
   -6.2278    1.1132    0.5837 C   0  0  0  0  0  0  0  0  0  0  0  0
   -7.5175    0.7048    0.9357 C   0  0  0  0  0  0  0  0  0  0  0  0
   -8.2977    0.0038    0.0219 C   0  0  0  0  0  0  0  0  0  0  0  0
   -7.7890   -0.2870   -1.2408 C   0  0  0  0  0  0  0  0  0  0  0  0
   -6.4973    0.1225   -1.5918 C   0  0  0  0  0  0  0  0  0  0  0  0
   -3.5892    2.0272   -0.1749 N   0  0  0  0  0  0  0  0  0  0  0  0
    4.2817   -1.5360   -0.3925 C   0  0  0  0  0  0  0  0  0  0  0  0
    5.3941   -2.1382   -0.9889 C   0  0  0  0  0  0  0  0  0  0  0  0
    8.6121   -2.9260   -0.3265 H   0  0  0  0  0  0  0  0  0  0  0  0
    7.5466   -4.2575   -0.8409 H   0  0  0  0  0  0  0  0  0  0  0  0
    7.8105   -2.8463   -1.8948 H   0  0  0  0  0  0  0  0  0  0  0  0
    7.3281   -2.5632    1.7826 H   0  0  0  0  0  0  0  0  0  0  0  0
    5.3698   -1.5009    2.8357 H   0  0  0  0  0  0  0  0  0  0  0  0
    2.6153    0.4599   -0.0214 H   0  0  0  0  0  0  0  0  0  0  0  0
    0.5135    0.1716    1.9285 H   0  0  0  0  0  0  0  0  0  0  0  0
    1.6085    1.5503    2.2854 H   0  0  0  0  0  0  0  0  0  0  0  0
   -0.7143    3.7056   -0.5935 H   0  0  0  0  0  0  0  0  0  0  0  0
   -1.9198    3.8473    0.6708 H   0  0  0  0  0  0  0  0  0  0  0  0
   -1.2596    1.8286   -2.5994 H   0  0  0  0  0  0  0  0  0  0  0  0
   -5.6339    1.6604    1.3150 H   0  0  0  0  0  0  0  0  0  0  0  0
   -7.9078    0.9357    1.9235 H   0  0  0  0  0  0  0  0  0  0  0  0
   -9.3007   -0.3151    0.2931 H   0  0  0  0  0  0  0  0  0  0  0  0
   -8.3969   -0.8339   -1.9575 H   0  0  0  0  0  0  0  0  0  0  0  0
   -6.1441   -0.1246   -2.5894 H   0  0  0  0  0  0  0  0  0  0  0  0
    3.4235   -1.2980   -1.0140 H   0  0  0  0  0  0  0  0  0  0  0  0
    5.3817   -2.3358   -2.0590 H   0  0  0  0  0  0  0  0  0  0  0  0
  1  2  1  0
  2  3  2  0
  3  4  1  0
  4  5  2  0
  5  6  1  0
  6  7  2  0
  6  8  1  0
  8  9  1  0
  9 10  1  0
 10 11  2  0
 10 12  1  0
 12 13  1  0
 13 14  1  0
 14 15  2  0
 15 16  1  0
 16 17  1  0
 17 18  1  0
 18 19  2  0
 19 20  1  0
 20 21  2  0
 21 22  1  0
 22 23  2  0
 17 24  2  0
  5 25  1  0
 25 26  2  0
 26  2  1  0
 24 14  1  0
 23 18  1  0
  1 27  1  0
  1 28  1  0
  1 29  1  0
  3 30  1  0
  4 31  1  0
  8 32  1  0
  9 33  1  0
  9 34  1  0
 13 35  1  0
 13 36  1  0
 15 37  1  0
 19 38  1  0
 20 39  1  0
 21 40  1  0
 22 41  1  0
 23 42  1  0
 25 43  1  0
 26 44  1  0
M  END
$$$$
