
     RDKit          3D

 33 35  0  0  0  0  0  0  0  0999 V2000
   -1.6568    2.3871    2.5029 C   0  0  0  0  0  0  0  0  0  0  0  0
   -2.7937    2.3113    1.6522 O   0  0  0  0  0  0  0  0  0  0  0  0
   -2.6973    1.4351    0.5749 C   0  0  0  0  0  0  0  0  0  0  0  0
   -3.8938    1.3090   -0.1427 C   0  0  0  0  0  0  0  0  0  0  0  0
   -3.9833    0.4794   -1.2575 C   0  0  0  0  0  0  0  0  0  0  0  0
   -2.8789   -0.2565   -1.7017 C   0  0  0  0  0  0  0  0  0  0  0  0
   -2.8776   -1.0929   -2.7855 O   0  0  0  0  0  0  0  0  0  0  0  0
   -4.0961   -1.2451   -3.5007 C   0  0  0  0  0  0  0  0  0  0  0  0
   -1.6749   -0.1206   -0.9739 C   0  0  0  0  0  0  0  0  0  0  0  0
   -0.1519   -0.8895   -1.2617 S   0  0  0  0  0  0  0  0  0  0  0  0
    0.5183   -0.0894    0.0696 C   0  0  0  0  0  0  0  0  0  0  0  0
    1.8206   -0.2392    0.4650 N   0  0  0  0  0  0  0  0  0  0  0  0
    2.7843   -1.0590   -0.0772 C   0  0  0  0  0  0  0  0  0  0  0  0
    2.6160   -1.8155   -1.0278 O   0  0  0  0  0  0  0  0  0  0  0  0
    4.0865   -0.9793    0.5891 C   0  0  0  0  0  0  0  0  0  0  0  0
    5.2123   -1.7315    0.2920 C   0  0  0  0  0  0  0  0  0  0  0  0
    6.3259   -1.4131    1.1254 C   0  0  0  0  0  0  0  0  0  0  0  0
    6.0025   -0.4288    2.0224 C   0  0  0  0  0  0  0  0  0  0  0  0
    7.2306    0.2733    3.3076 Br  0  0  0  0  0  0  0  0  0  0  0  0
    4.4045    0.1091    1.8814 S   0  0  0  0  0  0  0  0  0  0  0  0
   -0.2830    0.7115    0.7245 N   0  0  0  0  0  0  0  0  0  0  0  0
   -1.5539    0.7073    0.1499 C   0  0  0  0  0  0  0  0  0  0  0  0
   -0.8027    2.8319    1.9824 H   0  0  0  0  0  0  0  0  0  0  0  0
   -1.9112    3.0543    3.3326 H   0  0  0  0  0  0  0  0  0  0  0  0
   -1.4164    1.4097    2.9339 H   0  0  0  0  0  0  0  0  0  0  0  0
   -4.7687    1.8701    0.1805 H   0  0  0  0  0  0  0  0  0  0  0  0
   -4.9420    0.4256   -1.7654 H   0  0  0  0  0  0  0  0  0  0  0  0
   -3.9141   -1.9392   -4.3271 H   0  0  0  0  0  0  0  0  0  0  0  0
   -4.8739   -1.6811   -2.8645 H   0  0  0  0  0  0  0  0  0  0  0  0
   -4.4235   -0.2935   -3.9319 H   0  0  0  0  0  0  0  0  0  0  0  0
    2.0655    0.3242    1.2665 H   0  0  0  0  0  0  0  0  0  0  0  0
    5.2278   -2.4797   -0.4941 H   0  0  0  0  0  0  0  0  0  0  0  0
    7.2989   -1.8850    1.0588 H   0  0  0  0  0  0  0  0  0  0  0  0
  1  2  1  0
  2  3  1  0
  3  4  2  0
  4  5  1  0
  5  6  2  0
  6  7  1  0
  7  8  1  0
  6  9  1  0
  9 10  1  0
 10 11  1  0
 11 12  1  0
 12 13  1  0
 13 14  2  0
 13 15  1  0
 15 16  2  0
 16 17  1  0
 17 18  2  0
 18 19  1  0
 18 20  1  0
 11 21  2  0
 21 22  1  0
 22  3  1  0
 22  9  2  0
 20 15  1  0
  1 23  1  0
  1 24  1  0
  1 25  1  0
  4 26  1  0
  5 27  1  0
  8 28  1  0
  8 29  1  0
  8 30  1  0
 12 31  1  0
 16 32  1  0
 17 33  1  0
M  END
$$$$
