
     RDKit          3D

 43 44  0  0  0  0  0  0  0  0999 V2000
   -2.9095   -1.1708    2.4511 C   0  0  0  0  0  0  0  0  0  0  0  0
   -2.8237    0.2025    1.8139 C   0  0  0  0  0  0  0  0  0  0  0  0
   -3.3058    0.1320    0.4088 N   0  0  0  0  0  4  0  0  0  0  0  0
   -4.6319    0.3147    0.1836 C   0  0  0  0  0  0  0  0  0  0  0  0
   -5.1628    0.3060   -1.1045 C   0  0  0  0  0  0  0  0  0  0  0  0
   -6.6373    0.4761   -1.3257 C   0  0  0  0  0  0  0  0  0  0  0  0
   -4.3071    0.0799   -2.1762 C   0  0  0  0  0  0  0  0  0  0  0  0
   -2.9514   -0.1072   -1.9403 C   0  0  0  0  0  0  0  0  0  0  0  0
   -2.4528   -0.0761   -0.6325 C   0  0  0  0  0  0  0  0  0  0  0  0
   -1.0242   -0.3002   -0.3983 C   0  0  0  0  0  0  0  0  0  0  0  0
   -0.0920    0.5790   -0.7990 C   0  0  0  0  0  0  0  0  0  0  0  0
    1.3536    0.3965   -0.6009 C   0  0  0  0  0  0  0  0  0  0  0  0
    1.8951   -0.2706    0.4975 C   0  0  0  0  0  0  0  0  0  0  0  0
    3.2866   -0.3845    0.6538 C   0  0  0  0  0  0  0  0  0  0  0  0
    4.1974    0.1579   -0.2681 C   0  0  0  0  0  0  0  0  0  0  0  0
    5.5797    0.0581   -0.0914 N   0  0  0  0  0  0  0  0  0  0  0  0
    6.1117   -0.9569    0.8181 C   0  0  0  0  0  0  0  0  0  0  0  0
    6.4761    0.4621   -1.1746 C   0  0  0  0  0  0  0  0  0  0  0  0
    3.6259    0.8486   -1.3489 C   0  0  0  0  0  0  0  0  0  0  0  0
    2.2368    0.9683   -1.5163 C   0  0  0  0  0  0  0  0  0  0  0  0
   -2.5620   -1.1300    3.4878 H   0  0  0  0  0  0  0  0  0  0  0  0
   -3.9398   -1.5408    2.4516 H   0  0  0  0  0  0  0  0  0  0  0  0
   -2.2969   -1.9008    1.9139 H   0  0  0  0  0  0  0  0  0  0  0  0
   -3.4558    0.9206    2.3488 H   0  0  0  0  0  0  0  0  0  0  0  0
   -1.8060    0.6012    1.8341 H   0  0  0  0  0  0  0  0  0  0  0  0
   -5.2645    0.4687    1.0546 H   0  0  0  0  0  0  0  0  0  0  0  0
   -7.1330   -0.4994   -1.3088 H   0  0  0  0  0  0  0  0  0  0  0  0
   -7.0777    1.1106   -0.5493 H   0  0  0  0  0  0  0  0  0  0  0  0
   -6.8343    0.9577   -2.2893 H   0  0  0  0  0  0  0  0  0  0  0  0
   -4.6872    0.0455   -3.1972 H   0  0  0  0  0  0  0  0  0  0  0  0
   -2.2833   -0.2881   -2.7816 H   0  0  0  0  0  0  0  0  0  0  0  0
   -0.7595   -1.2278    0.1007 H   0  0  0  0  0  0  0  0  0  0  0  0
   -0.3717    1.4922   -1.3239 H   0  0  0  0  0  0  0  0  0  0  0  0
    1.2630   -0.7036    1.2666 H   0  0  0  0  0  0  0  0  0  0  0  0
    3.6402   -0.9055    1.5390 H   0  0  0  0  0  0  0  0  0  0  0  0
    5.7922   -1.9607    0.5168 H   0  0  0  0  0  0  0  0  0  0  0  0
    7.2074   -0.9497    0.8295 H   0  0  0  0  0  0  0  0  0  0  0  0
    5.7993   -0.7656    1.8502 H   0  0  0  0  0  0  0  0  0  0  0  0
    7.5268    0.3619   -0.8797 H   0  0  0  0  0  0  0  0  0  0  0  0
    6.3206   -0.1578   -2.0645 H   0  0  0  0  0  0  0  0  0  0  0  0
    6.3371    1.5177   -1.4315 H   0  0  0  0  0  0  0  0  0  0  0  0
    4.2508    1.3214   -2.1013 H   0  0  0  0  0  0  0  0  0  0  0  0
    1.8696    1.5169   -2.3811 H   0  0  0  0  0  0  0  0  0  0  0  0
  1  2  1  0
  2  3  1  0
  3  4  2  0
  4  5  1  0
  5  6  1  0
  5  7  2  0
  7  8  1  0
  8  9  2  0
  9 10  1  0
 10 11  2  3
 11 12  1  0
 12 13  2  0
 13 14  1  0
 14 15  2  0
 15 16  1  0
 16 17  1  0
 16 18  1  0
 15 19  1  0
 19 20  2  0
  9  3  1  0
 20 12  1  0
  1 21  1  0
  1 22  1  0
  1 23  1  0
  2 24  1  0
  2 25  1  0
  4 26  1  0
  6 27  1  0
  6 28  1  0
  6 29  1  0
  7 30  1  0
  8 31  1  0
 10 32  1  0
 11 33  1  0
 13 34  1  0
 14 35  1  0
 17 36  1  0
 17 37  1  0
 17 38  1  0
 18 39  1  0
 18 40  1  0
 18 41  1  0
 19 42  1  0
 20 43  1  0
M  CHG  1   3   1
M  END
$$$$
