
     RDKit          3D

 36 38  0  0  0  0  0  0  0  0999 V2000
   -2.7006    0.8037   -2.2829 C   0  0  0  0  0  0  0  0  0  0  0  0
   -2.2741    0.2251   -0.9697 C   0  0  0  0  0  0  0  0  0  0  0  0
   -0.9522    0.2150   -0.6881 N   0  0  0  0  0  0  0  0  0  0  0  0
   -0.6066   -0.3317    0.5074 C   0  0  0  0  0  0  0  0  0  0  0  0
    1.1431   -0.3551    0.8870 S   0  0  0  0  0  6  0  0  0  0  0  0
    1.3564    0.5270    2.0257 O   0  0  0  0  0  0  0  0  0  0  0  0
    1.5668   -1.7479    0.9163 O   0  0  0  0  0  0  0  0  0  0  0  0
    1.8728    0.4143   -0.5525 C   0  0  0  0  0  0  0  0  0  0  0  0
    3.3729    0.4746   -0.3905 C   0  0  0  0  0  0  0  0  0  0  0  0
    3.9796    1.5835    0.2189 C   0  0  0  0  0  0  0  0  0  0  0  0
    5.3671    1.6376    0.3707 C   0  0  0  0  0  0  0  0  0  0  0  0
    6.1555    0.5830   -0.0829 C   0  0  0  0  0  0  0  0  0  0  0  0
    7.8648    0.6514    0.1023 Cl  0  0  0  0  0  0  0  0  0  0  0  0
    5.5680   -0.5276   -0.6836 C   0  0  0  0  0  0  0  0  0  0  0  0
    4.1806   -0.5829   -0.8359 C   0  0  0  0  0  0  0  0  0  0  0  0
   -1.4149   -0.8670    1.4450 N   0  0  0  0  0  0  0  0  0  0  0  0
   -2.7041   -0.8144    1.1076 C   0  0  0  0  0  0  0  0  0  0  0  0
   -3.1881   -0.2806   -0.0750 C   0  0  0  0  0  0  0  0  0  0  0  0
   -4.6702   -0.4151   -0.1612 C   0  0  0  0  0  0  0  0  0  0  0  0
   -5.0319   -0.6750    1.3101 C   0  0  0  0  0  0  0  0  0  0  0  0
   -3.8210   -1.3748    1.9421 C   0  0  0  0  0  0  0  0  0  0  0  0
   -3.2388    0.0545   -2.8719 H   0  0  0  0  0  0  0  0  0  0  0  0
   -3.3484    1.6711   -2.1231 H   0  0  0  0  0  0  0  0  0  0  0  0
   -1.8320    1.1311   -2.8635 H   0  0  0  0  0  0  0  0  0  0  0  0
    1.4602    1.4228   -0.6579 H   0  0  0  0  0  0  0  0  0  0  0  0
    1.6086   -0.1745   -1.4366 H   0  0  0  0  0  0  0  0  0  0  0  0
    3.3761    2.4091    0.5930 H   0  0  0  0  0  0  0  0  0  0  0  0
    5.8236    2.4999    0.8492 H   0  0  0  0  0  0  0  0  0  0  0  0
    6.1813   -1.3559   -1.0282 H   0  0  0  0  0  0  0  0  0  0  0  0
    3.7355   -1.4651   -1.2934 H   0  0  0  0  0  0  0  0  0  0  0  0
   -5.1573    0.4904   -0.5333 H   0  0  0  0  0  0  0  0  0  0  0  0
   -4.9371   -1.2706   -0.7902 H   0  0  0  0  0  0  0  0  0  0  0  0
   -5.1946    0.2874    1.8153 H   0  0  0  0  0  0  0  0  0  0  0  0
   -5.9538   -1.2549    1.4179 H   0  0  0  0  0  0  0  0  0  0  0  0
   -3.7122   -1.1284    3.0014 H   0  0  0  0  0  0  0  0  0  0  0  0
   -3.8749   -2.4601    1.8103 H   0  0  0  0  0  0  0  0  0  0  0  0
  1  2  1  0
  2  3  2  0
  3  4  1  0
  4  5  1  0
  5  6  2  0
  5  7  2  0
  5  8  1  0
  8  9  1  0
  9 10  2  0
 10 11  1  0
 11 12  2  0
 12 13  1  0
 12 14  1  0
 14 15  2  0
  4 16  2  0
 16 17  1  0
 17 18  2  0
 18 19  1  0
 19 20  1  0
 20 21  1  0
 18  2  1  0
 15  9  1  0
 21 17  1  0
  1 22  1  0
  1 23  1  0
  1 24  1  0
  8 25  1  0
  8 26  1  0
 10 27  1  0
 11 28  1  0
 14 29  1  0
 15 30  1  0
 19 31  1  0
 19 32  1  0
 20 33  1  0
 20 34  1  0
 21 35  1  0
 21 36  1  0
M  END
$$$$
