
     RDKit          3D

 51 54  0  0  0  0  0  0  0  0999 V2000
   -3.8162   -4.1660    2.5506 C   0  0  0  0  0  0  0  0  0  0  0  0
   -2.3940   -4.1236    2.4797 O   0  0  0  0  0  0  0  0  0  0  0  0
   -1.8353   -3.2324    1.6042 C   0  0  0  0  0  0  0  0  0  0  0  0
   -2.5406   -2.3460    0.7963 C   0  0  0  0  0  0  0  0  0  0  0  0
   -1.8551   -1.4647   -0.0605 C   0  0  0  0  0  0  0  0  0  0  0  0
   -2.6290   -0.5199   -0.8810 C   0  0  0  0  0  0  0  0  0  0  0  0
   -3.8517   -0.6235   -0.9092 O   0  0  0  0  0  0  0  0  0  0  0  0
   -1.9083    0.4236   -1.5927 N   0  0  0  0  0  0  0  0  0  0  0  0
   -2.6542    1.4712   -2.2763 C   0  0  0  0  0  0  0  0  0  0  0  0
   -2.6673    2.6939   -1.4253 C   0  0  0  0  0  0  0  0  0  0  0  0
   -1.8544    3.8087   -1.3580 C   0  0  0  0  0  0  0  0  0  0  0  0
   -2.3757    4.6181   -0.3203 C   0  0  0  0  0  0  0  0  0  0  0  0
   -3.4716    3.9488    0.1777 C   0  0  0  0  0  0  0  0  0  0  0  0
   -3.6565    2.7815   -0.4863 O   0  0  0  0  0  0  0  0  0  0  0  0
   -0.5299    0.4214   -1.7301 C   0  0  0  0  0  0  0  0  0  0  0  0
    0.0570    1.2425   -2.4413 O   0  0  0  0  0  0  0  0  0  0  0  0
    0.1753   -0.5599   -1.0396 N   0  0  0  0  0  0  0  0  0  0  0  0
    1.6330   -0.5340   -1.1779 C   0  0  0  0  0  0  0  0  0  0  0  0
    2.2653    0.3860   -0.1341 C   0  0  0  0  0  0  0  0  0  0  0  0
    1.8201    0.4996    1.0053 O   0  0  0  0  0  0  0  0  0  0  0  0
    3.4873    1.1563   -0.5016 C   0  0  0  0  0  0  0  0  0  0  0  0
    3.7878    2.3139    0.2340 C   0  0  0  0  0  0  0  0  0  0  0  0
    4.9159    3.0762   -0.0757 C   0  0  0  0  0  0  0  0  0  0  0  0
    5.7569    2.6820   -1.1151 C   0  0  0  0  0  0  0  0  0  0  0  0
    5.4676    1.5216   -1.8348 C   0  0  0  0  0  0  0  0  0  0  0  0
    6.6180    0.9822   -3.2372 Br  0  0  0  0  0  0  0  0  0  0  0  0
    4.3401    0.7528   -1.5347 C   0  0  0  0  0  0  0  0  0  0  0  0
   -0.4644   -1.4613   -0.1459 C   0  0  0  0  0  0  0  0  0  0  0  0
    0.2414   -2.3580    0.6654 C   0  0  0  0  0  0  0  0  0  0  0  0
   -0.4389   -3.2135    1.5400 C   0  0  0  0  0  0  0  0  0  0  0  0
    0.3031   -4.0821    2.3027 O   0  0  0  0  0  0  0  0  0  0  0  0
    0.6640   -3.4545    3.5362 C   0  0  0  0  0  0  0  0  0  0  0  0
   -4.0899   -4.9315    3.2835 H   0  0  0  0  0  0  0  0  0  0  0  0
   -4.2528   -4.4566    1.5876 H   0  0  0  0  0  0  0  0  0  0  0  0
   -4.2228   -3.2089    2.8988 H   0  0  0  0  0  0  0  0  0  0  0  0
   -3.6242   -2.3087    0.8153 H   0  0  0  0  0  0  0  0  0  0  0  0
   -2.1871    1.6934   -3.2423 H   0  0  0  0  0  0  0  0  0  0  0  0
   -3.6794    1.1510   -2.4845 H   0  0  0  0  0  0  0  0  0  0  0  0
   -0.9860    3.9998   -1.9769 H   0  0  0  0  0  0  0  0  0  0  0  0
   -1.9983    5.5677    0.0283 H   0  0  0  0  0  0  0  0  0  0  0  0
   -4.1864    4.1557    0.9644 H   0  0  0  0  0  0  0  0  0  0  0  0
    1.8743   -0.1730   -2.1829 H   0  0  0  0  0  0  0  0  0  0  0  0
    2.0592   -1.5380   -1.1010 H   0  0  0  0  0  0  0  0  0  0  0  0
    3.1363    2.6331    1.0463 H   0  0  0  0  0  0  0  0  0  0  0  0
    5.1370    3.9766    0.4935 H   0  0  0  0  0  0  0  0  0  0  0  0
    6.6308    3.2809   -1.3546 H   0  0  0  0  0  0  0  0  0  0  0  0
    4.1521   -0.1511   -2.1062 H   0  0  0  0  0  0  0  0  0  0  0  0
    1.3241   -2.4053    0.6729 H   0  0  0  0  0  0  0  0  0  0  0  0
    1.5122   -2.7782    3.3710 H   0  0  0  0  0  0  0  0  0  0  0  0
    0.9835   -4.2376    4.2296 H   0  0  0  0  0  0  0  0  0  0  0  0
   -0.1720   -2.9101    3.9956 H   0  0  0  0  0  0  0  0  0  0  0  0
  1  2  1  0
  2  3  1  0
  3  4  2  0
  4  5  1  0
  5  6  1  0
  6  7  2  0
  6  8  1  0
  8  9  1  0
  9 10  1  0
 10 11  2  0
 11 12  1  0
 12 13  2  0
 13 14  1  0
  8 15  1  0
 15 16  2  0
 15 17  1  0
 17 18  1  0
 18 19  1  0
 19 20  2  0
 19 21  1  0
 21 22  2  0
 22 23  1  0
 23 24  2  0
 24 25  1  0
 25 26  1  0
 25 27  2  0
 17 28  1  0
 28 29  1  0
 29 30  2  0
 30 31  1  0
 31 32  1  0
 30  3  1  0
 28  5  2  0
 14 10  1  0
 27 21  1  0
  1 33  1  0
  1 34  1  0
  1 35  1  0
  4 36  1  0
  9 37  1  0
  9 38  1  0
 11 39  1  0
 12 40  1  0
 13 41  1  0
 18 42  1  0
 18 43  1  0
 22 44  1  0
 23 45  1  0
 24 46  1  0
 27 47  1  0
 29 48  1  0
 32 49  1  0
 32 50  1  0
 32 51  1  0
M  END
$$$$
