
     RDKit          3D

 51 53  0  0  0  0  0  0  0  0999 V2000
    5.2158   -3.0126    1.2699 C   0  0  0  0  0  0  0  0  0  0  0  0
    4.6891   -2.4225    0.0877 O   0  0  0  0  0  0  0  0  0  0  0  0
    3.3799   -2.0232    0.1154 C   0  0  0  0  0  0  0  0  0  0  0  0
    2.4578   -2.4010    1.0967 C   0  0  0  0  0  0  0  0  0  0  0  0
    1.1331   -1.9601    1.0313 C   0  0  0  0  0  0  0  0  0  0  0  0
    0.7204   -1.1460   -0.0231 C   0  0  0  0  0  0  0  0  0  0  0  0
   -0.6738   -0.6687   -0.1105 C   0  0  0  0  0  0  0  0  0  0  0  0
   -1.5469   -0.9604    0.7983 N   0  0  0  0  0  0  0  0  0  0  0  0
   -2.7931   -0.4508    0.5935 N   0  0  0  0  0  0  0  0  0  0  0  0
   -3.8098   -0.6921    1.5006 C   0  0  0  0  0  0  0  0  0  0  0  0
   -3.6802   -1.3532    2.5291 O   0  0  0  0  0  0  0  0  0  0  0  0
   -5.1411   -0.0711    1.1902 C   0  0  0  0  0  0  0  0  0  0  0  0
   -6.0810   -0.0538    2.2382 C   0  0  0  0  0  0  0  0  0  0  0  0
   -7.3456    0.5061    2.0603 C   0  0  0  0  0  0  0  0  0  0  0  0
   -7.6870    1.0601    0.8324 C   0  0  0  0  0  0  0  0  0  0  0  0
   -6.7701    1.0458   -0.2216 C   0  0  0  0  0  0  0  0  0  0  0  0
   -5.5006    0.4688   -0.0619 C   0  0  0  0  0  0  0  0  0  0  0  0
   -4.5741    0.4404   -1.0776 O   0  0  0  0  0  0  0  0  0  0  0  0
   -5.0988    0.4176   -2.4049 C   0  0  0  0  0  0  0  0  0  0  0  0
    1.6294   -0.7676   -1.0126 C   0  0  0  0  0  0  0  0  0  0  0  0
    2.9683   -1.1956   -0.9477 C   0  0  0  0  0  0  0  0  0  0  0  0
    3.9458   -0.7496   -2.0178 C   0  0  0  0  0  0  0  0  0  0  0  0
    5.0490    0.0192   -1.5177 O   0  0  0  0  0  0  0  0  0  0  0  0
    4.7725    1.1847   -0.8583 C   0  0  0  0  0  0  0  0  0  0  0  0
    3.7522    2.0798   -1.1837 C   0  0  0  0  0  0  0  0  0  0  0  0
    2.9410    1.8549   -2.2271 F   0  0  0  0  0  0  0  0  0  0  0  0
    3.5706    3.2454   -0.4424 C   0  0  0  0  0  0  0  0  0  0  0  0
    2.5798    4.0891   -0.7649 F   0  0  0  0  0  0  0  0  0  0  0  0
    4.4131    3.5396    0.6196 C   0  0  0  0  0  0  0  0  0  0  0  0
    4.2352    4.6650    1.3254 F   0  0  0  0  0  0  0  0  0  0  0  0
    5.4468    2.6734    0.9382 C   0  0  0  0  0  0  0  0  0  0  0  0
    6.2759    2.9631    1.9496 F   0  0  0  0  0  0  0  0  0  0  0  0
    5.6281    1.5072    0.2008 C   0  0  0  0  0  0  0  0  0  0  0  0
    6.6364    0.6823    0.5229 F   0  0  0  0  0  0  0  0  0  0  0  0
    4.7778   -4.0009    1.4418 H   0  0  0  0  0  0  0  0  0  0  0  0
    6.2920   -3.1465    1.1246 H   0  0  0  0  0  0  0  0  0  0  0  0
    5.0751   -2.3599    2.1383 H   0  0  0  0  0  0  0  0  0  0  0  0
    2.7334   -3.0477    1.9239 H   0  0  0  0  0  0  0  0  0  0  0  0
    0.4268   -2.2619    1.8034 H   0  0  0  0  0  0  0  0  0  0  0  0
   -0.9327   -0.0467   -0.9864 H   0  0  0  0  0  0  0  0  0  0  0  0
   -2.9931    0.0894   -0.2434 H   0  0  0  0  0  0  0  0  0  0  0  0
   -5.8251   -0.4794    3.2077 H   0  0  0  0  0  0  0  0  0  0  0  0
   -8.0577    0.5111    2.8818 H   0  0  0  0  0  0  0  0  0  0  0  0
   -8.6686    1.5074    0.6934 H   0  0  0  0  0  0  0  0  0  0  0  0
   -7.0731    1.5046   -1.1584 H   0  0  0  0  0  0  0  0  0  0  0  0
   -5.4185    1.4190   -2.7099 H   0  0  0  0  0  0  0  0  0  0  0  0
   -5.9138   -0.3076   -2.5068 H   0  0  0  0  0  0  0  0  0  0  0  0
   -4.2911    0.1068   -3.0751 H   0  0  0  0  0  0  0  0  0  0  0  0
    1.3052   -0.1317   -1.8336 H   0  0  0  0  0  0  0  0  0  0  0  0
    3.4534   -0.2207   -2.8410 H   0  0  0  0  0  0  0  0  0  0  0  0
    4.3718   -1.6493   -2.4799 H   0  0  0  0  0  0  0  0  0  0  0  0
  1  2  1  0
  2  3  1  0
  3  4  2  0
  4  5  1  0
  5  6  2  0
  6  7  1  0
  7  8  2  3
  8  9  1  0
  9 10  1  0
 10 11  2  0
 10 12  1  0
 12 13  2  0
 13 14  1  0
 14 15  2  0
 15 16  1  0
 16 17  2  0
 17 18  1  0
 18 19  1  0
  6 20  1  0
 20 21  2  0
 21 22  1  0
 22 23  1  0
 23 24  1  0
 24 25  2  0
 25 26  1  0
 25 27  1  0
 27 28  1  0
 27 29  2  0
 29 30  1  0
 29 31  1  0
 31 32  1  0
 31 33  2  0
 33 34  1  0
 21  3  1  0
 33 24  1  0
 17 12  1  0
  1 35  1  0
  1 36  1  0
  1 37  1  0
  4 38  1  0
  5 39  1  0
  7 40  1  0
  9 41  1  0
 13 42  1  0
 14 43  1  0
 15 44  1  0
 16 45  1  0
 19 46  1  0
 19 47  1  0
 19 48  1  0
 20 49  1  0
 22 50  1  0
 22 51  1  0
M  END
$$$$
