
     RDKit          3D

 36 38  0  0  0  0  0  0  0  0999 V2000
   -4.6612   -1.5724    1.3182 C   0  0  0  0  0  0  0  0  0  0  0  0
   -3.5673   -1.4241    0.3599 N   0  0  0  0  0  0  0  0  0  0  0  0
   -3.8197   -1.9624   -0.9751 C   0  0  0  0  0  0  0  0  0  0  0  0
   -2.6848   -0.3463    0.5044 C   0  0  0  0  0  0  0  0  0  0  0  0
   -2.5625    0.3608    1.7141 C   0  0  0  0  0  0  0  0  0  0  0  0
   -1.6671    1.4299    1.8739 C   0  0  0  0  0  0  0  0  0  0  0  0
   -0.8396    1.8208    0.8248 C   0  0  0  0  0  0  0  0  0  0  0  0
    0.0770    2.9520    1.0046 C   0  0  0  0  0  0  0  0  0  0  0  0
    1.4072    2.9722    0.8143 C   0  0  0  0  0  0  0  0  0  0  0  0
    2.2075    1.8616    0.4247 C   0  0  0  0  0  0  0  0  0  0  0  0
    3.0274    1.8601   -0.6073 N   0  0  0  0  0  0  0  0  0  0  0  0
    3.6834    0.6454   -0.7100 C   0  0  0  0  0  0  0  0  0  0  0  0
    4.6045    0.2863   -1.7153 C   0  0  0  0  0  0  0  0  0  0  0  0
    5.1965   -0.9808   -1.6970 C   0  0  0  0  0  0  0  0  0  0  0  0
    4.8835   -1.8894   -0.6911 C   0  0  0  0  0  0  0  0  0  0  0  0
    3.9756   -1.5556    0.3189 C   0  0  0  0  0  0  0  0  0  0  0  0
    3.3871   -0.2801    0.2892 C   0  0  0  0  0  0  0  0  0  0  0  0
    2.2584    0.4193    1.3793 S   0  0  0  0  0  0  0  0  0  0  0  0
   -0.9363    1.1402   -0.3869 C   0  0  0  0  0  0  0  0  0  0  0  0
   -1.8344    0.0719   -0.5344 C   0  0  0  0  0  0  0  0  0  0  0  0
   -4.2810   -1.7637    2.3273 H   0  0  0  0  0  0  0  0  0  0  0  0
   -5.3007   -0.6828    1.3274 H   0  0  0  0  0  0  0  0  0  0  0  0
   -5.2951   -2.4310    1.0693 H   0  0  0  0  0  0  0  0  0  0  0  0
   -2.8998   -2.3466   -1.4290 H   0  0  0  0  0  0  0  0  0  0  0  0
   -4.5107   -2.8122   -0.9357 H   0  0  0  0  0  0  0  0  0  0  0  0
   -4.2650   -1.2038   -1.6282 H   0  0  0  0  0  0  0  0  0  0  0  0
   -3.1604    0.0932    2.5797 H   0  0  0  0  0  0  0  0  0  0  0  0
   -1.6190    1.9371    2.8343 H   0  0  0  0  0  0  0  0  0  0  0  0
   -0.4126    3.8755    1.3088 H   0  0  0  0  0  0  0  0  0  0  0  0
    1.9344    3.9162    0.9165 H   0  0  0  0  0  0  0  0  0  0  0  0
    4.8449    0.9992   -2.4976 H   0  0  0  0  0  0  0  0  0  0  0  0
    5.9051   -1.2540   -2.4753 H   0  0  0  0  0  0  0  0  0  0  0  0
    5.3501   -2.8723   -0.6876 H   0  0  0  0  0  0  0  0  0  0  0  0
    3.7317   -2.2642    1.1045 H   0  0  0  0  0  0  0  0  0  0  0  0
   -0.3135    1.4236   -1.2328 H   0  0  0  0  0  0  0  0  0  0  0  0
   -1.8434   -0.4234   -1.5003 H   0  0  0  0  0  0  0  0  0  0  0  0
  1  2  1  0
  2  3  1  0
  2  4  1  0
  4  5  2  0
  5  6  1  0
  6  7  2  0
  7  8  1  0
  8  9  2  3
  9 10  1  0
 10 11  2  0
 11 12  1  0
 12 13  2  0
 13 14  1  0
 14 15  2  0
 15 16  1  0
 16 17  2  0
 17 18  1  0
  7 19  1  0
 19 20  2  0
 20  4  1  0
 18 10  1  0
 17 12  1  0
  1 21  1  0
  1 22  1  0
  1 23  1  0
  3 24  1  0
  3 25  1  0
  3 26  1  0
  5 27  1  0
  6 28  1  0
  8 29  1  0
  9 30  1  0
 13 31  1  0
 14 32  1  0
 15 33  1  0
 16 34  1  0
 19 35  1  0
 20 36  1  0
M  END
$$$$
