
     RDKit          3D

 53 55  0  0  0  0  0  0  0  0999 V2000
   -7.2243   -1.5545   -3.1862 C   0  0  0  0  0  0  0  0  0  0  0  0
   -5.9509   -1.0073   -2.8685 O   0  0  0  0  0  0  0  0  0  0  0  0
   -5.5783   -1.0221   -1.5515 C   0  0  0  0  0  0  0  0  0  0  0  0
   -4.3166   -0.4734   -1.2949 C   0  0  0  0  0  0  0  0  0  0  0  0
   -3.8086   -0.4220    0.0040 C   0  0  0  0  0  0  0  0  0  0  0  0
   -2.5464    0.1183    0.3388 N   0  0  0  0  0  0  0  0  0  0  0  0
   -1.6002    0.6533   -0.5217 C   0  0  0  0  0  0  0  0  0  0  0  0
   -1.6821    0.7329   -1.7418 O   0  0  0  0  0  0  0  0  0  0  0  0
   -0.3711    1.1341    0.2311 C   0  0  0  0  0  0  0  0  0  0  0  0
    0.6330    1.8391   -0.6738 C   0  0  0  0  0  0  0  0  0  0  0  0
    1.2504    0.8723   -1.5939 N   0  0  0  0  0  0  0  0  0  0  0  0
    2.7274    1.2693   -2.2913 S   0  0  0  0  0  6  0  0  0  0  0  0
    2.8303    2.7100   -2.3550 O   0  0  0  0  0  0  0  0  0  0  0  0
    2.8782    0.4343   -3.4612 O   0  0  0  0  0  0  0  0  0  0  0  0
    3.8643    0.6684   -1.0650 C   0  0  0  0  0  0  0  0  0  0  0  0
    4.0584   -0.7109   -0.9355 C   0  0  0  0  0  0  0  0  0  0  0  0
    4.9618   -1.1937    0.0122 C   0  0  0  0  0  0  0  0  0  0  0  0
    5.6554   -0.2966    0.8257 C   0  0  0  0  0  0  0  0  0  0  0  0
    5.4752    1.0860    0.6876 C   0  0  0  0  0  0  0  0  0  0  0  0
    4.5795    1.5714   -0.2720 C   0  0  0  0  0  0  0  0  0  0  0  0
    6.3366    2.0203    1.4911 C   0  0  0  0  0  0  0  0  0  0  0  0
    6.6888    1.4192    2.8416 C   0  0  0  0  0  0  0  0  0  0  0  0
    7.1744   -0.0067    2.7198 C   0  0  0  0  0  0  0  0  0  0  0  0
    8.0021   -0.4871    3.4907 O   0  0  0  0  0  0  0  0  0  0  0  0
    6.5621   -0.7821    1.7714 N   0  0  0  0  0  0  0  0  0  0  0  0
   -4.5842   -0.9293    1.0575 C   0  0  0  0  0  0  0  0  0  0  0  0
   -5.8442   -1.4799    0.8122 C   0  0  0  0  0  0  0  0  0  0  0  0
   -6.6894   -2.0048    1.7526 O   0  0  0  0  0  0  0  0  0  0  0  0
   -6.2449   -2.0002    3.1030 C   0  0  0  0  0  0  0  0  0  0  0  0
   -6.3361   -1.5232   -0.4949 C   0  0  0  0  0  0  0  0  0  0  0  0
   -7.3656   -1.4662   -4.2677 H   0  0  0  0  0  0  0  0  0  0  0  0
   -8.0281   -0.9930   -2.6986 H   0  0  0  0  0  0  0  0  0  0  0  0
   -7.2719   -2.6181   -2.9301 H   0  0  0  0  0  0  0  0  0  0  0  0
   -3.7554   -0.0908   -2.1418 H   0  0  0  0  0  0  0  0  0  0  0  0
   -2.3051    0.0976    1.3217 H   0  0  0  0  0  0  0  0  0  0  0  0
    0.0957    0.2707    0.7198 H   0  0  0  0  0  0  0  0  0  0  0  0
   -0.7016    1.8347    1.0071 H   0  0  0  0  0  0  0  0  0  0  0  0
    0.1448    2.6292   -1.2544 H   0  0  0  0  0  0  0  0  0  0  0  0
    1.4022    2.2945   -0.0410 H   0  0  0  0  0  0  0  0  0  0  0  0
    0.6109    0.4507   -2.2780 H   0  0  0  0  0  0  0  0  0  0  0  0
    3.5151   -1.4061   -1.5725 H   0  0  0  0  0  0  0  0  0  0  0  0
    5.1118   -2.2658    0.1073 H   0  0  0  0  0  0  0  0  0  0  0  0
    4.4527    2.6435   -0.4096 H   0  0  0  0  0  0  0  0  0  0  0  0
    5.8250    2.9772    1.6461 H   0  0  0  0  0  0  0  0  0  0  0  0
    7.2512    2.2194    0.9190 H   0  0  0  0  0  0  0  0  0  0  0  0
    5.8122    1.4113    3.5007 H   0  0  0  0  0  0  0  0  0  0  0  0
    7.4680    2.0216    3.3209 H   0  0  0  0  0  0  0  0  0  0  0  0
    6.8063   -1.7644    1.7852 H   0  0  0  0  0  0  0  0  0  0  0  0
   -4.1915   -0.8893    2.0672 H   0  0  0  0  0  0  0  0  0  0  0  0
   -6.0907   -0.9780    3.4638 H   0  0  0  0  0  0  0  0  0  0  0  0
   -5.3387   -2.6032    3.2220 H   0  0  0  0  0  0  0  0  0  0  0  0
   -7.0299   -2.4545    3.7151 H   0  0  0  0  0  0  0  0  0  0  0  0
   -7.3181   -1.9561   -0.6546 H   0  0  0  0  0  0  0  0  0  0  0  0
  1  2  1  0
  2  3  1  0
  3  4  2  0
  4  5  1  0
  5  6  1  0
  6  7  1  0
  7  8  2  0
  7  9  1  0
  9 10  1  0
 10 11  1  0
 11 12  1  0
 12 13  2  0
 12 14  2  0
 12 15  1  0
 15 16  2  0
 16 17  1  0
 17 18  2  0
 18 19  1  0
 19 20  2  0
 19 21  1  0
 21 22  1  0
 22 23  1  0
 23 24  2  0
 23 25  1  0
  5 26  2  0
 26 27  1  0
 27 28  1  0
 28 29  1  0
 27 30  2  0
 30  3  1  0
 20 15  1  0
 25 18  1  0
  1 31  1  0
  1 32  1  0
  1 33  1  0
  4 34  1  0
  6 35  1  0
  9 36  1  0
  9 37  1  0
 10 38  1  0
 10 39  1  0
 11 40  1  0
 16 41  1  0
 17 42  1  0
 20 43  1  0
 21 44  1  0
 21 45  1  0
 22 46  1  0
 22 47  1  0
 25 48  1  0
 26 49  1  0
 29 50  1  0
 29 51  1  0
 29 52  1  0
 30 53  1  0
M  END
$$$$
