
     RDKit          3D

 44 46  0  0  0  0  0  0  0  0999 V2000
   -0.9340   -0.3168   -2.7370 C   0  0  0  0  0  0  0  0  0  0  0  0
   -2.0345   -0.0595   -1.7492 C   0  0  0  0  0  0  0  0  0  0  0  0
   -3.3549    0.0910   -2.1884 C   0  0  0  0  0  0  0  0  0  0  0  0
   -4.3920    0.2975   -1.2739 C   0  0  0  0  0  0  0  0  0  0  0  0
   -4.1377    0.3378    0.1039 C   0  0  0  0  0  0  0  0  0  0  0  0
   -5.2521    0.5301    1.1180 C   0  0  0  0  0  0  0  0  0  0  0  0
   -6.3181   -0.5638    1.0081 C   0  0  0  0  0  0  0  0  0  0  0  0
   -5.8815    1.9207    0.9973 C   0  0  0  0  0  0  0  0  0  0  0  0
   -2.8143    0.1872    0.5437 C   0  0  0  0  0  0  0  0  0  0  0  0
   -1.7754    0.0095   -0.3752 C   0  0  0  0  0  0  0  0  0  0  0  0
   -0.4860   -0.1710    0.0552 O   0  0  0  0  0  0  0  0  0  0  0  0
    0.0131    1.0014    0.7070 C   0  0  0  0  0  0  0  0  0  0  0  0
    1.5360    0.9361    0.8520 C   0  0  0  0  0  0  0  0  0  0  0  0
    2.1529    1.8833    1.3312 O   0  0  0  0  0  0  0  0  0  0  0  0
    2.0622   -0.2554    0.4098 N   0  0  0  0  0  0  0  0  0  0  0  0
    3.3780   -0.6344    0.3936 C   0  0  0  0  0  0  0  0  0  0  0  0
    3.7629   -1.8127   -0.0476 N   0  0  0  0  0  0  0  0  0  0  0  0
    5.1335   -1.9761    0.0322 N   0  0  0  0  0  0  0  0  0  0  0  0
    5.7160   -0.9049    0.5212 C   0  0  0  0  0  0  0  0  0  0  0  0
    7.2596   -0.8019    0.7237 C   0  0  0  0  0  0  0  0  0  0  0  0
    8.0958   -0.2005   -0.3783 C   0  0  0  0  0  0  0  0  0  0  0  0
    8.1821   -1.6719   -0.0917 C   0  0  0  0  0  0  0  0  0  0  0  0
    4.6500    0.3664    0.9274 S   0  0  0  0  0  0  0  0  0  0  0  0
   -1.2769   -0.1683   -3.7665 H   0  0  0  0  0  0  0  0  0  0  0  0
   -0.0973    0.3687   -2.5708 H   0  0  0  0  0  0  0  0  0  0  0  0
   -0.5794   -1.3479   -2.6421 H   0  0  0  0  0  0  0  0  0  0  0  0
   -3.5904    0.0429   -3.2492 H   0  0  0  0  0  0  0  0  0  0  0  0
   -5.4060    0.4127   -1.6514 H   0  0  0  0  0  0  0  0  0  0  0  0
   -4.8230    0.4545    2.1262 H   0  0  0  0  0  0  0  0  0  0  0  0
   -5.8672   -1.5599    1.0870 H   0  0  0  0  0  0  0  0  0  0  0  0
   -7.0546   -0.4647    1.8130 H   0  0  0  0  0  0  0  0  0  0  0  0
   -6.8591   -0.5152    0.0569 H   0  0  0  0  0  0  0  0  0  0  0  0
   -5.1243    2.7058    1.1123 H   0  0  0  0  0  0  0  0  0  0  0  0
   -6.3679    2.0665    0.0259 H   0  0  0  0  0  0  0  0  0  0  0  0
   -6.6382    2.0690    1.7767 H   0  0  0  0  0  0  0  0  0  0  0  0
   -2.5961    0.1871    1.6078 H   0  0  0  0  0  0  0  0  0  0  0  0
   -0.2183    1.9009    0.1225 H   0  0  0  0  0  0  0  0  0  0  0  0
   -0.4058    1.0812    1.7155 H   0  0  0  0  0  0  0  0  0  0  0  0
    1.4158   -0.9465    0.0442 H   0  0  0  0  0  0  0  0  0  0  0  0
    7.5585   -0.6007    1.7474 H   0  0  0  0  0  0  0  0  0  0  0  0
    8.9338    0.4247   -0.0932 H   0  0  0  0  0  0  0  0  0  0  0  0
    7.6089    0.1011   -1.3000 H   0  0  0  0  0  0  0  0  0  0  0  0
    9.0779   -2.0468    0.3892 H   0  0  0  0  0  0  0  0  0  0  0  0
    7.7482   -2.3571   -0.8116 H   0  0  0  0  0  0  0  0  0  0  0  0
  1  2  1  0
  2  3  2  0
  3  4  1  0
  4  5  2  0
  5  6  1  0
  6  7  1  0
  6  8  1  0
  5  9  1  0
  9 10  2  0
 10 11  1  0
 11 12  1  0
 12 13  1  0
 13 14  2  0
 13 15  1  0
 15 16  1  0
 16 17  2  0
 17 18  1  0
 18 19  2  0
 19 20  1  0
 20 21  1  0
 21 22  1  0
 19 23  1  0
 10  2  1  0
 23 16  1  0
 22 20  1  0
  1 24  1  0
  1 25  1  0
  1 26  1  0
  3 27  1  0
  4 28  1  0
  6 29  1  0
  7 30  1  0
  7 31  1  0
  7 32  1  0
  8 33  1  0
  8 34  1  0
  8 35  1  0
  9 36  1  0
 12 37  1  0
 12 38  1  0
 15 39  1  0
 20 40  1  0
 21 41  1  0
 21 42  1  0
 22 43  1  0
 22 44  1  0
M  END
$$$$
