
     RDKit          3D

 38 39  0  0  0  0  0  0  0  0999 V2000
   -0.2232   -1.6871    0.0114 O   0  0  0  0  0  0  0  0  0  0  0  0
   -0.1773   -0.6292    0.6245 C   0  0  0  0  0  0  0  0  0  0  0  0
   -1.3804    0.0103    1.2104 C   0  0  0  0  0  0  0  0  0  0  0  0
   -2.5983   -0.4499    0.8874 C   0  0  0  0  0  0  0  0  0  0  0  0
   -3.8355    0.1126    1.4412 C   0  0  0  0  0  0  0  0  0  0  0  0
   -4.6252   -0.7274    2.2393 C   0  0  0  0  0  0  0  0  0  0  0  0
   -5.8296   -0.2717    2.7899 C   0  0  0  0  0  0  0  0  0  0  0  0
   -6.2723    1.0293    2.5469 C   0  0  0  0  0  0  0  0  0  0  0  0
   -5.5128    1.8822    1.7499 C   0  0  0  0  0  0  0  0  0  0  0  0
   -4.3074    1.4137    1.2096 C   0  0  0  0  0  0  0  0  0  0  0  0
   -3.5624    2.3263    0.3707 N   0  0  0  0  0  4  0  0  0  0  0  0
   -2.6274    2.9426    0.9017 O   0  0  0  0  0  0  0  0  0  0  0  0
   -3.9373    2.4459   -0.8024 O   0  0  0  0  0  1  0  0  0  0  0  0
    0.9671    0.0993    0.8332 N   0  0  0  0  0  0  0  0  0  0  0  0
    2.2404   -0.3246    0.2822 C   0  0  0  0  0  0  0  0  0  0  0  0
    2.3666    0.0090   -1.2064 C   0  0  0  0  0  0  0  0  0  0  0  0
    3.7065   -0.4088   -1.7607 C   0  0  0  0  0  0  0  0  0  0  0  0
    3.9109   -1.7304   -2.1870 C   0  0  0  0  0  0  0  0  0  0  0  0
    5.1533   -2.1264   -2.6833 C   0  0  0  0  0  0  0  0  0  0  0  0
    6.1897   -1.2036   -2.7502 C   0  0  0  0  0  0  0  0  0  0  0  0
    7.3828   -1.5842   -3.2257 F   0  0  0  0  0  0  0  0  0  0  0  0
    6.0082    0.1084   -2.3292 C   0  0  0  0  0  0  0  0  0  0  0  0
    4.7666    0.5073   -1.8321 C   0  0  0  0  0  0  0  0  0  0  0  0
   -1.2352    0.8333    1.8992 H   0  0  0  0  0  0  0  0  0  0  0  0
   -2.7158   -1.2973    0.2130 H   0  0  0  0  0  0  0  0  0  0  0  0
   -4.3084   -1.7497    2.4436 H   0  0  0  0  0  0  0  0  0  0  0  0
   -6.4259   -0.9398    3.4085 H   0  0  0  0  0  0  0  0  0  0  0  0
   -7.2116    1.3726    2.9751 H   0  0  0  0  0  0  0  0  0  0  0  0
   -5.8605    2.8932    1.5503 H   0  0  0  0  0  0  0  0  0  0  0  0
    0.9108    1.0166    1.2557 H   0  0  0  0  0  0  0  0  0  0  0  0
    2.3482   -1.4035    0.4459 H   0  0  0  0  0  0  0  0  0  0  0  0
    3.0228    0.1795    0.8603 H   0  0  0  0  0  0  0  0  0  0  0  0
    1.5693   -0.4789   -1.7813 H   0  0  0  0  0  0  0  0  0  0  0  0
    2.2206    1.0859   -1.3615 H   0  0  0  0  0  0  0  0  0  0  0  0
    3.1007   -2.4559   -2.1344 H   0  0  0  0  0  0  0  0  0  0  0  0
    5.3177   -3.1458   -3.0168 H   0  0  0  0  0  0  0  0  0  0  0  0
    6.8331    0.8106   -2.3913 H   0  0  0  0  0  0  0  0  0  0  0  0
    4.6311    1.5355   -1.5043 H   0  0  0  0  0  0  0  0  0  0  0  0
  1  2  2  0
  2  3  1  0
  3  4  2  3
  4  5  1  0
  5  6  2  0
  6  7  1  0
  7  8  2  0
  8  9  1  0
  9 10  2  0
 10 11  1  0
 11 12  2  0
 11 13  1  0
  2 14  1  0
 14 15  1  0
 15 16  1  0
 16 17  1  0
 17 18  2  0
 18 19  1  0
 19 20  2  0
 20 21  1  0
 20 22  1  0
 22 23  2  0
 10  5  1  0
 23 17  1  0
  3 24  1  0
  4 25  1  0
  6 26  1  0
  7 27  1  0
  8 28  1  0
  9 29  1  0
 14 30  1  0
 15 31  1  0
 15 32  1  0
 16 33  1  0
 16 34  1  0
 18 35  1  0
 19 36  1  0
 22 37  1  0
 23 38  1  0
M  CHG  2  11   1  13  -1
M  END
$$$$
