
     RDKit          3D

 57 61  0  0  0  0  0  0  0  0999 V2000
   -7.7950   -0.7501   -2.0733 C   0  0  0  0  0  0  0  0  0  0  0  0
   -6.8646   -0.7033   -0.8983 C   0  0  0  0  0  0  0  0  0  0  0  0
   -7.1073    0.1690    0.1695 C   0  0  0  0  0  0  0  0  0  0  0  0
   -6.2099    0.2467    1.2366 C   0  0  0  0  0  0  0  0  0  0  0  0
   -5.0503   -0.5438    1.2559 C   0  0  0  0  0  0  0  0  0  0  0  0
   -4.0540   -0.4131    2.3814 C   0  0  0  0  0  0  0  0  0  0  0  0
   -3.0949    0.6385    2.1055 N   0  0  0  0  0  0  0  0  0  0  0  0
   -3.3486    1.9279    2.4519 N   0  0  0  0  0  0  0  0  0  0  0  0
   -2.3225    2.6711    2.0313 N   0  0  0  0  0  0  0  0  0  0  0  0
   -1.4255    1.8278    1.4461 C   0  0  0  0  0  0  0  0  0  0  0  0
   -0.1581    2.0854    0.8130 C   0  0  0  0  0  0  0  0  0  0  0  0
    0.3546    3.1916    0.6649 O   0  0  0  0  0  0  0  0  0  0  0  0
    0.4509    0.9156    0.3613 N   0  0  0  0  0  0  0  0  0  0  0  0
   -0.1068   -0.3511    0.4893 C   0  0  0  0  0  0  0  0  0  0  0  0
    0.7087   -1.5231   -0.0403 C   0  0  0  0  0  0  0  0  0  0  0  0
    1.9636   -1.7485    0.8093 C   0  0  0  0  0  0  0  0  0  0  0  0
    3.1881   -0.9337    0.3938 C   0  0  0  0  0  0  0  0  0  0  0  0
    3.3076   -0.7591   -1.0840 N   0  0  0  0  0  0  0  0  0  0  0  0
    4.9316   -0.7131   -1.6804 S   0  0  0  0  0  6  0  0  0  0  0  0
    5.6407   -1.8535   -1.1366 O   0  0  0  0  0  0  0  0  0  0  0  0
    4.8478   -0.5272   -3.1165 O   0  0  0  0  0  0  0  0  0  0  0  0
    5.5878    0.7815   -1.0104 C   0  0  0  0  0  0  0  0  0  0  0  0
    5.6091    1.9368   -1.8041 C   0  0  0  0  0  0  0  0  0  0  0  0
    6.2189    3.1001   -1.3238 C   0  0  0  0  0  0  0  0  0  0  0  0
    6.8175    3.1062   -0.0624 C   0  0  0  0  0  0  0  0  0  0  0  0
    6.7885    1.9570    0.7277 C   0  0  0  0  0  0  0  0  0  0  0  0
    6.1736    0.7981    0.2493 C   0  0  0  0  0  0  0  0  0  0  0  0
    6.1509   -0.2720    1.0512 F   0  0  0  0  0  0  0  0  0  0  0  0
    2.4517   -1.6953   -1.8642 C   0  0  0  0  0  0  0  0  0  0  0  0
    0.9959   -1.3949   -1.5383 C   0  0  0  0  0  0  0  0  0  0  0  0
   -1.2605   -0.5933    1.0517 N   0  0  0  0  0  0  0  0  0  0  0  0
   -1.8728    0.5290    1.5031 C   0  0  0  0  0  0  0  0  0  0  0  0
   -4.8055   -1.4129    0.1827 C   0  0  0  0  0  0  0  0  0  0  0  0
   -5.7053   -1.4904   -0.8841 C   0  0  0  0  0  0  0  0  0  0  0  0
   -7.3499   -0.2225   -2.9217 H   0  0  0  0  0  0  0  0  0  0  0  0
   -7.9951   -1.7868   -2.3635 H   0  0  0  0  0  0  0  0  0  0  0  0
   -8.7571   -0.2829   -1.8371 H   0  0  0  0  0  0  0  0  0  0  0  0
   -7.9883    0.8063    0.1720 H   0  0  0  0  0  0  0  0  0  0  0  0
   -6.4088    0.9512    2.0448 H   0  0  0  0  0  0  0  0  0  0  0  0
   -3.5073   -1.3511    2.5337 H   0  0  0  0  0  0  0  0  0  0  0  0
   -4.5560   -0.1777    3.3278 H   0  0  0  0  0  0  0  0  0  0  0  0
    1.3222    1.0568   -0.1321 H   0  0  0  0  0  0  0  0  0  0  0  0
    0.0757   -2.4129    0.0996 H   0  0  0  0  0  0  0  0  0  0  0  0
    1.7532   -1.5568    1.8718 H   0  0  0  0  0  0  0  0  0  0  0  0
    2.2317   -2.8146    0.7464 H   0  0  0  0  0  0  0  0  0  0  0  0
    4.0684   -1.4295    0.8162 H   0  0  0  0  0  0  0  0  0  0  0  0
    3.1336    0.0672    0.8407 H   0  0  0  0  0  0  0  0  0  0  0  0
    5.1698    1.9358   -2.8026 H   0  0  0  0  0  0  0  0  0  0  0  0
    6.2492    3.9920   -1.9440 H   0  0  0  0  0  0  0  0  0  0  0  0
    7.3120    4.0065    0.3033 H   0  0  0  0  0  0  0  0  0  0  0  0
    7.2412    1.9586    1.7167 H   0  0  0  0  0  0  0  0  0  0  0  0
    2.5881   -1.5380   -2.9387 H   0  0  0  0  0  0  0  0  0  0  0  0
    2.7082   -2.7371   -1.6396 H   0  0  0  0  0  0  0  0  0  0  0  0
    0.7401   -0.3949   -1.9125 H   0  0  0  0  0  0  0  0  0  0  0  0
    0.3522   -2.0899   -2.0953 H   0  0  0  0  0  0  0  0  0  0  0  0
   -3.9015   -2.0219    0.1616 H   0  0  0  0  0  0  0  0  0  0  0  0
   -5.4878   -2.1616   -1.7140 H   0  0  0  0  0  0  0  0  0  0  0  0
  1  2  1  0
  2  3  2  0
  3  4  1  0
  4  5  2  0
  5  6  1  0
  6  7  1  0
  7  8  1  0
  8  9  2  0
  9 10  1  0
 10 11  1  0
 11 12  2  0
 11 13  1  0
 13 14  1  0
 14 15  1  0
 15 16  1  0
 16 17  1  0
 17 18  1  0
 18 19  1  0
 19 20  2  0
 19 21  2  0
 19 22  1  0
 22 23  2  0
 23 24  1  0
 24 25  2  0
 25 26  1  0
 26 27  2  0
 27 28  1  0
 18 29  1  0
 29 30  1  0
 14 31  2  0
 31 32  1  0
  5 33  1  0
 33 34  2  0
 34  2  1  0
 32  7  1  0
 32 10  2  0
 30 15  1  0
 27 22  1  0
  1 35  1  0
  1 36  1  0
  1 37  1  0
  3 38  1  0
  4 39  1  0
  6 40  1  0
  6 41  1  0
 13 42  1  0
 15 43  1  0
 16 44  1  0
 16 45  1  0
 17 46  1  0
 17 47  1  0
 23 48  1  0
 24 49  1  0
 25 50  1  0
 26 51  1  0
 29 52  1  0
 29 53  1  0
 30 54  1  0
 30 55  1  0
 33 56  1  0
 34 57  1  0
M  END
$$$$
