
     RDKit          3D

 60 63  0  0  0  0  0  0  0  0999 V2000
   -5.4551    4.4878   -4.1540 C   0  0  0  0  0  0  0  0  0  0  0  0
   -5.1920    3.9490   -2.7789 C   0  0  0  0  0  0  0  0  0  0  0  0
   -4.6730    4.7703   -1.7964 C   0  0  0  0  0  0  0  0  0  0  0  0
   -4.4577    4.1988   -0.5571 C   0  0  0  0  0  0  0  0  0  0  0  0
   -3.8870    5.0161    0.5627 C   0  0  0  0  0  0  0  0  0  0  0  0
   -4.7301    2.9044   -0.3027 N   0  0  0  0  0  0  0  0  0  0  0  0
   -5.2146    2.1851   -1.3274 C   0  0  0  0  0  0  0  0  0  0  0  0
   -5.4997    0.4649   -1.0252 S   0  0  0  0  0  0  0  0  0  0  0  0
   -4.1770   -0.1905   -2.0760 C   0  0  0  0  0  0  0  0  0  0  0  0
   -2.8082    0.2563   -1.6868 C   0  0  0  0  0  0  0  0  0  0  0  0
   -2.0387    1.0457   -2.4140 N   0  0  0  0  0  0  0  0  0  0  0  0
   -0.8426    1.2026   -1.7660 N   0  0  0  0  0  0  0  0  0  0  0  0
   -0.8943    0.5046   -0.6581 C   0  0  0  0  0  0  0  0  0  0  0  0
    0.3845    0.3498    0.4943 S   0  0  0  0  0  0  0  0  0  0  0  0
    1.7204    1.2207   -0.3853 C   0  0  0  0  0  0  0  0  0  0  0  0
    3.0427    1.0302    0.3441 C   0  0  0  0  0  0  0  0  0  0  0  0
    3.7034    1.9986    0.7114 O   0  0  0  0  0  0  0  0  0  0  0  0
    3.4007   -0.3043    0.4705 N   0  0  0  0  0  0  0  0  0  0  0  0
    4.5690   -0.8389    1.0479 C   0  0  0  0  0  0  0  0  0  0  0  0
    5.6178   -0.0694    1.5406 C   0  0  0  0  0  0  0  0  0  0  0  0
    6.7452   -0.6839    2.0952 C   0  0  0  0  0  0  0  0  0  0  0  0
    6.8486   -2.0795    2.1677 C   0  0  0  0  0  0  0  0  0  0  0  0
    8.0747   -2.6977    2.7807 C   0  0  0  0  0  0  0  0  0  0  0  0
    5.7918   -2.8672    1.6771 C   0  0  0  0  0  0  0  0  0  0  0  0
    5.8445   -4.3693    1.7290 C   0  0  0  0  0  0  0  0  0  0  0  0
    4.6659   -2.2352    1.1184 C   0  0  0  0  0  0  0  0  0  0  0  0
   -2.1125   -0.1124   -0.5512 N   0  0  0  0  0  0  0  0  0  0  0  0
   -2.5794   -0.9555    0.5322 C   0  0  0  0  0  0  0  0  0  0  0  0
   -2.5110   -2.3906    0.1646 C   0  0  0  0  0  0  0  0  0  0  0  0
   -3.4679   -3.3710   -0.0025 C   0  0  0  0  0  0  0  0  0  0  0  0
   -2.7712   -4.5526   -0.3500 C   0  0  0  0  0  0  0  0  0  0  0  0
   -1.4368   -4.2221   -0.3644 C   0  0  0  0  0  0  0  0  0  0  0  0
   -1.2685   -2.9135   -0.0477 O   0  0  0  0  0  0  0  0  0  0  0  0
   -5.4761    2.6510   -2.5581 N   0  0  0  0  0  0  0  0  0  0  0  0
   -5.8476    3.7049   -4.8111 H   0  0  0  0  0  0  0  0  0  0  0  0
   -4.5296    4.8696   -4.5950 H   0  0  0  0  0  0  0  0  0  0  0  0
   -6.1931    5.2957   -4.1073 H   0  0  0  0  0  0  0  0  0  0  0  0
   -4.4415    5.8102   -1.9897 H   0  0  0  0  0  0  0  0  0  0  0  0
   -2.8817    5.3618    0.3030 H   0  0  0  0  0  0  0  0  0  0  0  0
   -4.5251    5.8824    0.7643 H   0  0  0  0  0  0  0  0  0  0  0  0
   -3.8178    4.4243    1.4812 H   0  0  0  0  0  0  0  0  0  0  0  0
   -4.3751    0.0968   -3.1146 H   0  0  0  0  0  0  0  0  0  0  0  0
   -4.2307   -1.2832   -2.0487 H   0  0  0  0  0  0  0  0  0  0  0  0
    1.8345    0.8378   -1.4051 H   0  0  0  0  0  0  0  0  0  0  0  0
    1.4908    2.2905   -0.4323 H   0  0  0  0  0  0  0  0  0  0  0  0
    2.7043   -0.9767    0.1693 H   0  0  0  0  0  0  0  0  0  0  0  0
    5.5941    1.0150    1.5103 H   0  0  0  0  0  0  0  0  0  0  0  0
    7.5471   -0.0526    2.4730 H   0  0  0  0  0  0  0  0  0  0  0  0
    7.8093   -3.2340    3.6972 H   0  0  0  0  0  0  0  0  0  0  0  0
    8.5480   -3.3894    2.0764 H   0  0  0  0  0  0  0  0  0  0  0  0
    8.8198   -1.9388    3.0433 H   0  0  0  0  0  0  0  0  0  0  0  0
    6.6660   -4.7406    1.1084 H   0  0  0  0  0  0  0  0  0  0  0  0
    5.9808   -4.7117    2.7595 H   0  0  0  0  0  0  0  0  0  0  0  0
    4.9177   -4.8178    1.3559 H   0  0  0  0  0  0  0  0  0  0  0  0
    3.8537   -2.8503    0.7373 H   0  0  0  0  0  0  0  0  0  0  0  0
   -3.6011   -0.6611    0.7813 H   0  0  0  0  0  0  0  0  0  0  0  0
   -1.9843   -0.7644    1.4295 H   0  0  0  0  0  0  0  0  0  0  0  0
   -4.5362   -3.2485    0.1117 H   0  0  0  0  0  0  0  0  0  0  0  0
   -3.1884   -5.5272   -0.5606 H   0  0  0  0  0  0  0  0  0  0  0  0
   -0.5298   -4.7749   -0.5671 H   0  0  0  0  0  0  0  0  0  0  0  0
  1  2  1  0
  2  3  2  0
  3  4  1  0
  4  5  1  0
  4  6  2  0
  6  7  1  0
  7  8  1  0
  8  9  1  0
  9 10  1  0
 10 11  2  0
 11 12  1  0
 12 13  2  0
 13 14  1  0
 14 15  1  0
 15 16  1  0
 16 17  2  0
 16 18  1  0
 18 19  1  0
 19 20  2  0
 20 21  1  0
 21 22  2  0
 22 23  1  0
 22 24  1  0
 24 25  1  0
 24 26  2  0
 13 27  1  0
 27 28  1  0
 28 29  1  0
 29 30  2  0
 30 31  1  0
 31 32  2  0
 32 33  1  0
  7 34  2  0
 34  2  1  0
 27 10  1  0
 33 29  1  0
 26 19  1  0
  1 35  1  0
  1 36  1  0
  1 37  1  0
  3 38  1  0
  5 39  1  0
  5 40  1  0
  5 41  1  0
  9 42  1  0
  9 43  1  0
 15 44  1  0
 15 45  1  0
 18 46  1  0
 20 47  1  0
 21 48  1  0
 23 49  1  0
 23 50  1  0
 23 51  1  0
 25 52  1  0
 25 53  1  0
 25 54  1  0
 26 55  1  0
 28 56  1  0
 28 57  1  0
 30 58  1  0
 31 59  1  0
 32 60  1  0
M  END
$$$$
