
     RDKit          3D

 46 48  0  0  0  0  0  0  0  0999 V2000
    1.8442   -2.6059    1.2174 C   0  0  0  0  0  0  0  0  0  0  0  0
    2.1442   -1.2978    0.5206 C   0  0  0  0  0  0  0  0  0  0  0  0
    3.5667   -1.0827    0.1187 C   0  0  0  0  0  0  0  0  0  0  0  0
    4.0456    0.1602   -0.0393 C   0  0  0  0  0  0  0  0  0  0  0  0
    5.4255    0.4622   -0.4415 C   0  0  0  0  0  0  0  0  0  0  0  0
    6.5236   -0.2692    0.0309 C   0  0  0  0  0  0  0  0  0  0  0  0
    7.8231    0.0704   -0.3553 C   0  0  0  0  0  0  0  0  0  0  0  0
    8.0378    1.1494   -1.2104 C   0  0  0  0  0  0  0  0  0  0  0  0
    6.9549    1.8925   -1.6763 C   0  0  0  0  0  0  0  0  0  0  0  0
    5.6562    1.5536   -1.2890 C   0  0  0  0  0  0  0  0  0  0  0  0
    1.2472   -0.3941    0.2509 N   0  0  0  0  0  0  0  0  0  0  0  0
   -0.0480   -0.6104    0.6079 N   0  0  0  0  0  0  0  0  0  0  0  0
   -1.0096    0.3439    0.3341 C   0  0  0  0  0  0  0  0  0  0  0  0
   -0.8319    1.4414   -0.1770 O   0  0  0  0  0  0  0  0  0  0  0  0
   -2.3757   -0.0530    0.7682 C   0  0  0  0  0  0  0  0  0  0  0  0
   -2.9697   -1.3979    0.4382 C   0  0  0  0  0  0  0  0  0  0  0  0
   -3.5131   -0.1619   -0.2526 C   0  0  0  0  0  0  0  0  0  0  0  0
   -3.2088   -0.0029   -1.7257 C   0  0  0  0  0  0  0  0  0  0  0  0
   -4.8749    0.3788    0.1636 C   0  0  0  0  0  0  0  0  0  0  0  0
   -6.0155   -0.4414    0.1981 C   0  0  0  0  0  0  0  0  0  0  0  0
   -7.2649    0.0634    0.5689 C   0  0  0  0  0  0  0  0  0  0  0  0
   -7.4007    1.4072    0.9073 C   0  0  0  0  0  0  0  0  0  0  0  0
   -6.2895    2.2445    0.8712 C   0  0  0  0  0  0  0  0  0  0  0  0
   -5.0426    1.7333    0.5011 C   0  0  0  0  0  0  0  0  0  0  0  0
    2.7515   -3.1998    1.3579 H   0  0  0  0  0  0  0  0  0  0  0  0
    1.4105   -2.4069    2.2017 H   0  0  0  0  0  0  0  0  0  0  0  0
    1.1395   -3.1882    0.6169 H   0  0  0  0  0  0  0  0  0  0  0  0
    4.1757   -1.9655   -0.0341 H   0  0  0  0  0  0  0  0  0  0  0  0
    3.3933    1.0227    0.0981 H   0  0  0  0  0  0  0  0  0  0  0  0
    6.3843   -1.1020    0.7158 H   0  0  0  0  0  0  0  0  0  0  0  0
    8.6677   -0.5028    0.0181 H   0  0  0  0  0  0  0  0  0  0  0  0
    9.0484    1.4151   -1.5092 H   0  0  0  0  0  0  0  0  0  0  0  0
    7.1188    2.7393   -2.3384 H   0  0  0  0  0  0  0  0  0  0  0  0
    4.8229    2.1457   -1.6615 H   0  0  0  0  0  0  0  0  0  0  0  0
   -0.3160   -1.4680    1.0705 H   0  0  0  0  0  0  0  0  0  0  0  0
   -2.6340    0.3675    1.7369 H   0  0  0  0  0  0  0  0  0  0  0  0
   -2.3984   -2.0999   -0.1602 H   0  0  0  0  0  0  0  0  0  0  0  0
   -3.5724   -1.8764    1.2028 H   0  0  0  0  0  0  0  0  0  0  0  0
   -3.9961   -0.4663   -2.3310 H   0  0  0  0  0  0  0  0  0  0  0  0
   -3.1502    1.0575   -1.9928 H   0  0  0  0  0  0  0  0  0  0  0  0
   -2.2617   -0.4747   -2.0073 H   0  0  0  0  0  0  0  0  0  0  0  0
   -5.9302   -1.4906   -0.0747 H   0  0  0  0  0  0  0  0  0  0  0  0
   -8.1310   -0.5928    0.5886 H   0  0  0  0  0  0  0  0  0  0  0  0
   -8.3719    1.8030    1.1913 H   0  0  0  0  0  0  0  0  0  0  0  0
   -6.3900    3.2971    1.1233 H   0  0  0  0  0  0  0  0  0  0  0  0
   -4.1844    2.4026    0.4670 H   0  0  0  0  0  0  0  0  0  0  0  0
  1  2  1  0
  2  3  1  0
  3  4  2  3
  4  5  1  0
  5  6  2  0
  6  7  1  0
  7  8  2  0
  8  9  1  0
  9 10  2  0
  2 11  2  3
 11 12  1  0
 12 13  1  0
 13 14  2  0
 13 15  1  0
 15 16  1  0
 16 17  1  0
 17 18  1  0
 17 19  1  0
 19 20  2  0
 20 21  1  0
 21 22  2  0
 22 23  1  0
 23 24  2  0
 10  5  1  0
 17 15  1  0
 24 19  1  0
  1 25  1  0
  1 26  1  0
  1 27  1  0
  3 28  1  0
  4 29  1  0
  6 30  1  0
  7 31  1  0
  8 32  1  0
  9 33  1  0
 10 34  1  0
 12 35  1  0
 15 36  1  0
 16 37  1  0
 16 38  1  0
 18 39  1  0
 18 40  1  0
 18 41  1  0
 20 42  1  0
 21 43  1  0
 22 44  1  0
 23 45  1  0
 24 46  1  0
M  END
$$$$
