
     RDKit          3D

 61 64  0  0  0  0  0  0  0  0999 V2000
   -9.9004    0.4535   -0.4904 C   0  0  0  0  0  0  0  0  0  0  0  0
   -8.6791    1.0229   -0.0337 O   0  0  0  0  0  0  0  0  0  0  0  0
   -7.5169    0.4411   -0.4595 C   0  0  0  0  0  0  0  0  0  0  0  0
   -7.4150   -0.7248   -1.2249 C   0  0  0  0  0  0  0  0  0  0  0  0
   -6.1587   -1.2138   -1.5985 C   0  0  0  0  0  0  0  0  0  0  0  0
   -5.9222   -2.3343   -2.3507 O   0  0  0  0  0  0  0  0  0  0  0  0
   -7.0577   -3.0313   -2.8486 C   0  0  0  0  0  0  0  0  0  0  0  0
   -5.0026   -0.5403   -1.1946 C   0  0  0  0  0  0  0  0  0  0  0  0
   -5.0973    0.6147   -0.4124 C   0  0  0  0  0  0  0  0  0  0  0  0
   -3.8926    1.3598    0.0421 C   0  0  0  0  0  0  0  0  0  0  0  0
   -3.9558    2.5792    0.1561 O   0  0  0  0  0  0  0  0  0  0  0  0
   -2.7834    0.5759    0.3255 N   0  0  0  0  0  0  0  0  0  0  0  0
   -1.6502    1.1600    0.8082 N   0  0  0  0  0  0  0  0  0  0  0  0
   -0.6718    0.3557    1.0746 C   0  0  0  0  0  0  0  0  0  0  0  0
    0.6043    0.8498    1.6279 C   0  0  0  0  0  0  0  0  0  0  0  0
    0.7957    2.2075    1.8791 C   0  0  0  0  0  0  0  0  0  0  0  0
    2.0023    2.6532    2.4250 C   0  0  0  0  0  0  0  0  0  0  0  0
    3.0272    1.7464    2.7196 C   0  0  0  0  0  0  0  0  0  0  0  0
    4.2356    2.0929    3.2649 O   0  0  0  0  0  0  0  0  0  0  0  0
    4.4261    3.4561    3.6228 C   0  0  0  0  0  0  0  0  0  0  0  0
    2.8464    0.3760    2.4459 C   0  0  0  0  0  0  0  0  0  0  0  0
    3.9292   -0.6331    2.7784 C   0  0  0  0  0  0  0  0  0  0  0  0
    3.9356   -1.7534    1.8842 O   0  0  0  0  0  0  0  0  0  0  0  0
    4.6560   -1.6511    0.7251 C   0  0  0  0  0  0  0  0  0  0  0  0
    4.7973   -2.8487    0.0237 C   0  0  0  0  0  0  0  0  0  0  0  0
    5.5032   -2.8904   -1.1806 C   0  0  0  0  0  0  0  0  0  0  0  0
    6.0787   -1.7269   -1.7095 C   0  0  0  0  0  0  0  0  0  0  0  0
    6.7962   -1.7470   -2.9170 C   0  0  0  0  0  0  0  0  0  0  0  0
    7.3615   -0.5784   -3.4296 C   0  0  0  0  0  0  0  0  0  0  0  0
    7.2146    0.6238   -2.7439 C   0  0  0  0  0  0  0  0  0  0  0  0
    6.5033    0.6595   -1.5431 C   0  0  0  0  0  0  0  0  0  0  0  0
    5.9311   -0.5074   -1.0103 C   0  0  0  0  0  0  0  0  0  0  0  0
    5.2162   -0.4845    0.2020 C   0  0  0  0  0  0  0  0  0  0  0  0
    1.6199   -0.0639    1.9124 C   0  0  0  0  0  0  0  0  0  0  0  0
   -6.3571    1.1072   -0.0590 C   0  0  0  0  0  0  0  0  0  0  0  0
   -9.9666    0.4833   -1.5832 H   0  0  0  0  0  0  0  0  0  0  0  0
  -10.7210    1.0571   -0.0911 H   0  0  0  0  0  0  0  0  0  0  0  0
  -10.0251   -0.5674   -0.1143 H   0  0  0  0  0  0  0  0  0  0  0  0
   -8.3116   -1.2482   -1.5303 H   0  0  0  0  0  0  0  0  0  0  0  0
   -6.6958   -3.8696   -3.4523 H   0  0  0  0  0  0  0  0  0  0  0  0
   -7.6555   -3.4443   -2.0293 H   0  0  0  0  0  0  0  0  0  0  0  0
   -7.6637   -2.3902   -3.4987 H   0  0  0  0  0  0  0  0  0  0  0  0
   -4.0382   -0.9157   -1.5268 H   0  0  0  0  0  0  0  0  0  0  0  0
   -2.8368   -0.4347    0.2895 H   0  0  0  0  0  0  0  0  0  0  0  0
   -0.7516   -0.7333    0.9062 H   0  0  0  0  0  0  0  0  0  0  0  0
    0.0071    2.9252    1.6585 H   0  0  0  0  0  0  0  0  0  0  0  0
    2.1046    3.7177    2.6093 H   0  0  0  0  0  0  0  0  0  0  0  0
    4.4003    4.1024    2.7398 H   0  0  0  0  0  0  0  0  0  0  0  0
    3.6923    3.7739    4.3709 H   0  0  0  0  0  0  0  0  0  0  0  0
    5.4202    3.5468    4.0726 H   0  0  0  0  0  0  0  0  0  0  0  0
    3.7046   -1.0325    3.7759 H   0  0  0  0  0  0  0  0  0  0  0  0
    4.9320   -0.1942    2.8494 H   0  0  0  0  0  0  0  0  0  0  0  0
    4.3580   -3.7608    0.4202 H   0  0  0  0  0  0  0  0  0  0  0  0
    5.6000   -3.8403   -1.7011 H   0  0  0  0  0  0  0  0  0  0  0  0
    6.9203   -2.6767   -3.4678 H   0  0  0  0  0  0  0  0  0  0  0  0
    7.9157   -0.6079   -4.3645 H   0  0  0  0  0  0  0  0  0  0  0  0
    7.6526    1.5351   -3.1427 H   0  0  0  0  0  0  0  0  0  0  0  0
    6.3989    1.6092   -1.0225 H   0  0  0  0  0  0  0  0  0  0  0  0
    5.1059    0.4666    0.7148 H   0  0  0  0  0  0  0  0  0  0  0  0
    1.4702   -1.1241    1.7194 H   0  0  0  0  0  0  0  0  0  0  0  0
   -6.4366    2.0170    0.5347 H   0  0  0  0  0  0  0  0  0  0  0  0
  1  2  1  0
  2  3  1  0
  3  4  2  0
  4  5  1  0
  5  6  1  0
  6  7  1  0
  5  8  2  0
  8  9  1  0
  9 10  1  0
 10 11  2  0
 10 12  1  0
 12 13  1  0
 13 14  2  3
 14 15  1  0
 15 16  2  0
 16 17  1  0
 17 18  2  0
 18 19  1  0
 19 20  1  0
 18 21  1  0
 21 22  1  0
 22 23  1  0
 23 24  1  0
 24 25  2  0
 25 26  1  0
 26 27  2  0
 27 28  1  0
 28 29  2  0
 29 30  1  0
 30 31  2  0
 31 32  1  0
 32 33  2  0
 21 34  2  0
  9 35  2  0
 35  3  1  0
 34 15  1  0
 33 24  1  0
 32 27  1  0
  1 36  1  0
  1 37  1  0
  1 38  1  0
  4 39  1  0
  7 40  1  0
  7 41  1  0
  7 42  1  0
  8 43  1  0
 12 44  1  0
 14 45  1  0
 16 46  1  0
 17 47  1  0
 20 48  1  0
 20 49  1  0
 20 50  1  0
 22 51  1  0
 22 52  1  0
 25 53  1  0
 26 54  1  0
 28 55  1  0
 29 56  1  0
 30 57  1  0
 31 58  1  0
 33 59  1  0
 34 60  1  0
 35 61  1  0
M  END
$$$$
