
     RDKit          3D

 39 41  0  0  0  0  0  0  0  0999 V2000
   -1.4934   -0.4183    5.3013 C   0  0  0  0  0  0  0  0  0  0  0  0
   -0.6285   -0.8412    4.2550 O   0  0  0  0  0  0  0  0  0  0  0  0
   -1.1664   -0.9229    3.0003 C   0  0  0  0  0  0  0  0  0  0  0  0
   -2.4946   -0.6558    2.6583 C   0  0  0  0  0  0  0  0  0  0  0  0
   -2.9169   -0.7736    1.3298 C   0  0  0  0  0  0  0  0  0  0  0  0
   -2.0035   -1.1563    0.3444 C   0  0  0  0  0  0  0  0  0  0  0  0
   -2.5427   -1.3076   -1.3398 S   0  0  0  0  0  6  0  0  0  0  0  0
   -1.5867   -2.1126   -2.0688 O   0  0  0  0  0  0  0  0  0  0  0  0
   -3.9471   -1.6618   -1.3157 O   0  0  0  0  0  0  0  0  0  0  0  0
   -2.4795    0.2921   -1.8982 N   0  0  0  0  0  0  0  0  0  0  0  0
   -1.2126    0.7966   -2.3027 C   0  0  0  0  0  0  0  0  0  0  0  0
   -0.8050    0.6647   -3.6289 C   0  0  0  0  0  0  0  0  0  0  0  0
    0.4706    1.0853   -4.0036 C   0  0  0  0  0  0  0  0  0  0  0  0
    1.3375    1.6115   -3.0474 C   0  0  0  0  0  0  0  0  0  0  0  0
    2.5833    1.9631   -3.4911 O   0  0  0  0  0  0  0  0  0  0  0  0
    0.9373    1.7500   -1.7107 C   0  0  0  0  0  0  0  0  0  0  0  0
    1.9826    2.4456   -0.4412 S   0  0  0  0  0  0  0  0  0  0  0  0
    3.2085    1.2162   -0.3224 C   0  0  0  0  0  0  0  0  0  0  0  0
    3.2536    0.2801    0.6706 N   0  0  0  0  0  0  0  0  0  0  0  0
    4.3049   -0.4369    0.3508 C   0  0  0  0  0  0  0  0  0  0  0  0
    4.8604    0.0532   -0.7890 N   0  0  0  0  0  0  0  0  0  0  0  0
    4.1736    1.1160   -1.2458 N   0  0  0  0  0  0  0  0  0  0  0  0
   -0.3532    1.3446   -1.3498 C   0  0  0  0  0  0  0  0  0  0  0  0
   -0.6797   -1.4478    0.6788 C   0  0  0  0  0  0  0  0  0  0  0  0
   -0.2655   -1.3179    2.0054 C   0  0  0  0  0  0  0  0  0  0  0  0
   -2.3148   -1.1281    5.4448 H   0  0  0  0  0  0  0  0  0  0  0  0
   -1.8713    0.5929    5.1174 H   0  0  0  0  0  0  0  0  0  0  0  0
   -0.9105   -0.3925    6.2270 H   0  0  0  0  0  0  0  0  0  0  0  0
   -3.2264   -0.3550    3.4009 H   0  0  0  0  0  0  0  0  0  0  0  0
   -3.9534   -0.5648    1.0736 H   0  0  0  0  0  0  0  0  0  0  0  0
   -3.2779    0.4863   -2.5020 H   0  0  0  0  0  0  0  0  0  0  0  0
   -1.4586    0.2158   -4.3714 H   0  0  0  0  0  0  0  0  0  0  0  0
    0.8006    0.9798   -5.0336 H   0  0  0  0  0  0  0  0  0  0  0  0
    3.1842    1.9888   -2.7159 H   0  0  0  0  0  0  0  0  0  0  0  0
    4.6961   -1.2907    0.8857 H   0  0  0  0  0  0  0  0  0  0  0  0
    5.6754   -0.2739   -1.2971 H   0  0  0  0  0  0  0  0  0  0  0  0
   -0.6878    1.4535   -0.3209 H   0  0  0  0  0  0  0  0  0  0  0  0
    0.0363   -1.7567   -0.0796 H   0  0  0  0  0  0  0  0  0  0  0  0
    0.7711   -1.5214    2.2668 H   0  0  0  0  0  0  0  0  0  0  0  0
  1  2  1  0
  2  3  1  0
  3  4  2  0
  4  5  1  0
  5  6  2  0
  6  7  1  0
  7  8  2  0
  7  9  2  0
  7 10  1  0
 10 11  1  0
 11 12  2  0
 12 13  1  0
 13 14  2  0
 14 15  1  0
 14 16  1  0
 16 17  1  0
 17 18  1  0
 18 19  1  0
 19 20  2  0
 20 21  1  0
 21 22  1  0
 16 23  2  0
  6 24  1  0
 24 25  2  0
 25  3  1  0
 23 11  1  0
 22 18  2  0
  1 26  1  0
  1 27  1  0
  1 28  1  0
  4 29  1  0
  5 30  1  0
 10 31  1  0
 12 32  1  0
 13 33  1  0
 15 34  1  0
 20 35  1  0
 21 36  1  0
 23 37  1  0
 24 38  1  0
 25 39  1  0
M  END
$$$$
