
     RDKit          3D

 40 42  0  0  0  0  0  0  0  0999 V2000
    3.5187   -1.4430   -1.0387 N   0  0  0  0  0  0  0  0  0  0  0  0
    3.7489   -1.1894    0.3767 C   0  0  0  0  0  0  0  0  0  0  0  0
    3.2226    0.1798    0.8072 C   0  0  0  0  0  0  0  0  0  0  0  0
    1.6956    0.2809    0.9046 C   0  0  0  0  0  0  0  0  0  0  0  0
    0.9700    0.2377   -0.4500 C   0  0  0  0  0  0  0  0  0  0  0  0
   -0.4618    0.6067   -0.3030 N   0  0  0  0  0  0  0  0  0  0  0  0
   -0.7991    1.9818   -0.4777 C   0  0  0  0  0  0  0  0  0  0  0  0
    0.1750    3.0071   -0.4515 C   0  0  0  0  0  0  0  0  0  0  0  0
   -0.1466    4.3608   -0.6114 C   0  0  0  0  0  0  0  0  0  0  0  0
   -1.4638    4.7410   -0.8003 C   0  0  0  0  0  0  0  0  0  0  0  0
   -2.4516    3.7639   -0.8238 C   0  0  0  0  0  0  0  0  0  0  0  0
   -2.1326    2.4004   -0.6607 C   0  0  0  0  0  0  0  0  0  0  0  0
   -3.5121    1.2839   -0.7382 S   0  0  0  0  0  0  0  0  0  0  0  0
   -2.7809   -0.2571   -0.2426 C   0  0  0  0  0  0  0  0  0  0  0  0
   -3.6900   -1.3117   -0.0278 C   0  0  0  0  0  0  0  0  0  0  0  0
   -3.2504   -2.5782    0.3425 C   0  0  0  0  0  0  0  0  0  0  0  0
   -1.8881   -2.8107    0.5108 C   0  0  0  0  0  0  0  0  0  0  0  0
   -1.3762   -4.1760    0.8964 C   0  0  0  0  0  0  0  0  0  0  0  0
   -0.9995   -4.9130   -0.1844 F   0  0  0  0  0  0  0  0  0  0  0  0
   -0.2857   -4.1249    1.7122 F   0  0  0  0  0  0  0  0  0  0  0  0
   -2.2980   -4.9292    1.5595 F   0  0  0  0  0  0  0  0  0  0  0  0
   -0.9848   -1.7529    0.2824 C   0  0  0  0  0  0  0  0  0  0  0  0
   -1.3932   -0.4527   -0.0987 C   0  0  0  0  0  0  0  0  0  0  0  0
    4.0651   -0.7867   -1.5973 H   0  0  0  0  0  0  0  0  0  0  0  0
    3.8780   -2.3687   -1.2760 H   0  0  0  0  0  0  0  0  0  0  0  0
    3.2744   -1.9779    0.9707 H   0  0  0  0  0  0  0  0  0  0  0  0
    4.8262   -1.2391    0.5704 H   0  0  0  0  0  0  0  0  0  0  0  0
    3.6087    0.9649    0.1451 H   0  0  0  0  0  0  0  0  0  0  0  0
    3.6315    0.3931    1.8032 H   0  0  0  0  0  0  0  0  0  0  0  0
    1.4596    1.2203    1.4190 H   0  0  0  0  0  0  0  0  0  0  0  0
    1.3232   -0.5092    1.5661 H   0  0  0  0  0  0  0  0  0  0  0  0
    1.4698    0.8924   -1.1752 H   0  0  0  0  0  0  0  0  0  0  0  0
    1.0605   -0.7470   -0.9190 H   0  0  0  0  0  0  0  0  0  0  0  0
    1.2249    2.7888   -0.2864 H   0  0  0  0  0  0  0  0  0  0  0  0
    0.6390    5.1115   -0.5820 H   0  0  0  0  0  0  0  0  0  0  0  0
   -1.7244    5.7879   -0.9256 H   0  0  0  0  0  0  0  0  0  0  0  0
   -3.4853    4.0706   -0.9722 H   0  0  0  0  0  0  0  0  0  0  0  0
   -4.7589   -1.1463   -0.1538 H   0  0  0  0  0  0  0  0  0  0  0  0
   -3.9756   -3.3746    0.4994 H   0  0  0  0  0  0  0  0  0  0  0  0
    0.0670   -1.9850    0.4300 H   0  0  0  0  0  0  0  0  0  0  0  0
  1  2  1  0
  2  3  1  0
  3  4  1  0
  4  5  1  0
  5  6  1  0
  6  7  1  0
  7  8  2  0
  8  9  1  0
  9 10  2  0
 10 11  1  0
 11 12  2  0
 12 13  1  0
 13 14  1  0
 14 15  2  0
 15 16  1  0
 16 17  2  0
 17 18  1  0
 18 19  1  0
 18 20  1  0
 18 21  1  0
 17 22  1  0
 22 23  2  0
 23  6  1  0
 12  7  1  0
 23 14  1  0
  1 24  1  0
  1 25  1  0
  2 26  1  0
  2 27  1  0
  3 28  1  0
  3 29  1  0
  4 30  1  0
  4 31  1  0
  5 32  1  0
  5 33  1  0
  8 34  1  0
  9 35  1  0
 10 36  1  0
 11 37  1  0
 15 38  1  0
 16 39  1  0
 22 40  1  0
M  END
$$$$
