
     RDKit          3D

 31 33  0  0  0  0  0  0  0  0999 V2000
   -1.0461   -2.8133   -4.5890 C   0  0  0  0  0  0  0  0  0  0  0  0
   -1.6334   -2.7215   -3.2731 N   0  0  0  0  0  0  0  0  0  0  0  0
   -2.7251   -3.3939   -2.8181 C   0  0  0  0  0  0  0  0  0  0  0  0
   -2.8957   -2.9804   -1.5221 C   0  0  0  0  0  0  0  0  0  0  0  0
   -4.2430   -3.5552   -0.3583 Br  0  0  0  0  0  0  0  0  0  0  0  0
   -1.8628   -2.0509   -1.2596 C   0  0  0  0  0  0  0  0  0  0  0  0
   -1.5630   -1.2919   -0.0276 C   0  0  0  0  0  0  0  0  0  0  0  0
   -2.2398   -1.3986    0.9864 O   0  0  0  0  0  0  0  0  0  0  0  0
   -0.4500   -0.4879   -0.2113 N   0  0  0  0  0  0  0  0  0  0  0  0
    0.1486    0.3697    0.6942 C   0  0  0  0  0  0  0  0  0  0  0  0
   -0.4697    0.5538    2.2890 S   0  0  0  0  0  0  0  0  0  0  0  0
    0.7225    1.6586    2.6636 C   0  0  0  0  0  0  0  0  0  0  0  0
    1.5886    1.9111    1.6379 C   0  0  0  0  0  0  0  0  0  0  0  0
    1.2692    1.1666    0.4798 C   0  0  0  0  0  0  0  0  0  0  0  0
    1.9952    1.2184   -0.7516 C   0  0  0  0  0  0  0  0  0  0  0  0
    2.5773    1.2531   -1.7551 N   0  0  0  0  0  0  0  0  0  0  0  0
    2.6220    2.8971    2.0426 C   0  0  0  0  0  0  0  0  0  0  0  0
    2.0339    3.4662    3.3730 C   0  0  0  0  0  0  0  0  0  0  0  0
    1.0135    2.4123    3.9045 C   0  0  0  0  0  0  0  0  0  0  0  0
   -1.0827   -1.8983   -2.3591 N   0  0  0  0  0  0  0  0  0  0  0  0
   -1.0746   -1.8220   -5.0480 H   0  0  0  0  0  0  0  0  0  0  0  0
   -1.6173   -3.5219   -5.1937 H   0  0  0  0  0  0  0  0  0  0  0  0
   -0.0150   -3.1592   -4.4818 H   0  0  0  0  0  0  0  0  0  0  0  0
   -3.2755   -4.0909   -3.4343 H   0  0  0  0  0  0  0  0  0  0  0  0
   -0.0497   -0.5662   -1.1459 H   0  0  0  0  0  0  0  0  0  0  0  0
    3.5772    2.3956    2.2304 H   0  0  0  0  0  0  0  0  0  0  0  0
    2.7660    3.6900    1.3035 H   0  0  0  0  0  0  0  0  0  0  0  0
    2.8128    3.6978    4.1061 H   0  0  0  0  0  0  0  0  0  0  0  0
    1.4996    4.4004    3.1543 H   0  0  0  0  0  0  0  0  0  0  0  0
    0.1330    2.8957    4.3362 H   0  0  0  0  0  0  0  0  0  0  0  0
    1.4839    1.7656    4.6522 H   0  0  0  0  0  0  0  0  0  0  0  0
  1  2  1  0
  2  3  1  0
  3  4  2  0
  4  5  1  0
  4  6  1  0
  6  7  1  0
  7  8  2  0
  7  9  1  0
  9 10  1  0
 10 11  1  0
 11 12  1  0
 12 13  2  0
 13 14  1  0
 14 15  1  0
 15 16  3  0
 13 17  1  0
 17 18  1  0
 18 19  1  0
  6 20  2  0
 20  2  1  0
 14 10  2  0
 19 12  1  0
  1 21  1  0
  1 22  1  0
  1 23  1  0
  3 24  1  0
  9 25  1  0
 17 26  1  0
 17 27  1  0
 18 28  1  0
 18 29  1  0
 19 30  1  0
 19 31  1  0
M  END
$$$$
