
     RDKit          3D

 55 60  0  0  0  0  0  0  0  0999 V2000
   -3.8776    1.0213   -2.4523 O   0  0  0  0  0  0  0  0  0  0  0  0
   -3.6483    1.3237   -1.2829 C   0  0  0  0  0  0  0  0  0  0  0  0
   -4.7382    1.7362   -0.4124 C   0  0  0  0  0  0  0  0  0  0  0  0
   -6.0970    1.3061   -0.4630 C   0  0  0  0  0  0  0  0  0  0  0  0
   -6.7666    1.9960    0.5191 C   0  0  0  0  0  0  0  0  0  0  0  0
   -5.9228    2.8461    1.1569 O   0  0  0  0  0  0  0  0  0  0  0  0
   -4.7050    2.7021    0.5745 C   0  0  0  0  0  0  0  0  0  0  0  0
   -2.3448    1.3129   -0.7615 N   0  0  0  0  0  0  0  0  0  0  0  0
   -2.0520    0.8949    0.6061 C   0  0  0  0  0  0  0  0  0  0  0  0
   -1.6105   -0.5667    0.6461 C   0  0  0  0  0  0  0  0  0  0  0  0
   -0.5477   -1.0018   -0.4086 C   0  0  0  0  0  0  0  0  0  0  0  0
   -0.8845   -0.3662   -1.7842 C   0  0  0  0  0  0  0  0  0  0  0  0
   -1.2534    1.1087   -1.7013 C   0  0  0  0  0  0  0  0  0  0  0  0
   -0.8227   -2.4367   -0.5249 O   0  0  0  0  0  0  0  0  0  0  0  0
    0.1145   -3.2329   -1.1089 C   0  0  0  0  0  0  0  0  0  0  0  0
   -0.3027   -4.5161   -1.4667 C   0  0  0  0  0  0  0  0  0  0  0  0
    0.5890   -5.3929   -2.0872 C   0  0  0  0  0  0  0  0  0  0  0  0
    1.8931   -4.9804   -2.3419 C   0  0  0  0  0  0  0  0  0  0  0  0
    2.7442   -5.8223   -2.9415 F   0  0  0  0  0  0  0  0  0  0  0  0
    2.3255   -3.7115   -1.9809 C   0  0  0  0  0  0  0  0  0  0  0  0
    1.4272   -2.8465   -1.3512 C   0  0  0  0  0  0  0  0  0  0  0  0
    1.8455   -1.5038   -0.9354 C   0  0  0  0  0  0  0  0  0  0  0  0
    2.8696   -1.0155   -1.4070 O   0  0  0  0  0  0  0  0  0  0  0  0
    0.9275   -0.7882    0.0583 C   0  0  0  0  0  0  0  0  0  0  0  0
    1.4124    0.6344    0.2771 C   0  0  0  0  0  0  0  0  0  0  0  0
    2.3281    0.3893    1.4304 C   0  0  0  0  0  0  0  0  0  0  0  0
    3.3345    1.3845    1.8685 C   0  0  0  0  0  0  0  0  0  0  0  0
    3.4311    2.6447    1.2674 C   0  0  0  0  0  0  0  0  0  0  0  0
    4.3896    3.5599    1.7116 C   0  0  0  0  0  0  0  0  0  0  0  0
    5.2508    3.2226    2.7549 C   0  0  0  0  0  0  0  0  0  0  0  0
    5.1574    1.9699    3.3580 C   0  0  0  0  0  0  0  0  0  0  0  0
    4.2016    1.0527    2.9172 C   0  0  0  0  0  0  0  0  0  0  0  0
    2.1345   -0.7395    2.0355 N   0  0  0  0  0  0  0  0  0  0  0  0
    1.1164   -1.4242    1.3371 O   0  0  0  0  0  0  0  0  0  0  0  0
   -6.5233    0.5790   -1.1409 H   0  0  0  0  0  0  0  0  0  0  0  0
   -7.7916    2.0065    0.8633 H   0  0  0  0  0  0  0  0  0  0  0  0
   -3.9297    3.3496    0.9601 H   0  0  0  0  0  0  0  0  0  0  0  0
   -1.2955    1.5692    1.0100 H   0  0  0  0  0  0  0  0  0  0  0  0
   -2.9250    0.9908    1.2547 H   0  0  0  0  0  0  0  0  0  0  0  0
   -2.5146   -1.1742    0.4867 H   0  0  0  0  0  0  0  0  0  0  0  0
   -1.2837   -0.8239    1.6605 H   0  0  0  0  0  0  0  0  0  0  0  0
   -0.0587   -0.4928   -2.4930 H   0  0  0  0  0  0  0  0  0  0  0  0
   -1.7286   -0.9137   -2.2268 H   0  0  0  0  0  0  0  0  0  0  0  0
   -0.4073    1.7192   -1.3745 H   0  0  0  0  0  0  0  0  0  0  0  0
   -1.5335    1.4773   -2.6946 H   0  0  0  0  0  0  0  0  0  0  0  0
   -1.3245   -4.8314   -1.2689 H   0  0  0  0  0  0  0  0  0  0  0  0
    0.2752   -6.3919   -2.3742 H   0  0  0  0  0  0  0  0  0  0  0  0
    3.3504   -3.4133   -2.1808 H   0  0  0  0  0  0  0  0  0  0  0  0
    0.6466    1.3162    0.6362 H   0  0  0  0  0  0  0  0  0  0  0  0
    1.9151    1.0765   -0.5856 H   0  0  0  0  0  0  0  0  0  0  0  0
    2.7762    2.9411    0.4545 H   0  0  0  0  0  0  0  0  0  0  0  0
    4.4665    4.5379    1.2423 H   0  0  0  0  0  0  0  0  0  0  0  0
    5.9969    3.9356    3.0974 H   0  0  0  0  0  0  0  0  0  0  0  0
    5.8290    1.7041    4.1706 H   0  0  0  0  0  0  0  0  0  0  0  0
    4.1415    0.0772    3.3961 H   0  0  0  0  0  0  0  0  0  0  0  0
  1  2  2  0
  2  3  1  0
  3  4  1  0
  4  5  2  0
  5  6  1  0
  6  7  1  0
  2  8  1  0
  8  9  1  0
  9 10  1  0
 10 11  1  0
 11 12  1  0
 12 13  1  0
 11 14  1  0
 14 15  1  0
 15 16  2  0
 16 17  1  0
 17 18  2  0
 18 19  1  0
 18 20  1  0
 20 21  2  0
 21 22  1  0
 22 23  2  0
 22 24  1  0
 24 25  1  0
 25 26  1  0
 26 27  1  0
 27 28  2  0
 28 29  1  0
 29 30  2  0
 30 31  1  0
 31 32  2  0
 26 33  2  0
 33 34  1  0
  7  3  2  0
 13  8  1  0
 21 15  1  0
 34 24  1  0
 24 11  1  0
 32 27  1  0
  4 35  1  0
  5 36  1  0
  7 37  1  0
  9 38  1  0
  9 39  1  0
 10 40  1  0
 10 41  1  0
 12 42  1  0
 12 43  1  0
 13 44  1  0
 13 45  1  0
 16 46  1  0
 17 47  1  0
 20 48  1  0
 25 49  1  0
 25 50  1  0
 28 51  1  0
 29 52  1  0
 30 53  1  0
 31 54  1  0
 32 55  1  0
M  END
$$$$
