
     RDKit          3D

 54 57  0  0  0  0  0  0  0  0999 V2000
   -5.7610    1.3549    1.6863 C   0  0  0  0  0  0  0  0  0  0  0  0
   -5.4261    1.8674    0.4026 O   0  0  0  0  0  0  0  0  0  0  0  0
   -4.1655    1.6101   -0.0708 C   0  0  0  0  0  0  0  0  0  0  0  0
   -3.2130    0.8101    0.5748 C   0  0  0  0  0  0  0  0  0  0  0  0
   -1.9299    0.5783    0.0266 C   0  0  0  0  0  0  0  0  0  0  0  0
   -0.9609   -0.2896    0.7324 C   0  0  0  0  0  0  0  0  0  0  0  0
    0.4116   -0.1425    0.6258 C   0  0  0  0  0  0  0  0  0  0  0  0
    1.2293   -1.0158    1.3453 C   0  0  0  0  0  0  0  0  0  0  0  0
    2.6920   -0.8425    1.2133 C   0  0  0  0  0  0  0  0  0  0  0  0
    3.3214   -0.4666    2.1914 O   0  0  0  0  0  0  0  0  0  0  0  0
    3.1688   -1.1503   -0.0465 N   0  0  0  0  0  0  0  0  0  0  0  0
    4.5052   -1.0814   -0.4918 C   0  0  0  0  0  0  0  0  0  0  0  0
    4.7680   -1.5107   -1.8011 C   0  0  0  0  0  0  0  0  0  0  0  0
    6.0670   -1.4795   -2.3184 C   0  0  0  0  0  0  0  0  0  0  0  0
    7.1059   -1.0140   -1.5225 C   0  0  0  0  0  0  0  0  0  0  0  0
    8.3883   -0.9675   -1.9800 O   0  0  0  0  0  0  0  0  0  0  0  0
    6.8632   -0.5800   -0.2262 C   0  0  0  0  0  0  0  0  0  0  0  0
    5.5636   -0.6131    0.2896 C   0  0  0  0  0  0  0  0  0  0  0  0
    0.6884   -2.0170    2.1749 C   0  0  0  0  0  0  0  0  0  0  0  0
    1.4504   -2.9342    2.9411 C   0  0  0  0  0  0  0  0  0  0  0  0
    0.8279   -3.9017    3.7275 C   0  0  0  0  0  0  0  0  0  0  0  0
   -0.5576   -3.9671    3.7581 C   0  0  0  0  0  0  0  0  0  0  0  0
   -1.3100   -3.0631    3.0038 C   0  0  0  0  0  0  0  0  0  0  0  0
   -0.7137   -2.0887    2.2136 C   0  0  0  0  0  0  0  0  0  0  0  0
   -1.5051   -1.2563    1.5137 N   0  0  0  0  0  0  0  0  0  0  0  0
   -1.6280    1.1908   -1.2019 C   0  0  0  0  0  0  0  0  0  0  0  0
   -2.5581    2.0114   -1.8424 C   0  0  0  0  0  0  0  0  0  0  0  0
   -2.1950    2.5500   -3.0510 O   0  0  0  0  0  0  0  0  0  0  0  0
   -1.9234    3.9465   -2.9109 C   0  0  0  0  0  0  0  0  0  0  0  0
   -3.8342    2.1912   -1.3011 C   0  0  0  0  0  0  0  0  0  0  0  0
   -4.7447    2.9778   -1.9654 O   0  0  0  0  0  0  0  0  0  0  0  0
   -5.5628    2.1600   -2.8032 C   0  0  0  0  0  0  0  0  0  0  0  0
   -5.7578    0.2601    1.6820 H   0  0  0  0  0  0  0  0  0  0  0  0
   -5.0949    1.7514    2.4618 H   0  0  0  0  0  0  0  0  0  0  0  0
   -6.7788    1.6805    1.9216 H   0  0  0  0  0  0  0  0  0  0  0  0
   -3.4470    0.3377    1.5262 H   0  0  0  0  0  0  0  0  0  0  0  0
    0.8530    0.6499    0.0309 H   0  0  0  0  0  0  0  0  0  0  0  0
    2.4987   -1.5115   -0.7145 H   0  0  0  0  0  0  0  0  0  0  0  0
    3.9671   -1.8801   -2.4364 H   0  0  0  0  0  0  0  0  0  0  0  0
    6.2444   -1.8205   -3.3336 H   0  0  0  0  0  0  0  0  0  0  0  0
    8.4085   -1.3077   -2.8894 H   0  0  0  0  0  0  0  0  0  0  0  0
    7.6814   -0.2152    0.3886 H   0  0  0  0  0  0  0  0  0  0  0  0
    5.4143   -0.2627    1.3062 H   0  0  0  0  0  0  0  0  0  0  0  0
    2.5388   -2.8912    2.9383 H   0  0  0  0  0  0  0  0  0  0  0  0
    1.4246   -4.5945    4.3159 H   0  0  0  0  0  0  0  0  0  0  0  0
   -1.0579   -4.7146    4.3689 H   0  0  0  0  0  0  0  0  0  0  0  0
   -2.3961   -3.1205    3.0353 H   0  0  0  0  0  0  0  0  0  0  0  0
   -0.6702    1.0313   -1.6898 H   0  0  0  0  0  0  0  0  0  0  0  0
   -1.5743    4.3148   -3.8810 H   0  0  0  0  0  0  0  0  0  0  0  0
   -1.1251    4.1176   -2.1789 H   0  0  0  0  0  0  0  0  0  0  0  0
   -2.8183    4.5159   -2.6380 H   0  0  0  0  0  0  0  0  0  0  0  0
   -6.1628    2.8234   -3.4336 H   0  0  0  0  0  0  0  0  0  0  0  0
   -4.9624    1.5216   -3.4608 H   0  0  0  0  0  0  0  0  0  0  0  0
   -6.2476    1.5468   -2.2072 H   0  0  0  0  0  0  0  0  0  0  0  0
  1  2  1  0
  2  3  1  0
  3  4  2  0
  4  5  1  0
  5  6  1  0
  6  7  2  0
  7  8  1  0
  8  9  1  0
  9 10  2  0
  9 11  1  0
 11 12  1  0
 12 13  2  0
 13 14  1  0
 14 15  2  0
 15 16  1  0
 15 17  1  0
 17 18  2  0
  8 19  2  0
 19 20  1  0
 20 21  2  0
 21 22  1  0
 22 23  2  0
 23 24  1  0
 24 25  2  0
  5 26  2  0
 26 27  1  0
 27 28  1  0
 28 29  1  0
 27 30  2  0
 30 31  1  0
 31 32  1  0
 30  3  1  0
 25  6  1  0
 18 12  1  0
 24 19  1  0
  1 33  1  0
  1 34  1  0
  1 35  1  0
  4 36  1  0
  7 37  1  0
 11 38  1  0
 13 39  1  0
 14 40  1  0
 16 41  1  0
 17 42  1  0
 18 43  1  0
 20 44  1  0
 21 45  1  0
 22 46  1  0
 23 47  1  0
 26 48  1  0
 29 49  1  0
 29 50  1  0
 29 51  1  0
 32 52  1  0
 32 53  1  0
 32 54  1  0
M  END
$$$$
