
     RDKit          3D

 39 41  0  0  0  0  0  0  0  0999 V2000
    4.6236    2.5513    0.2456 C   0  0  0  0  0  0  0  0  0  0  0  0
    4.3373    1.7342    1.4926 C   0  0  0  0  0  0  0  0  0  0  0  0
    3.8991    0.3879    1.1764 N   0  0  0  0  0  0  0  0  0  0  0  0
    4.6604   -0.7420    1.2035 C   0  0  0  0  0  0  0  0  0  0  0  0
    3.8245   -1.7696    0.8396 C   0  0  0  0  0  0  0  0  0  0  0  0
    2.5617   -1.1658    0.6087 C   0  0  0  0  0  0  0  0  0  0  0  0
    1.3142   -1.8382    0.1913 C   0  0  0  0  0  0  0  0  0  0  0  0
    1.2807   -3.0488    0.0096 O   0  0  0  0  0  0  0  0  0  0  0  0
    0.2855   -0.9278    0.0541 N   0  0  0  0  0  0  0  0  0  0  0  0
   -1.0277   -1.1487   -0.3173 C   0  0  0  0  0  0  0  0  0  0  0  0
   -1.5749   -2.7393   -0.6705 S   0  0  0  0  0  0  0  0  0  0  0  0
   -3.1081   -2.1787   -0.9930 C   0  0  0  0  0  0  0  0  0  0  0  0
   -3.2435   -0.8284   -0.8502 C   0  0  0  0  0  0  0  0  0  0  0  0
   -2.0354   -0.1873   -0.4489 C   0  0  0  0  0  0  0  0  0  0  0  0
   -1.8999    1.2505   -0.2171 C   0  0  0  0  0  0  0  0  0  0  0  0
   -2.8315    2.0386   -0.3383 O   0  0  0  0  0  0  0  0  0  0  0  0
   -0.6358    1.6237    0.1461 O   0  0  0  0  0  0  0  0  0  0  0  0
   -0.4800    3.0241    0.3754 C   0  0  0  0  0  0  0  0  0  0  0  0
   -4.6345   -0.3989   -1.1507 C   0  0  0  0  0  0  0  0  0  0  0  0
   -5.2342   -1.6680   -1.8345 C   0  0  0  0  0  0  0  0  0  0  0  0
   -4.3480   -2.8760   -1.4021 C   0  0  0  0  0  0  0  0  0  0  0  0
    2.6177    0.1678    0.8219 N   0  0  0  0  0  0  0  0  0  0  0  0
    5.4036    2.0812   -0.3628 H   0  0  0  0  0  0  0  0  0  0  0  0
    3.7283    2.6496   -0.3776 H   0  0  0  0  0  0  0  0  0  0  0  0
    4.9609    3.5559    0.5185 H   0  0  0  0  0  0  0  0  0  0  0  0
    3.5512    2.2035    2.0944 H   0  0  0  0  0  0  0  0  0  0  0  0
    5.2359    1.6569    2.1142 H   0  0  0  0  0  0  0  0  0  0  0  0
    5.7078   -0.7251    1.4707 H   0  0  0  0  0  0  0  0  0  0  0  0
    4.0717   -2.8185    0.7465 H   0  0  0  0  0  0  0  0  0  0  0  0
    0.5566    0.0352    0.2572 H   0  0  0  0  0  0  0  0  0  0  0  0
   -0.6978    3.5889   -0.5364 H   0  0  0  0  0  0  0  0  0  0  0  0
   -1.1216    3.3516    1.1992 H   0  0  0  0  0  0  0  0  0  0  0  0
    0.5616    3.2066    0.6545 H   0  0  0  0  0  0  0  0  0  0  0  0
   -4.6786    0.4646   -1.8201 H   0  0  0  0  0  0  0  0  0  0  0  0
   -5.1732   -0.1716   -0.2249 H   0  0  0  0  0  0  0  0  0  0  0  0
   -6.2894   -1.8153   -1.5845 H   0  0  0  0  0  0  0  0  0  0  0  0
   -5.1679   -1.5496   -2.9243 H   0  0  0  0  0  0  0  0  0  0  0  0
   -4.7996   -3.3987   -0.5527 H   0  0  0  0  0  0  0  0  0  0  0  0
   -4.2007   -3.5756   -2.2292 H   0  0  0  0  0  0  0  0  0  0  0  0
  1  2  1  0
  2  3  1  0
  3  4  1  0
  4  5  2  0
  5  6  1  0
  6  7  1  0
  7  8  2  0
  7  9  1  0
  9 10  1  0
 10 11  1  0
 11 12  1  0
 12 13  2  0
 13 14  1  0
 14 15  1  0
 15 16  2  0
 15 17  1  0
 17 18  1  0
 13 19  1  0
 19 20  1  0
 20 21  1  0
  6 22  2  0
 22  3  1  0
 14 10  2  0
 21 12  1  0
  1 23  1  0
  1 24  1  0
  1 25  1  0
  2 26  1  0
  2 27  1  0
  4 28  1  0
  5 29  1  0
  9 30  1  0
 18 31  1  0
 18 32  1  0
 18 33  1  0
 19 34  1  0
 19 35  1  0
 20 36  1  0
 20 37  1  0
 21 38  1  0
 21 39  1  0
M  END
$$$$
