
     RDKit          3D

 60 65  0  0  0  0  0  0  0  0999 V2000
    4.9004   -1.5908    3.8694 O   0  0  0  0  0  0  0  0  0  0  0  0
    4.1525   -1.2068    2.9772 C   0  0  0  0  0  0  0  0  0  0  0  0
    2.9899   -1.8905    2.6448 N   0  0  0  0  0  0  0  0  0  0  0  0
    2.1173   -1.5057    1.6294 C   0  0  0  0  0  0  0  0  0  0  0  0
    0.9052   -2.4101    1.4629 C   0  0  0  0  0  0  0  0  0  0  0  0
   -0.2418   -1.8200    2.2979 C   0  0  0  0  0  0  0  0  0  0  0  0
   -1.5988   -2.4329    1.9617 C   0  0  0  0  0  0  0  0  0  0  0  0
   -1.8248   -2.5240    0.5034 N   0  0  0  0  0  0  0  0  0  0  0  0
   -3.4292   -2.5558   -0.0457 S   0  0  0  0  0  6  0  0  0  0  0  0
   -3.4267   -2.8804   -1.4558 O   0  0  0  0  0  0  0  0  0  0  0  0
   -4.1989   -3.3354    0.9021 O   0  0  0  0  0  0  0  0  0  0  0  0
   -3.9399   -0.8566    0.1081 C   0  0  0  0  0  0  0  0  0  0  0  0
   -4.7089   -0.4584    1.2072 C   0  0  0  0  0  0  0  0  0  0  0  0
   -5.1149    0.8734    1.3172 C   0  0  0  0  0  0  0  0  0  0  0  0
   -4.7568    1.7930    0.3324 C   0  0  0  0  0  0  0  0  0  0  0  0
   -4.0398    1.3730   -0.7940 C   0  0  0  0  0  0  0  0  0  0  0  0
   -3.6229    0.0497   -0.9085 C   0  0  0  0  0  0  0  0  0  0  0  0
   -3.7037    2.2141   -1.8225 O   0  0  0  0  0  0  0  0  0  0  0  0
   -4.5096    3.4002   -1.7976 C   0  0  0  0  0  0  0  0  0  0  0  0
   -4.5358    3.9896   -0.3973 C   0  0  0  0  0  0  0  0  0  0  0  0
   -5.1536    3.0878    0.5318 O   0  0  0  0  0  0  0  0  0  0  0  0
   -0.7932   -1.9239   -0.3602 C   0  0  0  0  0  0  0  0  0  0  0  0
    0.5330   -2.5900   -0.0188 C   0  0  0  0  0  0  0  0  0  0  0  0
    2.2643   -0.4292    0.9041 N   0  0  0  0  0  0  0  0  0  0  0  0
    3.3975    0.2547    1.2046 C   0  0  0  0  0  0  0  0  0  0  0  0
    4.3418   -0.0403    2.1604 C   0  0  0  0  0  0  0  0  0  0  0  0
    5.3455    0.8780    2.1453 N   0  0  0  0  0  0  0  0  0  0  0  0
    5.0570    1.7631    1.1896 N   0  0  0  0  0  0  0  0  0  0  0  0
    3.8914    1.3815    0.6088 N   0  0  0  0  0  0  0  0  0  0  0  0
    3.3137    2.1596   -0.4698 C   0  0  0  0  0  0  0  0  0  0  0  0
    3.5776    1.5210   -1.8120 C   0  0  0  0  0  0  0  0  0  0  0  0
    2.6033    0.7145   -2.4225 C   0  0  0  0  0  0  0  0  0  0  0  0
    2.8658    0.0976   -3.6445 C   0  0  0  0  0  0  0  0  0  0  0  0
    4.0988    0.2832   -4.2572 C   0  0  0  0  0  0  0  0  0  0  0  0
    4.3530   -0.3227   -5.4218 F   0  0  0  0  0  0  0  0  0  0  0  0
    5.0755    1.0781   -3.6745 C   0  0  0  0  0  0  0  0  0  0  0  0
    4.8167    1.6982   -2.4511 C   0  0  0  0  0  0  0  0  0  0  0  0
    2.8288   -2.7294    3.1833 H   0  0  0  0  0  0  0  0  0  0  0  0
    1.1609   -3.3978    1.8680 H   0  0  0  0  0  0  0  0  0  0  0  0
   -0.0323   -1.9488    3.3673 H   0  0  0  0  0  0  0  0  0  0  0  0
   -0.2952   -0.7320    2.1394 H   0  0  0  0  0  0  0  0  0  0  0  0
   -2.3772   -1.8321    2.4448 H   0  0  0  0  0  0  0  0  0  0  0  0
   -1.6534   -3.4472    2.3774 H   0  0  0  0  0  0  0  0  0  0  0  0
   -5.0044   -1.1772    1.9709 H   0  0  0  0  0  0  0  0  0  0  0  0
   -5.7055    1.1938    2.1706 H   0  0  0  0  0  0  0  0  0  0  0  0
   -3.0727   -0.2686   -1.7903 H   0  0  0  0  0  0  0  0  0  0  0  0
   -5.5188    3.1494   -2.1476 H   0  0  0  0  0  0  0  0  0  0  0  0
   -4.0706    4.1127   -2.5020 H   0  0  0  0  0  0  0  0  0  0  0  0
   -5.1122    4.9216   -0.3900 H   0  0  0  0  0  0  0  0  0  0  0  0
   -3.5198    4.2165   -0.0419 H   0  0  0  0  0  0  0  0  0  0  0  0
   -1.0054   -2.1137   -1.4162 H   0  0  0  0  0  0  0  0  0  0  0  0
   -0.7439   -0.8402   -0.2147 H   0  0  0  0  0  0  0  0  0  0  0  0
    0.4364   -3.6650   -0.2189 H   0  0  0  0  0  0  0  0  0  0  0  0
    1.3163   -2.2320   -0.6950 H   0  0  0  0  0  0  0  0  0  0  0  0
    3.7421    3.1703   -0.4327 H   0  0  0  0  0  0  0  0  0  0  0  0
    2.2386    2.2565   -0.2755 H   0  0  0  0  0  0  0  0  0  0  0  0
    1.6378    0.5516   -1.9482 H   0  0  0  0  0  0  0  0  0  0  0  0
    2.1236   -0.5352   -4.1155 H   0  0  0  0  0  0  0  0  0  0  0  0
    6.0335    1.2006   -4.1710 H   0  0  0  0  0  0  0  0  0  0  0  0
    5.5923    2.3096   -1.9892 H   0  0  0  0  0  0  0  0  0  0  0  0
  1  2  2  0
  2  3  1  0
  3  4  1  0
  4  5  1  0
  5  6  1  0
  6  7  1  0
  7  8  1  0
  8  9  1  0
  9 10  2  0
  9 11  2  0
  9 12  1  0
 12 13  2  0
 13 14  1  0
 14 15  2  0
 15 16  1  0
 16 17  2  0
 16 18  1  0
 18 19  1  0
 19 20  1  0
 20 21  1  0
  8 22  1  0
 22 23  1  0
  4 24  2  0
 24 25  1  0
 25 26  2  0
 26 27  1  0
 27 28  2  0
 28 29  1  0
 29 30  1  0
 30 31  1  0
 31 32  2  0
 32 33  1  0
 33 34  2  0
 34 35  1  0
 34 36  1  0
 36 37  2  0
 26  2  1  0
 37 31  1  0
 23  5  1  0
 29 25  1  0
 17 12  1  0
 21 15  1  0
  3 38  1  0
  5 39  1  0
  6 40  1  0
  6 41  1  0
  7 42  1  0
  7 43  1  0
 13 44  1  0
 14 45  1  0
 17 46  1  0
 19 47  1  0
 19 48  1  0
 20 49  1  0
 20 50  1  0
 22 51  1  0
 22 52  1  0
 23 53  1  0
 23 54  1  0
 30 55  1  0
 30 56  1  0
 32 57  1  0
 33 58  1  0
 36 59  1  0
 37 60  1  0
M  END
$$$$
