
     RDKit          3D

 27 27  0  0  0  0  0  0  0  0999 V2000
    3.0543   -1.1950   -1.7467 C   0  0  0  0  0  0  0  0  0  0  0  0
    2.0216   -0.4805   -0.9612 C   0  0  0  0  0  0  0  0  0  0  0  0
    2.1430    0.7188   -0.2478 C   0  0  0  0  0  0  0  0  0  0  0  0
    0.8993    0.9705    0.3160 C   0  0  0  0  0  0  0  0  0  0  0  0
    0.5406    2.0928    1.1377 C   0  0  0  0  0  0  0  0  0  0  0  0
   -0.5271    2.3685    1.6591 O   0  0  0  0  0  0  0  0  0  0  0  0
    1.5922    2.9241    1.3166 O   0  0  0  0  0  0  0  0  0  0  0  0
    0.1045   -0.0906   -0.0910 N   0  0  0  0  0  0  0  0  0  0  0  0
   -1.3199   -0.3881    0.1869 C   0  0  0  0  0  0  0  0  0  0  0  0
   -1.5548   -0.5976    1.6948 C   0  0  0  0  0  0  0  0  0  0  0  0
   -2.2343    0.7102   -0.3880 C   0  0  0  0  0  0  0  0  0  0  0  0
   -1.7676   -1.7135   -0.4992 C   0  0  0  0  0  0  0  0  0  0  0  0
    0.7884   -0.9711   -0.8670 N   0  0  0  0  0  0  0  0  0  0  0  0
    3.2185   -2.1990   -1.3425 H   0  0  0  0  0  0  0  0  0  0  0  0
    2.7454   -1.2884   -2.7928 H   0  0  0  0  0  0  0  0  0  0  0  0
    4.0092   -0.6601   -1.7224 H   0  0  0  0  0  0  0  0  0  0  0  0
    3.0251    1.3372   -0.1473 H   0  0  0  0  0  0  0  0  0  0  0  0
    1.2219    3.6320    1.8819 H   0  0  0  0  0  0  0  0  0  0  0  0
   -1.3680    0.2961    2.2901 H   0  0  0  0  0  0  0  0  0  0  0  0
   -2.5907   -0.8967    1.8936 H   0  0  0  0  0  0  0  0  0  0  0  0
   -0.9003   -1.3858    2.0861 H   0  0  0  0  0  0  0  0  0  0  0  0
   -3.2913    0.4518   -0.2540 H   0  0  0  0  0  0  0  0  0  0  0  0
   -2.0579    0.8423   -1.4623 H   0  0  0  0  0  0  0  0  0  0  0  0
   -2.0888    1.6835    0.0806 H   0  0  0  0  0  0  0  0  0  0  0  0
   -1.1843   -2.5704   -0.1412 H   0  0  0  0  0  0  0  0  0  0  0  0
   -2.8224   -1.9298   -0.2910 H   0  0  0  0  0  0  0  0  0  0  0  0
   -1.6566   -1.6613   -1.5890 H   0  0  0  0  0  0  0  0  0  0  0  0
  1  2  1  0
  2  3  1  0
  3  4  2  0
  4  5  1  0
  5  6  2  0
  5  7  1  0
  4  8  1  0
  8  9  1  0
  9 10  1  0
  9 11  1  0
  9 12  1  0
  8 13  1  0
 13  2  2  0
  1 14  1  0
  1 15  1  0
  1 16  1  0
  3 17  1  0
  7 18  1  0
 10 19  1  0
 10 20  1  0
 10 21  1  0
 11 22  1  0
 11 23  1  0
 11 24  1  0
 12 25  1  0
 12 26  1  0
 12 27  1  0
M  END
$$$$
