
     RDKit          3D

 47 51  0  0  0  0  0  0  0  0999 V2000
    0.7602    0.1460    2.1186 O   0  0  0  0  0  0  0  0  0  0  0  0
    1.2867    0.0706    1.0189 C   0  0  0  0  0  0  0  0  0  0  0  0
    0.7639   -0.4732   -0.1199 O   0  0  0  0  0  0  0  0  0  0  0  0
   -0.6227   -0.6827   -0.0306 C   0  0  0  0  0  0  0  0  0  0  0  0
   -1.5269    0.2975   -0.2801 C   0  0  0  0  0  0  0  0  0  0  0  0
   -1.0600    1.6484   -0.6438 C   0  0  0  0  0  0  0  0  0  0  0  0
   -1.0837    2.6803    0.3023 C   0  0  0  0  0  0  0  0  0  0  0  0
   -0.5880    3.9443   -0.0224 C   0  0  0  0  0  0  0  0  0  0  0  0
   -0.0653    4.1849   -1.2925 C   0  0  0  0  0  0  0  0  0  0  0  0
   -0.0409    3.1644   -2.2419 C   0  0  0  0  0  0  0  0  0  0  0  0
   -0.5378    1.9001   -1.9204 C   0  0  0  0  0  0  0  0  0  0  0  0
   -3.0143    0.0204   -0.1750 C   0  0  0  0  0  0  0  0  0  0  0  0
   -3.8515    0.8986   -0.3656 O   0  0  0  0  0  0  0  0  0  0  0  0
   -3.3504   -1.2716    0.1349 N   0  0  0  0  0  0  0  0  0  0  0  0
   -2.4112   -2.2639    0.3477 C   0  0  0  0  0  0  0  0  0  0  0  0
   -3.0111   -3.4795    0.6321 C   0  0  0  0  0  0  0  0  0  0  0  0
   -2.2152   -4.5825    0.8660 C   0  0  0  0  0  0  0  0  0  0  0  0
   -0.8217   -4.4181    0.8039 C   0  0  0  0  0  0  0  0  0  0  0  0
   -0.2407   -3.1635    0.5121 C   0  0  0  0  0  0  0  0  0  0  0  0
   -1.0502   -2.0524    0.2779 C   0  0  0  0  0  0  0  0  0  0  0  0
   -4.5024   -3.3331    0.6248 C   0  0  0  0  0  0  0  0  0  0  0  0
   -4.6911   -1.8312    0.2925 C   0  0  0  0  0  0  0  0  0  0  0  0
    2.6638    0.5616    0.7475 C   0  0  0  0  0  0  0  0  0  0  0  0
    3.5129    0.7878    1.8411 C   0  0  0  0  0  0  0  0  0  0  0  0
    4.8080    1.2732    1.6456 C   0  0  0  0  0  0  0  0  0  0  0  0
    5.2632    1.5465    0.3555 C   0  0  0  0  0  0  0  0  0  0  0  0
    4.4121    1.3324   -0.7376 C   0  0  0  0  0  0  0  0  0  0  0  0
    4.8842    1.6342   -2.0953 N   0  0  0  0  0  4  0  0  0  0  0  0
    6.0319    2.0836   -2.2198 O   0  0  0  0  0  0  0  0  0  0  0  0
    4.1070    1.4182   -3.0358 O   0  0  0  0  0  1  0  0  0  0  0  0
    3.1131    0.8397   -0.5505 C   0  0  0  0  0  0  0  0  0  0  0  0
   -1.4848    2.5032    1.2984 H   0  0  0  0  0  0  0  0  0  0  0  0
   -0.6146    4.7416    0.7160 H   0  0  0  0  0  0  0  0  0  0  0  0
    0.3147    5.1716   -1.5453 H   0  0  0  0  0  0  0  0  0  0  0  0
    0.3597    3.3542   -3.2347 H   0  0  0  0  0  0  0  0  0  0  0  0
   -0.5150    1.1136   -2.6714 H   0  0  0  0  0  0  0  0  0  0  0  0
   -2.6472   -5.5521    1.0928 H   0  0  0  0  0  0  0  0  0  0  0  0
   -0.1743   -5.2740    0.9866 H   0  0  0  0  0  0  0  0  0  0  0  0
    0.8419   -3.0787    0.4768 H   0  0  0  0  0  0  0  0  0  0  0  0
   -4.9303   -3.5738    1.6027 H   0  0  0  0  0  0  0  0  0  0  0  0
   -4.9585   -3.9634   -0.1446 H   0  0  0  0  0  0  0  0  0  0  0  0
   -5.2531   -1.6841   -0.6363 H   0  0  0  0  0  0  0  0  0  0  0  0
   -5.2094   -1.2962    1.0959 H   0  0  0  0  0  0  0  0  0  0  0  0
    3.1640    0.5896    2.8545 H   0  0  0  0  0  0  0  0  0  0  0  0
    5.4583    1.4443    2.5014 H   0  0  0  0  0  0  0  0  0  0  0  0
    6.2733    1.9295    0.2202 H   0  0  0  0  0  0  0  0  0  0  0  0
    2.4534    0.6936   -1.4033 H   0  0  0  0  0  0  0  0  0  0  0  0
  1  2  2  0
  2  3  1  0
  3  4  1  0
  4  5  2  0
  5  6  1  0
  6  7  2  0
  7  8  1  0
  8  9  2  0
  9 10  1  0
 10 11  2  0
  5 12  1  0
 12 13  2  0
 12 14  1  0
 14 15  1  0
 15 16  2  0
 16 17  1  0
 17 18  2  0
 18 19  1  0
 19 20  2  0
 16 21  1  0
 21 22  1  0
  2 23  1  0
 23 24  2  0
 24 25  1  0
 25 26  2  0
 26 27  1  0
 27 28  1  0
 28 29  2  0
 28 30  1  0
 27 31  2  0
 20  4  1  0
 31 23  1  0
 11  6  1  0
 22 14  1  0
 20 15  1  0
  7 32  1  0
  8 33  1  0
  9 34  1  0
 10 35  1  0
 11 36  1  0
 17 37  1  0
 18 38  1  0
 19 39  1  0
 21 40  1  0
 21 41  1  0
 22 42  1  0
 22 43  1  0
 24 44  1  0
 25 45  1  0
 26 46  1  0
 31 47  1  0
M  CHG  2  28   1  30  -1
M  END
$$$$
