
     RDKit          3D

 59 61  0  0  0  0  0  0  0  0999 V2000
   -6.8758    0.8966   -2.6874 C   0  0  0  0  0  0  0  0  0  0  0  0
   -5.6573    0.8891   -2.1274 C   0  0  0  0  0  0  0  0  0  0  0  0
   -4.6800   -0.2866   -2.0234 C   0  0  0  0  0  0  0  0  0  0  0  0
   -5.2313   -1.6260   -2.5729 C   0  0  0  0  0  0  0  0  0  0  0  0
   -3.5057    0.0993   -2.9617 C   0  0  0  0  0  0  0  0  0  0  0  0
   -4.2517   -0.4865   -0.5475 C   0  0  0  0  0  0  0  0  0  0  0  0
   -2.9039   -0.3676   -0.1427 C   0  0  0  0  0  0  0  0  0  0  0  0
   -2.4838   -0.5496    1.1951 C   0  0  0  0  0  0  0  0  0  0  0  0
   -1.0111   -0.4273    1.5468 C   0  0  2  0  0  0  0  0  0  0  0  0
   -0.6494    1.0265    1.8132 C   0  0  0  0  0  0  0  0  0  0  0  0
    0.8015    1.0786    2.1939 C   0  0  0  0  0  0  0  0  0  0  0  0
    1.2515    1.9072    2.9813 O   0  0  0  0  0  0  0  0  0  0  0  0
    1.7016    0.1142    1.5321 C   0  0  0  0  0  0  0  0  0  0  0  0
    1.1330   -0.8384    0.6861 C   0  0  0  0  0  0  0  0  0  0  0  0
    1.9483   -1.7218   -0.0159 C   0  0  0  0  0  0  0  0  0  0  0  0
    3.3319   -1.6681    0.1581 C   0  0  0  0  0  0  0  0  0  0  0  0
    4.1318   -2.5402   -0.5283 O   0  0  0  0  0  0  0  0  0  0  0  0
    3.9289   -0.7376    1.0254 C   0  0  0  0  0  0  0  0  0  0  0  0
    5.4343   -0.6770    1.1797 C   0  0  0  0  0  0  0  0  0  0  0  0
    6.0902    0.1388    0.0947 C   0  0  0  0  0  0  0  0  0  0  0  0
    6.7220    1.3247    0.2020 C   0  0  0  0  0  0  0  0  0  0  0  0
    7.3278    1.9814   -1.0107 C   0  0  0  0  0  0  0  0  0  0  0  0
    6.8841    2.1104    1.4736 C   0  0  0  0  0  0  0  0  0  0  0  0
    3.0925    0.1605    1.7093 C   0  0  0  0  0  0  0  0  0  0  0  0
    3.6760    1.0767    2.5478 O   0  0  0  0  0  0  0  0  0  0  0  0
   -0.2153   -0.9554    0.4701 O   0  0  0  0  0  0  0  0  0  0  0  0
   -3.4616   -0.8280    2.1527 C   0  0  0  0  0  0  0  0  0  0  0  0
   -3.1955   -0.9852    3.4831 O   0  0  0  0  0  0  0  0  0  0  0  0
   -4.7967   -0.9696    1.7892 C   0  0  0  0  0  0  0  0  0  0  0  0
   -5.1832   -0.7996    0.4586 C   0  0  0  0  0  0  0  0  0  0  0  0
   -6.5067   -0.9380    0.1425 O   0  0  0  0  0  0  0  0  0  0  0  0
   -7.4754    1.8016   -2.6874 H   0  0  0  0  0  0  0  0  0  0  0  0
   -7.3131    0.0145   -3.1413 H   0  0  0  0  0  0  0  0  0  0  0  0
   -5.3069    1.8211   -1.6833 H   0  0  0  0  0  0  0  0  0  0  0  0
   -5.4571   -1.5572   -3.6440 H   0  0  0  0  0  0  0  0  0  0  0  0
   -6.1504   -1.9480   -2.0736 H   0  0  0  0  0  0  0  0  0  0  0  0
   -4.4974   -2.4316   -2.4466 H   0  0  0  0  0  0  0  0  0  0  0  0
   -2.7406   -0.6857   -2.9962 H   0  0  0  0  0  0  0  0  0  0  0  0
   -3.0195    1.0324   -2.6508 H   0  0  0  0  0  0  0  0  0  0  0  0
   -3.8533    0.2486   -3.9921 H   0  0  0  0  0  0  0  0  0  0  0  0
   -2.1369   -0.1364   -0.8788 H   0  0  0  0  0  0  0  0  0  0  0  0
   -0.8060   -1.0548    2.4255 H   0  0  0  0  0  0  0  0  0  0  0  0
   -1.2471    1.4328    2.6365 H   0  0  0  0  0  0  0  0  0  0  0  0
   -0.7882    1.6582    0.9281 H   0  0  0  0  0  0  0  0  0  0  0  0
    1.4937   -2.4471   -0.6842 H   0  0  0  0  0  0  0  0  0  0  0  0
    3.5821   -3.1075   -1.0938 H   0  0  0  0  0  0  0  0  0  0  0  0
    5.6970   -0.3278    2.1825 H   0  0  0  0  0  0  0  0  0  0  0  0
    5.8455   -1.6943    1.1424 H   0  0  0  0  0  0  0  0  0  0  0  0
    6.0376   -0.3308   -0.8877 H   0  0  0  0  0  0  0  0  0  0  0  0
    8.4043    2.1215   -0.8677 H   0  0  0  0  0  0  0  0  0  0  0  0
    7.1882    1.3871   -1.9198 H   0  0  0  0  0  0  0  0  0  0  0  0
    6.8685    2.9608   -1.1807 H   0  0  0  0  0  0  0  0  0  0  0  0
    6.4097    3.0921    1.3705 H   0  0  0  0  0  0  0  0  0  0  0  0
    6.4440    1.6275    2.3476 H   0  0  0  0  0  0  0  0  0  0  0  0
    7.9474    2.2629    1.6869 H   0  0  0  0  0  0  0  0  0  0  0  0
    2.9753    1.6515    2.9285 H   0  0  0  0  0  0  0  0  0  0  0  0
   -2.4073   -0.4800    3.7334 H   0  0  0  0  0  0  0  0  0  0  0  0
   -5.5266   -1.2047    2.5581 H   0  0  0  0  0  0  0  0  0  0  0  0
   -7.0141   -1.1081    0.9520 H   0  0  0  0  0  0  0  0  0  0  0  0
  1  2  2  0
  2  3  1  0
  3  4  1  0
  3  5  1  0
  3  6  1  0
  6  7  2  0
  7  8  1  0
  8  9  1  0
  9 10  1  0
 10 11  1  0
 11 12  2  0
 11 13  1  0
 13 14  2  0
 14 15  1  0
 15 16  2  0
 16 17  1  0
 16 18  1  0
 18 19  1  0
 19 20  1  0
 20 21  2  3
 21 22  1  0
 21 23  1  0
 18 24  2  0
 24 25  1  0
 14 26  1  0
  8 27  2  0
 27 28  1  0
 27 29  1  0
 29 30  2  0
 30 31  1  0
 30  6  1  0
 26  9  1  0
 24 13  1  0
  1 32  1  0
  1 33  1  0
  2 34  1  0
  4 35  1  0
  4 36  1  0
  4 37  1  0
  5 38  1  0
  5 39  1  0
  5 40  1  0
  7 41  1  0
  9 42  1  1
 10 43  1  0
 10 44  1  0
 15 45  1  0
 17 46  1  0
 19 47  1  0
 19 48  1  0
 20 49  1  0
 22 50  1  0
 22 51  1  0
 22 52  1  0
 23 53  1  0
 23 54  1  0
 23 55  1  0
 25 56  1  0
 28 57  1  0
 29 58  1  0
 31 59  1  0
M  END
$$$$
