
     RDKit          3D

 61 66  0  0  0  0  0  0  0  0999 V2000
    9.0280   -0.5309   -0.5418 C   0  0  0  0  0  0  0  0  0  0  0  0
    8.6825   -0.2173    0.7716 C   0  0  0  0  0  0  0  0  0  0  0  0
    7.4051   -0.5146    1.2487 C   0  0  0  0  0  0  0  0  0  0  0  0
    6.4628   -1.1323    0.4156 C   0  0  0  0  0  0  0  0  0  0  0  0
    5.0724   -1.4337    0.9235 C   0  0  0  0  0  0  0  0  0  0  0  0
    4.1075   -0.2679    0.6466 C   0  0  0  0  0  0  0  0  0  0  0  0
    2.7536   -0.5202    1.1682 N   0  0  0  0  0  0  0  0  0  0  0  0
    1.9843   -1.4875    0.3492 C   0  0  0  0  0  0  0  0  0  0  0  0
    0.9664   -0.8639   -0.6325 C   0  0  0  0  0  0  0  0  0  0  0  0
   -0.0120    0.0175    0.0493 N   0  0  0  0  0  0  0  0  0  0  0  0
   -1.3231   -0.3807    0.0608 C   0  0  0  0  0  0  0  0  0  0  0  0
   -1.8443   -1.6090    0.4208 C   0  0  0  0  0  0  0  0  0  0  0  0
   -3.2502   -1.5120    0.3983 C   0  0  0  0  0  0  0  0  0  0  0  0
   -3.5749   -0.2360   -0.0200 C   0  0  0  0  0  0  0  0  0  0  0  0
   -4.8497    0.4256   -0.2005 C   0  0  0  0  0  0  0  0  0  0  0  0
   -6.1226   -0.3006    0.0363 C   0  0  0  0  0  0  0  0  0  0  0  0
   -7.0892    0.2837    0.8620 C   0  0  0  0  0  0  0  0  0  0  0  0
   -8.3002   -0.3723    1.0865 C   0  0  0  0  0  0  0  0  0  0  0  0
   -8.5505   -1.6021    0.4764 C   0  0  0  0  0  0  0  0  0  0  0  0
   -7.5963   -2.1750   -0.3657 C   0  0  0  0  0  0  0  0  0  0  0  0
   -6.3832   -1.5230   -0.5928 C   0  0  0  0  0  0  0  0  0  0  0  0
   -4.9104    1.6744   -0.5551 N   0  0  0  0  0  0  0  0  0  0  0  0
   -3.7172    2.3687   -0.8334 C   0  0  0  0  0  0  0  0  0  0  0  0
   -3.8288    3.6914   -1.2730 C   0  0  0  0  0  0  0  0  0  0  0  0
   -2.6946    4.4333   -1.6040 C   0  0  0  0  0  0  0  0  0  0  0  0
   -1.4334    3.8508   -1.5060 C   0  0  0  0  0  0  0  0  0  0  0  0
   -1.3014    2.5315   -1.0666 C   0  0  0  0  0  0  0  0  0  0  0  0
   -2.4382    1.7964   -0.7162 C   0  0  0  0  0  0  0  0  0  0  0  0
   -2.3947    0.4574   -0.2499 N   0  0  0  0  0  0  0  0  0  0  0  0
    0.4801    0.5719    1.3396 C   0  0  0  0  0  0  0  0  0  0  0  0
    2.0112    0.7567    1.3062 C   0  0  0  0  0  0  0  0  0  0  0  0
    6.8186   -1.4394   -0.9049 C   0  0  0  0  0  0  0  0  0  0  0  0
    8.0966   -1.1412   -1.3798 C   0  0  0  0  0  0  0  0  0  0  0  0
   10.0231   -0.2994   -0.9120 H   0  0  0  0  0  0  0  0  0  0  0  0
    9.4084    0.2593    1.4252 H   0  0  0  0  0  0  0  0  0  0  0  0
    7.1486   -0.2616    2.2752 H   0  0  0  0  0  0  0  0  0  0  0  0
    5.1154   -1.6366    2.0016 H   0  0  0  0  0  0  0  0  0  0  0  0
    4.7231   -2.3629    0.4584 H   0  0  0  0  0  0  0  0  0  0  0  0
    4.0723   -0.0373   -0.4266 H   0  0  0  0  0  0  0  0  0  0  0  0
    4.5209    0.6223    1.1410 H   0  0  0  0  0  0  0  0  0  0  0  0
    2.6436   -2.1607   -0.2095 H   0  0  0  0  0  0  0  0  0  0  0  0
    1.4343   -2.1293    1.0497 H   0  0  0  0  0  0  0  0  0  0  0  0
    0.4665   -1.6610   -1.1970 H   0  0  0  0  0  0  0  0  0  0  0  0
    1.5044   -0.2574   -1.3719 H   0  0  0  0  0  0  0  0  0  0  0  0
   -1.2653   -2.4697    0.7269 H   0  0  0  0  0  0  0  0  0  0  0  0
   -3.9444   -2.2929    0.6794 H   0  0  0  0  0  0  0  0  0  0  0  0
   -6.8986    1.2477    1.3282 H   0  0  0  0  0  0  0  0  0  0  0  0
   -9.0501    0.0788    1.7312 H   0  0  0  0  0  0  0  0  0  0  0  0
   -9.4966   -2.1097    0.6488 H   0  0  0  0  0  0  0  0  0  0  0  0
   -7.8024   -3.1247   -0.8528 H   0  0  0  0  0  0  0  0  0  0  0  0
   -5.6579   -1.9620   -1.2725 H   0  0  0  0  0  0  0  0  0  0  0  0
   -4.8150    4.1392   -1.3647 H   0  0  0  0  0  0  0  0  0  0  0  0
   -2.7986    5.4586   -1.9482 H   0  0  0  0  0  0  0  0  0  0  0  0
   -0.5490    4.4213   -1.7784 H   0  0  0  0  0  0  0  0  0  0  0  0
   -0.3066    2.1047   -1.0277 H   0  0  0  0  0  0  0  0  0  0  0  0
    0.0059    1.5431    1.5233 H   0  0  0  0  0  0  0  0  0  0  0  0
    0.2094   -0.0909    2.1726 H   0  0  0  0  0  0  0  0  0  0  0  0
    2.2534    1.4334    0.4750 H   0  0  0  0  0  0  0  0  0  0  0  0
    2.3329    1.2478    2.2318 H   0  0  0  0  0  0  0  0  0  0  0  0
    6.1022   -1.9142   -1.5713 H   0  0  0  0  0  0  0  0  0  0  0  0
    8.3658   -1.3852   -2.4042 H   0  0  0  0  0  0  0  0  0  0  0  0
  1  2  2  0
  2  3  1  0
  3  4  2  0
  4  5  1  0
  5  6  1  0
  6  7  1  0
  7  8  1  0
  8  9  1  0
  9 10  1  0
 10 11  1  0
 11 12  2  0
 12 13  1  0
 13 14  2  0
 14 15  1  0
 15 16  1  0
 16 17  2  0
 17 18  1  0
 18 19  2  0
 19 20  1  0
 20 21  2  0
 15 22  2  0
 22 23  1  0
 23 24  2  0
 24 25  1  0
 25 26  2  0
 26 27  1  0
 27 28  2  0
 28 29  1  0
 10 30  1  0
 30 31  1  0
  4 32  1  0
 32 33  2  0
 33  1  1  0
 31  7  1  0
 29 11  1  0
 29 14  1  0
 21 16  1  0
 28 23  1  0
  1 34  1  0
  2 35  1  0
  3 36  1  0
  5 37  1  0
  5 38  1  0
  6 39  1  0
  6 40  1  0
  8 41  1  0
  8 42  1  0
  9 43  1  0
  9 44  1  0
 12 45  1  0
 13 46  1  0
 17 47  1  0
 18 48  1  0
 19 49  1  0
 20 50  1  0
 21 51  1  0
 24 52  1  0
 25 53  1  0
 26 54  1  0
 27 55  1  0
 30 56  1  0
 30 57  1  0
 31 58  1  0
 31 59  1  0
 32 60  1  0
 33 61  1  0
M  END
$$$$
