
     RDKit          3D

 40 42  0  0  0  0  0  0  0  0999 V2000
   -6.1387    0.6101   -1.5483 C   0  0  0  0  0  0  0  0  0  0  0  0
   -6.4520   -0.8347   -0.5528 S   0  0  0  0  0  6  0  0  0  0  0  0
   -7.8623   -0.8370   -0.2267 O   0  0  0  0  0  0  0  0  0  0  0  0
   -5.8245   -1.9738   -1.1849 O   0  0  0  0  0  0  0  0  0  0  0  0
   -5.6524   -0.4611    0.8818 N   0  0  0  0  0  0  0  0  0  0  0  0
   -4.2421   -0.2805    0.8791 C   0  0  0  0  0  0  0  0  0  0  0  0
   -3.3827   -1.3242    0.5350 C   0  0  0  0  0  0  0  0  0  0  0  0
   -1.9985   -1.1244    0.5257 C   0  0  0  0  0  0  0  0  0  0  0  0
   -1.4706    0.1307    0.8531 C   0  0  0  0  0  0  0  0  0  0  0  0
   -0.0024    0.3964    0.8591 C   0  0  0  0  0  0  0  0  0  0  0  0
    0.4299    1.2112    1.6649 O   0  0  0  0  0  0  0  0  0  0  0  0
    0.7221   -0.2917   -0.0973 N   0  0  0  0  0  0  0  0  0  0  0  0
    2.1198   -0.2658   -0.2949 C   0  0  0  0  0  0  0  0  0  0  0  0
    2.6204   -0.9865   -1.3896 C   0  0  0  0  0  0  0  0  0  0  0  0
    3.9925   -1.0263   -1.6533 C   0  0  0  0  0  0  0  0  0  0  0  0
    4.8761   -0.3497   -0.8197 C   0  0  0  0  0  0  0  0  0  0  0  0
    4.3855    0.3897    0.2595 C   0  0  0  0  0  0  0  0  0  0  0  0
    3.0148    0.4189    0.5306 C   0  0  0  0  0  0  0  0  0  0  0  0
    5.1962    1.1056    1.1052 O   0  0  0  0  0  0  0  0  0  0  0  0
    6.5005    1.2915    0.5457 C   0  0  0  0  0  0  0  0  0  0  0  0
    7.0259   -0.0128   -0.0298 C   0  0  0  0  0  0  0  0  0  0  0  0
    6.2093   -0.4492   -1.1229 O   0  0  0  0  0  0  0  0  0  0  0  0
   -2.3374    1.1683    1.2221 C   0  0  0  0  0  0  0  0  0  0  0  0
   -3.7200    0.9637    1.2335 C   0  0  0  0  0  0  0  0  0  0  0  0
   -5.0729    0.6716   -1.7732 H   0  0  0  0  0  0  0  0  0  0  0  0
   -6.7036    0.5034   -2.4772 H   0  0  0  0  0  0  0  0  0  0  0  0
   -6.4817    1.4945   -1.0081 H   0  0  0  0  0  0  0  0  0  0  0  0
   -6.2054    0.1397    1.4929 H   0  0  0  0  0  0  0  0  0  0  0  0
   -3.7796   -2.3088    0.2951 H   0  0  0  0  0  0  0  0  0  0  0  0
   -1.3532   -1.9679    0.2954 H   0  0  0  0  0  0  0  0  0  0  0  0
    0.1982   -0.8275   -0.7764 H   0  0  0  0  0  0  0  0  0  0  0  0
    1.9523   -1.5299   -2.0528 H   0  0  0  0  0  0  0  0  0  0  0  0
    4.3705   -1.5927   -2.4997 H   0  0  0  0  0  0  0  0  0  0  0  0
    2.6788    0.9896    1.3899 H   0  0  0  0  0  0  0  0  0  0  0  0
    7.1580    1.6440    1.3466 H   0  0  0  0  0  0  0  0  0  0  0  0
    6.4439    2.0751   -0.2201 H   0  0  0  0  0  0  0  0  0  0  0  0
    8.0431    0.1236   -0.4101 H   0  0  0  0  0  0  0  0  0  0  0  0
    7.0475   -0.8064    0.7274 H   0  0  0  0  0  0  0  0  0  0  0  0
   -1.9336    2.1397    1.5043 H   0  0  0  0  0  0  0  0  0  0  0  0
   -4.3719    1.7835    1.5222 H   0  0  0  0  0  0  0  0  0  0  0  0
  1  2  1  0
  2  3  2  0
  2  4  2  0
  2  5  1  0
  5  6  1  0
  6  7  2  0
  7  8  1  0
  8  9  2  0
  9 10  1  0
 10 11  2  0
 10 12  1  0
 12 13  1  0
 13 14  2  0
 14 15  1  0
 15 16  2  0
 16 17  1  0
 17 18  2  0
 17 19  1  0
 19 20  1  0
 20 21  1  0
 21 22  1  0
  9 23  1  0
 23 24  2  0
 24  6  1  0
 18 13  1  0
 22 16  1  0
  1 25  1  0
  1 26  1  0
  1 27  1  0
  5 28  1  0
  7 29  1  0
  8 30  1  0
 12 31  1  0
 14 32  1  0
 15 33  1  0
 18 34  1  0
 20 35  1  0
 20 36  1  0
 21 37  1  0
 21 38  1  0
 23 39  1  0
 24 40  1  0
M  END
$$$$
