
     RDKit          3D

 55 58  0  0  0  0  0  0  0  0999 V2000
    3.1306    1.1450   -0.1475 O   0  0  0  0  0  0  0  0  0  0  0  0
    2.4700    0.1781   -0.5228 C   0  0  0  0  0  0  0  0  0  0  0  0
    1.5501    0.2331   -1.7281 C   0  0  0  0  0  0  0  0  0  0  0  0
   -0.0729   -0.5324   -1.4235 S   0  0  0  0  0  0  0  0  0  0  0  0
   -0.9150    0.7810   -0.6809 C   0  0  0  0  0  0  0  0  0  0  0  0
   -0.3643    1.7859   -0.0501 N   0  0  0  0  0  0  0  0  0  0  0  0
   -1.3588    2.6427    0.3201 N   0  0  0  0  0  0  0  0  0  0  0  0
   -2.5178    2.1356   -0.0597 C   0  0  0  0  0  0  0  0  0  0  0  0
   -3.7956    2.8280    0.1207 C   0  0  0  0  0  0  0  0  0  0  0  0
   -4.9611    2.1549    0.5110 C   0  0  0  0  0  0  0  0  0  0  0  0
   -6.1696    2.8428    0.6697 C   0  0  0  0  0  0  0  0  0  0  0  0
   -6.2278    4.2140    0.4406 C   0  0  0  0  0  0  0  0  0  0  0  0
   -5.0756    4.9040    0.0809 C   0  0  0  0  0  0  0  0  0  0  0  0
   -3.8695    4.2191   -0.0611 C   0  0  0  0  0  0  0  0  0  0  0  0
   -2.7740    4.9796   -0.3764 O   0  0  0  0  0  0  0  0  0  0  0  0
   -2.2716    0.9406   -0.7116 N   0  0  0  0  0  0  0  0  0  0  0  0
   -3.2246    0.1150   -1.4322 C   0  0  0  0  0  0  0  0  0  0  0  0
   -3.6736   -1.1312   -0.6955 C   0  0  0  0  0  0  0  0  0  0  0  0
   -4.4220   -2.0816   -1.4133 C   0  0  0  0  0  0  0  0  0  0  0  0
   -4.9018   -3.2368   -0.7946 C   0  0  0  0  0  0  0  0  0  0  0  0
   -4.6426   -3.4601    0.5571 C   0  0  0  0  0  0  0  0  0  0  0  0
   -3.9038   -2.5304    1.2842 C   0  0  0  0  0  0  0  0  0  0  0  0
   -3.4241   -1.3728    0.6658 C   0  0  0  0  0  0  0  0  0  0  0  0
    2.6047   -1.0737    0.0444 N   0  0  0  0  0  0  0  0  0  0  0  0
    3.7694   -1.2815    0.8109 N   0  0  0  0  0  0  0  0  0  0  0  0
    4.7645   -2.0417    0.2165 C   0  0  0  0  0  0  0  0  0  0  0  0
    4.5264   -2.7828   -0.7387 O   0  0  0  0  0  0  0  0  0  0  0  0
    6.1521   -1.8914    0.7477 C   0  0  0  0  0  0  0  0  0  0  0  0
    7.1479   -2.7072    0.1820 C   0  0  0  0  0  0  0  0  0  0  0  0
    8.4776   -2.6027    0.5960 C   0  0  0  0  0  0  0  0  0  0  0  0
    8.8250   -1.6730    1.5772 C   0  0  0  0  0  0  0  0  0  0  0  0
    7.8435   -0.8510    2.1502 C   0  0  0  0  0  0  0  0  0  0  0  0
    6.5179   -0.9650    1.7383 C   0  0  0  0  0  0  0  0  0  0  0  0
    5.5860   -0.1494    2.3157 O   0  0  0  0  0  0  0  0  0  0  0  0
    2.0347   -0.3087   -2.5441 H   0  0  0  0  0  0  0  0  0  0  0  0
    1.4293    1.2721   -2.0510 H   0  0  0  0  0  0  0  0  0  0  0  0
   -4.9517    1.0900    0.7235 H   0  0  0  0  0  0  0  0  0  0  0  0
   -7.0596    2.3042    0.9852 H   0  0  0  0  0  0  0  0  0  0  0  0
   -7.1659    4.7494    0.5681 H   0  0  0  0  0  0  0  0  0  0  0  0
   -5.1045    5.9784   -0.0747 H   0  0  0  0  0  0  0  0  0  0  0  0
   -1.9727    4.4543   -0.1831 H   0  0  0  0  0  0  0  0  0  0  0  0
   -4.0922    0.7307   -1.6865 H   0  0  0  0  0  0  0  0  0  0  0  0
   -2.7585   -0.1658   -2.3834 H   0  0  0  0  0  0  0  0  0  0  0  0
   -4.6396   -1.9289   -2.4677 H   0  0  0  0  0  0  0  0  0  0  0  0
   -5.4747   -3.9592   -1.3601 H   0  0  0  0  0  0  0  0  0  0  0  0
   -5.0212   -4.3548    1.0388 H   0  0  0  0  0  0  0  0  0  0  0  0
   -3.7103   -2.7032    2.3325 H   0  0  0  0  0  0  0  0  0  0  0  0
   -2.8585   -0.6718    1.2748 H   0  0  0  0  0  0  0  0  0  0  0  0
    2.3285   -1.8832   -0.5105 H   0  0  0  0  0  0  0  0  0  0  0  0
    4.0593   -0.4902    1.3938 H   0  0  0  0  0  0  0  0  0  0  0  0
    6.8902   -3.4284   -0.5923 H   0  0  0  0  0  0  0  0  0  0  0  0
    9.2381   -3.2413    0.1514 H   0  0  0  0  0  0  0  0  0  0  0  0
    9.8583   -1.5861    1.8951 H   0  0  0  0  0  0  0  0  0  0  0  0
    8.1349   -0.1351    2.9149 H   0  0  0  0  0  0  0  0  0  0  0  0
    6.0369    0.5428    2.8316 H   0  0  0  0  0  0  0  0  0  0  0  0
  1  2  2  0
  2  3  1  0
  3  4  1  0
  4  5  1  0
  5  6  2  0
  6  7  1  0
  7  8  2  0
  8  9  1  0
  9 10  2  0
 10 11  1  0
 11 12  2  0
 12 13  1  0
 13 14  2  0
 14 15  1  0
  8 16  1  0
 16 17  1  0
 17 18  1  0
 18 19  2  0
 19 20  1  0
 20 21  2  0
 21 22  1  0
 22 23  2  0
  2 24  1  0
 24 25  1  0
 25 26  1  0
 26 27  2  0
 26 28  1  0
 28 29  2  0
 29 30  1  0
 30 31  2  0
 31 32  1  0
 32 33  2  0
 33 34  1  0
 16  5  1  0
 23 18  1  0
 33 28  1  0
 14  9  1  0
  3 35  1  0
  3 36  1  0
 10 37  1  0
 11 38  1  0
 12 39  1  0
 13 40  1  0
 15 41  1  0
 17 42  1  0
 17 43  1  0
 19 44  1  0
 20 45  1  0
 21 46  1  0
 22 47  1  0
 23 48  1  0
 24 49  1  0
 25 50  1  0
 29 51  1  0
 30 52  1  0
 31 53  1  0
 32 54  1  0
 34 55  1  0
M  END
$$$$
