
     RDKit          3D

 44 47  0  0  0  0  0  0  0  0999 V2000
   -1.9569    4.8151   -0.8951 C   0  0  0  0  0  0  0  0  0  0  0  0
   -1.9772    3.4405   -0.4156 N   0  0  0  0  0  0  0  0  0  0  0  0
   -3.1519    2.8932    0.0635 C   0  0  0  0  0  0  0  0  0  0  0  0
   -4.2090    3.5210    0.1075 O   0  0  0  0  0  0  0  0  0  0  0  0
   -3.1171    1.4750    0.5363 C   0  0  0  0  0  0  0  0  0  0  0  0
   -4.3577    0.9318    0.9919 C   0  0  0  0  0  0  0  0  0  0  0  0
   -5.3410    0.4448    1.3714 N   0  0  0  0  0  0  0  0  0  0  0  0
   -1.9705    0.7573    0.5190 C   0  0  0  0  0  0  0  0  0  0  0  0
   -2.0005   -0.6558    0.9743 C   0  0  0  0  0  0  0  0  0  0  0  0
   -2.1813   -1.6889    0.0412 C   0  0  0  0  0  0  0  0  0  0  0  0
   -2.1748   -3.0194    0.4623 C   0  0  0  0  0  0  0  0  0  0  0  0
   -1.9912   -3.3124    1.8088 C   0  0  0  0  0  0  0  0  0  0  0  0
   -1.9800   -4.5899    2.2095 F   0  0  0  0  0  0  0  0  0  0  0  0
   -1.8135   -2.2999    2.7450 C   0  0  0  0  0  0  0  0  0  0  0  0
   -1.8165   -0.9672    2.3298 C   0  0  0  0  0  0  0  0  0  0  0  0
   -0.7379    1.4103    0.0189 C   0  0  0  0  0  0  0  0  0  0  0  0
    0.4915    0.7301   -0.0097 C   0  0  0  0  0  0  0  0  0  0  0  0
    1.6275    1.3534   -0.5262 C   0  0  0  0  0  0  0  0  0  0  0  0
    2.9488    0.6951   -0.5907 C   0  0  0  0  0  0  0  0  0  0  0  0
    3.9616    1.3763   -0.4425 O   0  0  0  0  0  0  0  0  0  0  0  0
    3.1096   -0.7673   -0.7938 C   0  0  0  0  0  0  0  0  0  0  0  0
    2.1970   -1.4902   -1.5730 C   0  0  0  0  0  0  0  0  0  0  0  0
    2.3491   -2.8690   -1.7175 C   0  0  0  0  0  0  0  0  0  0  0  0
    1.1988   -3.7508   -2.6443 Cl  0  0  0  0  0  0  0  0  0  0  0  0
    3.4121   -3.5365   -1.1165 C   0  0  0  0  0  0  0  0  0  0  0  0
    4.3448   -2.8141   -0.3714 C   0  0  0  0  0  0  0  0  0  0  0  0
    5.6617   -3.6731    0.3413 Cl  0  0  0  0  0  0  0  0  0  0  0  0
    4.2065   -1.4291   -0.2167 C   0  0  0  0  0  0  0  0  0  0  0  0
    5.1521   -0.7483    0.5086 O   0  0  0  0  0  0  0  0  0  0  0  0
    1.5066    2.6651   -0.9488 C   0  0  0  0  0  0  0  0  0  0  0  0
    0.3397    3.3520   -0.9256 N   0  0  0  0  0  0  0  0  0  0  0  0
   -0.7630    2.7254   -0.4469 C   0  0  0  0  0  0  0  0  0  0  0  0
   -1.2689    5.4044   -0.2801 H   0  0  0  0  0  0  0  0  0  0  0  0
   -2.9457    5.2787   -0.8381 H   0  0  0  0  0  0  0  0  0  0  0  0
   -1.6343    4.8315   -1.9413 H   0  0  0  0  0  0  0  0  0  0  0  0
   -2.3303   -1.4695   -1.0140 H   0  0  0  0  0  0  0  0  0  0  0  0
   -2.3163   -3.8289   -0.2477 H   0  0  0  0  0  0  0  0  0  0  0  0
   -1.6773   -2.5559    3.7915 H   0  0  0  0  0  0  0  0  0  0  0  0
   -1.6763   -0.1820    3.0700 H   0  0  0  0  0  0  0  0  0  0  0  0
    0.5654   -0.2795    0.3862 H   0  0  0  0  0  0  0  0  0  0  0  0
    1.3720   -0.9959   -2.0793 H   0  0  0  0  0  0  0  0  0  0  0  0
    3.5215   -4.6119   -1.2337 H   0  0  0  0  0  0  0  0  0  0  0  0
    5.0634    0.2135    0.3241 H   0  0  0  0  0  0  0  0  0  0  0  0
    2.3596    3.2210   -1.3325 H   0  0  0  0  0  0  0  0  0  0  0  0
  1  2  1  0
  2  3  1  0
  3  4  2  0
  3  5  1  0
  5  6  1  0
  6  7  3  0
  5  8  2  0
  8  9  1  0
  9 10  2  0
 10 11  1  0
 11 12  2  0
 12 13  1  0
 12 14  1  0
 14 15  2  0
  8 16  1  0
 16 17  2  0
 17 18  1  0
 18 19  1  0
 19 20  2  0
 19 21  1  0
 21 22  2  0
 22 23  1  0
 23 24  1  0
 23 25  2  0
 25 26  1  0
 26 27  1  0
 26 28  2  0
 28 29  1  0
 18 30  2  0
 30 31  1  0
 31 32  2  0
 32  2  1  0
 15  9  1  0
 32 16  1  0
 28 21  1  0
  1 33  1  0
  1 34  1  0
  1 35  1  0
 10 36  1  0
 11 37  1  0
 14 38  1  0
 15 39  1  0
 17 40  1  0
 22 41  1  0
 25 42  1  0
 29 43  1  0
 30 44  1  0
M  END
$$$$
