
     RDKit          3D

 69 73  0  0  0  0  0  0  0  0999 V2000
    5.2831   -4.0628   -3.1770 C   0  0  0  0  0  0  0  0  0  0  0  0
    5.0380   -2.6720   -3.0078 O   0  0  0  0  0  0  0  0  0  0  0  0
    4.6561   -2.2507   -1.7618 C   0  0  0  0  0  0  0  0  0  0  0  0
    4.5226   -3.0581   -0.6272 C   0  0  0  0  0  0  0  0  0  0  0  0
    4.1126   -2.5007    0.5880 C   0  0  0  0  0  0  0  0  0  0  0  0
    3.9419   -3.1757    1.7670 O   0  0  0  0  0  0  0  0  0  0  0  0
    4.2321   -4.5670    1.7682 C   0  0  0  0  0  0  0  0  0  0  0  0
    3.8373   -1.1333    0.6618 C   0  0  0  0  0  0  0  0  0  0  0  0
    3.9740   -0.3128   -0.4632 C   0  0  0  0  0  0  0  0  0  0  0  0
    3.6658    1.1170   -0.3741 C   0  0  0  0  0  0  0  0  0  0  0  0
    4.9569    2.2353   -0.4473 S   0  0  0  0  0  0  0  0  0  0  0  0
    3.9156    3.5866   -0.2481 C   0  0  0  0  0  0  0  0  0  0  0  0
    4.2909    4.9429   -0.1987 C   0  0  0  0  0  0  0  0  0  0  0  0
    3.3035    5.9212   -0.0342 C   0  0  0  0  0  0  0  0  0  0  0  0
    1.9662    5.5650    0.0758 C   0  0  0  0  0  0  0  0  0  0  0  0
    0.9144    6.4255    0.2352 O   0  0  0  0  0  0  0  0  0  0  0  0
    1.2185    7.8132    0.2922 C   0  0  0  0  0  0  0  0  0  0  0  0
    1.6068    4.2128    0.0253 C   0  0  0  0  0  0  0  0  0  0  0  0
    2.5819    3.1933   -0.1336 C   0  0  0  0  0  0  0  0  0  0  0  0
    2.4475    1.7556   -0.2061 C   0  0  0  0  0  0  0  0  0  0  0  0
    1.1989    1.0080   -0.1136 C   0  0  0  0  0  0  0  0  0  0  0  0
    0.6506    0.4015   -1.2484 C   0  0  0  0  0  0  0  0  0  0  0  0
   -0.5461   -0.3184   -1.1570 C   0  0  0  0  0  0  0  0  0  0  0  0
   -1.2022   -0.4350    0.0688 C   0  0  0  0  0  0  0  0  0  0  0  0
   -2.3665   -1.1140    0.2976 O   0  0  0  0  0  0  0  0  0  0  0  0
   -3.0197   -1.6894   -0.8366 C   0  0  0  0  0  0  0  0  0  0  0  0
   -4.3182   -2.3899   -0.3886 C   0  0  0  0  0  0  0  0  0  0  0  0
   -5.4894   -1.4994   -0.2443 N   0  0  0  0  0  0  0  0  0  0  0  0
   -5.2549   -0.4336    0.7454 C   0  0  0  0  0  0  0  0  0  0  0  0
   -6.5570    0.1984    1.2347 C   0  0  0  0  0  0  0  0  0  0  0  0
   -7.4414   -0.8266    1.9438 C   0  0  0  0  0  0  0  0  0  0  0  0
   -7.1820   -2.2504    1.4558 C   0  0  0  0  0  0  0  0  0  0  0  0
   -6.7244   -2.2632   -0.0007 C   0  0  0  0  0  0  0  0  0  0  0  0
   -0.6534    0.1756    1.2000 C   0  0  0  0  0  0  0  0  0  0  0  0
    0.5392    0.8975    1.1132 C   0  0  0  0  0  0  0  0  0  0  0  0
    4.3853   -0.8825   -1.6731 C   0  0  0  0  0  0  0  0  0  0  0  0
    5.5370   -4.2328   -4.2283 H   0  0  0  0  0  0  0  0  0  0  0  0
    6.1362   -4.3878   -2.5711 H   0  0  0  0  0  0  0  0  0  0  0  0
    4.3879   -4.6537   -2.9524 H   0  0  0  0  0  0  0  0  0  0  0  0
    4.7356   -4.1169   -0.6901 H   0  0  0  0  0  0  0  0  0  0  0  0
    3.5655   -5.1092    1.0895 H   0  0  0  0  0  0  0  0  0  0  0  0
    4.0567   -4.9452    2.7803 H   0  0  0  0  0  0  0  0  0  0  0  0
    5.2835   -4.7500    1.5230 H   0  0  0  0  0  0  0  0  0  0  0  0
    3.5149   -0.7088    1.6105 H   0  0  0  0  0  0  0  0  0  0  0  0
    5.3355    5.2285   -0.2874 H   0  0  0  0  0  0  0  0  0  0  0  0
    3.6237    6.9574    0.0022 H   0  0  0  0  0  0  0  0  0  0  0  0
    1.6829    8.1550   -0.6389 H   0  0  0  0  0  0  0  0  0  0  0  0
    0.2767    8.3578    0.4128 H   0  0  0  0  0  0  0  0  0  0  0  0
    1.8494    8.0426    1.1574 H   0  0  0  0  0  0  0  0  0  0  0  0
    0.5564    3.9416    0.1094 H   0  0  0  0  0  0  0  0  0  0  0  0
    1.1518    0.4835   -2.2103 H   0  0  0  0  0  0  0  0  0  0  0  0
   -0.9331   -0.7765   -2.0606 H   0  0  0  0  0  0  0  0  0  0  0  0
   -2.3631   -2.4498   -1.2772 H   0  0  0  0  0  0  0  0  0  0  0  0
   -3.2459   -0.9244   -1.5898 H   0  0  0  0  0  0  0  0  0  0  0  0
   -4.5546   -3.1263   -1.1674 H   0  0  0  0  0  0  0  0  0  0  0  0
   -4.1429   -2.9376    0.5461 H   0  0  0  0  0  0  0  0  0  0  0  0
   -4.6371    0.3494    0.2919 H   0  0  0  0  0  0  0  0  0  0  0  0
   -4.7124   -0.8198    1.6187 H   0  0  0  0  0  0  0  0  0  0  0  0
   -7.1000    0.6244    0.3805 H   0  0  0  0  0  0  0  0  0  0  0  0
   -6.3440    1.0325    1.9135 H   0  0  0  0  0  0  0  0  0  0  0  0
   -8.4932   -0.5592    1.7852 H   0  0  0  0  0  0  0  0  0  0  0  0
   -7.2738   -0.7851    3.0269 H   0  0  0  0  0  0  0  0  0  0  0  0
   -8.0914   -2.8503    1.5736 H   0  0  0  0  0  0  0  0  0  0  0  0
   -6.4155   -2.7216    2.0841 H   0  0  0  0  0  0  0  0  0  0  0  0
   -7.5152   -1.8186   -0.6190 H   0  0  0  0  0  0  0  0  0  0  0  0
   -6.6343   -3.2999   -0.3476 H   0  0  0  0  0  0  0  0  0  0  0  0
   -1.1598    0.0868    2.1580 H   0  0  0  0  0  0  0  0  0  0  0  0
    0.9496    1.3626    2.0061 H   0  0  0  0  0  0  0  0  0  0  0  0
    4.4884   -0.2625   -2.5611 H   0  0  0  0  0  0  0  0  0  0  0  0
  1  2  1  0
  2  3  1  0
  3  4  2  0
  4  5  1  0
  5  6  1  0
  6  7  1  0
  5  8  2  0
  8  9  1  0
  9 10  1  0
 10 11  1  0
 11 12  1  0
 12 13  2  0
 13 14  1  0
 14 15  2  0
 15 16  1  0
 16 17  1  0
 15 18  1  0
 18 19  2  0
 19 20  1  0
 20 21  1  0
 21 22  2  0
 22 23  1  0
 23 24  2  0
 24 25  1  0
 25 26  1  0
 26 27  1  0
 27 28  1  0
 28 29  1  0
 29 30  1  0
 30 31  1  0
 31 32  1  0
 32 33  1  0
 24 34  1  0
 34 35  2  0
  9 36  2  0
 36  3  1  0
 20 10  2  0
 35 21  1  0
 19 12  1  0
 33 28  1  0
  1 37  1  0
  1 38  1  0
  1 39  1  0
  4 40  1  0
  7 41  1  0
  7 42  1  0
  7 43  1  0
  8 44  1  0
 13 45  1  0
 14 46  1  0
 17 47  1  0
 17 48  1  0
 17 49  1  0
 18 50  1  0
 22 51  1  0
 23 52  1  0
 26 53  1  0
 26 54  1  0
 27 55  1  0
 27 56  1  0
 29 57  1  0
 29 58  1  0
 30 59  1  0
 30 60  1  0
 31 61  1  0
 31 62  1  0
 32 63  1  0
 32 64  1  0
 33 65  1  0
 33 66  1  0
 34 67  1  0
 35 68  1  0
 36 69  1  0
M  END
$$$$
