
     RDKit          3D

 57 60  0  0  0  0  0  0  0  0999 V2000
   -8.1983    2.6159    2.2991 C   0  0  0  0  0  0  0  0  0  0  0  0
   -8.1593    2.3107    0.8086 C   0  0  0  0  0  0  0  0  0  0  0  0
   -6.8572    1.6704    0.3993 C   0  0  0  0  0  0  0  0  0  0  0  0
   -6.7007    0.2829    0.4466 C   0  0  0  0  0  0  0  0  0  0  0  0
   -5.4893   -0.3089    0.0729 C   0  0  0  0  0  0  0  0  0  0  0  0
   -4.3934    0.4610   -0.3487 C   0  0  0  0  0  0  0  0  0  0  0  0
   -3.1220   -0.1854   -0.7360 C   0  0  0  0  0  0  0  0  0  0  0  0
   -1.8868    0.4125   -0.5595 C   0  0  0  0  0  0  0  0  0  0  0  0
   -0.7437   -0.2824   -0.9580 C   0  0  0  0  0  0  0  0  0  0  0  0
    0.5497    0.3868   -0.6828 C   0  0  0  0  0  0  0  0  0  0  0  0
    0.7115    1.5214   -1.1123 O   0  0  0  0  0  0  0  0  0  0  0  0
    1.4126   -0.3518    0.1045 N   0  0  0  0  0  0  0  0  0  0  0  0
    2.6963    0.0217    0.5496 C   0  0  0  0  0  0  0  0  0  0  0  0
    3.3061    1.2398    0.2391 C   0  0  0  0  0  0  0  0  0  0  0  0
    4.5846    1.5395    0.7231 C   0  0  0  0  0  0  0  0  0  0  0  0
    5.2627    0.6086    1.5119 C   0  0  0  0  0  0  0  0  0  0  0  0
    6.8629    1.0061    2.1634 S   0  0  0  0  0  6  0  0  0  0  0  0
    7.1236    0.1841    3.3222 O   0  0  0  0  0  0  0  0  0  0  0  0
    6.9552    2.4490    2.2450 O   0  0  0  0  0  0  0  0  0  0  0  0
    7.8955    0.5745    0.9392 N   0  0  0  0  0  0  0  0  0  0  0  0
    8.1261   -0.7330    0.5025 C   0  0  0  0  0  0  0  0  0  0  0  0
    9.1982   -0.8509   -0.5452 C   0  0  0  0  0  0  0  0  0  0  0  0
    7.4831   -1.6975    0.8903 O   0  0  0  0  0  0  0  0  0  0  0  0
    4.6620   -0.6066    1.8401 C   0  0  0  0  0  0  0  0  0  0  0  0
    3.3850   -0.8975    1.3536 C   0  0  0  0  0  0  0  0  0  0  0  0
   -0.8350   -1.5496   -1.5726 C   0  0  0  0  0  0  0  0  0  0  0  0
    0.2610   -2.2931   -2.0856 C   0  0  0  0  0  0  0  0  0  0  0  0
    0.0717   -3.5482   -2.6605 C   0  0  0  0  0  0  0  0  0  0  0  0
   -1.2094   -4.0741   -2.7427 C   0  0  0  0  0  0  0  0  0  0  0  0
   -2.2929   -3.3349   -2.2620 C   0  0  0  0  0  0  0  0  0  0  0  0
   -2.1322   -2.0810   -1.6875 C   0  0  0  0  0  0  0  0  0  0  0  0
   -3.2294   -1.4284   -1.2691 N   0  0  0  0  0  0  0  0  0  0  0  0
   -4.5683    1.8561   -0.3907 C   0  0  0  0  0  0  0  0  0  0  0  0
   -5.7789    2.4530   -0.0187 C   0  0  0  0  0  0  0  0  0  0  0  0
   -7.3949    3.3059    2.5842 H   0  0  0  0  0  0  0  0  0  0  0  0
   -9.1533    3.0805    2.5621 H   0  0  0  0  0  0  0  0  0  0  0  0
   -8.0867    1.7035    2.8960 H   0  0  0  0  0  0  0  0  0  0  0  0
   -8.9954    1.6501    0.5432 H   0  0  0  0  0  0  0  0  0  0  0  0
   -8.3126    3.2361    0.2368 H   0  0  0  0  0  0  0  0  0  0  0  0
   -7.5202   -0.3518    0.7715 H   0  0  0  0  0  0  0  0  0  0  0  0
   -5.4027   -1.3940    0.1145 H   0  0  0  0  0  0  0  0  0  0  0  0
   -1.7923    1.3917   -0.1021 H   0  0  0  0  0  0  0  0  0  0  0  0
    1.0792   -1.2536    0.4249 H   0  0  0  0  0  0  0  0  0  0  0  0
    2.8078    1.9870   -0.3710 H   0  0  0  0  0  0  0  0  0  0  0  0
    5.0308    2.5026    0.4855 H   0  0  0  0  0  0  0  0  0  0  0  0
    8.4010    1.3636    0.5500 H   0  0  0  0  0  0  0  0  0  0  0  0
    9.5500   -1.8874   -0.5943 H   0  0  0  0  0  0  0  0  0  0  0  0
   10.0483   -0.2060   -0.2954 H   0  0  0  0  0  0  0  0  0  0  0  0
    8.7893   -0.5576   -1.5173 H   0  0  0  0  0  0  0  0  0  0  0  0
    5.1822   -1.3330    2.4624 H   0  0  0  0  0  0  0  0  0  0  0  0
    2.9385   -1.8534    1.6165 H   0  0  0  0  0  0  0  0  0  0  0  0
    1.2724   -1.8899   -2.0608 H   0  0  0  0  0  0  0  0  0  0  0  0
    0.9196   -4.1074   -3.0492 H   0  0  0  0  0  0  0  0  0  0  0  0
   -1.3754   -5.0508   -3.1904 H   0  0  0  0  0  0  0  0  0  0  0  0
   -3.2968   -3.7474   -2.3463 H   0  0  0  0  0  0  0  0  0  0  0  0
   -3.7670    2.5053   -0.7332 H   0  0  0  0  0  0  0  0  0  0  0  0
   -5.8730    3.5354   -0.0655 H   0  0  0  0  0  0  0  0  0  0  0  0
  1  2  1  0
  2  3  1  0
  3  4  2  0
  4  5  1  0
  5  6  2  0
  6  7  1  0
  7  8  2  0
  8  9  1  0
  9 10  1  0
 10 11  2  0
 10 12  1  0
 12 13  1  0
 13 14  2  0
 14 15  1  0
 15 16  2  0
 16 17  1  0
 17 18  2  0
 17 19  2  0
 17 20  1  0
 20 21  1  0
 21 22  1  0
 21 23  2  0
 16 24  1  0
 24 25  2  0
  9 26  2  0
 26 27  1  0
 27 28  2  0
 28 29  1  0
 29 30  2  0
 30 31  1  0
 31 32  2  0
  6 33  1  0
 33 34  2  0
 34  3  1  0
 32  7  1  0
 25 13  1  0
 31 26  1  0
  1 35  1  0
  1 36  1  0
  1 37  1  0
  2 38  1  0
  2 39  1  0
  4 40  1  0
  5 41  1  0
  8 42  1  0
 12 43  1  0
 14 44  1  0
 15 45  1  0
 20 46  1  0
 22 47  1  0
 22 48  1  0
 22 49  1  0
 24 50  1  0
 25 51  1  0
 27 52  1  0
 28 53  1  0
 29 54  1  0
 30 55  1  0
 33 56  1  0
 34 57  1  0
M  END
$$$$
