
     RDKit          3D

 63 67  0  0  0  0  0  0  0  0999 V2000
    3.9047    5.3666   -3.9717 C   0  0  0  0  0  0  0  0  0  0  0  0
    2.9580    4.3447   -4.2634 O   0  0  0  0  0  0  0  0  0  0  0  0
    3.1287    3.1458   -3.6280 C   0  0  0  0  0  0  0  0  0  0  0  0
    4.1207    2.8450   -2.6949 C   0  0  0  0  0  0  0  0  0  0  0  0
    4.1791    1.5712   -2.1165 C   0  0  0  0  0  0  0  0  0  0  0  0
    3.2478    0.5829   -2.4630 C   0  0  0  0  0  0  0  0  0  0  0  0
    3.2971   -0.7456   -1.8407 C   0  0  0  0  0  0  0  0  0  0  0  0
    4.6626   -1.7315   -2.1445 S   0  0  0  0  0  0  0  0  0  0  0  0
    4.0565   -3.0240   -1.1925 C   0  0  0  0  0  0  0  0  0  0  0  0
    4.6814   -4.2638   -0.9560 C   0  0  0  0  0  0  0  0  0  0  0  0
    4.0451   -5.2074   -0.1408 C   0  0  0  0  0  0  0  0  0  0  0  0
    2.8118   -4.9293    0.4321 C   0  0  0  0  0  0  0  0  0  0  0  0
    2.0939   -5.7637    1.2447 O   0  0  0  0  0  0  0  0  0  0  0  0
    2.6588   -7.0389    1.5193 C   0  0  0  0  0  0  0  0  0  0  0  0
    2.2016   -3.6933    0.1879 C   0  0  0  0  0  0  0  0  0  0  0  0
    2.8136   -2.7139   -0.6393 C   0  0  0  0  0  0  0  0  0  0  0  0
    2.3732   -1.3905   -1.0303 C   0  0  0  0  0  0  0  0  0  0  0  0
    1.1101   -0.7626   -0.6468 C   0  0  0  0  0  0  0  0  0  0  0  0
    1.0945    0.3992    0.1332 C   0  0  0  0  0  0  0  0  0  0  0  0
   -0.1196    0.9996    0.4886 C   0  0  0  0  0  0  0  0  0  0  0  0
   -1.3277    0.4378    0.0748 C   0  0  0  0  0  0  0  0  0  0  0  0
   -2.5775    0.9164    0.3542 O   0  0  0  0  0  0  0  0  0  0  0  0
   -2.6612    2.1416    1.0860 C   0  0  0  0  0  0  0  0  0  0  0  0
   -4.1411    2.4998    1.3349 C   0  0  0  0  0  0  0  0  0  0  0  0
   -4.6867    1.9127    2.5725 N   0  0  0  0  0  0  0  0  0  0  0  0
   -5.9408    2.5653    2.9845 C   0  0  0  0  0  0  0  0  0  0  0  0
   -6.5612    1.8312    4.1832 C   0  0  0  0  0  0  0  0  0  0  0  0
   -6.8976    0.4593    3.9214 O   0  0  0  0  0  0  0  0  0  0  0  0
   -6.2928   -0.0457    2.7269 C   0  0  0  0  0  0  0  0  0  0  0  0
   -4.8460    0.4432    2.5184 C   0  0  0  0  0  0  0  0  0  0  0  0
   -1.3110   -0.7276   -0.6961 C   0  0  0  0  0  0  0  0  0  0  0  0
   -0.1018   -1.3262   -1.0577 C   0  0  0  0  0  0  0  0  0  0  0  0
    2.2536    0.8916   -3.3973 C   0  0  0  0  0  0  0  0  0  0  0  0
    2.1974    2.1635   -3.9739 C   0  0  0  0  0  0  0  0  0  0  0  0
    3.8640    5.6523   -2.9150 H   0  0  0  0  0  0  0  0  0  0  0  0
    3.6401    6.2480   -4.5642 H   0  0  0  0  0  0  0  0  0  0  0  0
    4.9160    5.0609   -4.2615 H   0  0  0  0  0  0  0  0  0  0  0  0
    4.8632    3.5746   -2.3890 H   0  0  0  0  0  0  0  0  0  0  0  0
    4.9562    1.3596   -1.3854 H   0  0  0  0  0  0  0  0  0  0  0  0
    5.6484   -4.4872   -1.3998 H   0  0  0  0  0  0  0  0  0  0  0  0
    4.5519   -6.1525    0.0245 H   0  0  0  0  0  0  0  0  0  0  0  0
    3.6036   -6.9414    2.0649 H   0  0  0  0  0  0  0  0  0  0  0  0
    2.7901   -7.6200    0.6001 H   0  0  0  0  0  0  0  0  0  0  0  0
    1.9574   -7.5837    2.1589 H   0  0  0  0  0  0  0  0  0  0  0  0
    1.2380   -3.4829    0.6481 H   0  0  0  0  0  0  0  0  0  0  0  0
    2.0266    0.8482    0.4690 H   0  0  0  0  0  0  0  0  0  0  0  0
   -0.0833    1.9013    1.0905 H   0  0  0  0  0  0  0  0  0  0  0  0
   -2.2099    2.9418    0.4855 H   0  0  0  0  0  0  0  0  0  0  0  0
   -2.1315    2.0673    2.0443 H   0  0  0  0  0  0  0  0  0  0  0  0
   -4.1813    3.5925    1.4366 H   0  0  0  0  0  0  0  0  0  0  0  0
   -4.7598    2.2226    0.4711 H   0  0  0  0  0  0  0  0  0  0  0  0
   -6.6564    2.5793    2.1532 H   0  0  0  0  0  0  0  0  0  0  0  0
   -5.7405    3.6042    3.2702 H   0  0  0  0  0  0  0  0  0  0  0  0
   -7.4804    2.3405    4.4980 H   0  0  0  0  0  0  0  0  0  0  0  0
   -5.8724    1.8468    5.0387 H   0  0  0  0  0  0  0  0  0  0  0  0
   -6.9233    0.2361    1.8732 H   0  0  0  0  0  0  0  0  0  0  0  0
   -6.3089   -1.1387    2.7897 H   0  0  0  0  0  0  0  0  0  0  0  0
   -4.2197    0.0283    3.3211 H   0  0  0  0  0  0  0  0  0  0  0  0
   -4.4847    0.0147    1.5747 H   0  0  0  0  0  0  0  0  0  0  0  0
   -2.2485   -1.1725   -1.0211 H   0  0  0  0  0  0  0  0  0  0  0  0
   -0.1148   -2.2295   -1.6633 H   0  0  0  0  0  0  0  0  0  0  0  0
    1.5152    0.1468   -3.6843 H   0  0  0  0  0  0  0  0  0  0  0  0
    1.4192    2.3890   -4.6989 H   0  0  0  0  0  0  0  0  0  0  0  0
  1  2  1  0
  2  3  1  0
  3  4  2  0
  4  5  1  0
  5  6  2  0
  6  7  1  0
  7  8  1  0
  8  9  1  0
  9 10  2  0
 10 11  1  0
 11 12  2  0
 12 13  1  0
 13 14  1  0
 12 15  1  0
 15 16  2  0
 16 17  1  0
 17 18  1  0
 18 19  2  0
 19 20  1  0
 20 21  2  0
 21 22  1  0
 22 23  1  0
 23 24  1  0
 24 25  1  0
 25 26  1  0
 26 27  1  0
 27 28  1  0
 28 29  1  0
 29 30  1  0
 21 31  1  0
 31 32  2  0
  6 33  1  0
 33 34  2  0
 34  3  1  0
 17  7  2  0
 32 18  1  0
 16  9  1  0
 30 25  1  0
  1 35  1  0
  1 36  1  0
  1 37  1  0
  4 38  1  0
  5 39  1  0
 10 40  1  0
 11 41  1  0
 14 42  1  0
 14 43  1  0
 14 44  1  0
 15 45  1  0
 19 46  1  0
 20 47  1  0
 23 48  1  0
 23 49  1  0
 24 50  1  0
 24 51  1  0
 26 52  1  0
 26 53  1  0
 27 54  1  0
 27 55  1  0
 29 56  1  0
 29 57  1  0
 30 58  1  0
 30 59  1  0
 31 60  1  0
 32 61  1  0
 33 62  1  0
 34 63  1  0
M  END
$$$$
