
     RDKit          3D

 69 74  0  0  0  0  0  0  0  0999 V2000
    2.1341    0.0000    2.3670 O   0  0  0  0  0  0  0  0  0  0  0  0
    1.9267   -1.0126    1.3734 C   0  0  0  0  0  0  0  0  0  0  0  0
    3.2785   -1.6323    0.9763 C   0  0  0  0  0  0  0  0  0  0  0  0
    4.0533   -0.6849    0.2179 O   0  0  0  0  0  0  0  0  0  0  0  0
    5.2298   -1.2207   -0.2306 C   0  0  0  0  0  0  0  0  0  0  0  0
    5.1736   -2.2346   -1.1978 C   0  0  0  0  0  0  0  0  0  0  0  0
    6.3408   -2.7779   -1.7303 C   0  0  0  0  0  0  0  0  0  0  0  0
    7.5789   -2.2887   -1.3234 C   0  0  0  0  0  0  0  0  0  0  0  0
    7.6650   -1.2506   -0.3908 C   0  0  0  0  0  0  0  0  0  0  0  0
    8.9628   -0.7892   -0.0658 N   0  0  0  0  0  0  0  0  0  0  0  0
    9.0777    0.1885    0.7762 C   0  0  0  0  0  0  0  0  0  0  0  0
    7.9347    0.7930    1.3870 C   0  0  0  0  0  0  0  0  0  0  0  0
    7.8393    1.8240    2.2971 C   0  0  0  0  0  0  0  0  0  0  0  0
    6.4656    2.0002    2.5768 C   0  0  0  0  0  0  0  0  0  0  0  0
    5.7701    1.0769    1.8233 C   0  0  0  0  0  0  0  0  0  0  0  0
    6.6664    0.3400    1.0856 N   0  0  0  0  0  0  0  0  0  0  0  0
    6.4764   -0.7126    0.1582 C   0  0  0  0  0  0  0  0  0  0  0  0
    1.1793   -0.4354    0.1434 C   0  0  0  0  0  0  0  0  0  0  0  0
   -0.1479    0.1461    0.4487 N   0  0  0  0  0  0  0  0  0  0  0  0
   -0.6908    0.8247   -0.7482 C   0  0  0  0  0  0  0  0  0  0  0  0
   -2.1261    1.3627   -0.5406 C   0  0  0  0  0  0  0  0  0  0  0  0
   -3.0717    0.2894   -0.1479 N   0  0  0  0  0  0  0  0  0  0  0  0
   -4.4541    0.8165    0.0644 C   0  0  0  0  0  0  0  0  0  0  0  0
   -5.4705   -0.2652    0.4636 C   0  0  0  0  0  0  0  0  0  0  0  0
   -5.4463   -1.5519   -0.1012 C   0  0  0  0  0  0  0  0  0  0  0  0
   -6.3914   -2.5118    0.2636 C   0  0  0  0  0  0  0  0  0  0  0  0
   -7.3881   -2.1953    1.1824 C   0  0  0  0  0  0  0  0  0  0  0  0
   -7.4414   -0.9196    1.7370 C   0  0  0  0  0  0  0  0  0  0  0  0
   -6.4908    0.0394    1.3803 C   0  0  0  0  0  0  0  0  0  0  0  0
   -5.0012    1.5948   -1.1400 C   0  0  0  0  0  0  0  0  0  0  0  0
   -5.5483    2.8765   -0.9587 C   0  0  0  0  0  0  0  0  0  0  0  0
   -6.0571    3.5937   -2.0427 C   0  0  0  0  0  0  0  0  0  0  0  0
   -6.0265    3.0412   -3.3218 C   0  0  0  0  0  0  0  0  0  0  0  0
   -5.4928    1.7699   -3.5189 C   0  0  0  0  0  0  0  0  0  0  0  0
   -4.9865    1.0500   -2.4357 C   0  0  0  0  0  0  0  0  0  0  0  0
   -2.5363   -0.3192    1.0949 C   0  0  0  0  0  0  0  0  0  0  0  0
   -1.1092   -0.8801    0.8970 C   0  0  0  0  0  0  0  0  0  0  0  0
    2.2591    0.8442    1.8945 H   0  0  0  0  0  0  0  0  0  0  0  0
    1.3358   -1.7996    1.8537 H   0  0  0  0  0  0  0  0  0  0  0  0
    3.0814   -2.5345    0.3879 H   0  0  0  0  0  0  0  0  0  0  0  0
    3.8395   -1.9013    1.8805 H   0  0  0  0  0  0  0  0  0  0  0  0
    4.2153   -2.5952   -1.5624 H   0  0  0  0  0  0  0  0  0  0  0  0
    6.2886   -3.5690   -2.4741 H   0  0  0  0  0  0  0  0  0  0  0  0
    8.4905   -2.7047   -1.7445 H   0  0  0  0  0  0  0  0  0  0  0  0
   10.0818    0.5635    1.0331 H   0  0  0  0  0  0  0  0  0  0  0  0
    8.6660    2.3816    2.7204 H   0  0  0  0  0  0  0  0  0  0  0  0
    6.0230    2.7184    3.2556 H   0  0  0  0  0  0  0  0  0  0  0  0
    4.7073    0.9018    1.7733 H   0  0  0  0  0  0  0  0  0  0  0  0
    1.7926    0.3742   -0.2712 H   0  0  0  0  0  0  0  0  0  0  0  0
    1.0897   -1.2042   -0.6334 H   0  0  0  0  0  0  0  0  0  0  0  0
   -0.0453    1.6735   -1.0065 H   0  0  0  0  0  0  0  0  0  0  0  0
   -0.6926    0.1396   -1.6070 H   0  0  0  0  0  0  0  0  0  0  0  0
   -2.4273    1.8234   -1.4877 H   0  0  0  0  0  0  0  0  0  0  0  0
   -2.1091    2.1588    0.2165 H   0  0  0  0  0  0  0  0  0  0  0  0
   -4.3910    1.5201    0.9076 H   0  0  0  0  0  0  0  0  0  0  0  0
   -4.6749   -1.8145   -0.8209 H   0  0  0  0  0  0  0  0  0  0  0  0
   -6.3470   -3.5048   -0.1726 H   0  0  0  0  0  0  0  0  0  0  0  0
   -8.1281   -2.9406    1.4601 H   0  0  0  0  0  0  0  0  0  0  0  0
   -8.2273   -0.6700    2.4444 H   0  0  0  0  0  0  0  0  0  0  0  0
   -6.5539    1.0323    1.8174 H   0  0  0  0  0  0  0  0  0  0  0  0
   -5.5840    3.3238    0.0321 H   0  0  0  0  0  0  0  0  0  0  0  0
   -6.4802    4.5832   -1.8892 H   0  0  0  0  0  0  0  0  0  0  0  0
   -6.4234    3.5997   -4.1650 H   0  0  0  0  0  0  0  0  0  0  0  0
   -5.4694    1.3381   -4.5166 H   0  0  0  0  0  0  0  0  0  0  0  0
   -4.5679    0.0601   -2.6018 H   0  0  0  0  0  0  0  0  0  0  0  0
   -2.5254    0.4148    1.9122 H   0  0  0  0  0  0  0  0  0  0  0  0
   -3.1599   -1.1543    1.4262 H   0  0  0  0  0  0  0  0  0  0  0  0
   -0.7905   -1.2942    1.8594 H   0  0  0  0  0  0  0  0  0  0  0  0
   -1.1497   -1.7093    0.1779 H   0  0  0  0  0  0  0  0  0  0  0  0
  1  2  1  0
  2  3  1  0
  3  4  1  0
  4  5  1  0
  5  6  2  0
  6  7  1  0
  7  8  2  0
  8  9  1  0
  9 10  1  0
 10 11  2  0
 11 12  1  0
 12 13  2  0
 13 14  1  0
 14 15  2  0
 15 16  1  0
 16 17  1  0
  2 18  1  0
 18 19  1  0
 19 20  1  0
 20 21  1  0
 21 22  1  0
 22 23  1  0
 23 24  1  0
 24 25  2  0
 25 26  1  0
 26 27  2  0
 27 28  1  0
 28 29  2  0
 23 30  1  0
 30 31  2  0
 31 32  1  0
 32 33  2  0
 33 34  1  0
 34 35  2  0
 22 36  1  0
 36 37  1  0
 17  5  1  0
 37 19  1  0
 17  9  2  0
 29 24  1  0
 35 30  1  0
 16 12  1  0
  1 38  1  0
  2 39  1  0
  3 40  1  0
  3 41  1  0
  6 42  1  0
  7 43  1  0
  8 44  1  0
 11 45  1  0
 13 46  1  0
 14 47  1  0
 15 48  1  0
 18 49  1  0
 18 50  1  0
 20 51  1  0
 20 52  1  0
 21 53  1  0
 21 54  1  0
 23 55  1  0
 25 56  1  0
 26 57  1  0
 27 58  1  0
 28 59  1  0
 29 60  1  0
 31 61  1  0
 32 62  1  0
 33 63  1  0
 34 64  1  0
 35 65  1  0
 36 66  1  0
 36 67  1  0
 37 68  1  0
 37 69  1  0
M  END
$$$$
