
     RDKit          3D

 59 62  0  0  0  0  0  0  0  0999 V2000
    2.9582    4.4582    3.8629 C   0  0  0  0  0  0  0  0  0  0  0  0
    3.7897    3.7761    2.9382 O   0  0  0  0  0  0  0  0  0  0  0  0
    3.3564    2.5597    2.4910 C   0  0  0  0  0  0  0  0  0  0  0  0
    2.1830    1.9116    2.8632 C   0  0  0  0  0  0  0  0  0  0  0  0
    1.8898    0.6398    2.3543 C   0  0  0  0  0  0  0  0  0  0  0  0
    2.7627    0.0043    1.4651 C   0  0  0  0  0  0  0  0  0  0  0  0
    2.4005   -1.3648    0.9820 C   0  0  0  0  0  0  0  0  0  0  0  0
    1.2669   -1.7984    1.2117 O   0  0  0  0  0  0  0  0  0  0  0  0
    3.4279   -2.2090    0.2550 C   0  0  0  0  0  0  0  0  0  0  0  0
    2.9950   -2.5400   -1.4760 S   0  0  0  0  0  0  0  0  0  0  0  0
    2.0257   -1.1745   -1.8880 C   0  0  0  0  0  0  0  0  0  0  0  0
    2.4842    0.0293   -2.1315 N   0  0  0  0  0  0  0  0  0  0  0  0
    1.4079    0.8232   -2.4365 N   0  0  0  0  0  0  0  0  0  0  0  0
    0.3102    0.0891   -2.3650 C   0  0  0  0  0  0  0  0  0  0  0  0
   -1.0640    0.5899   -2.6843 C   0  0  0  0  0  0  0  0  0  0  0  0
   -2.1814    0.1655   -1.8388 N   0  0  0  0  0  0  0  0  0  0  0  0
   -2.3188    0.5931   -0.5129 C   0  0  0  0  0  0  0  0  0  0  0  0
   -1.3620    1.3750    0.1453 C   0  0  0  0  0  0  0  0  0  0  0  0
   -1.5220    1.7467    1.4845 C   0  0  0  0  0  0  0  0  0  0  0  0
   -2.6313    1.3242    2.2148 C   0  0  0  0  0  0  0  0  0  0  0  0
   -2.7715    1.7085    3.6573 C   0  0  0  0  0  0  0  0  0  0  0  0
   -3.5838    0.5241    1.5823 C   0  0  0  0  0  0  0  0  0  0  0  0
   -3.4329    0.1429    0.2355 C   0  0  0  0  0  0  0  0  0  0  0  0
   -4.4885   -0.7381   -0.3803 C   0  0  0  0  0  0  0  0  0  0  0  0
    0.6580   -1.1920   -1.9863 N   0  0  0  0  0  0  0  0  0  0  0  0
   -0.2276   -2.2869   -1.6380 C   0  0  0  0  0  0  0  0  0  0  0  0
   -0.7293   -2.9929   -2.8419 C   0  0  0  0  0  0  0  0  0  0  0  0
   -1.9402   -2.9986   -3.5074 C   0  0  0  0  0  0  0  0  0  0  0  0
   -1.8182   -3.9413   -4.5555 C   0  0  0  0  0  0  0  0  0  0  0  0
   -0.5496   -4.4600   -4.4582 C   0  0  0  0  0  0  0  0  0  0  0  0
    0.1189   -3.8892   -3.4237 O   0  0  0  0  0  0  0  0  0  0  0  0
    3.9179    0.6776    1.0613 C   0  0  0  0  0  0  0  0  0  0  0  0
    4.2125    1.9412    1.5826 C   0  0  0  0  0  0  0  0  0  0  0  0
    2.0018    4.7386    3.4081 H   0  0  0  0  0  0  0  0  0  0  0  0
    2.8032    3.8686    4.7721 H   0  0  0  0  0  0  0  0  0  0  0  0
    3.4782    5.3773    4.1561 H   0  0  0  0  0  0  0  0  0  0  0  0
    1.4738    2.3636    3.5429 H   0  0  0  0  0  0  0  0  0  0  0  0
    0.9701    0.1448    2.6645 H   0  0  0  0  0  0  0  0  0  0  0  0
    4.4389   -1.8035    0.3189 H   0  0  0  0  0  0  0  0  0  0  0  0
    3.4590   -3.1797    0.7690 H   0  0  0  0  0  0  0  0  0  0  0  0
   -1.2898    0.2624   -3.7068 H   0  0  0  0  0  0  0  0  0  0  0  0
   -1.0456    1.6862   -2.7365 H   0  0  0  0  0  0  0  0  0  0  0  0
   -3.0703    0.2725   -2.3207 H   0  0  0  0  0  0  0  0  0  0  0  0
   -0.4691    1.7323   -0.3621 H   0  0  0  0  0  0  0  0  0  0  0  0
   -0.7553    2.3484    1.9598 H   0  0  0  0  0  0  0  0  0  0  0  0
   -3.7249    1.3684    4.0743 H   0  0  0  0  0  0  0  0  0  0  0  0
   -2.7302    2.7968    3.7639 H   0  0  0  0  0  0  0  0  0  0  0  0
   -1.9675    1.2561    4.2431 H   0  0  0  0  0  0  0  0  0  0  0  0
   -4.4492    0.1789    2.1454 H   0  0  0  0  0  0  0  0  0  0  0  0
   -5.1847   -1.1229    0.3732 H   0  0  0  0  0  0  0  0  0  0  0  0
   -4.0287   -1.6033   -0.8640 H   0  0  0  0  0  0  0  0  0  0  0  0
   -5.0672   -0.1683   -1.1138 H   0  0  0  0  0  0  0  0  0  0  0  0
    0.3082   -2.9927   -0.9943 H   0  0  0  0  0  0  0  0  0  0  0  0
   -1.0426   -1.9010   -1.0246 H   0  0  0  0  0  0  0  0  0  0  0  0
   -2.8092   -2.4084   -3.2517 H   0  0  0  0  0  0  0  0  0  0  0  0
   -2.5685   -4.2231   -5.2806 H   0  0  0  0  0  0  0  0  0  0  0  0
    0.0001   -5.2078   -5.0127 H   0  0  0  0  0  0  0  0  0  0  0  0
    4.6047    0.2693    0.3290 H   0  0  0  0  0  0  0  0  0  0  0  0
    5.1207    2.4523    1.2725 H   0  0  0  0  0  0  0  0  0  0  0  0
  1  2  1  0
  2  3  1  0
  3  4  2  0
  4  5  1  0
  5  6  2  0
  6  7  1  0
  7  8  2  0
  7  9  1  0
  9 10  1  0
 10 11  1  0
 11 12  2  0
 12 13  1  0
 13 14  2  0
 14 15  1  0
 15 16  1  0
 16 17  1  0
 17 18  2  0
 18 19  1  0
 19 20  2  0
 20 21  1  0
 20 22  1  0
 22 23  2  0
 23 24  1  0
 14 25  1  0
 25 26  1  0
 26 27  1  0
 27 28  2  0
 28 29  1  0
 29 30  2  0
 30 31  1  0
  6 32  1  0
 32 33  2  0
 33  3  1  0
 25 11  1  0
 31 27  1  0
 23 17  1  0
  1 34  1  0
  1 35  1  0
  1 36  1  0
  4 37  1  0
  5 38  1  0
  9 39  1  0
  9 40  1  0
 15 41  1  0
 15 42  1  0
 16 43  1  0
 18 44  1  0
 19 45  1  0
 21 46  1  0
 21 47  1  0
 21 48  1  0
 22 49  1  0
 24 50  1  0
 24 51  1  0
 24 52  1  0
 26 53  1  0
 26 54  1  0
 28 55  1  0
 29 56  1  0
 30 57  1  0
 32 58  1  0
 33 59  1  0
M  END
$$$$
