
     RDKit          3D

 40 42  0  0  0  0  0  0  0  0999 V2000
   -6.6664    0.6566    0.8046 C   0  0  0  0  0  0  0  0  0  0  0  0
   -5.5981   -0.4116    0.4854 C   0  0  0  0  0  0  0  0  0  0  0  0
   -5.9203   -1.0038   -0.8991 C   0  0  0  0  0  0  0  0  0  0  0  0
   -5.6919   -1.5138    1.5563 C   0  0  0  0  0  0  0  0  0  0  0  0
   -4.2153    0.2235    0.4934 C   0  0  0  0  0  0  0  0  0  0  0  0
   -3.9691    1.4882    0.7805 N   0  0  0  0  0  0  0  0  0  0  0  0
   -2.6261    1.7936    0.7136 N   0  0  0  0  0  0  0  0  0  0  0  0
   -1.8972    0.7538    0.3792 C   0  0  0  0  0  0  0  0  0  0  0  0
   -0.5330    0.8400    0.2548 N   0  0  0  0  0  0  0  0  0  0  0  0
    0.3351   -0.1770   -0.0959 C   0  0  0  0  0  0  0  0  0  0  0  0
    0.0277   -1.3349   -0.3561 O   0  0  0  0  0  0  0  0  0  0  0  0
    1.7890    0.3162   -0.1260 C   0  0  0  0  0  0  0  0  0  0  0  0
    2.6814   -0.7230   -0.4969 O   0  0  0  0  0  0  0  0  0  0  0  0
    4.0133   -0.4153   -0.5528 C   0  0  0  0  0  0  0  0  0  0  0  0
    4.8413   -1.4957   -0.9190 C   0  0  0  0  0  0  0  0  0  0  0  0
    6.2276   -1.3441   -1.0206 C   0  0  0  0  0  0  0  0  0  0  0  0
    6.7514   -0.1013   -0.7495 C   0  0  0  0  0  0  0  0  0  0  0  0
    5.9487    0.9560   -0.3918 C   0  0  0  0  0  0  0  0  0  0  0  0
    4.5770    0.8346   -0.2843 C   0  0  0  0  0  0  0  0  0  0  0  0
    6.6609    2.0939   -0.1660 O   0  0  0  0  0  0  0  0  0  0  0  0
    8.0033    1.6291   -0.4231 C   0  0  0  0  0  0  0  0  0  0  0  0
    8.0669    0.2368   -0.7946 O   0  0  0  0  0  0  0  0  0  0  0  0
   -2.7862   -0.6717    0.1249 S   0  0  0  0  0  0  0  0  0  0  0  0
   -6.6551    1.4662    0.0651 H   0  0  0  0  0  0  0  0  0  0  0  0
   -6.5004    1.1076    1.7904 H   0  0  0  0  0  0  0  0  0  0  0  0
   -7.6734    0.2236    0.8052 H   0  0  0  0  0  0  0  0  0  0  0  0
   -5.2496   -1.8313   -1.1570 H   0  0  0  0  0  0  0  0  0  0  0  0
   -5.8273   -0.2468   -1.6868 H   0  0  0  0  0  0  0  0  0  0  0  0
   -6.9435   -1.3957   -0.9319 H   0  0  0  0  0  0  0  0  0  0  0  0
   -6.7029   -1.9350    1.6018 H   0  0  0  0  0  0  0  0  0  0  0  0
   -5.0046   -2.3426    1.3516 H   0  0  0  0  0  0  0  0  0  0  0  0
   -5.4480   -1.1223    2.5509 H   0  0  0  0  0  0  0  0  0  0  0  0
   -0.1789    1.7671    0.4464 H   0  0  0  0  0  0  0  0  0  0  0  0
    2.0312    0.6780    0.8808 H   0  0  0  0  0  0  0  0  0  0  0  0
    1.8425    1.1343   -0.8547 H   0  0  0  0  0  0  0  0  0  0  0  0
    4.3916   -2.4654   -1.1255 H   0  0  0  0  0  0  0  0  0  0  0  0
    6.8651   -2.1743   -1.3013 H   0  0  0  0  0  0  0  0  0  0  0  0
    3.9961    1.7012    0.0002 H   0  0  0  0  0  0  0  0  0  0  0  0
    8.4322    2.2289   -1.2338 H   0  0  0  0  0  0  0  0  0  0  0  0
    8.6049    1.7783    0.4813 H   0  0  0  0  0  0  0  0  0  0  0  0
  1  2  1  0
  2  3  1  0
  2  4  1  0
  2  5  1  0
  5  6  2  0
  6  7  1  0
  7  8  2  0
  8  9  1  0
  9 10  1  0
 10 11  2  0
 10 12  1  0
 12 13  1  0
 13 14  1  0
 14 15  2  0
 15 16  1  0
 16 17  2  0
 17 18  1  0
 18 19  2  0
 18 20  1  0
 20 21  1  0
 21 22  1  0
  8 23  1  0
 23  5  1  0
 19 14  1  0
 22 17  1  0
  1 24  1  0
  1 25  1  0
  1 26  1  0
  3 27  1  0
  3 28  1  0
  3 29  1  0
  4 30  1  0
  4 31  1  0
  4 32  1  0
  9 33  1  0
 12 34  1  0
 12 35  1  0
 15 36  1  0
 16 37  1  0
 19 38  1  0
 21 39  1  0
 21 40  1  0
M  END
$$$$
