
     RDKit          3D

 42 44  0  0  0  0  0  0  0  0999 V2000
    5.6975   -3.2025   -1.3777 C   0  0  0  0  0  0  0  0  0  0  0  0
    4.2773   -3.1535   -1.4137 O   0  0  0  0  0  0  0  0  0  0  0  0
    3.6827   -1.9586   -1.1117 C   0  0  0  0  0  0  0  0  0  0  0  0
    4.3431   -0.7853   -0.7340 C   0  0  0  0  0  0  0  0  0  0  0  0
    3.6133    0.3752   -0.4564 C   0  0  0  0  0  0  0  0  0  0  0  0
    4.1377    1.5861   -0.0920 O   0  0  0  0  0  0  0  0  0  0  0  0
    5.5526    1.6759    0.0166 C   0  0  0  0  0  0  0  0  0  0  0  0
    2.2189    0.3571   -0.5471 C   0  0  0  0  0  0  0  0  0  0  0  0
    1.5501   -0.8171   -0.9080 C   0  0  0  0  0  0  0  0  0  0  0  0
    0.0638   -0.8779   -1.0228 C   0  0  0  0  0  0  0  0  0  0  0  0
   -0.4101   -1.6245   -1.8704 O   0  0  0  0  0  0  0  0  0  0  0  0
   -0.6142   -0.0859   -0.1174 N   0  0  0  0  0  0  0  0  0  0  0  0
   -1.9882    0.0744    0.0079 C   0  0  0  0  0  0  0  0  0  0  0  0
   -3.0783   -0.6986   -1.0626 S   0  0  0  0  0  0  0  0  0  0  0  0
   -4.3805   -0.0556   -0.2490 C   0  0  0  0  0  0  0  0  0  0  0  0
   -4.0437    0.7479    0.8053 C   0  0  0  0  0  0  0  0  0  0  0  0
   -2.6302    0.8638    0.9709 C   0  0  0  0  0  0  0  0  0  0  0  0
   -1.8782    1.6345    1.9591 C   0  0  0  0  0  0  0  0  0  0  0  0
   -2.5802    2.5343    2.7069 N   0  0  0  0  0  0  0  0  0  0  0  0
   -0.6623    1.5302    2.1075 O   0  0  0  0  0  0  0  0  0  0  0  0
   -5.2708    1.2547    1.4770 C   0  0  0  0  0  0  0  0  0  0  0  0
   -6.3894    0.3470    0.8781 C   0  0  0  0  0  0  0  0  0  0  0  0
   -5.8367   -0.2145   -0.4641 C   0  0  0  0  0  0  0  0  0  0  0  0
    2.2894   -1.9675   -1.2015 C   0  0  0  0  0  0  0  0  0  0  0  0
    6.1354   -2.5077   -2.1020 H   0  0  0  0  0  0  0  0  0  0  0  0
    6.0046   -4.2143   -1.6595 H   0  0  0  0  0  0  0  0  0  0  0  0
    6.0727   -3.0099   -0.3673 H   0  0  0  0  0  0  0  0  0  0  0  0
    5.4225   -0.7744   -0.6617 H   0  0  0  0  0  0  0  0  0  0  0  0
    5.8009    2.6997    0.3126 H   0  0  0  0  0  0  0  0  0  0  0  0
    5.9321    1.0035    0.7931 H   0  0  0  0  0  0  0  0  0  0  0  0
    6.0354    1.4814   -0.9468 H   0  0  0  0  0  0  0  0  0  0  0  0
    1.6734    1.2777   -0.3552 H   0  0  0  0  0  0  0  0  0  0  0  0
   -0.0776    0.3932    0.6045 H   0  0  0  0  0  0  0  0  0  0  0  0
   -3.5001    2.8419    2.4351 H   0  0  0  0  0  0  0  0  0  0  0  0
   -2.0300    3.1525    3.2876 H   0  0  0  0  0  0  0  0  0  0  0  0
   -5.4489    2.3015    1.2091 H   0  0  0  0  0  0  0  0  0  0  0  0
   -5.2314    1.1569    2.5653 H   0  0  0  0  0  0  0  0  0  0  0  0
   -6.5754   -0.4890    1.5655 H   0  0  0  0  0  0  0  0  0  0  0  0
   -7.3351    0.8823    0.7487 H   0  0  0  0  0  0  0  0  0  0  0  0
   -6.1749    0.3981   -1.3061 H   0  0  0  0  0  0  0  0  0  0  0  0
   -6.1440   -1.2525   -0.6167 H   0  0  0  0  0  0  0  0  0  0  0  0
    1.7767   -2.8802   -1.5008 H   0  0  0  0  0  0  0  0  0  0  0  0
  1  2  1  0
  2  3  1  0
  3  4  2  0
  4  5  1  0
  5  6  1  0
  6  7  1  0
  5  8  2  0
  8  9  1  0
  9 10  1  0
 10 11  2  0
 10 12  1  0
 12 13  1  0
 13 14  1  0
 14 15  1  0
 15 16  2  0
 16 17  1  0
 17 18  1  0
 18 19  1  0
 18 20  2  0
 16 21  1  0
 21 22  1  0
 22 23  1  0
  9 24  2  0
 24  3  1  0
 17 13  2  0
 23 15  1  0
  1 25  1  0
  1 26  1  0
  1 27  1  0
  4 28  1  0
  7 29  1  0
  7 30  1  0
  7 31  1  0
  8 32  1  0
 12 33  1  0
 19 34  1  0
 19 35  1  0
 21 36  1  0
 21 37  1  0
 22 38  1  0
 22 39  1  0
 23 40  1  0
 23 41  1  0
 24 42  1  0
M  END
$$$$
