
     RDKit          3D

 57 61  0  0  0  0  0  0  0  0999 V2000
    1.1484   -3.3814    2.6595 O   0  0  0  0  0  0  0  0  0  0  0  0
    1.5380   -2.6228    1.7793 C   0  0  0  0  0  0  0  0  0  0  0  0
    0.7055   -1.6702    1.2046 N   0  0  0  0  0  0  0  0  0  0  0  0
    1.0932   -0.7987    0.1920 C   0  0  0  0  0  0  0  0  0  0  0  0
    0.0340    0.1683   -0.3140 C   0  0  0  0  0  0  0  0  0  0  0  0
   -0.4226    1.1142    0.8023 C   0  0  0  0  0  0  0  0  0  0  0  0
   -1.5459    2.0284    0.3240 C   0  0  0  0  0  0  0  0  0  0  0  0
   -2.6687    1.1807   -0.1593 N   0  0  0  0  0  0  0  0  0  0  0  0
   -4.1353    2.0358   -0.3481 S   0  0  0  0  0  6  0  0  0  0  0  0
   -4.1128    2.5990   -1.6823 O   0  0  0  0  0  0  0  0  0  0  0  0
   -4.3742    2.8679    0.8071 O   0  0  0  0  0  0  0  0  0  0  0  0
   -5.3556    0.7360   -0.3074 C   0  0  0  0  0  0  0  0  0  0  0  0
   -6.3006    0.7151   -1.3475 C   0  0  0  0  0  0  0  0  0  0  0  0
   -7.2766   -0.2779   -1.3909 C   0  0  0  0  0  0  0  0  0  0  0  0
   -7.3132   -1.2541   -0.4022 C   0  0  0  0  0  0  0  0  0  0  0  0
   -6.3756   -1.2364    0.6328 C   0  0  0  0  0  0  0  0  0  0  0  0
   -5.3811   -0.2376    0.7102 C   0  0  0  0  0  0  0  0  0  0  0  0
   -4.3875   -0.3169    1.8478 C   0  0  0  0  0  0  0  0  0  0  0  0
   -3.2462   -0.9775    1.4959 F   0  0  0  0  0  0  0  0  0  0  0  0
   -4.8795   -1.0249    2.9095 F   0  0  0  0  0  0  0  0  0  0  0  0
   -3.9984    0.8678    2.3761 F   0  0  0  0  0  0  0  0  0  0  0  0
   -2.2644    0.3681   -1.3416 C   0  0  0  0  0  0  0  0  0  0  0  0
   -1.1481   -0.5869   -0.9323 C   0  0  0  0  0  0  0  0  0  0  0  0
    2.2880   -0.7711   -0.3333 N   0  0  0  0  0  0  0  0  0  0  0  0
    3.1253   -1.6834    0.2203 C   0  0  0  0  0  0  0  0  0  0  0  0
    2.8588   -2.5953    1.2132 C   0  0  0  0  0  0  0  0  0  0  0  0
    3.9596   -3.3480    1.4825 N   0  0  0  0  0  0  0  0  0  0  0  0
    4.9344   -2.9260    0.6768 N   0  0  0  0  0  0  0  0  0  0  0  0
    4.4400   -1.9089   -0.0719 N   0  0  0  0  0  0  0  0  0  0  0  0
    5.2622   -1.2515   -1.0650 C   0  0  0  0  0  0  0  0  0  0  0  0
    5.8948    0.0027   -0.5163 C   0  0  0  0  0  0  0  0  0  0  0  0
    5.2975    1.2564   -0.7273 C   0  0  0  0  0  0  0  0  0  0  0  0
    5.8773    2.4179   -0.2096 C   0  0  0  0  0  0  0  0  0  0  0  0
    7.0565    2.3374    0.5284 C   0  0  0  0  0  0  0  0  0  0  0  0
    7.6438    1.0973    0.7469 C   0  0  0  0  0  0  0  0  0  0  0  0
    8.7746    1.0209    1.4608 F   0  0  0  0  0  0  0  0  0  0  0  0
    7.0763   -0.0659    0.2366 C   0  0  0  0  0  0  0  0  0  0  0  0
   -0.2329   -1.6552    1.5794 H   0  0  0  0  0  0  0  0  0  0  0  0
    0.4960    0.7771   -1.1041 H   0  0  0  0  0  0  0  0  0  0  0  0
    0.4245    1.7180    1.1493 H   0  0  0  0  0  0  0  0  0  0  0  0
   -0.7744    0.5439    1.6711 H   0  0  0  0  0  0  0  0  0  0  0  0
   -1.8664    2.6449    1.1697 H   0  0  0  0  0  0  0  0  0  0  0  0
   -1.1972    2.6916   -0.4758 H   0  0  0  0  0  0  0  0  0  0  0  0
   -6.2872    1.4742   -2.1287 H   0  0  0  0  0  0  0  0  0  0  0  0
   -8.0089   -0.2878   -2.1952 H   0  0  0  0  0  0  0  0  0  0  0  0
   -8.0743   -2.0311   -0.4333 H   0  0  0  0  0  0  0  0  0  0  0  0
   -6.4279   -2.0169    1.3933 H   0  0  0  0  0  0  0  0  0  0  0  0
   -3.1097   -0.2222   -1.7085 H   0  0  0  0  0  0  0  0  0  0  0  0
   -1.9245    1.0226   -2.1526 H   0  0  0  0  0  0  0  0  0  0  0  0
   -0.8092   -1.1547   -1.8073 H   0  0  0  0  0  0  0  0  0  0  0  0
   -1.5475   -1.3241   -0.2266 H   0  0  0  0  0  0  0  0  0  0  0  0
    4.6324   -1.0301   -1.9343 H   0  0  0  0  0  0  0  0  0  0  0  0
    6.0299   -1.9590   -1.3999 H   0  0  0  0  0  0  0  0  0  0  0  0
    4.3695    1.3354   -1.2920 H   0  0  0  0  0  0  0  0  0  0  0  0
    5.4074    3.3835   -0.3789 H   0  0  0  0  0  0  0  0  0  0  0  0
    7.5182    3.2294    0.9392 H   0  0  0  0  0  0  0  0  0  0  0  0
    7.5597   -1.0181    0.4397 H   0  0  0  0  0  0  0  0  0  0  0  0
  1  2  2  0
  2  3  1  0
  3  4  1  0
  4  5  1  0
  5  6  1  0
  6  7  1  0
  7  8  1  0
  8  9  1  0
  9 10  2  0
  9 11  2  0
  9 12  1  0
 12 13  2  0
 13 14  1  0
 14 15  2  0
 15 16  1  0
 16 17  2  0
 17 18  1  0
 18 19  1  0
 18 20  1  0
 18 21  1  0
  8 22  1  0
 22 23  1  0
  4 24  2  0
 24 25  1  0
 25 26  2  0
 26 27  1  0
 27 28  2  0
 28 29  1  0
 29 30  1  0
 30 31  1  0
 31 32  2  0
 32 33  1  0
 33 34  2  0
 34 35  1  0
 35 36  1  0
 35 37  2  0
 26  2  1  0
 37 31  1  0
 23  5  1  0
 29 25  1  0
 17 12  1  0
  3 38  1  0
  5 39  1  0
  6 40  1  0
  6 41  1  0
  7 42  1  0
  7 43  1  0
 13 44  1  0
 14 45  1  0
 15 46  1  0
 16 47  1  0
 22 48  1  0
 22 49  1  0
 23 50  1  0
 23 51  1  0
 30 52  1  0
 30 53  1  0
 32 54  1  0
 33 55  1  0
 34 56  1  0
 37 57  1  0
M  END
$$$$
