
     RDKit          3D

 35 37  0  0  0  0  0  0  0  0999 V2000
   -1.6578   -1.8525    1.5609 C   0  0  0  0  0  0  0  0  0  0  0  0
   -1.5332   -0.6166    0.6733 C   0  0  0  0  0  0  0  0  0  0  0  0
   -2.3095    0.4405    1.2348 O   0  0  0  0  0  0  0  0  0  0  0  0
   -3.5658    0.6649    0.7502 C   0  0  0  0  0  0  0  0  0  0  0  0
   -4.0874    1.9262    1.0535 C   0  0  0  0  0  0  0  0  0  0  0  0
   -5.3677    2.2898    0.6308 C   0  0  0  0  0  0  0  0  0  0  0  0
   -6.1341    1.3809   -0.0922 C   0  0  0  0  0  0  0  0  0  0  0  0
   -7.8688    1.8612   -0.6680 Br  0  0  0  0  0  0  0  0  0  0  0  0
   -5.6313    0.1154   -0.3890 C   0  0  0  0  0  0  0  0  0  0  0  0
   -4.3474   -0.2444    0.0364 C   0  0  0  0  0  0  0  0  0  0  0  0
   -0.0503   -0.1779    0.6086 C   0  0  0  0  0  0  0  0  0  0  0  0
    0.3491    0.8531    1.1408 O   0  0  0  0  0  0  0  0  0  0  0  0
    0.7253   -1.0665   -0.1130 N   0  0  0  0  0  0  0  0  0  0  0  0
    2.0739   -0.9797   -0.3547 C   0  0  0  0  0  0  0  0  0  0  0  0
    2.7038   -1.8821   -1.0761 N   0  0  0  0  0  0  0  0  0  0  0  0
    4.0531   -1.6061   -1.1912 N   0  0  0  0  0  0  0  0  0  0  0  0
    4.3722   -0.5028   -0.5521 C   0  0  0  0  0  0  0  0  0  0  0  0
    5.8322    0.0427   -0.5085 C   0  0  0  0  0  0  0  0  0  0  0  0
    6.1734    1.2998   -1.2679 C   0  0  0  0  0  0  0  0  0  0  0  0
    6.6807   -0.0267   -1.7529 C   0  0  0  0  0  0  0  0  0  0  0  0
    3.0708    0.2651    0.2434 S   0  0  0  0  0  0  0  0  0  0  0  0
   -1.1083   -2.7051    1.1503 H   0  0  0  0  0  0  0  0  0  0  0  0
   -2.7041   -2.1471    1.6882 H   0  0  0  0  0  0  0  0  0  0  0  0
   -1.2639   -1.6487    2.5635 H   0  0  0  0  0  0  0  0  0  0  0  0
   -1.8338   -0.8329   -0.3596 H   0  0  0  0  0  0  0  0  0  0  0  0
   -3.4861    2.6342    1.6201 H   0  0  0  0  0  0  0  0  0  0  0  0
   -5.7516    3.2771    0.8724 H   0  0  0  0  0  0  0  0  0  0  0  0
   -6.2321   -0.6006   -0.9441 H   0  0  0  0  0  0  0  0  0  0  0  0
   -4.0006   -1.2460   -0.1920 H   0  0  0  0  0  0  0  0  0  0  0  0
    0.3016   -1.8742   -0.5483 H   0  0  0  0  0  0  0  0  0  0  0  0
    6.3355   -0.1235    0.4381 H   0  0  0  0  0  0  0  0  0  0  0  0
    6.8844    1.9838   -0.8191 H   0  0  0  0  0  0  0  0  0  0  0  0
    5.3993    1.7867   -1.8505 H   0  0  0  0  0  0  0  0  0  0  0  0
    6.2435   -0.4418   -2.6547 H   0  0  0  0  0  0  0  0  0  0  0  0
    7.7352   -0.2464   -1.6329 H   0  0  0  0  0  0  0  0  0  0  0  0
  1  2  1  0
  2  3  1  0
  3  4  1  0
  4  5  2  0
  5  6  1  0
  6  7  2  0
  7  8  1  0
  7  9  1  0
  9 10  2  0
  2 11  1  0
 11 12  2  0
 11 13  1  0
 13 14  1  0
 14 15  2  0
 15 16  1  0
 16 17  2  0
 17 18  1  0
 18 19  1  0
 19 20  1  0
 17 21  1  0
 10  4  1  0
 21 14  1  0
 20 18  1  0
  1 22  1  0
  1 23  1  0
  1 24  1  0
  2 25  1  0
  5 26  1  0
  6 27  1  0
  9 28  1  0
 10 29  1  0
 13 30  1  0
 18 31  1  0
 19 32  1  0
 19 33  1  0
 20 34  1  0
 20 35  1  0
M  END
$$$$
