
     RDKit          3D

 36 38  0  0  0  0  0  0  0  0999 V2000
    4.6609   -1.0088    1.8329 C   0  0  0  0  0  0  0  0  0  0  0  0
    3.7593   -0.5815    0.7107 C   0  0  0  0  0  0  0  0  0  0  0  0
    4.0218   -0.9959   -0.5991 C   0  0  0  0  0  0  0  0  0  0  0  0
    3.2261   -0.5789   -1.6718 C   0  0  0  0  0  0  0  0  0  0  0  0
    2.1561    0.2771   -1.3916 C   0  0  0  0  0  0  0  0  0  0  0  0
    1.2361    0.8527   -2.2396 N   0  0  0  0  0  0  0  0  0  0  0  0
    0.3491    1.6189   -1.5283 C   0  0  0  0  0  0  0  0  0  0  0  0
    0.7220    1.5645   -0.2039 C   0  0  0  0  0  0  0  0  0  0  0  0
    0.0722    2.2631    0.8540 C   0  0  0  0  0  0  0  0  0  0  0  0
   -1.1577    2.0253    1.3419 C   0  0  0  0  0  0  0  0  0  0  0  0
   -2.0607    0.9552    0.9067 C   0  0  0  0  0  0  0  0  0  0  0  0
   -3.3633    1.2634    0.5253 C   0  0  0  0  0  0  0  0  0  0  0  0
   -4.2170    0.2447    0.1177 C   0  0  0  0  0  0  0  0  0  0  0  0
   -3.7995   -1.0412    0.1029 N   0  0  0  0  0  4  0  0  0  0  0  0
   -4.7148   -2.1024   -0.3475 C   0  0  0  0  0  0  0  0  0  0  0  0
   -2.5409   -1.3625    0.4765 C   0  0  0  0  0  0  0  0  0  0  0  0
   -1.6556   -0.3786    0.8944 C   0  0  0  0  0  0  0  0  0  0  0  0
    1.8673    0.7238   -0.1016 C   0  0  0  0  0  0  0  0  0  0  0  0
    2.6878    0.2918    0.9623 C   0  0  0  0  0  0  0  0  0  0  0  0
    4.1100   -1.0611    2.7779 H   0  0  0  0  0  0  0  0  0  0  0  0
    5.4849   -0.2971    1.9421 H   0  0  0  0  0  0  0  0  0  0  0  0
    5.0749   -2.0048    1.6435 H   0  0  0  0  0  0  0  0  0  0  0  0
    4.8691   -1.6499   -0.8010 H   0  0  0  0  0  0  0  0  0  0  0  0
    3.4492   -0.9020   -2.6838 H   0  0  0  0  0  0  0  0  0  0  0  0
    1.2368    0.7372   -3.2441 H   0  0  0  0  0  0  0  0  0  0  0  0
   -0.4418    2.1577   -2.0323 H   0  0  0  0  0  0  0  0  0  0  0  0
    0.6502    3.0676    1.3080 H   0  0  0  0  0  0  0  0  0  0  0  0
   -1.5324    2.6659    2.1386 H   0  0  0  0  0  0  0  0  0  0  0  0
   -3.7140    2.2937    0.5280 H   0  0  0  0  0  0  0  0  0  0  0  0
   -5.2352    0.4491   -0.2011 H   0  0  0  0  0  0  0  0  0  0  0  0
   -5.7455   -1.7995   -0.1458 H   0  0  0  0  0  0  0  0  0  0  0  0
   -4.5530   -2.2409   -1.4193 H   0  0  0  0  0  0  0  0  0  0  0  0
   -4.4942   -3.0208    0.2027 H   0  0  0  0  0  0  0  0  0  0  0  0
   -2.2513   -2.4088    0.4378 H   0  0  0  0  0  0  0  0  0  0  0  0
   -0.6483   -0.6582    1.1984 H   0  0  0  0  0  0  0  0  0  0  0  0
    2.4915    0.6413    1.9723 H   0  0  0  0  0  0  0  0  0  0  0  0
  1  2  1  0
  2  3  2  0
  3  4  1  0
  4  5  2  0
  5  6  1  0
  6  7  1  0
  7  8  2  0
  8  9  1  0
  9 10  2  3
 10 11  1  0
 11 12  2  0
 12 13  1  0
 13 14  2  0
 14 15  1  0
 14 16  1  0
 16 17  2  0
  8 18  1  0
 18 19  2  0
 19  2  1  0
 18  5  1  0
 17 11  1  0
  1 20  1  0
  1 21  1  0
  1 22  1  0
  3 23  1  0
  4 24  1  0
  6 25  1  0
  7 26  1  0
  9 27  1  0
 10 28  1  0
 12 29  1  0
 13 30  1  0
 15 31  1  0
 15 32  1  0
 15 33  1  0
 16 34  1  0
 17 35  1  0
 19 36  1  0
M  CHG  1  14   1
M  END
$$$$
