
     RDKit          3D

 43 46  0  0  0  0  0  0  0  0999 V2000
    5.9647    2.1270    1.5064 C   0  0  0  0  0  0  0  0  0  0  0  0
    4.6568    1.5235    1.0835 C   0  0  0  0  0  0  0  0  0  0  0  0
    3.8935    0.7798    1.9877 C   0  0  0  0  0  0  0  0  0  0  0  0
    2.6899    0.1922    1.5864 C   0  0  0  0  0  0  0  0  0  0  0  0
    2.2424    0.3311    0.2675 C   0  0  0  0  0  0  0  0  0  0  0  0
    0.8876   -0.3311   -0.1726 C   0  0  0  0  0  0  0  0  0  0  0  0
    0.0041   -1.0235    0.6469 C   0  0  0  0  0  0  0  0  0  0  0  0
   -1.1027   -1.4225   -0.1073 N   0  0  0  0  0  4  0  0  0  0  0  0
   -2.2664   -2.1593    0.3738 C   0  0  0  0  0  0  0  0  0  0  0  0
   -3.2040   -1.1902    1.0478 C   0  0  0  0  0  0  0  0  0  0  0  0
   -3.1811   -1.0197    2.4398 C   0  0  0  0  0  0  0  0  0  0  0  0
   -4.0313   -0.0962    3.0568 C   0  0  0  0  0  0  0  0  0  0  0  0
   -4.9128    0.6743    2.2939 C   0  0  0  0  0  0  0  0  0  0  0  0
   -5.9238    1.8007    3.1216 Cl  0  0  0  0  0  0  0  0  0  0  0  0
   -4.9451    0.5137    0.9066 C   0  0  0  0  0  0  0  0  0  0  0  0
   -5.9958    1.4287   -0.1131 Cl  0  0  0  0  0  0  0  0  0  0  0  0
   -4.0963   -0.4150    0.2899 C   0  0  0  0  0  0  0  0  0  0  0  0
   -0.8969   -1.0072   -1.3523 C   0  0  0  0  0  0  0  0  0  0  0  0
    0.2749   -0.3824   -1.4119 N   0  0  0  0  0  0  0  0  0  0  0  0
    0.5773    0.0826   -2.7583 C   0  0  0  0  0  0  0  0  0  0  0  0
   -0.4804   -0.6409   -3.6366 C   0  0  0  0  0  0  0  0  0  0  0  0
   -1.5946   -1.0617   -2.6579 C   0  0  0  0  0  0  0  0  0  0  0  0
    3.0070    1.0640   -0.6405 C   0  0  0  0  0  0  0  0  0  0  0  0
    4.2102    1.6509   -0.2351 C   0  0  0  0  0  0  0  0  0  0  0  0
    6.1743    3.0406    0.9402 H   0  0  0  0  0  0  0  0  0  0  0  0
    5.9441    2.4000    2.5668 H   0  0  0  0  0  0  0  0  0  0  0  0
    6.7770    1.4128    1.3402 H   0  0  0  0  0  0  0  0  0  0  0  0
    4.2343    0.6554    3.0147 H   0  0  0  0  0  0  0  0  0  0  0  0
    2.1343   -0.3713    2.3298 H   0  0  0  0  0  0  0  0  0  0  0  0
    0.0129   -1.2719    1.6945 H   0  0  0  0  0  0  0  0  0  0  0  0
   -1.9332   -2.9402    1.0667 H   0  0  0  0  0  0  0  0  0  0  0  0
   -2.7612   -2.6590   -0.4660 H   0  0  0  0  0  0  0  0  0  0  0  0
   -2.5077   -1.6046    3.0648 H   0  0  0  0  0  0  0  0  0  0  0  0
   -4.0035    0.0201    4.1392 H   0  0  0  0  0  0  0  0  0  0  0  0
   -4.1435   -0.5308   -0.7906 H   0  0  0  0  0  0  0  0  0  0  0  0
    1.5902   -0.2000   -3.0534 H   0  0  0  0  0  0  0  0  0  0  0  0
    0.4458    1.1679   -2.7946 H   0  0  0  0  0  0  0  0  0  0  0  0
   -0.0269   -1.5397   -4.0710 H   0  0  0  0  0  0  0  0  0  0  0  0
   -0.8465   -0.0192   -4.4580 H   0  0  0  0  0  0  0  0  0  0  0  0
   -2.4055   -0.3323   -2.6114 H   0  0  0  0  0  0  0  0  0  0  0  0
   -1.9611   -2.0748   -2.8260 H   0  0  0  0  0  0  0  0  0  0  0  0
    2.6998    1.2122   -1.6672 H   0  0  0  0  0  0  0  0  0  0  0  0
    4.7993    2.2160   -0.9562 H   0  0  0  0  0  0  0  0  0  0  0  0
  1  2  1  0
  2  3  2  0
  3  4  1  0
  4  5  2  0
  5  6  1  0
  6  7  2  0
  7  8  1  0
  8  9  1  0
  9 10  1  0
 10 11  2  0
 11 12  1  0
 12 13  2  0
 13 14  1  0
 13 15  1  0
 15 16  1  0
 15 17  2  0
  8 18  2  0
 18 19  1  0
 19 20  1  0
 20 21  1  0
 21 22  1  0
  5 23  1  0
 23 24  2  0
 24  2  1  0
 19  6  1  0
 17 10  1  0
 22 18  1  0
  1 25  1  0
  1 26  1  0
  1 27  1  0
  3 28  1  0
  4 29  1  0
  7 30  1  0
  9 31  1  0
  9 32  1  0
 11 33  1  0
 12 34  1  0
 17 35  1  0
 20 36  1  0
 20 37  1  0
 21 38  1  0
 21 39  1  0
 22 40  1  0
 22 41  1  0
 23 42  1  0
 24 43  1  0
M  CHG  1   8   1
M  END
$$$$
