
     RDKit          3D

 42 44  0  0  0  0  0  0  0  0999 V2000
    5.0326   -2.7327    0.8484 C   0  0  0  0  0  0  0  0  0  0  0  0
    3.6715   -2.3566    0.6815 O   0  0  0  0  0  0  0  0  0  0  0  0
    3.4121   -1.2890   -0.1351 C   0  0  0  0  0  0  0  0  0  0  0  0
    4.3664   -0.5228   -0.8124 C   0  0  0  0  0  0  0  0  0  0  0  0
    3.9658    0.5378   -1.6307 C   0  0  0  0  0  0  0  0  0  0  0  0
    4.7950    1.3570   -2.3476 O   0  0  0  0  0  0  0  0  0  0  0  0
    6.1881    1.0788   -2.2981 C   0  0  0  0  0  0  0  0  0  0  0  0
    2.6074    0.8338   -1.7605 C   0  0  0  0  0  0  0  0  0  0  0  0
    1.6471    0.0850   -1.0726 C   0  0  0  0  0  0  0  0  0  0  0  0
    0.2084    0.4392   -1.2483 C   0  0  0  0  0  0  0  0  0  0  0  0
   -0.1349    0.9064   -2.3274 O   0  0  0  0  0  0  0  0  0  0  0  0
   -0.5750    0.2277   -0.1311 N   0  0  0  0  0  0  0  0  0  0  0  0
   -1.9463    0.4102   -0.0107 C   0  0  0  0  0  0  0  0  0  0  0  0
   -2.9114    0.8345   -1.3601 S   0  0  0  0  0  0  0  0  0  0  0  0
   -4.2880    0.8008   -0.4243 C   0  0  0  0  0  0  0  0  0  0  0  0
   -4.0680    0.4843    0.8879 C   0  0  0  0  0  0  0  0  0  0  0  0
   -2.6865    0.2588    1.1686 C   0  0  0  0  0  0  0  0  0  0  0  0
   -2.0516   -0.0957    2.4359 C   0  0  0  0  0  0  0  0  0  0  0  0
   -2.8107    0.0309    3.5628 N   0  0  0  0  0  0  0  0  0  0  0  0
   -0.8798   -0.4568    2.5215 O   0  0  0  0  0  0  0  0  0  0  0  0
   -5.3560    0.4508    1.6317 C   0  0  0  0  0  0  0  0  0  0  0  0
   -6.4139    0.4506    0.4850 C   0  0  0  0  0  0  0  0  0  0  0  0
   -5.7077    1.0351   -0.7730 C   0  0  0  0  0  0  0  0  0  0  0  0
    2.0547   -0.9849   -0.2692 C   0  0  0  0  0  0  0  0  0  0  0  0
    5.0606   -3.5982    1.5174 H   0  0  0  0  0  0  0  0  0  0  0  0
    5.6086   -1.9293    1.3192 H   0  0  0  0  0  0  0  0  0  0  0  0
    5.4786   -3.0341   -0.1051 H   0  0  0  0  0  0  0  0  0  0  0  0
    5.4181   -0.7541   -0.7067 H   0  0  0  0  0  0  0  0  0  0  0  0
    6.5779    1.2000   -1.2821 H   0  0  0  0  0  0  0  0  0  0  0  0
    6.6973    1.8053   -2.9386 H   0  0  0  0  0  0  0  0  0  0  0  0
    6.4059    0.0795   -2.6894 H   0  0  0  0  0  0  0  0  0  0  0  0
    2.2965    1.6565   -2.4024 H   0  0  0  0  0  0  0  0  0  0  0  0
   -0.1187   -0.0519    0.7361 H   0  0  0  0  0  0  0  0  0  0  0  0
   -3.6552    0.5804    3.5660 H   0  0  0  0  0  0  0  0  0  0  0  0
   -2.3207   -0.0815    4.4400 H   0  0  0  0  0  0  0  0  0  0  0  0
   -5.4618   -0.4382    2.2596 H   0  0  0  0  0  0  0  0  0  0  0  0
   -5.4655    1.3496    2.2476 H   0  0  0  0  0  0  0  0  0  0  0  0
   -7.3178    1.0066    0.7523 H   0  0  0  0  0  0  0  0  0  0  0  0
   -6.7135   -0.5854    0.2774 H   0  0  0  0  0  0  0  0  0  0  0  0
   -6.0244    0.5173   -1.6824 H   0  0  0  0  0  0  0  0  0  0  0  0
   -5.9137    2.1061   -0.8673 H   0  0  0  0  0  0  0  0  0  0  0  0
    1.3283   -1.6115    0.2428 H   0  0  0  0  0  0  0  0  0  0  0  0
  1  2  1  0
  2  3  1  0
  3  4  2  0
  4  5  1  0
  5  6  1  0
  6  7  1  0
  5  8  2  0
  8  9  1  0
  9 10  1  0
 10 11  2  0
 10 12  1  0
 12 13  1  0
 13 14  1  0
 14 15  1  0
 15 16  2  0
 16 17  1  0
 17 18  1  0
 18 19  1  0
 18 20  2  0
 16 21  1  0
 21 22  1  0
 22 23  1  0
  9 24  2  0
 24  3  1  0
 17 13  2  0
 23 15  1  0
  1 25  1  0
  1 26  1  0
  1 27  1  0
  4 28  1  0
  7 29  1  0
  7 30  1  0
  7 31  1  0
  8 32  1  0
 12 33  1  0
 19 34  1  0
 19 35  1  0
 21 36  1  0
 21 37  1  0
 22 38  1  0
 22 39  1  0
 23 40  1  0
 23 41  1  0
 24 42  1  0
M  END
$$$$
