
     RDKit          3D

 50 52  0  0  0  0  0  0  0  0999 V2000
    2.3860   -2.4366   -0.8364 C   0  0  0  0  0  0  0  0  0  0  0  0
    2.5741   -1.3886   -1.9203 C   0  0  0  0  0  0  0  0  0  0  0  0
    2.7446   -0.0434   -1.3526 N   0  0  0  0  0  4  0  0  0  0  0  0
    1.7255    0.7781   -1.1362 C   0  0  0  0  0  0  0  0  0  0  0  0
    0.3640    0.5231   -1.4327 C   0  0  0  0  0  0  0  0  0  0  0  0
   -0.5634    0.4642   -0.4626 C   0  0  0  0  0  0  0  0  0  0  0  0
   -1.9442    0.1317   -0.7471 C   0  0  0  0  0  0  0  0  0  0  0  0
   -2.8762   -0.0221    0.2067 C   0  0  0  0  0  0  0  0  0  0  0  0
   -4.2165   -0.3947    0.0223 N   0  0  0  0  0  0  0  0  0  0  0  0
   -4.6640   -0.9272   -1.2092 C   0  0  0  0  0  0  0  0  0  0  0  0
   -6.1357   -0.7637   -1.5381 C   0  0  0  0  0  0  0  0  0  0  0  0
   -3.9275   -1.4582   -2.0486 O   0  0  0  0  0  0  0  0  0  0  0  0
   -5.0985   -0.3581    1.1641 C   0  0  0  0  0  0  0  0  0  0  0  0
   -5.0532    0.7174    2.0654 C   0  0  0  0  0  0  0  0  0  0  0  0
   -5.8912    0.7493    3.1837 C   0  0  0  0  0  0  0  0  0  0  0  0
   -6.7752   -0.2994    3.4240 C   0  0  0  0  0  0  0  0  0  0  0  0
   -6.8198   -1.3817    2.5500 C   0  0  0  0  0  0  0  0  0  0  0  0
   -5.9846   -1.4133    1.4296 C   0  0  0  0  0  0  0  0  0  0  0  0
    2.2640    2.2570   -0.4540 S   0  0  0  0  0  0  0  0  0  0  0  0
    3.9022    1.7370   -0.4423 C   0  0  0  0  0  0  0  0  0  0  0  0
    5.0394    2.4252    0.0070 C   0  0  0  0  0  0  0  0  0  0  0  0
    6.2857    1.7937   -0.0699 C   0  0  0  0  0  0  0  0  0  0  0  0
    7.3217    2.5514    0.3975 O   0  0  0  0  0  0  0  0  0  0  0  0
    8.6274    1.9866    0.3482 C   0  0  0  0  0  0  0  0  0  0  0  0
    6.3844    0.5042   -0.5854 C   0  0  0  0  0  0  0  0  0  0  0  0
    5.2439   -0.1808   -1.0366 C   0  0  0  0  0  0  0  0  0  0  0  0
    3.9859    0.4505   -0.9654 C   0  0  0  0  0  0  0  0  0  0  0  0
    2.2702   -3.4283   -1.2829 H   0  0  0  0  0  0  0  0  0  0  0  0
    3.2467   -2.4614   -0.1600 H   0  0  0  0  0  0  0  0  0  0  0  0
    1.4963   -2.2254   -0.2355 H   0  0  0  0  0  0  0  0  0  0  0  0
    3.4451   -1.6335   -2.5388 H   0  0  0  0  0  0  0  0  0  0  0  0
    1.7192   -1.4043   -2.6064 H   0  0  0  0  0  0  0  0  0  0  0  0
    0.0910    0.3226   -2.4677 H   0  0  0  0  0  0  0  0  0  0  0  0
   -0.3053    0.6366    0.5829 H   0  0  0  0  0  0  0  0  0  0  0  0
   -2.2024   -0.0004   -1.7954 H   0  0  0  0  0  0  0  0  0  0  0  0
   -2.5941    0.1430    1.2458 H   0  0  0  0  0  0  0  0  0  0  0  0
   -6.2230   -0.4986   -2.5973 H   0  0  0  0  0  0  0  0  0  0  0  0
   -6.6034    0.0454   -0.9717 H   0  0  0  0  0  0  0  0  0  0  0  0
   -6.6643   -1.7046   -1.3709 H   0  0  0  0  0  0  0  0  0  0  0  0
   -4.3949    1.5650    1.8909 H   0  0  0  0  0  0  0  0  0  0  0  0
   -5.8599    1.5966    3.8648 H   0  0  0  0  0  0  0  0  0  0  0  0
   -7.4273   -0.2752    4.2946 H   0  0  0  0  0  0  0  0  0  0  0  0
   -7.4985   -2.2095    2.7457 H   0  0  0  0  0  0  0  0  0  0  0  0
   -6.0117   -2.2971    0.7974 H   0  0  0  0  0  0  0  0  0  0  0  0
    4.9624    3.4326    0.4138 H   0  0  0  0  0  0  0  0  0  0  0  0
    8.9243    1.7735   -0.6843 H   0  0  0  0  0  0  0  0  0  0  0  0
    9.3272    2.7254    0.7524 H   0  0  0  0  0  0  0  0  0  0  0  0
    8.6902    1.0884    0.9718 H   0  0  0  0  0  0  0  0  0  0  0  0
    7.3433   -0.0056   -0.6501 H   0  0  0  0  0  0  0  0  0  0  0  0
    5.3701   -1.1867   -1.4258 H   0  0  0  0  0  0  0  0  0  0  0  0
  1  2  1  0
  2  3  1  0
  3  4  2  0
  4  5  1  0
  5  6  2  3
  6  7  1  0
  7  8  2  3
  8  9  1  0
  9 10  1  0
 10 11  1  0
 10 12  2  0
  9 13  1  0
 13 14  2  0
 14 15  1  0
 15 16  2  0
 16 17  1  0
 17 18  2  0
  4 19  1  0
 19 20  1  0
 20 21  2  0
 21 22  1  0
 22 23  1  0
 23 24  1  0
 22 25  2  0
 25 26  1  0
 26 27  2  0
 27  3  1  0
 18 13  1  0
 27 20  1  0
  1 28  1  0
  1 29  1  0
  1 30  1  0
  2 31  1  0
  2 32  1  0
  5 33  1  0
  6 34  1  0
  7 35  1  0
  8 36  1  0
 11 37  1  0
 11 38  1  0
 11 39  1  0
 14 40  1  0
 15 41  1  0
 16 42  1  0
 17 43  1  0
 18 44  1  0
 21 45  1  0
 24 46  1  0
 24 47  1  0
 24 48  1  0
 25 49  1  0
 26 50  1  0
M  CHG  1   3   1
M  END
$$$$
