
     RDKit          3D

 43 45  0  0  0  0  0  0  0  0999 V2000
    8.1034    0.0050   -0.2840 C   0  0  0  0  0  0  0  0  0  0  0  0
    6.7077    0.2835   -0.1619 O   0  0  0  0  0  0  0  0  0  0  0  0
    5.9547   -0.8035    0.1409 C   0  0  0  0  0  0  0  0  0  0  0  0
    6.3721   -1.9394    0.3021 O   0  0  0  0  0  0  0  0  0  0  0  0
    4.5176   -0.4321    0.2545 C   0  0  0  0  0  0  0  0  0  0  0  0
    4.0569    0.8747    0.0476 C   0  0  0  0  0  0  0  0  0  0  0  0
    2.6930    1.1742    0.1648 C   0  0  0  0  0  0  0  0  0  0  0  0
    1.7791    0.1707    0.4880 C   0  0  0  0  0  0  0  0  0  0  0  0
    0.4291    0.3261    0.6307 O   0  0  0  0  0  0  0  0  0  0  0  0
   -0.1121    1.6090    0.3470 C   0  0  0  0  0  0  0  0  0  0  0  0
   -1.6425    1.6359    0.4920 C   0  0  0  0  0  0  0  0  0  0  0  0
   -2.1367    2.5736    1.1261 O   0  0  0  0  0  0  0  0  0  0  0  0
   -2.3802    0.6270   -0.1554 N   0  0  0  0  0  0  0  0  0  0  0  0
   -1.7505   -0.2270   -1.1721 C   0  0  0  0  0  0  0  0  0  0  0  0
   -2.6891   -0.5687   -2.3140 C   0  0  0  0  0  0  0  0  0  0  0  0
   -3.8755   -1.3309   -1.7666 C   0  0  0  0  0  0  0  0  0  0  0  0
   -4.4864   -0.6087   -0.5959 C   0  0  0  0  0  0  0  0  0  0  0  0
   -5.8160   -0.9311   -0.2600 C   0  0  0  0  0  0  0  0  0  0  0  0
   -6.4435   -0.3258    0.8219 C   0  0  0  0  0  0  0  0  0  0  0  0
   -5.7424    0.5952    1.5857 C   0  0  0  0  0  0  0  0  0  0  0  0
   -4.4162    0.9120    1.2674 C   0  0  0  0  0  0  0  0  0  0  0  0
   -3.7582    0.3288    0.1727 C   0  0  0  0  0  0  0  0  0  0  0  0
    2.2393   -1.1314    0.6989 C   0  0  0  0  0  0  0  0  0  0  0  0
    3.5984   -1.4350    0.5823 C   0  0  0  0  0  0  0  0  0  0  0  0
    8.5030   -0.3746    0.6616 H   0  0  0  0  0  0  0  0  0  0  0  0
    8.2827   -0.7071   -1.0956 H   0  0  0  0  0  0  0  0  0  0  0  0
    8.6154    0.9407   -0.5252 H   0  0  0  0  0  0  0  0  0  0  0  0
    4.7485    1.6757   -0.2038 H   0  0  0  0  0  0  0  0  0  0  0  0
    2.3850    2.2025    0.0035 H   0  0  0  0  0  0  0  0  0  0  0  0
    0.1376    1.9441   -0.6668 H   0  0  0  0  0  0  0  0  0  0  0  0
    0.2869    2.3313    1.0707 H   0  0  0  0  0  0  0  0  0  0  0  0
   -0.8828    0.2748   -1.6076 H   0  0  0  0  0  0  0  0  0  0  0  0
   -1.3944   -1.1354   -0.6707 H   0  0  0  0  0  0  0  0  0  0  0  0
   -3.0254    0.3524   -2.8071 H   0  0  0  0  0  0  0  0  0  0  0  0
   -2.1707   -1.1725   -3.0669 H   0  0  0  0  0  0  0  0  0  0  0  0
   -4.6153   -1.4574   -2.5659 H   0  0  0  0  0  0  0  0  0  0  0  0
   -3.5645   -2.3300   -1.4375 H   0  0  0  0  0  0  0  0  0  0  0  0
   -6.3677   -1.6610   -0.8489 H   0  0  0  0  0  0  0  0  0  0  0  0
   -7.4706   -0.5762    1.0718 H   0  0  0  0  0  0  0  0  0  0  0  0
   -6.2171    1.0696    2.4409 H   0  0  0  0  0  0  0  0  0  0  0  0
   -3.9219    1.6158    1.9284 H   0  0  0  0  0  0  0  0  0  0  0  0
    1.5348   -1.9185    0.9590 H   0  0  0  0  0  0  0  0  0  0  0  0
    3.9344   -2.4564    0.7514 H   0  0  0  0  0  0  0  0  0  0  0  0
  1  2  1  0
  2  3  1  0
  3  4  2  0
  3  5  1  0
  5  6  2  0
  6  7  1  0
  7  8  2  0
  8  9  1  0
  9 10  1  0
 10 11  1  0
 11 12  2  0
 11 13  1  0
 13 14  1  0
 14 15  1  0
 15 16  1  0
 16 17  1  0
 17 18  2  0
 18 19  1  0
 19 20  2  0
 20 21  1  0
 21 22  2  0
  8 23  1  0
 23 24  2  0
 24  5  1  0
 22 13  1  0
 22 17  1  0
  1 25  1  0
  1 26  1  0
  1 27  1  0
  6 28  1  0
  7 29  1  0
 10 30  1  0
 10 31  1  0
 14 32  1  0
 14 33  1  0
 15 34  1  0
 15 35  1  0
 16 36  1  0
 16 37  1  0
 18 38  1  0
 19 39  1  0
 20 40  1  0
 21 41  1  0
 23 42  1  0
 24 43  1  0
M  END
$$$$
