
     RDKit          3D

 38 39  0  0  0  0  0  0  0  0999 V2000
    3.4495    2.5363    0.4694 C   0  0  0  0  0  0  0  0  0  0  0  0
    3.5496    1.1236    0.0315 C   0  0  0  0  0  0  0  0  0  0  0  0
    4.3630    0.5857   -0.9886 C   0  0  0  0  0  0  0  0  0  0  0  0
    4.0952   -0.7665   -1.0024 C   0  0  0  0  0  0  0  0  0  0  0  0
    4.6365   -1.8446   -1.8655 C   0  0  0  0  0  0  0  0  0  0  0  0
    3.1734   -0.9675   -0.0081 N   0  0  0  0  0  0  0  0  0  0  0  0
    2.5593   -2.2135    0.4169 C   0  0  0  0  0  0  0  0  0  0  0  0
    1.1046   -2.2999    0.0165 C   0  0  0  0  0  0  0  0  0  0  0  0
    0.6313   -3.3346   -0.4546 O   0  0  0  0  0  0  0  0  0  0  0  0
    0.3685   -1.1578    0.3005 N   0  0  0  0  0  0  0  0  0  0  0  0
   -0.9514   -1.1014   -0.0172 N   0  0  0  0  0  0  0  0  0  0  0  0
   -1.5204    0.0428    0.1897 C   0  0  0  0  0  0  0  0  0  0  0  0
   -2.9515    0.2371   -0.1182 C   0  0  0  0  0  0  0  0  0  0  0  0
   -3.5105    1.4964    0.1237 C   0  0  0  0  0  0  0  0  0  0  0  0
   -4.8684    1.7090   -0.1607 C   0  0  0  0  0  0  0  0  0  0  0  0
   -5.4617    3.0291    0.0896 N   0  0  0  0  0  4  0  0  0  0  0  0
   -6.6613    3.1839   -0.1766 O   0  0  0  0  0  0  0  0  0  0  0  0
   -4.7229    3.9097    0.5528 O   0  0  0  0  0  1  0  0  0  0  0  0
   -5.6641    0.6787   -0.6798 C   0  0  0  0  0  0  0  0  0  0  0  0
   -5.0955   -0.5739   -0.9169 C   0  0  0  0  0  0  0  0  0  0  0  0
   -3.7469   -0.7933   -0.6382 C   0  0  0  0  0  0  0  0  0  0  0  0
   -3.2742   -2.0486   -0.9027 O   0  0  0  0  0  0  0  0  0  0  0  0
    2.8052    0.1779    0.6176 N   0  0  0  0  0  0  0  0  0  0  0  0
    4.1627    3.1683   -0.0695 H   0  0  0  0  0  0  0  0  0  0  0  0
    2.4430    2.9242    0.2831 H   0  0  0  0  0  0  0  0  0  0  0  0
    3.6624    2.6227    1.5397 H   0  0  0  0  0  0  0  0  0  0  0  0
    5.0530    1.1152   -1.6314 H   0  0  0  0  0  0  0  0  0  0  0  0
    3.8275   -2.3815   -2.3709 H   0  0  0  0  0  0  0  0  0  0  0  0
    5.2965   -1.4326   -2.6358 H   0  0  0  0  0  0  0  0  0  0  0  0
    5.2165   -2.5591   -1.2729 H   0  0  0  0  0  0  0  0  0  0  0  0
    2.6463   -2.2769    1.5065 H   0  0  0  0  0  0  0  0  0  0  0  0
    3.1107   -3.0470   -0.0261 H   0  0  0  0  0  0  0  0  0  0  0  0
    0.8713   -0.3130    0.5950 H   0  0  0  0  0  0  0  0  0  0  0  0
   -0.9656    0.9073    0.5982 H   0  0  0  0  0  0  0  0  0  0  0  0
   -2.8962    2.2985    0.5267 H   0  0  0  0  0  0  0  0  0  0  0  0
   -6.7183    0.8311   -0.9037 H   0  0  0  0  0  0  0  0  0  0  0  0
   -5.7008   -1.3832   -1.3196 H   0  0  0  0  0  0  0  0  0  0  0  0
   -2.3164   -2.0826   -0.6717 H   0  0  0  0  0  0  0  0  0  0  0  0
  1  2  1  0
  2  3  1  0
  3  4  2  0
  4  5  1  0
  4  6  1  0
  6  7  1  0
  7  8  1  0
  8  9  2  0
  8 10  1  0
 10 11  1  0
 11 12  2  3
 12 13  1  0
 13 14  2  0
 14 15  1  0
 15 16  1  0
 16 17  2  0
 16 18  1  0
 15 19  2  0
 19 20  1  0
 20 21  2  0
 21 22  1  0
  6 23  1  0
 23  2  2  0
 21 13  1  0
  1 24  1  0
  1 25  1  0
  1 26  1  0
  3 27  1  0
  5 28  1  0
  5 29  1  0
  5 30  1  0
  7 31  1  0
  7 32  1  0
 10 33  1  0
 12 34  1  0
 14 35  1  0
 19 36  1  0
 20 37  1  0
 22 38  1  0
M  CHG  2  16   1  18  -1
M  END
$$$$
