
     RDKit          3D

 56 58  0  0  0  0  0  0  0  0999 V2000
   -6.7280   -1.9249    0.2148 C   0  0  0  0  0  0  0  0  0  0  0  0
   -6.6689   -0.7039   -0.6918 C   0  0  0  0  0  0  0  0  0  0  0  0
   -5.8709    0.3686   -0.0790 N   0  0  0  0  0  0  0  0  0  0  0  0
   -6.6325    1.3505    0.7074 C   0  0  0  0  0  0  0  0  0  0  0  0
   -7.0707    2.5240   -0.1573 C   0  0  0  0  0  0  0  0  0  0  0  0
   -4.4964    0.4654   -0.2577 C   0  0  0  0  0  0  0  0  0  0  0  0
   -3.7531    1.5658    0.2007 C   0  0  0  0  0  0  0  0  0  0  0  0
   -2.3633    1.6690    0.0250 C   0  0  0  0  0  0  0  0  0  0  0  0
   -1.6497    0.6559   -0.6107 C   0  0  0  0  0  0  0  0  0  0  0  0
   -0.2002    0.8037   -0.7913 C   0  0  0  0  0  0  0  0  0  0  0  0
    0.6615   -0.2180   -0.6622 C   0  0  0  0  0  0  0  0  0  0  0  0
    2.1115   -0.0491   -0.8188 C   0  0  0  0  0  0  0  0  0  0  0  0
    2.6019    0.3190   -2.0727 C   0  0  0  0  0  0  0  0  0  0  0  0
    3.9623    0.4542   -2.2750 C   0  0  0  0  0  0  0  0  0  0  0  0
    4.8354    0.2063   -1.2236 C   0  0  0  0  0  0  0  0  0  0  0  0
    6.2173    0.3299   -1.4268 C   0  0  0  0  0  0  0  0  0  0  0  0
    7.1181    0.0778   -0.3922 C   0  0  0  0  0  0  0  0  0  0  0  0
    6.6449   -0.3040    0.8555 C   0  0  0  0  0  0  0  0  0  0  0  0
    7.4063   -0.5887    1.9535 O   0  0  0  0  0  0  0  0  0  0  0  0
    8.8205   -0.4820    1.8117 C   0  0  0  0  0  0  0  0  0  0  0  0
    5.2652   -0.4277    1.0663 C   0  0  0  0  0  0  0  0  0  0  0  0
    4.3281   -0.1738    0.0481 C   0  0  0  0  0  0  0  0  0  0  0  0
    2.9656   -0.2816    0.2241 N   0  0  0  0  0  4  0  0  0  0  0  0
    2.4008   -0.6046    1.5713 C   0  0  0  0  0  0  0  0  0  0  0  0
    2.3469   -2.1088    1.7645 C   0  0  0  0  0  0  0  0  0  0  0  0
   -2.3602   -0.4412   -1.0933 C   0  0  0  0  0  0  0  0  0  0  0  0
   -3.7506   -0.5293   -0.9124 C   0  0  0  0  0  0  0  0  0  0  0  0
   -5.7333   -2.3403    0.4020 H   0  0  0  0  0  0  0  0  0  0  0  0
   -7.1697   -1.6730    1.1847 H   0  0  0  0  0  0  0  0  0  0  0  0
   -7.3410   -2.7068   -0.2442 H   0  0  0  0  0  0  0  0  0  0  0  0
   -6.2968   -0.9711   -1.6871 H   0  0  0  0  0  0  0  0  0  0  0  0
   -7.6940   -0.3509   -0.8630 H   0  0  0  0  0  0  0  0  0  0  0  0
   -6.0697    1.6957    1.5819 H   0  0  0  0  0  0  0  0  0  0  0  0
   -7.5290    0.8731    1.1235 H   0  0  0  0  0  0  0  0  0  0  0  0
   -6.2148    3.0600   -0.5784 H   0  0  0  0  0  0  0  0  0  0  0  0
   -7.6557    3.2331    0.4368 H   0  0  0  0  0  0  0  0  0  0  0  0
   -7.6935    2.1869   -0.9925 H   0  0  0  0  0  0  0  0  0  0  0  0
   -4.2405    2.3966    0.7026 H   0  0  0  0  0  0  0  0  0  0  0  0
   -1.8610    2.5574    0.4010 H   0  0  0  0  0  0  0  0  0  0  0  0
    0.1398    1.8155   -1.0085 H   0  0  0  0  0  0  0  0  0  0  0  0
    0.3162   -1.2194   -0.4191 H   0  0  0  0  0  0  0  0  0  0  0  0
    1.9206    0.4957   -2.9047 H   0  0  0  0  0  0  0  0  0  0  0  0
    4.3293    0.7431   -3.2597 H   0  0  0  0  0  0  0  0  0  0  0  0
    6.6152    0.6232   -2.3989 H   0  0  0  0  0  0  0  0  0  0  0  0
    8.1800    0.1854   -0.5973 H   0  0  0  0  0  0  0  0  0  0  0  0
    9.1145    0.5440    1.5671 H   0  0  0  0  0  0  0  0  0  0  0  0
    9.2729   -0.7395    2.7741 H   0  0  0  0  0  0  0  0  0  0  0  0
    9.1948   -1.1903    1.0653 H   0  0  0  0  0  0  0  0  0  0  0  0
    4.9688   -0.7423    2.0624 H   0  0  0  0  0  0  0  0  0  0  0  0
    1.4064   -0.1605    1.6697 H   0  0  0  0  0  0  0  0  0  0  0  0
    3.0038   -0.1093    2.3373 H   0  0  0  0  0  0  0  0  0  0  0  0
    1.7255   -2.5870    1.0016 H   0  0  0  0  0  0  0  0  0  0  0  0
    1.9253   -2.3483    2.7454 H   0  0  0  0  0  0  0  0  0  0  0  0
    3.3416   -2.5601    1.7045 H   0  0  0  0  0  0  0  0  0  0  0  0
   -1.8628   -1.2445   -1.6301 H   0  0  0  0  0  0  0  0  0  0  0  0
   -4.2346   -1.4187   -1.3051 H   0  0  0  0  0  0  0  0  0  0  0  0
  1  2  1  0
  2  3  1  0
  3  4  1  0
  4  5  1  0
  3  6  1  0
  6  7  2  0
  7  8  1  0
  8  9  2  0
  9 10  1  0
 10 11  2  3
 11 12  1  0
 12 13  2  0
 13 14  1  0
 14 15  2  0
 15 16  1  0
 16 17  2  0
 17 18  1  0
 18 19  1  0
 19 20  1  0
 18 21  2  0
 21 22  1  0
 22 23  2  0
 23 24  1  0
 24 25  1  0
  9 26  1  0
 26 27  2  0
 27  6  1  0
 23 12  1  0
 22 15  1  0
  1 28  1  0
  1 29  1  0
  1 30  1  0
  2 31  1  0
  2 32  1  0
  4 33  1  0
  4 34  1  0
  5 35  1  0
  5 36  1  0
  5 37  1  0
  7 38  1  0
  8 39  1  0
 10 40  1  0
 11 41  1  0
 13 42  1  0
 14 43  1  0
 16 44  1  0
 17 45  1  0
 20 46  1  0
 20 47  1  0
 20 48  1  0
 21 49  1  0
 24 50  1  0
 24 51  1  0
 25 52  1  0
 25 53  1  0
 25 54  1  0
 26 55  1  0
 27 56  1  0
M  CHG  1  23   1
M  END
$$$$
