
     RDKit          3D

 37 38  0  0  0  0  0  0  0  0999 V2000
   -5.8454   -1.0836   -0.2971 C   0  0  0  0  0  0  0  0  0  0  0  0
   -4.9974   -0.4796   -1.3242 N   0  0  0  0  0  0  0  0  0  0  0  0
   -5.6924    0.3558   -2.3030 C   0  0  0  0  0  0  0  0  0  0  0  0
   -3.6526   -0.2258   -1.0386 C   0  0  0  0  0  0  0  0  0  0  0  0
   -2.9972   -0.8112    0.0582 C   0  0  0  0  0  0  0  0  0  0  0  0
   -1.6404   -0.5799    0.3371 C   0  0  0  0  0  0  0  0  0  0  0  0
   -0.8740    0.2394   -0.4902 C   0  0  0  0  0  0  0  0  0  0  0  0
    0.5420    0.5289   -0.2259 C   0  0  0  0  0  0  0  0  0  0  0  0
    1.4205   -0.4019    0.1811 C   0  0  0  0  0  0  0  0  0  0  0  0
    2.8390   -0.1319    0.4422 C   0  0  0  0  0  0  0  0  0  0  0  0
    3.5953    0.7259   -0.3552 C   0  0  0  0  0  0  0  0  0  0  0  0
    4.9438    0.9188   -0.0765 C   0  0  0  0  0  0  0  0  0  0  0  0
    5.5337    0.2718    0.9529 N   0  0  0  0  0  4  0  0  0  0  0  0
    6.9606    0.5018    1.2361 C   0  0  0  0  0  0  0  0  0  0  0  0
    4.8235   -0.5703    1.7358 C   0  0  0  0  0  0  0  0  0  0  0  0
    3.4731   -0.7945    1.4918 C   0  0  0  0  0  0  0  0  0  0  0  0
   -1.4994    0.8379   -1.5825 C   0  0  0  0  0  0  0  0  0  0  0  0
   -2.8564    0.5981   -1.8523 C   0  0  0  0  0  0  0  0  0  0  0  0
   -6.8726   -1.2166   -0.6549 H   0  0  0  0  0  0  0  0  0  0  0  0
   -5.8867   -0.4540    0.5985 H   0  0  0  0  0  0  0  0  0  0  0  0
   -5.4900   -2.0841   -0.0283 H   0  0  0  0  0  0  0  0  0  0  0  0
   -5.2322    0.2720   -3.2933 H   0  0  0  0  0  0  0  0  0  0  0  0
   -5.7016    1.4051   -1.9880 H   0  0  0  0  0  0  0  0  0  0  0  0
   -6.7340    0.0394   -2.4292 H   0  0  0  0  0  0  0  0  0  0  0  0
   -3.5293   -1.4721    0.7360 H   0  0  0  0  0  0  0  0  0  0  0  0
   -1.2075   -1.0498    1.2160 H   0  0  0  0  0  0  0  0  0  0  0  0
    0.8374    1.5612   -0.3948 H   0  0  0  0  0  0  0  0  0  0  0  0
    1.0937   -1.4287    0.3400 H   0  0  0  0  0  0  0  0  0  0  0  0
    3.1480    1.2416   -1.2027 H   0  0  0  0  0  0  0  0  0  0  0  0
    5.5590    1.5858   -0.6740 H   0  0  0  0  0  0  0  0  0  0  0  0
    7.3874   -0.3992    1.6840 H   0  0  0  0  0  0  0  0  0  0  0  0
    7.0248    1.3475    1.9253 H   0  0  0  0  0  0  0  0  0  0  0  0
    7.4808    0.7211    0.3001 H   0  0  0  0  0  0  0  0  0  0  0  0
    5.3436   -1.0602    2.5543 H   0  0  0  0  0  0  0  0  0  0  0  0
    2.9196   -1.4794    2.1321 H   0  0  0  0  0  0  0  0  0  0  0  0
   -0.9448    1.4894   -2.2534 H   0  0  0  0  0  0  0  0  0  0  0  0
   -3.2719    1.0814   -2.7315 H   0  0  0  0  0  0  0  0  0  0  0  0
  1  2  1  0
  2  3  1  0
  2  4  1  0
  4  5  2  0
  5  6  1  0
  6  7  2  0
  7  8  1  0
  8  9  2  3
  9 10  1  0
 10 11  2  0
 11 12  1  0
 12 13  2  0
 13 14  1  0
 13 15  1  0
 15 16  2  0
  7 17  1  0
 17 18  2  0
 18  4  1  0
 16 10  1  0
  1 19  1  0
  1 20  1  0
  1 21  1  0
  3 22  1  0
  3 23  1  0
  3 24  1  0
  5 25  1  0
  6 26  1  0
  8 27  1  0
  9 28  1  0
 11 29  1  0
 12 30  1  0
 14 31  1  0
 14 32  1  0
 14 33  1  0
 15 34  1  0
 16 35  1  0
 17 36  1  0
 18 37  1  0
M  CHG  1  13   1
M  END
$$$$
