
     RDKit          3D

 70 76  0  0  0  0  0  0  0  0999 V2000
   -6.1484   -4.1811   -0.2287 C   0  0  0  0  0  0  0  0  0  0  0  0
   -4.9507   -3.6326    0.4863 C   0  0  0  0  0  0  0  0  0  0  0  0
   -4.6423   -4.0122    1.8071 C   0  0  0  0  0  0  0  0  0  0  0  0
   -5.6381   -5.1331    2.6729 Cl  0  0  0  0  0  0  0  0  0  0  0  0
   -3.5108   -3.5067    2.4783 C   0  0  0  0  0  0  0  0  0  0  0  0
   -2.6521   -2.6040    1.8514 C   0  0  0  0  0  0  0  0  0  0  0  0
   -2.9485   -2.2192    0.5543 C   0  0  0  0  0  0  0  0  0  0  0  0
   -4.0715   -2.7369   -0.1104 C   0  0  0  0  0  0  0  0  0  0  0  0
   -4.1243   -2.2263   -1.4081 N   0  0  0  0  0  0  0  0  0  0  0  0
   -3.0639   -1.3551   -1.6674 C   0  0  0  0  0  0  0  0  0  0  0  0
   -2.8629   -0.7973   -2.7365 O   0  0  0  0  0  0  0  0  0  0  0  0
   -2.2226   -1.2871   -0.3698 C   0  0  1  0  0  0  0  0  0  0  0  0
   -2.1630    0.0769    0.2174 C   0  0  0  0  0  0  0  0  0  0  0  0
   -0.8975    0.6474   -0.0053 C   0  0  0  0  0  0  0  0  0  0  0  0
   -0.8676    1.8921    0.5637 C   0  0  0  0  0  0  0  0  0  0  0  0
    0.0884    2.8174    0.5591 O   0  0  0  0  0  0  0  0  0  0  0  0
   -2.1414    2.1203    1.1274 N   0  0  0  0  0  0  0  0  0  0  0  0
   -2.5878    3.3373    1.7349 C   0  0  0  0  0  0  0  0  0  0  0  0
   -3.9264    3.7398    1.6084 C   0  0  0  0  0  0  0  0  0  0  0  0
   -4.3662    4.9236    2.2060 C   0  0  0  0  0  0  0  0  0  0  0  0
   -3.4756    5.7149    2.9277 C   0  0  0  0  0  0  0  0  0  0  0  0
   -2.1418    5.3296    3.0451 C   0  0  0  0  0  0  0  0  0  0  0  0
   -1.6953    4.1482    2.4470 C   0  0  0  0  0  0  0  0  0  0  0  0
   -2.9148    0.9530    0.9520 C   0  0  0  0  0  0  0  0  0  0  0  0
   -4.1243    0.7561    1.4751 O   0  0  0  0  0  0  0  0  0  0  0  0
   -0.0720   -0.2793   -0.8099 C   0  0  1  0  0  0  0  0  0  0  0  0
    1.4045   -0.4527   -0.4628 C   0  0  0  0  0  0  0  0  0  0  0  0
    1.9980   -1.5816   -1.2172 N   0  0  0  0  0  0  0  0  0  0  0  0
    3.3698   -1.7210   -1.4216 C   0  0  0  0  0  0  0  0  0  0  0  0
    3.8696   -2.7842   -1.7892 O   0  0  0  0  0  0  0  0  0  0  0  0
    4.2218   -0.4859   -1.1874 C   0  0  0  0  0  0  0  0  0  0  0  0
    5.6989   -0.7490   -1.4763 C   0  0  0  0  0  0  0  0  0  0  0  0
    6.5287    0.4897   -1.2423 C   0  0  0  0  0  0  0  0  0  0  0  0
    7.0655    0.7562    0.0243 C   0  0  0  0  0  0  0  0  0  0  0  0
    7.8122    1.9143    0.2457 C   0  0  0  0  0  0  0  0  0  0  0  0
    8.0258    2.8170   -0.7944 C   0  0  0  0  0  0  0  0  0  0  0  0
    7.4928    2.5629   -2.0568 C   0  0  0  0  0  0  0  0  0  0  0  0
    6.7456    1.4055   -2.2804 C   0  0  0  0  0  0  0  0  0  0  0  0
    1.1903   -2.8194   -1.2727 C   0  0  0  0  0  0  0  0  0  0  0  0
   -0.3301   -2.5916   -1.4676 C   0  0  0  0  0  0  0  0  0  0  0  0
   -0.7767   -1.5680   -0.5380 N   0  0  0  0  0  0  0  0  0  0  0  0
   -6.0406   -5.2609   -0.3740 H   0  0  0  0  0  0  0  0  0  0  0  0
   -7.0606   -3.9799    0.3429 H   0  0  0  0  0  0  0  0  0  0  0  0
   -6.2898   -3.7311   -1.2151 H   0  0  0  0  0  0  0  0  0  0  0  0
   -3.2983   -3.8200    3.4982 H   0  0  0  0  0  0  0  0  0  0  0  0
   -1.7798   -2.2115    2.3648 H   0  0  0  0  0  0  0  0  0  0  0  0
   -4.8257   -2.4339   -2.1018 H   0  0  0  0  0  0  0  0  0  0  0  0
    0.8053    2.5176   -0.0243 H   0  0  0  0  0  0  0  0  0  0  0  0
   -4.6343    3.1780    1.0022 H   0  0  0  0  0  0  0  0  0  0  0  0
   -5.4013    5.2369    2.0932 H   0  0  0  0  0  0  0  0  0  0  0  0
   -3.8175    6.6378    3.3892 H   0  0  0  0  0  0  0  0  0  0  0  0
   -1.4445    5.9493    3.6036 H   0  0  0  0  0  0  0  0  0  0  0  0
   -0.6536    3.8677    2.5775 H   0  0  0  0  0  0  0  0  0  0  0  0
   -4.2351    1.3522    2.2379 H   0  0  0  0  0  0  0  0  0  0  0  0
   -0.1741   -0.0069   -1.8704 H   0  0  0  0  0  0  0  0  0  0  0  0
    1.9410    0.4745   -0.6817 H   0  0  0  0  0  0  0  0  0  0  0  0
    1.5475   -0.6650    0.6045 H   0  0  0  0  0  0  0  0  0  0  0  0
    3.8566    0.3157   -1.8403 H   0  0  0  0  0  0  0  0  0  0  0  0
    4.1042   -0.1720   -0.1436 H   0  0  0  0  0  0  0  0  0  0  0  0
    6.0740   -1.5650   -0.8451 H   0  0  0  0  0  0  0  0  0  0  0  0
    5.8329   -1.0893   -2.5113 H   0  0  0  0  0  0  0  0  0  0  0  0
    6.9080    0.0603    0.8453 H   0  0  0  0  0  0  0  0  0  0  0  0
    8.2296    2.1110    1.2298 H   0  0  0  0  0  0  0  0  0  0  0  0
    8.6097    3.7172   -0.6219 H   0  0  0  0  0  0  0  0  0  0  0  0
    7.6611    3.2655   -2.8688 H   0  0  0  0  0  0  0  0  0  0  0  0
    6.3367    1.2201   -3.2712 H   0  0  0  0  0  0  0  0  0  0  0  0
    1.3633   -3.3444   -0.3243 H   0  0  0  0  0  0  0  0  0  0  0  0
    1.5626   -3.4657   -2.0756 H   0  0  0  0  0  0  0  0  0  0  0  0
   -0.5223   -2.2972   -2.5063 H   0  0  0  0  0  0  0  0  0  0  0  0
   -0.8501   -3.5391   -1.2882 H   0  0  0  0  0  0  0  0  0  0  0  0
  1  2  1  0
  2  3  2  0
  3  4  1  0
  3  5  1  0
  5  6  2  0
  6  7  1  0
  7  8  2  0
  8  9  1  0
  9 10  1  0
 10 11  2  0
 10 12  1  0
 12 13  1  0
 13 14  1  0
 14 15  2  0
 15 16  1  0
 15 17  1  0
 17 18  1  0
 18 19  2  0
 19 20  1  0
 20 21  2  0
 21 22  1  0
 22 23  2  0
 17 24  1  0
 24 25  1  0
 14 26  1  0
 26 27  1  0
 27 28  1  0
 28 29  1  0
 29 30  2  0
 29 31  1  0
 31 32  1  0
 32 33  1  0
 33 34  2  0
 34 35  1  0
 35 36  2  0
 36 37  1  0
 37 38  2  0
 28 39  1  0
 39 40  1  0
 40 41  1  0
  8  2  1  0
 12 41  1  6
 12  7  1  0
 24 13  2  0
 41 26  1  0
 23 18  1  0
 38 33  1  0
  1 42  1  0
  1 43  1  0
  1 44  1  0
  5 45  1  0
  6 46  1  0
  9 47  1  0
 16 48  1  0
 19 49  1  0
 20 50  1  0
 21 51  1  0
 22 52  1  0
 23 53  1  0
 25 54  1  0
 26 55  1  6
 27 56  1  0
 27 57  1  0
 31 58  1  0
 31 59  1  0
 32 60  1  0
 32 61  1  0
 34 62  1  0
 35 63  1  0
 36 64  1  0
 37 65  1  0
 38 66  1  0
 39 67  1  0
 39 68  1  0
 40 69  1  0
 40 70  1  0
M  END
$$$$
