
     RDKit          3D

 58 60  0  0  0  0  0  0  0  0999 V2000
    0.9371    2.0733   -0.1266 C   0  0  0  0  0  0  0  0  0  0  0  0
   -0.5428    1.8256    0.0036 C   0  0  0  0  0  0  0  0  0  0  0  0
   -1.4141    2.9259   -0.0973 C   0  0  0  0  0  0  0  0  0  0  0  0
   -2.7931    2.7564    0.0031 C   0  0  0  0  0  0  0  0  0  0  0  0
   -3.3106    1.4789    0.2103 C   0  0  0  0  0  0  0  0  0  0  0  0
   -5.0687    1.2522    0.3826 S   0  0  0  0  0  6  0  0  0  0  0  0
   -5.2817    0.1996    1.3513 O   0  0  0  0  0  0  0  0  0  0  0  0
   -5.6536    2.5650    0.5666 O   0  0  0  0  0  0  0  0  0  0  0  0
   -5.5464    0.6890   -1.1363 N   0  0  0  0  0  0  0  0  0  0  0  0
   -5.2357   -0.7241   -1.4876 C   0  0  0  0  0  0  0  0  0  0  0  0
   -5.7022   -1.0104   -2.9194 C   0  0  0  0  0  0  0  0  0  0  0  0
   -5.0328   -0.2055   -3.9038 O   0  0  0  0  0  0  0  0  0  0  0  0
   -4.5912    1.0628   -3.4015 C   0  0  0  0  0  0  0  0  0  0  0  0
   -5.4845    1.6253   -2.2911 C   0  0  0  0  0  0  0  0  0  0  0  0
   -2.4587    0.3790    0.3448 C   0  0  0  0  0  0  0  0  0  0  0  0
   -1.0755    0.5338    0.2111 C   0  0  0  0  0  0  0  0  0  0  0  0
   -0.1937   -0.5642    0.2969 N   0  0  0  0  0  0  0  0  0  0  0  0
   -0.5145   -1.9141    0.2529 C   0  0  0  0  0  0  0  0  0  0  0  0
   -1.6223   -2.3881    0.0189 O   0  0  0  0  0  0  0  0  0  0  0  0
    0.7167   -2.8078    0.4227 C   0  0  0  0  0  0  0  0  0  0  0  0
    1.7667   -2.1633    1.1524 O   0  0  0  0  0  0  0  0  0  0  0  0
    1.7026   -2.3246    2.5055 C   0  0  0  0  0  0  0  0  0  0  0  0
    0.7942   -2.9024    3.0901 O   0  0  0  0  0  0  0  0  0  0  0  0
    2.8843   -1.6797    3.2298 C   0  0  0  0  0  0  0  0  0  0  0  0
    3.8215   -0.9567    2.3810 N   0  0  0  0  0  0  0  0  0  0  0  0
    4.8080   -1.6375    1.6976 C   0  0  0  0  0  0  0  0  0  0  0  0
    4.9656   -2.8489    1.7887 O   0  0  0  0  0  0  0  0  0  0  0  0
    5.6563   -0.8291    0.7791 C   0  0  0  0  0  0  0  0  0  0  0  0
    5.9124    0.5296    1.0073 C   0  0  0  0  0  0  0  0  0  0  0  0
    6.7155    1.2472    0.1167 C   0  0  0  0  0  0  0  0  0  0  0  0
    7.2684    0.6116   -0.9956 C   0  0  0  0  0  0  0  0  0  0  0  0
    7.0284   -0.7438   -1.2181 C   0  0  0  0  0  0  0  0  0  0  0  0
    6.2275   -1.4649   -0.3308 C   0  0  0  0  0  0  0  0  0  0  0  0
    1.3429    1.5160   -0.9772 H   0  0  0  0  0  0  0  0  0  0  0  0
    1.1568    3.1329   -0.2944 H   0  0  0  0  0  0  0  0  0  0  0  0
    1.4545    1.7731    0.7905 H   0  0  0  0  0  0  0  0  0  0  0  0
   -1.0205    3.9293   -0.2539 H   0  0  0  0  0  0  0  0  0  0  0  0
   -3.4494    3.6214   -0.0668 H   0  0  0  0  0  0  0  0  0  0  0  0
   -5.7541   -1.3951   -0.7954 H   0  0  0  0  0  0  0  0  0  0  0  0
   -4.1586   -0.9000   -1.4256 H   0  0  0  0  0  0  0  0  0  0  0  0
   -6.7788   -0.8299   -3.0183 H   0  0  0  0  0  0  0  0  0  0  0  0
   -5.5198   -2.0589   -3.1752 H   0  0  0  0  0  0  0  0  0  0  0  0
   -3.5614    0.9419   -3.0446 H   0  0  0  0  0  0  0  0  0  0  0  0
   -4.5622    1.7566   -4.2481 H   0  0  0  0  0  0  0  0  0  0  0  0
   -6.5084    1.7517   -2.6618 H   0  0  0  0  0  0  0  0  0  0  0  0
   -5.1190    2.6124   -1.9940 H   0  0  0  0  0  0  0  0  0  0  0  0
   -2.8954   -0.5893    0.5728 H   0  0  0  0  0  0  0  0  0  0  0  0
    0.7991   -0.3677    0.3083 H   0  0  0  0  0  0  0  0  0  0  0  0
    1.1032   -3.0326   -0.5769 H   0  0  0  0  0  0  0  0  0  0  0  0
    0.4242   -3.7566    0.8868 H   0  0  0  0  0  0  0  0  0  0  0  0
    2.4852   -0.9512    3.9420 H   0  0  0  0  0  0  0  0  0  0  0  0
    3.4235   -2.4663    3.7675 H   0  0  0  0  0  0  0  0  0  0  0  0
    3.5843   -0.0159    2.1015 H   0  0  0  0  0  0  0  0  0  0  0  0
    5.5260    1.0357    1.8873 H   0  0  0  0  0  0  0  0  0  0  0  0
    6.9240    2.2993    0.2969 H   0  0  0  0  0  0  0  0  0  0  0  0
    7.8997    1.1701   -1.6839 H   0  0  0  0  0  0  0  0  0  0  0  0
    7.4706   -1.2419   -2.0783 H   0  0  0  0  0  0  0  0  0  0  0  0
    6.0510   -2.5249   -0.5049 H   0  0  0  0  0  0  0  0  0  0  0  0
  1  2  1  0
  2  3  2  0
  3  4  1  0
  4  5  2  0
  5  6  1  0
  6  7  2  0
  6  8  2  0
  6  9  1  0
  9 10  1  0
 10 11  1  0
 11 12  1  0
 12 13  1  0
 13 14  1  0
  5 15  1  0
 15 16  2  0
 16 17  1  0
 17 18  1  0
 18 19  2  0
 18 20  1  0
 20 21  1  0
 21 22  1  0
 22 23  2  0
 22 24  1  0
 24 25  1  0
 25 26  1  0
 26 27  2  0
 26 28  1  0
 28 29  2  0
 29 30  1  0
 30 31  2  0
 31 32  1  0
 32 33  2  0
 16  2  1  0
 33 28  1  0
 14  9  1  0
  1 34  1  0
  1 35  1  0
  1 36  1  0
  3 37  1  0
  4 38  1  0
 10 39  1  0
 10 40  1  0
 11 41  1  0
 11 42  1  0
 13 43  1  0
 13 44  1  0
 14 45  1  0
 14 46  1  0
 15 47  1  0
 17 48  1  0
 20 49  1  0
 20 50  1  0
 24 51  1  0
 24 52  1  0
 25 53  1  0
 29 54  1  0
 30 55  1  0
 31 56  1  0
 32 57  1  0
 33 58  1  0
M  END
$$$$
