
     RDKit          3D

 49 52  0  0  0  0  0  0  0  0999 V2000
   -2.5892    2.8889    2.3507 O   0  0  0  0  0  0  0  0  0  0  0  0
   -2.1257    3.3022    1.3063 C   0  0  0  0  0  0  0  0  0  0  0  0
   -1.5516    4.5186    1.2334 O   0  0  0  0  0  0  0  0  0  0  0  0
   -2.0675    2.5945    0.0022 C   0  0  0  0  0  0  0  0  0  0  0  0
   -2.2988    3.3736   -1.1512 C   0  0  0  0  0  0  0  0  0  0  0  0
   -2.4396    2.7768   -2.4001 C   0  0  0  0  0  0  0  0  0  0  0  0
   -2.3940    1.3935   -2.5003 C   0  0  0  0  0  0  0  0  0  0  0  0
   -2.1654    0.6145   -1.3559 C   0  0  0  0  0  0  0  0  0  0  0  0
   -2.1886   -0.8604   -1.4944 C   0  0  0  0  0  0  0  0  0  0  0  0
   -2.2470   -1.3859   -2.6014 O   0  0  0  0  0  0  0  0  0  0  0  0
   -2.1617   -1.6844   -0.2703 C   0  0  0  0  0  0  0  0  0  0  0  0
   -2.3983   -3.0626   -0.3549 C   0  0  0  0  0  0  0  0  0  0  0  0
   -2.3715   -3.8402    0.7993 C   0  0  0  0  0  0  0  0  0  0  0  0
   -2.1142   -3.2398    2.0289 C   0  0  0  0  0  0  0  0  0  0  0  0
   -1.8702   -1.8639    2.1051 C   0  0  0  0  0  0  0  0  0  0  0  0
   -1.8700   -1.0619    0.9527 C   0  0  0  0  0  0  0  0  0  0  0  0
   -1.6101    0.3310    0.9975 N   0  0  0  0  0  0  0  0  0  0  0  0
   -0.4636    0.7302    1.8642 C   0  0  0  0  0  0  0  0  0  0  0  0
    0.8755    0.0391    1.5185 C   0  0  0  0  0  0  0  0  0  0  0  0
    1.8621    0.4349    2.4907 O   0  0  0  0  0  0  0  0  0  0  0  0
    1.4029    0.4208    0.1187 C   0  0  0  0  0  0  0  0  0  0  0  0
    2.7778   -0.0797   -0.0858 N   0  0  0  0  0  0  0  0  0  0  0  0
    3.3593    0.4507   -1.3244 C   0  0  0  0  0  0  0  0  0  0  0  0
    4.5672   -0.4449   -1.5443 C   0  0  0  0  0  0  0  0  0  0  0  0
    4.2038   -1.7671   -0.8792 C   0  0  0  0  0  0  0  0  0  0  0  0
    2.8351   -1.5378   -0.2536 C   0  0  0  0  0  0  0  0  0  0  0  0
   -1.9289    1.1898   -0.0874 C   0  0  0  0  0  0  0  0  0  0  0  0
   -1.6339    4.8720    2.1448 H   0  0  0  0  0  0  0  0  0  0  0  0
   -2.4038    4.4547   -1.0729 H   0  0  0  0  0  0  0  0  0  0  0  0
   -2.6254    3.3845   -3.2824 H   0  0  0  0  0  0  0  0  0  0  0  0
   -2.5504    0.9165   -3.4665 H   0  0  0  0  0  0  0  0  0  0  0  0
   -2.6087   -3.5251   -1.3168 H   0  0  0  0  0  0  0  0  0  0  0  0
   -2.5616   -4.9090    0.7411 H   0  0  0  0  0  0  0  0  0  0  0  0
   -2.1099   -3.8400    2.9360 H   0  0  0  0  0  0  0  0  0  0  0  0
   -1.7005   -1.4277    3.0862 H   0  0  0  0  0  0  0  0  0  0  0  0
   -0.2722    1.8072    1.8400 H   0  0  0  0  0  0  0  0  0  0  0  0
   -0.7124    0.5382    2.9159 H   0  0  0  0  0  0  0  0  0  0  0  0
    0.7813   -1.0477    1.6012 H   0  0  0  0  0  0  0  0  0  0  0  0
    2.7200    0.2786    2.0408 H   0  0  0  0  0  0  0  0  0  0  0  0
    1.4328    1.5163    0.0550 H   0  0  0  0  0  0  0  0  0  0  0  0
    0.7333    0.0589   -0.6684 H   0  0  0  0  0  0  0  0  0  0  0  0
    2.6662    0.3563   -2.1703 H   0  0  0  0  0  0  0  0  0  0  0  0
    3.6500    1.5013   -1.2255 H   0  0  0  0  0  0  0  0  0  0  0  0
    5.4566   -0.0208   -1.0633 H   0  0  0  0  0  0  0  0  0  0  0  0
    4.7892   -0.5712   -2.6086 H   0  0  0  0  0  0  0  0  0  0  0  0
    4.9480   -2.0154   -0.1136 H   0  0  0  0  0  0  0  0  0  0  0  0
    4.1782   -2.5891   -1.6019 H   0  0  0  0  0  0  0  0  0  0  0  0
    2.0528   -1.8986   -0.9338 H   0  0  0  0  0  0  0  0  0  0  0  0
    2.7427   -2.0704    0.6978 H   0  0  0  0  0  0  0  0  0  0  0  0
  1  2  2  0
  2  3  1  0
  2  4  1  0
  4  5  2  0
  5  6  1  0
  6  7  2  0
  7  8  1  0
  8  9  1  0
  9 10  2  0
  9 11  1  0
 11 12  2  0
 12 13  1  0
 13 14  2  0
 14 15  1  0
 15 16  2  0
 16 17  1  0
 17 18  1  0
 18 19  1  0
 19 20  1  0
 19 21  1  0
 21 22  1  0
 22 23  1  0
 23 24  1  0
 24 25  1  0
 25 26  1  0
 17 27  1  0
 27  4  1  0
 27  8  2  0
 16 11  1  0
 26 22  1  0
  3 28  1  0
  5 29  1  0
  6 30  1  0
  7 31  1  0
 12 32  1  0
 13 33  1  0
 14 34  1  0
 15 35  1  0
 18 36  1  0
 18 37  1  0
 19 38  1  0
 20 39  1  0
 21 40  1  0
 21 41  1  0
 23 42  1  0
 23 43  1  0
 24 44  1  0
 24 45  1  0
 25 46  1  0
 25 47  1  0
 26 48  1  0
 26 49  1  0
M  END
$$$$
