
     RDKit          3D

 65 66  0  0  0  0  0  0  0  0999 V2000
   -3.7787    5.4475    1.7012 C   0  0  0  0  0  0  0  0  0  0  0  0
   -4.0139    4.3155    2.5278 O   0  0  0  0  0  0  0  0  0  0  0  0
   -3.3816    3.1546    2.1820 C   0  0  0  0  0  0  0  0  0  0  0  0
   -3.6918    2.0585    2.9826 C   0  0  0  0  0  0  0  0  0  0  0  0
   -3.1202    0.8079    2.7353 C   0  0  0  0  0  0  0  0  0  0  0  0
   -2.2112    0.6226    1.6791 C   0  0  0  0  0  0  0  0  0  0  0  0
   -1.6383   -0.7748    1.4373 C   0  0  0  0  0  0  0  0  0  0  0  0
   -2.2804   -1.6196    0.2910 C   0  0  0  0  0  0  0  0  0  0  0  0
   -1.8125   -2.7181   -0.0196 O   0  0  0  0  0  0  0  0  0  0  0  0
   -3.4273   -1.1073   -0.2899 N   0  0  0  0  0  0  0  0  0  0  0  0
   -4.1263   -1.7117   -1.4333 C   0  0  0  0  0  0  0  0  0  0  0  0
   -5.3438   -0.8270   -1.7633 C   0  0  0  0  0  0  0  0  0  0  0  0
   -3.2114   -1.7615   -2.6677 C   0  0  0  0  0  0  0  0  0  0  0  0
   -4.6407   -3.1210   -1.0923 C   0  0  0  0  0  0  0  0  0  0  0  0
   -0.1569   -0.8513    1.4183 N   0  0  0  0  0  0  0  0  0  0  0  0
    0.5127   -1.3421    2.6356 C   0  0  0  0  0  0  0  0  0  0  0  0
    0.9417   -0.2231    3.5883 C   0  0  0  0  0  0  0  0  0  0  0  0
   -0.1832    0.3450    4.2465 O   0  0  0  0  0  0  0  0  0  0  0  0
    0.5163   -0.5235    0.2461 C   0  0  0  0  0  0  0  0  0  0  0  0
   -0.0684   -0.1244   -0.7610 O   0  0  0  0  0  0  0  0  0  0  0  0
    2.0265   -0.6807    0.2384 C   0  0  0  0  0  0  0  0  0  0  0  0
    2.6228   -0.2819   -1.1091 C   0  0  0  0  0  0  0  0  0  0  0  0
    4.1345   -0.3812   -1.1068 C   0  0  0  0  0  0  0  0  0  0  0  0
    4.7779   -0.5399   -0.0748 O   0  0  0  0  0  0  0  0  0  0  0  0
    4.6575   -0.2437   -2.3720 N   0  0  0  0  0  0  0  0  0  0  0  0
    5.9979   -0.2587   -2.6862 C   0  0  0  0  0  0  0  0  0  0  0  0
    7.1191   -0.3859   -1.8398 C   0  0  0  0  0  0  0  0  0  0  0  0
    8.1991   -0.3261   -2.6843 C   0  0  0  0  0  0  0  0  0  0  0  0
    9.6576   -0.3936   -2.4975 C   0  0  0  0  0  0  0  0  0  0  0  0
    7.7575   -0.1835   -3.9606 O   0  0  0  0  0  0  0  0  0  0  0  0
    6.3764   -0.1265   -3.9612 N   0  0  0  0  0  0  0  0  0  0  0  0
   -1.9094    1.7343    0.8823 C   0  0  0  0  0  0  0  0  0  0  0  0
   -2.4863    2.9877    1.1304 C   0  0  0  0  0  0  0  0  0  0  0  0
   -2.7260    5.7464    1.7323 H   0  0  0  0  0  0  0  0  0  0  0  0
   -4.1087    5.2606    0.6740 H   0  0  0  0  0  0  0  0  0  0  0  0
   -4.3734    6.2792    2.0933 H   0  0  0  0  0  0  0  0  0  0  0  0
   -4.3902    2.1748    3.8075 H   0  0  0  0  0  0  0  0  0  0  0  0
   -3.3933   -0.0216    3.3861 H   0  0  0  0  0  0  0  0  0  0  0  0
   -1.9421   -1.3621    2.3171 H   0  0  0  0  0  0  0  0  0  0  0  0
   -3.6129   -0.1255   -0.1278 H   0  0  0  0  0  0  0  0  0  0  0  0
   -5.9255   -1.2389   -2.5955 H   0  0  0  0  0  0  0  0  0  0  0  0
   -5.0304    0.1847   -2.0444 H   0  0  0  0  0  0  0  0  0  0  0  0
   -6.0110   -0.7328   -0.8990 H   0  0  0  0  0  0  0  0  0  0  0  0
   -2.3500   -2.4197   -2.5127 H   0  0  0  0  0  0  0  0  0  0  0  0
   -2.8174   -0.7663   -2.9058 H   0  0  0  0  0  0  0  0  0  0  0  0
   -3.7539   -2.1271   -3.5462 H   0  0  0  0  0  0  0  0  0  0  0  0
   -5.2502   -3.1039   -0.1811 H   0  0  0  0  0  0  0  0  0  0  0  0
   -5.2582   -3.5233   -1.9020 H   0  0  0  0  0  0  0  0  0  0  0  0
   -3.8265   -3.8323   -0.9279 H   0  0  0  0  0  0  0  0  0  0  0  0
   -0.1586   -2.0402    3.1476 H   0  0  0  0  0  0  0  0  0  0  0  0
    1.3977   -1.9172    2.3517 H   0  0  0  0  0  0  0  0  0  0  0  0
    1.4918    0.5726    3.0771 H   0  0  0  0  0  0  0  0  0  0  0  0
    1.5915   -0.6391    4.3646 H   0  0  0  0  0  0  0  0  0  0  0  0
   -0.5471    1.0288    3.6516 H   0  0  0  0  0  0  0  0  0  0  0  0
    2.4504   -0.0561    1.0309 H   0  0  0  0  0  0  0  0  0  0  0  0
    2.2795   -1.7283    0.4346 H   0  0  0  0  0  0  0  0  0  0  0  0
    2.3550    0.7539   -1.3516 H   0  0  0  0  0  0  0  0  0  0  0  0
    2.2259   -0.9298   -1.9005 H   0  0  0  0  0  0  0  0  0  0  0  0
    4.0508   -0.1228   -3.1705 H   0  0  0  0  0  0  0  0  0  0  0  0
    7.1433   -0.5066   -0.7692 H   0  0  0  0  0  0  0  0  0  0  0  0
    9.9267   -0.2201   -1.4499 H   0  0  0  0  0  0  0  0  0  0  0  0
   10.0355   -1.3801   -2.7903 H   0  0  0  0  0  0  0  0  0  0  0  0
   10.1598    0.3632   -3.1087 H   0  0  0  0  0  0  0  0  0  0  0  0
   -1.2333    1.6549    0.0372 H   0  0  0  0  0  0  0  0  0  0  0  0
   -2.2143    3.8081    0.4748 H   0  0  0  0  0  0  0  0  0  0  0  0
  1  2  1  0
  2  3  1  0
  3  4  2  0
  4  5  1  0
  5  6  2  0
  6  7  1  0
  7  8  1  0
  8  9  2  0
  8 10  1  0
 10 11  1  0
 11 12  1  0
 11 13  1  0
 11 14  1  0
  7 15  1  0
 15 16  1  0
 16 17  1  0
 17 18  1  0
 15 19  1  0
 19 20  2  0
 19 21  1  0
 21 22  1  0
 22 23  1  0
 23 24  2  0
 23 25  1  0
 25 26  1  0
 26 27  1  0
 27 28  2  0
 28 29  1  0
 28 30  1  0
 30 31  1  0
  6 32  1  0
 32 33  2  0
 33  3  1  0
 31 26  2  0
  1 34  1  0
  1 35  1  0
  1 36  1  0
  4 37  1  0
  5 38  1  0
  7 39  1  0
 10 40  1  0
 12 41  1  0
 12 42  1  0
 12 43  1  0
 13 44  1  0
 13 45  1  0
 13 46  1  0
 14 47  1  0
 14 48  1  0
 14 49  1  0
 16 50  1  0
 16 51  1  0
 17 52  1  0
 17 53  1  0
 18 54  1  0
 21 55  1  0
 21 56  1  0
 22 57  1  0
 22 58  1  0
 25 59  1  0
 27 60  1  0
 29 61  1  0
 29 62  1  0
 29 63  1  0
 32 64  1  0
 33 65  1  0
M  END
$$$$
