
     RDKit          3D

 55 59  0  0  0  0  0  0  0  0999 V2000
    8.7451    0.2393   -0.2546 C   0  0  0  0  0  0  0  0  0  0  0  0
    7.4067   -0.2444   -0.2783 O   0  0  0  0  0  0  0  0  0  0  0  0
    6.4412    0.5823    0.2301 C   0  0  0  0  0  0  0  0  0  0  0  0
    6.6615    1.7895    0.8956 C   0  0  0  0  0  0  0  0  0  0  0  0
    5.5791    2.5421    1.3662 C   0  0  0  0  0  0  0  0  0  0  0  0
    4.2708    2.0956    1.1667 C   0  0  0  0  0  0  0  0  0  0  0  0
    4.0381    0.8796    0.5137 C   0  0  0  0  0  0  0  0  0  0  0  0
    2.6713    0.4221    0.2913 C   0  0  0  0  0  0  0  0  0  0  0  0
    1.7624    1.0438   -0.4385 N   0  0  0  0  0  0  0  0  0  0  0  0
    0.6293    0.2712   -0.4694 N   0  0  0  0  0  0  0  0  0  0  0  0
    0.8548   -0.7921    0.2664 C   0  0  0  0  0  0  0  0  0  0  0  0
   -0.2351   -2.1091    0.5121 S   0  0  0  0  0  0  0  0  0  0  0  0
   -1.7522   -1.4337   -0.2809 C   0  0  0  0  0  0  0  0  0  0  0  0
   -2.3736   -0.3291    0.5954 C   0  0  0  0  0  0  0  0  0  0  0  0
   -2.4531   -0.4477    1.8217 O   0  0  0  0  0  0  0  0  0  0  0  0
   -2.9410    0.8530   -0.0699 C   0  0  0  0  0  0  0  0  0  0  0  0
   -2.5395    1.3862   -1.2837 C   0  0  0  0  0  0  0  0  0  0  0  0
   -3.2925    2.4992   -1.5432 N   0  0  0  0  0  0  0  0  0  0  0  0
   -4.2051    2.7009   -0.5357 C   0  0  0  0  0  0  0  0  0  0  0  0
   -5.1763    3.6978   -0.3933 C   0  0  0  0  0  0  0  0  0  0  0  0
   -5.9762    3.6596    0.7519 C   0  0  0  0  0  0  0  0  0  0  0  0
   -5.8093    2.6649    1.7132 C   0  0  0  0  0  0  0  0  0  0  0  0
   -4.8253    1.6820    1.5571 C   0  0  0  0  0  0  0  0  0  0  0  0
   -4.0021    1.6935    0.4098 C   0  0  0  0  0  0  0  0  0  0  0  0
   -2.7409   -2.5558   -0.5775 C   0  0  0  0  0  0  0  0  0  0  0  0
   -2.9243   -2.9898   -1.9017 C   0  0  0  0  0  0  0  0  0  0  0  0
   -3.8203   -4.0185   -2.1972 C   0  0  0  0  0  0  0  0  0  0  0  0
   -4.5391   -4.6323   -1.1736 C   0  0  0  0  0  0  0  0  0  0  0  0
   -4.3634   -4.2207    0.1438 C   0  0  0  0  0  0  0  0  0  0  0  0
   -3.4699   -3.1910    0.4417 C   0  0  0  0  0  0  0  0  0  0  0  0
    2.1140   -0.7359    0.7903 N   0  0  0  0  0  0  0  0  0  0  0  0
    2.7396   -1.6874    1.6749 C   0  0  0  0  0  0  0  0  0  0  0  0
    5.1288    0.1329    0.0463 C   0  0  0  0  0  0  0  0  0  0  0  0
    9.3865   -0.5186   -0.7160 H   0  0  0  0  0  0  0  0  0  0  0  0
    9.0909    0.3849    0.7730 H   0  0  0  0  0  0  0  0  0  0  0  0
    8.8396    1.1635   -0.8363 H   0  0  0  0  0  0  0  0  0  0  0  0
    7.6600    2.1772    1.0645 H   0  0  0  0  0  0  0  0  0  0  0  0
    5.7563    3.4829    1.8830 H   0  0  0  0  0  0  0  0  0  0  0  0
    3.4352    2.6946    1.5266 H   0  0  0  0  0  0  0  0  0  0  0  0
   -1.4373   -1.0088   -1.2406 H   0  0  0  0  0  0  0  0  0  0  0  0
   -1.7517    1.0992   -1.9708 H   0  0  0  0  0  0  0  0  0  0  0  0
   -3.1933    3.0953   -2.3558 H   0  0  0  0  0  0  0  0  0  0  0  0
   -5.3075    4.4754   -1.1407 H   0  0  0  0  0  0  0  0  0  0  0  0
   -6.7452    4.4151    0.8921 H   0  0  0  0  0  0  0  0  0  0  0  0
   -6.4509    2.6514    2.5926 H   0  0  0  0  0  0  0  0  0  0  0  0
   -4.7030    0.9086    2.3144 H   0  0  0  0  0  0  0  0  0  0  0  0
   -2.3688   -2.5309   -2.7182 H   0  0  0  0  0  0  0  0  0  0  0  0
   -3.9587   -4.3417   -3.2289 H   0  0  0  0  0  0  0  0  0  0  0  0
   -5.2321   -5.4357   -1.4028 H   0  0  0  0  0  0  0  0  0  0  0  0
   -4.9213   -4.6995    0.9442 H   0  0  0  0  0  0  0  0  0  0  0  0
   -3.3489   -2.8922    1.4816 H   0  0  0  0  0  0  0  0  0  0  0  0
    3.5481   -1.2081    2.2279 H   0  0  0  0  0  0  0  0  0  0  0  0
    2.0096   -2.0529    2.3962 H   0  0  0  0  0  0  0  0  0  0  0  0
    3.1268   -2.5094    1.0716 H   0  0  0  0  0  0  0  0  0  0  0  0
    4.9624   -0.7982   -0.4957 H   0  0  0  0  0  0  0  0  0  0  0  0
  1  2  1  0
  2  3  1  0
  3  4  2  0
  4  5  1  0
  5  6  2  0
  6  7  1  0
  7  8  1  0
  8  9  2  0
  9 10  1  0
 10 11  2  0
 11 12  1  0
 12 13  1  0
 13 14  1  0
 14 15  2  0
 14 16  1  0
 16 17  2  0
 17 18  1  0
 18 19  1  0
 19 20  2  0
 20 21  1  0
 21 22  2  0
 22 23  1  0
 23 24  2  0
 13 25  1  0
 25 26  2  0
 26 27  1  0
 27 28  2  0
 28 29  1  0
 29 30  2  0
 11 31  1  0
 31 32  1  0
  7 33  2  0
 33  3  1  0
 31  8  1  0
 24 16  1  0
 30 25  1  0
 24 19  1  0
  1 34  1  0
  1 35  1  0
  1 36  1  0
  4 37  1  0
  5 38  1  0
  6 39  1  0
 13 40  1  0
 17 41  1  0
 18 42  1  0
 20 43  1  0
 21 44  1  0
 22 45  1  0
 23 46  1  0
 26 47  1  0
 27 48  1  0
 28 49  1  0
 29 50  1  0
 30 51  1  0
 32 52  1  0
 32 53  1  0
 32 54  1  0
 33 55  1  0
M  END
$$$$
