
     RDKit          3D

 36 37  0  0  0  0  0  0  0  0999 V2000
    6.6984   -0.3220   -0.3079 C   0  0  0  0  0  0  0  0  0  0  0  0
    5.2706   -0.2994   -0.3069 O   0  0  0  0  0  0  0  0  0  0  0  0
    4.7334    0.5226    0.6293 C   0  0  0  0  0  0  0  0  0  0  0  0
    5.3619    1.2042    1.4244 O   0  0  0  0  0  0  0  0  0  0  0  0
    3.2465    0.4921    0.5682 C   0  0  0  0  0  0  0  0  0  0  0  0
    2.5473   -0.2974   -0.3522 C   0  0  0  0  0  0  0  0  0  0  0  0
    1.1494   -0.2871   -0.3648 C   0  0  0  0  0  0  0  0  0  0  0  0
    0.4251    0.5088    0.5381 C   0  0  0  0  0  0  0  0  0  0  0  0
   -1.0884    0.5137    0.5173 C   0  0  0  0  0  0  0  0  0  0  0  0
   -1.5396   -0.8130    0.7815 O   0  0  0  0  0  0  0  0  0  0  0  0
   -2.9617   -0.8814    0.7686 C   0  0  0  0  0  0  0  0  0  0  0  0
   -3.5227   -0.4011   -0.5776 C   0  0  0  0  0  0  0  0  0  0  0  0
   -3.1049   -1.3775   -1.6936 C   0  0  0  0  0  0  0  0  0  0  0  0
   -5.0526   -0.3262   -0.5182 C   0  0  0  0  0  0  0  0  0  0  0  0
   -2.9332    0.9890   -0.8573 C   0  0  0  0  0  0  0  0  0  0  0  0
   -1.5126    0.9675   -0.7663 O   0  0  0  0  0  0  0  0  0  0  0  0
    1.1329    1.2970    1.4572 C   0  0  0  0  0  0  0  0  0  0  0  0
    2.5313    1.2887    1.4721 C   0  0  0  0  0  0  0  0  0  0  0  0
    7.0977    0.6726   -0.5300 H   0  0  0  0  0  0  0  0  0  0  0  0
    7.0770   -0.6871    0.6520 H   0  0  0  0  0  0  0  0  0  0  0  0
    7.0257   -1.0093   -1.0928 H   0  0  0  0  0  0  0  0  0  0  0  0
    3.0725   -0.9262   -1.0664 H   0  0  0  0  0  0  0  0  0  0  0  0
    0.6131   -0.9042   -1.0840 H   0  0  0  0  0  0  0  0  0  0  0  0
   -1.4669    1.1935    1.2927 H   0  0  0  0  0  0  0  0  0  0  0  0
   -3.2470   -1.9216    0.9617 H   0  0  0  0  0  0  0  0  0  0  0  0
   -3.3512   -0.2829    1.6020 H   0  0  0  0  0  0  0  0  0  0  0  0
   -3.5046   -2.3806   -1.5064 H   0  0  0  0  0  0  0  0  0  0  0  0
   -2.0166   -1.4666   -1.7770 H   0  0  0  0  0  0  0  0  0  0  0  0
   -3.4843   -1.0459   -2.6667 H   0  0  0  0  0  0  0  0  0  0  0  0
   -5.4884   -1.3089   -0.3065 H   0  0  0  0  0  0  0  0  0  0  0  0
   -5.3859    0.3615    0.2670 H   0  0  0  0  0  0  0  0  0  0  0  0
   -5.4681    0.0276   -1.4684 H   0  0  0  0  0  0  0  0  0  0  0  0
   -3.1976    1.3297   -1.8647 H   0  0  0  0  0  0  0  0  0  0  0  0
   -3.3205    1.7377   -0.1544 H   0  0  0  0  0  0  0  0  0  0  0  0
    0.6025    1.9247    2.1700 H   0  0  0  0  0  0  0  0  0  0  0  0
    3.0612    1.9079    2.1937 H   0  0  0  0  0  0  0  0  0  0  0  0
  1  2  1  0
  2  3  1  0
  3  4  2  0
  3  5  1  0
  5  6  2  0
  6  7  1  0
  7  8  2  0
  8  9  1  0
  9 10  1  0
 10 11  1  0
 11 12  1  0
 12 13  1  0
 12 14  1  0
 12 15  1  0
 15 16  1  0
  8 17  1  0
 17 18  2  0
 18  5  1  0
 16  9  1  0
  1 19  1  0
  1 20  1  0
  1 21  1  0
  6 22  1  0
  7 23  1  0
  9 24  1  0
 11 25  1  0
 11 26  1  0
 13 27  1  0
 13 28  1  0
 13 29  1  0
 14 30  1  0
 14 31  1  0
 14 32  1  0
 15 33  1  0
 15 34  1  0
 17 35  1  0
 18 36  1  0
M  END
$$$$
