
     RDKit          3D

 44 46  0  0  0  0  0  0  0  0999 V2000
    5.4495    1.2728   -2.8917 C   0  0  0  0  0  0  0  0  0  0  0  0
    6.1744    0.2791   -2.1751 O   0  0  0  0  0  0  0  0  0  0  0  0
    5.4786   -0.4213   -1.2230 C   0  0  0  0  0  0  0  0  0  0  0  0
    4.1159   -0.3049   -0.9450 C   0  0  0  0  0  0  0  0  0  0  0  0
    3.5326   -1.0818    0.0704 C   0  0  0  0  0  0  0  0  0  0  0  0
    2.0994   -0.9860    0.3720 C   0  0  0  0  0  0  0  0  0  0  0  0
    1.4618    0.0954    0.8397 C   0  0  0  0  0  0  0  0  0  0  0  0
    2.1254    1.6416    1.2243 S   0  0  0  0  0  0  0  0  0  0  0  0
    0.5668    2.3085    1.7088 C   0  0  0  0  0  0  0  0  0  0  0  0
    0.3625    3.8722    2.2409 S   0  0  0  0  0  0  0  0  0  0  0  0
   -0.3849    1.3186    1.5891 N   0  0  0  0  0  0  0  0  0  0  0  0
   -1.8666    1.5717    1.7887 N   0  0  0  0  0  0  0  0  0  0  0  0
   -2.6481    2.1041    0.3576 S   0  0  0  0  0  6  0  0  0  0  0  0
   -3.1718    3.4288    0.6035 O   0  0  0  0  0  0  0  0  0  0  0  0
   -1.7692    1.8335   -0.7621 O   0  0  0  0  0  0  0  0  0  0  0  0
   -4.0162    0.9767    0.2757 C   0  0  0  0  0  0  0  0  0  0  0  0
   -3.8478   -0.2686   -0.3334 C   0  0  0  0  0  0  0  0  0  0  0  0
   -4.9258   -1.1529   -0.3968 C   0  0  0  0  0  0  0  0  0  0  0  0
   -6.1746   -0.7900    0.1258 C   0  0  0  0  0  0  0  0  0  0  0  0
   -7.3245   -1.7537    0.0808 C   0  0  0  0  0  0  0  0  0  0  0  0
   -6.3272    0.4635    0.7345 C   0  0  0  0  0  0  0  0  0  0  0  0
   -5.2534    1.3524    0.8037 C   0  0  0  0  0  0  0  0  0  0  0  0
    0.0012    0.0777    1.1154 C   0  0  0  0  0  0  0  0  0  0  0  0
   -0.7377   -0.8862    0.9600 O   0  0  0  0  0  0  0  0  0  0  0  0
    4.3176   -1.9933    0.7885 C   0  0  0  0  0  0  0  0  0  0  0  0
    5.6780   -2.1180    0.5111 C   0  0  0  0  0  0  0  0  0  0  0  0
    6.2419   -1.3339   -0.4863 C   0  0  0  0  0  0  0  0  0  0  0  0
    7.5793   -1.4754   -0.7392 O   0  0  0  0  0  0  0  0  0  0  0  0
    4.6532    0.8215   -3.4926 H   0  0  0  0  0  0  0  0  0  0  0  0
    5.0523    2.0378   -2.2159 H   0  0  0  0  0  0  0  0  0  0  0  0
    6.1462    1.7641   -3.5775 H   0  0  0  0  0  0  0  0  0  0  0  0
    3.4873    0.3786   -1.5063 H   0  0  0  0  0  0  0  0  0  0  0  0
    1.5431   -1.9074    0.2011 H   0  0  0  0  0  0  0  0  0  0  0  0
   -2.3423    0.7512    2.1793 H   0  0  0  0  0  0  0  0  0  0  0  0
   -2.8882   -0.5620   -0.7549 H   0  0  0  0  0  0  0  0  0  0  0  0
   -4.7875   -2.1269   -0.8630 H   0  0  0  0  0  0  0  0  0  0  0  0
   -8.2771   -1.2199   -0.0023 H   0  0  0  0  0  0  0  0  0  0  0  0
   -7.2463   -2.4159   -0.7879 H   0  0  0  0  0  0  0  0  0  0  0  0
   -7.3375   -2.3627    0.9900 H   0  0  0  0  0  0  0  0  0  0  0  0
   -7.2889    0.7570    1.1516 H   0  0  0  0  0  0  0  0  0  0  0  0
   -5.3926    2.3279    1.2657 H   0  0  0  0  0  0  0  0  0  0  0  0
    3.8797   -2.6094    1.5709 H   0  0  0  0  0  0  0  0  0  0  0  0
    6.2942   -2.8193    1.0658 H   0  0  0  0  0  0  0  0  0  0  0  0
    7.7670   -0.8450   -1.4620 H   0  0  0  0  0  0  0  0  0  0  0  0
  1  2  1  0
  2  3  1  0
  3  4  2  0
  4  5  1  0
  5  6  1  0
  6  7  2  3
  7  8  1  0
  8  9  1  0
  9 10  2  0
  9 11  1  0
 11 12  1  0
 12 13  1  0
 13 14  2  0
 13 15  2  0
 13 16  1  0
 16 17  2  0
 17 18  1  0
 18 19  2  0
 19 20  1  0
 19 21  1  0
 21 22  2  0
 11 23  1  0
 23 24  2  0
  5 25  2  0
 25 26  1  0
 26 27  2  0
 27 28  1  0
 27  3  1  0
 23  7  1  0
 22 16  1  0
  1 29  1  0
  1 30  1  0
  1 31  1  0
  4 32  1  0
  6 33  1  0
 12 34  1  0
 17 35  1  0
 18 36  1  0
 20 37  1  0
 20 38  1  0
 20 39  1  0
 21 40  1  0
 22 41  1  0
 25 42  1  0
 26 43  1  0
 28 44  1  0
M  END
$$$$
