
     RDKit          3D

 68 71  0  0  0  0  0  0  0  0999 V2000
   -4.3529   -4.5317    0.2629 C   0  0  0  0  0  0  0  0  0  0  0  0
   -3.5048   -3.3698   -0.1604 C   0  0  0  0  0  0  0  0  0  0  0  0
   -3.2816   -2.3053    0.7175 C   0  0  0  0  0  0  0  0  0  0  0  0
   -2.5114   -1.2077    0.3232 C   0  0  0  0  0  0  0  0  0  0  0  0
   -1.9499   -1.1414   -0.9607 C   0  0  0  0  0  0  0  0  0  0  0  0
   -1.1072    0.0458   -1.4335 C   0  0  0  0  0  0  0  0  0  0  0  0
   -1.6869    1.4689   -1.1720 C   0  0  0  0  0  0  0  0  0  0  0  0
   -0.9747    2.4738   -1.1057 O   0  0  0  0  0  0  0  0  0  0  0  0
   -3.0686    1.5630   -1.1466 N   0  0  0  0  0  0  0  0  0  0  0  0
   -3.7480    2.8429   -1.0331 C   0  0  0  0  0  0  0  0  0  0  0  0
   -3.9505    3.4921   -2.4004 C   0  0  0  0  0  0  0  0  0  0  0  0
   -5.1879    2.8054   -2.9737 C   0  0  0  0  0  0  0  0  0  0  0  0
   -5.9844    2.2924   -1.7735 C   0  0  0  0  0  0  0  0  0  0  0  0
   -5.1794    2.6734   -0.5336 C   0  0  0  0  0  0  0  0  0  0  0  0
    0.3206   -0.0461   -1.0433 N   0  0  0  0  0  0  0  0  0  0  0  0
    0.6720    0.1505    0.2923 C   0  0  0  0  0  0  0  0  0  0  0  0
   -0.1532    0.4281    1.1653 O   0  0  0  0  0  0  0  0  0  0  0  0
    2.1365   -0.0402    0.6691 C   0  0  0  0  0  0  0  0  0  0  0  0
    2.2805   -0.2620    2.1732 C   0  0  0  0  0  0  0  0  0  0  0  0
    3.7275   -0.3086    2.6185 C   0  0  0  0  0  0  0  0  0  0  0  0
    4.6662   -0.1896    1.8391 O   0  0  0  0  0  0  0  0  0  0  0  0
    3.8278   -0.4889    3.9803 N   0  0  0  0  0  0  0  0  0  0  0  0
    4.9996   -0.5093    4.7008 C   0  0  0  0  0  0  0  0  0  0  0  0
    6.3325   -0.3600    4.2598 C   0  0  0  0  0  0  0  0  0  0  0  0
    7.0844   -0.4296    5.4046 C   0  0  0  0  0  0  0  0  0  0  0  0
    8.5244   -0.3375    5.6983 C   0  0  0  0  0  0  0  0  0  0  0  0
    6.2610   -0.6300    6.4660 O   0  0  0  0  0  0  0  0  0  0  0  0
    4.9518   -0.6792    6.0269 N   0  0  0  0  0  0  0  0  0  0  0  0
    1.2599    0.0105   -2.1092 C   0  0  0  0  0  0  0  0  0  0  0  0
    2.1052    1.1143   -2.2621 C   0  0  0  0  0  0  0  0  0  0  0  0
    2.9944    1.1755   -3.3362 C   0  0  0  0  0  0  0  0  0  0  0  0
    3.0416    0.1361   -4.2643 C   0  0  0  0  0  0  0  0  0  0  0  0
    2.1953   -0.9624   -4.1238 C   0  0  0  0  0  0  0  0  0  0  0  0
    1.3013   -1.0219   -3.0533 C   0  0  0  0  0  0  0  0  0  0  0  0
   -2.1892   -2.2132   -1.8386 C   0  0  0  0  0  0  0  0  0  0  0  0
   -2.9626   -3.3095   -1.4465 C   0  0  0  0  0  0  0  0  0  0  0  0
   -4.1361   -4.8089    1.2999 H   0  0  0  0  0  0  0  0  0  0  0  0
   -5.4126   -4.2726    0.1774 H   0  0  0  0  0  0  0  0  0  0  0  0
   -4.1567   -5.4125   -0.3570 H   0  0  0  0  0  0  0  0  0  0  0  0
   -3.7025   -2.3238    1.7212 H   0  0  0  0  0  0  0  0  0  0  0  0
   -2.3641   -0.3990    1.0377 H   0  0  0  0  0  0  0  0  0  0  0  0
   -1.1456    0.0043   -2.5336 H   0  0  0  0  0  0  0  0  0  0  0  0
   -3.6215    0.7318   -1.3195 H   0  0  0  0  0  0  0  0  0  0  0  0
   -3.1659    3.4892   -0.3674 H   0  0  0  0  0  0  0  0  0  0  0  0
   -3.0864    3.3934   -3.0658 H   0  0  0  0  0  0  0  0  0  0  0  0
   -4.1582    4.5623   -2.2733 H   0  0  0  0  0  0  0  0  0  0  0  0
   -4.8946    1.9628   -3.6116 H   0  0  0  0  0  0  0  0  0  0  0  0
   -5.7763    3.4935   -3.5892 H   0  0  0  0  0  0  0  0  0  0  0  0
   -6.9916    2.7192   -1.7406 H   0  0  0  0  0  0  0  0  0  0  0  0
   -6.0930    1.2039   -1.8375 H   0  0  0  0  0  0  0  0  0  0  0  0
   -5.2749    1.9267    0.2612 H   0  0  0  0  0  0  0  0  0  0  0  0
   -5.5495    3.6295   -0.1441 H   0  0  0  0  0  0  0  0  0  0  0  0
    2.5540   -0.9005    0.1340 H   0  0  0  0  0  0  0  0  0  0  0  0
    2.6917    0.8595    0.3855 H   0  0  0  0  0  0  0  0  0  0  0  0
    1.7947   -1.2031    2.4575 H   0  0  0  0  0  0  0  0  0  0  0  0
    1.7921    0.5496    2.7264 H   0  0  0  0  0  0  0  0  0  0  0  0
    2.9967   -0.5883    4.5489 H   0  0  0  0  0  0  0  0  0  0  0  0
    6.6941   -0.1989    3.2550 H   0  0  0  0  0  0  0  0  0  0  0  0
    8.9111   -1.3085    6.0237 H   0  0  0  0  0  0  0  0  0  0  0  0
    8.7094    0.3926    6.4934 H   0  0  0  0  0  0  0  0  0  0  0  0
    9.0862   -0.0238    4.8130 H   0  0  0  0  0  0  0  0  0  0  0  0
    2.0495    1.9562   -1.5762 H   0  0  0  0  0  0  0  0  0  0  0  0
    3.6422    2.0416   -3.4533 H   0  0  0  0  0  0  0  0  0  0  0  0
    3.7347    0.1858   -5.0995 H   0  0  0  0  0  0  0  0  0  0  0  0
    2.2355   -1.7740   -4.8462 H   0  0  0  0  0  0  0  0  0  0  0  0
    0.6656   -1.8958   -2.9467 H   0  0  0  0  0  0  0  0  0  0  0  0
   -1.7825   -2.2023   -2.8482 H   0  0  0  0  0  0  0  0  0  0  0  0
   -3.1348   -4.1191   -2.1526 H   0  0  0  0  0  0  0  0  0  0  0  0
  1  2  1  0
  2  3  2  0
  3  4  1  0
  4  5  2  0
  5  6  1  0
  6  7  1  0
  7  8  2  0
  7  9  1  0
  9 10  1  0
 10 11  1  0
 11 12  1  0
 12 13  1  0
 13 14  1  0
  6 15  1  0
 15 16  1  0
 16 17  2  0
 16 18  1  0
 18 19  1  0
 19 20  1  0
 20 21  2  0
 20 22  1  0
 22 23  1  0
 23 24  1  0
 24 25  2  0
 25 26  1  0
 25 27  1  0
 27 28  1  0
 15 29  1  0
 29 30  2  0
 30 31  1  0
 31 32  2  0
 32 33  1  0
 33 34  2  0
  5 35  1  0
 35 36  2  0
 36  2  1  0
 14 10  1  0
 28 23  2  0
 34 29  1  0
  1 37  1  0
  1 38  1  0
  1 39  1  0
  3 40  1  0
  4 41  1  0
  6 42  1  0
  9 43  1  0
 10 44  1  0
 11 45  1  0
 11 46  1  0
 12 47  1  0
 12 48  1  0
 13 49  1  0
 13 50  1  0
 14 51  1  0
 14 52  1  0
 18 53  1  0
 18 54  1  0
 19 55  1  0
 19 56  1  0
 22 57  1  0
 24 58  1  0
 26 59  1  0
 26 60  1  0
 26 61  1  0
 30 62  1  0
 31 63  1  0
 32 64  1  0
 33 65  1  0
 34 66  1  0
 35 67  1  0
 36 68  1  0
M  END
$$$$
