
     RDKit          3D

 42 44  0  0  0  0  0  0  0  0999 V2000
   -0.8702   -3.0028   -1.2648 C   0  0  0  0  0  0  0  0  0  0  0  0
   -0.9361   -1.6586   -0.6146 C   0  0  0  0  0  0  0  0  0  0  0  0
   -0.0354   -0.6623   -0.6596 C   0  0  0  0  0  0  0  0  0  0  0  0
    1.2155   -0.5112   -1.1979 N   0  0  0  0  0  0  0  0  0  0  0  0
    2.1124   -1.4918   -1.5676 C   0  0  0  0  0  0  0  0  0  0  0  0
    1.9491   -2.7009   -1.4244 O   0  0  0  0  0  0  0  0  0  0  0  0
    3.3816   -0.9602   -2.1938 C   0  0  0  0  0  0  0  0  0  0  0  0
    4.1509   -0.1900   -1.2376 N   0  0  0  0  0  0  0  0  0  0  0  0
    5.1811   -0.6342   -0.4586 C   0  0  0  0  0  0  0  0  0  0  0  0
    5.5931    0.4475    0.2863 C   0  0  0  0  0  0  0  0  0  0  0  0
    4.7475    1.5045   -0.1185 C   0  0  0  0  0  0  0  0  0  0  0  0
    4.7483    2.8826    0.3403 N   0  0  0  0  0  4  0  0  0  0  0  0
    4.0006    3.6948   -0.2214 O   0  0  0  0  0  0  0  0  0  0  0  0
    5.5285    3.1455    1.2683 O   0  0  0  0  0  1  0  0  0  0  0  0
    3.8540    1.1127   -1.0470 N   0  0  0  0  0  0  0  0  0  0  0  0
   -0.6760    0.4932    0.0482 C   0  0  0  0  0  0  0  0  0  0  0  0
   -0.1293    1.5831    0.1337 O   0  0  0  0  0  0  0  0  0  0  0  0
   -1.9327    0.0570    0.4724 N   0  0  0  0  0  0  0  0  0  0  0  0
   -3.0454    0.8906    0.7562 C   0  0  0  0  0  0  0  0  0  0  0  0
   -4.3608    0.4362    0.5734 C   0  0  0  0  0  0  0  0  0  0  0  0
   -5.4560    1.2592    0.8559 C   0  0  0  0  0  0  0  0  0  0  0  0
   -5.2526    2.5540    1.3228 C   0  0  0  0  0  0  0  0  0  0  0  0
   -3.9558    3.0256    1.5030 C   0  0  0  0  0  0  0  0  0  0  0  0
   -2.8619    2.2010    1.2187 C   0  0  0  0  0  0  0  0  0  0  0  0
   -2.0946   -1.3114    0.1102 N   0  0  0  0  0  0  0  0  0  0  0  0
   -2.4574   -2.1777    1.2484 C   0  0  0  0  0  0  0  0  0  0  0  0
   -0.3373   -2.9648   -2.2191 H   0  0  0  0  0  0  0  0  0  0  0  0
   -0.3911   -3.7285   -0.6016 H   0  0  0  0  0  0  0  0  0  0  0  0
   -1.8763   -3.3690   -1.4979 H   0  0  0  0  0  0  0  0  0  0  0  0
    1.5812    0.4440   -1.1211 H   0  0  0  0  0  0  0  0  0  0  0  0
    3.1470   -0.3232   -3.0530 H   0  0  0  0  0  0  0  0  0  0  0  0
    4.0031   -1.7937   -2.5397 H   0  0  0  0  0  0  0  0  0  0  0  0
    5.5257   -1.6596   -0.4944 H   0  0  0  0  0  0  0  0  0  0  0  0
    6.3902    0.4771    1.0163 H   0  0  0  0  0  0  0  0  0  0  0  0
   -4.5547   -0.5565    0.1774 H   0  0  0  0  0  0  0  0  0  0  0  0
   -6.4662    0.8892    0.7009 H   0  0  0  0  0  0  0  0  0  0  0  0
   -6.1014    3.1966    1.5414 H   0  0  0  0  0  0  0  0  0  0  0  0
   -3.7881    4.0373    1.8643 H   0  0  0  0  0  0  0  0  0  0  0  0
   -1.8661    2.6042    1.3849 H   0  0  0  0  0  0  0  0  0  0  0  0
   -2.6855   -3.1895    0.8970 H   0  0  0  0  0  0  0  0  0  0  0  0
   -3.3441   -1.8130    1.7745 H   0  0  0  0  0  0  0  0  0  0  0  0
   -1.6348   -2.2369    1.9706 H   0  0  0  0  0  0  0  0  0  0  0  0
  1  2  1  0
  2  3  2  0
  3  4  1  0
  4  5  1  0
  5  6  2  0
  5  7  1  0
  7  8  1  0
  8  9  1  0
  9 10  2  0
 10 11  1  0
 11 12  1  0
 12 13  2  0
 12 14  1  0
 11 15  2  0
  3 16  1  0
 16 17  2  0
 16 18  1  0
 18 19  1  0
 19 20  2  0
 20 21  1  0
 21 22  2  0
 22 23  1  0
 23 24  2  0
 18 25  1  0
 25 26  1  0
 25  2  1  0
 15  8  1  0
 24 19  1  0
  1 27  1  0
  1 28  1  0
  1 29  1  0
  4 30  1  0
  7 31  1  0
  7 32  1  0
  9 33  1  0
 10 34  1  0
 20 35  1  0
 21 36  1  0
 22 37  1  0
 23 38  1  0
 24 39  1  0
 26 40  1  0
 26 41  1  0
 26 42  1  0
M  CHG  2  12   1  14  -1
M  END
$$$$
