
     RDKit          3D

 61 65  0  0  0  0  0  0  0  0999 V2000
    6.0637    1.3930    4.2656 C   0  0  0  0  0  0  0  0  0  0  0  0
    6.5249    1.9953    3.0612 O   0  0  0  0  0  0  0  0  0  0  0  0
    6.1289    1.4138    1.8876 C   0  0  0  0  0  0  0  0  0  0  0  0
    6.6039    2.0436    0.7346 C   0  0  0  0  0  0  0  0  0  0  0  0
    6.2828    1.5510   -0.5330 C   0  0  0  0  0  0  0  0  0  0  0  0
    5.4782    0.4126   -0.6657 C   0  0  0  0  0  0  0  0  0  0  0  0
    5.1204   -0.1211   -2.0301 C   0  0  0  0  0  0  0  0  0  0  0  0
    4.0116    0.6053   -2.6120 N   0  0  0  0  0  0  0  0  0  0  0  0
    4.2228    1.5706   -3.5416 N   0  0  0  0  0  0  0  0  0  0  0  0
    3.0333    2.0520   -3.9047 N   0  0  0  0  0  0  0  0  0  0  0  0
    2.0896    1.3649   -3.2068 C   0  0  0  0  0  0  0  0  0  0  0  0
    0.6567    1.4743   -3.2003 C   0  0  0  0  0  0  0  0  0  0  0  0
   -0.0114    2.2563   -3.8687 O   0  0  0  0  0  0  0  0  0  0  0  0
    0.0676    0.5710   -2.3232 N   0  0  0  0  0  0  0  0  0  0  0  0
    0.7752   -0.3374   -1.5425 C   0  0  0  0  0  0  0  0  0  0  0  0
   -0.0486   -1.2329   -0.6278 C   0  0  0  0  0  0  0  0  0  0  0  0
   -1.0043   -2.1377   -1.4219 C   0  0  0  0  0  0  0  0  0  0  0  0
   -2.4573   -1.9992   -0.9745 C   0  0  0  0  0  0  0  0  0  0  0  0
   -2.5259   -2.1642    0.4872 N   0  0  0  0  0  0  0  0  0  0  0  0
   -4.0080   -2.6553    1.1631 S   0  0  0  0  0  6  0  0  0  0  0  0
   -3.8165   -2.8110    2.5900 O   0  0  0  0  0  0  0  0  0  0  0  0
   -4.5371   -3.7324    0.3527 O   0  0  0  0  0  0  0  0  0  0  0  0
   -5.0508   -1.2336    0.9051 C   0  0  0  0  0  0  0  0  0  0  0  0
   -5.1747   -0.2680    1.9071 C   0  0  0  0  0  0  0  0  0  0  0  0
   -6.0138    0.8297    1.7056 C   0  0  0  0  0  0  0  0  0  0  0  0
   -6.7353    0.9636    0.5114 C   0  0  0  0  0  0  0  0  0  0  0  0
   -7.6717    2.1215    0.3176 C   0  0  0  0  0  0  0  0  0  0  0  0
   -6.6321   -0.0323   -0.4690 C   0  0  0  0  0  0  0  0  0  0  0  0
   -5.7940   -1.1315   -0.2747 C   0  0  0  0  0  0  0  0  0  0  0  0
   -1.6848   -1.2542    1.2966 C   0  0  0  0  0  0  0  0  0  0  0  0
   -0.7738   -0.3938    0.4283 C   0  0  0  0  0  0  0  0  0  0  0  0
    2.0752   -0.4494   -1.5485 N   0  0  0  0  0  0  0  0  0  0  0  0
    2.6757    0.4280   -2.3904 C   0  0  0  0  0  0  0  0  0  0  0  0
    4.9922   -0.2092    0.4940 C   0  0  0  0  0  0  0  0  0  0  0  0
    5.3178    0.2855    1.7620 C   0  0  0  0  0  0  0  0  0  0  0  0
    6.4300    0.3631    4.3595 H   0  0  0  0  0  0  0  0  0  0  0  0
    4.9696    1.4323    4.3324 H   0  0  0  0  0  0  0  0  0  0  0  0
    6.4690    1.9690    5.1046 H   0  0  0  0  0  0  0  0  0  0  0  0
    7.2300    2.9292    0.8234 H   0  0  0  0  0  0  0  0  0  0  0  0
    6.6629    2.0685   -1.4130 H   0  0  0  0  0  0  0  0  0  0  0  0
    4.8409   -1.1798   -1.9824 H   0  0  0  0  0  0  0  0  0  0  0  0
    5.9769   -0.0477   -2.7101 H   0  0  0  0  0  0  0  0  0  0  0  0
   -0.9395    0.6250   -2.2886 H   0  0  0  0  0  0  0  0  0  0  0  0
    0.6622   -1.8867   -0.1025 H   0  0  0  0  0  0  0  0  0  0  0  0
   -0.9368   -1.9631   -2.5029 H   0  0  0  0  0  0  0  0  0  0  0  0
   -0.6911   -3.1800   -1.2696 H   0  0  0  0  0  0  0  0  0  0  0  0
   -3.0467   -2.7676   -1.4834 H   0  0  0  0  0  0  0  0  0  0  0  0
   -2.8581   -1.0227   -1.2670 H   0  0  0  0  0  0  0  0  0  0  0  0
   -4.6363   -0.3659    2.8470 H   0  0  0  0  0  0  0  0  0  0  0  0
   -6.1134    1.5757    2.4924 H   0  0  0  0  0  0  0  0  0  0  0  0
   -7.7404    2.3935   -0.7414 H   0  0  0  0  0  0  0  0  0  0  0  0
   -7.3176    3.0060    0.8585 H   0  0  0  0  0  0  0  0  0  0  0  0
   -8.6701    1.8593    0.6819 H   0  0  0  0  0  0  0  0  0  0  0  0
   -7.2165    0.0368   -1.3849 H   0  0  0  0  0  0  0  0  0  0  0  0
   -5.7388   -1.9054   -1.0373 H   0  0  0  0  0  0  0  0  0  0  0  0
   -2.2946   -0.5920    1.9173 H   0  0  0  0  0  0  0  0  0  0  0  0
   -1.0758   -1.8711    1.9683 H   0  0  0  0  0  0  0  0  0  0  0  0
   -1.3714    0.3950   -0.0455 H   0  0  0  0  0  0  0  0  0  0  0  0
   -0.0448    0.1267    1.0611 H   0  0  0  0  0  0  0  0  0  0  0  0
    4.3488   -1.0844    0.4194 H   0  0  0  0  0  0  0  0  0  0  0  0
    4.9209   -0.2333    2.6288 H   0  0  0  0  0  0  0  0  0  0  0  0
  1  2  1  0
  2  3  1  0
  3  4  2  0
  4  5  1  0
  5  6  2  0
  6  7  1  0
  7  8  1  0
  8  9  1  0
  9 10  2  0
 10 11  1  0
 11 12  1  0
 12 13  2  0
 12 14  1  0
 14 15  1  0
 15 16  1  0
 16 17  1  0
 17 18  1  0
 18 19  1  0
 19 20  1  0
 20 21  2  0
 20 22  2  0
 20 23  1  0
 23 24  2  0
 24 25  1  0
 25 26  2  0
 26 27  1  0
 26 28  1  0
 28 29  2  0
 19 30  1  0
 30 31  1  0
 15 32  2  0
 32 33  1  0
  6 34  1  0
 34 35  2  0
 35  3  1  0
 33  8  1  0
 33 11  2  0
 31 16  1  0
 29 23  1  0
  1 36  1  0
  1 37  1  0
  1 38  1  0
  4 39  1  0
  5 40  1  0
  7 41  1  0
  7 42  1  0
 14 43  1  0
 16 44  1  0
 17 45  1  0
 17 46  1  0
 18 47  1  0
 18 48  1  0
 24 49  1  0
 25 50  1  0
 27 51  1  0
 27 52  1  0
 27 53  1  0
 28 54  1  0
 29 55  1  0
 30 56  1  0
 30 57  1  0
 31 58  1  0
 31 59  1  0
 34 60  1  0
 35 61  1  0
M  END
$$$$
