
     RDKit          3D

 50 53  0  0  0  0  0  0  0  0999 V2000
   -1.4413    3.7415    3.7885 C   0  0  0  0  0  0  0  0  0  0  0  0
   -1.9580    3.1076    2.5063 C   0  0  0  0  0  0  0  0  0  0  0  0
   -0.9497    3.1917    1.3684 C   0  0  0  0  0  0  0  0  0  0  0  0
    0.1291    3.7668    1.5245 O   0  0  0  0  0  0  0  0  0  0  0  0
   -1.3047    2.6132    0.1548 N   0  0  0  0  0  0  0  0  0  0  0  0
   -2.5307    1.8358   -0.0734 C   0  0  0  0  0  0  0  0  0  0  0  0
   -2.3138    0.3399   -0.1386 C   0  0  0  0  0  0  0  0  0  0  0  0
   -1.6200   -0.3500    0.8651 C   0  0  0  0  0  0  0  0  0  0  0  0
   -1.4163   -1.7296    0.7753 C   0  0  0  0  0  0  0  0  0  0  0  0
   -1.9050   -2.4500   -0.3184 C   0  0  0  0  0  0  0  0  0  0  0  0
   -1.7013   -3.9330   -0.4035 C   0  0  0  0  0  0  0  0  0  0  0  0
   -2.6293   -1.7740   -1.3044 C   0  0  0  0  0  0  0  0  0  0  0  0
   -2.8306   -0.3940   -1.2160 C   0  0  0  0  0  0  0  0  0  0  0  0
   -0.3995    2.7897   -0.9917 C   0  0  0  0  0  0  0  0  0  0  0  0
    0.4445    1.5704   -1.2227 C   0  0  0  0  0  0  0  0  0  0  0  0
    1.4030    1.1608   -0.3715 C   0  0  0  0  0  0  0  0  0  0  0  0
    2.1562   -0.0677   -0.6165 C   0  0  0  0  0  0  0  0  0  0  0  0
    3.1222   -0.5179    0.2898 C   0  0  0  0  0  0  0  0  0  0  0  0
    3.7736   -1.6974   -0.0057 C   0  0  0  0  0  0  0  0  0  0  0  0
    3.4969   -2.4181   -1.1456 C   0  0  0  0  0  0  0  0  0  0  0  0
    2.5532   -2.0036   -2.0606 C   0  0  0  0  0  0  0  0  0  0  0  0
    1.8795   -0.8128   -1.7833 C   0  0  0  0  0  0  0  0  0  0  0  0
    0.9119   -0.3403   -2.6762 N   0  0  0  0  0  0  0  0  0  0  0  0
    0.1860    0.8041   -2.4793 C   0  0  0  0  0  0  0  0  0  0  0  0
   -0.6389    1.1775   -3.3095 O   0  0  0  0  0  0  0  0  0  0  0  0
    4.2502   -3.5468   -1.2403 O   0  0  0  0  0  0  0  0  0  0  0  0
    5.0365   -3.4525   -0.0338 C   0  0  0  0  0  0  0  0  0  0  0  0
    4.7344   -2.2846    0.7573 O   0  0  0  0  0  0  0  0  0  0  0  0
   -0.5277    3.2449    4.1318 H   0  0  0  0  0  0  0  0  0  0  0  0
   -2.1918    3.6628    4.5811 H   0  0  0  0  0  0  0  0  0  0  0  0
   -1.2123    4.8019    3.6394 H   0  0  0  0  0  0  0  0  0  0  0  0
   -2.8711    3.6299    2.2013 H   0  0  0  0  0  0  0  0  0  0  0  0
   -2.1945    2.0596    2.7092 H   0  0  0  0  0  0  0  0  0  0  0  0
   -3.2737    2.0309    0.7042 H   0  0  0  0  0  0  0  0  0  0  0  0
   -2.9730    2.2027   -1.0079 H   0  0  0  0  0  0  0  0  0  0  0  0
   -1.2053    0.1807    1.7174 H   0  0  0  0  0  0  0  0  0  0  0  0
   -0.8623   -2.2361    1.5626 H   0  0  0  0  0  0  0  0  0  0  0  0
   -0.7505   -4.2228    0.0563 H   0  0  0  0  0  0  0  0  0  0  0  0
   -2.5164   -4.4530    0.1089 H   0  0  0  0  0  0  0  0  0  0  0  0
   -1.6705   -4.2643   -1.4468 H   0  0  0  0  0  0  0  0  0  0  0  0
   -3.0344   -2.3144   -2.1570 H   0  0  0  0  0  0  0  0  0  0  0  0
   -3.3757    0.1076   -2.0136 H   0  0  0  0  0  0  0  0  0  0  0  0
   -1.0090    3.0614   -1.8600 H   0  0  0  0  0  0  0  0  0  0  0  0
    0.2603    3.6493   -0.8226 H   0  0  0  0  0  0  0  0  0  0  0  0
    1.6111    1.7168    0.5379 H   0  0  0  0  0  0  0  0  0  0  0  0
    3.3570    0.0287    1.1963 H   0  0  0  0  0  0  0  0  0  0  0  0
    2.3526   -2.5875   -2.9501 H   0  0  0  0  0  0  0  0  0  0  0  0
    0.6993   -0.8549   -3.5192 H   0  0  0  0  0  0  0  0  0  0  0  0
    4.8525   -4.3453    0.5748 H   0  0  0  0  0  0  0  0  0  0  0  0
    6.0974   -3.4259   -0.3079 H   0  0  0  0  0  0  0  0  0  0  0  0
  1  2  1  0
  2  3  1  0
  3  4  2  0
  3  5  1  0
  5  6  1  0
  6  7  1  0
  7  8  2  0
  8  9  1  0
  9 10  2  0
 10 11  1  0
 10 12  1  0
 12 13  2  0
  5 14  1  0
 14 15  1  0
 15 16  2  0
 16 17  1  0
 17 18  2  0
 18 19  1  0
 19 20  2  0
 20 21  1  0
 21 22  2  0
 22 23  1  0
 23 24  1  0
 24 25  2  0
 20 26  1  0
 26 27  1  0
 27 28  1  0
 13  7  1  0
 24 15  1  0
 22 17  1  0
 28 19  1  0
  1 29  1  0
  1 30  1  0
  1 31  1  0
  2 32  1  0
  2 33  1  0
  6 34  1  0
  6 35  1  0
  8 36  1  0
  9 37  1  0
 11 38  1  0
 11 39  1  0
 11 40  1  0
 12 41  1  0
 13 42  1  0
 14 43  1  0
 14 44  1  0
 16 45  1  0
 18 46  1  0
 21 47  1  0
 23 48  1  0
 27 49  1  0
 27 50  1  0
M  END
$$$$
