
     RDKit          3D

 50 53  0  0  0  0  0  0  0  0999 V2000
   -1.5325    3.5893    1.4881 C   0  0  0  0  0  0  0  0  0  0  0  0
   -1.3169    2.2197    1.0334 N   0  0  0  0  0  0  0  0  0  0  0  0
   -1.9942    1.9562   -0.2578 C   0  0  0  0  0  0  0  0  0  0  0  0
   -2.7389    0.5999   -0.3626 C   0  0  0  0  0  0  0  0  0  0  0  0
   -1.9164   -0.4754    0.2131 N   0  0  0  0  0  0  0  0  0  0  0  0
   -2.3876   -1.7965    0.0187 C   0  0  0  0  0  0  0  0  0  0  0  0
   -3.7379   -2.1462    0.1659 C   0  0  0  0  0  0  0  0  0  0  0  0
   -4.1547   -3.4690    0.0024 C   0  0  0  0  0  0  0  0  0  0  0  0
   -3.2279   -4.4611   -0.3085 C   0  0  0  0  0  0  0  0  0  0  0  0
   -1.8788   -4.1380   -0.4607 C   0  0  0  0  0  0  0  0  0  0  0  0
   -1.4559   -2.8172   -0.3039 C   0  0  0  0  0  0  0  0  0  0  0  0
   -0.1244   -2.3978   -0.4748 N   0  0  0  0  0  0  0  0  0  0  0  0
    1.0023   -3.1294   -0.7710 C   0  0  0  0  0  0  0  0  0  0  0  0
    1.0400   -4.3431   -0.9481 O   0  0  0  0  0  0  0  0  0  0  0  0
    2.1916   -2.2995   -0.8495 C   0  0  0  0  0  0  0  0  0  0  0  0
    3.5045   -2.6049   -1.1450 C   0  0  0  0  0  0  0  0  0  0  0  0
    4.2321   -1.3909   -1.0666 C   0  0  0  0  0  0  0  0  0  0  0  0
    3.3283   -0.4048   -0.7229 C   0  0  0  0  0  0  0  0  0  0  0  0
    3.4143    1.0348   -0.4869 C   0  0  0  0  0  0  0  0  0  0  0  0
    2.2850    1.7767   -0.1071 C   0  0  0  0  0  0  0  0  0  0  0  0
    2.3678    3.1546    0.1153 C   0  0  0  0  0  0  0  0  0  0  0  0
    3.5847    3.8175   -0.0392 C   0  0  0  0  0  0  0  0  0  0  0  0
    3.6173    5.5201    0.2493 Cl  0  0  0  0  0  0  0  0  0  0  0  0
    4.7199    3.0948   -0.4162 C   0  0  0  0  0  0  0  0  0  0  0  0
    6.2631    3.8437   -0.6278 Cl  0  0  0  0  0  0  0  0  0  0  0  0
    4.6329    1.7129   -0.6363 C   0  0  0  0  0  0  0  0  0  0  0  0
    2.0868   -0.9582   -0.5925 O   0  0  0  0  0  0  0  0  0  0  0  0
   -1.4898   -0.2307    1.6158 C   0  0  0  0  0  0  0  0  0  0  0  0
   -1.7132    1.2387    2.0581 C   0  0  0  0  0  0  0  0  0  0  0  0
   -0.9583    3.7876    2.3999 H   0  0  0  0  0  0  0  0  0  0  0  0
   -2.5897    3.7964    1.6939 H   0  0  0  0  0  0  0  0  0  0  0  0
   -1.1803    4.3027    0.7345 H   0  0  0  0  0  0  0  0  0  0  0  0
   -1.2203    1.9909   -1.0352 H   0  0  0  0  0  0  0  0  0  0  0  0
   -2.7152    2.7465   -0.5041 H   0  0  0  0  0  0  0  0  0  0  0  0
   -3.6982    0.6852    0.1625 H   0  0  0  0  0  0  0  0  0  0  0  0
   -2.9489    0.3957   -1.4196 H   0  0  0  0  0  0  0  0  0  0  0  0
   -4.4809   -1.4012    0.4306 H   0  0  0  0  0  0  0  0  0  0  0  0
   -5.2041   -3.7265    0.1226 H   0  0  0  0  0  0  0  0  0  0  0  0
   -3.5530   -5.4910   -0.4374 H   0  0  0  0  0  0  0  0  0  0  0  0
   -1.1832   -4.9325   -0.7118 H   0  0  0  0  0  0  0  0  0  0  0  0
   -0.0060   -1.3911   -0.3765 H   0  0  0  0  0  0  0  0  0  0  0  0
    3.8793   -3.5900   -1.3899 H   0  0  0  0  0  0  0  0  0  0  0  0
    5.2909   -1.2606   -1.2400 H   0  0  0  0  0  0  0  0  0  0  0  0
    1.3186    1.2907    0.0231 H   0  0  0  0  0  0  0  0  0  0  0  0
    1.4722    3.6977    0.4082 H   0  0  0  0  0  0  0  0  0  0  0  0
    5.5287    1.1707   -0.9288 H   0  0  0  0  0  0  0  0  0  0  0  0
   -0.4210   -0.4634    1.6940 H   0  0  0  0  0  0  0  0  0  0  0  0
   -2.0214   -0.8836    2.3208 H   0  0  0  0  0  0  0  0  0  0  0  0
   -2.7725    1.3736    2.3184 H   0  0  0  0  0  0  0  0  0  0  0  0
   -1.1385    1.4061    2.9773 H   0  0  0  0  0  0  0  0  0  0  0  0
  1  2  1  0
  2  3  1  0
  3  4  1  0
  4  5  1  0
  5  6  1  0
  6  7  2  0
  7  8  1  0
  8  9  2  0
  9 10  1  0
 10 11  2  0
 11 12  1  0
 12 13  1  0
 13 14  2  0
 13 15  1  0
 15 16  2  0
 16 17  1  0
 17 18  2  0
 18 19  1  0
 19 20  2  0
 20 21  1  0
 21 22  2  0
 22 23  1  0
 22 24  1  0
 24 25  1  0
 24 26  2  0
 18 27  1  0
  5 28  1  0
 28 29  1  0
 29  2  1  0
 11  6  1  0
 27 15  1  0
 26 19  1  0
  1 30  1  0
  1 31  1  0
  1 32  1  0
  3 33  1  0
  3 34  1  0
  4 35  1  0
  4 36  1  0
  7 37  1  0
  8 38  1  0
  9 39  1  0
 10 40  1  0
 12 41  1  0
 16 42  1  0
 17 43  1  0
 20 44  1  0
 21 45  1  0
 26 46  1  0
 28 47  1  0
 28 48  1  0
 29 49  1  0
 29 50  1  0
M  END
$$$$
