
     RDKit          3D

 54 56  0  0  0  0  0  0  0  0999 V2000
    9.8319    2.5546   -1.2538 C   0  0  0  0  0  0  0  0  0  0  0  0
    9.7880    1.6203   -0.1833 O   0  0  0  0  0  0  0  0  0  0  0  0
    8.5917    0.9958    0.0412 C   0  0  0  0  0  0  0  0  0  0  0  0
    8.6167    0.0355    1.0552 C   0  0  0  0  0  0  0  0  0  0  0  0
    7.4649   -0.6815    1.3875 C   0  0  0  0  0  0  0  0  0  0  0  0
    6.2656   -0.4456    0.7058 C   0  0  0  0  0  0  0  0  0  0  0  0
    5.0130   -1.2063    1.0673 C   0  0  0  0  0  0  0  0  0  0  0  0
    4.2663   -0.5409    2.2289 C   0  0  0  0  0  0  0  0  0  0  0  0
    3.0129   -1.3113    2.6500 C   0  0  0  0  0  0  0  0  0  0  0  0
    1.8646   -1.0980    1.7359 C   0  0  0  0  0  0  0  0  0  0  0  0
    1.8171   -1.0781    0.4211 N   0  0  0  0  0  0  0  0  0  0  0  0
    0.5019   -0.8421    0.0853 N   0  0  0  0  0  0  0  0  0  0  0  0
   -0.1668   -0.7410    1.2162 C   0  0  0  0  0  0  0  0  0  0  0  0
   -1.8717   -0.4498    1.3355 S   0  0  0  0  0  0  0  0  0  0  0  0
   -2.1937    0.1580   -0.3419 C   0  0  0  0  0  0  0  0  0  0  0  0
   -3.6539    0.5591   -0.4562 C   0  0  0  0  0  0  0  0  0  0  0  0
   -4.0102    1.7082   -0.2122 O   0  0  0  0  0  0  0  0  0  0  0  0
   -4.4711   -0.4879   -0.8474 N   0  0  0  0  0  0  0  0  0  0  0  0
   -5.8676   -0.4731   -1.0768 C   0  0  0  0  0  0  0  0  0  0  0  0
   -6.6543    0.6737   -0.9417 C   0  0  0  0  0  0  0  0  0  0  0  0
   -8.0428    0.6468   -1.1808 C   0  0  0  0  0  0  0  0  0  0  0  0
   -8.8314    1.9206   -1.0282 C   0  0  0  0  0  0  0  0  0  0  0  0
   -8.6557   -0.5527   -1.5893 C   0  0  0  0  0  0  0  0  0  0  0  0
  -10.1330   -0.6314   -1.8609 C   0  0  0  0  0  0  0  0  0  0  0  0
   -7.8718   -1.7075   -1.7192 C   0  0  0  0  0  0  0  0  0  0  0  0
   -6.4974   -1.6669   -1.4673 C   0  0  0  0  0  0  0  0  0  0  0  0
   -5.5111   -3.2824   -1.6878 Br  0  0  0  0  0  0  0  0  0  0  0  0
    0.6389   -0.9036    2.3127 O   0  0  0  0  0  0  0  0  0  0  0  0
    6.2397    0.5256   -0.3033 C   0  0  0  0  0  0  0  0  0  0  0  0
    7.3963    1.2396   -0.6363 C   0  0  0  0  0  0  0  0  0  0  0  0
    9.5994    2.0720   -2.2085 H   0  0  0  0  0  0  0  0  0  0  0  0
   10.8529    2.9437   -1.3181 H   0  0  0  0  0  0  0  0  0  0  0  0
    9.1652    3.4015   -1.0653 H   0  0  0  0  0  0  0  0  0  0  0  0
    9.5442   -0.1567    1.5907 H   0  0  0  0  0  0  0  0  0  0  0  0
    7.5135   -1.4243    2.1803 H   0  0  0  0  0  0  0  0  0  0  0  0
    5.2831   -2.2370    1.3335 H   0  0  0  0  0  0  0  0  0  0  0  0
    4.3738   -1.2847    0.1802 H   0  0  0  0  0  0  0  0  0  0  0  0
    4.9399   -0.4876    3.0943 H   0  0  0  0  0  0  0  0  0  0  0  0
    4.0088    0.4948    1.9722 H   0  0  0  0  0  0  0  0  0  0  0  0
    2.7276   -0.9773    3.6558 H   0  0  0  0  0  0  0  0  0  0  0  0
    3.2264   -2.3836    2.7229 H   0  0  0  0  0  0  0  0  0  0  0  0
   -1.5771    1.0373   -0.5582 H   0  0  0  0  0  0  0  0  0  0  0  0
   -1.9585   -0.6120   -1.0843 H   0  0  0  0  0  0  0  0  0  0  0  0
   -4.0368   -1.3977   -0.9659 H   0  0  0  0  0  0  0  0  0  0  0  0
   -6.2092    1.6197   -0.6446 H   0  0  0  0  0  0  0  0  0  0  0  0
   -9.7259    1.7512   -0.4211 H   0  0  0  0  0  0  0  0  0  0  0  0
   -8.2453    2.6966   -0.5242 H   0  0  0  0  0  0  0  0  0  0  0  0
   -9.1244    2.3014   -2.0115 H   0  0  0  0  0  0  0  0  0  0  0  0
  -10.6921   -0.5746   -0.9219 H   0  0  0  0  0  0  0  0  0  0  0  0
  -10.3991   -1.5698   -2.3597 H   0  0  0  0  0  0  0  0  0  0  0  0
  -10.4478    0.1817   -2.5234 H   0  0  0  0  0  0  0  0  0  0  0  0
   -8.3372   -2.6434   -2.0221 H   0  0  0  0  0  0  0  0  0  0  0  0
    5.3157    0.7317   -0.8410 H   0  0  0  0  0  0  0  0  0  0  0  0
    7.3261    1.9793   -1.4266 H   0  0  0  0  0  0  0  0  0  0  0  0
  1  2  1  0
  2  3  1  0
  3  4  2  0
  4  5  1  0
  5  6  2  0
  6  7  1  0
  7  8  1  0
  8  9  1  0
  9 10  1  0
 10 11  2  0
 11 12  1  0
 12 13  2  0
 13 14  1  0
 14 15  1  0
 15 16  1  0
 16 17  2  0
 16 18  1  0
 18 19  1  0
 19 20  2  0
 20 21  1  0
 21 22  1  0
 21 23  2  0
 23 24  1  0
 23 25  1  0
 25 26  2  0
 26 27  1  0
 13 28  1  0
  6 29  1  0
 29 30  2  0
 30  3  1  0
 28 10  1  0
 26 19  1  0
  1 31  1  0
  1 32  1  0
  1 33  1  0
  4 34  1  0
  5 35  1  0
  7 36  1  0
  7 37  1  0
  8 38  1  0
  8 39  1  0
  9 40  1  0
  9 41  1  0
 15 42  1  0
 15 43  1  0
 18 44  1  0
 20 45  1  0
 22 46  1  0
 22 47  1  0
 22 48  1  0
 24 49  1  0
 24 50  1  0
 24 51  1  0
 25 52  1  0
 29 53  1  0
 30 54  1  0
M  END
$$$$
