
     RDKit          3D

 36 37  0  0  0  0  0  0  0  0999 V2000
   -2.4131    1.7739   -0.3521 C   0  0  0  0  0  0  0  0  0  0  0  0
   -1.6908    0.6068   -1.0134 C   0  0  0  0  0  0  0  0  0  0  0  0
   -1.9568   -0.6501   -0.2881 N   0  0  0  0  0  0  0  0  0  0  0  0
   -2.9277   -1.5176   -0.9916 C   0  0  0  0  0  0  0  0  0  0  0  0
   -4.3464   -0.9403   -1.1545 C   0  0  0  0  0  0  0  0  0  0  0  0
   -4.4465   -0.0442   -2.2576 O   0  0  0  0  0  0  0  0  0  0  0  0
   -0.7123   -1.4050   -0.0439 C   0  0  0  0  0  0  0  0  0  0  0  0
    0.1106   -0.7311    1.0254 C   0  0  0  0  0  0  0  0  0  0  0  0
   -0.3594   -0.4652    2.2988 C   0  0  0  0  0  0  0  0  0  0  0  0
    0.7924    0.2919    3.2922 S   0  0  0  0  0  0  0  0  0  0  0  0
    1.9798    0.2783    2.0485 C   0  0  0  0  0  0  0  0  0  0  0  0
    3.2973    0.7743    2.1402 C   0  0  0  0  0  0  0  0  0  0  0  0
    4.1513    0.6792    1.0338 C   0  0  0  0  0  0  0  0  0  0  0  0
    5.5441    1.2333    1.1090 C   0  0  0  0  0  0  0  0  0  0  0  0
    3.6778    0.1204   -0.1494 C   0  0  0  0  0  0  0  0  0  0  0  0
    2.3692   -0.3696   -0.2356 C   0  0  0  0  0  0  0  0  0  0  0  0
    1.4886   -0.3005    0.8746 C   0  0  0  0  0  0  0  0  0  0  0  0
   -2.1828    2.7035   -0.8830 H   0  0  0  0  0  0  0  0  0  0  0  0
   -3.4987    1.6495   -0.3589 H   0  0  0  0  0  0  0  0  0  0  0  0
   -2.0916    1.8966    0.6877 H   0  0  0  0  0  0  0  0  0  0  0  0
   -0.6226    0.8567   -1.0123 H   0  0  0  0  0  0  0  0  0  0  0  0
   -1.9586    0.5362   -2.0739 H   0  0  0  0  0  0  0  0  0  0  0  0
   -2.5307   -1.8068   -1.9733 H   0  0  0  0  0  0  0  0  0  0  0  0
   -3.0441   -2.4351   -0.4005 H   0  0  0  0  0  0  0  0  0  0  0  0
   -4.6743   -0.4248   -0.2463 H   0  0  0  0  0  0  0  0  0  0  0  0
   -5.0534   -1.7568   -1.3376 H   0  0  0  0  0  0  0  0  0  0  0  0
   -4.1639   -0.5247   -3.0534 H   0  0  0  0  0  0  0  0  0  0  0  0
   -0.9441   -2.4100    0.3349 H   0  0  0  0  0  0  0  0  0  0  0  0
   -0.1501   -1.5440   -0.9743 H   0  0  0  0  0  0  0  0  0  0  0  0
   -1.3488   -0.6751    2.6827 H   0  0  0  0  0  0  0  0  0  0  0  0
    3.6417    1.2250    3.0676 H   0  0  0  0  0  0  0  0  0  0  0  0
    5.5434    2.2876    0.8158 H   0  0  0  0  0  0  0  0  0  0  0  0
    5.9440    1.1481    2.1250 H   0  0  0  0  0  0  0  0  0  0  0  0
    6.2205    0.6821    0.4473 H   0  0  0  0  0  0  0  0  0  0  0  0
    4.3224    0.0584   -1.0238 H   0  0  0  0  0  0  0  0  0  0  0  0
    2.0335   -0.8011   -1.1746 H   0  0  0  0  0  0  0  0  0  0  0  0
  1  2  1  0
  2  3  1  0
  3  4  1  0
  4  5  1  0
  5  6  1  0
  3  7  1  0
  7  8  1  0
  8  9  2  0
  9 10  1  0
 10 11  1  0
 11 12  2  0
 12 13  1  0
 13 14  1  0
 13 15  2  0
 15 16  1  0
 16 17  2  0
 17  8  1  0
 17 11  1  0
  1 18  1  0
  1 19  1  0
  1 20  1  0
  2 21  1  0
  2 22  1  0
  4 23  1  0
  4 24  1  0
  5 25  1  0
  5 26  1  0
  6 27  1  0
  7 28  1  0
  7 29  1  0
  9 30  1  0
 12 31  1  0
 14 32  1  0
 14 33  1  0
 14 34  1  0
 15 35  1  0
 16 36  1  0
M  END
$$$$
