
     RDKit          3D

 59 61  0  0  0  0  0  0  0  0999 V2000
   -8.4291    2.0381   -1.7336 C   0  0  0  0  0  0  0  0  0  0  0  0
   -7.0292    2.3019   -1.2085 C   0  0  0  0  0  0  0  0  0  0  0  0
   -6.1569    1.3298   -1.7770 O   0  0  0  0  0  0  0  0  0  0  0  0
   -4.8209    1.3963   -1.4691 C   0  0  0  0  0  0  0  0  0  0  0  0
   -4.2579    2.3283   -0.5889 C   0  0  0  0  0  0  0  0  0  0  0  0
   -2.8839    2.3101   -0.3447 C   0  0  0  0  0  0  0  0  0  0  0  0
   -2.3219    3.2313    0.5361 N   0  0  0  0  0  0  0  0  0  0  0  0
   -0.9862    3.3016    0.8278 C   0  0  0  0  0  0  0  0  0  0  0  0
   -0.5380    4.4774    1.9374 S   0  0  0  0  0  0  0  0  0  0  0  0
   -0.1510    2.3934    0.1801 N   0  0  0  0  0  0  0  0  0  0  0  0
    1.3065    2.3810    0.4037 C   0  0  0  0  0  0  0  0  0  0  0  0
    1.7005    1.4145    1.5183 C   0  0  0  0  0  0  0  0  0  0  0  0
    3.1956    1.4242    1.7437 C   0  0  0  0  0  0  0  0  0  0  0  0
    3.9656    2.1632    1.1414 O   0  0  0  0  0  0  0  0  0  0  0  0
    3.5958    0.5287    2.7113 N   0  0  0  0  0  0  0  0  0  0  0  0
    4.9931    0.2927    2.9980 C   0  0  0  0  0  0  0  0  0  0  0  0
    5.4628   -0.9795    2.3414 C   0  0  0  0  0  0  0  0  0  0  0  0
    5.7981   -0.9899    0.9821 C   0  0  0  0  0  0  0  0  0  0  0  0
    6.2120   -2.1726    0.3653 C   0  0  0  0  0  0  0  0  0  0  0  0
    6.2943   -3.3634    1.0895 C   0  0  0  0  0  0  0  0  0  0  0  0
    6.7145   -4.4452    0.3657 O   0  0  0  0  0  0  0  0  0  0  0  0
    6.8223   -5.6815    1.0594 C   0  0  0  0  0  0  0  0  0  0  0  0
    5.9538   -3.3618    2.4422 C   0  0  0  0  0  0  0  0  0  0  0  0
    5.5373   -2.1780    3.0634 C   0  0  0  0  0  0  0  0  0  0  0  0
   -0.6284    1.3875   -0.6746 C   0  0  0  0  0  0  0  0  0  0  0  0
    0.0809    0.5141   -1.1701 O   0  0  0  0  0  0  0  0  0  0  0  0
   -2.0731    1.3749   -0.9665 C   0  0  0  0  0  0  0  0  0  0  0  0
   -2.6216    0.4350   -1.8457 C   0  0  0  0  0  0  0  0  0  0  0  0
   -3.9956    0.4404   -2.1017 C   0  0  0  0  0  0  0  0  0  0  0  0
   -4.6303   -0.4374   -2.9445 O   0  0  0  0  0  0  0  0  0  0  0  0
   -3.8350   -1.4056   -3.6243 C   0  0  0  0  0  0  0  0  0  0  0  0
   -4.7573   -2.2374   -4.4976 C   0  0  0  0  0  0  0  0  0  0  0  0
   -8.7580    1.0289   -1.4636 H   0  0  0  0  0  0  0  0  0  0  0  0
   -9.1413    2.7625   -1.3277 H   0  0  0  0  0  0  0  0  0  0  0  0
   -8.4480    2.0977   -2.8271 H   0  0  0  0  0  0  0  0  0  0  0  0
   -7.0343    2.2142   -0.1162 H   0  0  0  0  0  0  0  0  0  0  0  0
   -6.7211    3.3111   -1.5049 H   0  0  0  0  0  0  0  0  0  0  0  0
   -4.8713    3.0686   -0.0883 H   0  0  0  0  0  0  0  0  0  0  0  0
   -2.9161    3.9081    1.0027 H   0  0  0  0  0  0  0  0  0  0  0  0
    1.6640    3.3921    0.6242 H   0  0  0  0  0  0  0  0  0  0  0  0
    1.8050    2.0899   -0.5300 H   0  0  0  0  0  0  0  0  0  0  0  0
    1.3924    0.3938    1.2640 H   0  0  0  0  0  0  0  0  0  0  0  0
    1.2067    1.6882    2.4575 H   0  0  0  0  0  0  0  0  0  0  0  0
    2.9353   -0.1667    3.0315 H   0  0  0  0  0  0  0  0  0  0  0  0
    5.6099    1.1380    2.6728 H   0  0  0  0  0  0  0  0  0  0  0  0
    5.0914    0.2192    4.0868 H   0  0  0  0  0  0  0  0  0  0  0  0
    5.7344   -0.0748    0.3949 H   0  0  0  0  0  0  0  0  0  0  0  0
    6.4696   -2.1648   -0.6909 H   0  0  0  0  0  0  0  0  0  0  0  0
    7.5563   -5.6176    1.8697 H   0  0  0  0  0  0  0  0  0  0  0  0
    5.8469   -6.0102    1.4340 H   0  0  0  0  0  0  0  0  0  0  0  0
    7.1769   -6.4340    0.3482 H   0  0  0  0  0  0  0  0  0  0  0  0
    5.9993   -4.2639    3.0430 H   0  0  0  0  0  0  0  0  0  0  0  0
    5.2728   -2.2017    4.1185 H   0  0  0  0  0  0  0  0  0  0  0  0
   -1.9572   -0.2851   -2.3130 H   0  0  0  0  0  0  0  0  0  0  0  0
   -3.3374   -2.0634   -2.9027 H   0  0  0  0  0  0  0  0  0  0  0  0
   -3.0920   -0.9100   -4.2597 H   0  0  0  0  0  0  0  0  0  0  0  0
   -5.5213   -2.7325   -3.8889 H   0  0  0  0  0  0  0  0  0  0  0  0
   -5.2849   -1.6013   -5.2161 H   0  0  0  0  0  0  0  0  0  0  0  0
   -4.1944   -2.9981   -5.0457 H   0  0  0  0  0  0  0  0  0  0  0  0
  1  2  1  0
  2  3  1  0
  3  4  1  0
  4  5  2  0
  5  6  1  0
  6  7  1  0
  7  8  1  0
  8  9  2  0
  8 10  1  0
 10 11  1  0
 11 12  1  0
 12 13  1  0
 13 14  2  0
 13 15  1  0
 15 16  1  0
 16 17  1  0
 17 18  2  0
 18 19  1  0
 19 20  2  0
 20 21  1  0
 21 22  1  0
 20 23  1  0
 23 24  2  0
 10 25  1  0
 25 26  2  0
 25 27  1  0
 27 28  1  0
 28 29  2  0
 29 30  1  0
 30 31  1  0
 31 32  1  0
 29  4  1  0
 27  6  2  0
 24 17  1  0
  1 33  1  0
  1 34  1  0
  1 35  1  0
  2 36  1  0
  2 37  1  0
  5 38  1  0
  7 39  1  0
 11 40  1  0
 11 41  1  0
 12 42  1  0
 12 43  1  0
 15 44  1  0
 16 45  1  0
 16 46  1  0
 18 47  1  0
 19 48  1  0
 22 49  1  0
 22 50  1  0
 22 51  1  0
 23 52  1  0
 24 53  1  0
 28 54  1  0
 31 55  1  0
 31 56  1  0
 32 57  1  0
 32 58  1  0
 32 59  1  0
M  END
$$$$
