
     RDKit          3D

 64 69  0  0  0  0  0  0  0  0999 V2000
   -8.8762    3.1013    1.3955 C   0  0  0  0  0  0  0  0  0  0  0  0
   -8.5223    2.0444    0.5125 O   0  0  0  0  0  0  0  0  0  0  0  0
   -7.1939    1.7355    0.4211 C   0  0  0  0  0  0  0  0  0  0  0  0
   -6.1549    2.3645    1.1030 C   0  0  0  0  0  0  0  0  0  0  0  0
   -4.8302    1.9467    0.9147 C   0  0  0  0  0  0  0  0  0  0  0  0
   -4.5264    0.8956    0.0379 C   0  0  0  0  0  0  0  0  0  0  0  0
   -3.1698    0.4663   -0.1474 N   0  0  0  0  0  0  0  0  0  0  0  0
   -2.0102    1.2501   -0.0360 C   0  0  0  0  0  0  0  0  0  0  0  0
   -2.0286    2.6016    0.1310 N   0  0  0  0  0  0  0  0  0  0  0  0
   -0.8896    0.4388   -0.1751 C   0  0  0  0  0  0  0  0  0  0  0  0
    0.5034    0.8909   -0.1098 C   0  0  0  0  0  0  0  0  0  0  0  0
    0.7716    2.0845   -0.0508 O   0  0  0  0  0  0  0  0  0  0  0  0
    1.4221   -0.1373   -0.1919 N   0  0  0  0  0  0  0  0  0  0  0  0
    2.7845   -0.0695   -0.0748 C   0  0  0  0  0  0  0  0  0  0  0  0
    3.6557   -1.0399   -0.4108 C   0  0  0  0  0  0  0  0  0  0  0  0
    3.3341   -2.3678   -1.0224 C   0  0  0  0  0  0  0  0  0  0  0  0
    4.9930   -0.7025   -0.1545 N   0  0  0  0  0  0  0  0  0  0  0  0
    5.7765   -1.6240    0.6894 C   0  0  0  0  0  0  0  0  0  0  0  0
    4.9586    0.6303    0.3456 N   0  0  0  0  0  0  0  0  0  0  0  0
    6.0959    1.4787    0.2869 C   0  0  0  0  0  0  0  0  0  0  0  0
    6.0990    2.7322    0.9133 C   0  0  0  0  0  0  0  0  0  0  0  0
    7.2218    3.5659    0.8567 C   0  0  0  0  0  0  0  0  0  0  0  0
    8.3595    3.1622    0.1653 C   0  0  0  0  0  0  0  0  0  0  0  0
    8.3732    1.9271   -0.4746 C   0  0  0  0  0  0  0  0  0  0  0  0
    7.2502    1.0953   -0.4150 C   0  0  0  0  0  0  0  0  0  0  0  0
    3.6223    1.0403    0.5011 C   0  0  0  0  0  0  0  0  0  0  0  0
    3.2008    2.0670    1.0050 O   0  0  0  0  0  0  0  0  0  0  0  0
   -1.3751   -0.8623   -0.4356 C   0  0  0  0  0  0  0  0  0  0  0  0
   -0.6726   -2.0075   -0.6621 N   0  0  0  0  0  0  0  0  0  0  0  0
   -1.4343   -3.0932   -0.8775 C   0  0  0  0  0  0  0  0  0  0  0  0
   -0.8023   -4.3082   -1.1122 C   0  0  0  0  0  0  0  0  0  0  0  0
   -1.5284   -5.4777   -1.3423 C   0  0  0  0  0  0  0  0  0  0  0  0
   -2.9150   -5.4333   -1.3369 C   0  0  0  0  0  0  0  0  0  0  0  0
   -3.5623   -4.2198   -1.1022 C   0  0  0  0  0  0  0  0  0  0  0  0
   -2.8517   -3.0488   -0.8735 C   0  0  0  0  0  0  0  0  0  0  0  0
   -3.5414   -1.9203   -0.6566 N   0  0  0  0  0  0  0  0  0  0  0  0
   -2.7627   -0.8323   -0.4478 C   0  0  0  0  0  0  0  0  0  0  0  0
   -5.5764    0.2577   -0.6328 C   0  0  0  0  0  0  0  0  0  0  0  0
   -6.8962    0.6820   -0.4438 C   0  0  0  0  0  0  0  0  0  0  0  0
   -9.9637    3.2196    1.3564 H   0  0  0  0  0  0  0  0  0  0  0  0
   -8.4266    4.0482    1.0783 H   0  0  0  0  0  0  0  0  0  0  0  0
   -8.6045    2.8603    2.4289 H   0  0  0  0  0  0  0  0  0  0  0  0
   -6.3359    3.1761    1.8000 H   0  0  0  0  0  0  0  0  0  0  0  0
   -4.0580    2.4310    1.5084 H   0  0  0  0  0  0  0  0  0  0  0  0
   -2.7698    3.1529   -0.2989 H   0  0  0  0  0  0  0  0  0  0  0  0
   -1.1222    3.0827    0.0531 H   0  0  0  0  0  0  0  0  0  0  0  0
    1.0316   -1.0454   -0.4286 H   0  0  0  0  0  0  0  0  0  0  0  0
    2.3198   -2.4088   -1.4289 H   0  0  0  0  0  0  0  0  0  0  0  0
    3.4342   -3.1662   -0.2804 H   0  0  0  0  0  0  0  0  0  0  0  0
    4.0179   -2.5789   -1.8517 H   0  0  0  0  0  0  0  0  0  0  0  0
    5.2834   -1.7811    1.6554 H   0  0  0  0  0  0  0  0  0  0  0  0
    5.8832   -2.5931    0.1906 H   0  0  0  0  0  0  0  0  0  0  0  0
    6.7859   -1.2507    0.8822 H   0  0  0  0  0  0  0  0  0  0  0  0
    5.2364    3.0835    1.4734 H   0  0  0  0  0  0  0  0  0  0  0  0
    7.1997    4.5318    1.3552 H   0  0  0  0  0  0  0  0  0  0  0  0
    9.2286    3.8127    0.1183 H   0  0  0  0  0  0  0  0  0  0  0  0
    9.2521    1.6125   -1.0309 H   0  0  0  0  0  0  0  0  0  0  0  0
    7.2805    0.1550   -0.9584 H   0  0  0  0  0  0  0  0  0  0  0  0
    0.2841   -4.3493   -1.1160 H   0  0  0  0  0  0  0  0  0  0  0  0
   -1.0104   -6.4165   -1.5233 H   0  0  0  0  0  0  0  0  0  0  0  0
   -3.4959   -6.3353   -1.5130 H   0  0  0  0  0  0  0  0  0  0  0  0
   -4.6498   -4.1861   -1.0961 H   0  0  0  0  0  0  0  0  0  0  0  0
   -5.4020   -0.5530   -1.3347 H   0  0  0  0  0  0  0  0  0  0  0  0
   -7.7002    0.1834   -0.9800 H   0  0  0  0  0  0  0  0  0  0  0  0
  1  2  1  0
  2  3  1  0
  3  4  2  0
  4  5  1  0
  5  6  2  0
  6  7  1  0
  7  8  1  0
  8  9  1  0
  8 10  2  0
 10 11  1  0
 11 12  2  0
 11 13  1  0
 13 14  1  0
 14 15  2  0
 15 16  1  0
 15 17  1  0
 17 18  1  0
 17 19  1  0
 19 20  1  0
 20 21  2  0
 21 22  1  0
 22 23  2  0
 23 24  1  0
 24 25  2  0
 19 26  1  0
 26 27  2  0
 10 28  1  0
 28 29  2  0
 29 30  1  0
 30 31  2  0
 31 32  1  0
 32 33  2  0
 33 34  1  0
 34 35  2  0
 35 36  1  0
 36 37  2  0
  6 38  1  0
 38 39  2  0
 39  3  1  0
 37  7  1  0
 26 14  1  0
 37 28  1  0
 25 20  1  0
 35 30  1  0
  1 40  1  0
  1 41  1  0
  1 42  1  0
  4 43  1  0
  5 44  1  0
  9 45  1  0
  9 46  1  0
 13 47  1  0
 16 48  1  0
 16 49  1  0
 16 50  1  0
 18 51  1  0
 18 52  1  0
 18 53  1  0
 21 54  1  0
 22 55  1  0
 23 56  1  0
 24 57  1  0
 25 58  1  0
 31 59  1  0
 32 60  1  0
 33 61  1  0
 34 62  1  0
 38 63  1  0
 39 64  1  0
M  END
$$$$
