
     RDKit          3D

 57 59  0  0  0  0  0  0  0  0999 V2000
   -1.6806   -0.5466   -1.9557 C   0  0  0  0  0  0  0  0  0  0  0  0
   -0.9413   -1.7865   -2.0305 N   0  0  0  0  0  0  0  0  0  0  0  0
   -0.4626   -2.5213   -0.9856 C   0  0  0  0  0  0  0  0  0  0  0  0
    0.5291   -3.8268   -1.3344 S   0  0  0  0  0  0  0  0  0  0  0  0
   -0.8912   -2.1253    0.2820 N   0  0  0  0  0  0  0  0  0  0  0  0
   -2.1880   -2.7133    0.6649 C   0  0  0  0  0  0  0  0  0  0  0  0
   -3.0816   -1.8454    1.5660 C   0  0  0  0  0  0  0  0  0  0  0  0
   -3.9016   -0.8124    0.8289 C   0  0  0  0  0  0  0  0  0  0  0  0
   -3.6417    0.5524    0.9922 C   0  0  0  0  0  0  0  0  0  0  0  0
   -4.4151    1.5058    0.3297 C   0  0  0  0  0  0  0  0  0  0  0  0
   -5.4578    1.1056   -0.5045 C   0  0  0  0  0  0  0  0  0  0  0  0
   -5.7307   -0.2532   -0.6906 C   0  0  0  0  0  0  0  0  0  0  0  0
   -6.8742   -0.6875   -1.5594 C   0  0  0  0  0  0  0  0  0  0  0  0
   -4.9586   -1.2040   -0.0079 C   0  0  0  0  0  0  0  0  0  0  0  0
    0.0998   -2.0560    1.3731 C   0  0  0  0  0  0  0  0  0  0  0  0
    1.0330   -0.8955    1.1662 C   0  0  0  0  0  0  0  0  0  0  0  0
    2.2464   -1.0083    0.5954 C   0  0  0  0  0  0  0  0  0  0  0  0
    3.1172    0.1545    0.4234 C   0  0  0  0  0  0  0  0  0  0  0  0
    4.3713    0.0442   -0.1851 C   0  0  0  0  0  0  0  0  0  0  0  0
    5.1843    1.1752   -0.3349 C   0  0  0  0  0  0  0  0  0  0  0  0
    6.4304    1.1628   -0.9156 O   0  0  0  0  0  0  0  0  0  0  0  0
    6.9396   -0.0839   -1.3667 C   0  0  0  0  0  0  0  0  0  0  0  0
    4.7296    2.4315    0.1229 C   0  0  0  0  0  0  0  0  0  0  0  0
    5.5916    3.4854   -0.0617 O   0  0  0  0  0  0  0  0  0  0  0  0
    5.1236    4.7872    0.2582 C   0  0  0  0  0  0  0  0  0  0  0  0
    3.4737    2.5367    0.7324 C   0  0  0  0  0  0  0  0  0  0  0  0
    2.6791    1.3997    0.8784 C   0  0  0  0  0  0  0  0  0  0  0  0
    1.4301    1.4946    1.5027 N   0  0  0  0  0  0  0  0  0  0  0  0
    0.5979    0.4259    1.7101 C   0  0  0  0  0  0  0  0  0  0  0  0
   -0.4477    0.5633    2.3388 O   0  0  0  0  0  0  0  0  0  0  0  0
   -1.4411    0.0010   -1.0423 H   0  0  0  0  0  0  0  0  0  0  0  0
   -1.4125    0.0616   -2.8234 H   0  0  0  0  0  0  0  0  0  0  0  0
   -2.7458   -0.7783   -2.0016 H   0  0  0  0  0  0  0  0  0  0  0  0
   -0.6614   -2.1105   -2.9477 H   0  0  0  0  0  0  0  0  0  0  0  0
   -2.7359   -3.0056   -0.2403 H   0  0  0  0  0  0  0  0  0  0  0  0
   -1.9583   -3.6505    1.1904 H   0  0  0  0  0  0  0  0  0  0  0  0
   -2.5022   -1.3667    2.3622 H   0  0  0  0  0  0  0  0  0  0  0  0
   -3.7934   -2.5055    2.0807 H   0  0  0  0  0  0  0  0  0  0  0  0
   -2.8361    0.8835    1.6429 H   0  0  0  0  0  0  0  0  0  0  0  0
   -4.2075    2.5626    0.4724 H   0  0  0  0  0  0  0  0  0  0  0  0
   -6.0587    1.8613   -1.0055 H   0  0  0  0  0  0  0  0  0  0  0  0
   -7.7767   -0.8160   -0.9540 H   0  0  0  0  0  0  0  0  0  0  0  0
   -6.6447   -1.6332   -2.0616 H   0  0  0  0  0  0  0  0  0  0  0  0
   -7.0756    0.0532   -2.3407 H   0  0  0  0  0  0  0  0  0  0  0  0
   -5.1846   -2.2613   -0.1303 H   0  0  0  0  0  0  0  0  0  0  0  0
   -0.4099   -1.9522    2.3361 H   0  0  0  0  0  0  0  0  0  0  0  0
    0.6513   -3.0009    1.4320 H   0  0  0  0  0  0  0  0  0  0  0  0
    2.6034   -1.9641    0.2272 H   0  0  0  0  0  0  0  0  0  0  0  0
    4.6951   -0.9300   -0.5368 H   0  0  0  0  0  0  0  0  0  0  0  0
    7.0340   -0.7961   -0.5400 H   0  0  0  0  0  0  0  0  0  0  0  0
    7.9430    0.0898   -1.7695 H   0  0  0  0  0  0  0  0  0  0  0  0
    6.3233   -0.4915   -2.1743 H   0  0  0  0  0  0  0  0  0  0  0  0
    4.9359    4.8855    1.3331 H   0  0  0  0  0  0  0  0  0  0  0  0
    5.9111    5.4993   -0.0085 H   0  0  0  0  0  0  0  0  0  0  0  0
    4.2311    5.0425   -0.3248 H   0  0  0  0  0  0  0  0  0  0  0  0
    3.1049    3.4856    1.1029 H   0  0  0  0  0  0  0  0  0  0  0  0
    1.1073    2.3775    1.8746 H   0  0  0  0  0  0  0  0  0  0  0  0
  1  2  1  0
  2  3  1  0
  3  4  2  0
  3  5  1  0
  5  6  1  0
  6  7  1  0
  7  8  1  0
  8  9  2  0
  9 10  1  0
 10 11  2  0
 11 12  1  0
 12 13  1  0
 12 14  2  0
  5 15  1  0
 15 16  1  0
 16 17  2  0
 17 18  1  0
 18 19  2  0
 19 20  1  0
 20 21  1  0
 21 22  1  0
 20 23  2  0
 23 24  1  0
 24 25  1  0
 23 26  1  0
 26 27  2  0
 27 28  1  0
 28 29  1  0
 29 30  2  0
 14  8  1  0
 29 16  1  0
 27 18  1  0
  1 31  1  0
  1 32  1  0
  1 33  1  0
  2 34  1  0
  6 35  1  0
  6 36  1  0
  7 37  1  0
  7 38  1  0
  9 39  1  0
 10 40  1  0
 11 41  1  0
 13 42  1  0
 13 43  1  0
 13 44  1  0
 14 45  1  0
 15 46  1  0
 15 47  1  0
 17 48  1  0
 19 49  1  0
 22 50  1  0
 22 51  1  0
 22 52  1  0
 25 53  1  0
 25 54  1  0
 25 55  1  0
 26 56  1  0
 28 57  1  0
M  END
$$$$
