
     RDKit          3D

 57 61  0  0  0  0  0  0  0  0999 V2000
   -5.6756    2.3628   -0.6939 O   0  0  0  0  0  0  0  0  0  0  0  0
   -4.6524    1.7263   -0.4692 C   0  0  0  0  0  0  0  0  0  0  0  0
   -3.5742    1.7335   -1.3469 N   0  0  0  0  0  0  0  0  0  0  0  0
   -2.3987    1.0149   -1.1478 C   0  0  0  0  0  0  0  0  0  0  0  0
   -1.3493    1.1900   -2.2371 C   0  0  0  0  0  0  0  0  0  0  0  0
   -0.5040   -0.0793   -2.4095 C   0  0  0  0  0  0  0  0  0  0  0  0
    0.7614   -0.0369   -1.5619 C   0  0  0  0  0  0  0  0  0  0  0  0
    1.5881    1.1028   -1.9858 N   0  0  0  0  0  0  0  0  0  0  0  0
    3.2564    1.0722   -1.7490 S   0  0  0  0  0  6  0  0  0  0  0  0
    3.6837   -0.2792   -2.0325 O   0  0  0  0  0  0  0  0  0  0  0  0
    3.8314    2.2228   -2.4081 O   0  0  0  0  0  0  0  0  0  0  0  0
    3.4969    1.3246    0.0062 C   0  0  0  0  0  0  0  0  0  0  0  0
    2.5072    1.9829    0.7515 C   0  0  0  0  0  0  0  0  0  0  0  0
    2.6515    2.1470    2.1289 C   0  0  0  0  0  0  0  0  0  0  0  0
    3.7828    1.6575    2.7713 C   0  0  0  0  0  0  0  0  0  0  0  0
    4.7780    1.0148    2.0348 C   0  0  0  0  0  0  0  0  0  0  0  0
    4.6623    0.8472    0.6393 C   0  0  0  0  0  0  0  0  0  0  0  0
    5.7919    0.1638   -0.1004 C   0  0  0  0  0  0  0  0  0  0  0  0
    6.9628    0.2053    0.6053 F   0  0  0  0  0  0  0  0  0  0  0  0
    6.0907    0.7278   -1.2978 F   0  0  0  0  0  0  0  0  0  0  0  0
    5.5589   -1.1572   -0.3152 F   0  0  0  0  0  0  0  0  0  0  0  0
    0.9233    2.3384   -2.4279 C   0  0  0  0  0  0  0  0  0  0  0  0
   -0.5028    2.4260   -1.8959 C   0  0  0  0  0  0  0  0  0  0  0  0
   -2.1536    0.2921   -0.0896 N   0  0  0  0  0  0  0  0  0  0  0  0
   -3.1946    0.2594    0.7776 C   0  0  0  0  0  0  0  0  0  0  0  0
   -4.4049    0.9028    0.6829 C   0  0  0  0  0  0  0  0  0  0  0  0
   -5.1836    0.6205    1.7618 N   0  0  0  0  0  0  0  0  0  0  0  0
   -4.4890   -0.2038    2.5467 N   0  0  0  0  0  0  0  0  0  0  0  0
   -3.2964   -0.4407    1.9459 N   0  0  0  0  0  0  0  0  0  0  0  0
   -2.3030   -1.2874    2.5750 C   0  0  0  0  0  0  0  0  0  0  0  0
   -2.1388   -2.5983    1.8469 C   0  0  0  0  0  0  0  0  0  0  0  0
   -0.9731   -2.8633    1.1123 C   0  0  0  0  0  0  0  0  0  0  0  0
   -0.8244   -4.0726    0.4322 C   0  0  0  0  0  0  0  0  0  0  0  0
   -1.8375   -5.0284    0.4788 C   0  0  0  0  0  0  0  0  0  0  0  0
   -3.0000   -4.7771    1.2051 C   0  0  0  0  0  0  0  0  0  0  0  0
   -3.1514   -3.5690    1.8867 C   0  0  0  0  0  0  0  0  0  0  0  0
   -3.7165    2.2838   -2.1813 H   0  0  0  0  0  0  0  0  0  0  0  0
   -1.8767    1.3704   -3.1831 H   0  0  0  0  0  0  0  0  0  0  0  0
   -0.2158   -0.1660   -3.4659 H   0  0  0  0  0  0  0  0  0  0  0  0
   -1.0836   -0.9799   -2.1750 H   0  0  0  0  0  0  0  0  0  0  0  0
    0.5248    0.0523   -0.4973 H   0  0  0  0  0  0  0  0  0  0  0  0
    1.3002   -0.9786   -1.7052 H   0  0  0  0  0  0  0  0  0  0  0  0
    1.6170    2.3810    0.2793 H   0  0  0  0  0  0  0  0  0  0  0  0
    1.8809    2.6583    2.7018 H   0  0  0  0  0  0  0  0  0  0  0  0
    3.8971    1.7831    3.8460 H   0  0  0  0  0  0  0  0  0  0  0  0
    5.6617    0.6479    2.5584 H   0  0  0  0  0  0  0  0  0  0  0  0
    1.4744    3.2212   -2.0874 H   0  0  0  0  0  0  0  0  0  0  0  0
    0.9147    2.3543   -3.5236 H   0  0  0  0  0  0  0  0  0  0  0  0
   -0.4662    2.5712   -0.8083 H   0  0  0  0  0  0  0  0  0  0  0  0
   -0.9896    3.3234   -2.2975 H   0  0  0  0  0  0  0  0  0  0  0  0
   -1.3649   -0.7210    2.6024 H   0  0  0  0  0  0  0  0  0  0  0  0
   -2.6040   -1.4671    3.6137 H   0  0  0  0  0  0  0  0  0  0  0  0
   -0.1737   -2.1277    1.0598 H   0  0  0  0  0  0  0  0  0  0  0  0
    0.0818   -4.2704   -0.1351 H   0  0  0  0  0  0  0  0  0  0  0  0
   -1.7217   -5.9694   -0.0524 H   0  0  0  0  0  0  0  0  0  0  0  0
   -3.7911   -5.5220    1.2393 H   0  0  0  0  0  0  0  0  0  0  0  0
   -4.0689   -3.3870    2.4447 H   0  0  0  0  0  0  0  0  0  0  0  0
  1  2  2  0
  2  3  1  0
  3  4  1  0
  4  5  1  0
  5  6  1  0
  6  7  1  0
  7  8  1  0
  8  9  1  0
  9 10  2  0
  9 11  2  0
  9 12  1  0
 12 13  2  0
 13 14  1  0
 14 15  2  0
 15 16  1  0
 16 17  2  0
 17 18  1  0
 18 19  1  0
 18 20  1  0
 18 21  1  0
  8 22  1  0
 22 23  1  0
  4 24  2  0
 24 25  1  0
 25 26  2  0
 26 27  1  0
 27 28  2  0
 28 29  1  0
 29 30  1  0
 30 31  1  0
 31 32  2  0
 32 33  1  0
 33 34  2  0
 34 35  1  0
 35 36  2  0
 26  2  1  0
 36 31  1  0
 23  5  1  0
 29 25  1  0
 17 12  1  0
  3 37  1  0
  5 38  1  0
  6 39  1  0
  6 40  1  0
  7 41  1  0
  7 42  1  0
 13 43  1  0
 14 44  1  0
 15 45  1  0
 16 46  1  0
 22 47  1  0
 22 48  1  0
 23 49  1  0
 23 50  1  0
 30 51  1  0
 30 52  1  0
 32 53  1  0
 33 54  1  0
 34 55  1  0
 35 56  1  0
 36 57  1  0
M  END
$$$$
