
     RDKit          3D

 54 57  0  0  0  0  0  0  0  0999 V2000
   -5.7355    3.1341    2.4591 C   0  0  0  0  0  0  0  0  0  0  0  0
   -5.5083    2.9732    1.0629 O   0  0  0  0  0  0  0  0  0  0  0  0
   -4.2943    2.4658    0.6904 C   0  0  0  0  0  0  0  0  0  0  0  0
   -3.2926    2.0168    1.5504 C   0  0  0  0  0  0  0  0  0  0  0  0
   -2.0872    1.5245    1.0341 C   0  0  0  0  0  0  0  0  0  0  0  0
   -1.8800    1.4755   -0.3499 C   0  0  0  0  0  0  0  0  0  0  0  0
   -0.6562    0.9850   -0.8719 N   0  0  0  0  0  0  0  0  0  0  0  0
   -0.4690    0.0913   -1.9240 C   0  0  0  0  0  0  0  0  0  0  0  0
   -1.5337   -0.6896   -2.6252 C   0  0  0  0  0  0  0  0  0  0  0  0
   -2.2183   -1.6883   -1.7373 C   0  0  0  0  0  0  0  0  0  0  0  0
   -3.5154   -1.6765   -1.2527 C   0  0  0  0  0  0  0  0  0  0  0  0
   -3.6976   -2.8355   -0.4639 C   0  0  0  0  0  0  0  0  0  0  0  0
   -2.5130   -3.5337   -0.4847 C   0  0  0  0  0  0  0  0  0  0  0  0
   -1.6213   -2.8404   -1.2655 N   0  0  0  0  0  0  0  0  0  0  0  0
   -0.2669   -3.2819   -1.5334 C   0  0  0  0  0  0  0  0  0  0  0  0
    0.8262   -0.0765   -2.1368 N   0  0  0  0  0  0  0  0  0  0  0  0
    1.5115    0.6677   -1.2262 N   0  0  0  0  0  0  0  0  0  0  0  0
    0.6366    1.2934   -0.4714 C   0  0  0  0  0  0  0  0  0  0  0  0
    1.0673    2.4668    0.7314 S   0  0  0  0  0  0  0  0  0  0  0  0
    2.7886    2.8357    0.2776 C   0  0  0  0  0  0  0  0  0  0  0  0
    3.7571    1.8694    0.9464 C   0  0  0  0  0  0  0  0  0  0  0  0
    4.3697    2.2000    1.9597 O   0  0  0  0  0  0  0  0  0  0  0  0
    3.8649    0.6569    0.2877 N   0  0  0  0  0  0  0  0  0  0  0  0
    4.7109   -0.4229    0.5955 C   0  0  0  0  0  0  0  0  0  0  0  0
    4.5757   -1.5789   -0.1895 C   0  0  0  0  0  0  0  0  0  0  0  0
    5.3783   -2.6979    0.0369 C   0  0  0  0  0  0  0  0  0  0  0  0
    6.3332   -2.6656    1.0483 C   0  0  0  0  0  0  0  0  0  0  0  0
    6.4672   -1.5207    1.8242 C   0  0  0  0  0  0  0  0  0  0  0  0
    7.3829   -1.4962    2.8040 F   0  0  0  0  0  0  0  0  0  0  0  0
    5.6641   -0.4032    1.6121 C   0  0  0  0  0  0  0  0  0  0  0  0
   -2.8861    1.9198   -1.2147 C   0  0  0  0  0  0  0  0  0  0  0  0
   -4.0858    2.4095   -0.6902 C   0  0  0  0  0  0  0  0  0  0  0  0
   -4.9930    3.8018    2.9067 H   0  0  0  0  0  0  0  0  0  0  0  0
   -6.7211    3.5957    2.5866 H   0  0  0  0  0  0  0  0  0  0  0  0
   -5.7570    2.1647    2.9673 H   0  0  0  0  0  0  0  0  0  0  0  0
   -3.4208    2.0247    2.6274 H   0  0  0  0  0  0  0  0  0  0  0  0
   -1.3460    1.1483    1.7357 H   0  0  0  0  0  0  0  0  0  0  0  0
   -2.2716   -0.0225   -3.0838 H   0  0  0  0  0  0  0  0  0  0  0  0
   -1.0786   -1.2230   -3.4695 H   0  0  0  0  0  0  0  0  0  0  0  0
   -4.2563   -0.9102   -1.4433 H   0  0  0  0  0  0  0  0  0  0  0  0
   -4.5961   -3.1290    0.0617 H   0  0  0  0  0  0  0  0  0  0  0  0
   -2.2404   -4.4687   -0.0105 H   0  0  0  0  0  0  0  0  0  0  0  0
   -0.0889   -3.2416   -2.6074 H   0  0  0  0  0  0  0  0  0  0  0  0
   -0.1406   -4.3103   -1.1843 H   0  0  0  0  0  0  0  0  0  0  0  0
    0.4192   -2.6270   -0.9979 H   0  0  0  0  0  0  0  0  0  0  0  0
    3.0286    3.8455    0.6260 H   0  0  0  0  0  0  0  0  0  0  0  0
    2.9354    2.8399   -0.8061 H   0  0  0  0  0  0  0  0  0  0  0  0
    3.2145    0.5080   -0.4876 H   0  0  0  0  0  0  0  0  0  0  0  0
    3.8316   -1.6242   -0.9819 H   0  0  0  0  0  0  0  0  0  0  0  0
    5.2515   -3.5912   -0.5667 H   0  0  0  0  0  0  0  0  0  0  0  0
    6.9672   -3.5226    1.2428 H   0  0  0  0  0  0  0  0  0  0  0  0
    5.8096    0.4551    2.2596 H   0  0  0  0  0  0  0  0  0  0  0  0
   -2.7545    1.9447   -2.2943 H   0  0  0  0  0  0  0  0  0  0  0  0
   -4.8654    2.7640   -1.3635 H   0  0  0  0  0  0  0  0  0  0  0  0
  1  2  1  0
  2  3  1  0
  3  4  2  0
  4  5  1  0
  5  6  2  0
  6  7  1  0
  7  8  1  0
  8  9  1  0
  9 10  1  0
 10 11  2  0
 11 12  1  0
 12 13  2  0
 13 14  1  0
 14 15  1  0
  8 16  2  0
 16 17  1  0
 17 18  2  0
 18 19  1  0
 19 20  1  0
 20 21  1  0
 21 22  2  0
 21 23  1  0
 23 24  1  0
 24 25  2  0
 25 26  1  0
 26 27  2  0
 27 28  1  0
 28 29  1  0
 28 30  2  0
  6 31  1  0
 31 32  2  0
 32  3  1  0
 18  7  1  0
 30 24  1  0
 14 10  1  0
  1 33  1  0
  1 34  1  0
  1 35  1  0
  4 36  1  0
  5 37  1  0
  9 38  1  0
  9 39  1  0
 11 40  1  0
 12 41  1  0
 13 42  1  0
 15 43  1  0
 15 44  1  0
 15 45  1  0
 20 46  1  0
 20 47  1  0
 23 48  1  0
 25 49  1  0
 26 50  1  0
 27 51  1  0
 30 52  1  0
 31 53  1  0
 32 54  1  0
M  END
$$$$
