
     RDKit          3D

 39 41  0  0  0  0  0  0  0  0999 V2000
    2.7763   -2.2585   -0.2399 O   0  0  0  0  0  0  0  0  0  0  0  0
    2.8693   -1.1121   -0.6488 C   0  0  0  0  0  0  0  0  0  0  0  0
    2.1094   -0.5432   -1.6152 O   0  0  0  0  0  0  0  0  0  0  0  0
    1.0733   -1.3692   -2.1593 C   0  0  0  0  0  0  0  0  0  0  0  0
   -0.2377   -1.0097   -1.5108 C   0  0  0  0  0  0  0  0  0  0  0  0
   -0.6842   -1.7066   -0.3825 C   0  0  0  0  0  0  0  0  0  0  0  0
   -1.8892   -1.3589    0.2360 C   0  0  0  0  0  0  0  0  0  0  0  0
   -2.6763   -0.3034   -0.2505 C   0  0  0  0  0  0  0  0  0  0  0  0
   -3.9441    0.0627    0.4029 C   0  0  0  0  0  0  0  0  0  0  0  0
   -5.1388    0.1492   -0.3314 C   0  0  0  0  0  0  0  0  0  0  0  0
   -6.3427    0.4965    0.2881 C   0  0  0  0  0  0  0  0  0  0  0  0
   -6.3718    0.7645    1.6542 C   0  0  0  0  0  0  0  0  0  0  0  0
   -5.1991    0.6850    2.4009 C   0  0  0  0  0  0  0  0  0  0  0  0
   -3.9965    0.3366    1.7799 C   0  0  0  0  0  0  0  0  0  0  0  0
   -2.2135    0.3966   -1.3761 C   0  0  0  0  0  0  0  0  0  0  0  0
   -1.0079    0.0529   -1.9965 C   0  0  0  0  0  0  0  0  0  0  0  0
    3.8710   -0.1372   -0.1387 C   0  0  0  0  0  0  0  0  0  0  0  0
    3.8773    1.2099   -0.5309 C   0  0  0  0  0  0  0  0  0  0  0  0
    4.8384    2.0868   -0.0198 C   0  0  0  0  0  0  0  0  0  0  0  0
    5.7957    1.6264    0.8844 C   0  0  0  0  0  0  0  0  0  0  0  0
    5.7833    0.2900    1.2725 C   0  0  0  0  0  0  0  0  0  0  0  0
    6.7003   -0.1997    2.1547 O   0  0  0  0  0  0  0  0  0  0  0  0
    4.8322   -0.5928    0.7718 C   0  0  0  0  0  0  0  0  0  0  0  0
    1.0231   -1.1661   -3.2354 H   0  0  0  0  0  0  0  0  0  0  0  0
    1.2863   -2.4412   -2.0659 H   0  0  0  0  0  0  0  0  0  0  0  0
   -0.0927   -2.5247    0.0263 H   0  0  0  0  0  0  0  0  0  0  0  0
   -2.2151   -1.9287    1.1041 H   0  0  0  0  0  0  0  0  0  0  0  0
   -5.1405   -0.0682   -1.3976 H   0  0  0  0  0  0  0  0  0  0  0  0
   -7.2565    0.5536   -0.2974 H   0  0  0  0  0  0  0  0  0  0  0  0
   -7.3074    1.0344    2.1366 H   0  0  0  0  0  0  0  0  0  0  0  0
   -5.2171    0.8956    3.4669 H   0  0  0  0  0  0  0  0  0  0  0  0
   -3.0897    0.2906    2.3798 H   0  0  0  0  0  0  0  0  0  0  0  0
   -2.7870    1.2331   -1.7706 H   0  0  0  0  0  0  0  0  0  0  0  0
   -0.6723    0.6258   -2.8580 H   0  0  0  0  0  0  0  0  0  0  0  0
    3.1366    1.5918   -1.2294 H   0  0  0  0  0  0  0  0  0  0  0  0
    4.8372    3.1301   -0.3267 H   0  0  0  0  0  0  0  0  0  0  0  0
    6.5360    2.3188    1.2734 H   0  0  0  0  0  0  0  0  0  0  0  0
    7.2915    0.5210    2.4272 H   0  0  0  0  0  0  0  0  0  0  0  0
    4.8429   -1.6320    1.0927 H   0  0  0  0  0  0  0  0  0  0  0  0
  1  2  2  0
  2  3  1  0
  3  4  1  0
  4  5  1  0
  5  6  2  0
  6  7  1  0
  7  8  2  0
  8  9  1  0
  9 10  2  0
 10 11  1  0
 11 12  2  0
 12 13  1  0
 13 14  2  0
  8 15  1  0
 15 16  2  0
  2 17  1  0
 17 18  2  0
 18 19  1  0
 19 20  2  0
 20 21  1  0
 21 22  1  0
 21 23  2  0
 16  5  1  0
 23 17  1  0
 14  9  1  0
  4 24  1  0
  4 25  1  0
  6 26  1  0
  7 27  1  0
 10 28  1  0
 11 29  1  0
 12 30  1  0
 13 31  1  0
 14 32  1  0
 15 33  1  0
 16 34  1  0
 18 35  1  0
 19 36  1  0
 20 37  1  0
 22 38  1  0
 23 39  1  0
M  END
$$$$
