
     RDKit          3D

 68 71  0  0  0  0  0  0  0  0999 V2000
    8.5677    0.7976    3.6509 C   0  0  0  0  0  0  0  0  0  0  0  0
    7.4764    1.0117    2.6868 C   0  0  0  0  0  0  0  0  0  0  0  0
    6.1075    1.0480    2.7821 C   0  0  0  0  0  0  0  0  0  0  0  0
    5.6684    1.2824    1.4600 C   0  0  0  0  0  0  0  0  0  0  0  0
    4.3874    1.3653    0.9640 N   0  0  0  0  0  0  0  0  0  0  0  0
    3.2349    1.1874    1.6961 C   0  0  0  0  0  0  0  0  0  0  0  0
    3.1708    1.0244    2.9116 O   0  0  0  0  0  0  0  0  0  0  0  0
    1.9977    1.2381    0.8216 C   0  0  0  0  0  0  0  0  0  0  0  0
    0.7829    0.6510    1.5350 C   0  0  0  0  0  0  0  0  0  0  0  0
   -0.4189    0.5695    0.6061 C   0  0  0  0  0  0  0  0  0  0  0  0
   -0.3706    1.0784   -0.5189 O   0  0  0  0  0  0  0  0  0  0  0  0
   -1.5610   -0.0714    1.0729 N   0  0  0  0  0  0  0  0  0  0  0  0
   -1.5502   -0.9777    2.2283 C   0  0  0  0  0  0  0  0  0  0  0  0
   -1.0944   -2.3381    1.8366 C   0  0  0  0  0  0  0  0  0  0  0  0
   -1.7232   -3.4320    1.2789 C   0  0  0  0  0  0  0  0  0  0  0  0
   -0.7405   -4.4441    1.1603 C   0  0  0  0  0  0  0  0  0  0  0  0
    0.4266   -3.9100    1.6600 C   0  0  0  0  0  0  0  0  0  0  0  0
    0.2181   -2.6387    2.0837 O   0  0  0  0  0  0  0  0  0  0  0  0
   -2.8065   -0.0589    0.2541 C   0  0  0  0  0  0  0  0  0  0  0  0
   -2.7172   -1.0656   -0.9301 C   0  0  0  0  0  0  0  0  0  0  0  0
   -3.5322   -1.9806   -1.0615 O   0  0  0  0  0  0  0  0  0  0  0  0
   -1.6834   -0.8639   -1.8142 N   0  0  0  0  0  0  0  0  0  0  0  0
   -1.3595   -1.7553   -2.9060 C   0  0  0  0  0  0  0  0  0  0  0  0
   -0.1305   -1.2496   -3.6831 C   0  0  0  0  0  0  0  0  0  0  0  0
   -0.4034   -1.6383   -5.1264 C   0  0  0  0  0  0  0  0  0  0  0  0
   -1.8946   -1.3785   -5.2663 C   0  0  0  0  0  0  0  0  0  0  0  0
   -2.4789   -1.8888   -3.9543 C   0  0  0  0  0  0  0  0  0  0  0  0
   -3.3163    1.3555   -0.0781 C   0  0  0  0  0  0  0  0  0  0  0  0
   -3.5355    1.7510   -1.4144 C   0  0  0  0  0  0  0  0  0  0  0  0
   -3.9828    3.0392   -1.7340 C   0  0  0  0  0  0  0  0  0  0  0  0
   -4.2151    3.9659   -0.7263 C   0  0  0  0  0  0  0  0  0  0  0  0
   -4.0349    3.5957    0.6029 C   0  0  0  0  0  0  0  0  0  0  0  0
   -3.6082    2.2975    0.9460 C   0  0  0  0  0  0  0  0  0  0  0  0
   -3.4798    1.9751    2.4114 C   0  0  0  0  0  0  0  0  0  0  0  0
    6.7057    1.4346    0.6317 N   0  0  0  0  0  0  0  0  0  0  0  0
    7.8391    1.2521    1.3996 O   0  0  0  0  0  0  0  0  0  0  0  0
    9.0547   -0.1651    3.4729 H   0  0  0  0  0  0  0  0  0  0  0  0
    8.1919    0.8054    4.6790 H   0  0  0  0  0  0  0  0  0  0  0  0
    9.3214    1.5867    3.5626 H   0  0  0  0  0  0  0  0  0  0  0  0
    5.5118    0.9212    3.6793 H   0  0  0  0  0  0  0  0  0  0  0  0
    4.3444    1.5287   -0.0345 H   0  0  0  0  0  0  0  0  0  0  0  0
    2.1959    0.6699   -0.0975 H   0  0  0  0  0  0  0  0  0  0  0  0
    1.8090    2.2818    0.5453 H   0  0  0  0  0  0  0  0  0  0  0  0
    0.5117    1.2747    2.3946 H   0  0  0  0  0  0  0  0  0  0  0  0
    1.0430   -0.3477    1.8934 H   0  0  0  0  0  0  0  0  0  0  0  0
   -0.9020   -0.5736    3.0096 H   0  0  0  0  0  0  0  0  0  0  0  0
   -2.5520   -1.0245    2.6649 H   0  0  0  0  0  0  0  0  0  0  0  0
   -2.7629   -3.4982    0.9859 H   0  0  0  0  0  0  0  0  0  0  0  0
   -0.8654   -5.4415    0.7631 H   0  0  0  0  0  0  0  0  0  0  0  0
    1.4327   -4.2870    1.7870 H   0  0  0  0  0  0  0  0  0  0  0  0
   -3.6032   -0.4802    0.8837 H   0  0  0  0  0  0  0  0  0  0  0  0
   -1.1027   -0.0364   -1.6515 H   0  0  0  0  0  0  0  0  0  0  0  0
   -1.1497   -2.7454   -2.4729 H   0  0  0  0  0  0  0  0  0  0  0  0
    0.8022   -1.6853   -3.3082 H   0  0  0  0  0  0  0  0  0  0  0  0
   -0.0433   -0.1553   -3.6105 H   0  0  0  0  0  0  0  0  0  0  0  0
   -0.1790   -2.7034   -5.2805 H   0  0  0  0  0  0  0  0  0  0  0  0
    0.1920   -1.0500   -5.8344 H   0  0  0  0  0  0  0  0  0  0  0  0
   -2.3233   -1.8821   -6.1359 H   0  0  0  0  0  0  0  0  0  0  0  0
   -2.0886   -0.3054   -5.3683 H   0  0  0  0  0  0  0  0  0  0  0  0
   -2.7326   -2.9514   -4.0631 H   0  0  0  0  0  0  0  0  0  0  0  0
   -3.4013   -1.3591   -3.6990 H   0  0  0  0  0  0  0  0  0  0  0  0
   -3.3714    1.0702   -2.2440 H   0  0  0  0  0  0  0  0  0  0  0  0
   -4.1357    3.3175   -2.7750 H   0  0  0  0  0  0  0  0  0  0  0  0
   -4.5436    4.9723   -0.9716 H   0  0  0  0  0  0  0  0  0  0  0  0
   -4.2321    4.3342    1.3811 H   0  0  0  0  0  0  0  0  0  0  0  0
   -3.9534    1.0152    2.6436 H   0  0  0  0  0  0  0  0  0  0  0  0
   -3.9881    2.7238    3.0294 H   0  0  0  0  0  0  0  0  0  0  0  0
   -2.4262    1.9606    2.7047 H   0  0  0  0  0  0  0  0  0  0  0  0
  1  2  1  0
  2  3  2  0
  3  4  1  0
  4  5  1  0
  5  6  1  0
  6  7  2  0
  6  8  1  0
  8  9  1  0
  9 10  1  0
 10 11  2  0
 10 12  1  0
 12 13  1  0
 13 14  1  0
 14 15  2  0
 15 16  1  0
 16 17  2  0
 17 18  1  0
 12 19  1  0
 19 20  1  0
 20 21  2  0
 20 22  1  0
 22 23  1  0
 23 24  1  0
 24 25  1  0
 25 26  1  0
 26 27  1  0
 19 28  1  0
 28 29  2  0
 29 30  1  0
 30 31  2  0
 31 32  1  0
 32 33  2  0
 33 34  1  0
  4 35  2  0
 35 36  1  0
 36  2  1  0
 18 14  1  0
 27 23  1  0
 33 28  1  0
  1 37  1  0
  1 38  1  0
  1 39  1  0
  3 40  1  0
  5 41  1  0
  8 42  1  0
  8 43  1  0
  9 44  1  0
  9 45  1  0
 13 46  1  0
 13 47  1  0
 15 48  1  0
 16 49  1  0
 17 50  1  0
 19 51  1  0
 22 52  1  0
 23 53  1  0
 24 54  1  0
 24 55  1  0
 25 56  1  0
 25 57  1  0
 26 58  1  0
 26 59  1  0
 27 60  1  0
 27 61  1  0
 29 62  1  0
 30 63  1  0
 31 64  1  0
 32 65  1  0
 34 66  1  0
 34 67  1  0
 34 68  1  0
M  END
$$$$
