
     RDKit          3D

 37 39  0  0  0  0  0  0  0  0999 V2000
    3.1889    3.9375   -0.9654 C   0  0  0  0  0  0  0  0  0  0  0  0
    1.9192    3.3724   -1.2766 O   0  0  0  0  0  0  0  0  0  0  0  0
    1.7989    2.0153   -1.1372 C   0  0  0  0  0  0  0  0  0  0  0  0
    0.6446    1.4798   -1.7087 C   0  0  0  0  0  0  0  0  0  0  0  0
    0.3605    0.1115   -1.6222 C   0  0  0  0  0  0  0  0  0  0  0  0
    1.2389   -0.7375   -0.9196 C   0  0  0  0  0  0  0  0  0  0  0  0
    1.2491   -2.1262   -0.5843 C   0  0  0  0  0  0  0  0  0  0  0  0
    0.2667   -3.1291   -0.8436 C   0  0  0  0  0  0  0  0  0  0  0  0
   -1.0495   -3.0833   -0.5676 C   0  0  0  0  0  0  0  0  0  0  0  0
   -1.7625   -1.9809    0.0881 C   0  0  0  0  0  0  0  0  0  0  0  0
   -1.3238   -1.4381    1.2942 C   0  0  0  0  0  0  0  0  0  0  0  0
   -1.9851   -0.3459    1.8375 C   0  0  0  0  0  0  0  0  0  0  0  0
   -3.0679    0.1794    1.2218 N   0  0  0  0  0  4  0  0  0  0  0  0
   -3.7227    1.3567    1.8137 C   0  0  0  0  0  0  0  0  0  0  0  0
   -3.5389   -0.3585    0.0745 C   0  0  0  0  0  0  0  0  0  0  0  0
   -2.9018   -1.4487   -0.5085 C   0  0  0  0  0  0  0  0  0  0  0  0
    2.4297   -2.3882    0.0737 C   0  0  0  0  0  0  0  0  0  0  0  0
    3.1193   -1.2096    0.1852 N   0  0  0  0  0  0  0  0  0  0  0  0
    2.4019   -0.1813   -0.3841 C   0  0  0  0  0  0  0  0  0  0  0  0
    2.7086    1.1855   -0.4738 C   0  0  0  0  0  0  0  0  0  0  0  0
    3.4235    3.8260    0.0979 H   0  0  0  0  0  0  0  0  0  0  0  0
    3.1397    5.0087   -1.1819 H   0  0  0  0  0  0  0  0  0  0  0  0
    3.9752    3.5030   -1.5894 H   0  0  0  0  0  0  0  0  0  0  0  0
   -0.0361    2.1358   -2.2460 H   0  0  0  0  0  0  0  0  0  0  0  0
   -0.5254   -0.2876   -2.1047 H   0  0  0  0  0  0  0  0  0  0  0  0
    0.6434   -4.0465   -1.2962 H   0  0  0  0  0  0  0  0  0  0  0  0
   -1.6660   -3.9367   -0.8495 H   0  0  0  0  0  0  0  0  0  0  0  0
   -0.4470   -1.8393    1.7989 H   0  0  0  0  0  0  0  0  0  0  0  0
   -1.6534    0.1219    2.7594 H   0  0  0  0  0  0  0  0  0  0  0  0
   -4.5677    1.6670    1.1948 H   0  0  0  0  0  0  0  0  0  0  0  0
   -2.9829    2.1597    1.8650 H   0  0  0  0  0  0  0  0  0  0  0  0
   -4.0722    1.0797    2.8112 H   0  0  0  0  0  0  0  0  0  0  0  0
   -4.4169    0.0957   -0.3784 H   0  0  0  0  0  0  0  0  0  0  0  0
   -3.2773   -1.8521   -1.4448 H   0  0  0  0  0  0  0  0  0  0  0  0
    2.8394   -3.3027    0.4792 H   0  0  0  0  0  0  0  0  0  0  0  0
    4.0273   -1.1063    0.6200 H   0  0  0  0  0  0  0  0  0  0  0  0
    3.6224    1.5629   -0.0312 H   0  0  0  0  0  0  0  0  0  0  0  0
  1  2  1  0
  2  3  1  0
  3  4  2  0
  4  5  1  0
  5  6  2  0
  6  7  1  0
  7  8  1  0
  8  9  2  3
  9 10  1  0
 10 11  2  0
 11 12  1  0
 12 13  2  0
 13 14  1  0
 13 15  1  0
 15 16  2  0
  7 17  2  0
 17 18  1  0
 18 19  1  0
 19 20  2  0
 20  3  1  0
 19  6  1  0
 16 10  1  0
  1 21  1  0
  1 22  1  0
  1 23  1  0
  4 24  1  0
  5 25  1  0
  8 26  1  0
  9 27  1  0
 11 28  1  0
 12 29  1  0
 14 30  1  0
 14 31  1  0
 14 32  1  0
 15 33  1  0
 16 34  1  0
 17 35  1  0
 18 36  1  0
 20 37  1  0
M  CHG  1  13   1
M  END
$$$$
