
     RDKit          3D

 24 26  0  0  0  0  0  0  0  0999 V2000
   -4.3230   -0.7804   -1.9702 F   0  0  0  0  0  0  0  0  0  0  0  0
   -3.2422   -0.5180   -1.2269 C   0  0  0  0  0  0  0  0  0  0  0  0
   -2.4210   -1.5635   -0.8199 C   0  0  0  0  0  0  0  0  0  0  0  0
   -1.2895   -1.2940   -0.0465 C   0  0  0  0  0  0  0  0  0  0  0  0
   -0.9872    0.0277    0.3145 C   0  0  0  0  0  0  0  0  0  0  0  0
    0.1945    0.3120    1.0986 C   0  0  0  0  0  0  0  0  0  0  0  0
    0.1620    0.7514    2.4102 C   0  0  0  0  0  0  0  0  0  0  0  0
    1.7763    0.9578    3.0111 S   0  0  0  0  0  0  0  0  0  0  0  0
    2.4232    0.4806    1.5270 C   0  0  0  0  0  0  0  0  0  0  0  0
    1.4905    0.1871    0.6571 N   0  0  0  0  0  4  0  0  0  0  0  0
    1.9704   -0.2515   -0.6459 C   0  0  0  0  0  0  0  0  0  0  0  0
    3.4496    0.1528   -0.7651 C   0  0  0  0  0  0  0  0  0  0  0  0
    4.0459    0.3370    0.9592 S   0  0  0  0  0  0  0  0  0  0  0  0
   -1.8273    1.0727   -0.0982 C   0  0  0  0  0  0  0  0  0  0  0  0
   -2.9564    0.7953   -0.8723 C   0  0  0  0  0  0  0  0  0  0  0  0
   -2.6780   -2.5814   -1.1024 H   0  0  0  0  0  0  0  0  0  0  0  0
   -0.6728   -2.1295    0.2799 H   0  0  0  0  0  0  0  0  0  0  0  0
   -0.6919    0.9489    3.0470 H   0  0  0  0  0  0  0  0  0  0  0  0
    1.8658   -1.3417   -0.6998 H   0  0  0  0  0  0  0  0  0  0  0  0
    1.3794    0.1993   -1.4495 H   0  0  0  0  0  0  0  0  0  0  0  0
    3.5392    1.1239   -1.2621 H   0  0  0  0  0  0  0  0  0  0  0  0
    4.0354   -0.5861   -1.3181 H   0  0  0  0  0  0  0  0  0  0  0  0
   -1.6228    2.1078    0.1718 H   0  0  0  0  0  0  0  0  0  0  0  0
   -3.6200    1.5919   -1.1995 H   0  0  0  0  0  0  0  0  0  0  0  0
  1  2  1  0
  2  3  2  0
  3  4  1  0
  4  5  2  0
  5  6  1  0
  6  7  2  0
  7  8  1  0
  8  9  1  0
  9 10  2  0
 10 11  1  0
 11 12  1  0
 12 13  1  0
  5 14  1  0
 14 15  2  0
 15  2  1  0
 10  6  1  0
 13  9  1  0
  3 16  1  0
  4 17  1  0
  7 18  1  0
 11 19  1  0
 11 20  1  0
 12 21  1  0
 12 22  1  0
 14 23  1  0
 15 24  1  0
M  CHG  1  10   1
M  END
$$$$
