
     RDKit          3D

 42 44  0  0  0  0  0  0  0  0999 V2000
    5.4661   -1.6290    2.8373 C   0  0  0  0  0  0  0  0  0  0  0  0
    5.6310   -1.3724    1.4476 O   0  0  0  0  0  0  0  0  0  0  0  0
    4.5555   -0.8496    0.7837 C   0  0  0  0  0  0  0  0  0  0  0  0
    4.7871   -0.5464   -0.5606 C   0  0  0  0  0  0  0  0  0  0  0  0
    3.7843    0.0032   -1.3645 C   0  0  0  0  0  0  0  0  0  0  0  0
    4.1613    0.2593   -2.6544 O   0  0  0  0  0  0  0  0  0  0  0  0
    3.1615    0.7570   -3.5356 C   0  0  0  0  0  0  0  0  0  0  0  0
    2.5268    0.2492   -0.8159 C   0  0  0  0  0  0  0  0  0  0  0  0
    2.2752   -0.0751    0.5264 C   0  0  0  0  0  0  0  0  0  0  0  0
    0.9405    0.1600    1.1560 C   0  0  0  0  0  0  0  0  0  0  0  0
    0.9141    0.4238    2.3519 O   0  0  0  0  0  0  0  0  0  0  0  0
   -0.1316    0.0109    0.2995 N   0  0  0  0  0  0  0  0  0  0  0  0
   -1.4760    0.2199    0.5751 C   0  0  0  0  0  0  0  0  0  0  0  0
   -1.9974    0.7928    2.1013 S   0  0  0  0  0  0  0  0  0  0  0  0
   -3.5833    0.7881    1.5937 C   0  0  0  0  0  0  0  0  0  0  0  0
   -3.7598    0.3668    0.3045 C   0  0  0  0  0  0  0  0  0  0  0  0
   -2.5288    0.0122   -0.3246 C   0  0  0  0  0  0  0  0  0  0  0  0
   -2.2949   -0.4731   -1.6832 C   0  0  0  0  0  0  0  0  0  0  0  0
   -3.3877   -0.8917   -2.3845 N   0  0  0  0  0  0  0  0  0  0  0  0
   -1.1745   -0.5475   -2.1845 O   0  0  0  0  0  0  0  0  0  0  0  0
   -5.1999    0.4278   -0.0643 C   0  0  0  0  0  0  0  0  0  0  0  0
   -5.8123    1.2833    1.0878 C   0  0  0  0  0  0  0  0  0  0  0  0
   -4.8295    1.1807    2.2905 C   0  0  0  0  0  0  0  0  0  0  0  0
    3.2955   -0.6115    1.3264 C   0  0  0  0  0  0  0  0  0  0  0  0
    4.7077   -2.4001    3.0076 H   0  0  0  0  0  0  0  0  0  0  0  0
    5.2277   -0.7105    3.3839 H   0  0  0  0  0  0  0  0  0  0  0  0
    6.4178   -2.0078    3.2221 H   0  0  0  0  0  0  0  0  0  0  0  0
    5.7701   -0.7343   -0.9875 H   0  0  0  0  0  0  0  0  0  0  0  0
    2.8139    1.7451   -3.2171 H   0  0  0  0  0  0  0  0  0  0  0  0
    3.6136    0.8665   -4.5261 H   0  0  0  0  0  0  0  0  0  0  0  0
    2.3271    0.0534   -3.6259 H   0  0  0  0  0  0  0  0  0  0  0  0
    1.7475    0.7133   -1.4101 H   0  0  0  0  0  0  0  0  0  0  0  0
    0.0435   -0.3251   -0.6457 H   0  0  0  0  0  0  0  0  0  0  0  0
   -3.2014   -1.3528   -3.2648 H   0  0  0  0  0  0  0  0  0  0  0  0
   -4.2581   -1.1027   -1.9223 H   0  0  0  0  0  0  0  0  0  0  0  0
   -5.3709    0.9015   -1.0348 H   0  0  0  0  0  0  0  0  0  0  0  0
   -5.6375   -0.5761   -0.0643 H   0  0  0  0  0  0  0  0  0  0  0  0
   -6.8262    0.9648    1.3490 H   0  0  0  0  0  0  0  0  0  0  0  0
   -5.8697    2.3304    0.7616 H   0  0  0  0  0  0  0  0  0  0  0  0
   -5.1506    0.3972    2.9844 H   0  0  0  0  0  0  0  0  0  0  0  0
   -4.7506    2.1334    2.8210 H   0  0  0  0  0  0  0  0  0  0  0  0
    3.0732   -0.8350    2.3658 H   0  0  0  0  0  0  0  0  0  0  0  0
  1  2  1  0
  2  3  1  0
  3  4  2  0
  4  5  1  0
  5  6  1  0
  6  7  1  0
  5  8  2  0
  8  9  1  0
  9 10  1  0
 10 11  2  0
 10 12  1  0
 12 13  1  0
 13 14  1  0
 14 15  1  0
 15 16  2  0
 16 17  1  0
 17 18  1  0
 18 19  1  0
 18 20  2  0
 16 21  1  0
 21 22  1  0
 22 23  1  0
  9 24  2  0
 24  3  1  0
 17 13  2  0
 23 15  1  0
  1 25  1  0
  1 26  1  0
  1 27  1  0
  4 28  1  0
  7 29  1  0
  7 30  1  0
  7 31  1  0
  8 32  1  0
 12 33  1  0
 19 34  1  0
 19 35  1  0
 21 36  1  0
 21 37  1  0
 22 38  1  0
 22 39  1  0
 23 40  1  0
 23 41  1  0
 24 42  1  0
M  END
$$$$
