
     RDKit          3D

 43 44  0  0  0  0  0  0  0  0999 V2000
   -2.7952    2.3109    1.7341 C   0  0  0  0  0  0  0  0  0  0  0  0
   -2.7776    0.7947    1.7098 C   0  0  0  0  0  0  0  0  0  0  0  0
   -3.2945    0.3104    0.4024 N   0  0  0  0  0  4  0  0  0  0  0  0
   -4.6330    0.1186    0.2822 C   0  0  0  0  0  0  0  0  0  0  0  0
   -5.2011   -0.3550   -0.8984 C   0  0  0  0  0  0  0  0  0  0  0  0
   -6.6803   -0.5879   -0.9964 C   0  0  0  0  0  0  0  0  0  0  0  0
   -4.3635   -0.6616   -1.9642 C   0  0  0  0  0  0  0  0  0  0  0  0
   -2.9950   -0.4633   -1.8363 C   0  0  0  0  0  0  0  0  0  0  0  0
   -2.4619    0.0281   -0.6382 C   0  0  0  0  0  0  0  0  0  0  0  0
   -1.0194    0.2609   -0.5290 C   0  0  0  0  0  0  0  0  0  0  0  0
   -0.1261   -0.7394   -0.5949 C   0  0  0  0  0  0  0  0  0  0  0  0
    1.3273   -0.5384   -0.5154 C   0  0  0  0  0  0  0  0  0  0  0  0
    1.9174    0.4097    0.3195 C   0  0  0  0  0  0  0  0  0  0  0  0
    3.3144    0.5460    0.3738 C   0  0  0  0  0  0  0  0  0  0  0  0
    4.1820   -0.2613   -0.3811 C   0  0  0  0  0  0  0  0  0  0  0  0
    5.5689   -0.1011   -0.3404 N   0  0  0  0  0  0  0  0  0  0  0  0
    6.4303   -1.1037   -0.9669 C   0  0  0  0  0  0  0  0  0  0  0  0
    6.1738    0.6508    0.7586 C   0  0  0  0  0  0  0  0  0  0  0  0
    3.5602   -1.2105   -1.2089 C   0  0  0  0  0  0  0  0  0  0  0  0
    2.1652   -1.3577   -1.2704 C   0  0  0  0  0  0  0  0  0  0  0  0
   -3.8111    2.6949    1.5961 H   0  0  0  0  0  0  0  0  0  0  0  0
   -2.4197    2.6790    2.6936 H   0  0  0  0  0  0  0  0  0  0  0  0
   -2.1725    2.7316    0.9391 H   0  0  0  0  0  0  0  0  0  0  0  0
   -3.4210    0.3846    2.4967 H   0  0  0  0  0  0  0  0  0  0  0  0
   -1.7750    0.3936    1.8807 H   0  0  0  0  0  0  0  0  0  0  0  0
   -5.2457    0.3535    1.1494 H   0  0  0  0  0  0  0  0  0  0  0  0
   -6.9199   -1.6086   -0.6832 H   0  0  0  0  0  0  0  0  0  0  0  0
   -7.0314   -0.4401   -2.0231 H   0  0  0  0  0  0  0  0  0  0  0  0
   -7.2289    0.1155   -0.3611 H   0  0  0  0  0  0  0  0  0  0  0  0
   -4.7678   -1.0494   -2.8992 H   0  0  0  0  0  0  0  0  0  0  0  0
   -2.3429   -0.6875   -2.6798 H   0  0  0  0  0  0  0  0  0  0  0  0
   -0.7063    1.2950   -0.4155 H   0  0  0  0  0  0  0  0  0  0  0  0
   -0.4415   -1.7721   -0.7406 H   0  0  0  0  0  0  0  0  0  0  0  0
    1.3184    1.0606    0.9490 H   0  0  0  0  0  0  0  0  0  0  0  0
    3.7071    1.3163    1.0313 H   0  0  0  0  0  0  0  0  0  0  0  0
    6.2999   -2.0833   -0.4940 H   0  0  0  0  0  0  0  0  0  0  0  0
    7.4881   -0.8316   -0.8790 H   0  0  0  0  0  0  0  0  0  0  0  0
    6.2297   -1.1830   -2.0408 H   0  0  0  0  0  0  0  0  0  0  0  0
    5.9289    0.1977    1.7257 H   0  0  0  0  0  0  0  0  0  0  0  0
    5.8478    1.6963    0.7489 H   0  0  0  0  0  0  0  0  0  0  0  0
    7.2660    0.6758    0.6736 H   0  0  0  0  0  0  0  0  0  0  0  0
    4.1491   -1.8711   -1.8389 H   0  0  0  0  0  0  0  0  0  0  0  0
    1.7565   -2.1175   -1.9330 H   0  0  0  0  0  0  0  0  0  0  0  0
  1  2  1  0
  2  3  1  0
  3  4  2  0
  4  5  1  0
  5  6  1  0
  5  7  2  0
  7  8  1  0
  8  9  2  0
  9 10  1  0
 10 11  2  3
 11 12  1  0
 12 13  2  0
 13 14  1  0
 14 15  2  0
 15 16  1  0
 16 17  1  0
 16 18  1  0
 15 19  1  0
 19 20  2  0
  9  3  1  0
 20 12  1  0
  1 21  1  0
  1 22  1  0
  1 23  1  0
  2 24  1  0
  2 25  1  0
  4 26  1  0
  6 27  1  0
  6 28  1  0
  6 29  1  0
  7 30  1  0
  8 31  1  0
 10 32  1  0
 11 33  1  0
 13 34  1  0
 14 35  1  0
 17 36  1  0
 17 37  1  0
 17 38  1  0
 18 39  1  0
 18 40  1  0
 18 41  1  0
 19 42  1  0
 20 43  1  0
M  CHG  1   3   1
M  END
$$$$
