
     RDKit          3D

 32 33  0  0  0  0  0  0  0  0999 V2000
   -4.8003   -1.3491   -0.7493 C   0  0  0  0  0  0  0  0  0  0  0  0
   -4.4548   -0.5037    0.4668 C   0  0  0  0  0  0  0  0  0  0  0  0
   -2.9509   -0.3038    0.6613 C   0  0  0  0  0  0  0  0  0  0  0  0
   -2.3026    0.5249   -0.4518 C   0  0  0  0  0  0  0  0  0  0  0  0
   -0.8861    0.7746   -0.1842 N   0  0  0  0  0  0  0  0  0  0  0  0
   -0.4965    1.8104    0.6054 C   0  0  0  0  0  0  0  0  0  0  0  0
   -1.1737    2.6537    1.1565 O   0  0  0  0  0  0  0  0  0  0  0  0
    1.0213    1.7113    0.7070 C   0  0  0  0  0  0  0  0  0  0  0  0
    1.6861    2.5242    1.3199 O   0  0  0  0  0  0  0  0  0  0  0  0
    1.3724    0.6080   -0.0317 N   0  0  0  0  0  0  0  0  0  0  0  0
    2.7353    0.2161   -0.2058 C   0  0  0  0  0  0  0  0  0  0  0  0
    3.6792    0.4553    0.8080 C   0  0  0  0  0  0  0  0  0  0  0  0
    5.0211    0.0880    0.6576 C   0  0  0  0  0  0  0  0  0  0  0  0
    5.4510   -0.5165   -0.5174 C   0  0  0  0  0  0  0  0  0  0  0  0
    4.5408   -0.7439   -1.5431 C   0  0  0  0  0  0  0  0  0  0  0  0
    3.1985   -0.3758   -1.3897 C   0  0  0  0  0  0  0  0  0  0  0  0
    0.2133    0.0027   -0.5364 C   0  0  0  0  0  0  0  0  0  0  0  0
    0.0774   -1.4565   -1.3567 S   0  0  0  0  0  0  0  0  0  0  0  0
   -5.8781   -1.5384   -0.7808 H   0  0  0  0  0  0  0  0  0  0  0  0
   -4.5261   -0.8446   -1.6803 H   0  0  0  0  0  0  0  0  0  0  0  0
   -4.2877   -2.3156   -0.7148 H   0  0  0  0  0  0  0  0  0  0  0  0
   -4.8576   -0.9973    1.3593 H   0  0  0  0  0  0  0  0  0  0  0  0
   -4.9545    0.4689    0.3900 H   0  0  0  0  0  0  0  0  0  0  0  0
   -2.7925    0.1995    1.6235 H   0  0  0  0  0  0  0  0  0  0  0  0
   -2.4575   -1.2794    0.7441 H   0  0  0  0  0  0  0  0  0  0  0  0
   -2.8104    1.4941   -0.5263 H   0  0  0  0  0  0  0  0  0  0  0  0
   -2.4018    0.0278   -1.4206 H   0  0  0  0  0  0  0  0  0  0  0  0
    3.3914    0.9105    1.7535 H   0  0  0  0  0  0  0  0  0  0  0  0
    5.7268    0.2770    1.4630 H   0  0  0  0  0  0  0  0  0  0  0  0
    6.4933   -0.8003   -0.6371 H   0  0  0  0  0  0  0  0  0  0  0  0
    4.8739   -1.1984   -2.4732 H   0  0  0  0  0  0  0  0  0  0  0  0
    2.5493   -0.5235   -2.2471 H   0  0  0  0  0  0  0  0  0  0  0  0
  1  2  1  0
  2  3  1  0
  3  4  1  0
  4  5  1  0
  5  6  1  0
  6  7  2  0
  6  8  1  0
  8  9  2  0
  8 10  1  0
 10 11  1  0
 11 12  2  0
 12 13  1  0
 13 14  2  0
 14 15  1  0
 15 16  2  0
 10 17  1  0
 17 18  2  0
 17  5  1  0
 16 11  1  0
  1 19  1  0
  1 20  1  0
  1 21  1  0
  2 22  1  0
  2 23  1  0
  3 24  1  0
  3 25  1  0
  4 26  1  0
  4 27  1  0
 12 28  1  0
 13 29  1  0
 14 30  1  0
 15 31  1  0
 16 32  1  0
M  END
$$$$
