
     RDKit          3D

 30 33  0  0  0  0  0  0  0  0999 V2000
    4.9406    0.8210   -1.2539 C   0  0  0  0  0  0  0  0  0  0  0  0
    4.5743    0.0437   -0.0546 C   0  0  0  0  0  0  0  0  0  0  0  0
    5.2324   -0.2837    1.1057 C   0  0  0  0  0  0  0  0  0  0  0  0
    4.3174   -1.0497    1.8669 C   0  0  0  0  0  0  0  0  0  0  0  0
    3.1313   -1.1395    1.1477 C   0  0  0  0  0  0  0  0  0  0  0  0
    1.9400   -1.8273    1.4924 C   0  0  0  0  0  0  0  0  0  0  0  0
    0.7052   -1.4298    1.1513 C   0  0  0  0  0  0  0  0  0  0  0  0
   -0.6921   -2.4460    1.5528 S   0  0  0  0  0  0  0  0  0  0  0  0
   -1.7265   -1.3330    0.7672 C   0  0  0  0  0  0  0  0  0  0  0  0
   -3.0057   -1.2614    0.5430 N   0  0  0  0  0  0  0  0  0  0  0  0
   -3.1026   -0.0493   -0.1226 C   0  0  0  0  0  0  0  0  0  0  0  0
   -4.4692    0.5260   -0.6311 C   0  0  0  0  0  0  0  0  0  0  0  0
   -4.6030    1.7273   -1.2941 C   0  0  0  0  0  0  0  0  0  0  0  0
   -5.9603    1.9988   -1.6386 C   0  0  0  0  0  0  0  0  0  0  0  0
   -6.8072    0.9938   -1.2246 C   0  0  0  0  0  0  0  0  0  0  0  0
   -5.9654   -0.2660   -0.4264 S   0  0  0  0  0  0  0  0  0  0  0  0
   -1.9346    0.6028   -0.2987 N   0  0  0  0  0  0  0  0  0  0  0  0
   -1.0783   -0.2591    0.2797 N   0  0  0  0  0  0  0  0  0  0  0  0
    0.2884   -0.1652    0.4477 C   0  0  0  0  0  0  0  0  0  0  0  0
    0.9210    0.8137    0.1040 O   0  0  0  0  0  0  0  0  0  0  0  0
    3.3238   -0.4856   -0.0442 O   0  0  0  0  0  0  0  0  0  0  0  0
    5.9556    1.2208   -1.1680 H   0  0  0  0  0  0  0  0  0  0  0  0
    4.8968    0.1902   -2.1470 H   0  0  0  0  0  0  0  0  0  0  0  0
    4.2534    1.6618   -1.3899 H   0  0  0  0  0  0  0  0  0  0  0  0
    6.2427   -0.0051    1.3703 H   0  0  0  0  0  0  0  0  0  0  0  0
    4.4949   -1.4817    2.8424 H   0  0  0  0  0  0  0  0  0  0  0  0
    2.0713   -2.7473    2.0571 H   0  0  0  0  0  0  0  0  0  0  0  0
   -3.7681    2.3804   -1.5212 H   0  0  0  0  0  0  0  0  0  0  0  0
   -6.2963    2.8853   -2.1626 H   0  0  0  0  0  0  0  0  0  0  0  0
   -7.8796    0.9353   -1.3506 H   0  0  0  0  0  0  0  0  0  0  0  0
  1  2  1  0
  2  3  2  0
  3  4  1  0
  4  5  2  0
  5  6  1  0
  6  7  2  3
  7  8  1  0
  8  9  1  0
  9 10  2  0
 10 11  1  0
 11 12  1  0
 12 13  2  0
 13 14  1  0
 14 15  2  0
 15 16  1  0
 11 17  2  0
 17 18  1  0
 18 19  1  0
 19 20  2  0
  5 21  1  0
 21  2  1  0
 19  7  1  0
 18  9  1  0
 16 12  1  0
  1 22  1  0
  1 23  1  0
  1 24  1  0
  3 25  1  0
  4 26  1  0
  6 27  1  0
 13 28  1  0
 14 29  1  0
 15 30  1  0
M  END
$$$$
