
     RDKit          3D

 60 63  0  0  0  0  0  0  0  0999 V2000
   -9.0047    0.5992   -1.3125 C   0  0  0  0  0  0  0  0  0  0  0  0
   -8.1185   -0.4284   -0.8685 O   0  0  0  0  0  0  0  0  0  0  0  0
   -6.9597    0.1246   -0.3823 C   0  0  0  0  0  0  0  0  0  0  0  0
   -5.8508    0.1369   -1.2331 C   0  0  0  0  0  0  0  0  0  0  0  0
   -4.6399    0.6510   -0.7796 C   0  0  0  0  0  0  0  0  0  0  0  0
   -4.5496    1.1259    0.5321 C   0  0  0  0  0  0  0  0  0  0  0  0
   -2.9981    1.7716    1.1011 S   0  0  0  0  0  6  0  0  0  0  0  0
   -2.5000    2.6697    0.0826 O   0  0  0  0  0  0  0  0  0  0  0  0
   -3.1560    2.2080    2.4715 O   0  0  0  0  0  0  0  0  0  0  0  0
   -2.0167    0.4044    1.1045 N   0  0  0  0  0  0  0  0  0  0  0  0
   -2.3575   -0.6938    2.0216 C   0  0  0  0  0  0  0  0  0  0  0  0
   -1.0343   -1.4114    2.1535 C   0  0  0  0  0  0  0  0  0  0  0  0
   -0.0770   -0.3520    2.1847 O   0  0  0  0  0  0  0  0  0  0  0  0
   -0.5816    0.6934    1.3289 C   0  0  0  0  0  0  0  0  0  0  0  0
    0.1720    0.7031   -0.0222 C   0  0  0  0  0  0  0  0  0  0  0  0
    1.5990    0.9317    0.1149 N   0  0  0  0  0  0  0  0  0  0  0  0
    2.4894   -0.1027    0.2944 C   0  0  0  0  0  0  0  0  0  0  0  0
    2.2437   -1.2978    0.2070 O   0  0  0  0  0  0  0  0  0  0  0  0
    3.9231    0.3704    0.6260 C   0  0  0  0  0  0  0  0  0  0  0  0
    4.1706    1.5661    0.7048 O   0  0  0  0  0  0  0  0  0  0  0  0
    4.8142   -0.6614    0.7966 N   0  0  0  0  0  0  0  0  0  0  0  0
    6.2287   -0.4445    0.9446 C   0  0  0  0  0  0  0  0  0  0  0  0
    6.9323   -0.5711   -0.3821 C   0  0  0  0  0  0  0  0  0  0  0  0
    7.0396    0.5512   -1.2370 C   0  0  0  0  0  0  0  0  0  0  0  0
    7.6681    0.4518   -2.4823 C   0  0  0  0  0  0  0  0  0  0  0  0
    8.1695   -0.7773   -2.8498 C   0  0  0  0  0  0  0  0  0  0  0  0
    8.0612   -1.8767   -2.0316 C   0  0  0  0  0  0  0  0  0  0  0  0
    7.4485   -1.8097   -0.7976 C   0  0  0  0  0  0  0  0  0  0  0  0
    8.6143   -2.9905   -2.5829 O   0  0  0  0  0  0  0  0  0  0  0  0
    9.0842   -2.4644   -3.8419 C   0  0  0  0  0  0  0  0  0  0  0  0
    8.8059   -1.0599   -4.0183 O   0  0  0  0  0  0  0  0  0  0  0  0
   -5.6544    1.1022    1.3941 C   0  0  0  0  0  0  0  0  0  0  0  0
   -6.8715    0.5890    0.9421 C   0  0  0  0  0  0  0  0  0  0  0  0
   -8.0120    0.4954    1.6943 O   0  0  0  0  0  0  0  0  0  0  0  0
   -7.9480    0.9329    3.0451 C   0  0  0  0  0  0  0  0  0  0  0  0
   -8.5709    1.1492   -2.1555 H   0  0  0  0  0  0  0  0  0  0  0  0
   -9.2703    1.2902   -0.5053 H   0  0  0  0  0  0  0  0  0  0  0  0
   -9.9245    0.1188   -1.6604 H   0  0  0  0  0  0  0  0  0  0  0  0
   -5.9384   -0.2513   -2.2442 H   0  0  0  0  0  0  0  0  0  0  0  0
   -3.7769    0.6754   -1.4413 H   0  0  0  0  0  0  0  0  0  0  0  0
   -2.6693   -0.3050    2.9967 H   0  0  0  0  0  0  0  0  0  0  0  0
   -3.1346   -1.3460    1.6166 H   0  0  0  0  0  0  0  0  0  0  0  0
   -0.8254   -2.0464    1.2853 H   0  0  0  0  0  0  0  0  0  0  0  0
   -0.9633   -2.0132    3.0634 H   0  0  0  0  0  0  0  0  0  0  0  0
   -0.4210    1.6370    1.8620 H   0  0  0  0  0  0  0  0  0  0  0  0
    0.0273   -0.2552   -0.5356 H   0  0  0  0  0  0  0  0  0  0  0  0
   -0.2147    1.4930   -0.6732 H   0  0  0  0  0  0  0  0  0  0  0  0
    1.9552    1.8684    0.2900 H   0  0  0  0  0  0  0  0  0  0  0  0
    4.4650   -1.5932    0.5912 H   0  0  0  0  0  0  0  0  0  0  0  0
    6.4195    0.5415    1.3833 H   0  0  0  0  0  0  0  0  0  0  0  0
    6.6067   -1.1925    1.6497 H   0  0  0  0  0  0  0  0  0  0  0  0
    6.6234    1.5097   -0.9271 H   0  0  0  0  0  0  0  0  0  0  0  0
    7.7541    1.3103   -3.1384 H   0  0  0  0  0  0  0  0  0  0  0  0
    7.3737   -2.6956   -0.1760 H   0  0  0  0  0  0  0  0  0  0  0  0
    8.6046   -3.0215   -4.6554 H   0  0  0  0  0  0  0  0  0  0  0  0
   10.1682   -2.6172   -3.9025 H   0  0  0  0  0  0  0  0  0  0  0  0
   -5.5420    1.4836    2.4039 H   0  0  0  0  0  0  0  0  0  0  0  0
   -7.2258    0.3419    3.6177 H   0  0  0  0  0  0  0  0  0  0  0  0
   -8.9341    0.7788    3.4929 H   0  0  0  0  0  0  0  0  0  0  0  0
   -7.7204    2.0026    3.1028 H   0  0  0  0  0  0  0  0  0  0  0  0
  1  2  1  0
  2  3  1  0
  3  4  2  0
  4  5  1  0
  5  6  2  0
  6  7  1  0
  7  8  2  0
  7  9  2  0
  7 10  1  0
 10 11  1  0
 11 12  1  0
 12 13  1  0
 13 14  1  0
 14 15  1  0
 15 16  1  0
 16 17  1  0
 17 18  2  0
 17 19  1  0
 19 20  2  0
 19 21  1  0
 21 22  1  0
 22 23  1  0
 23 24  2  0
 24 25  1  0
 25 26  2  0
 26 27  1  0
 27 28  2  0
 27 29  1  0
 29 30  1  0
 30 31  1  0
  6 32  1  0
 32 33  2  0
 33 34  1  0
 34 35  1  0
 33  3  1  0
 14 10  1  0
 28 23  1  0
 31 26  1  0
  1 36  1  0
  1 37  1  0
  1 38  1  0
  4 39  1  0
  5 40  1  0
 11 41  1  0
 11 42  1  0
 12 43  1  0
 12 44  1  0
 14 45  1  0
 15 46  1  0
 15 47  1  0
 16 48  1  0
 21 49  1  0
 22 50  1  0
 22 51  1  0
 24 52  1  0
 25 53  1  0
 28 54  1  0
 30 55  1  0
 30 56  1  0
 32 57  1  0
 35 58  1  0
 35 59  1  0
 35 60  1  0
M  END
$$$$
