
     RDKit          3D

 32 33  0  0  0  0  0  0  0  0999 V2000
    3.9755   -1.5881    0.2830 C   0  0  0  0  0  0  0  0  0  0  0  0
    4.2529   -0.3487   -0.5506 C   0  0  0  0  0  0  0  0  0  0  0  0
    3.1371    1.0184   -0.1117 S   0  0  0  0  0  0  0  0  0  0  0  0
    1.6231    0.4853   -0.7690 C   0  0  0  0  0  0  0  0  0  0  0  0
    1.3097   -0.1193   -1.9621 C   0  0  0  0  0  0  0  0  0  0  0  0
   -0.0358   -0.3463   -2.0558 N   0  0  0  0  0  0  0  0  0  0  0  0
   -0.5634    0.1090   -0.9338 C   0  0  0  0  0  0  0  0  0  0  0  0
   -1.9904    0.0832   -0.6229 C   0  0  0  0  0  0  0  0  0  0  0  0
   -2.5014   -0.7946    0.3404 C   0  0  0  0  0  0  0  0  0  0  0  0
   -3.8668   -0.8020    0.6334 C   0  0  0  0  0  0  0  0  0  0  0  0
   -4.7298    0.0606   -0.0416 C   0  0  0  0  0  0  0  0  0  0  0  0
   -4.2315    0.9244   -1.0162 C   0  0  0  0  0  0  0  0  0  0  0  0
   -2.8665    0.9321   -1.3096 C   0  0  0  0  0  0  0  0  0  0  0  0
    0.4211    0.6480   -0.1192 N   0  0  0  0  0  0  0  0  0  0  0  0
    0.1959    1.3193    1.1500 C   0  0  0  0  0  0  0  0  0  0  0  0
    0.4441    0.4206    2.3505 C   0  0  0  0  0  0  0  0  0  0  0  0
    2.9737   -1.9891    0.0989 H   0  0  0  0  0  0  0  0  0  0  0  0
    4.6949   -2.3738    0.0292 H   0  0  0  0  0  0  0  0  0  0  0  0
    4.0761   -1.3818    1.3540 H   0  0  0  0  0  0  0  0  0  0  0  0
    4.1800   -0.5745   -1.6188 H   0  0  0  0  0  0  0  0  0  0  0  0
    5.2773   -0.0111   -0.3622 H   0  0  0  0  0  0  0  0  0  0  0  0
    1.9767   -0.3986   -2.7664 H   0  0  0  0  0  0  0  0  0  0  0  0
   -1.8421   -1.4899    0.8537 H   0  0  0  0  0  0  0  0  0  0  0  0
   -4.2586   -1.4885    1.3795 H   0  0  0  0  0  0  0  0  0  0  0  0
   -5.7936    0.0502    0.1818 H   0  0  0  0  0  0  0  0  0  0  0  0
   -4.9053    1.5858   -1.5545 H   0  0  0  0  0  0  0  0  0  0  0  0
   -2.4850    1.5974   -2.0814 H   0  0  0  0  0  0  0  0  0  0  0  0
    0.8424    2.2024    1.1875 H   0  0  0  0  0  0  0  0  0  0  0  0
   -0.8320    1.6958    1.1678 H   0  0  0  0  0  0  0  0  0  0  0  0
    1.4784    0.0641    2.3807 H   0  0  0  0  0  0  0  0  0  0  0  0
   -0.2060   -0.4588    2.3334 H   0  0  0  0  0  0  0  0  0  0  0  0
    0.2491    0.9684    3.2777 H   0  0  0  0  0  0  0  0  0  0  0  0
  1  2  1  0
  2  3  1  0
  3  4  1  0
  4  5  2  0
  5  6  1  0
  6  7  2  0
  7  8  1  0
  8  9  2  0
  9 10  1  0
 10 11  2  0
 11 12  1  0
 12 13  2  0
  7 14  1  0
 14 15  1  0
 15 16  1  0
 14  4  1  0
 13  8  1  0
  1 17  1  0
  1 18  1  0
  1 19  1  0
  2 20  1  0
  2 21  1  0
  5 22  1  0
  9 23  1  0
 10 24  1  0
 11 25  1  0
 12 26  1  0
 13 27  1  0
 15 28  1  0
 15 29  1  0
 16 30  1  0
 16 31  1  0
 16 32  1  0
M  END
$$$$
