
     RDKit          3D

 48 50  0  0  0  0  0  0  0  0999 V2000
   10.0887    0.5645    0.0083 C   0  0  0  0  0  0  0  0  0  0  0  0
    9.3150   -0.6268    0.0921 O   0  0  0  0  0  0  0  0  0  0  0  0
    7.9562   -0.4888    0.0373 C   0  0  0  0  0  0  0  0  0  0  0  0
    7.2450   -1.6878    0.1166 C   0  0  0  0  0  0  0  0  0  0  0  0
    5.8462   -1.7023    0.0720 C   0  0  0  0  0  0  0  0  0  0  0  0
    5.1359   -0.5068   -0.0525 C   0  0  0  0  0  0  0  0  0  0  0  0
    3.7708   -0.4116   -0.1084 O   0  0  0  0  0  0  0  0  0  0  0  0
    3.0121   -1.6116    0.0199 C   0  0  0  0  0  0  0  0  0  0  0  0
    1.5807   -1.2329   -0.0322 C   0  0  0  0  0  0  0  0  0  0  0  0
    0.8792   -0.0596    0.1029 C   0  0  0  0  0  0  0  0  0  0  0  0
   -0.4791   -0.4309   -0.0516 C   0  0  0  0  0  0  0  0  0  0  0  0
   -1.6530    0.4445   -0.0022 C   0  0  0  0  0  0  0  0  0  0  0  0
   -1.5628    1.6572    0.1576 O   0  0  0  0  0  0  0  0  0  0  0  0
   -2.8523   -0.2193   -0.1649 N   0  0  0  0  0  0  0  0  0  0  0  0
   -4.1322    0.4745   -0.2939 C   0  0  0  0  0  0  0  0  0  0  0  0
   -4.3007    0.9695   -1.7336 C   0  0  0  0  0  0  0  0  0  0  0  0
   -5.2774   -0.4611    0.1334 C   0  0  0  0  0  0  0  0  0  0  0  0
   -6.6213    0.2193    0.1771 C   0  0  0  0  0  0  0  0  0  0  0  0
   -7.6425   -0.1654   -0.6889 C   0  0  0  0  0  0  0  0  0  0  0  0
   -8.8684    0.4905   -0.6160 C   0  0  0  0  0  0  0  0  0  0  0  0
   -9.0440    1.5054    0.3160 C   0  0  0  0  0  0  0  0  0  0  0  0
   -7.9805    1.8227    1.1425 C   0  0  0  0  0  0  0  0  0  0  0  0
   -6.7807    1.2034    1.0939 N   0  0  0  0  0  0  0  0  0  0  0  0
   -0.5874   -1.7559   -0.2693 N   0  0  0  0  0  0  0  0  0  0  0  0
    0.7039   -2.2497   -0.2523 O   0  0  0  0  0  0  0  0  0  0  0  0
    5.8566    0.6966   -0.1310 C   0  0  0  0  0  0  0  0  0  0  0  0
    5.0429    2.2179   -0.2842 Cl  0  0  0  0  0  0  0  0  0  0  0  0
    7.2563    0.7083   -0.0861 C   0  0  0  0  0  0  0  0  0  0  0  0
   11.1443    0.2813    0.0601 H   0  0  0  0  0  0  0  0  0  0  0  0
    9.8799    1.2300    0.8526 H   0  0  0  0  0  0  0  0  0  0  0  0
    9.9267    1.0740   -0.9477 H   0  0  0  0  0  0  0  0  0  0  0  0
    7.7884   -2.6258    0.2137 H   0  0  0  0  0  0  0  0  0  0  0  0
    5.3531   -2.6670    0.1350 H   0  0  0  0  0  0  0  0  0  0  0  0
    3.2180   -2.0954    0.9818 H   0  0  0  0  0  0  0  0  0  0  0  0
    3.2393   -2.2934   -0.8080 H   0  0  0  0  0  0  0  0  0  0  0  0
    1.2794    0.9282    0.2848 H   0  0  0  0  0  0  0  0  0  0  0  0
   -2.7809   -1.2031   -0.4057 H   0  0  0  0  0  0  0  0  0  0  0  0
   -4.1005    1.3495    0.3676 H   0  0  0  0  0  0  0  0  0  0  0  0
   -3.4601    1.6056   -2.0308 H   0  0  0  0  0  0  0  0  0  0  0  0
   -4.3399    0.1298   -2.4364 H   0  0  0  0  0  0  0  0  0  0  0  0
   -5.2152    1.5591   -1.8514 H   0  0  0  0  0  0  0  0  0  0  0  0
   -5.0716   -0.8572    1.1371 H   0  0  0  0  0  0  0  0  0  0  0  0
   -5.3128   -1.3362   -0.5292 H   0  0  0  0  0  0  0  0  0  0  0  0
   -7.4938   -0.9599   -1.4129 H   0  0  0  0  0  0  0  0  0  0  0  0
   -9.6799    0.2113   -1.2821 H   0  0  0  0  0  0  0  0  0  0  0  0
   -9.9858    2.0357    0.3978 H   0  0  0  0  0  0  0  0  0  0  0  0
   -8.0651    2.6072    1.8890 H   0  0  0  0  0  0  0  0  0  0  0  0
    7.7691    1.6622   -0.1491 H   0  0  0  0  0  0  0  0  0  0  0  0
  1  2  1  0
  2  3  1  0
  3  4  2  0
  4  5  1  0
  5  6  2  0
  6  7  1  0
  7  8  1  0
  8  9  1  0
  9 10  2  0
 10 11  1  0
 11 12  1  0
 12 13  2  0
 12 14  1  0
 14 15  1  0
 15 16  1  0
 15 17  1  0
 17 18  1  0
 18 19  2  0
 19 20  1  0
 20 21  2  0
 21 22  1  0
 22 23  2  0
 11 24  2  0
 24 25  1  0
  6 26  1  0
 26 27  1  0
 26 28  2  0
 28  3  1  0
 25  9  1  0
 23 18  1  0
  1 29  1  0
  1 30  1  0
  1 31  1  0
  4 32  1  0
  5 33  1  0
  8 34  1  0
  8 35  1  0
 10 36  1  0
 14 37  1  0
 15 38  1  0
 16 39  1  0
 16 40  1  0
 16 41  1  0
 17 42  1  0
 17 43  1  0
 19 44  1  0
 20 45  1  0
 21 46  1  0
 22 47  1  0
 28 48  1  0
M  END
$$$$
