
     RDKit          3D

 37 39  0  0  0  0  0  0  0  0999 V2000
   -6.1411    2.8830   -0.2008 C   0  0  0  0  0  0  0  0  0  0  0  0
   -4.9886    2.4627   -1.1014 C   0  0  0  0  0  0  0  0  0  0  0  0
   -4.0549    1.5142   -0.4220 C   0  0  0  0  0  0  0  0  0  0  0  0
   -3.7369    1.5370    0.8564 N   0  0  0  0  0  0  0  0  0  0  0  0
   -2.8358    0.5431    1.1828 N   0  0  0  0  0  0  0  0  0  0  0  0
   -2.4962   -0.1825    0.1406 C   0  0  0  0  0  0  0  0  0  0  0  0
   -1.6095   -1.2227    0.2324 N   0  0  0  0  0  0  0  0  0  0  0  0
   -1.1529   -2.0244   -0.7885 C   0  0  0  0  0  0  0  0  0  0  0  0
   -1.4755   -1.9755   -1.9722 O   0  0  0  0  0  0  0  0  0  0  0  0
   -0.1701   -3.0942   -0.2970 C   0  0  0  0  0  0  0  0  0  0  0  0
    0.4718   -2.7932    0.9362 O   0  0  0  0  0  0  0  0  0  0  0  0
    1.5604   -1.9642    0.9087 C   0  0  0  0  0  0  0  0  0  0  0  0
    2.2144   -1.8336    2.1340 C   0  0  0  0  0  0  0  0  0  0  0  0
    3.3320   -1.0056    2.2615 C   0  0  0  0  0  0  0  0  0  0  0  0
    3.8138   -0.2867    1.1591 C   0  0  0  0  0  0  0  0  0  0  0  0
    4.9341    0.5530    1.2646 C   0  0  0  0  0  0  0  0  0  0  0  0
    5.3995    1.2647    0.1577 C   0  0  0  0  0  0  0  0  0  0  0  0
    4.7504    1.1464   -1.0672 C   0  0  0  0  0  0  0  0  0  0  0  0
    3.6351    0.3164   -1.1877 C   0  0  0  0  0  0  0  0  0  0  0  0
    3.1537   -0.4092   -0.0848 C   0  0  0  0  0  0  0  0  0  0  0  0
    2.0292   -1.2495   -0.1959 C   0  0  0  0  0  0  0  0  0  0  0  0
   -3.2540    0.2808   -1.3119 S   0  0  0  0  0  0  0  0  0  0  0  0
   -6.7070    2.0138    0.1542 H   0  0  0  0  0  0  0  0  0  0  0  0
   -5.7792    3.4306    0.6775 H   0  0  0  0  0  0  0  0  0  0  0  0
   -6.8257    3.5401   -0.7466 H   0  0  0  0  0  0  0  0  0  0  0  0
   -5.4032    2.0094   -2.0106 H   0  0  0  0  0  0  0  0  0  0  0  0
   -4.4262    3.3521   -1.4089 H   0  0  0  0  0  0  0  0  0  0  0  0
   -1.2214   -1.3582    1.1590 H   0  0  0  0  0  0  0  0  0  0  0  0
   -0.7629   -4.0010   -0.1300 H   0  0  0  0  0  0  0  0  0  0  0  0
    0.5556   -3.3349   -1.0825 H   0  0  0  0  0  0  0  0  0  0  0  0
    1.8556   -2.3826    3.0016 H   0  0  0  0  0  0  0  0  0  0  0  0
    3.8216   -0.9267    3.2295 H   0  0  0  0  0  0  0  0  0  0  0  0
    5.4545    0.6616    2.2139 H   0  0  0  0  0  0  0  0  0  0  0  0
    6.2677    1.9111    0.2540 H   0  0  0  0  0  0  0  0  0  0  0  0
    5.1102    1.6991   -1.9306 H   0  0  0  0  0  0  0  0  0  0  0  0
    3.1417    0.2419   -2.1554 H   0  0  0  0  0  0  0  0  0  0  0  0
    1.5396   -1.3163   -1.1627 H   0  0  0  0  0  0  0  0  0  0  0  0
  1  2  1  0
  2  3  1  0
  3  4  2  0
  4  5  1  0
  5  6  2  0
  6  7  1  0
  7  8  1  0
  8  9  2  0
  8 10  1  0
 10 11  1  0
 11 12  1  0
 12 13  2  0
 13 14  1  0
 14 15  2  0
 15 16  1  0
 16 17  2  0
 17 18  1  0
 18 19  2  0
 19 20  1  0
 20 21  2  0
  6 22  1  0
 22  3  1  0
 21 12  1  0
 20 15  1  0
  1 23  1  0
  1 24  1  0
  1 25  1  0
  2 26  1  0
  2 27  1  0
  7 28  1  0
 10 29  1  0
 10 30  1  0
 13 31  1  0
 14 32  1  0
 16 33  1  0
 17 34  1  0
 18 35  1  0
 19 36  1  0
 21 37  1  0
M  END
$$$$
