
     RDKit          3D

 42 44  0  0  0  0  0  0  0  0999 V2000
   -5.0893    1.5496    0.4475 C   0  0  0  0  0  0  0  0  0  0  0  0
   -4.0816    1.1710   -0.5981 C   0  0  0  0  0  0  0  0  0  0  0  0
   -4.4714    1.0254   -1.9300 C   0  0  0  0  0  0  0  0  0  0  0  0
   -3.5587    0.6406   -2.9176 C   0  0  0  0  0  0  0  0  0  0  0  0
   -2.2295    0.3912   -2.5379 C   0  0  0  0  0  0  0  0  0  0  0  0
   -1.8061    0.5227   -1.2151 C   0  0  0  0  0  0  0  0  0  0  0  0
   -2.7516    0.9057   -0.2355 C   0  0  0  0  0  0  0  0  0  0  0  0
   -0.4149    0.2004   -1.1833 C   0  0  0  0  0  0  0  0  0  0  0  0
    0.4014    0.2149   -0.0085 C   0  0  0  0  0  0  0  0  0  0  0  0
    1.3393   -0.6986    0.2943 C   0  0  0  0  0  0  0  0  0  0  0  0
    2.1446   -0.6737    1.5193 C   0  0  0  0  0  0  0  0  0  0  0  0
    1.5974   -0.3627    2.7634 C   0  0  0  0  0  0  0  0  0  0  0  0
    2.4031   -0.3835    3.8962 C   0  0  0  0  0  0  0  0  0  0  0  0
    3.7124   -0.7056    3.8042 N   0  0  0  0  0  4  0  0  0  0  0  0
    4.5437   -0.7290    5.0196 C   0  0  0  0  0  0  0  0  0  0  0  0
    4.2598   -1.0337    2.6128 C   0  0  0  0  0  0  0  0  0  0  0  0
    3.4907   -1.0281    1.4545 C   0  0  0  0  0  0  0  0  0  0  0  0
   -0.0042   -0.0717   -2.4789 C   0  0  0  0  0  0  0  0  0  0  0  0
    1.3466   -0.3695   -3.0371 C   0  0  0  0  0  0  0  0  0  0  0  0
   -1.1319   -0.0054   -3.2776 N   0  0  0  0  0  0  0  0  0  0  0  0
   -1.1671   -0.2870   -4.6994 C   0  0  0  0  0  0  0  0  0  0  0  0
   -4.6145    2.1003    1.2664 H   0  0  0  0  0  0  0  0  0  0  0  0
   -5.8642    2.1991    0.0268 H   0  0  0  0  0  0  0  0  0  0  0  0
   -5.5626    0.6503    0.8536 H   0  0  0  0  0  0  0  0  0  0  0  0
   -5.5044    1.2125   -2.2187 H   0  0  0  0  0  0  0  0  0  0  0  0
   -3.8863    0.5406   -3.9475 H   0  0  0  0  0  0  0  0  0  0  0  0
   -2.4445    0.9978    0.8017 H   0  0  0  0  0  0  0  0  0  0  0  0
    0.1939    1.0257    0.6861 H   0  0  0  0  0  0  0  0  0  0  0  0
    1.5351   -1.5191   -0.3935 H   0  0  0  0  0  0  0  0  0  0  0  0
    0.5421   -0.1162    2.8642 H   0  0  0  0  0  0  0  0  0  0  0  0
    2.0075   -0.1501    4.8808 H   0  0  0  0  0  0  0  0  0  0  0  0
    4.1671    0.0159    5.7253 H   0  0  0  0  0  0  0  0  0  0  0  0
    5.5753   -0.4850    4.7531 H   0  0  0  0  0  0  0  0  0  0  0  0
    4.4776   -1.7347    5.4419 H   0  0  0  0  0  0  0  0  0  0  0  0
    5.3125   -1.3018    2.5965 H   0  0  0  0  0  0  0  0  0  0  0  0
    3.9503   -1.2934    0.5038 H   0  0  0  0  0  0  0  0  0  0  0  0
    1.4836   -1.4503   -3.1418 H   0  0  0  0  0  0  0  0  0  0  0  0
    1.4857    0.0969   -4.0177 H   0  0  0  0  0  0  0  0  0  0  0  0
    2.1404    0.0179   -2.3913 H   0  0  0  0  0  0  0  0  0  0  0  0
   -0.9229    0.6347   -5.2328 H   0  0  0  0  0  0  0  0  0  0  0  0
   -0.4433   -1.0718   -4.9320 H   0  0  0  0  0  0  0  0  0  0  0  0
   -2.1608   -0.6422   -4.9810 H   0  0  0  0  0  0  0  0  0  0  0  0
  1  2  1  0
  2  3  2  0
  3  4  1  0
  4  5  2  0
  5  6  1  0
  6  7  2  0
  6  8  1  0
  8  9  1  0
  9 10  2  3
 10 11  1  0
 11 12  2  0
 12 13  1  0
 13 14  2  0
 14 15  1  0
 14 16  1  0
 16 17  2  0
  8 18  2  0
 18 19  1  0
 18 20  1  0
 20 21  1  0
  7  2  1  0
 17 11  1  0
 20  5  1  0
  1 22  1  0
  1 23  1  0
  1 24  1  0
  3 25  1  0
  4 26  1  0
  7 27  1  0
  9 28  1  0
 10 29  1  0
 12 30  1  0
 13 31  1  0
 15 32  1  0
 15 33  1  0
 15 34  1  0
 16 35  1  0
 17 36  1  0
 19 37  1  0
 19 38  1  0
 19 39  1  0
 21 40  1  0
 21 41  1  0
 21 42  1  0
M  CHG  1  14   1
M  END
$$$$
