
     RDKit          3D

 33 34  0  0  0  0  0  0  0  0999 V2000
   -2.0507    3.0430   -0.7143 C   0  0  0  0  0  0  0  0  0  0  0  0
   -2.2641    1.5394   -0.8327 C   0  0  0  0  0  0  0  0  0  0  0  0
   -1.3510    0.7986    0.0520 N   0  0  0  0  0  0  0  0  0  0  0  0
   -1.8516    0.5785    1.4185 C   0  0  0  0  0  0  0  0  0  0  0  0
   -2.7378   -0.6583    1.4975 C   0  0  0  0  0  0  0  0  0  0  0  0
   -0.0962    0.3186   -0.3822 C   0  0  0  0  0  0  0  0  0  0  0  0
    0.4308    0.8259   -1.5962 C   0  0  0  0  0  0  0  0  0  0  0  0
    1.6557    0.4261   -2.1099 C   0  0  0  0  0  0  0  0  0  0  0  0
    2.3922   -0.5132   -1.4043 C   0  0  0  0  0  0  0  0  0  0  0  0
    3.6608   -0.9065   -1.9880 N   0  0  0  0  0  4  0  0  0  0  0  0
    4.5325   -0.0320   -2.0774 O   0  0  0  0  0  0  0  0  0  0  0  0
    3.7712   -2.0781   -2.3726 O   0  0  0  0  0  1  0  0  0  0  0  0
    1.9515   -1.0668   -0.1839 C   0  0  0  0  0  0  0  0  0  0  0  0
    2.7092   -2.0134    0.5549 C   0  0  0  0  0  0  0  0  0  0  0  0
    2.2361   -2.5403    1.7438 C   0  0  0  0  0  0  0  0  0  0  0  0
    1.0108   -2.1058    2.1721 C   0  0  0  0  0  0  0  0  0  0  0  0
    0.2682   -1.2010    1.5014 N   0  0  0  0  0  0  0  0  0  0  0  0
    0.6934   -0.6521    0.3354 C   0  0  0  0  0  0  0  0  0  0  0  0
   -2.2422    3.3896    0.3064 H   0  0  0  0  0  0  0  0  0  0  0  0
   -1.0287    3.3343   -0.9732 H   0  0  0  0  0  0  0  0  0  0  0  0
   -2.7350    3.5739   -1.3835 H   0  0  0  0  0  0  0  0  0  0  0  0
   -2.1822    1.2099   -1.8747 H   0  0  0  0  0  0  0  0  0  0  0  0
   -3.3034    1.3209   -0.5568 H   0  0  0  0  0  0  0  0  0  0  0  0
   -1.0502    0.5671    2.1629 H   0  0  0  0  0  0  0  0  0  0  0  0
   -2.4636    1.4401    1.7172 H   0  0  0  0  0  0  0  0  0  0  0  0
   -3.6471   -0.5268    0.9017 H   0  0  0  0  0  0  0  0  0  0  0  0
   -2.2376   -1.5567    1.1262 H   0  0  0  0  0  0  0  0  0  0  0  0
   -3.0423   -0.8373    2.5335 H   0  0  0  0  0  0  0  0  0  0  0  0
   -0.1044    1.5753   -2.1711 H   0  0  0  0  0  0  0  0  0  0  0  0
    2.0189    0.8500   -3.0431 H   0  0  0  0  0  0  0  0  0  0  0  0
    3.6818   -2.3593    0.2089 H   0  0  0  0  0  0  0  0  0  0  0  0
    2.8060   -3.2675    2.3097 H   0  0  0  0  0  0  0  0  0  0  0  0
    0.5690   -2.4759    3.0924 H   0  0  0  0  0  0  0  0  0  0  0  0
  1  2  1  0
  2  3  1  0
  3  4  1  0
  4  5  1  0
  3  6  1  0
  6  7  2  0
  7  8  1  0
  8  9  2  0
  9 10  1  0
 10 11  2  0
 10 12  1  0
  9 13  1  0
 13 14  2  0
 14 15  1  0
 15 16  2  0
 16 17  1  0
 17 18  2  0
 18  6  1  0
 18 13  1  0
  1 19  1  0
  1 20  1  0
  1 21  1  0
  2 22  1  0
  2 23  1  0
  4 24  1  0
  4 25  1  0
  5 26  1  0
  5 27  1  0
  5 28  1  0
  7 29  1  0
  8 30  1  0
 14 31  1  0
 15 32  1  0
 16 33  1  0
M  CHG  2  10   1  12  -1
M  END
$$$$
