
     RDKit          3D

 53 55  0  0  0  0  0  0  0  0999 V2000
    9.2296   -0.8177    1.7047 C   0  0  0  0  0  0  0  0  0  0  0  0
    8.0415   -1.5262    1.3758 O   0  0  0  0  0  0  0  0  0  0  0  0
    6.9837   -0.7885    0.9214 C   0  0  0  0  0  0  0  0  0  0  0  0
    6.9463    0.6031    0.8001 C   0  0  0  0  0  0  0  0  0  0  0  0
    5.7948    1.2372    0.3210 C   0  0  0  0  0  0  0  0  0  0  0  0
    4.6814    0.4722   -0.0318 C   0  0  0  0  0  0  0  0  0  0  0  0
    3.2125    1.2578   -0.6385 S   0  0  0  0  0  6  0  0  0  0  0  0
    2.8482    0.6077   -1.8782 O   0  0  0  0  0  0  0  0  0  0  0  0
    3.3890    2.6929   -0.5653 O   0  0  0  0  0  0  0  0  0  0  0  0
    2.0634    0.8378    0.5227 N   0  0  0  0  0  0  0  0  0  0  0  0
    2.2308    1.3914    1.8817 C   0  0  0  0  0  0  0  0  0  0  0  0
    1.0422    2.3106    2.0418 C   0  0  0  0  0  0  0  0  0  0  0  0
    0.0174    1.6659    1.2854 O   0  0  0  0  0  0  0  0  0  0  0  0
    0.6737    1.1524    0.1135 C   0  0  0  0  0  0  0  0  0  0  0  0
   -0.0424   -0.1170   -0.3922 C   0  0  0  0  0  0  0  0  0  0  0  0
   -1.3868    0.1392   -0.8790 N   0  0  0  0  0  0  0  0  0  0  0  0
   -2.4924    0.0526   -0.0639 C   0  0  0  0  0  0  0  0  0  0  0  0
   -2.5245   -0.3790    1.0793 O   0  0  0  0  0  0  0  0  0  0  0  0
   -3.7898    0.5590   -0.7344 C   0  0  0  0  0  0  0  0  0  0  0  0
   -3.7631    0.9740   -1.8852 O   0  0  0  0  0  0  0  0  0  0  0  0
   -4.8950    0.4777    0.0775 N   0  0  0  0  0  0  0  0  0  0  0  0
   -6.2259    0.7553   -0.3953 C   0  0  0  0  0  0  0  0  0  0  0  0
   -6.9078   -0.4997   -0.8755 C   0  0  0  0  0  0  0  0  0  0  0  0
   -6.8325   -0.8327   -2.2401 C   0  0  0  0  0  0  0  0  0  0  0  0
   -7.4329   -1.9934   -2.7298 C   0  0  0  0  0  0  0  0  0  0  0  0
   -8.1115   -2.8450   -1.8630 C   0  0  0  0  0  0  0  0  0  0  0  0
   -8.1835   -2.5389   -0.5051 C   0  0  0  0  0  0  0  0  0  0  0  0
   -7.5817   -1.3768   -0.0119 C   0  0  0  0  0  0  0  0  0  0  0  0
   -7.6912   -1.0798    1.6863 Cl  0  0  0  0  0  0  0  0  0  0  0  0
    4.7093   -0.9194    0.0782 C   0  0  0  0  0  0  0  0  0  0  0  0
    5.8617   -1.5426    0.5586 C   0  0  0  0  0  0  0  0  0  0  0  0
    9.9792   -1.5499    2.0193 H   0  0  0  0  0  0  0  0  0  0  0  0
    9.6278   -0.2854    0.8340 H   0  0  0  0  0  0  0  0  0  0  0  0
    9.0597   -0.1337    2.5427 H   0  0  0  0  0  0  0  0  0  0  0  0
    7.7959    1.2228    1.0682 H   0  0  0  0  0  0  0  0  0  0  0  0
    5.7796    2.3211    0.2255 H   0  0  0  0  0  0  0  0  0  0  0  0
    2.1739    0.5548    2.5871 H   0  0  0  0  0  0  0  0  0  0  0  0
    3.1766    1.9122    2.0497 H   0  0  0  0  0  0  0  0  0  0  0  0
    1.2299    3.3005    1.6105 H   0  0  0  0  0  0  0  0  0  0  0  0
    0.7294    2.4251    3.0833 H   0  0  0  0  0  0  0  0  0  0  0  0
    0.6368    1.9428   -0.6463 H   0  0  0  0  0  0  0  0  0  0  0  0
    0.5102   -0.5671   -1.2225 H   0  0  0  0  0  0  0  0  0  0  0  0
   -0.1012   -0.8560    0.4155 H   0  0  0  0  0  0  0  0  0  0  0  0
   -1.5297    0.5691   -1.7895 H   0  0  0  0  0  0  0  0  0  0  0  0
   -4.7646    0.0219    0.9772 H   0  0  0  0  0  0  0  0  0  0  0  0
   -6.7845    1.2283    0.4181 H   0  0  0  0  0  0  0  0  0  0  0  0
   -6.1814    1.4934   -1.2047 H   0  0  0  0  0  0  0  0  0  0  0  0
   -6.2924   -0.1853   -2.9303 H   0  0  0  0  0  0  0  0  0  0  0  0
   -7.3650   -2.2340   -3.7879 H   0  0  0  0  0  0  0  0  0  0  0  0
   -8.5775   -3.7506   -2.2424 H   0  0  0  0  0  0  0  0  0  0  0  0
   -8.7065   -3.2146    0.1672 H   0  0  0  0  0  0  0  0  0  0  0  0
    3.8474   -1.5185   -0.2083 H   0  0  0  0  0  0  0  0  0  0  0  0
    5.8916   -2.6267    0.6473 H   0  0  0  0  0  0  0  0  0  0  0  0
  1  2  1  0
  2  3  1  0
  3  4  2  0
  4  5  1  0
  5  6  2  0
  6  7  1  0
  7  8  2  0
  7  9  2  0
  7 10  1  0
 10 11  1  0
 11 12  1  0
 12 13  1  0
 13 14  1  0
 14 15  1  0
 15 16  1  0
 16 17  1  0
 17 18  2  0
 17 19  1  0
 19 20  2  0
 19 21  1  0
 21 22  1  0
 22 23  1  0
 23 24  2  0
 24 25  1  0
 25 26  2  0
 26 27  1  0
 27 28  2  0
 28 29  1  0
  6 30  1  0
 30 31  2  0
 31  3  1  0
 14 10  1  0
 28 23  1  0
  1 32  1  0
  1 33  1  0
  1 34  1  0
  4 35  1  0
  5 36  1  0
 11 37  1  0
 11 38  1  0
 12 39  1  0
 12 40  1  0
 14 41  1  0
 15 42  1  0
 15 43  1  0
 16 44  1  0
 21 45  1  0
 22 46  1  0
 22 47  1  0
 24 48  1  0
 25 49  1  0
 26 50  1  0
 27 51  1  0
 30 52  1  0
 31 53  1  0
M  END
$$$$
