
     RDKit          3D

 56 61  0  0  0  0  0  0  0  0999 V2000
    0.7679    2.0246   -2.5880 O   0  0  0  0  0  0  0  0  0  0  0  0
    0.5478    2.7051   -1.5974 C   0  0  0  0  0  0  0  0  0  0  0  0
    0.0455    4.0096   -1.6359 N   0  0  0  0  0  0  0  0  0  0  0  0
   -0.1029    4.5352   -0.3609 C   0  0  0  0  0  0  0  0  0  0  0  0
   -0.5730    5.7894   -0.0330 C   0  0  0  0  0  0  0  0  0  0  0  0
   -0.6528    6.1103    1.3238 C   0  0  0  0  0  0  0  0  0  0  0  0
   -0.2663    5.1818    2.3074 C   0  0  0  0  0  0  0  0  0  0  0  0
    0.2099    3.9164    1.9514 C   0  0  0  0  0  0  0  0  0  0  0  0
    0.2877    3.6004    0.6027 C   0  0  0  0  0  0  0  0  0  0  0  0
    0.7456    2.3488   -0.0940 C   0  0  0  0  0  0  0  0  0  0  0  0
    2.1643    1.9424    0.2080 N   0  0  0  0  0  0  0  0  0  0  0  0
    2.1952    0.4369    0.3694 C   0  0  2  0  0  0  0  0  0  0  0  0
    2.7755   -0.2293   -0.8909 C   0  0  0  0  0  0  0  0  0  0  0  0
    2.9991   -1.7163   -0.7170 C   0  0  0  0  0  0  0  0  0  0  0  0
    2.1194   -2.6362   -1.3045 C   0  0  0  0  0  0  0  0  0  0  0  0
    2.2976   -4.0064   -1.1123 C   0  0  0  0  0  0  0  0  0  0  0  0
    3.3585   -4.4700   -0.3371 C   0  0  0  0  0  0  0  0  0  0  0  0
    4.2440   -3.5643    0.2445 C   0  0  0  0  0  0  0  0  0  0  0  0
    4.0667   -2.1930    0.0557 C   0  0  0  0  0  0  0  0  0  0  0  0
    0.7738    0.1148    0.6358 C   0  0  0  0  0  0  0  0  0  0  0  0
   -0.0587    1.2091    0.3705 C   0  0  0  0  0  0  0  0  0  0  0  0
   -1.3522    0.8511    0.6522 C   0  0  0  0  0  0  0  0  0  0  0  0
   -2.4972    1.5203    0.5956 O   0  0  0  0  0  0  0  0  0  0  0  0
   -1.3087   -0.4719    1.0650 N   0  0  0  0  0  0  0  0  0  0  0  0
   -2.4677   -1.2681    1.4470 C   0  0  0  0  0  0  0  0  0  0  0  0
   -3.0182   -2.0479    0.2775 C   0  0  0  0  0  0  0  0  0  0  0  0
   -2.5617   -3.3464    0.0074 C   0  0  0  0  0  0  0  0  0  0  0  0
   -3.0623   -4.0626   -1.0809 C   0  0  0  0  0  0  0  0  0  0  0  0
   -4.0203   -3.4872   -1.9135 C   0  0  0  0  0  0  0  0  0  0  0  0
   -4.4751   -2.1941   -1.6616 C   0  0  0  0  0  0  0  0  0  0  0  0
   -3.9754   -1.4767   -0.5735 C   0  0  0  0  0  0  0  0  0  0  0  0
    0.0031   -0.9184    1.0982 C   0  0  0  0  0  0  0  0  0  0  0  0
    0.3056   -2.1438    1.5079 O   0  0  0  0  0  0  0  0  0  0  0  0
   -0.1569    4.4835   -2.5032 H   0  0  0  0  0  0  0  0  0  0  0  0
   -0.8708    6.5048   -0.7911 H   0  0  0  0  0  0  0  0  0  0  0  0
   -1.0183    7.0894    1.6265 H   0  0  0  0  0  0  0  0  0  0  0  0
   -0.3407    5.4530    3.3589 H   0  0  0  0  0  0  0  0  0  0  0  0
    0.4969    3.1999    2.7155 H   0  0  0  0  0  0  0  0  0  0  0  0
    2.3677    2.3211    1.1313 H   0  0  0  0  0  0  0  0  0  0  0  0
    2.8101    0.2031    1.2468 H   0  0  0  0  0  0  0  0  0  0  0  0
    3.7415    0.2289   -1.1425 H   0  0  0  0  0  0  0  0  0  0  0  0
    2.1286   -0.0604   -1.7604 H   0  0  0  0  0  0  0  0  0  0  0  0
    1.2786   -2.2881   -1.9033 H   0  0  0  0  0  0  0  0  0  0  0  0
    1.6061   -4.7101   -1.5686 H   0  0  0  0  0  0  0  0  0  0  0  0
    3.4984   -5.5380   -0.1918 H   0  0  0  0  0  0  0  0  0  0  0  0
    5.0766   -3.9274    0.8416 H   0  0  0  0  0  0  0  0  0  0  0  0
    4.7696   -1.4989    0.5115 H   0  0  0  0  0  0  0  0  0  0  0  0
   -2.2943    2.4298    0.3122 H   0  0  0  0  0  0  0  0  0  0  0  0
   -2.1708   -1.9382    2.2624 H   0  0  0  0  0  0  0  0  0  0  0  0
   -3.2283   -0.5971    1.8627 H   0  0  0  0  0  0  0  0  0  0  0  0
   -1.8032   -3.8013    0.6416 H   0  0  0  0  0  0  0  0  0  0  0  0
   -2.6996   -5.0669   -1.2817 H   0  0  0  0  0  0  0  0  0  0  0  0
   -4.4067   -4.0432   -2.7632 H   0  0  0  0  0  0  0  0  0  0  0  0
   -5.2141   -1.7403   -2.3162 H   0  0  0  0  0  0  0  0  0  0  0  0
   -4.3281   -0.4626   -0.3959 H   0  0  0  0  0  0  0  0  0  0  0  0
    1.2428   -2.3045    1.2875 H   0  0  0  0  0  0  0  0  0  0  0  0
  1  2  2  0
  2  3  1  0
  3  4  1  0
  4  5  2  0
  5  6  1  0
  6  7  2  0
  7  8  1  0
  8  9  2  0
  9 10  1  0
 10 11  1  0
 11 12  1  0
 12 13  1  0
 13 14  1  0
 14 15  2  0
 15 16  1  0
 16 17  2  0
 17 18  1  0
 18 19  2  0
 12 20  1  0
 20 21  1  0
 21 22  2  0
 22 23  1  0
 22 24  1  0
 24 25  1  0
 25 26  1  0
 26 27  2  0
 27 28  1  0
 28 29  2  0
 29 30  1  0
 30 31  2  0
 24 32  1  0
 32 33  1  0
 10  2  1  0
 19 14  1  0
 32 20  2  0
  9  4  1  0
 21 10  1  0
 31 26  1  0
  3 34  1  0
  5 35  1  0
  6 36  1  0
  7 37  1  0
  8 38  1  0
 11 39  1  0
 12 40  1  1
 13 41  1  0
 13 42  1  0
 15 43  1  0
 16 44  1  0
 17 45  1  0
 18 46  1  0
 19 47  1  0
 23 48  1  0
 25 49  1  0
 25 50  1  0
 27 51  1  0
 28 52  1  0
 29 53  1  0
 30 54  1  0
 31 55  1  0
 33 56  1  0
M  END
$$$$
