
     RDKit          3D

 64 69  0  0  0  0  0  0  0  0999 V2000
   -4.1124    4.6224    3.7518 C   0  0  0  0  0  0  0  0  0  0  0  0
   -4.7235    4.4399    2.4796 O   0  0  0  0  0  0  0  0  0  0  0  0
   -4.5358    3.2289    1.8730 C   0  0  0  0  0  0  0  0  0  0  0  0
   -3.7466    2.1835    2.3520 C   0  0  0  0  0  0  0  0  0  0  0  0
   -3.6415    0.9909    1.6255 C   0  0  0  0  0  0  0  0  0  0  0  0
   -4.3224    0.8282    0.4123 C   0  0  0  0  0  0  0  0  0  0  0  0
   -4.1940   -0.4204   -0.3502 C   0  0  0  0  0  0  0  0  0  0  0  0
   -5.5936   -1.3770   -0.5775 S   0  0  0  0  0  0  0  0  0  0  0  0
   -4.7442   -2.5854   -1.4544 C   0  0  0  0  0  0  0  0  0  0  0  0
   -5.2976   -3.7642   -2.0018 C   0  0  0  0  0  0  0  0  0  0  0  0
   -4.4310   -4.5977   -2.6777 C   0  0  0  0  0  0  0  0  0  0  0  0
   -3.1018   -4.3092   -2.8196 C   0  0  0  0  0  0  0  0  0  0  0  0
   -2.5401   -3.1628   -2.2924 C   0  0  0  0  0  0  0  0  0  0  0  0
   -3.3831   -2.2654   -1.5781 C   0  0  0  0  0  0  0  0  0  0  0  0
   -3.0770   -1.0075   -0.9260 C   0  0  0  0  0  0  0  0  0  0  0  0
   -1.7571   -0.3844   -0.8605 C   0  0  0  0  0  0  0  0  0  0  0  0
   -1.5066    0.8264   -1.5118 C   0  0  0  0  0  0  0  0  0  0  0  0
   -0.2376    1.4067   -1.4446 C   0  0  0  0  0  0  0  0  0  0  0  0
    0.7945    0.7865   -0.7360 C   0  0  0  0  0  0  0  0  0  0  0  0
    1.9838    1.4607   -0.7553 O   0  0  0  0  0  0  0  0  0  0  0  0
    3.0880    0.8561   -0.0750 C   0  0  0  0  0  0  0  0  0  0  0  0
    4.3122    1.7743   -0.2434 C   0  0  0  0  0  0  0  0  0  0  0  0
    5.5782    1.3211    0.3477 N   0  0  0  0  0  0  0  0  0  0  0  0
    6.2157    0.2382   -0.4112 C   0  0  0  0  0  0  0  0  0  0  0  0
    7.2229   -0.5789    0.4099 C   0  0  0  0  0  0  0  0  0  0  0  0
    7.9281    0.2846    1.4462 C   0  0  0  0  0  0  0  0  0  0  0  0
    6.9207    0.9742    2.3705 C   0  0  0  0  0  0  0  0  0  0  0  0
    5.5082    1.0544    1.7792 C   0  0  0  0  0  0  0  0  0  0  0  0
    0.5464   -0.4238   -0.0879 C   0  0  0  0  0  0  0  0  0  0  0  0
   -0.7245   -1.0072   -0.1502 C   0  0  0  0  0  0  0  0  0  0  0  0
   -2.4329   -5.2627   -3.5227 O   0  0  0  0  0  0  0  0  0  0  0  0
   -3.5029   -6.1847   -3.8146 C   0  0  0  0  0  0  0  0  0  0  0  0
   -4.7747   -5.7724   -3.2735 O   0  0  0  0  0  0  0  0  0  0  0  0
   -5.1091    1.8831   -0.0651 C   0  0  0  0  0  0  0  0  0  0  0  0
   -5.2127    3.0723    0.6619 C   0  0  0  0  0  0  0  0  0  0  0  0
   -4.3799    5.6205    4.1117 H   0  0  0  0  0  0  0  0  0  0  0  0
   -3.0207    4.5777    3.6756 H   0  0  0  0  0  0  0  0  0  0  0  0
   -4.4889    3.8951    4.4792 H   0  0  0  0  0  0  0  0  0  0  0  0
   -3.1965    2.2611    3.2834 H   0  0  0  0  0  0  0  0  0  0  0  0
   -3.0206    0.1875    2.0161 H   0  0  0  0  0  0  0  0  0  0  0  0
   -6.3502   -4.0008   -1.8987 H   0  0  0  0  0  0  0  0  0  0  0  0
   -1.4836   -2.9557   -2.4276 H   0  0  0  0  0  0  0  0  0  0  0  0
   -2.2908    1.3282   -2.0733 H   0  0  0  0  0  0  0  0  0  0  0  0
   -0.0532    2.3511   -1.9510 H   0  0  0  0  0  0  0  0  0  0  0  0
    3.2930   -0.1275   -0.5113 H   0  0  0  0  0  0  0  0  0  0  0  0
    2.8483    0.7521    0.9895 H   0  0  0  0  0  0  0  0  0  0  0  0
    4.0638    2.7566    0.1808 H   0  0  0  0  0  0  0  0  0  0  0  0
    4.4630    1.9795   -1.3120 H   0  0  0  0  0  0  0  0  0  0  0  0
    5.4806   -0.4642   -0.8217 H   0  0  0  0  0  0  0  0  0  0  0  0
    6.7343    0.6864   -1.2685 H   0  0  0  0  0  0  0  0  0  0  0  0
    7.9568   -1.0422   -0.2592 H   0  0  0  0  0  0  0  0  0  0  0  0
    6.6991   -1.3961    0.9220 H   0  0  0  0  0  0  0  0  0  0  0  0
    8.5273    1.0470    0.9315 H   0  0  0  0  0  0  0  0  0  0  0  0
    8.6278   -0.3170    2.0371 H   0  0  0  0  0  0  0  0  0  0  0  0
    7.2896    1.9813    2.6028 H   0  0  0  0  0  0  0  0  0  0  0  0
    6.8695    0.4355    3.3247 H   0  0  0  0  0  0  0  0  0  0  0  0
    4.9675    0.1208    1.9784 H   0  0  0  0  0  0  0  0  0  0  0  0
    4.9671    1.8533    2.3004 H   0  0  0  0  0  0  0  0  0  0  0  0
    1.3157   -0.9411    0.4751 H   0  0  0  0  0  0  0  0  0  0  0  0
   -0.9023   -1.9496    0.3636 H   0  0  0  0  0  0  0  0  0  0  0  0
   -3.5982   -6.2787   -4.9026 H   0  0  0  0  0  0  0  0  0  0  0  0
   -3.2451   -7.1650   -3.3973 H   0  0  0  0  0  0  0  0  0  0  0  0
   -5.6423    1.7915   -1.0085 H   0  0  0  0  0  0  0  0  0  0  0  0
   -5.8269    3.8841    0.2797 H   0  0  0  0  0  0  0  0  0  0  0  0
  1  2  1  0
  2  3  1  0
  3  4  2  0
  4  5  1  0
  5  6  2  0
  6  7  1  0
  7  8  1  0
  8  9  1  0
  9 10  2  0
 10 11  1  0
 11 12  2  0
 12 13  1  0
 13 14  2  0
 14 15  1  0
 15 16  1  0
 16 17  2  0
 17 18  1  0
 18 19  2  0
 19 20  1  0
 20 21  1  0
 21 22  1  0
 22 23  1  0
 23 24  1  0
 24 25  1  0
 25 26  1  0
 26 27  1  0
 27 28  1  0
 19 29  1  0
 29 30  2  0
 12 31  1  0
 31 32  1  0
 32 33  1  0
  6 34  1  0
 34 35  2  0
 35  3  1  0
 15  7  2  0
 30 16  1  0
 14  9  1  0
 28 23  1  0
 33 11  1  0
  1 36  1  0
  1 37  1  0
  1 38  1  0
  4 39  1  0
  5 40  1  0
 10 41  1  0
 13 42  1  0
 17 43  1  0
 18 44  1  0
 21 45  1  0
 21 46  1  0
 22 47  1  0
 22 48  1  0
 24 49  1  0
 24 50  1  0
 25 51  1  0
 25 52  1  0
 26 53  1  0
 26 54  1  0
 27 55  1  0
 27 56  1  0
 28 57  1  0
 28 58  1  0
 29 59  1  0
 30 60  1  0
 32 61  1  0
 32 62  1  0
 34 63  1  0
 35 64  1  0
M  END
$$$$
