
     RDKit          3D

 37 39  0  0  0  0  0  0  0  0999 V2000
    2.2274    2.2596    3.0939 C   0  0  0  0  0  0  0  0  0  0  0  0
    2.4650    1.0681    3.8296 O   0  0  0  0  0  0  0  0  0  0  0  0
    2.1266   -0.1154    3.2300 C   0  0  0  0  0  0  0  0  0  0  0  0
    2.4598   -1.2497    3.9691 C   0  0  0  0  0  0  0  0  0  0  0  0
    2.1962   -2.5369    3.4939 C   0  0  0  0  0  0  0  0  0  0  0  0
    1.5726   -2.6496    2.2477 C   0  0  0  0  0  0  0  0  0  0  0  0
    1.2197   -3.7765    1.5417 N   0  0  0  0  0  0  0  0  0  0  0  0
    0.6376   -3.4265    0.3525 C   0  0  0  0  0  0  0  0  0  0  0  0
    0.5834   -2.0506    0.2946 C   0  0  0  0  0  0  0  0  0  0  0  0
    0.0102   -1.3555   -0.8137 C   0  0  0  0  0  0  0  0  0  0  0  0
   -0.6823   -0.2068   -0.7332 C   0  0  0  0  0  0  0  0  0  0  0  0
   -1.2818    0.4762   -1.8852 C   0  0  0  0  0  0  0  0  0  0  0  0
   -1.9246   -0.2158   -2.9109 C   0  0  0  0  0  0  0  0  0  0  0  0
   -2.5026    0.4873   -3.9623 C   0  0  0  0  0  0  0  0  0  0  0  0
   -2.4508    1.8372   -3.9987 N   0  0  0  0  0  4  0  0  0  0  0  0
   -3.0782    2.5603   -5.1181 C   0  0  0  0  0  0  0  0  0  0  0  0
   -1.8543    2.5314   -3.0044 C   0  0  0  0  0  0  0  0  0  0  0  0
   -1.2652    1.8691   -1.9327 C   0  0  0  0  0  0  0  0  0  0  0  0
    1.1997   -1.5419    1.4824 C   0  0  0  0  0  0  0  0  0  0  0  0
    1.4981   -0.2521    1.9857 C   0  0  0  0  0  0  0  0  0  0  0  0
    1.1569    2.4051    2.9152 H   0  0  0  0  0  0  0  0  0  0  0  0
    2.5815    3.1017    3.6963 H   0  0  0  0  0  0  0  0  0  0  0  0
    2.7889    2.2632    2.1538 H   0  0  0  0  0  0  0  0  0  0  0  0
    2.9465   -1.1321    4.9357 H   0  0  0  0  0  0  0  0  0  0  0  0
    2.4742   -3.4098    4.0759 H   0  0  0  0  0  0  0  0  0  0  0  0
    1.3809   -4.7231    1.8590 H   0  0  0  0  0  0  0  0  0  0  0  0
    0.3005   -4.1919   -0.3339 H   0  0  0  0  0  0  0  0  0  0  0  0
    0.1396   -1.8376   -1.7805 H   0  0  0  0  0  0  0  0  0  0  0  0
   -0.8336    0.2684    0.2341 H   0  0  0  0  0  0  0  0  0  0  0  0
   -1.9945   -1.3018   -2.8953 H   0  0  0  0  0  0  0  0  0  0  0  0
   -3.0142   -0.0214   -4.7747 H   0  0  0  0  0  0  0  0  0  0  0  0
   -2.5375    3.4948   -5.2890 H   0  0  0  0  0  0  0  0  0  0  0  0
   -3.0251    1.9423   -6.0182 H   0  0  0  0  0  0  0  0  0  0  0  0
   -4.1167    2.7559   -4.8400 H   0  0  0  0  0  0  0  0  0  0  0  0
   -1.8562    3.6158   -3.0729 H   0  0  0  0  0  0  0  0  0  0  0  0
   -0.7890    2.4469   -1.1424 H   0  0  0  0  0  0  0  0  0  0  0  0
    1.2415    0.6116    1.3881 H   0  0  0  0  0  0  0  0  0  0  0  0
  1  2  1  0
  2  3  1  0
  3  4  2  0
  4  5  1  0
  5  6  2  0
  6  7  1  0
  7  8  1  0
  8  9  2  0
  9 10  1  0
 10 11  2  3
 11 12  1  0
 12 13  2  0
 13 14  1  0
 14 15  2  0
 15 16  1  0
 15 17  1  0
 17 18  2  0
  9 19  1  0
 19 20  2  0
 20  3  1  0
 19  6  1  0
 18 12  1  0
  1 21  1  0
  1 22  1  0
  1 23  1  0
  4 24  1  0
  5 25  1  0
  7 26  1  0
  8 27  1  0
 10 28  1  0
 11 29  1  0
 13 30  1  0
 14 31  1  0
 16 32  1  0
 16 33  1  0
 16 34  1  0
 17 35  1  0
 18 36  1  0
 20 37  1  0
M  CHG  1  15   1
M  END
$$$$
