
     RDKit          3D

 60 65  0  0  0  0  0  0  0  0999 V2000
    1.8812   -3.4752   -2.4604 O   0  0  0  0  0  0  0  0  0  0  0  0
    2.2807   -2.4498   -1.9210 C   0  0  0  0  0  0  0  0  0  0  0  0
    1.4544   -1.6751   -1.1143 N   0  0  0  0  0  0  0  0  0  0  0  0
    1.8525   -0.5003   -0.4857 C   0  0  0  0  0  0  0  0  0  0  0  0
    0.8039    0.2182    0.3539 C   0  0  0  0  0  0  0  0  0  0  0  0
   -0.3717    0.7073   -0.5046 C   0  0  0  0  0  0  0  0  0  0  0  0
   -1.6640   -0.0439   -0.2021 C   0  0  0  0  0  0  0  0  0  0  0  0
   -2.0172    0.1118    1.2314 N   0  0  0  0  0  0  0  0  0  0  0  0
   -3.4712   -0.6544    1.7192 S   0  0  0  0  0  6  0  0  0  0  0  0
   -3.7177   -0.3166    3.1050 O   0  0  0  0  0  0  0  0  0  0  0  0
   -3.3813   -2.0321    1.2802 O   0  0  0  0  0  0  0  0  0  0  0  0
   -4.7003    0.1785    0.7511 C   0  0  0  0  0  0  0  0  0  0  0  0
   -4.9518    1.5335    0.9987 C   0  0  0  0  0  0  0  0  0  0  0  0
   -5.9191    2.2003    0.2474 C   0  0  0  0  0  0  0  0  0  0  0  0
   -6.6295    1.5114   -0.7356 C   0  0  0  0  0  0  0  0  0  0  0  0
   -6.3575    0.1606   -0.9894 C   0  0  0  0  0  0  0  0  0  0  0  0
   -5.4050   -0.5174   -0.2340 C   0  0  0  0  0  0  0  0  0  0  0  0
   -6.9957   -0.5638   -1.9632 O   0  0  0  0  0  0  0  0  0  0  0  0
   -7.6930    0.2889   -2.8793 C   0  0  0  0  0  0  0  0  0  0  0  0
   -8.4708    1.3594   -2.1321 C   0  0  0  0  0  0  0  0  0  0  0  0
   -7.5783    2.2256   -1.4205 O   0  0  0  0  0  0  0  0  0  0  0  0
   -0.8907   -0.0665    2.1923 C   0  0  0  0  0  0  0  0  0  0  0  0
    0.3482   -0.6504    1.5286 C   0  0  0  0  0  0  0  0  0  0  0  0
    3.0495    0.0115   -0.5838 N   0  0  0  0  0  0  0  0  0  0  0  0
    3.8785   -0.7308   -1.3591 C   0  0  0  0  0  0  0  0  0  0  0  0
    3.6028   -1.8976   -2.0297 C   0  0  0  0  0  0  0  0  0  0  0  0
    4.6971   -2.3297   -2.7126 N   0  0  0  0  0  0  0  0  0  0  0  0
    5.6768   -1.4552   -2.4845 N   0  0  0  0  0  0  0  0  0  0  0  0
    5.1922   -0.5004   -1.6519 N   0  0  0  0  0  0  0  0  0  0  0  0
    6.0214    0.6092   -1.2333 C   0  0  0  0  0  0  0  0  0  0  0  0
    6.6183    0.3708    0.1306 C   0  0  0  0  0  0  0  0  0  0  0  0
    6.0152    0.9118    1.2796 C   0  0  0  0  0  0  0  0  0  0  0  0
    6.5606    0.6830    2.5453 C   0  0  0  0  0  0  0  0  0  0  0  0
    7.7113   -0.0930    2.6761 C   0  0  0  0  0  0  0  0  0  0  0  0
    8.3042   -0.6368    1.5422 C   0  0  0  0  0  0  0  0  0  0  0  0
    9.4083   -1.3860    1.6696 F   0  0  0  0  0  0  0  0  0  0  0  0
    7.7703   -0.4162    0.2766 C   0  0  0  0  0  0  0  0  0  0  0  0
    0.5234   -2.0480   -1.0029 H   0  0  0  0  0  0  0  0  0  0  0  0
    1.2957    1.1109    0.7673 H   0  0  0  0  0  0  0  0  0  0  0  0
   -0.1457    0.6369   -1.5754 H   0  0  0  0  0  0  0  0  0  0  0  0
   -0.5338    1.7739   -0.2961 H   0  0  0  0  0  0  0  0  0  0  0  0
   -1.5613   -1.1036   -0.4613 H   0  0  0  0  0  0  0  0  0  0  0  0
   -2.4561    0.3818   -0.8266 H   0  0  0  0  0  0  0  0  0  0  0  0
   -4.4049    2.0648    1.7749 H   0  0  0  0  0  0  0  0  0  0  0  0
   -6.1310    3.2496    0.4367 H   0  0  0  0  0  0  0  0  0  0  0  0
   -5.2162   -1.5711   -0.4238 H   0  0  0  0  0  0  0  0  0  0  0  0
   -8.3749   -0.3378   -3.4619 H   0  0  0  0  0  0  0  0  0  0  0  0
   -6.9617    0.7306   -3.5676 H   0  0  0  0  0  0  0  0  0  0  0  0
   -9.1758    0.9187   -1.4158 H   0  0  0  0  0  0  0  0  0  0  0  0
   -9.0395    1.9755   -2.8359 H   0  0  0  0  0  0  0  0  0  0  0  0
   -0.6636    0.9168    2.6203 H   0  0  0  0  0  0  0  0  0  0  0  0
   -1.1740   -0.7172    3.0263 H   0  0  0  0  0  0  0  0  0  0  0  0
    1.1600   -0.7286    2.2625 H   0  0  0  0  0  0  0  0  0  0  0  0
    0.1343   -1.6772    1.2076 H   0  0  0  0  0  0  0  0  0  0  0  0
    6.8095    0.7523   -1.9816 H   0  0  0  0  0  0  0  0  0  0  0  0
    5.4040    1.5143   -1.2428 H   0  0  0  0  0  0  0  0  0  0  0  0
    5.1090    1.5106    1.1961 H   0  0  0  0  0  0  0  0  0  0  0  0
    6.0860    1.1071    3.4275 H   0  0  0  0  0  0  0  0  0  0  0  0
    8.1466   -0.2816    3.6519 H   0  0  0  0  0  0  0  0  0  0  0  0
    8.2573   -0.8692   -0.5843 H   0  0  0  0  0  0  0  0  0  0  0  0
  1  2  2  0
  2  3  1  0
  3  4  1  0
  4  5  1  0
  5  6  1  0
  6  7  1  0
  7  8  1  0
  8  9  1  0
  9 10  2  0
  9 11  2  0
  9 12  1  0
 12 13  2  0
 13 14  1  0
 14 15  2  0
 15 16  1  0
 16 17  2  0
 16 18  1  0
 18 19  1  0
 19 20  1  0
 20 21  1  0
  8 22  1  0
 22 23  1  0
  4 24  2  0
 24 25  1  0
 25 26  2  0
 26 27  1  0
 27 28  2  0
 28 29  1  0
 29 30  1  0
 30 31  1  0
 31 32  2  0
 32 33  1  0
 33 34  2  0
 34 35  1  0
 35 36  1  0
 35 37  2  0
 26  2  1  0
 37 31  1  0
 23  5  1  0
 29 25  1  0
 17 12  1  0
 21 15  1  0
  3 38  1  0
  5 39  1  0
  6 40  1  0
  6 41  1  0
  7 42  1  0
  7 43  1  0
 13 44  1  0
 14 45  1  0
 17 46  1  0
 19 47  1  0
 19 48  1  0
 20 49  1  0
 20 50  1  0
 22 51  1  0
 22 52  1  0
 23 53  1  0
 23 54  1  0
 30 55  1  0
 30 56  1  0
 32 57  1  0
 33 58  1  0
 34 59  1  0
 37 60  1  0
M  END
$$$$
