
     RDKit          3D

 56 58  0  0  0  0  0  0  0  0999 V2000
    7.0458   -0.7691    1.5711 C   0  0  0  0  0  0  0  0  0  0  0  0
    5.6630   -1.0982    1.5811 O   0  0  0  0  0  0  0  0  0  0  0  0
    5.0090   -1.0862    0.3796 C   0  0  0  0  0  0  0  0  0  0  0  0
    5.5688   -0.7435   -0.8494 C   0  0  0  0  0  0  0  0  0  0  0  0
    4.7924   -0.7781   -2.0135 C   0  0  0  0  0  0  0  0  0  0  0  0
    3.4484   -1.1523   -1.9533 C   0  0  0  0  0  0  0  0  0  0  0  0
    2.6006   -1.2205   -3.0356 O   0  0  0  0  0  0  0  0  0  0  0  0
    3.1422   -0.8869   -4.3066 C   0  0  0  0  0  0  0  0  0  0  0  0
    2.8747   -1.4915   -0.7104 C   0  0  0  0  0  0  0  0  0  0  0  0
    1.5085   -1.8476   -0.7176 N   0  0  0  0  0  0  0  0  0  0  0  0
    0.6775   -2.1088    0.3509 C   0  0  0  0  0  0  0  0  0  0  0  0
    1.0171   -2.1582    1.5321 O   0  0  0  0  0  0  0  0  0  0  0  0
   -0.7550   -2.4605   -0.0344 C   0  0  0  0  0  0  0  0  0  0  0  0
   -1.3899   -1.5854   -1.4990 S   0  0  0  0  0  0  0  0  0  0  0  0
   -1.5692    0.0131   -0.8040 C   0  0  0  0  0  0  0  0  0  0  0  0
   -0.5004    0.5510   -0.3247 N   0  0  0  0  0  0  0  0  0  0  0  0
   -0.5830    1.8215    0.2442 C   0  0  0  0  0  0  0  0  0  0  0  0
    0.5785    2.4169    0.7395 C   0  0  0  0  0  0  0  0  0  0  0  0
    0.5308    3.6856    1.3229 C   0  0  0  0  0  0  0  0  0  0  0  0
   -0.6836    4.3658    1.4194 C   0  0  0  0  0  0  0  0  0  0  0  0
   -1.8500    3.7774    0.9315 C   0  0  0  0  0  0  0  0  0  0  0  0
   -1.7879    2.5080    0.3458 C   0  0  0  0  0  0  0  0  0  0  0  0
   -2.9933    1.8440   -0.1769 C   0  0  0  0  0  0  0  0  0  0  0  0
   -4.0946    2.3672   -0.0025 O   0  0  0  0  0  0  0  0  0  0  0  0
   -2.8137    0.6175   -0.8166 N   0  0  0  0  0  0  0  0  0  0  0  0
   -4.0253   -0.0085   -1.3697 C   0  0  0  0  0  0  0  0  0  0  0  0
   -4.7690   -0.8713   -0.3420 C   0  0  0  0  0  0  0  0  0  0  0  0
   -5.2245   -0.1149    0.8089 N   0  0  0  0  0  0  0  0  0  0  0  0
   -5.7886   -0.7358    1.8950 C   0  0  0  0  0  0  0  0  0  0  0  0
   -6.2449    0.2064    2.9756 C   0  0  0  0  0  0  0  0  0  0  0  0
   -5.9269   -1.9510    1.9803 O   0  0  0  0  0  0  0  0  0  0  0  0
    3.6615   -1.4569    0.4432 C   0  0  0  0  0  0  0  0  0  0  0  0
    7.2003    0.2667    1.2538 H   0  0  0  0  0  0  0  0  0  0  0  0
    7.6148   -1.4644    0.9450 H   0  0  0  0  0  0  0  0  0  0  0  0
    7.4197   -0.8636    2.5950 H   0  0  0  0  0  0  0  0  0  0  0  0
    6.6078   -0.4446   -0.9394 H   0  0  0  0  0  0  0  0  0  0  0  0
    5.2704   -0.5064   -2.9483 H   0  0  0  0  0  0  0  0  0  0  0  0
    3.9463   -1.5753   -4.5860 H   0  0  0  0  0  0  0  0  0  0  0  0
    3.4834    0.1538   -4.3295 H   0  0  0  0  0  0  0  0  0  0  0  0
    2.3432   -0.9907   -5.0478 H   0  0  0  0  0  0  0  0  0  0  0  0
    1.0682   -1.7677   -1.6308 H   0  0  0  0  0  0  0  0  0  0  0  0
   -0.7901   -3.5363   -0.2348 H   0  0  0  0  0  0  0  0  0  0  0  0
   -1.4128   -2.2494    0.8154 H   0  0  0  0  0  0  0  0  0  0  0  0
    1.5242    1.8823    0.6747 H   0  0  0  0  0  0  0  0  0  0  0  0
    1.4423    4.1369    1.7079 H   0  0  0  0  0  0  0  0  0  0  0  0
   -0.7206    5.3507    1.8789 H   0  0  0  0  0  0  0  0  0  0  0  0
   -2.7983    4.3044    1.0093 H   0  0  0  0  0  0  0  0  0  0  0  0
   -4.6963    0.7826   -1.7280 H   0  0  0  0  0  0  0  0  0  0  0  0
   -3.7742   -0.6100   -2.2482 H   0  0  0  0  0  0  0  0  0  0  0  0
   -5.6523   -1.3219   -0.8086 H   0  0  0  0  0  0  0  0  0  0  0  0
   -4.1346   -1.6879    0.0208 H   0  0  0  0  0  0  0  0  0  0  0  0
   -5.2389    0.9039    0.7481 H   0  0  0  0  0  0  0  0  0  0  0  0
   -7.3248    0.3538    2.8922 H   0  0  0  0  0  0  0  0  0  0  0  0
   -5.7426    1.1754    2.8998 H   0  0  0  0  0  0  0  0  0  0  0  0
   -6.0051   -0.2252    3.9515 H   0  0  0  0  0  0  0  0  0  0  0  0
    3.2508   -1.7162    1.4144 H   0  0  0  0  0  0  0  0  0  0  0  0
  1  2  1  0
  2  3  1  0
  3  4  2  0
  4  5  1  0
  5  6  2  0
  6  7  1  0
  7  8  1  0
  6  9  1  0
  9 10  1  0
 10 11  1  0
 11 12  2  0
 11 13  1  0
 13 14  1  0
 14 15  1  0
 15 16  2  0
 16 17  1  0
 17 18  2  0
 18 19  1  0
 19 20  2  0
 20 21  1  0
 21 22  2  0
 22 23  1  0
 23 24  2  0
 23 25  1  0
 25 26  1  0
 26 27  1  0
 27 28  1  0
 28 29  1  0
 29 30  1  0
 29 31  2  0
  9 32  2  0
 32  3  1  0
 25 15  1  0
 22 17  1  0
  1 33  1  0
  1 34  1  0
  1 35  1  0
  4 36  1  0
  5 37  1  0
  8 38  1  0
  8 39  1  0
  8 40  1  0
 10 41  1  0
 13 42  1  0
 13 43  1  0
 18 44  1  0
 19 45  1  0
 20 46  1  0
 21 47  1  0
 26 48  1  0
 26 49  1  0
 27 50  1  0
 27 51  1  0
 28 52  1  0
 30 53  1  0
 30 54  1  0
 30 55  1  0
 32 56  1  0
M  END
$$$$
