
     RDKit          3D

 47 49  0  0  0  0  0  0  0  0999 V2000
    6.4661    2.5627    0.7484 C   0  0  0  0  0  0  0  0  0  0  0  0
    6.9868    1.1375    0.6434 C   0  0  0  0  0  0  0  0  0  0  0  0
    5.8661    0.1440    0.4697 C   0  0  0  0  0  0  0  0  0  0  0  0
    5.2579   -0.4436    1.5864 C   0  0  0  0  0  0  0  0  0  0  0  0
    4.2113   -1.3543    1.4234 C   0  0  0  0  0  0  0  0  0  0  0  0
    3.7477   -1.6775    0.1468 C   0  0  0  0  0  0  0  0  0  0  0  0
    2.6870   -2.5775   -0.0128 N   0  0  0  0  0  0  0  0  0  0  0  0
    1.4842   -2.1187   -0.0567 C   0  0  0  0  0  0  0  0  0  0  0  0
    1.0872   -0.8241    0.0370 N   0  0  0  0  0  0  0  0  0  0  0  0
   -0.2506   -0.5578   -0.0279 C   0  0  0  0  0  0  0  0  0  0  0  0
   -0.7181    0.5645    0.0696 O   0  0  0  0  0  0  0  0  0  0  0  0
   -1.0131   -1.8281   -0.2153 C   0  0  0  0  0  0  0  0  0  0  0  0
   -2.3344   -2.0026   -0.3640 C   0  0  0  0  0  0  0  0  0  0  0  0
   -3.3760   -0.9670   -0.3736 C   0  0  0  0  0  0  0  0  0  0  0  0
   -3.5719   -0.1139    0.7211 C   0  0  0  0  0  0  0  0  0  0  0  0
   -4.5910    0.8369    0.6944 C   0  0  0  0  0  0  0  0  0  0  0  0
   -4.8737    1.7387    1.6908 O   0  0  0  0  0  0  0  0  0  0  0  0
   -3.8826    1.8903    2.7016 C   0  0  0  0  0  0  0  0  0  0  0  0
   -5.4365    0.9006   -0.4222 C   0  0  0  0  0  0  0  0  0  0  0  0
   -6.4493    1.8306   -0.4294 O   0  0  0  0  0  0  0  0  0  0  0  0
   -5.2700    0.0495   -1.5201 C   0  0  0  0  0  0  0  0  0  0  0  0
   -6.1574    0.2048   -2.5513 O   0  0  0  0  0  0  0  0  0  0  0  0
   -5.9623   -0.5894   -3.7118 C   0  0  0  0  0  0  0  0  0  0  0  0
   -4.2333   -0.8868   -1.4840 C   0  0  0  0  0  0  0  0  0  0  0  0
    0.1015   -3.1609   -0.2537 S   0  0  0  0  0  0  0  0  0  0  0  0
    4.3614   -1.1047   -0.9688 C   0  0  0  0  0  0  0  0  0  0  0  0
    5.4081   -0.1934   -0.8104 C   0  0  0  0  0  0  0  0  0  0  0  0
    5.9139    2.8515   -0.1524 H   0  0  0  0  0  0  0  0  0  0  0  0
    5.7939    2.6779    1.6056 H   0  0  0  0  0  0  0  0  0  0  0  0
    7.2990    3.2616    0.8742 H   0  0  0  0  0  0  0  0  0  0  0  0
    7.6840    1.0584   -0.1996 H   0  0  0  0  0  0  0  0  0  0  0  0
    7.5663    0.8875    1.5405 H   0  0  0  0  0  0  0  0  0  0  0  0
    5.6009   -0.2020    2.5901 H   0  0  0  0  0  0  0  0  0  0  0  0
    3.7577   -1.8171    2.2957 H   0  0  0  0  0  0  0  0  0  0  0  0
    1.7424   -0.0687    0.1607 H   0  0  0  0  0  0  0  0  0  0  0  0
   -2.7223   -3.0083   -0.5230 H   0  0  0  0  0  0  0  0  0  0  0  0
   -2.9174   -0.2056    1.5813 H   0  0  0  0  0  0  0  0  0  0  0  0
   -3.8255    0.9952    3.3292 H   0  0  0  0  0  0  0  0  0  0  0  0
   -2.9060    2.1360    2.2707 H   0  0  0  0  0  0  0  0  0  0  0  0
   -4.1840    2.7256    3.3409 H   0  0  0  0  0  0  0  0  0  0  0  0
   -6.3657    2.3032    0.4197 H   0  0  0  0  0  0  0  0  0  0  0  0
   -4.9842   -0.3961   -4.1649 H   0  0  0  0  0  0  0  0  0  0  0  0
   -6.7278   -0.3094   -4.4420 H   0  0  0  0  0  0  0  0  0  0  0  0
   -6.0911   -1.6533   -3.4871 H   0  0  0  0  0  0  0  0  0  0  0  0
   -4.0732   -1.5693   -2.3127 H   0  0  0  0  0  0  0  0  0  0  0  0
    4.0250   -1.3720   -1.9671 H   0  0  0  0  0  0  0  0  0  0  0  0
    5.8690    0.2453   -1.6928 H   0  0  0  0  0  0  0  0  0  0  0  0
  1  2  1  0
  2  3  1  0
  3  4  2  0
  4  5  1  0
  5  6  2  0
  6  7  1  0
  7  8  2  3
  8  9  1  0
  9 10  1  0
 10 11  2  0
 10 12  1  0
 12 13  2  3
 13 14  1  0
 14 15  2  0
 15 16  1  0
 16 17  1  0
 17 18  1  0
 16 19  2  0
 19 20  1  0
 19 21  1  0
 21 22  1  0
 22 23  1  0
 21 24  2  0
 12 25  1  0
  6 26  1  0
 26 27  2  0
 27  3  1  0
 25  8  1  0
 24 14  1  0
  1 28  1  0
  1 29  1  0
  1 30  1  0
  2 31  1  0
  2 32  1  0
  4 33  1  0
  5 34  1  0
  9 35  1  0
 13 36  1  0
 15 37  1  0
 18 38  1  0
 18 39  1  0
 18 40  1  0
 20 41  1  0
 23 42  1  0
 23 43  1  0
 23 44  1  0
 24 45  1  0
 26 46  1  0
 27 47  1  0
M  END
$$$$
