
     RDKit          3D

 57 62  0  0  0  0  0  0  0  0999 V2000
    8.6754    0.3061   -2.0776 C   0  0  0  0  0  0  0  0  0  0  0  0
    7.9747   -0.7490   -1.4301 O   0  0  0  0  0  0  0  0  0  0  0  0
    6.6158   -0.6416   -1.3561 C   0  0  0  0  0  0  0  0  0  0  0  0
    5.8392    0.3835   -1.8932 C   0  0  0  0  0  0  0  0  0  0  0  0
    4.4461    0.3686   -1.7400 C   0  0  0  0  0  0  0  0  0  0  0  0
    3.8184   -0.6725   -1.0432 C   0  0  0  0  0  0  0  0  0  0  0  0
    2.2570   -0.6669   -0.8628 C   0  0  0  0  0  0  0  0  0  0  0  0
    1.3720    0.2810   -1.3669 C   0  0  0  0  0  0  0  0  0  0  0  0
    0.0804   -0.0420   -0.9545 N   0  0  0  0  0  4  0  0  0  0  0  0
   -1.1511    0.7396   -1.1752 C   0  0  0  0  0  0  0  0  0  0  0  0
   -1.6198    1.3678    0.1558 C   0  0  0  0  0  0  0  0  0  0  0  0
   -0.7518    1.7832    0.9294 O   0  0  0  0  0  0  0  0  0  0  0  0
   -2.9882    1.2485    0.4498 N   0  0  0  0  0  0  0  0  0  0  0  0
   -3.4626    1.2057    1.8166 C   0  0  0  0  0  0  0  0  0  0  0  0
   -2.8101    1.9199    2.8366 C   0  0  0  0  0  0  0  0  0  0  0  0
   -3.2547    1.8742    4.1633 C   0  0  0  0  0  0  0  0  0  0  0  0
   -4.3611    1.1069    4.5024 C   0  0  0  0  0  0  0  0  0  0  0  0
   -5.0271    0.3927    3.5117 C   0  0  0  0  0  0  0  0  0  0  0  0
   -4.5890    0.4405    2.1800 C   0  0  0  0  0  0  0  0  0  0  0  0
   -5.4549   -0.5688    0.9985 S   0  0  0  0  0  0  0  0  0  0  0  0
   -5.1624    0.4231   -0.4421 C   0  0  0  0  0  0  0  0  0  0  0  0
   -6.1134    0.3895   -1.4709 C   0  0  0  0  0  0  0  0  0  0  0  0
   -5.9324    1.1450   -2.6260 C   0  0  0  0  0  0  0  0  0  0  0  0
   -4.8052    1.9479   -2.7557 C   0  0  0  0  0  0  0  0  0  0  0  0
   -3.8499    1.9805   -1.7368 C   0  0  0  0  0  0  0  0  0  0  0  0
   -3.9966    1.1943   -0.5757 C   0  0  0  0  0  0  0  0  0  0  0  0
    0.1688   -1.1241   -0.1893 C   0  0  0  0  0  0  0  0  0  0  0  0
    1.4297   -1.5436   -0.1790 N   0  0  0  0  0  0  0  0  0  0  0  0
    1.5952   -2.7332    0.6463 C   0  0  0  0  0  0  0  0  0  0  0  0
    0.1357   -3.2019    0.9037 C   0  0  0  0  0  0  0  0  0  0  0  0
   -0.7374   -1.9616    0.6303 C   0  0  0  0  0  0  0  0  0  0  0  0
    4.5958   -1.6972   -0.5047 C   0  0  0  0  0  0  0  0  0  0  0  0
    5.9860   -1.6788   -0.6667 C   0  0  0  0  0  0  0  0  0  0  0  0
    8.5078    1.2629   -1.5692 H   0  0  0  0  0  0  0  0  0  0  0  0
    8.4027    0.3655   -3.1365 H   0  0  0  0  0  0  0  0  0  0  0  0
    9.7454    0.0814   -2.0202 H   0  0  0  0  0  0  0  0  0  0  0  0
    6.2880    1.2125   -2.4341 H   0  0  0  0  0  0  0  0  0  0  0  0
    3.8841    1.1947   -2.1687 H   0  0  0  0  0  0  0  0  0  0  0  0
    1.5031    1.1700   -1.9590 H   0  0  0  0  0  0  0  0  0  0  0  0
   -1.8815    0.0394   -1.5887 H   0  0  0  0  0  0  0  0  0  0  0  0
   -0.9434    1.5341   -1.8979 H   0  0  0  0  0  0  0  0  0  0  0  0
   -1.9686    2.5772    2.6289 H   0  0  0  0  0  0  0  0  0  0  0  0
   -2.7382    2.4496    4.9288 H   0  0  0  0  0  0  0  0  0  0  0  0
   -4.7091    1.0743    5.5320 H   0  0  0  0  0  0  0  0  0  0  0  0
   -5.8927   -0.2065    3.7894 H   0  0  0  0  0  0  0  0  0  0  0  0
   -7.0136   -0.2175   -1.3723 H   0  0  0  0  0  0  0  0  0  0  0  0
   -6.6845    1.1242   -3.4124 H   0  0  0  0  0  0  0  0  0  0  0  0
   -4.6865    2.5721   -3.6400 H   0  0  0  0  0  0  0  0  0  0  0  0
   -3.0255    2.6830   -1.8479 H   0  0  0  0  0  0  0  0  0  0  0  0
    2.1621   -3.5046    0.1175 H   0  0  0  0  0  0  0  0  0  0  0  0
    2.0903   -2.4511    1.5801 H   0  0  0  0  0  0  0  0  0  0  0  0
   -0.1168   -3.9834    0.1767 H   0  0  0  0  0  0  0  0  0  0  0  0
   -0.0086   -3.6148    1.9061 H   0  0  0  0  0  0  0  0  0  0  0  0
   -1.6392   -2.1790    0.0571 H   0  0  0  0  0  0  0  0  0  0  0  0
   -0.9531   -1.3931    1.5375 H   0  0  0  0  0  0  0  0  0  0  0  0
    4.1661   -2.5263    0.0429 H   0  0  0  0  0  0  0  0  0  0  0  0
    6.5892   -2.4821   -0.2465 H   0  0  0  0  0  0  0  0  0  0  0  0
  1  2  1  0
  2  3  1  0
  3  4  2  0
  4  5  1  0
  5  6  2  0
  6  7  1  0
  7  8  2  0
  8  9  1  0
  9 10  1  0
 10 11  1  0
 11 12  2  0
 11 13  1  0
 13 14  1  0
 14 15  2  0
 15 16  1  0
 16 17  2  0
 17 18  1  0
 18 19  2  0
 19 20  1  0
 20 21  1  0
 21 22  2  0
 22 23  1  0
 23 24  2  0
 24 25  1  0
 25 26  2  0
  9 27  2  0
 27 28  1  0
 28 29  1  0
 29 30  1  0
 30 31  1  0
  6 32  1  0
 32 33  2  0
 33  3  1  0
 28  7  1  0
 26 13  1  0
 31 27  1  0
 19 14  1  0
 26 21  1  0
  1 34  1  0
  1 35  1  0
  1 36  1  0
  4 37  1  0
  5 38  1  0
  8 39  1  0
 10 40  1  0
 10 41  1  0
 15 42  1  0
 16 43  1  0
 17 44  1  0
 18 45  1  0
 22 46  1  0
 23 47  1  0
 24 48  1  0
 25 49  1  0
 29 50  1  0
 29 51  1  0
 30 52  1  0
 30 53  1  0
 31 54  1  0
 31 55  1  0
 32 56  1  0
 33 57  1  0
M  CHG  1   9   1
M  END
$$$$
