
     RDKit          3D

 56 61  0  0  0  0  0  0  0  0999 V2000
    6.9040    3.0565    0.0833 C   0  0  0  0  0  0  0  0  0  0  0  0
    5.7024    2.1763   -0.0988 C   0  0  0  0  0  0  0  0  0  0  0  0
    5.8402    0.7867   -0.1684 C   0  0  0  0  0  0  0  0  0  0  0  0
    4.7223   -0.0321   -0.3622 C   0  0  0  0  0  0  0  0  0  0  0  0
    3.4543    0.5336   -0.4990 C   0  0  0  0  0  0  0  0  0  0  0  0
    2.1903   -0.3730   -0.7163 C   0  0  0  0  0  0  0  0  0  0  0  0
    0.8959    0.0645   -0.9703 C   0  0  0  0  0  0  0  0  0  0  0  0
    0.0657   -1.0442   -1.1296 N   0  0  0  0  0  4  0  0  0  0  0  0
   -1.3940   -1.0295   -1.3227 C   0  0  0  0  0  0  0  0  0  0  0  0
   -2.0966   -1.1977    0.0418 C   0  0  0  0  0  0  0  0  0  0  0  0
   -1.7280   -2.1063    0.7884 O   0  0  0  0  0  0  0  0  0  0  0  0
   -3.0223   -0.1867    0.3439 N   0  0  0  0  0  0  0  0  0  0  0  0
   -4.0122    0.2034   -0.6310 C   0  0  0  0  0  0  0  0  0  0  0  0
   -4.4555   -0.7459   -1.5778 C   0  0  0  0  0  0  0  0  0  0  0  0
   -5.4072   -0.4218   -2.5481 C   0  0  0  0  0  0  0  0  0  0  0  0
   -5.9457    0.8563   -2.5879 C   0  0  0  0  0  0  0  0  0  0  0  0
   -5.5453    1.7993   -1.6459 C   0  0  0  0  0  0  0  0  0  0  0  0
   -4.5967    1.4765   -0.6617 C   0  0  0  0  0  0  0  0  0  0  0  0
   -4.1436    2.7462    0.4787 S   0  0  0  0  0  0  0  0  0  0  0  0
   -3.5777    1.7398    1.8282 C   0  0  0  0  0  0  0  0  0  0  0  0
   -3.5812    2.3458    3.0969 C   0  0  0  0  0  0  0  0  0  0  0  0
   -3.0635    1.6823    4.2034 C   0  0  0  0  0  0  0  0  0  0  0  0
   -2.5303    0.4123    4.0446 C   0  0  0  0  0  0  0  0  0  0  0  0
   -2.5233   -0.1949    2.7834 C   0  0  0  0  0  0  0  0  0  0  0  0
   -3.0567    0.4435    1.6449 C   0  0  0  0  0  0  0  0  0  0  0  0
    0.8112   -2.1297   -0.9477 C   0  0  0  0  0  0  0  0  0  0  0  0
    2.0623   -1.7503   -0.7019 N   0  0  0  0  0  0  0  0  0  0  0  0
    2.9319   -2.8877   -0.4391 C   0  0  0  0  0  0  0  0  0  0  0  0
    1.9389   -4.0681   -0.2605 C   0  0  0  0  0  0  0  0  0  0  0  0
    0.6371   -3.5999   -0.9385 C   0  0  0  0  0  0  0  0  0  0  0  0
    3.3139    1.9259   -0.4541 C   0  0  0  0  0  0  0  0  0  0  0  0
    4.4328    2.7404   -0.2566 C   0  0  0  0  0  0  0  0  0  0  0  0
    7.2528    3.4185   -0.8901 H   0  0  0  0  0  0  0  0  0  0  0  0
    7.7207    2.5135    0.5715 H   0  0  0  0  0  0  0  0  0  0  0  0
    6.6596    3.9151    0.7173 H   0  0  0  0  0  0  0  0  0  0  0  0
    6.8257    0.3325   -0.0722 H   0  0  0  0  0  0  0  0  0  0  0  0
    4.8856   -1.1008   -0.4191 H   0  0  0  0  0  0  0  0  0  0  0  0
    0.4550    1.0418   -1.0628 H   0  0  0  0  0  0  0  0  0  0  0  0
   -1.6685   -1.8637   -1.9767 H   0  0  0  0  0  0  0  0  0  0  0  0
   -1.6529   -0.0867   -1.8134 H   0  0  0  0  0  0  0  0  0  0  0  0
   -4.1214   -1.7801   -1.5449 H   0  0  0  0  0  0  0  0  0  0  0  0
   -5.7479   -1.1732   -3.2575 H   0  0  0  0  0  0  0  0  0  0  0  0
   -6.6931    1.1159   -3.3349 H   0  0  0  0  0  0  0  0  0  0  0  0
   -5.9893    2.7927   -1.6783 H   0  0  0  0  0  0  0  0  0  0  0  0
   -3.9808    3.3504    3.2291 H   0  0  0  0  0  0  0  0  0  0  0  0
   -3.0726    2.1583    5.1804 H   0  0  0  0  0  0  0  0  0  0  0  0
   -2.1245   -0.1171    4.9033 H   0  0  0  0  0  0  0  0  0  0  0  0
   -2.1195   -1.2000    2.7479 H   0  0  0  0  0  0  0  0  0  0  0  0
    3.5799   -3.0450   -1.3065 H   0  0  0  0  0  0  0  0  0  0  0  0
    3.5215   -2.7300    0.4661 H   0  0  0  0  0  0  0  0  0  0  0  0
    2.3205   -5.0083   -0.6658 H   0  0  0  0  0  0  0  0  0  0  0  0
    1.7502   -4.2131    0.8094 H   0  0  0  0  0  0  0  0  0  0  0  0
   -0.2617   -3.8673   -0.3845 H   0  0  0  0  0  0  0  0  0  0  0  0
    0.5776   -3.9100   -1.9836 H   0  0  0  0  0  0  0  0  0  0  0  0
    2.3495    2.4128   -0.5618 H   0  0  0  0  0  0  0  0  0  0  0  0
    4.3102    3.8224   -0.2221 H   0  0  0  0  0  0  0  0  0  0  0  0
  1  2  1  0
  2  3  2  0
  3  4  1  0
  4  5  2  0
  5  6  1  0
  6  7  2  0
  7  8  1  0
  8  9  1  0
  9 10  1  0
 10 11  2  0
 10 12  1  0
 12 13  1  0
 13 14  2  0
 14 15  1  0
 15 16  2  0
 16 17  1  0
 17 18  2  0
 18 19  1  0
 19 20  1  0
 20 21  2  0
 21 22  1  0
 22 23  2  0
 23 24  1  0
 24 25  2  0
  8 26  2  0
 26 27  1  0
 27 28  1  0
 28 29  1  0
 29 30  1  0
  5 31  1  0
 31 32  2  0
 32  2  1  0
 27  6  1  0
 25 12  1  0
 30 26  1  0
 18 13  1  0
 25 20  1  0
  1 33  1  0
  1 34  1  0
  1 35  1  0
  3 36  1  0
  4 37  1  0
  7 38  1  0
  9 39  1  0
  9 40  1  0
 14 41  1  0
 15 42  1  0
 16 43  1  0
 17 44  1  0
 21 45  1  0
 22 46  1  0
 23 47  1  0
 24 48  1  0
 28 49  1  0
 28 50  1  0
 29 51  1  0
 29 52  1  0
 30 53  1  0
 30 54  1  0
 31 55  1  0
 32 56  1  0
M  CHG  1   8   1
M  END
$$$$
