
     RDKit          3D

 61 65  0  0  0  0  0  0  0  0999 V2000
   -7.8007   -0.2050   -2.5250 C   0  0  0  0  0  0  0  0  0  0  0  0
   -6.4087   -0.5772   -2.1032 C   0  0  0  0  0  0  0  0  0  0  0  0
   -5.8538   -1.7952   -2.5076 C   0  0  0  0  0  0  0  0  0  0  0  0
   -4.5707   -2.1632   -2.0868 C   0  0  0  0  0  0  0  0  0  0  0  0
   -3.8136   -1.3262   -1.2557 C   0  0  0  0  0  0  0  0  0  0  0  0
   -2.5018   -1.7125   -0.8121 N   0  0  0  0  0  0  0  0  0  0  0  0
   -1.5225   -2.2261   -1.6678 C   0  0  0  0  0  0  0  0  0  0  0  0
   -1.7112   -2.1377   -3.4122 S   0  0  0  0  0  0  0  0  0  0  0  0
   -1.1548   -0.4392   -3.6948 C   0  0  0  0  0  0  0  0  0  0  0  0
    0.1762   -0.1476   -3.0221 C   0  0  0  0  0  0  0  0  0  0  0  0
    1.2357   -0.5003   -3.5367 O   0  0  0  0  0  0  0  0  0  0  0  0
    0.0297    0.5377   -1.8222 N   0  0  0  0  0  0  0  0  0  0  0  0
    1.0495    0.8396   -0.8939 C   0  0  0  0  0  0  0  0  0  0  0  0
    2.3523    0.3598   -0.9882 C   0  0  0  0  0  0  0  0  0  0  0  0
    3.3290    0.7332   -0.0494 C   0  0  0  0  0  0  0  0  0  0  0  0
    3.0386    1.6027    1.0109 C   0  0  0  0  0  0  0  0  0  0  0  0
    3.9912    2.0330    1.9531 N   0  0  0  0  0  0  0  0  0  0  0  0
    4.1654    3.5075    1.9595 C   0  0  0  0  0  0  0  0  0  0  0  0
    5.0813    3.9329    3.1205 C   0  0  0  0  0  0  0  0  0  0  0  0
    6.3505    3.2650    3.0773 O   0  0  0  0  0  0  0  0  0  0  0  0
    6.1515    1.8458    3.1451 C   0  0  0  0  0  0  0  0  0  0  0  0
    5.2991    1.3399    1.9668 C   0  0  0  0  0  0  0  0  0  0  0  0
    1.7049    2.0266    1.1277 C   0  0  0  0  0  0  0  0  0  0  0  0
    0.7226    1.6530    0.1930 C   0  0  0  0  0  0  0  0  0  0  0  0
   -0.3859   -2.7037   -1.2848 N   0  0  0  0  0  0  0  0  0  0  0  0
   -0.0726   -2.6830    0.0746 C   0  0  0  0  0  0  0  0  0  0  0  0
    1.1636   -3.1843    0.4913 C   0  0  0  0  0  0  0  0  0  0  0  0
    1.5097   -3.1981    1.8439 C   0  0  0  0  0  0  0  0  0  0  0  0
    0.6137   -2.7104    2.7953 C   0  0  0  0  0  0  0  0  0  0  0  0
   -0.6109   -2.1808    2.3878 C   0  0  0  0  0  0  0  0  0  0  0  0
   -0.9427   -2.1653    1.0267 C   0  0  0  0  0  0  0  0  0  0  0  0
   -2.2275   -1.6142    0.5611 C   0  0  0  0  0  0  0  0  0  0  0  0
   -2.9666   -1.1172    1.4102 O   0  0  0  0  0  0  0  0  0  0  0  0
   -4.3974   -0.1278   -0.8198 C   0  0  0  0  0  0  0  0  0  0  0  0
   -5.6785    0.2448   -1.2382 C   0  0  0  0  0  0  0  0  0  0  0  0
   -8.5334   -0.6664   -1.8532 H   0  0  0  0  0  0  0  0  0  0  0  0
   -7.9939   -0.5361   -3.5550 H   0  0  0  0  0  0  0  0  0  0  0  0
   -7.9388    0.8815   -2.5111 H   0  0  0  0  0  0  0  0  0  0  0  0
   -6.4238   -2.4808   -3.1400 H   0  0  0  0  0  0  0  0  0  0  0  0
   -4.1980   -3.1400   -2.3890 H   0  0  0  0  0  0  0  0  0  0  0  0
   -1.9132    0.2686   -3.3736 H   0  0  0  0  0  0  0  0  0  0  0  0
   -1.0272   -0.2959   -4.7650 H   0  0  0  0  0  0  0  0  0  0  0  0
   -0.8864    0.8989   -1.6012 H   0  0  0  0  0  0  0  0  0  0  0  0
    2.6536   -0.3177   -1.7797 H   0  0  0  0  0  0  0  0  0  0  0  0
    4.3297    0.3392   -0.2001 H   0  0  0  0  0  0  0  0  0  0  0  0
    3.2110    4.0302    2.0728 H   0  0  0  0  0  0  0  0  0  0  0  0
    4.6195    3.8156    1.0091 H   0  0  0  0  0  0  0  0  0  0  0  0
    4.6096    3.7361    4.0913 H   0  0  0  0  0  0  0  0  0  0  0  0
    5.2784    5.0071    3.0588 H   0  0  0  0  0  0  0  0  0  0  0  0
    7.1403    1.3773    3.1175 H   0  0  0  0  0  0  0  0  0  0  0  0
    5.6881    1.5968    4.1071 H   0  0  0  0  0  0  0  0  0  0  0  0
    5.1606    0.2556    2.0675 H   0  0  0  0  0  0  0  0  0  0  0  0
    5.8375    1.5475    1.0308 H   0  0  0  0  0  0  0  0  0  0  0  0
    1.4100    2.6452    1.9742 H   0  0  0  0  0  0  0  0  0  0  0  0
   -0.2909    2.0085    0.3411 H   0  0  0  0  0  0  0  0  0  0  0  0
    1.8685   -3.5566   -0.2502 H   0  0  0  0  0  0  0  0  0  0  0  0
    2.4762   -3.5949    2.1499 H   0  0  0  0  0  0  0  0  0  0  0  0
    0.8689   -2.7368    3.8488 H   0  0  0  0  0  0  0  0  0  0  0  0
   -1.3088   -1.7924    3.1294 H   0  0  0  0  0  0  0  0  0  0  0  0
   -3.8742    0.5312   -0.1377 H   0  0  0  0  0  0  0  0  0  0  0  0
   -6.1080    1.1720   -0.8670 H   0  0  0  0  0  0  0  0  0  0  0  0
  1  2  1  0
  2  3  2  0
  3  4  1  0
  4  5  2  0
  5  6  1  0
  6  7  1  0
  7  8  1  0
  8  9  1  0
  9 10  1  0
 10 11  2  0
 10 12  1  0
 12 13  1  0
 13 14  2  0
 14 15  1  0
 15 16  2  0
 16 17  1  0
 17 18  1  0
 18 19  1  0
 19 20  1  0
 20 21  1  0
 21 22  1  0
 16 23  1  0
 23 24  2  0
  7 25  2  0
 25 26  1  0
 26 27  2  0
 27 28  1  0
 28 29  2  0
 29 30  1  0
 30 31  2  0
 31 32  1  0
 32 33  2  0
  5 34  1  0
 34 35  2  0
 35  2  1  0
 32  6  1  0
 24 13  1  0
 31 26  1  0
 22 17  1  0
  1 36  1  0
  1 37  1  0
  1 38  1  0
  3 39  1  0
  4 40  1  0
  9 41  1  0
  9 42  1  0
 12 43  1  0
 14 44  1  0
 15 45  1  0
 18 46  1  0
 18 47  1  0
 19 48  1  0
 19 49  1  0
 21 50  1  0
 21 51  1  0
 22 52  1  0
 22 53  1  0
 23 54  1  0
 24 55  1  0
 27 56  1  0
 28 57  1  0
 29 58  1  0
 30 59  1  0
 34 60  1  0
 35 61  1  0
M  END
$$$$
