
     RDKit          3D

 39 41  0  0  0  0  0  0  0  0999 V2000
   -5.9078    2.3881   -1.6160 C   0  0  0  0  0  0  0  0  0  0  0  0
   -6.2730    1.1637   -0.9899 O   0  0  0  0  0  0  0  0  0  0  0  0
   -5.2488    0.3193   -0.6449 C   0  0  0  0  0  0  0  0  0  0  0  0
   -3.8875    0.5418   -0.8594 C   0  0  0  0  0  0  0  0  0  0  0  0
   -2.9429   -0.4127   -0.4475 C   0  0  0  0  0  0  0  0  0  0  0  0
   -1.5186   -0.1650   -0.6956 C   0  0  0  0  0  0  0  0  0  0  0  0
   -0.5842    0.0471    0.2410 C   0  0  0  0  0  0  0  0  0  0  0  0
   -0.7894    0.1072    1.9534 S   0  0  0  0  0  0  0  0  0  0  0  0
    0.9203    0.4139    2.2523 C   0  0  0  0  0  0  0  0  0  0  0  0
    1.5606    0.6488    3.7744 S   0  0  0  0  0  0  0  0  0  0  0  0
    1.5742    0.4596    1.0383 N   0  0  0  0  0  0  0  0  0  0  0  0
    2.9714    0.6128    0.9351 N   0  0  0  0  0  0  0  0  0  0  0  0
    3.7064   -0.5620    0.8926 C   0  0  0  0  0  0  0  0  0  0  0  0
    3.2260   -1.6693    1.1149 O   0  0  0  0  0  0  0  0  0  0  0  0
    5.1309   -0.4327    0.5138 C   0  0  0  0  0  0  0  0  0  0  0  0
    5.7860   -1.5056   -0.0940 C   0  0  0  0  0  0  0  0  0  0  0  0
    7.1266   -1.3770   -0.4503 C   0  0  0  0  0  0  0  0  0  0  0  0
    7.7666   -0.1778   -0.1795 C   0  0  0  0  0  0  0  0  0  0  0  0
    7.1661    0.8748    0.4200 N   0  0  0  0  0  0  0  0  0  0  0  0
    5.8649    0.7190    0.7652 C   0  0  0  0  0  0  0  0  0  0  0  0
    0.8370    0.2990   -0.1212 C   0  0  0  0  0  0  0  0  0  0  0  0
    1.2607    0.3921   -1.2661 O   0  0  0  0  0  0  0  0  0  0  0  0
   -3.3693   -1.5977    0.1669 C   0  0  0  0  0  0  0  0  0  0  0  0
   -4.7272   -1.8252    0.3830 C   0  0  0  0  0  0  0  0  0  0  0  0
   -5.6486   -0.8688   -0.0223 C   0  0  0  0  0  0  0  0  0  0  0  0
   -6.9759   -1.1164    0.2006 O   0  0  0  0  0  0  0  0  0  0  0  0
   -5.2874    3.0006   -0.9534 H   0  0  0  0  0  0  0  0  0  0  0  0
   -5.4076    2.2076   -2.5732 H   0  0  0  0  0  0  0  0  0  0  0  0
   -6.8270    2.9454   -1.8207 H   0  0  0  0  0  0  0  0  0  0  0  0
   -3.5356    1.4486   -1.3401 H   0  0  0  0  0  0  0  0  0  0  0  0
   -1.2404   -0.1502   -1.7488 H   0  0  0  0  0  0  0  0  0  0  0  0
    3.2646    1.3960    0.3583 H   0  0  0  0  0  0  0  0  0  0  0  0
    5.2568   -2.4353   -0.2913 H   0  0  0  0  0  0  0  0  0  0  0  0
    7.6585   -2.1936   -0.9264 H   0  0  0  0  0  0  0  0  0  0  0  0
    8.8112   -0.0293   -0.4403 H   0  0  0  0  0  0  0  0  0  0  0  0
    5.4397    1.5756    1.2798 H   0  0  0  0  0  0  0  0  0  0  0  0
   -2.6511   -2.3523    0.4800 H   0  0  0  0  0  0  0  0  0  0  0  0
   -5.0652   -2.7394    0.8617 H   0  0  0  0  0  0  0  0  0  0  0  0
   -7.4413   -0.3326   -0.1505 H   0  0  0  0  0  0  0  0  0  0  0  0
  1  2  1  0
  2  3  1  0
  3  4  2  0
  4  5  1  0
  5  6  1  0
  6  7  2  3
  7  8  1  0
  8  9  1  0
  9 10  2  0
  9 11  1  0
 11 12  1  0
 12 13  1  0
 13 14  2  0
 13 15  1  0
 15 16  2  0
 16 17  1  0
 17 18  2  0
 18 19  1  0
 19 20  2  0
 11 21  1  0
 21 22  2  0
  5 23  2  0
 23 24  1  0
 24 25  2  0
 25 26  1  0
 25  3  1  0
 21  7  1  0
 20 15  1  0
  1 27  1  0
  1 28  1  0
  1 29  1  0
  4 30  1  0
  6 31  1  0
 12 32  1  0
 16 33  1  0
 17 34  1  0
 18 35  1  0
 20 36  1  0
 23 37  1  0
 24 38  1  0
 26 39  1  0
M  END
$$$$
