
     RDKit          3D

 34 35  0  0  0  0  0  0  0  0999 V2000
   -3.8358   -0.5559    2.4782 O   0  0  0  0  0  0  0  0  0  0  0  0
   -3.7266   -0.6147    1.2492 C   0  0  0  0  0  0  0  0  0  0  0  0
   -4.9477   -0.5330    0.3196 C   0  0  0  0  0  0  0  0  0  0  0  0
   -5.0273    1.0951   -0.3928 Cl  0  0  0  0  0  0  0  0  0  0  0  0
   -6.4546   -0.8815    1.2010 Cl  0  0  0  0  0  0  0  0  0  0  0  0
   -2.4645   -0.7586    0.6645 N   0  0  0  0  0  0  0  0  0  0  0  0
   -2.1905   -0.8242   -0.7765 C   0  0  0  0  0  0  0  0  0  0  0  0
   -0.8108   -1.4370   -1.0865 C   0  0  0  0  0  0  0  0  0  0  0  0
    0.3301   -0.7880   -0.4155 N   0  0  0  0  0  0  0  0  0  0  0  0
    1.0454    0.1299   -1.3171 C   0  0  0  0  0  0  0  0  0  0  0  0
    2.3494    0.6442   -0.7446 C   0  0  0  0  0  0  0  0  0  0  0  0
    3.3790   -0.2478   -0.4085 C   0  0  0  0  0  0  0  0  0  0  0  0
    4.5848    0.2234    0.1124 C   0  0  0  0  0  0  0  0  0  0  0  0
    4.7756    1.5908    0.3007 C   0  0  0  0  0  0  0  0  0  0  0  0
    3.7614    2.4876   -0.0309 C   0  0  0  0  0  0  0  0  0  0  0  0
    2.5541    2.0180   -0.5519 C   0  0  0  0  0  0  0  0  0  0  0  0
   -0.0669   -0.1167    0.8433 C   0  0  0  0  0  0  0  0  0  0  0  0
   -1.2804   -0.7639    1.5340 C   0  0  0  0  0  0  0  0  0  0  0  0
   -4.8854   -1.2717   -0.4802 H   0  0  0  0  0  0  0  0  0  0  0  0
   -2.9637   -1.4147   -1.2736 H   0  0  0  0  0  0  0  0  0  0  0  0
   -2.2411    0.1985   -1.1668 H   0  0  0  0  0  0  0  0  0  0  0  0
   -0.6672   -1.4868   -2.1728 H   0  0  0  0  0  0  0  0  0  0  0  0
   -0.8240   -2.4812   -0.7467 H   0  0  0  0  0  0  0  0  0  0  0  0
    1.3037   -0.3914   -2.2488 H   0  0  0  0  0  0  0  0  0  0  0  0
    0.3963    0.9674   -1.6056 H   0  0  0  0  0  0  0  0  0  0  0  0
    3.2355   -1.3177   -0.5452 H   0  0  0  0  0  0  0  0  0  0  0  0
    5.3733   -0.4774    0.3734 H   0  0  0  0  0  0  0  0  0  0  0  0
    5.7143    1.9575    0.7073 H   0  0  0  0  0  0  0  0  0  0  0  0
    3.9108    3.5539    0.1171 H   0  0  0  0  0  0  0  0  0  0  0  0
    1.7739    2.7325   -0.8037 H   0  0  0  0  0  0  0  0  0  0  0  0
   -0.3234    0.9342    0.6506 H   0  0  0  0  0  0  0  0  0  0  0  0
    0.7805   -0.1269    1.5381 H   0  0  0  0  0  0  0  0  0  0  0  0
   -1.4909   -0.2347    2.4694 H   0  0  0  0  0  0  0  0  0  0  0  0
   -1.0672   -1.8095    1.7866 H   0  0  0  0  0  0  0  0  0  0  0  0
  1  2  2  0
  2  3  1  0
  3  4  1  0
  3  5  1  0
  2  6  1  0
  6  7  1  0
  7  8  1  0
  8  9  1  0
  9 10  1  0
 10 11  1  0
 11 12  2  0
 12 13  1  0
 13 14  2  0
 14 15  1  0
 15 16  2  0
  9 17  1  0
 17 18  1  0
 18  6  1  0
 16 11  1  0
  3 19  1  0
  7 20  1  0
  7 21  1  0
  8 22  1  0
  8 23  1  0
 10 24  1  0
 10 25  1  0
 12 26  1  0
 13 27  1  0
 14 28  1  0
 15 29  1  0
 16 30  1  0
 17 31  1  0
 17 32  1  0
 18 33  1  0
 18 34  1  0
M  END
$$$$
