
     RDKit          3D

 29 30  0  0  0  0  0  0  0  0999 V2000
    4.0956    0.0167   -1.3179 C   0  0  0  0  0  0  0  0  0  0  0  0
    2.8010    0.2201   -0.5513 C   0  0  0  0  0  0  0  0  0  0  0  0
    2.8678   -0.5298    0.7017 N   0  0  0  0  0  0  0  0  0  0  0  0
    1.8973   -0.0802    1.9944 S   0  0  0  0  0  6  0  0  0  0  0  0
    2.1390    1.3157    2.2822 O   0  0  0  0  0  0  0  0  0  0  0  0
    2.0624   -1.1052    3.0018 O   0  0  0  0  0  0  0  0  0  0  0  0
    0.2615   -0.2376    1.3232 C   0  0  0  0  0  0  0  0  0  0  0  0
   -0.3822   -1.4888    1.3671 C   0  0  0  0  0  0  0  0  0  0  0  0
   -1.6767   -1.6250    0.8631 C   0  0  0  0  0  0  0  0  0  0  0  0
   -2.2865   -0.5053    0.3206 C   0  0  0  0  0  0  0  0  0  0  0  0
   -1.6440    0.7305    0.2766 C   0  0  0  0  0  0  0  0  0  0  0  0
   -0.3758    0.8918    0.7981 C   0  0  0  0  0  0  0  0  0  0  0  0
   -2.4344    1.7671   -0.2779 N   0  0  0  0  0  0  0  0  0  0  0  0
   -3.6152    1.0511   -0.8083 C   0  0  0  0  0  0  0  0  0  0  0  0
   -3.6717   -0.3615   -0.2019 C   0  0  0  0  0  0  0  0  0  0  0  0
    4.0691    0.5656   -2.2643 H   0  0  0  0  0  0  0  0  0  0  0  0
    4.2587   -1.0430   -1.5412 H   0  0  0  0  0  0  0  0  0  0  0  0
    4.9544    0.3722   -0.7386 H   0  0  0  0  0  0  0  0  0  0  0  0
    2.6609    1.2886   -0.3618 H   0  0  0  0  0  0  0  0  0  0  0  0
    1.9627   -0.1461   -1.1521 H   0  0  0  0  0  0  0  0  0  0  0  0
    3.0679   -1.5275    0.6678 H   0  0  0  0  0  0  0  0  0  0  0  0
    0.1164   -2.3502    1.8071 H   0  0  0  0  0  0  0  0  0  0  0  0
   -2.1933   -2.5784    0.9120 H   0  0  0  0  0  0  0  0  0  0  0  0
    0.1088    1.8629    0.7825 H   0  0  0  0  0  0  0  0  0  0  0  0
   -2.6821    2.4190    0.4667 H   0  0  0  0  0  0  0  0  0  0  0  0
   -3.5129    0.9836   -1.8988 H   0  0  0  0  0  0  0  0  0  0  0  0
   -4.5343    1.6109   -0.6032 H   0  0  0  0  0  0  0  0  0  0  0  0
   -3.9207   -1.1128   -0.9564 H   0  0  0  0  0  0  0  0  0  0  0  0
   -4.3938   -0.4042    0.6200 H   0  0  0  0  0  0  0  0  0  0  0  0
  1  2  1  0
  2  3  1  0
  3  4  1  0
  4  5  2  0
  4  6  2  0
  4  7  1  0
  7  8  2  0
  8  9  1  0
  9 10  2  0
 10 11  1  0
 11 12  2  0
 11 13  1  0
 13 14  1  0
 14 15  1  0
 12  7  1  0
 15 10  1  0
  1 16  1  0
  1 17  1  0
  1 18  1  0
  2 19  1  0
  2 20  1  0
  3 21  1  0
  8 22  1  0
  9 23  1  0
 12 24  1  0
 13 25  1  0
 14 26  1  0
 14 27  1  0
 15 28  1  0
 15 29  1  0
M  END
$$$$
