
     RDKit          3D

 50 53  0  0  0  0  0  0  0  0999 V2000
    6.9455    1.1906   -0.0020 C   0  0  0  0  0  0  0  0  0  0  0  0
    5.6006    0.5284    0.0605 C   0  0  0  0  0  0  0  0  0  0  0  0
    5.2208   -0.4125   -0.8945 C   0  0  0  0  0  0  0  0  0  0  0  0
    3.9774   -1.0474   -0.8121 C   0  0  0  0  0  0  0  0  0  0  0  0
    3.0885   -0.7621    0.2303 C   0  0  0  0  0  0  0  0  0  0  0  0
    1.8240   -1.3904    0.3439 N   0  0  0  0  0  0  0  0  0  0  0  0
    1.2316   -2.2670   -0.5513 C   0  0  0  0  0  0  0  0  0  0  0  0
    1.6730   -2.6277   -1.6374 O   0  0  0  0  0  0  0  0  0  0  0  0
   -0.1603   -2.7201   -0.1115 C   0  0  0  0  0  0  0  0  0  0  0  0
   -1.1346   -1.6214   -0.2098 N   0  0  0  0  0  4  0  0  0  0  0  0
   -2.0746   -1.2518    0.7518 C   0  0  0  0  0  0  0  0  0  0  0  0
   -2.8559   -0.2184    0.2492 C   0  0  0  0  0  0  0  0  0  0  0  0
   -4.0539    0.4845    0.9854 C   0  0  0  0  0  0  0  0  0  0  0  0
   -4.7943    1.4854    0.3533 C   0  0  0  0  0  0  0  0  0  0  0  0
   -5.8572    2.1008    1.0208 C   0  0  0  0  0  0  0  0  0  0  0  0
   -6.1857    1.7190    2.3189 C   0  0  0  0  0  0  0  0  0  0  0  0
   -5.4539    0.7192    2.9533 C   0  0  0  0  0  0  0  0  0  0  0  0
   -4.3909    0.1008    2.2900 C   0  0  0  0  0  0  0  0  0  0  0  0
   -2.3246   -0.0052   -1.0100 N   0  0  0  0  0  0  0  0  0  0  0  0
   -1.3321   -0.8503   -1.2788 C   0  0  0  0  0  0  0  0  0  0  0  0
   -0.7858   -0.6919   -2.6480 C   0  0  0  0  0  0  0  0  0  0  0  0
   -1.4340    0.6272   -3.1116 C   0  0  0  0  0  0  0  0  0  0  0  0
   -2.6191    0.8664   -2.1397 C   0  0  0  0  0  0  0  0  0  0  0  0
    3.4697    0.1792    1.2116 C   0  0  0  0  0  0  0  0  0  0  0  0
    2.5889    0.5437    2.3773 C   0  0  0  0  0  0  0  0  0  0  0  0
    4.7241    0.8110    1.1128 C   0  0  0  0  0  0  0  0  0  0  0  0
    7.4033    1.0728   -0.9901 H   0  0  0  0  0  0  0  0  0  0  0  0
    6.8525    2.2645    0.1900 H   0  0  0  0  0  0  0  0  0  0  0  0
    7.6139    0.7493    0.7443 H   0  0  0  0  0  0  0  0  0  0  0  0
    5.8918   -0.6681   -1.7124 H   0  0  0  0  0  0  0  0  0  0  0  0
    3.7512   -1.7779   -1.5818 H   0  0  0  0  0  0  0  0  0  0  0  0
    1.2865   -1.1370    1.1621 H   0  0  0  0  0  0  0  0  0  0  0  0
   -0.1162   -3.0852    0.9197 H   0  0  0  0  0  0  0  0  0  0  0  0
   -0.5004   -3.5385   -0.7546 H   0  0  0  0  0  0  0  0  0  0  0  0
   -2.0834   -1.7923    1.6829 H   0  0  0  0  0  0  0  0  0  0  0  0
   -4.5839    1.8104   -0.6569 H   0  0  0  0  0  0  0  0  0  0  0  0
   -6.4354    2.8803    0.5278 H   0  0  0  0  0  0  0  0  0  0  0  0
   -7.0139    2.2000    2.8359 H   0  0  0  0  0  0  0  0  0  0  0  0
   -5.7147    0.4218    3.9675 H   0  0  0  0  0  0  0  0  0  0  0  0
   -3.8496   -0.6738    2.8244 H   0  0  0  0  0  0  0  0  0  0  0  0
   -1.1258   -1.5548   -3.2238 H   0  0  0  0  0  0  0  0  0  0  0  0
    0.3001   -0.6255   -2.6045 H   0  0  0  0  0  0  0  0  0  0  0  0
   -1.7458    0.6012   -4.1595 H   0  0  0  0  0  0  0  0  0  0  0  0
   -0.7099    1.4429   -2.9989 H   0  0  0  0  0  0  0  0  0  0  0  0
   -3.5665    0.5546   -2.5882 H   0  0  0  0  0  0  0  0  0  0  0  0
   -2.6609    1.9113   -1.8255 H   0  0  0  0  0  0  0  0  0  0  0  0
    1.6383    0.9539    2.0206 H   0  0  0  0  0  0  0  0  0  0  0  0
    2.3997   -0.3365    3.0000 H   0  0  0  0  0  0  0  0  0  0  0  0
    3.0521    1.3036    3.0157 H   0  0  0  0  0  0  0  0  0  0  0  0
    5.0300    1.5327    1.8698 H   0  0  0  0  0  0  0  0  0  0  0  0
  1  2  1  0
  2  3  2  0
  3  4  1  0
  4  5  2  0
  5  6  1  0
  6  7  1  0
  7  8  2  0
  7  9  1  0
  9 10  1  0
 10 11  1  0
 11 12  2  0
 12 13  1  0
 13 14  2  0
 14 15  1  0
 15 16  2  0
 16 17  1  0
 17 18  2  0
 12 19  1  0
 19 20  1  0
 20 21  1  0
 21 22  1  0
 22 23  1  0
  5 24  1  0
 24 25  1  0
 24 26  2  0
 26  2  1  0
 20 10  2  0
 18 13  1  0
 23 19  1  0
  1 27  1  0
  1 28  1  0
  1 29  1  0
  3 30  1  0
  4 31  1  0
  6 32  1  0
  9 33  1  0
  9 34  1  0
 11 35  1  0
 14 36  1  0
 15 37  1  0
 16 38  1  0
 17 39  1  0
 18 40  1  0
 21 41  1  0
 21 42  1  0
 22 43  1  0
 22 44  1  0
 23 45  1  0
 23 46  1  0
 25 47  1  0
 25 48  1  0
 25 49  1  0
 26 50  1  0
M  CHG  1  10   1
M  END
$$$$
