
     RDKit          3D

 31 32  0  0  0  0  0  0  0  0999 V2000
    2.5885   -1.6025    1.6034 C   0  0  0  0  0  0  0  0  0  0  0  0
    3.1004   -0.2462    1.1409 C   0  0  0  0  0  0  0  0  0  0  0  0
    2.8352   -0.0237   -0.2786 N   0  0  0  0  0  0  0  0  0  0  0  0
    1.6595    0.3206   -0.8792 C   0  0  0  0  0  0  0  0  0  0  0  0
    0.4641    0.7323   -0.1761 C   0  0  0  0  0  0  0  0  0  0  0  0
    0.4219    1.6688    0.8381 C   0  0  0  0  0  0  0  0  0  0  0  0
   -1.1536    1.9223    1.4487 S   0  0  0  0  0  0  0  0  0  0  0  0
   -1.8372    0.8271    0.3246 C   0  0  0  0  0  0  0  0  0  0  0  0
   -3.3284    0.5838    0.3144 C   0  0  0  0  0  0  0  0  0  0  0  0
   -3.9434    1.0107   -1.0198 C   0  0  0  0  0  0  0  0  0  0  0  0
   -3.6450   -0.8832    0.6114 C   0  0  0  0  0  0  0  0  0  0  0  0
   -0.8629    0.2791   -0.4879 C   0  0  0  0  0  0  0  0  0  0  0  0
    1.6595    0.2297   -2.1794 N   0  0  0  0  0  0  0  0  0  0  0  0
    2.9216   -0.1877   -2.4819 N   0  0  0  0  0  0  0  0  0  0  0  0
    3.6566   -0.3818   -1.3228 C   0  0  0  0  0  0  0  0  0  0  0  0
    5.2108   -0.9570   -1.3148 S   0  0  0  0  0  0  0  0  0  0  0  0
    3.0582   -2.4157    1.0409 H   0  0  0  0  0  0  0  0  0  0  0  0
    2.8093   -1.7492    2.6651 H   0  0  0  0  0  0  0  0  0  0  0  0
    1.5056   -1.6853    1.4662 H   0  0  0  0  0  0  0  0  0  0  0  0
    2.6294    0.5401    1.7325 H   0  0  0  0  0  0  0  0  0  0  0  0
    4.1776   -0.1825    1.3234 H   0  0  0  0  0  0  0  0  0  0  0  0
    1.2401    2.2400    1.2537 H   0  0  0  0  0  0  0  0  0  0  0  0
   -3.8028    1.1860    1.1007 H   0  0  0  0  0  0  0  0  0  0  0  0
   -3.7308    2.0649   -1.2297 H   0  0  0  0  0  0  0  0  0  0  0  0
   -3.5517    0.4194   -1.8551 H   0  0  0  0  0  0  0  0  0  0  0  0
   -5.0313    0.8850   -1.0017 H   0  0  0  0  0  0  0  0  0  0  0  0
   -4.7276   -1.0430    0.6592 H   0  0  0  0  0  0  0  0  0  0  0  0
   -3.2179   -1.1893    1.5730 H   0  0  0  0  0  0  0  0  0  0  0  0
   -3.2418   -1.5498   -0.1592 H   0  0  0  0  0  0  0  0  0  0  0  0
   -1.0802   -0.4313   -1.2783 H   0  0  0  0  0  0  0  0  0  0  0  0
    3.2163   -0.3815   -3.4315 H   0  0  0  0  0  0  0  0  0  0  0  0
  1  2  1  0
  2  3  1  0
  3  4  1  0
  4  5  1  0
  5  6  2  0
  6  7  1  0
  7  8  1  0
  8  9  1  0
  9 10  1  0
  9 11  1  0
  8 12  2  0
  4 13  2  0
 13 14  1  0
 14 15  1  0
 15 16  2  0
 15  3  1  0
 12  5  1  0
  1 17  1  0
  1 18  1  0
  1 19  1  0
  2 20  1  0
  2 21  1  0
  6 22  1  0
  9 23  1  0
 10 24  1  0
 10 25  1  0
 10 26  1  0
 11 27  1  0
 11 28  1  0
 11 29  1  0
 12 30  1  0
 14 31  1  0
M  END
$$$$
