
     RDKit          3D

 38 39  0  0  0  0  0  0  0  0999 V2000
    5.8358    1.2765    1.2263 C   0  0  0  0  0  0  0  0  0  0  0  0
    4.9263    0.3583    0.4972 C   0  0  0  0  0  0  0  0  0  0  0  0
    4.9063   -1.0527    0.5376 C   0  0  0  0  0  0  0  0  0  0  0  0
    3.8897   -1.4281   -0.3152 C   0  0  0  0  0  0  0  0  0  0  0  0
    3.4005   -2.7784   -0.6958 C   0  0  0  0  0  0  0  0  0  0  0  0
    3.3565   -0.2563   -0.7919 N   0  0  0  0  0  0  0  0  0  0  0  0
    2.3054   -0.0863   -1.7782 C   0  0  0  0  0  0  0  0  0  0  0  0
    0.9333   -0.0182   -1.1459 C   0  0  0  0  0  0  0  0  0  0  0  0
    0.5640   -0.8082   -0.2774 O   0  0  0  0  0  0  0  0  0  0  0  0
    0.1279    0.9757   -1.7241 N   0  0  0  0  0  0  0  0  0  0  0  0
   -1.1676    1.2582   -1.3606 N   0  0  0  0  0  0  0  0  0  0  0  0
   -1.9274    0.2796   -0.9670 C   0  0  0  0  0  0  0  0  0  0  0  0
   -3.3178    0.5278   -0.5222 C   0  0  0  0  0  0  0  0  0  0  0  0
   -4.0406   -0.5527   -0.0008 C   0  0  0  0  0  0  0  0  0  0  0  0
   -5.3569   -0.3449    0.4361 C   0  0  0  0  0  0  0  0  0  0  0  0
   -6.1139   -1.4689    0.9971 N   0  0  0  0  0  4  0  0  0  0  0  0
   -5.6987   -2.6152    0.7632 O   0  0  0  0  0  0  0  0  0  0  0  0
   -7.1207   -1.2031    1.6678 O   0  0  0  0  0  1  0  0  0  0  0  0
   -5.9550    0.9221    0.3507 C   0  0  0  0  0  0  0  0  0  0  0  0
   -5.2297    1.9913   -0.1788 C   0  0  0  0  0  0  0  0  0  0  0  0
   -3.9167    1.7945   -0.6061 C   0  0  0  0  0  0  0  0  0  0  0  0
   -3.2705    2.8930   -1.1043 O   0  0  0  0  0  0  0  0  0  0  0  0
    3.9720    0.8490   -0.3086 N   0  0  0  0  0  0  0  0  0  0  0  0
    6.4096    0.7438    1.9905 H   0  0  0  0  0  0  0  0  0  0  0  0
    6.5449    1.7389    0.5324 H   0  0  0  0  0  0  0  0  0  0  0  0
    5.2690    2.0707    1.7258 H   0  0  0  0  0  0  0  0  0  0  0  0
    5.5495   -1.7039    1.1129 H   0  0  0  0  0  0  0  0  0  0  0  0
    3.9544   -3.5579   -0.1594 H   0  0  0  0  0  0  0  0  0  0  0  0
    3.5369   -2.9564   -1.7666 H   0  0  0  0  0  0  0  0  0  0  0  0
    2.3398   -2.8962   -0.4517 H   0  0  0  0  0  0  0  0  0  0  0  0
    2.3294   -0.9386   -2.4656 H   0  0  0  0  0  0  0  0  0  0  0  0
    2.5332    0.8141   -2.3603 H   0  0  0  0  0  0  0  0  0  0  0  0
    0.6073    1.7860   -2.1144 H   0  0  0  0  0  0  0  0  0  0  0  0
   -1.6013   -0.7769   -0.9627 H   0  0  0  0  0  0  0  0  0  0  0  0
   -3.5765   -1.5351    0.0772 H   0  0  0  0  0  0  0  0  0  0  0  0
   -6.9763    1.0895    0.6872 H   0  0  0  0  0  0  0  0  0  0  0  0
   -5.6861    2.9751   -0.2519 H   0  0  0  0  0  0  0  0  0  0  0  0
   -2.3360    2.6341   -1.2665 H   0  0  0  0  0  0  0  0  0  0  0  0
  1  2  1  0
  2  3  1  0
  3  4  2  0
  4  5  1  0
  4  6  1  0
  6  7  1  0
  7  8  1  0
  8  9  2  0
  8 10  1  0
 10 11  1  0
 11 12  2  3
 12 13  1  0
 13 14  2  0
 14 15  1  0
 15 16  1  0
 16 17  2  0
 16 18  1  0
 15 19  2  0
 19 20  1  0
 20 21  2  0
 21 22  1  0
  6 23  1  0
 23  2  2  0
 21 13  1  0
  1 24  1  0
  1 25  1  0
  1 26  1  0
  3 27  1  0
  5 28  1  0
  5 29  1  0
  5 30  1  0
  7 31  1  0
  7 32  1  0
 10 33  1  0
 12 34  1  0
 14 35  1  0
 19 36  1  0
 20 37  1  0
 22 38  1  0
M  CHG  2  16   1  18  -1
M  END
$$$$
