
     RDKit          3D

 31 31  0  0  0  0  0  0  0  0999 V2000
    4.6603   -0.2771    2.3848 C   0  0  0  0  0  0  0  0  0  0  0  0
    3.3026   -0.6266    2.1647 O   0  0  0  0  0  0  0  0  0  0  0  0
    2.8199   -0.0927    0.9329 C   0  0  0  0  0  0  0  0  0  0  0  0
    1.4575   -0.4781    0.7426 O   0  0  0  0  0  0  0  0  0  0  0  0
    0.9036    0.0876   -0.3813 C   0  0  0  0  0  0  0  0  0  0  0  0
   -0.4186    0.1538   -0.6088 C   0  0  0  0  0  0  0  0  0  0  0  0
   -1.0025    0.7063   -1.7339 N   0  0  0  0  0  0  0  0  0  0  0  0
   -0.3867    1.3187   -2.8099 C   0  0  0  0  0  0  0  0  0  0  0  0
   -1.3741    1.8037   -3.8414 C   0  0  0  0  0  0  0  0  0  0  0  0
    0.8175    1.5029   -2.9540 O   0  0  0  0  0  0  0  0  0  0  0  0
   -1.3707   -0.3966    0.3792 C   0  0  0  0  0  0  0  0  0  0  0  0
   -1.5747    0.2413    1.6099 C   0  0  0  0  0  0  0  0  0  0  0  0
   -2.4985   -0.2681    2.5246 C   0  0  0  0  0  0  0  0  0  0  0  0
   -3.2261   -1.4167    2.2158 C   0  0  0  0  0  0  0  0  0  0  0  0
   -3.0292   -2.0601    0.9947 C   0  0  0  0  0  0  0  0  0  0  0  0
   -2.1056   -1.5523    0.0787 C   0  0  0  0  0  0  0  0  0  0  0  0
    4.7735    0.8100    2.4395 H   0  0  0  0  0  0  0  0  0  0  0  0
    5.2952   -0.6824    1.5909 H   0  0  0  0  0  0  0  0  0  0  0  0
    4.9772   -0.7085    3.3381 H   0  0  0  0  0  0  0  0  0  0  0  0
    2.8921    1.0019    0.9674 H   0  0  0  0  0  0  0  0  0  0  0  0
    3.4277   -0.4874    0.1091 H   0  0  0  0  0  0  0  0  0  0  0  0
    1.6391    0.4570   -1.0829 H   0  0  0  0  0  0  0  0  0  0  0  0
   -2.0165    0.6808   -1.7415 H   0  0  0  0  0  0  0  0  0  0  0  0
   -0.8903    1.8281   -4.8221 H   0  0  0  0  0  0  0  0  0  0  0  0
   -2.2366    1.1341   -3.9068 H   0  0  0  0  0  0  0  0  0  0  0  0
   -1.7099    2.8092   -3.5750 H   0  0  0  0  0  0  0  0  0  0  0  0
   -1.0062    1.1329    1.8641 H   0  0  0  0  0  0  0  0  0  0  0  0
   -2.6434    0.2276    3.4809 H   0  0  0  0  0  0  0  0  0  0  0  0
   -3.9394   -1.8162    2.9321 H   0  0  0  0  0  0  0  0  0  0  0  0
   -3.5877   -2.9623    0.7596 H   0  0  0  0  0  0  0  0  0  0  0  0
   -1.9494   -2.0707   -0.8645 H   0  0  0  0  0  0  0  0  0  0  0  0
  1  2  1  0
  2  3  1  0
  3  4  1  0
  4  5  1  0
  5  6  2  3
  6  7  1  0
  7  8  1  0
  8  9  1  0
  8 10  2  0
  6 11  1  0
 11 12  2  0
 12 13  1  0
 13 14  2  0
 14 15  1  0
 15 16  2  0
 16 11  1  0
  1 17  1  0
  1 18  1  0
  1 19  1  0
  3 20  1  0
  3 21  1  0
  5 22  1  0
  7 23  1  0
  9 24  1  0
  9 25  1  0
  9 26  1  0
 12 27  1  0
 13 28  1  0
 14 29  1  0
 15 30  1  0
 16 31  1  0
M  END
$$$$
