
     RDKit          3D

 40 41  0  0  0  0  0  0  0  0999 V2000
    7.5727   -1.2773    0.8837 C   0  0  0  0  0  0  0  0  0  0  0  0
    6.9125   -0.2654    0.1336 O   0  0  0  0  0  0  0  0  0  0  0  0
    5.5567   -0.1722    0.2794 C   0  0  0  0  0  0  0  0  0  0  0  0
    4.7552   -0.9996    1.0640 C   0  0  0  0  0  0  0  0  0  0  0  0
    3.3703   -0.7920    1.1223 C   0  0  0  0  0  0  0  0  0  0  0  0
    2.7695    0.2508    0.4058 C   0  0  0  0  0  0  0  0  0  0  0  0
    1.3176    0.4796    0.4126 C   0  0  0  0  0  0  0  0  0  0  0  0
    0.5392    0.2928    1.4904 C   0  0  0  0  0  0  0  0  0  0  0  0
   -0.9221    0.5709    1.5021 C   0  0  0  0  0  0  0  0  0  0  0  0
   -1.4190    1.0512    2.5118 O   0  0  0  0  0  0  0  0  0  0  0  0
   -1.5786    0.1719    0.3558 N   0  0  0  0  0  0  0  0  0  0  0  0
   -2.9199    0.2976    0.0341 C   0  0  0  0  0  0  0  0  0  0  0  0
   -3.7818    0.9465    0.8250 C   0  0  0  0  0  0  0  0  0  0  0  0
   -5.1965    1.0785    0.4619 C   0  0  0  0  0  0  0  0  0  0  0  0
   -5.9373    1.7426    1.1827 O   0  0  0  0  0  0  0  0  0  0  0  0
   -5.5891    0.4381   -0.6886 N   0  0  0  0  0  0  0  0  0  0  0  0
   -6.9815    0.5281   -1.0852 C   0  0  0  0  0  0  0  0  0  0  0  0
   -4.7142   -0.1899   -1.5599 C   0  0  0  0  0  0  0  0  0  0  0  0
   -5.1037   -0.6590   -2.6322 O   0  0  0  0  0  0  0  0  0  0  0  0
   -3.3743   -0.2551   -1.1608 N   0  0  0  0  0  0  0  0  0  0  0  0
   -2.4597   -0.9410   -2.0695 C   0  0  0  0  0  0  0  0  0  0  0  0
    3.5788    1.0670   -0.3916 C   0  0  0  0  0  0  0  0  0  0  0  0
    4.9602    0.8583   -0.4485 C   0  0  0  0  0  0  0  0  0  0  0  0
    7.4353   -1.1252    1.9594 H   0  0  0  0  0  0  0  0  0  0  0  0
    7.2388   -2.2746    0.5789 H   0  0  0  0  0  0  0  0  0  0  0  0
    8.6438   -1.2056    0.6714 H   0  0  0  0  0  0  0  0  0  0  0  0
    5.1717   -1.8191    1.6403 H   0  0  0  0  0  0  0  0  0  0  0  0
    2.7730   -1.4665    1.7312 H   0  0  0  0  0  0  0  0  0  0  0  0
    0.9043    0.8661   -0.5160 H   0  0  0  0  0  0  0  0  0  0  0  0
    0.9425    0.0125    2.4582 H   0  0  0  0  0  0  0  0  0  0  0  0
   -1.0073   -0.3241   -0.3097 H   0  0  0  0  0  0  0  0  0  0  0  0
   -3.5198    1.4241    1.7591 H   0  0  0  0  0  0  0  0  0  0  0  0
   -7.6278    0.8018   -0.2467 H   0  0  0  0  0  0  0  0  0  0  0  0
   -7.0693    1.2888   -1.8675 H   0  0  0  0  0  0  0  0  0  0  0  0
   -7.3191   -0.4310   -1.4909 H   0  0  0  0  0  0  0  0  0  0  0  0
   -2.0161   -1.7990   -1.5538 H   0  0  0  0  0  0  0  0  0  0  0  0
   -1.6776   -0.2438   -2.3879 H   0  0  0  0  0  0  0  0  0  0  0  0
   -2.9548   -1.3162   -2.9691 H   0  0  0  0  0  0  0  0  0  0  0  0
    3.1501    1.8825   -0.9698 H   0  0  0  0  0  0  0  0  0  0  0  0
    5.5773    1.5071   -1.0658 H   0  0  0  0  0  0  0  0  0  0  0  0
  1  2  1  0
  2  3  1  0
  3  4  2  0
  4  5  1  0
  5  6  2  0
  6  7  1  0
  7  8  2  3
  8  9  1  0
  9 10  2  0
  9 11  1  0
 11 12  1  0
 12 13  2  0
 13 14  1  0
 14 15  2  0
 14 16  1  0
 16 17  1  0
 16 18  1  0
 18 19  2  0
 18 20  1  0
 20 21  1  0
  6 22  1  0
 22 23  2  0
 23  3  1  0
 20 12  1  0
  1 24  1  0
  1 25  1  0
  1 26  1  0
  4 27  1  0
  5 28  1  0
  7 29  1  0
  8 30  1  0
 11 31  1  0
 13 32  1  0
 17 33  1  0
 17 34  1  0
 17 35  1  0
 21 36  1  0
 21 37  1  0
 21 38  1  0
 22 39  1  0
 23 40  1  0
M  END
$$$$
