
     RDKit          3D

 33 34  0  0  0  0  0  0  0  0999 V2000
   -4.3462    1.5216    0.4972 C   0  0  0  0  0  0  0  0  0  0  0  0
   -3.6862    0.3450   -0.1616 C   0  0  0  0  0  0  0  0  0  0  0  0
   -4.4554   -0.6743   -0.7335 C   0  0  0  0  0  0  0  0  0  0  0  0
   -3.8368   -1.7627   -1.3474 C   0  0  0  0  0  0  0  0  0  0  0  0
   -2.4471   -1.8311   -1.4065 C   0  0  0  0  0  0  0  0  0  0  0  0
   -1.9268   -2.9422   -2.0171 O   0  0  0  0  0  0  0  0  0  0  0  0
   -1.6539   -0.8049   -0.8704 C   0  0  0  0  0  0  0  0  0  0  0  0
   -0.1681   -0.8907   -0.9827 C   0  0  0  0  0  0  0  0  0  0  0  0
    0.3436   -1.9747   -1.2778 O   0  0  0  0  0  0  0  0  0  0  0  0
    0.6922    0.3274   -0.7643 C   0  0  0  0  0  0  0  0  0  0  0  0
    1.2000    0.4153    0.6502 C   0  0  0  0  0  0  0  0  0  0  0  0
    0.4523    0.3905    1.6244 O   0  0  0  0  0  0  0  0  0  0  0  0
    2.6592    0.4760    0.8721 C   0  0  0  0  0  0  0  0  0  0  0  0
    3.2215   -0.5282    1.6719 C   0  0  0  0  0  0  0  0  0  0  0  0
    4.5950   -0.5392    1.9155 C   0  0  0  0  0  0  0  0  0  0  0  0
    5.4064    0.4550    1.3706 C   0  0  0  0  0  0  0  0  0  0  0  0
    4.8446    1.4675    0.5893 C   0  0  0  0  0  0  0  0  0  0  0  0
    3.4684    1.4855    0.3415 C   0  0  0  0  0  0  0  0  0  0  0  0
    2.8355    2.8038   -0.5761 Cl  0  0  0  0  0  0  0  0  0  0  0  0
   -2.2854    0.2781   -0.2419 C   0  0  0  0  0  0  0  0  0  0  0  0
   -4.3637    2.3731   -0.1897 H   0  0  0  0  0  0  0  0  0  0  0  0
   -5.3753    1.2868    0.7887 H   0  0  0  0  0  0  0  0  0  0  0  0
   -3.8071    1.8060    1.4067 H   0  0  0  0  0  0  0  0  0  0  0  0
   -5.5420   -0.6349   -0.6950 H   0  0  0  0  0  0  0  0  0  0  0  0
   -4.4365   -2.5612   -1.7764 H   0  0  0  0  0  0  0  0  0  0  0  0
   -0.9529   -2.9307   -1.8809 H   0  0  0  0  0  0  0  0  0  0  0  0
    1.5258    0.2507   -1.4726 H   0  0  0  0  0  0  0  0  0  0  0  0
    0.1604    1.2469   -1.0246 H   0  0  0  0  0  0  0  0  0  0  0  0
    2.5906   -1.3031    2.1045 H   0  0  0  0  0  0  0  0  0  0  0  0
    5.0310   -1.3213    2.5332 H   0  0  0  0  0  0  0  0  0  0  0  0
    6.4772    0.4480    1.5633 H   0  0  0  0  0  0  0  0  0  0  0  0
    5.4875    2.2473    0.1866 H   0  0  0  0  0  0  0  0  0  0  0  0
   -1.7076    1.0748    0.2197 H   0  0  0  0  0  0  0  0  0  0  0  0
  1  2  1  0
  2  3  2  0
  3  4  1  0
  4  5  2  0
  5  6  1  0
  5  7  1  0
  7  8  1  0
  8  9  2  0
  8 10  1  0
 10 11  1  0
 11 12  2  0
 11 13  1  0
 13 14  2  0
 14 15  1  0
 15 16  2  0
 16 17  1  0
 17 18  2  0
 18 19  1  0
  7 20  2  0
 20  2  1  0
 18 13  1  0
  1 21  1  0
  1 22  1  0
  1 23  1  0
  3 24  1  0
  4 25  1  0
  6 26  1  0
 10 27  1  0
 10 28  1  0
 14 29  1  0
 15 30  1  0
 16 31  1  0
 17 32  1  0
 20 33  1  0
M  END
$$$$
