
     RDKit          3D

 31 32  0  0  0  0  0  0  0  0999 V2000
   -2.5010    0.3029    2.2935 C   0  0  0  0  0  0  0  0  0  0  0  0
   -2.3708    0.8730    0.8883 C   0  0  0  0  0  0  0  0  0  0  0  0
   -1.7216   -0.0895   -0.0139 N   0  0  0  0  0  0  0  0  0  0  0  0
   -2.6293   -0.9796   -0.7515 C   0  0  0  0  0  0  0  0  0  0  0  0
   -2.9934   -0.3879   -2.1057 C   0  0  0  0  0  0  0  0  0  0  0  0
   -0.3410   -0.1546   -0.1561 C   0  0  0  0  0  0  0  0  0  0  0  0
    0.2811   -0.9835   -1.1054 C   0  0  0  0  0  0  0  0  0  0  0  0
    1.6791   -1.0570   -1.2583 C   0  0  0  0  0  0  0  0  0  0  0  0
    2.5313   -0.2961   -0.4583 C   0  0  0  0  0  0  0  0  0  0  0  0
    3.9971   -0.3008   -0.5375 C   0  0  0  0  0  0  0  0  0  0  0  0
    4.7385   -1.3355   -1.7238 Cl  0  0  0  0  0  0  0  0  0  0  0  0
    4.7336    0.4707    0.2820 C   0  0  0  0  0  0  0  0  0  0  0  0
    6.6172    0.5315    0.2545 Br  0  0  0  0  0  0  0  0  0  0  0  0
    4.0790    1.3486    1.2900 C   0  0  0  0  0  0  0  0  0  0  0  0
    4.7115    2.0675    2.0571 O   0  0  0  0  0  0  0  0  0  0  0  0
    2.6924    1.3297    1.3380 O   0  0  0  0  0  0  0  0  0  0  0  0
    1.9259    0.5233    0.4799 C   0  0  0  0  0  0  0  0  0  0  0  0
    0.5342    0.6014    0.6358 C   0  0  0  0  0  0  0  0  0  0  0  0
   -3.0878   -0.6215    2.2900 H   0  0  0  0  0  0  0  0  0  0  0  0
   -3.0048    1.0217    2.9473 H   0  0  0  0  0  0  0  0  0  0  0  0
   -1.5246    0.0735    2.7308 H   0  0  0  0  0  0  0  0  0  0  0  0
   -1.8474    1.8356    0.9020 H   0  0  0  0  0  0  0  0  0  0  0  0
   -3.3763    1.1074    0.5157 H   0  0  0  0  0  0  0  0  0  0  0  0
   -2.2118   -1.9865   -0.8625 H   0  0  0  0  0  0  0  0  0  0  0  0
   -3.5535   -1.1227   -0.1770 H   0  0  0  0  0  0  0  0  0  0  0  0
   -2.1114   -0.2460   -2.7374 H   0  0  0  0  0  0  0  0  0  0  0  0
   -3.6856   -1.0512   -2.6338 H   0  0  0  0  0  0  0  0  0  0  0  0
   -3.4790    0.5869   -1.9911 H   0  0  0  0  0  0  0  0  0  0  0  0
   -0.3083   -1.6018   -1.7767 H   0  0  0  0  0  0  0  0  0  0  0  0
    2.0641   -1.7270   -2.0237 H   0  0  0  0  0  0  0  0  0  0  0  0
    0.1624    1.2675    1.4076 H   0  0  0  0  0  0  0  0  0  0  0  0
  1  2  1  0
  2  3  1  0
  3  4  1  0
  4  5  1  0
  3  6  1  0
  6  7  2  0
  7  8  1  0
  8  9  2  0
  9 10  1  0
 10 11  1  0
 10 12  2  0
 12 13  1  0
 12 14  1  0
 14 15  2  0
 14 16  1  0
 16 17  1  0
 17 18  2  0
 18  6  1  0
 17  9  1  0
  1 19  1  0
  1 20  1  0
  1 21  1  0
  2 22  1  0
  2 23  1  0
  4 24  1  0
  4 25  1  0
  5 26  1  0
  5 27  1  0
  5 28  1  0
  7 29  1  0
  8 30  1  0
 18 31  1  0
M  END
$$$$
