
     RDKit          3D

 42 43  0  0  0  0  0  0  0  0999 V2000
   -5.6795    1.5229   -1.2007 C   0  0  0  0  0  0  0  0  0  0  0  0
   -4.5595    0.5554   -1.0001 C   0  0  0  0  0  0  0  0  0  0  0  0
   -4.0664    0.0595    0.1559 C   0  0  0  0  0  0  0  0  0  0  0  0
   -4.5902    0.3910    1.5296 C   0  0  0  0  0  0  0  0  0  0  0  0
   -2.9045   -0.9250    0.1516 C   0  0  0  0  0  0  0  0  0  0  0  0
   -1.7742   -0.5090   -0.6930 N   0  0  0  0  0  0  0  0  0  0  0  0
   -1.1366    0.7208   -0.1618 C   0  0  0  0  0  0  0  0  0  0  0  0
    0.3565    0.8792   -0.5319 C   0  0  0  0  0  0  0  0  0  0  0  0
    1.1396   -0.2462    0.0034 N   0  0  0  0  0  0  0  0  0  0  0  0
    2.5078   -0.1565    0.2011 C   0  0  0  0  0  0  0  0  0  0  0  0
    3.2791    0.8728   -0.3604 C   0  0  0  0  0  0  0  0  0  0  0  0
    4.6637    0.9643   -0.1591 C   0  0  0  0  0  0  0  0  0  0  0  0
    5.3285    0.0259    0.6313 C   0  0  0  0  0  0  0  0  0  0  0  0
    6.8124    0.0966    0.8305 C   0  0  0  0  0  0  0  0  0  0  0  0
    4.5859   -1.0098    1.1985 C   0  0  0  0  0  0  0  0  0  0  0  0
    3.2016   -1.0911    0.9872 C   0  0  0  0  0  0  0  0  0  0  0  0
    0.4401   -1.5391    0.1002 C   0  0  0  0  0  0  0  0  0  0  0  0
   -0.7808   -1.5925   -0.8501 C   0  0  0  0  0  0  0  0  0  0  0  0
   -5.3361    2.3549   -1.8270 H   0  0  0  0  0  0  0  0  0  0  0  0
   -6.0644    1.9528   -0.2726 H   0  0  0  0  0  0  0  0  0  0  0  0
   -6.5057    1.0267   -1.7207 H   0  0  0  0  0  0  0  0  0  0  0  0
   -4.0963    0.2197   -1.9313 H   0  0  0  0  0  0  0  0  0  0  0  0
   -4.9868   -0.5120    2.0072 H   0  0  0  0  0  0  0  0  0  0  0  0
   -3.7828    0.7885    2.1546 H   0  0  0  0  0  0  0  0  0  0  0  0
   -5.3858    1.1362    1.5282 H   0  0  0  0  0  0  0  0  0  0  0  0
   -2.5596   -1.1180    1.1769 H   0  0  0  0  0  0  0  0  0  0  0  0
   -3.3110   -1.8789   -0.2138 H   0  0  0  0  0  0  0  0  0  0  0  0
   -1.6840    1.5965   -0.5321 H   0  0  0  0  0  0  0  0  0  0  0  0
   -1.2012    0.7392    0.9359 H   0  0  0  0  0  0  0  0  0  0  0  0
    0.7001    1.8273   -0.0987 H   0  0  0  0  0  0  0  0  0  0  0  0
    0.4745    0.9371   -1.6215 H   0  0  0  0  0  0  0  0  0  0  0  0
    2.8197    1.6231   -0.9970 H   0  0  0  0  0  0  0  0  0  0  0  0
    5.2131    1.7748   -0.6331 H   0  0  0  0  0  0  0  0  0  0  0  0
    7.3139   -0.5956    0.1452 H   0  0  0  0  0  0  0  0  0  0  0  0
    7.1900    1.1086    0.6389 H   0  0  0  0  0  0  0  0  0  0  0  0
    7.0773   -0.1660    1.8601 H   0  0  0  0  0  0  0  0  0  0  0  0
    5.0713   -1.7607    1.8185 H   0  0  0  0  0  0  0  0  0  0  0  0
    2.6685   -1.9019    1.4762 H   0  0  0  0  0  0  0  0  0  0  0  0
    0.1158   -1.6999    1.1360 H   0  0  0  0  0  0  0  0  0  0  0  0
    1.1034   -2.3665   -0.1815 H   0  0  0  0  0  0  0  0  0  0  0  0
   -0.4044   -1.5244   -1.8802 H   0  0  0  0  0  0  0  0  0  0  0  0
   -1.2531   -2.5808   -0.7823 H   0  0  0  0  0  0  0  0  0  0  0  0
  1  2  1  0
  2  3  2  3
  3  4  1  0
  3  5  1  0
  5  6  1  0
  6  7  1  0
  7  8  1  0
  8  9  1  0
  9 10  1  0
 10 11  2  0
 11 12  1  0
 12 13  2  0
 13 14  1  0
 13 15  1  0
 15 16  2  0
  9 17  1  0
 17 18  1  0
 18  6  1  0
 16 10  1  0
  1 19  1  0
  1 20  1  0
  1 21  1  0
  2 22  1  0
  4 23  1  0
  4 24  1  0
  4 25  1  0
  5 26  1  0
  5 27  1  0
  7 28  1  0
  7 29  1  0
  8 30  1  0
  8 31  1  0
 11 32  1  0
 12 33  1  0
 14 34  1  0
 14 35  1  0
 14 36  1  0
 15 37  1  0
 16 38  1  0
 17 39  1  0
 17 40  1  0
 18 41  1  0
 18 42  1  0
M  END
$$$$
