
     RDKit          3D

 46 49  0  0  0  0  0  0  0  0999 V2000
    4.2927    0.0378    1.2980 O   0  0  0  0  0  0  0  0  0  0  0  0
    3.0965   -0.1971    1.4078 C   0  0  0  0  0  0  0  0  0  0  0  0
    2.1752    0.5541    2.3627 C   0  0  0  0  0  0  0  0  0  0  0  0
    0.7518    0.4227    1.9927 N   0  0  0  0  0  4  0  0  0  0  0  0
    0.1239    1.0045    0.8894 C   0  0  0  0  0  0  0  0  0  0  0  0
   -1.1610    0.4844    0.7800 C   0  0  0  0  0  0  0  0  0  0  0  0
   -2.1885    0.7760   -0.3755 C   0  0  0  0  0  0  0  0  0  0  0  0
   -3.4417    0.1600   -0.3899 C   0  0  0  0  0  0  0  0  0  0  0  0
   -4.3391    0.4113   -1.4342 C   0  0  0  0  0  0  0  0  0  0  0  0
   -3.9894    1.2736   -2.4774 C   0  0  0  0  0  0  0  0  0  0  0  0
   -5.1443    1.5284   -3.7346 Cl  0  0  0  0  0  0  0  0  0  0  0  0
   -2.7342    1.8881   -2.4699 C   0  0  0  0  0  0  0  0  0  0  0  0
   -2.2126    2.9541   -3.7252 Cl  0  0  0  0  0  0  0  0  0  0  0  0
   -1.8379    1.6425   -1.4193 C   0  0  0  0  0  0  0  0  0  0  0  0
   -1.2669   -0.3395    1.8880 N   0  0  0  0  0  0  0  0  0  0  0  0
   -0.1230   -0.3939    2.5635 C   0  0  0  0  0  0  0  0  0  0  0  0
   -0.1569   -1.3355    3.7053 C   0  0  0  0  0  0  0  0  0  0  0  0
   -1.6634   -1.6321    3.8310 C   0  0  0  0  0  0  0  0  0  0  0  0
   -2.2721   -1.2260    2.4604 C   0  0  0  0  0  0  0  0  0  0  0  0
    2.4053   -1.1369    0.7015 O   0  0  0  0  0  0  0  0  0  0  0  0
    3.0397   -1.6054   -0.4991 C   0  0  0  0  0  0  0  0  0  0  0  0
    2.6002   -0.6987   -1.6223 C   0  0  0  0  0  0  0  0  0  0  0  0
    3.3906    0.4009   -1.9870 C   0  0  0  0  0  0  0  0  0  0  0  0
    2.9696    1.2717   -2.9927 C   0  0  0  0  0  0  0  0  0  0  0  0
    1.7562    1.0522   -3.6428 C   0  0  0  0  0  0  0  0  0  0  0  0
    0.9602   -0.0370   -3.2878 C   0  0  0  0  0  0  0  0  0  0  0  0
    1.3747   -0.9048   -2.2761 C   0  0  0  0  0  0  0  0  0  0  0  0
    2.4261    1.6179    2.3342 H   0  0  0  0  0  0  0  0  0  0  0  0
    2.3192    0.1654    3.3743 H   0  0  0  0  0  0  0  0  0  0  0  0
    0.6955    1.6841    0.2820 H   0  0  0  0  0  0  0  0  0  0  0  0
   -3.7555   -0.5215    0.3892 H   0  0  0  0  0  0  0  0  0  0  0  0
   -5.3151   -0.0733   -1.4307 H   0  0  0  0  0  0  0  0  0  0  0  0
   -0.8675    2.1334   -1.4494 H   0  0  0  0  0  0  0  0  0  0  0  0
    0.4211   -2.2126    3.4059 H   0  0  0  0  0  0  0  0  0  0  0  0
    0.2655   -0.8456    4.5831 H   0  0  0  0  0  0  0  0  0  0  0  0
   -1.8725   -2.6729    4.0983 H   0  0  0  0  0  0  0  0  0  0  0  0
   -2.0905   -0.9915    4.6111 H   0  0  0  0  0  0  0  0  0  0  0  0
   -3.2232   -0.7044    2.5918 H   0  0  0  0  0  0  0  0  0  0  0  0
   -2.3880   -2.0973    1.8083 H   0  0  0  0  0  0  0  0  0  0  0  0
    2.6893   -2.6266   -0.6835 H   0  0  0  0  0  0  0  0  0  0  0  0
    4.1333   -1.6561   -0.4087 H   0  0  0  0  0  0  0  0  0  0  0  0
    4.3467    0.5809   -1.4963 H   0  0  0  0  0  0  0  0  0  0  0  0
    3.5998    2.1113   -3.2837 H   0  0  0  0  0  0  0  0  0  0  0  0
    1.4427    1.7204   -4.4408 H   0  0  0  0  0  0  0  0  0  0  0  0
    0.0255   -0.2149   -3.8159 H   0  0  0  0  0  0  0  0  0  0  0  0
    0.7423   -1.7519   -2.0158 H   0  0  0  0  0  0  0  0  0  0  0  0
  1  2  2  0
  2  3  1  0
  3  4  1  0
  4  5  1  0
  5  6  2  0
  6  7  1  0
  7  8  2  0
  8  9  1  0
  9 10  2  0
 10 11  1  0
 10 12  1  0
 12 13  1  0
 12 14  2  0
  6 15  1  0
 15 16  1  0
 16 17  1  0
 17 18  1  0
 18 19  1  0
  2 20  1  0
 20 21  1  0
 21 22  1  0
 22 23  2  0
 23 24  1  0
 24 25  2  0
 25 26  1  0
 26 27  2  0
 16  4  2  0
 27 22  1  0
 14  7  1  0
 19 15  1  0
  3 28  1  0
  3 29  1  0
  5 30  1  0
  8 31  1  0
  9 32  1  0
 14 33  1  0
 17 34  1  0
 17 35  1  0
 18 36  1  0
 18 37  1  0
 19 38  1  0
 19 39  1  0
 21 40  1  0
 21 41  1  0
 23 42  1  0
 24 43  1  0
 25 44  1  0
 26 45  1  0
 27 46  1  0
M  CHG  1   4   1
M  END
$$$$
