
     RDKit          3D

 39 42  0  0  0  0  0  0  0  0999 V2000
    6.0495    0.0814   -0.9110 C   0  0  0  0  0  0  0  0  0  0  0  0
    5.8051   -0.8469    0.1157 C   0  0  0  0  0  0  0  0  0  0  0  0
    4.4986   -1.2103    0.4589 C   0  0  0  0  0  0  0  0  0  0  0  0
    3.4502   -0.6331   -0.2375 C   0  0  0  0  0  0  0  0  0  0  0  0
    3.7030    0.2989   -1.2677 C   0  0  0  0  0  0  0  0  0  0  0  0
    4.9933    0.6642   -1.6140 C   0  0  0  0  0  0  0  0  0  0  0  0
    2.3995    0.7815   -1.8702 C   0  0  0  0  0  0  0  0  0  0  0  0
    1.3747    0.0131   -1.0600 C   0  0  0  0  0  0  0  0  0  0  0  0
   -0.0066    0.0532   -1.1698 C   0  0  0  0  0  0  0  0  0  0  0  0
   -0.7691   -0.7484   -0.3059 C   0  0  0  0  0  0  0  0  0  0  0  0
   -2.2828   -0.7438   -0.3919 C   0  0  0  0  0  0  0  0  0  0  0  0
   -2.9363   -0.3123    0.8535 N   0  0  0  0  0  0  0  0  0  0  0  0
   -2.6021    1.0924    1.1858 C   0  0  0  0  0  0  0  0  0  0  0  0
   -3.6722    1.7404    2.0765 C   0  0  0  0  0  0  0  0  0  0  0  0
   -4.9466    1.8379    1.4240 O   0  0  0  0  0  0  0  0  0  0  0  0
   -5.1707    0.7914    0.4700 C   0  0  0  0  0  0  0  0  0  0  0  0
   -4.4015   -0.4985    0.7943 C   0  0  0  0  0  0  0  0  0  0  0  0
   -0.1177   -1.5712    0.6424 C   0  0  0  0  0  0  0  0  0  0  0  0
    1.2775   -1.6041    0.7450 C   0  0  0  0  0  0  0  0  0  0  0  0
    2.0186   -0.8086   -0.1104 C   0  0  0  0  0  0  0  0  0  0  0  0
    7.0744    0.3477   -1.1591 H   0  0  0  0  0  0  0  0  0  0  0  0
    6.6434   -1.2881    0.6498 H   0  0  0  0  0  0  0  0  0  0  0  0
    4.3204   -1.9274    1.2527 H   0  0  0  0  0  0  0  0  0  0  0  0
    5.1825    1.3807   -2.4061 H   0  0  0  0  0  0  0  0  0  0  0  0
    2.3383    0.5103   -2.9281 H   0  0  0  0  0  0  0  0  0  0  0  0
    2.2803    1.8588   -1.7221 H   0  0  0  0  0  0  0  0  0  0  0  0
   -0.4807    0.6938   -1.9066 H   0  0  0  0  0  0  0  0  0  0  0  0
   -2.6158   -0.1272   -1.2373 H   0  0  0  0  0  0  0  0  0  0  0  0
   -2.5809   -1.7741   -0.6287 H   0  0  0  0  0  0  0  0  0  0  0  0
   -1.6365    1.1240    1.7021 H   0  0  0  0  0  0  0  0  0  0  0  0
   -2.5191    1.6939    0.2707 H   0  0  0  0  0  0  0  0  0  0  0  0
   -3.3684    2.7555    2.3520 H   0  0  0  0  0  0  0  0  0  0  0  0
   -3.8033    1.1765    3.0076 H   0  0  0  0  0  0  0  0  0  0  0  0
   -4.8939    1.1689   -0.5213 H   0  0  0  0  0  0  0  0  0  0  0  0
   -6.2470    0.5920    0.4518 H   0  0  0  0  0  0  0  0  0  0  0  0
   -4.6825   -1.2916    0.0913 H   0  0  0  0  0  0  0  0  0  0  0  0
   -4.7173   -0.8458    1.7863 H   0  0  0  0  0  0  0  0  0  0  0  0
   -0.7142   -2.1860    1.3148 H   0  0  0  0  0  0  0  0  0  0  0  0
    1.7558   -2.2392    1.4824 H   0  0  0  0  0  0  0  0  0  0  0  0
  1  2  2  0
  2  3  1  0
  3  4  2  0
  4  5  1  0
  5  6  2  0
  5  7  1  0
  7  8  1  0
  8  9  2  0
  9 10  1  0
 10 11  1  0
 11 12  1  0
 12 13  1  0
 13 14  1  0
 14 15  1  0
 15 16  1  0
 16 17  1  0
 10 18  2  0
 18 19  1  0
 19 20  2  0
  6  1  1  0
 20  8  1  0
 20  4  1  0
 17 12  1  0
  1 21  1  0
  2 22  1  0
  3 23  1  0
  6 24  1  0
  7 25  1  0
  7 26  1  0
  9 27  1  0
 11 28  1  0
 11 29  1  0
 13 30  1  0
 13 31  1  0
 14 32  1  0
 14 33  1  0
 16 34  1  0
 16 35  1  0
 17 36  1  0
 17 37  1  0
 18 38  1  0
 19 39  1  0
M  END
$$$$
