
     RDKit          3D

 37 37  0  0  0  0  0  0  0  0999 V2000
   -2.8635   -1.8173   -2.5649 C   0  0  0  0  0  0  0  0  0  0  0  0
   -2.4894   -1.4810   -1.2284 O   0  0  0  0  0  0  0  0  0  0  0  0
   -1.5899   -0.4603   -1.1468 C   0  0  0  0  0  0  0  0  0  0  0  0
   -1.1610    0.1808   -2.1003 O   0  0  0  0  0  0  0  0  0  0  0  0
   -1.2231   -0.1797    0.3152 C   0  0  0  0  0  0  0  0  0  0  0  0
   -2.1257    0.9126    0.8973 C   0  0  0  0  0  0  0  0  0  0  0  0
   -3.5567    0.4213    1.1135 C   0  0  0  0  0  0  0  0  0  0  0  0
   -4.5467    1.7306    1.9025 S   0  0  0  0  0  0  0  0  0  0  0  0
   -6.1171    0.8418    2.0325 C   0  0  0  0  0  0  0  0  0  0  0  0
    0.1759    0.2613    0.3461 N   0  0  0  0  0  0  0  0  0  0  0  0
    1.1717   -0.6817    0.3484 C   0  0  0  0  0  0  0  0  0  0  0  0
    0.9791   -1.8856    0.4349 O   0  0  0  0  0  0  0  0  0  0  0  0
    2.4027   -0.0977    0.2363 N   0  0  0  0  0  0  0  0  0  0  0  0
    3.5843   -0.9219    0.3368 C   0  0  0  0  0  0  0  0  0  0  0  0
    4.7723   -0.0780    0.0090 C   0  0  0  0  0  0  0  0  0  0  0  0
    5.2844    0.2291   -1.2372 C   0  0  0  0  0  0  0  0  0  0  0  0
    6.4324    1.0690   -1.1606 C   0  0  0  0  0  0  0  0  0  0  0  0
    6.7588    1.3770    0.1408 C   0  0  0  0  0  0  0  0  0  0  0  0
    5.6844    0.6582    1.2598 S   0  0  0  0  0  0  0  0  0  0  0  0
   -3.3765   -0.9756   -3.0406 H   0  0  0  0  0  0  0  0  0  0  0  0
   -1.9862   -2.1171   -3.1466 H   0  0  0  0  0  0  0  0  0  0  0  0
   -3.5546   -2.6635   -2.5203 H   0  0  0  0  0  0  0  0  0  0  0  0
   -1.3056   -1.1059    0.8958 H   0  0  0  0  0  0  0  0  0  0  0  0
   -1.7028    1.2420    1.8562 H   0  0  0  0  0  0  0  0  0  0  0  0
   -2.1253    1.7880    0.2337 H   0  0  0  0  0  0  0  0  0  0  0  0
   -4.0278    0.1658    0.1602 H   0  0  0  0  0  0  0  0  0  0  0  0
   -3.5606   -0.4631    1.7587 H   0  0  0  0  0  0  0  0  0  0  0  0
   -5.9989   -0.0509    2.6522 H   0  0  0  0  0  0  0  0  0  0  0  0
   -6.4765    0.5571    1.0403 H   0  0  0  0  0  0  0  0  0  0  0  0
   -6.8616    1.4926    2.4986 H   0  0  0  0  0  0  0  0  0  0  0  0
    0.3862    1.0396   -0.2680 H   0  0  0  0  0  0  0  0  0  0  0  0
    2.4678    0.8223    0.6472 H   0  0  0  0  0  0  0  0  0  0  0  0
    3.4972   -1.7606   -0.3636 H   0  0  0  0  0  0  0  0  0  0  0  0
    3.6346   -1.3370    1.3498 H   0  0  0  0  0  0  0  0  0  0  0  0
    4.8503   -0.1322   -2.1625 H   0  0  0  0  0  0  0  0  0  0  0  0
    6.9899    1.4290   -2.0167 H   0  0  0  0  0  0  0  0  0  0  0  0
    7.5774    1.9910    0.4908 H   0  0  0  0  0  0  0  0  0  0  0  0
  1  2  1  0
  2  3  1  0
  3  4  2  0
  3  5  1  0
  5  6  1  0
  6  7  1  0
  7  8  1  0
  8  9  1  0
  5 10  1  0
 10 11  1  0
 11 12  2  0
 11 13  1  0
 13 14  1  0
 14 15  1  0
 15 16  2  0
 16 17  1  0
 17 18  2  0
 18 19  1  0
 19 15  1  0
  1 20  1  0
  1 21  1  0
  1 22  1  0
  5 23  1  0
  6 24  1  0
  6 25  1  0
  7 26  1  0
  7 27  1  0
  9 28  1  0
  9 29  1  0
  9 30  1  0
 10 31  1  0
 13 32  1  0
 14 33  1  0
 14 34  1  0
 16 35  1  0
 17 36  1  0
 18 37  1  0
M  END
$$$$
