
     RDKit          3D

 35 37  0  0  0  0  0  0  0  0999 V2000
   -1.4672   -1.6682    1.5529 C   0  0  0  0  0  0  0  0  0  0  0  0
   -1.5169   -0.4952    0.5769 C   0  0  0  0  0  0  0  0  0  0  0  0
   -2.3039    0.5502    1.1452 O   0  0  0  0  0  0  0  0  0  0  0  0
   -3.6134    0.6637    0.7765 C   0  0  0  0  0  0  0  0  0  0  0  0
   -4.1845    1.9119    1.0424 C   0  0  0  0  0  0  0  0  0  0  0  0
   -5.5209    2.1672    0.7278 C   0  0  0  0  0  0  0  0  0  0  0  0
   -6.2928    1.1627    0.1520 C   0  0  0  0  0  0  0  0  0  0  0  0
   -8.1030    1.4959   -0.2765 Br  0  0  0  0  0  0  0  0  0  0  0  0
   -5.7395   -0.0903   -0.1049 C   0  0  0  0  0  0  0  0  0  0  0  0
   -4.3994   -0.3413    0.2114 C   0  0  0  0  0  0  0  0  0  0  0  0
   -0.0815    0.0278    0.3288 C   0  0  0  0  0  0  0  0  0  0  0  0
    0.2982    1.1164    0.7491 O   0  0  0  0  0  0  0  0  0  0  0  0
    0.6763   -0.8605   -0.4118 N   0  0  0  0  0  0  0  0  0  0  0  0
    1.9849   -0.7092   -0.7980 C   0  0  0  0  0  0  0  0  0  0  0  0
    2.5990   -1.6200   -1.5224 N   0  0  0  0  0  0  0  0  0  0  0  0
    3.9079   -1.2708   -1.7962 N   0  0  0  0  0  0  0  0  0  0  0  0
    4.2179   -0.1141   -1.2545 C   0  0  0  0  0  0  0  0  0  0  0  0
    5.6302    0.5279   -1.4109 C   0  0  0  0  0  0  0  0  0  0  0  0
    6.8513   -0.3535   -1.3366 C   0  0  0  0  0  0  0  0  0  0  0  0
    6.5466    0.5966   -0.2156 C   0  0  0  0  0  0  0  0  0  0  0  0
    2.9488    0.6353   -0.3919 S   0  0  0  0  0  0  0  0  0  0  0  0
   -0.9954   -1.3659    2.4951 H   0  0  0  0  0  0  0  0  0  0  0  0
   -0.8995   -2.5112    1.1473 H   0  0  0  0  0  0  0  0  0  0  0  0
   -2.4727   -2.0198    1.8036 H   0  0  0  0  0  0  0  0  0  0  0  0
   -1.9036   -0.8049   -0.4021 H   0  0  0  0  0  0  0  0  0  0  0  0
   -3.5785    2.6946    1.4943 H   0  0  0  0  0  0  0  0  0  0  0  0
   -5.9433    3.1460    0.9374 H   0  0  0  0  0  0  0  0  0  0  0  0
   -6.3433   -0.8803   -0.5442 H   0  0  0  0  0  0  0  0  0  0  0  0
   -4.0114   -1.3355    0.0198 H   0  0  0  0  0  0  0  0  0  0  0  0
    0.2671   -1.7215   -0.7471 H   0  0  0  0  0  0  0  0  0  0  0  0
    5.6625    1.3519   -2.1156 H   0  0  0  0  0  0  0  0  0  0  0  0
    6.7134   -1.4145   -1.1584 H   0  0  0  0  0  0  0  0  0  0  0  0
    7.6817   -0.1212   -1.9932 H   0  0  0  0  0  0  0  0  0  0  0  0
    6.2130    0.1744    0.7257 H   0  0  0  0  0  0  0  0  0  0  0  0
    7.1721    1.4753   -0.1086 H   0  0  0  0  0  0  0  0  0  0  0  0
  1  2  1  0
  2  3  1  0
  3  4  1  0
  4  5  2  0
  5  6  1  0
  6  7  2  0
  7  8  1  0
  7  9  1  0
  9 10  2  0
  2 11  1  0
 11 12  2  0
 11 13  1  0
 13 14  1  0
 14 15  2  0
 15 16  1  0
 16 17  2  0
 17 18  1  0
 18 19  1  0
 19 20  1  0
 17 21  1  0
 10  4  1  0
 21 14  1  0
 20 18  1  0
  1 22  1  0
  1 23  1  0
  1 24  1  0
  2 25  1  0
  5 26  1  0
  6 27  1  0
  9 28  1  0
 10 29  1  0
 13 30  1  0
 18 31  1  0
 19 32  1  0
 19 33  1  0
 20 34  1  0
 20 35  1  0
M  END
$$$$
