
     RDKit          3D

 43 45  0  0  0  0  0  0  0  0999 V2000
    2.3841   -1.8549    1.8747 O   0  0  0  0  0  0  0  0  0  0  0  0
    2.6321   -0.6557    1.9668 C   0  0  0  0  0  0  0  0  0  0  0  0
    4.0155   -0.1827    2.3977 C   0  0  0  0  0  0  0  0  0  0  0  0
    4.6460    1.1580    1.3248 S   0  0  0  0  0  0  0  0  0  0  0  0
    4.7730    0.2792   -0.2266 C   0  0  0  0  0  0  0  0  0  0  0  0
    4.0399    0.7423   -1.3252 C   0  0  0  0  0  0  0  0  0  0  0  0
    4.1143    0.0802   -2.5546 C   0  0  0  0  0  0  0  0  0  0  0  0
    4.9282   -1.0436   -2.6988 C   0  0  0  0  0  0  0  0  0  0  0  0
    5.6724   -1.5039   -1.6145 C   0  0  0  0  0  0  0  0  0  0  0  0
    5.5942   -0.8414   -0.3917 C   0  0  0  0  0  0  0  0  0  0  0  0
    6.3351   -1.3001    0.6288 F   0  0  0  0  0  0  0  0  0  0  0  0
    1.7356    0.3830    1.7721 N   0  0  0  0  0  0  0  0  0  0  0  0
    0.3820    0.3004    1.3962 C   0  0  0  0  0  0  0  0  0  0  0  0
   -0.3026    1.5008    1.2007 C   0  0  0  0  0  0  0  0  0  0  0  0
   -1.6518    1.4991    0.8232 C   0  0  0  0  0  0  0  0  0  0  0  0
   -2.3625    0.3063    0.6221 C   0  0  0  0  0  0  0  0  0  0  0  0
   -3.7165    0.3604    0.2574 N   0  0  0  0  0  0  0  0  0  0  0  0
   -3.9625    1.0461   -1.0359 C   0  0  0  0  0  0  0  0  0  0  0  0
   -5.4712    1.2728   -1.2316 C   0  0  0  0  0  0  0  0  0  0  0  0
   -6.2112    0.0448   -1.1445 O   0  0  0  0  0  0  0  0  0  0  0  0
   -6.0043   -0.5609    0.1421 C   0  0  0  0  0  0  0  0  0  0  0  0
   -4.5191   -0.8767    0.3793 C   0  0  0  0  0  0  0  0  0  0  0  0
   -1.6625   -0.8868    0.8406 C   0  0  0  0  0  0  0  0  0  0  0  0
   -0.3093   -0.8933    1.2164 C   0  0  0  0  0  0  0  0  0  0  0  0
    3.9429    0.1950    3.4227 H   0  0  0  0  0  0  0  0  0  0  0  0
    4.7079   -1.0288    2.4017 H   0  0  0  0  0  0  0  0  0  0  0  0
    3.3987    1.6160   -1.2353 H   0  0  0  0  0  0  0  0  0  0  0  0
    3.5340    0.4418   -3.4005 H   0  0  0  0  0  0  0  0  0  0  0  0
    4.9829   -1.5582   -3.6550 H   0  0  0  0  0  0  0  0  0  0  0  0
    6.3140   -2.3741   -1.7116 H   0  0  0  0  0  0  0  0  0  0  0  0
    2.1262    1.3163    1.8443 H   0  0  0  0  0  0  0  0  0  0  0  0
    0.1917    2.4573    1.3459 H   0  0  0  0  0  0  0  0  0  0  0  0
   -2.1588    2.4548    0.7153 H   0  0  0  0  0  0  0  0  0  0  0  0
   -3.4622    2.0187   -1.0897 H   0  0  0  0  0  0  0  0  0  0  0  0
   -3.5802    0.4179   -1.8509 H   0  0  0  0  0  0  0  0  0  0  0  0
   -5.8616    1.9764   -0.4863 H   0  0  0  0  0  0  0  0  0  0  0  0
   -5.6558    1.7004   -2.2221 H   0  0  0  0  0  0  0  0  0  0  0  0
   -6.5895   -1.4854    0.1703 H   0  0  0  0  0  0  0  0  0  0  0  0
   -6.3955    0.1075    0.9186 H   0  0  0  0  0  0  0  0  0  0  0  0
   -4.4109   -1.3119    1.3795 H   0  0  0  0  0  0  0  0  0  0  0  0
   -4.1889   -1.6076   -0.3697 H   0  0  0  0  0  0  0  0  0  0  0  0
   -2.1420   -1.8522    0.7101 H   0  0  0  0  0  0  0  0  0  0  0  0
    0.1682   -1.8573    1.3606 H   0  0  0  0  0  0  0  0  0  0  0  0
  1  2  2  0
  2  3  1  0
  3  4  1  0
  4  5  1  0
  5  6  2  0
  6  7  1  0
  7  8  2  0
  8  9  1  0
  9 10  2  0
 10 11  1  0
  2 12  1  0
 12 13  1  0
 13 14  2  0
 14 15  1  0
 15 16  2  0
 16 17  1  0
 17 18  1  0
 18 19  1  0
 19 20  1  0
 20 21  1  0
 21 22  1  0
 16 23  1  0
 23 24  2  0
 10  5  1  0
 24 13  1  0
 22 17  1  0
  3 25  1  0
  3 26  1  0
  6 27  1  0
  7 28  1  0
  8 29  1  0
  9 30  1  0
 12 31  1  0
 14 32  1  0
 15 33  1  0
 18 34  1  0
 18 35  1  0
 19 36  1  0
 19 37  1  0
 21 38  1  0
 21 39  1  0
 22 40  1  0
 22 41  1  0
 23 42  1  0
 24 43  1  0
M  END
$$$$
