
     RDKit          3D

 48 51  0  0  0  0  0  0  0  0999 V2000
   -0.6219   -2.5895    0.5861 C   0  0  0  0  0  0  0  0  0  0  0  0
   -0.1926   -2.0302   -0.7625 C   0  0  0  0  0  0  0  0  0  0  0  0
   -0.8261   -0.7801   -1.1164 N   0  0  0  0  0  0  0  0  0  0  0  0
   -2.1080   -0.6463   -1.6014 C   0  0  0  0  0  0  0  0  0  0  0  0
   -3.2797   -1.9184   -1.6529 S   0  0  0  0  0  0  0  0  0  0  0  0
   -4.8286   -0.9678   -1.7473 C   0  0  0  0  0  0  0  0  0  0  0  0
   -5.3137   -0.5212   -0.3849 C   0  0  0  0  0  0  0  0  0  0  0  0
   -6.1480   -1.3543    0.3811 C   0  0  0  0  0  0  0  0  0  0  0  0
   -6.5998   -0.9425    1.6352 C   0  0  0  0  0  0  0  0  0  0  0  0
   -6.2112    0.2971    2.1316 C   0  0  0  0  0  0  0  0  0  0  0  0
   -6.6572    0.6982    3.3310 F   0  0  0  0  0  0  0  0  0  0  0  0
   -5.3757    1.1304    1.3978 C   0  0  0  0  0  0  0  0  0  0  0  0
   -4.9289    0.7236    0.1388 C   0  0  0  0  0  0  0  0  0  0  0  0
   -2.2856    0.5617   -2.0727 N   0  0  0  0  0  0  0  0  0  0  0  0
   -1.1146    1.2411   -1.9125 N   0  0  0  0  0  0  0  0  0  0  0  0
   -0.2360    0.4534   -1.3146 C   0  0  0  0  0  0  0  0  0  0  0  0
    1.2033    1.0105   -1.0425 C   0  0  0  0  0  0  0  0  0  0  0  0
    1.6334    2.2365   -1.5844 C   0  0  0  0  0  0  0  0  0  0  0  0
    2.8906    2.5232   -1.2649 N   0  0  0  0  0  0  0  0  0  0  0  0
    3.3324    1.4314   -0.5834 N   0  0  0  0  0  0  0  0  0  0  0  0
    4.7380    1.3045   -0.3482 C   0  0  0  0  0  0  0  0  0  0  0  0
    5.5517    2.4437   -0.4825 C   0  0  0  0  0  0  0  0  0  0  0  0
    6.9300    2.3655   -0.2730 C   0  0  0  0  0  0  0  0  0  0  0  0
    7.5143    1.1472    0.0595 C   0  0  0  0  0  0  0  0  0  0  0  0
    6.7228    0.0070    0.1693 C   0  0  0  0  0  0  0  0  0  0  0  0
    5.3413    0.0793   -0.0412 C   0  0  0  0  0  0  0  0  0  0  0  0
    2.2674    0.6024   -0.2542 C   0  0  0  0  0  0  0  0  0  0  0  0
    2.3493   -0.3408    0.8609 C   0  0  0  0  0  0  0  0  0  0  0  0
    1.1477   -0.4796    1.4735 F   0  0  0  0  0  0  0  0  0  0  0  0
    3.2126    0.0362    1.8322 F   0  0  0  0  0  0  0  0  0  0  0  0
    2.7180   -1.5812    0.4555 F   0  0  0  0  0  0  0  0  0  0  0  0
   -1.6157   -3.0454    0.5300 H   0  0  0  0  0  0  0  0  0  0  0  0
    0.0746   -3.3690    0.9084 H   0  0  0  0  0  0  0  0  0  0  0  0
   -0.6678   -1.8192    1.3596 H   0  0  0  0  0  0  0  0  0  0  0  0
   -0.4127   -2.7540   -1.5559 H   0  0  0  0  0  0  0  0  0  0  0  0
    0.8862   -1.8840   -0.7997 H   0  0  0  0  0  0  0  0  0  0  0  0
   -5.5883   -1.6188   -2.2002 H   0  0  0  0  0  0  0  0  0  0  0  0
   -4.7373   -0.1135   -2.4272 H   0  0  0  0  0  0  0  0  0  0  0  0
   -6.4546   -2.3257   -0.0003 H   0  0  0  0  0  0  0  0  0  0  0  0
   -7.2550   -1.5744    2.2257 H   0  0  0  0  0  0  0  0  0  0  0  0
   -5.0810    2.0927    1.8073 H   0  0  0  0  0  0  0  0  0  0  0  0
   -4.2777    1.3856   -0.4320 H   0  0  0  0  0  0  0  0  0  0  0  0
    1.0741    2.9292   -2.2061 H   0  0  0  0  0  0  0  0  0  0  0  0
    5.1250    3.4110   -0.7461 H   0  0  0  0  0  0  0  0  0  0  0  0
    7.5442    3.2574   -0.3704 H   0  0  0  0  0  0  0  0  0  0  0  0
    8.5867    1.0862    0.2219 H   0  0  0  0  0  0  0  0  0  0  0  0
    7.1838   -0.9481    0.4137 H   0  0  0  0  0  0  0  0  0  0  0  0
    4.7905   -0.8513    0.0065 H   0  0  0  0  0  0  0  0  0  0  0  0
  1  2  1  0
  2  3  1  0
  3  4  1  0
  4  5  1  0
  5  6  1  0
  6  7  1  0
  7  8  2  0
  8  9  1  0
  9 10  2  0
 10 11  1  0
 10 12  1  0
 12 13  2  0
  4 14  2  0
 14 15  1  0
 15 16  2  0
 16 17  1  0
 17 18  1  0
 18 19  2  0
 19 20  1  0
 20 21  1  0
 21 22  2  0
 22 23  1  0
 23 24  2  0
 24 25  1  0
 25 26  2  0
 20 27  1  0
 27 28  1  0
 28 29  1  0
 28 30  1  0
 28 31  1  0
 16  3  1  0
 27 17  2  0
 13  7  1  0
 26 21  1  0
  1 32  1  0
  1 33  1  0
  1 34  1  0
  2 35  1  0
  2 36  1  0
  6 37  1  0
  6 38  1  0
  8 39  1  0
  9 40  1  0
 12 41  1  0
 13 42  1  0
 18 43  1  0
 22 44  1  0
 23 45  1  0
 24 46  1  0
 25 47  1  0
 26 48  1  0
M  END
$$$$
