
     RDKit          3D

 48 50  0  0  0  0  0  0  0  0999 V2000
    8.4829    0.8114   -0.0624 C   0  0  0  0  0  0  0  0  0  0  0  0
    7.3773    0.9132    0.9230 C   0  0  0  0  0  0  0  0  0  0  0  0
    7.4147    1.5466    2.1520 C   0  0  0  0  0  0  0  0  0  0  0  0
    5.8961    1.3924    2.9354 S   0  0  0  0  0  0  0  0  0  0  0  0
    5.3200    0.5054    1.5952 C   0  0  0  0  0  0  0  0  0  0  0  0
    4.0220    0.0962    1.7177 N   0  0  0  0  0  0  0  0  0  0  0  0
    3.3776   -0.6267    0.7365 C   0  0  0  0  0  0  0  0  0  0  0  0
    3.8377   -0.9824   -0.3428 O   0  0  0  0  0  0  0  0  0  0  0  0
    1.9422   -0.9327    1.1281 C   0  0  0  0  0  0  0  0  0  0  0  0
    1.2542   -1.8736    0.1453 C   0  0  0  0  0  0  0  0  0  0  0  0
    1.0618   -1.2017   -1.1512 N   0  0  0  0  0  0  0  0  0  0  0  0
   -0.0769   -1.8383   -2.2112 S   0  0  0  0  0  6  0  0  0  0  0  0
    0.3348   -1.4547   -3.5428 O   0  0  0  0  0  0  0  0  0  0  0  0
   -0.3408   -3.2134   -1.8552 O   0  0  0  0  0  0  0  0  0  0  0  0
   -1.5084   -0.8695   -1.8005 C   0  0  0  0  0  0  0  0  0  0  0  0
   -1.8004    0.2841   -2.5275 C   0  0  0  0  0  0  0  0  0  0  0  0
   -2.9418    1.0312   -2.2145 C   0  0  0  0  0  0  0  0  0  0  0  0
   -3.8038    0.6352   -1.1776 C   0  0  0  0  0  0  0  0  0  0  0  0
   -3.4929   -0.5254   -0.4686 C   0  0  0  0  0  0  0  0  0  0  0  0
   -2.3576   -1.2891   -0.7785 C   0  0  0  0  0  0  0  0  0  0  0  0
   -4.3680   -0.9501    0.6338 C   0  0  0  0  0  0  0  0  0  0  0  0
   -4.0245   -1.8989    1.3355 O   0  0  0  0  0  0  0  0  0  0  0  0
   -5.5304   -0.2208    0.8232 N   0  0  0  0  0  0  0  0  0  0  0  0
   -6.4248   -0.6437    1.8852 C   0  0  0  0  0  0  0  0  0  0  0  0
   -5.8338    0.9721    0.1779 C   0  0  0  0  0  0  0  0  0  0  0  0
   -6.8213    1.6397    0.4945 O   0  0  0  0  0  0  0  0  0  0  0  0
   -4.9634    1.3782   -0.8306 N   0  0  0  0  0  0  0  0  0  0  0  0
   -5.2695    2.6110   -1.5461 C   0  0  0  0  0  0  0  0  0  0  0  0
    6.1651    0.3169    0.6176 N   0  0  0  0  0  0  0  0  0  0  0  0
    8.9115   -0.1953   -0.0449 H   0  0  0  0  0  0  0  0  0  0  0  0
    8.1140    1.0132   -1.0729 H   0  0  0  0  0  0  0  0  0  0  0  0
    9.2794    1.5292    0.1575 H   0  0  0  0  0  0  0  0  0  0  0  0
    8.2366    2.0759    2.6123 H   0  0  0  0  0  0  0  0  0  0  0  0
    3.5496    0.3582    2.5693 H   0  0  0  0  0  0  0  0  0  0  0  0
    1.9504   -1.4003    2.1198 H   0  0  0  0  0  0  0  0  0  0  0  0
    1.3944    0.0147    1.1967 H   0  0  0  0  0  0  0  0  0  0  0  0
    0.2852   -2.1581    0.5675 H   0  0  0  0  0  0  0  0  0  0  0  0
    1.8515   -2.7797   -0.0042 H   0  0  0  0  0  0  0  0  0  0  0  0
    1.9366   -0.9702   -1.6406 H   0  0  0  0  0  0  0  0  0  0  0  0
   -1.1492    0.6087   -3.3375 H   0  0  0  0  0  0  0  0  0  0  0  0
   -3.1308    1.9227   -2.8066 H   0  0  0  0  0  0  0  0  0  0  0  0
   -2.1438   -2.2017   -0.2247 H   0  0  0  0  0  0  0  0  0  0  0  0
   -7.4666   -0.4711    1.5976 H   0  0  0  0  0  0  0  0  0  0  0  0
   -6.2988   -1.7043    2.1204 H   0  0  0  0  0  0  0  0  0  0  0  0
   -6.2036   -0.0511    2.7788 H   0  0  0  0  0  0  0  0  0  0  0  0
   -5.4230    2.3861   -2.6065 H   0  0  0  0  0  0  0  0  0  0  0  0
   -4.4434    3.3184   -1.4214 H   0  0  0  0  0  0  0  0  0  0  0  0
   -6.1783    3.0924   -1.1744 H   0  0  0  0  0  0  0  0  0  0  0  0
  1  2  1  0
  2  3  2  0
  3  4  1  0
  4  5  1  0
  5  6  1  0
  6  7  1  0
  7  8  2  0
  7  9  1  0
  9 10  1  0
 10 11  1  0
 11 12  1  0
 12 13  2  0
 12 14  2  0
 12 15  1  0
 15 16  2  0
 16 17  1  0
 17 18  2  0
 18 19  1  0
 19 20  2  0
 19 21  1  0
 21 22  2  0
 21 23  1  0
 23 24  1  0
 23 25  1  0
 25 26  2  0
 25 27  1  0
 27 28  1  0
  5 29  2  0
 29  2  1  0
 20 15  1  0
 27 18  1  0
  1 30  1  0
  1 31  1  0
  1 32  1  0
  3 33  1  0
  6 34  1  0
  9 35  1  0
  9 36  1  0
 10 37  1  0
 10 38  1  0
 11 39  1  0
 16 40  1  0
 17 41  1  0
 20 42  1  0
 24 43  1  0
 24 44  1  0
 24 45  1  0
 28 46  1  0
 28 47  1  0
 28 48  1  0
M  END
$$$$
