
     RDKit          3D

 56 61  0  0  0  0  0  0  0  0999 V2000
    5.0700   -0.1566   -1.2797 C   0  0  0  0  0  0  0  0  0  0  0  0
    4.0681   -1.0446   -0.6016 C   0  0  0  0  0  0  0  0  0  0  0  0
    4.2879   -2.4260   -0.5217 C   0  0  0  0  0  0  0  0  0  0  0  0
    3.3814   -3.2460    0.1479 C   0  0  0  0  0  0  0  0  0  0  0  0
    2.2494   -2.6830    0.7249 C   0  0  0  0  0  0  0  0  0  0  0  0
    2.0162   -1.3037    0.6866 C   0  0  0  0  0  0  0  0  0  0  0  0
    2.9419   -0.4883    0.0254 C   0  0  0  0  0  0  0  0  0  0  0  0
    0.8239   -0.8017    1.4650 C   0  0  0  0  0  0  0  0  0  0  0  0
   -0.3626   -1.7440    1.2686 C   0  0  0  0  0  0  0  0  0  0  0  0
    0.0290   -3.2051    1.0293 C   0  0  0  0  0  0  0  0  0  0  0  0
    1.3800   -3.5097    1.3889 O   0  0  0  0  0  0  0  0  0  0  0  0
   -1.0976   -1.1264    0.0553 C   0  0  0  0  0  0  0  0  0  0  0  0
   -2.5025   -1.6612   -0.1869 C   0  0  0  0  0  0  0  0  0  0  0  0
   -2.9524   -1.8141   -1.5090 C   0  0  0  0  0  0  0  0  0  0  0  0
   -4.2316   -2.3011   -1.7860 C   0  0  0  0  0  0  0  0  0  0  0  0
   -5.0864   -2.6458   -0.7446 C   0  0  0  0  0  0  0  0  0  0  0  0
   -4.6613   -2.5021    0.5724 C   0  0  0  0  0  0  0  0  0  0  0  0
   -3.3810   -2.0142    0.8498 C   0  0  0  0  0  0  0  0  0  0  0  0
   -0.9296    0.4209    0.2833 C   0  0  0  0  0  0  0  0  0  0  0  0
   -2.1263    1.0221    1.0426 C   0  0  0  0  0  0  0  0  0  0  0  0
   -0.7151    1.1288   -1.0681 C   0  0  0  0  0  0  0  0  0  0  0  0
   -0.9950    0.6071   -2.1511 O   0  0  0  0  0  0  0  0  0  0  0  0
   -0.3386    2.4390   -1.1137 N   0  0  0  0  0  0  0  0  0  0  0  0
   -0.0023    3.3364   -0.0923 C   0  0  0  0  0  0  0  0  0  0  0  0
   -0.1460    4.6941   -0.4357 C   0  0  0  0  0  0  0  0  0  0  0  0
    0.1094    5.6954    0.4952 C   0  0  0  0  0  0  0  0  0  0  0  0
   -0.0594    6.9768    0.1438 F   0  0  0  0  0  0  0  0  0  0  0  0
    0.5274    5.3680    1.7716 C   0  0  0  0  0  0  0  0  0  0  0  0
    0.7743    6.3288    2.6710 F   0  0  0  0  0  0  0  0  0  0  0  0
    0.7126    4.0375    2.1208 C   0  0  0  0  0  0  0  0  0  0  0  0
    0.4595    3.0044    1.1920 C   0  0  0  0  0  0  0  0  0  0  0  0
    0.8640    1.6461    1.6344 C   0  0  0  0  0  0  0  0  0  0  0  0
    1.7266    1.5745    2.5096 O   0  0  0  0  0  0  0  0  0  0  0  0
    0.3220    0.5160    1.0612 N   0  0  0  0  0  0  0  0  0  0  0  0
    5.5754   -0.6875   -2.0932 H   0  0  0  0  0  0  0  0  0  0  0  0
    5.8197    0.1811   -0.5577 H   0  0  0  0  0  0  0  0  0  0  0  0
    4.5803    0.7190   -1.7188 H   0  0  0  0  0  0  0  0  0  0  0  0
    5.1723   -2.8692   -0.9736 H   0  0  0  0  0  0  0  0  0  0  0  0
    3.5542   -4.3157    0.2151 H   0  0  0  0  0  0  0  0  0  0  0  0
    2.8097    0.5900    0.0092 H   0  0  0  0  0  0  0  0  0  0  0  0
    1.1086   -0.7755    2.5250 H   0  0  0  0  0  0  0  0  0  0  0  0
   -0.9847   -1.6796    2.1696 H   0  0  0  0  0  0  0  0  0  0  0  0
   -0.1305   -3.5185   -0.0111 H   0  0  0  0  0  0  0  0  0  0  0  0
   -0.6162   -3.8523    1.6350 H   0  0  0  0  0  0  0  0  0  0  0  0
   -0.5032   -1.4079   -0.8286 H   0  0  0  0  0  0  0  0  0  0  0  0
   -2.3050   -1.5556   -2.3463 H   0  0  0  0  0  0  0  0  0  0  0  0
   -4.5566   -2.4107   -2.8175 H   0  0  0  0  0  0  0  0  0  0  0  0
   -6.0817   -3.0255   -0.9593 H   0  0  0  0  0  0  0  0  0  0  0  0
   -5.3285   -2.7694    1.3883 H   0  0  0  0  0  0  0  0  0  0  0  0
   -3.0987   -1.9104    1.8937 H   0  0  0  0  0  0  0  0  0  0  0  0
   -2.2808    0.5189    2.0031 H   0  0  0  0  0  0  0  0  0  0  0  0
   -3.0472    0.9482    0.4538 H   0  0  0  0  0  0  0  0  0  0  0  0
   -2.0089    2.0839    1.2694 H   0  0  0  0  0  0  0  0  0  0  0  0
   -0.4330    2.8057   -2.0557 H   0  0  0  0  0  0  0  0  0  0  0  0
   -0.4852    4.9961   -1.4236 H   0  0  0  0  0  0  0  0  0  0  0  0
    1.0839    3.8127    3.1191 H   0  0  0  0  0  0  0  0  0  0  0  0
  1  2  1  0
  2  3  2  0
  3  4  1  0
  4  5  2  0
  5  6  1  0
  6  7  2  0
  6  8  1  0
  8  9  1  0
  9 10  1  0
 10 11  1  0
  9 12  1  0
 12 13  1  0
 13 14  2  0
 14 15  1  0
 15 16  2  0
 16 17  1  0
 17 18  2  0
 12 19  1  0
 19 20  1  0
 19 21  1  0
 21 22  2  0
 21 23  1  0
 23 24  1  0
 24 25  2  0
 25 26  1  0
 26 27  1  0
 26 28  2  0
 28 29  1  0
 28 30  1  0
 30 31  2  0
 31 32  1  0
 32 33  2  0
 32 34  1  0
  7  2  1  0
 34  8  1  0
 11  5  1  0
 18 13  1  0
 34 19  1  0
 31 24  1  0
  1 35  1  0
  1 36  1  0
  1 37  1  0
  3 38  1  0
  4 39  1  0
  7 40  1  0
  8 41  1  0
  9 42  1  0
 10 43  1  0
 10 44  1  0
 12 45  1  0
 14 46  1  0
 15 47  1  0
 16 48  1  0
 17 49  1  0
 18 50  1  0
 20 51  1  0
 20 52  1  0
 20 53  1  0
 23 54  1  0
 25 55  1  0
 30 56  1  0
M  END
$$$$
