
     RDKit          3D

 43 45  0  0  0  0  0  0  0  0999 V2000
    1.4248    0.1052    2.6536 O   0  0  0  0  0  0  0  0  0  0  0  0
    1.8554   -0.0548    1.5136 C   0  0  0  0  0  0  0  0  0  0  0  0
    3.3553   -0.1829    1.2719 C   0  0  0  0  0  0  0  0  0  0  0  0
    3.8833    0.7832   -0.1892 S   0  0  0  0  0  0  0  0  0  0  0  0
    5.6581    0.7245    0.0081 C   0  0  0  0  0  0  0  0  0  0  0  0
    6.3747    1.9241   -0.0877 C   0  0  0  0  0  0  0  0  0  0  0  0
    7.7667    1.9334    0.0484 C   0  0  0  0  0  0  0  0  0  0  0  0
    8.4576    0.7427    0.2724 C   0  0  0  0  0  0  0  0  0  0  0  0
    7.7567   -0.4589    0.3549 C   0  0  0  0  0  0  0  0  0  0  0  0
    6.3696   -0.4620    0.2188 C   0  0  0  0  0  0  0  0  0  0  0  0
    5.7317   -1.6409    0.2825 F   0  0  0  0  0  0  0  0  0  0  0  0
    1.0935   -0.2162    0.3684 N   0  0  0  0  0  0  0  0  0  0  0  0
   -0.3090   -0.2253    0.2537 C   0  0  0  0  0  0  0  0  0  0  0  0
   -0.8476   -0.3296   -1.0288 C   0  0  0  0  0  0  0  0  0  0  0  0
   -2.2370   -0.3498   -1.2240 C   0  0  0  0  0  0  0  0  0  0  0  0
   -3.1405   -0.2717   -0.1549 C   0  0  0  0  0  0  0  0  0  0  0  0
   -4.5085   -0.2960   -0.3497 N   0  0  0  0  0  0  0  0  0  0  0  0
   -5.4475   -0.6278    0.7346 C   0  0  0  0  0  0  0  0  0  0  0  0
   -6.7391   -1.2251    0.1491 C   0  0  0  0  0  0  0  0  0  0  0  0
   -7.4241   -0.3616   -0.7699 O   0  0  0  0  0  0  0  0  0  0  0  0
   -6.5496    0.5529   -1.4461 C   0  0  0  0  0  0  0  0  0  0  0  0
   -5.1217    0.0179   -1.6502 C   0  0  0  0  0  0  0  0  0  0  0  0
   -2.5729   -0.1696    1.1235 C   0  0  0  0  0  0  0  0  0  0  0  0
   -1.1836   -0.1455    1.3305 C   0  0  0  0  0  0  0  0  0  0  0  0
    3.8791    0.1920    2.1570 H   0  0  0  0  0  0  0  0  0  0  0  0
    3.5826   -1.2443    1.1387 H   0  0  0  0  0  0  0  0  0  0  0  0
    5.8560    2.8646   -0.2650 H   0  0  0  0  0  0  0  0  0  0  0  0
    8.3110    2.8729   -0.0223 H   0  0  0  0  0  0  0  0  0  0  0  0
    9.5398    0.7516    0.3767 H   0  0  0  0  0  0  0  0  0  0  0  0
    8.2809   -1.3955    0.5192 H   0  0  0  0  0  0  0  0  0  0  0  0
    1.6173   -0.2592   -0.4995 H   0  0  0  0  0  0  0  0  0  0  0  0
   -0.2029   -0.4010   -1.9008 H   0  0  0  0  0  0  0  0  0  0  0  0
   -2.5970   -0.4543   -2.2436 H   0  0  0  0  0  0  0  0  0  0  0  0
   -5.0186   -1.3674    1.4205 H   0  0  0  0  0  0  0  0  0  0  0  0
   -5.6780    0.2846    1.2971 H   0  0  0  0  0  0  0  0  0  0  0  0
   -6.5161   -2.1580   -0.3824 H   0  0  0  0  0  0  0  0  0  0  0  0
   -7.4397   -1.4696    0.9541 H   0  0  0  0  0  0  0  0  0  0  0  0
   -7.0050    0.7871   -2.4137 H   0  0  0  0  0  0  0  0  0  0  0  0
   -6.5276    1.4816   -0.8629 H   0  0  0  0  0  0  0  0  0  0  0  0
   -5.1478   -0.8933   -2.2598 H   0  0  0  0  0  0  0  0  0  0  0  0
   -4.5489    0.7841   -2.1851 H   0  0  0  0  0  0  0  0  0  0  0  0
   -3.2041   -0.0813    2.0036 H   0  0  0  0  0  0  0  0  0  0  0  0
   -0.8274   -0.0608    2.3520 H   0  0  0  0  0  0  0  0  0  0  0  0
  1  2  2  0
  2  3  1  0
  3  4  1  0
  4  5  1  0
  5  6  2  0
  6  7  1  0
  7  8  2  0
  8  9  1  0
  9 10  2  0
 10 11  1  0
  2 12  1  0
 12 13  1  0
 13 14  2  0
 14 15  1  0
 15 16  2  0
 16 17  1  0
 17 18  1  0
 18 19  1  0
 19 20  1  0
 20 21  1  0
 21 22  1  0
 16 23  1  0
 23 24  2  0
 10  5  1  0
 24 13  1  0
 22 17  1  0
  3 25  1  0
  3 26  1  0
  6 27  1  0
  7 28  1  0
  8 29  1  0
  9 30  1  0
 12 31  1  0
 14 32  1  0
 15 33  1  0
 18 34  1  0
 18 35  1  0
 19 36  1  0
 19 37  1  0
 21 38  1  0
 21 39  1  0
 22 40  1  0
 22 41  1  0
 23 42  1  0
 24 43  1  0
M  END
$$$$
