
     RDKit          3D

 44 47  0  0  0  0  0  0  0  0999 V2000
   -3.3211   -1.0816    0.0576 O   0  0  0  0  0  0  0  0  0  0  0  0
   -2.2779   -0.6976   -0.4502 C   0  0  0  0  0  0  0  0  0  0  0  0
   -1.1994   -1.4694   -0.8359 O   0  0  0  0  0  0  0  0  0  0  0  0
   -1.3303   -2.8301   -0.5263 C   0  0  0  0  0  0  0  0  0  0  0  0
   -1.6460   -3.6933   -1.5775 C   0  0  0  0  0  0  0  0  0  0  0  0
   -1.7516   -5.0606   -1.3320 C   0  0  0  0  0  0  0  0  0  0  0  0
   -1.5319   -5.5564   -0.0464 C   0  0  0  0  0  0  0  0  0  0  0  0
   -1.1992   -4.6874    0.9982 C   0  0  0  0  0  0  0  0  0  0  0  0
   -1.0785   -3.3114    0.7689 C   0  0  0  0  0  0  0  0  0  0  0  0
   -0.7501   -2.4378    1.9027 C   0  0  0  0  0  0  0  0  0  0  0  0
    0.3044   -1.6147    2.0080 C   0  0  0  0  0  0  0  0  0  0  0  0
    1.4047   -1.4903    1.0046 C   0  0  0  0  0  0  0  0  0  0  0  0
    1.8337   -2.4823    0.4201 O   0  0  0  0  0  0  0  0  0  0  0  0
    1.9411   -0.1626    0.7895 C   0  0  0  0  0  0  0  0  0  0  0  0
    2.9673    0.2699   -0.0309 C   0  0  0  0  0  0  0  0  0  0  0  0
    3.0393    1.6800    0.1022 C   0  0  0  0  0  0  0  0  0  0  0  0
    3.8279    2.7042   -0.4498 C   0  0  0  0  0  0  0  0  0  0  0  0
    3.5777    4.0286   -0.0613 C   0  0  0  0  0  0  0  0  0  0  0  0
    2.5670    4.3325    0.8551 C   0  0  0  0  0  0  0  0  0  0  0  0
    1.7734    3.3268    1.4162 C   0  0  0  0  0  0  0  0  0  0  0  0
    2.0466    2.0229    1.0113 C   0  0  0  0  0  0  0  0  0  0  0  0
    1.3857    0.9114    1.4335 O   0  0  0  0  0  0  0  0  0  0  0  0
   -1.9828    0.7374   -0.7228 C   0  0  0  0  0  0  0  0  0  0  0  0
   -2.8909    1.6970   -0.2533 C   0  0  0  0  0  0  0  0  0  0  0  0
   -2.6543    3.0565   -0.4668 C   0  0  0  0  0  0  0  0  0  0  0  0
   -1.5108    3.4658   -1.1506 C   0  0  0  0  0  0  0  0  0  0  0  0
   -0.6053    2.5187   -1.6265 C   0  0  0  0  0  0  0  0  0  0  0  0
   -0.8394    1.1573   -1.4173 C   0  0  0  0  0  0  0  0  0  0  0  0
   -1.8116   -3.3035   -2.5769 H   0  0  0  0  0  0  0  0  0  0  0  0
   -2.0027   -5.7408   -2.1415 H   0  0  0  0  0  0  0  0  0  0  0  0
   -1.6139   -6.6236    0.1443 H   0  0  0  0  0  0  0  0  0  0  0  0
   -1.0239   -5.0970    1.9902 H   0  0  0  0  0  0  0  0  0  0  0  0
   -1.4858   -2.4544    2.7044 H   0  0  0  0  0  0  0  0  0  0  0  0
    0.3861   -0.9603    2.8699 H   0  0  0  0  0  0  0  0  0  0  0  0
    3.5749   -0.3674   -0.6591 H   0  0  0  0  0  0  0  0  0  0  0  0
    4.6153    2.4795   -1.1631 H   0  0  0  0  0  0  0  0  0  0  0  0
    4.1815    4.8311   -0.4804 H   0  0  0  0  0  0  0  0  0  0  0  0
    2.3938    5.3687    1.1387 H   0  0  0  0  0  0  0  0  0  0  0  0
    0.9829    3.5442    2.1240 H   0  0  0  0  0  0  0  0  0  0  0  0
   -3.7856    1.3885    0.2847 H   0  0  0  0  0  0  0  0  0  0  0  0
   -3.3618    3.7948   -0.0976 H   0  0  0  0  0  0  0  0  0  0  0  0
   -1.3234    4.5245   -1.3128 H   0  0  0  0  0  0  0  0  0  0  0  0
    0.2898    2.8401   -2.1542 H   0  0  0  0  0  0  0  0  0  0  0  0
   -0.1148    0.4418   -1.7977 H   0  0  0  0  0  0  0  0  0  0  0  0
  1  2  2  0
  2  3  1  0
  3  4  1  0
  4  5  2  0
  5  6  1  0
  6  7  2  0
  7  8  1  0
  8  9  2  0
  9 10  1  0
 10 11  2  3
 11 12  1  0
 12 13  2  0
 12 14  1  0
 14 15  2  0
 15 16  1  0
 16 17  2  0
 17 18  1  0
 18 19  2  0
 19 20  1  0
 20 21  2  0
 21 22  1  0
  2 23  1  0
 23 24  2  0
 24 25  1  0
 25 26  2  0
 26 27  1  0
 27 28  2  0
  9  4  1  0
 22 14  1  0
 28 23  1  0
 21 16  1  0
  5 29  1  0
  6 30  1  0
  7 31  1  0
  8 32  1  0
 10 33  1  0
 11 34  1  0
 15 35  1  0
 17 36  1  0
 18 37  1  0
 19 38  1  0
 20 39  1  0
 24 40  1  0
 25 41  1  0
 26 42  1  0
 27 43  1  0
 28 44  1  0
M  END
$$$$
