
     RDKit          3D

 53 58  0  0  0  0  0  0  0  0999 V2000
   -1.2951   -1.9252   -0.0723 O   0  0  0  0  0  0  0  0  0  0  0  0
   -1.4799   -0.8628   -0.6682 C   0  0  0  0  0  0  0  0  0  0  0  0
   -0.3682   -0.2828   -1.5641 C   0  0  0  0  0  0  0  0  0  0  0  0
    0.9340   -0.4090   -0.8861 N   0  0  0  0  0  4  0  0  0  0  0  0
    1.5722    0.5570   -0.1113 C   0  0  0  0  0  0  0  0  0  0  0  0
    2.7307    0.0088    0.4298 C   0  0  0  0  0  0  0  0  0  0  0  0
    3.7665    0.7413    1.3619 C   0  0  0  0  0  0  0  0  0  0  0  0
    4.9341    0.0989    1.7787 C   0  0  0  0  0  0  0  0  0  0  0  0
    5.8411    0.7591    2.6177 C   0  0  0  0  0  0  0  0  0  0  0  0
    5.5904    2.0654    3.0450 C   0  0  0  0  0  0  0  0  0  0  0  0
    6.7497    2.8120    4.0817 Cl  0  0  0  0  0  0  0  0  0  0  0  0
    4.4273    2.7145    2.6227 C   0  0  0  0  0  0  0  0  0  0  0  0
    4.0410    4.3302    3.0986 Cl  0  0  0  0  0  0  0  0  0  0  0  0
    3.5188    2.0546    1.7818 C   0  0  0  0  0  0  0  0  0  0  0  0
    2.7182   -1.2910   -0.0435 N   0  0  0  0  0  0  0  0  0  0  0  0
    1.6561   -1.5222   -0.8118 C   0  0  0  0  0  0  0  0  0  0  0  0
    1.6040   -2.9045   -1.3409 C   0  0  0  0  0  0  0  0  0  0  0  0
    2.6617   -3.6183   -0.4774 C   0  0  0  0  0  0  0  0  0  0  0  0
    3.5442   -2.4811    0.1068 C   0  0  0  0  0  0  0  0  0  0  0  0
   -2.6026   -0.0326   -0.5589 N   0  0  0  0  0  0  0  0  0  0  0  0
   -3.1041    0.3773    0.7317 C   0  0  0  0  0  0  0  0  0  0  0  0
   -2.6994   -0.2885    1.9065 C   0  0  0  0  0  0  0  0  0  0  0  0
   -3.1611    0.0909    3.1724 C   0  0  0  0  0  0  0  0  0  0  0  0
   -4.0307    1.1600    3.3029 C   0  0  0  0  0  0  0  0  0  0  0  0
   -4.4250    1.8569    2.1659 C   0  0  0  0  0  0  0  0  0  0  0  0
   -3.9658    1.4793    0.8906 C   0  0  0  0  0  0  0  0  0  0  0  0
   -4.4349    2.5455   -0.4486 S   0  0  0  0  0  0  0  0  0  0  0  0
   -4.1753    1.4601   -1.8145 C   0  0  0  0  0  0  0  0  0  0  0  0
   -4.8433    1.7755   -3.0100 C   0  0  0  0  0  0  0  0  0  0  0  0
   -4.6900    0.9870   -4.1447 C   0  0  0  0  0  0  0  0  0  0  0  0
   -3.8755   -0.1339   -4.0908 C   0  0  0  0  0  0  0  0  0  0  0  0
   -3.2068   -0.4529   -2.9059 C   0  0  0  0  0  0  0  0  0  0  0  0
   -3.3208    0.3495   -1.7501 C   0  0  0  0  0  0  0  0  0  0  0  0
   -0.5368    0.7756   -1.7847 H   0  0  0  0  0  0  0  0  0  0  0  0
   -0.3245   -0.8438   -2.5019 H   0  0  0  0  0  0  0  0  0  0  0  0
    1.1131    1.5278   -0.0417 H   0  0  0  0  0  0  0  0  0  0  0  0
    5.1825   -0.9082    1.4655 H   0  0  0  0  0  0  0  0  0  0  0  0
    6.7488    0.2470    2.9367 H   0  0  0  0  0  0  0  0  0  0  0  0
    2.6225    2.5889    1.4777 H   0  0  0  0  0  0  0  0  0  0  0  0
    1.8935   -2.8444   -2.3928 H   0  0  0  0  0  0  0  0  0  0  0  0
    0.6002   -3.3086   -1.2185 H   0  0  0  0  0  0  0  0  0  0  0  0
    2.1605   -4.1383    0.3475 H   0  0  0  0  0  0  0  0  0  0  0  0
    3.2405   -4.3571   -1.0373 H   0  0  0  0  0  0  0  0  0  0  0  0
    3.7764   -2.6669    1.1578 H   0  0  0  0  0  0  0  0  0  0  0  0
    4.4594   -2.3499   -0.4783 H   0  0  0  0  0  0  0  0  0  0  0  0
   -2.0408   -1.1522    1.8849 H   0  0  0  0  0  0  0  0  0  0  0  0
   -2.8460   -0.4639    4.0559 H   0  0  0  0  0  0  0  0  0  0  0  0
   -4.3969    1.4565    4.2831 H   0  0  0  0  0  0  0  0  0  0  0  0
   -5.0911    2.7122    2.2829 H   0  0  0  0  0  0  0  0  0  0  0  0
   -5.5058    2.6407   -3.0609 H   0  0  0  0  0  0  0  0  0  0  0  0
   -5.2266    1.2358   -5.0580 H   0  0  0  0  0  0  0  0  0  0  0  0
   -3.7867   -0.7811   -4.9626 H   0  0  0  0  0  0  0  0  0  0  0  0
   -2.6533   -1.3893   -2.8976 H   0  0  0  0  0  0  0  0  0  0  0  0
  1  2  2  0
  2  3  1  0
  3  4  1  0
  4  5  1  0
  5  6  2  0
  6  7  1  0
  7  8  2  0
  8  9  1  0
  9 10  2  0
 10 11  1  0
 10 12  1  0
 12 13  1  0
 12 14  2  0
  6 15  1  0
 15 16  1  0
 16 17  1  0
 17 18  1  0
 18 19  1  0
  2 20  1  0
 20 21  1  0
 21 22  2  0
 22 23  1  0
 23 24  2  0
 24 25  1  0
 25 26  2  0
 26 27  1  0
 27 28  1  0
 28 29  2  0
 29 30  1  0
 30 31  2  0
 31 32  1  0
 32 33  2  0
 16  4  2  0
 33 20  1  0
 14  7  1  0
 19 15  1  0
 26 21  1  0
 33 28  1  0
  3 34  1  0
  3 35  1  0
  5 36  1  0
  8 37  1  0
  9 38  1  0
 14 39  1  0
 17 40  1  0
 17 41  1  0
 18 42  1  0
 18 43  1  0
 19 44  1  0
 19 45  1  0
 22 46  1  0
 23 47  1  0
 24 48  1  0
 25 49  1  0
 29 50  1  0
 30 51  1  0
 31 52  1  0
 32 53  1  0
M  CHG  1   4   1
M  END
$$$$
