
     RDKit          3D

 56 61  0  0  0  0  0  0  0  0999 V2000
    9.3537    2.2917   -1.7391 C   0  0  0  0  0  0  0  0  0  0  0  0
    7.9582    2.3408   -1.4700 O   0  0  0  0  0  0  0  0  0  0  0  0
    7.3900    1.2224   -0.9251 C   0  0  0  0  0  0  0  0  0  0  0  0
    8.0558    0.0490   -0.5879 C   0  0  0  0  0  0  0  0  0  0  0  0
    7.3429   -1.0165   -0.0362 C   0  0  0  0  0  0  0  0  0  0  0  0
    5.9602   -0.9144    0.1817 C   0  0  0  0  0  0  0  0  0  0  0  0
    5.2389   -1.9834    0.7369 C   0  0  0  0  0  0  0  0  0  0  0  0
    3.8625   -1.8092    0.9246 C   0  0  0  0  0  0  0  0  0  0  0  0
    2.7889   -2.5813    1.4289 C   0  0  0  0  0  0  0  0  0  0  0  0
    1.6457   -1.8016    1.3356 C   0  0  0  0  0  0  0  0  0  0  0  0
    0.2772   -2.1375    1.7080 C   0  0  0  0  0  0  0  0  0  0  0  0
    0.0179   -3.2734    2.1156 O   0  0  0  0  0  0  0  0  0  0  0  0
   -0.7434   -1.1856    1.6091 N   0  0  0  0  0  0  0  0  0  0  0  0
   -2.1090   -1.5818    1.9469 C   0  0  0  0  0  0  0  0  0  0  0  0
   -3.1757   -0.8879    1.0725 C   0  0  0  0  0  0  0  0  0  0  0  0
   -2.9660    0.5525    0.8148 N   0  0  0  0  0  0  0  0  0  0  0  0
   -4.1726    1.3579    1.0346 C   0  0  0  0  0  0  0  0  0  0  0  0
   -5.2878    1.0388    0.0588 C   0  0  0  0  0  0  0  0  0  0  0  0
   -5.0598    1.1187   -1.3362 C   0  0  0  0  0  0  0  0  0  0  0  0
   -6.0785    0.8405   -2.2528 C   0  0  0  0  0  0  0  0  0  0  0  0
   -7.3118    0.4906   -1.7503 C   0  0  0  0  0  0  0  0  0  0  0  0
   -7.5469    0.4148   -0.3978 C   0  0  0  0  0  0  0  0  0  0  0  0
   -6.5626    0.6840    0.5302 C   0  0  0  0  0  0  0  0  0  0  0  0
   -8.8273    0.0545   -0.1129 O   0  0  0  0  0  0  0  0  0  0  0  0
   -9.3688   -0.0915   -1.4423 C   0  0  0  0  0  0  0  0  0  0  0  0
   -8.4139    0.1872   -2.4868 O   0  0  0  0  0  0  0  0  0  0  0  0
   -1.8155    1.0863    1.5546 C   0  0  0  0  0  0  0  0  0  0  0  0
   -0.5493    0.2390    1.3219 C   0  0  0  0  0  0  0  0  0  0  0  0
    1.9757   -0.5933    0.7877 O   0  0  0  0  0  0  0  0  0  0  0  0
    3.3132   -0.5927    0.5448 C   0  0  0  0  0  0  0  0  0  0  0  0
    3.9566    0.4582    0.0149 N   0  0  0  0  0  0  0  0  0  0  0  0
    5.2729    0.2758   -0.1581 C   0  0  0  0  0  0  0  0  0  0  0  0
    6.0110    1.3159   -0.7039 C   0  0  0  0  0  0  0  0  0  0  0  0
    9.6426    3.2497   -2.1816 H   0  0  0  0  0  0  0  0  0  0  0  0
    9.9288    2.1637   -0.8162 H   0  0  0  0  0  0  0  0  0  0  0  0
    9.5888    1.5057   -2.4645 H   0  0  0  0  0  0  0  0  0  0  0  0
    9.1233   -0.0707   -0.7392 H   0  0  0  0  0  0  0  0  0  0  0  0
    7.8770   -1.9288    0.2222 H   0  0  0  0  0  0  0  0  0  0  0  0
    5.7214   -2.9153    1.0134 H   0  0  0  0  0  0  0  0  0  0  0  0
    2.8220   -3.5905    1.8171 H   0  0  0  0  0  0  0  0  0  0  0  0
   -2.2332   -2.6671    1.8676 H   0  0  0  0  0  0  0  0  0  0  0  0
   -2.2619   -1.3157    3.0005 H   0  0  0  0  0  0  0  0  0  0  0  0
   -4.1514   -1.0853    1.5339 H   0  0  0  0  0  0  0  0  0  0  0  0
   -3.1888   -1.3835    0.0937 H   0  0  0  0  0  0  0  0  0  0  0  0
   -3.9416    2.4233    0.9009 H   0  0  0  0  0  0  0  0  0  0  0  0
   -4.5224    1.2459    2.0692 H   0  0  0  0  0  0  0  0  0  0  0  0
   -4.0717    1.3920   -1.7038 H   0  0  0  0  0  0  0  0  0  0  0  0
   -5.9037    0.8959   -3.3211 H   0  0  0  0  0  0  0  0  0  0  0  0
   -6.7802    0.6169    1.5904 H   0  0  0  0  0  0  0  0  0  0  0  0
  -10.2175    0.5935   -1.5514 H   0  0  0  0  0  0  0  0  0  0  0  0
   -9.7298   -1.1196   -1.5623 H   0  0  0  0  0  0  0  0  0  0  0  0
   -2.0368    1.1251    2.6294 H   0  0  0  0  0  0  0  0  0  0  0  0
   -1.6047    2.1119    1.2283 H   0  0  0  0  0  0  0  0  0  0  0  0
   -0.2415    0.3252    0.2735 H   0  0  0  0  0  0  0  0  0  0  0  0
    0.2527    0.6216    1.9617 H   0  0  0  0  0  0  0  0  0  0  0  0
    5.4962    2.2375   -0.9697 H   0  0  0  0  0  0  0  0  0  0  0  0
  1  2  1  0
  2  3  1  0
  3  4  2  0
  4  5  1  0
  5  6  2  0
  6  7  1  0
  7  8  2  0
  8  9  1  0
  9 10  2  0
 10 11  1  0
 11 12  2  0
 11 13  1  0
 13 14  1  0
 14 15  1  0
 15 16  1  0
 16 17  1  0
 17 18  1  0
 18 19  2  0
 19 20  1  0
 20 21  2  0
 21 22  1  0
 22 23  2  0
 22 24  1  0
 24 25  1  0
 25 26  1  0
 16 27  1  0
 27 28  1  0
 10 29  1  0
 29 30  1  0
 30 31  2  0
 31 32  1  0
 32 33  2  0
 33  3  1  0
 32  6  1  0
 30  8  1  0
 28 13  1  0
 23 18  1  0
 26 21  1  0
  1 34  1  0
  1 35  1  0
  1 36  1  0
  4 37  1  0
  5 38  1  0
  7 39  1  0
  9 40  1  0
 14 41  1  0
 14 42  1  0
 15 43  1  0
 15 44  1  0
 17 45  1  0
 17 46  1  0
 19 47  1  0
 20 48  1  0
 23 49  1  0
 25 50  1  0
 25 51  1  0
 27 52  1  0
 27 53  1  0
 28 54  1  0
 28 55  1  0
 33 56  1  0
M  END
$$$$
