
     RDKit          3D

 30 31  0  0  0  0  0  0  0  0999 V2000
   -4.7669   -0.7053    0.5793 C   0  0  0  0  0  0  0  0  0  0  0  0
   -3.2987   -0.3370    0.3588 C   0  0  0  0  0  0  0  0  0  0  0  0
   -2.8690    0.6764    1.4239 C   0  0  0  0  0  0  0  0  0  0  0  0
   -2.5589   -1.5597    0.4919 O   0  0  0  0  0  0  0  0  0  0  0  0
   -1.3318   -1.6318   -0.0417 C   0  0  0  0  0  0  0  0  0  0  0  0
   -0.5822   -2.5883    0.0658 O   0  0  0  0  0  0  0  0  0  0  0  0
   -0.9458   -0.4042   -0.8194 C   0  0  0  0  0  0  0  0  0  0  0  0
    0.2406    0.1350   -0.8075 N   0  0  0  0  0  0  0  0  0  0  0  0
    1.2005   -0.4886   -0.0647 N   0  0  0  0  0  0  0  0  0  0  0  0
    2.5188    0.0186   -0.1231 C   0  0  0  0  0  0  0  0  0  0  0  0
    3.5595   -0.7166    0.4630 C   0  0  0  0  0  0  0  0  0  0  0  0
    4.8667   -0.2216    0.4843 C   0  0  0  0  0  0  0  0  0  0  0  0
    5.1474    1.0280   -0.0624 C   0  0  0  0  0  0  0  0  0  0  0  0
    4.1204    1.7848   -0.6208 C   0  0  0  0  0  0  0  0  0  0  0  0
    2.8143    1.2869   -0.6395 C   0  0  0  0  0  0  0  0  0  0  0  0
   -2.0469    0.2697   -1.5906 C   0  0  0  0  0  0  0  0  0  0  0  0
   -1.8746    0.7538   -2.6939 O   0  0  0  0  0  0  0  0  0  0  0  0
   -3.2273    0.2418   -0.9519 O   0  0  0  0  0  0  0  0  0  0  0  0
   -4.9214   -1.1673    1.5603 H   0  0  0  0  0  0  0  0  0  0  0  0
   -5.0948   -1.4313   -0.1743 H   0  0  0  0  0  0  0  0  0  0  0  0
   -5.4181    0.1707    0.4876 H   0  0  0  0  0  0  0  0  0  0  0  0
   -1.8216    0.9709    1.3055 H   0  0  0  0  0  0  0  0  0  0  0  0
   -2.9665    0.2553    2.4303 H   0  0  0  0  0  0  0  0  0  0  0  0
   -3.4641    1.5935    1.3577 H   0  0  0  0  0  0  0  0  0  0  0  0
    1.1817   -1.5140    0.0089 H   0  0  0  0  0  0  0  0  0  0  0  0
    3.3596   -1.6869    0.9101 H   0  0  0  0  0  0  0  0  0  0  0  0
    5.6625   -0.8102    0.9329 H   0  0  0  0  0  0  0  0  0  0  0  0
    6.1625    1.4154   -0.0465 H   0  0  0  0  0  0  0  0  0  0  0  0
    4.3299    2.7654   -1.0394 H   0  0  0  0  0  0  0  0  0  0  0  0
    2.0241    1.8969   -1.0696 H   0  0  0  0  0  0  0  0  0  0  0  0
  1  2  1  0
  2  3  1  0
  2  4  1  0
  4  5  1  0
  5  6  2  0
  5  7  1  0
  7  8  2  3
  8  9  1  0
  9 10  1  0
 10 11  2  0
 11 12  1  0
 12 13  2  0
 13 14  1  0
 14 15  2  0
  7 16  1  0
 16 17  2  0
 16 18  1  0
 18  2  1  0
 15 10  1  0
  1 19  1  0
  1 20  1  0
  1 21  1  0
  3 22  1  0
  3 23  1  0
  3 24  1  0
  9 25  1  0
 11 26  1  0
 12 27  1  0
 13 28  1  0
 14 29  1  0
 15 30  1  0
M  END
$$$$
