
     RDKit          3D

 56 58  0  0  0  0  0  0  0  0999 V2000
    1.5902    0.9288   -3.9395 C   0  0  0  0  0  0  0  0  0  0  0  0
    2.1970    1.0362   -2.6604 O   0  0  0  0  0  0  0  0  0  0  0  0
    1.3815    0.9522   -1.5579 C   0  0  0  0  0  0  0  0  0  0  0  0
   -0.0147    0.8423   -1.6118 C   0  0  0  0  0  0  0  0  0  0  0  0
   -0.7743    0.7650   -0.4357 C   0  0  0  0  0  0  0  0  0  0  0  0
   -2.2355    0.6106   -0.4587 C   0  0  0  0  0  0  0  0  0  0  0  0
   -3.0333    1.3111   -1.2787 C   0  0  0  0  0  0  0  0  0  0  0  0
   -4.5137    1.1872   -1.3463 C   0  0  0  0  0  0  0  0  0  0  0  0
   -5.1527    1.7993   -2.1946 O   0  0  0  0  0  0  0  0  0  0  0  0
   -5.2186    0.2988   -0.4106 C   0  0  0  0  0  0  0  0  0  0  0  0
   -5.4716    0.7124    0.9118 C   0  0  0  0  0  0  0  0  0  0  0  0
   -4.9881    1.9426    1.2707 O   0  0  0  0  0  0  0  0  0  0  0  0
   -5.3985    2.4732    2.5245 C   0  0  0  0  0  0  0  0  0  0  0  0
   -6.1713   -0.1472    1.7746 C   0  0  0  0  0  0  0  0  0  0  0  0
   -6.6236   -1.3939    1.3280 C   0  0  0  0  0  0  0  0  0  0  0  0
   -6.3667   -1.7691    0.0180 C   0  0  0  0  0  0  0  0  0  0  0  0
   -6.8002   -3.0058   -0.4547 O   0  0  0  0  0  0  0  0  0  0  0  0
   -6.3942   -3.1088   -1.7820 C   0  0  0  0  0  0  0  0  0  0  0  0
   -6.6305   -4.0955   -2.4665 O   0  0  0  0  0  0  0  0  0  0  0  0
   -5.4993   -1.7248   -2.4154 S   0  0  0  0  0  0  0  0  0  0  0  0
   -5.6725   -0.9390   -0.8538 C   0  0  0  0  0  0  0  0  0  0  0  0
   -0.1188    0.7795    0.7982 C   0  0  0  0  0  0  0  0  0  0  0  0
    1.2727    0.8934    0.8635 C   0  0  0  0  0  0  0  0  0  0  0  0
    2.0305    0.9768   -0.3078 C   0  0  0  0  0  0  0  0  0  0  0  0
    3.3972    1.0937   -0.3387 O   0  0  0  0  0  0  0  0  0  0  0  0
    4.1097    0.9021    0.8836 C   0  0  0  0  0  0  0  0  0  0  0  0
    5.6064    0.8895    0.5746 C   0  0  0  0  0  0  0  0  0  0  0  0
    6.0333   -0.3275   -0.2589 C   0  0  0  0  0  0  0  0  0  0  0  0
    5.8372   -1.6146    0.4352 N   0  0  0  0  0  0  0  0  0  0  0  0
    5.9123   -2.7177   -0.5279 C   0  0  0  0  0  0  0  0  0  0  0  0
    6.8246   -1.8195    1.4972 C   0  0  0  0  0  0  0  0  0  0  0  0
    1.0802   -0.0329   -4.0570 H   0  0  0  0  0  0  0  0  0  0  0  0
    2.3844    0.9764   -4.6908 H   0  0  0  0  0  0  0  0  0  0  0  0
    0.9083    1.7647   -4.1241 H   0  0  0  0  0  0  0  0  0  0  0  0
   -0.5292    0.8054   -2.5659 H   0  0  0  0  0  0  0  0  0  0  0  0
   -2.6319   -0.1037    0.2567 H   0  0  0  0  0  0  0  0  0  0  0  0
   -2.6332    2.0399   -1.9779 H   0  0  0  0  0  0  0  0  0  0  0  0
   -5.0014    3.4890    2.6027 H   0  0  0  0  0  0  0  0  0  0  0  0
   -4.9821    1.8895    3.3506 H   0  0  0  0  0  0  0  0  0  0  0  0
   -6.4897    2.5342    2.5930 H   0  0  0  0  0  0  0  0  0  0  0  0
   -6.3789    0.1252    2.8057 H   0  0  0  0  0  0  0  0  0  0  0  0
   -7.1665   -2.0563    1.9968 H   0  0  0  0  0  0  0  0  0  0  0  0
   -0.6845    0.7142    1.7254 H   0  0  0  0  0  0  0  0  0  0  0  0
    1.7351    0.9182    1.8444 H   0  0  0  0  0  0  0  0  0  0  0  0
    3.9008    1.7424    1.5571 H   0  0  0  0  0  0  0  0  0  0  0  0
    3.8145   -0.0361    1.3691 H   0  0  0  0  0  0  0  0  0  0  0  0
    5.8575    1.7911    0.0015 H   0  0  0  0  0  0  0  0  0  0  0  0
    6.1757    0.9396    1.5086 H   0  0  0  0  0  0  0  0  0  0  0  0
    5.4466   -0.3165   -1.1871 H   0  0  0  0  0  0  0  0  0  0  0  0
    7.0830   -0.2108   -0.5592 H   0  0  0  0  0  0  0  0  0  0  0  0
    6.8870   -2.7655   -1.0275 H   0  0  0  0  0  0  0  0  0  0  0  0
    5.1350   -2.6149   -1.2938 H   0  0  0  0  0  0  0  0  0  0  0  0
    5.7313   -3.6774   -0.0292 H   0  0  0  0  0  0  0  0  0  0  0  0
    7.8524   -1.7915    1.1183 H   0  0  0  0  0  0  0  0  0  0  0  0
    6.6673   -2.7888    1.9847 H   0  0  0  0  0  0  0  0  0  0  0  0
    6.7240   -1.0663    2.2844 H   0  0  0  0  0  0  0  0  0  0  0  0
  1  2  1  0
  2  3  1  0
  3  4  2  0
  4  5  1  0
  5  6  1  0
  6  7  2  0
  7  8  1  0
  8  9  2  0
  8 10  1  0
 10 11  2  0
 11 12  1  0
 12 13  1  0
 11 14  1  0
 14 15  2  0
 15 16  1  0
 16 17  1  0
 17 18  1  0
 18 19  2  0
 18 20  1  0
 20 21  1  0
  5 22  2  0
 22 23  1  0
 23 24  2  0
 24 25  1  0
 25 26  1  0
 26 27  1  0
 27 28  1  0
 28 29  1  0
 29 30  1  0
 29 31  1  0
 24  3  1  0
 21 10  1  0
 21 16  2  0
  1 32  1  0
  1 33  1  0
  1 34  1  0
  4 35  1  0
  6 36  1  0
  7 37  1  0
 13 38  1  0
 13 39  1  0
 13 40  1  0
 14 41  1  0
 15 42  1  0
 22 43  1  0
 23 44  1  0
 26 45  1  0
 26 46  1  0
 27 47  1  0
 27 48  1  0
 28 49  1  0
 28 50  1  0
 30 51  1  0
 30 52  1  0
 30 53  1  0
 31 54  1  0
 31 55  1  0
 31 56  1  0
M  END
$$$$
