
     RDKit          3D

 61 63  0  0  0  0  0  0  0  0999 V2000
   -8.4727   -3.8733   -1.4404 C   0  0  0  0  0  0  0  0  0  0  0  0
   -8.4726   -2.5848   -2.0412 O   0  0  0  0  0  0  0  0  0  0  0  0
   -7.8968   -1.5708   -1.3262 C   0  0  0  0  0  0  0  0  0  0  0  0
   -7.9406   -0.3200   -1.9466 C   0  0  0  0  0  0  0  0  0  0  0  0
   -7.3909    0.8054   -1.3269 C   0  0  0  0  0  0  0  0  0  0  0  0
   -6.7922    0.6953   -0.0666 C   0  0  0  0  0  0  0  0  0  0  0  0
   -6.1764    1.8958    0.6023 C   0  0  0  0  0  0  0  0  0  0  0  0
   -4.7869    2.0258    0.2519 N   0  0  0  0  0  0  0  0  0  0  0  0
   -3.7827    1.4733    1.0101 C   0  0  0  0  0  0  0  0  0  0  0  0
   -3.9066    0.9355    2.1018 O   0  0  0  0  0  0  0  0  0  0  0  0
   -2.3908    1.5622    0.3429 C   0  0  0  0  0  0  0  0  0  0  0  0
   -2.2806    2.0184   -0.7864 O   0  0  0  0  0  0  0  0  0  0  0  0
   -1.3705    1.0731    1.1247 N   0  0  0  0  0  0  0  0  0  0  0  0
   -0.0440    0.8395    0.5807 C   0  0  0  0  0  0  0  0  0  0  0  0
    1.0047    0.5886    1.6756 C   0  0  0  0  0  0  0  0  0  0  0  0
    0.6039   -0.5636    2.4478 O   0  0  0  0  0  0  0  0  0  0  0  0
    1.8254   -1.1274    2.9293 C   0  0  0  0  0  0  0  0  0  0  0  0
    2.7621   -0.9972    1.7497 C   0  0  0  0  0  0  0  0  0  0  0  0
    2.3188    0.2467    1.0867 N   0  0  0  0  0  0  0  0  0  0  0  0
    3.4000    1.5426    1.0648 S   0  0  0  0  0  6  0  0  0  0  0  0
    3.9252    1.6841    2.4064 O   0  0  0  0  0  0  0  0  0  0  0  0
    2.7613    2.6473    0.3856 O   0  0  0  0  0  0  0  0  0  0  0  0
    4.6895    0.9388    0.0075 C   0  0  0  0  0  0  0  0  0  0  0  0
    4.4095    0.7320   -1.3436 C   0  0  0  0  0  0  0  0  0  0  0  0
    5.4106    0.2496   -2.1871 C   0  0  0  0  0  0  0  0  0  0  0  0
    6.6897   -0.0187   -1.6838 C   0  0  0  0  0  0  0  0  0  0  0  0
    7.7302   -0.5031   -2.4373 O   0  0  0  0  0  0  0  0  0  0  0  0
    7.5343   -0.6110   -3.8403 C   0  0  0  0  0  0  0  0  0  0  0  0
    6.9672    0.2033   -0.3163 C   0  0  0  0  0  0  0  0  0  0  0  0
    8.2449   -0.0886    0.0933 O   0  0  0  0  0  0  0  0  0  0  0  0
    8.5987    0.2236    1.4335 C   0  0  0  0  0  0  0  0  0  0  0  0
    5.9621    0.6862    0.5267 C   0  0  0  0  0  0  0  0  0  0  0  0
   -6.7391   -0.5635    0.5471 C   0  0  0  0  0  0  0  0  0  0  0  0
   -7.2905   -1.6889   -0.0761 C   0  0  0  0  0  0  0  0  0  0  0  0
   -7.4516   -4.2389   -1.2899 H   0  0  0  0  0  0  0  0  0  0  0  0
   -8.9745   -4.5617   -2.1271 H   0  0  0  0  0  0  0  0  0  0  0  0
   -9.0352   -3.8711   -0.5011 H   0  0  0  0  0  0  0  0  0  0  0  0
   -8.4068   -0.2221   -2.9241 H   0  0  0  0  0  0  0  0  0  0  0  0
   -7.4355    1.7652   -1.8365 H   0  0  0  0  0  0  0  0  0  0  0  0
   -6.2870    1.8239    1.6906 H   0  0  0  0  0  0  0  0  0  0  0  0
   -6.6852    2.8122    0.2836 H   0  0  0  0  0  0  0  0  0  0  0  0
   -4.5305    2.3102   -0.6894 H   0  0  0  0  0  0  0  0  0  0  0  0
   -1.6595    0.5433    1.9458 H   0  0  0  0  0  0  0  0  0  0  0  0
   -0.1290   -0.0389   -0.0710 H   0  0  0  0  0  0  0  0  0  0  0  0
    0.2361    1.6907   -0.0491 H   0  0  0  0  0  0  0  0  0  0  0  0
    1.0616    1.4374    2.3680 H   0  0  0  0  0  0  0  0  0  0  0  0
    2.1682   -0.5439    3.7914 H   0  0  0  0  0  0  0  0  0  0  0  0
    1.6691   -2.1647    3.2358 H   0  0  0  0  0  0  0  0  0  0  0  0
    2.6116   -1.8192    1.0405 H   0  0  0  0  0  0  0  0  0  0  0  0
    3.8101   -1.0032    2.0583 H   0  0  0  0  0  0  0  0  0  0  0  0
    3.4191    0.9426   -1.7424 H   0  0  0  0  0  0  0  0  0  0  0  0
    5.1614    0.0909   -3.2313 H   0  0  0  0  0  0  0  0  0  0  0  0
    8.4757   -0.9470   -4.2850 H   0  0  0  0  0  0  0  0  0  0  0  0
    7.2855    0.3598   -4.2821 H   0  0  0  0  0  0  0  0  0  0  0  0
    6.7707   -1.3604   -4.0737 H   0  0  0  0  0  0  0  0  0  0  0  0
    8.0241   -0.3817    2.1421 H   0  0  0  0  0  0  0  0  0  0  0  0
    9.6562   -0.0244    1.5670 H   0  0  0  0  0  0  0  0  0  0  0  0
    8.4792    1.2928    1.6368 H   0  0  0  0  0  0  0  0  0  0  0  0
    6.1465    0.8673    1.5802 H   0  0  0  0  0  0  0  0  0  0  0  0
   -6.2600   -0.6755    1.5189 H   0  0  0  0  0  0  0  0  0  0  0  0
   -7.2247   -2.6398    0.4418 H   0  0  0  0  0  0  0  0  0  0  0  0
  1  2  1  0
  2  3  1  0
  3  4  2  0
  4  5  1  0
  5  6  2  0
  6  7  1  0
  7  8  1  0
  8  9  1  0
  9 10  2  0
  9 11  1  0
 11 12  2  0
 11 13  1  0
 13 14  1  0
 14 15  1  0
 15 16  1  0
 16 17  1  0
 17 18  1  0
 18 19  1  0
 19 20  1  0
 20 21  2  0
 20 22  2  0
 20 23  1  0
 23 24  2  0
 24 25  1  0
 25 26  2  0
 26 27  1  0
 27 28  1  0
 26 29  1  0
 29 30  1  0
 30 31  1  0
 29 32  2  0
  6 33  1  0
 33 34  2  0
 34  3  1  0
 19 15  1  0
 32 23  1  0
  1 35  1  0
  1 36  1  0
  1 37  1  0
  4 38  1  0
  5 39  1  0
  7 40  1  0
  7 41  1  0
  8 42  1  0
 13 43  1  0
 14 44  1  0
 14 45  1  0
 15 46  1  0
 17 47  1  0
 17 48  1  0
 18 49  1  0
 18 50  1  0
 24 51  1  0
 25 52  1  0
 28 53  1  0
 28 54  1  0
 28 55  1  0
 31 56  1  0
 31 57  1  0
 31 58  1  0
 32 59  1  0
 33 60  1  0
 34 61  1  0
M  END
$$$$
