
     RDKit          3D

 63 65  0  0  0  0  0  0  0  0999 V2000
    2.2883    4.2117    5.4200 C   0  0  0  0  0  0  0  0  0  0  0  0
    1.9653    3.1476    4.5346 O   0  0  0  0  0  0  0  0  0  0  0  0
    2.1367    3.3791    3.1985 C   0  0  0  0  0  0  0  0  0  0  0  0
    2.5091    4.5915    2.6183 C   0  0  0  0  0  0  0  0  0  0  0  0
    2.6252    4.6989    1.2314 C   0  0  0  0  0  0  0  0  0  0  0  0
    2.3698    3.5952    0.4167 C   0  0  0  0  0  0  0  0  0  0  0  0
    2.0035    2.3707    0.9804 C   0  0  0  0  0  0  0  0  0  0  0  0
    1.7225    1.1766    0.0988 C   0  0  0  0  0  0  0  0  0  0  0  0
    0.4730    1.3254   -0.6539 N   0  0  0  0  0  0  0  0  0  0  0  0
   -0.7807    1.2623    0.1103 C   0  0  0  0  0  0  0  0  0  0  0  0
   -1.2382   -0.1704    0.4216 C   0  0  0  0  0  0  0  0  0  0  0  0
   -0.5114   -1.1532    0.3198 O   0  0  0  0  0  0  0  0  0  0  0  0
   -2.5457   -0.2482    0.8599 N   0  0  0  0  0  0  0  0  0  0  0  0
   -3.1747   -1.5275    1.1410 C   0  0  0  0  0  0  0  0  0  0  0  0
   -2.7664   -2.1358    2.4876 C   0  0  0  0  0  0  0  0  0  0  0  0
   -3.0874   -1.2471    3.6807 C   0  0  0  0  0  0  0  0  0  0  0  0
   -3.2047   -2.2578    4.7962 C   0  0  0  0  0  0  0  0  0  0  0  0
   -3.8466   -3.4404    4.1012 C   0  0  0  0  0  0  0  0  0  0  0  0
   -3.4940   -3.3604    2.7120 O   0  0  0  0  0  0  0  0  0  0  0  0
    0.5338    1.3067   -2.0396 C   0  0  0  0  0  0  0  0  0  0  0  0
    1.5981    1.3560   -2.6591 O   0  0  0  0  0  0  0  0  0  0  0  0
   -0.7838    1.2284   -2.7974 C   0  0  0  0  0  0  0  0  0  0  0  0
   -0.5821    1.0612   -4.3009 C   0  0  0  0  0  0  0  0  0  0  0  0
   -0.2280   -0.3728   -4.6475 C   0  0  0  0  0  0  0  0  0  0  0  0
   -1.0966   -1.1512   -5.0321 O   0  0  0  0  0  0  0  0  0  0  0  0
    1.1004   -0.6623   -4.4694 N   0  0  0  0  0  0  0  0  0  0  0  0
    1.6875   -1.8887   -4.6851 C   0  0  0  0  0  0  0  0  0  0  0  0
    1.1082   -3.0919   -5.1468 C   0  0  0  0  0  0  0  0  0  0  0  0
    2.1440   -3.9944   -5.1525 C   0  0  0  0  0  0  0  0  0  0  0  0
    2.2669   -5.4188   -5.5024 C   0  0  0  0  0  0  0  0  0  0  0  0
    3.2823   -3.3704   -4.7443 O   0  0  0  0  0  0  0  0  0  0  0  0
    2.9964   -2.0512   -4.4478 N   0  0  0  0  0  0  0  0  0  0  0  0
    1.8923    2.2739    2.3771 C   0  0  0  0  0  0  0  0  0  0  0  0
    1.6428    5.0807    5.2441 H   0  0  0  0  0  0  0  0  0  0  0  0
    2.1059    3.8687    6.4455 H   0  0  0  0  0  0  0  0  0  0  0  0
    3.3477    4.4786    5.3409 H   0  0  0  0  0  0  0  0  0  0  0  0
    2.7148    5.4740    3.2167 H   0  0  0  0  0  0  0  0  0  0  0  0
    2.9186    5.6462    0.7841 H   0  0  0  0  0  0  0  0  0  0  0  0
    2.4631    3.6921   -0.6635 H   0  0  0  0  0  0  0  0  0  0  0  0
    2.5783    1.0395   -0.5720 H   0  0  0  0  0  0  0  0  0  0  0  0
    1.6622    0.2572    0.6927 H   0  0  0  0  0  0  0  0  0  0  0  0
   -1.5769    1.7675   -0.4439 H   0  0  0  0  0  0  0  0  0  0  0  0
   -0.6580    1.7967    1.0570 H   0  0  0  0  0  0  0  0  0  0  0  0
   -3.1324    0.5789    0.8606 H   0  0  0  0  0  0  0  0  0  0  0  0
   -4.2607   -1.3697    1.1088 H   0  0  0  0  0  0  0  0  0  0  0  0
   -2.9398   -2.2270    0.3282 H   0  0  0  0  0  0  0  0  0  0  0  0
   -1.6991   -2.3881    2.4870 H   0  0  0  0  0  0  0  0  0  0  0  0
   -2.3190   -0.4899    3.8676 H   0  0  0  0  0  0  0  0  0  0  0  0
   -4.0478   -0.7337    3.5417 H   0  0  0  0  0  0  0  0  0  0  0  0
   -2.2039   -2.5297    5.1564 H   0  0  0  0  0  0  0  0  0  0  0  0
   -3.7889   -1.9062    5.6510 H   0  0  0  0  0  0  0  0  0  0  0  0
   -4.9400   -3.3979    4.1685 H   0  0  0  0  0  0  0  0  0  0  0  0
   -3.5088   -4.3959    4.5155 H   0  0  0  0  0  0  0  0  0  0  0  0
   -1.3204    2.1683   -2.6279 H   0  0  0  0  0  0  0  0  0  0  0  0
   -1.3810    0.3974   -2.4094 H   0  0  0  0  0  0  0  0  0  0  0  0
    0.1803    1.7415   -4.6998 H   0  0  0  0  0  0  0  0  0  0  0  0
   -1.5182    1.2995   -4.8218 H   0  0  0  0  0  0  0  0  0  0  0  0
    1.7302    0.0437   -4.0897 H   0  0  0  0  0  0  0  0  0  0  0  0
    0.0798   -3.2795   -5.4227 H   0  0  0  0  0  0  0  0  0  0  0  0
    1.3127   -5.9389   -5.3624 H   0  0  0  0  0  0  0  0  0  0  0  0
    2.5736   -5.5286   -6.5457 H   0  0  0  0  0  0  0  0  0  0  0  0
    3.0078   -5.9142   -4.8711 H   0  0  0  0  0  0  0  0  0  0  0  0
    1.6144    1.3259    2.8362 H   0  0  0  0  0  0  0  0  0  0  0  0
  1  2  1  0
  2  3  1  0
  3  4  2  0
  4  5  1  0
  5  6  2  0
  6  7  1  0
  7  8  1  0
  8  9  1  0
  9 10  1  0
 10 11  1  0
 11 12  2  0
 11 13  1  0
 13 14  1  0
 14 15  1  0
 15 16  1  0
 16 17  1  0
 17 18  1  0
 18 19  1  0
  9 20  1  0
 20 21  2  0
 20 22  1  0
 22 23  1  0
 23 24  1  0
 24 25  2  0
 24 26  1  0
 26 27  1  0
 27 28  1  0
 28 29  2  0
 29 30  1  0
 29 31  1  0
 31 32  1  0
  7 33  2  0
 33  3  1  0
 19 15  1  0
 32 27  2  0
  1 34  1  0
  1 35  1  0
  1 36  1  0
  4 37  1  0
  5 38  1  0
  6 39  1  0
  8 40  1  0
  8 41  1  0
 10 42  1  0
 10 43  1  0
 13 44  1  0
 14 45  1  0
 14 46  1  0
 15 47  1  0
 16 48  1  0
 16 49  1  0
 17 50  1  0
 17 51  1  0
 18 52  1  0
 18 53  1  0
 22 54  1  0
 22 55  1  0
 23 56  1  0
 23 57  1  0
 26 58  1  0
 28 59  1  0
 30 60  1  0
 30 61  1  0
 30 62  1  0
 33 63  1  0
M  END
$$$$
