
     RDKit          3D

 69 71  0  0  0  0  0  0  0  0999 V2000
   -3.9868   -2.6768   -4.5539 C   0  0  0  0  0  0  0  0  0  0  0  0
   -3.5845   -1.5451   -3.7932 O   0  0  0  0  0  0  0  0  0  0  0  0
   -2.9689   -1.7701   -2.5895 C   0  0  0  0  0  0  0  0  0  0  0  0
   -2.6689   -3.0399   -2.0900 C   0  0  0  0  0  0  0  0  0  0  0  0
   -2.0836   -3.1834   -0.8331 C   0  0  0  0  0  0  0  0  0  0  0  0
   -1.8060   -2.0617   -0.0555 C   0  0  0  0  0  0  0  0  0  0  0  0
   -2.0934   -0.7678   -0.5222 C   0  0  0  0  0  0  0  0  0  0  0  0
   -1.8022    0.4691    0.3347 C   0  0  0  0  0  0  0  0  0  0  0  0
   -2.1213    0.3376    1.8542 C   0  0  0  0  0  0  0  0  0  0  0  0
   -1.4233    0.8455    2.7316 O   0  0  0  0  0  0  0  0  0  0  0  0
   -3.3247   -0.2967    2.1375 N   0  0  0  0  0  0  0  0  0  0  0  0
   -3.8360   -0.5737    3.4872 C   0  0  0  0  0  0  0  0  0  0  0  0
   -5.1876   -1.2975    3.3417 C   0  0  0  0  0  0  0  0  0  0  0  0
   -2.8742   -1.4912    4.2572 C   0  0  0  0  0  0  0  0  0  0  0  0
   -4.0703    0.7269    4.2708 C   0  0  0  0  0  0  0  0  0  0  0  0
   -0.4606    1.0471    0.0940 N   0  0  0  0  0  0  0  0  0  0  0  0
    0.6745    0.3033    0.4182 C   0  0  0  0  0  0  0  0  0  0  0  0
    0.6320   -0.7780    1.0067 O   0  0  0  0  0  0  0  0  0  0  0  0
    2.0086    0.8925   -0.0104 C   0  0  0  0  0  0  0  0  0  0  0  0
    3.1581   -0.0694    0.2768 C   0  0  0  0  0  0  0  0  0  0  0  0
    4.4787    0.4551   -0.2485 C   0  0  0  0  0  0  0  0  0  0  0  0
    4.5576    1.4604   -0.9459 O   0  0  0  0  0  0  0  0  0  0  0  0
    5.5325   -0.3429    0.1349 N   0  0  0  0  0  0  0  0  0  0  0  0
    6.8517   -0.1346   -0.1997 C   0  0  0  0  0  0  0  0  0  0  0  0
    7.4266    0.8785   -0.9975 C   0  0  0  0  0  0  0  0  0  0  0  0
    8.7715    0.6031   -0.9890 C   0  0  0  0  0  0  0  0  0  0  0  0
    9.9545    1.2316   -1.5999 C   0  0  0  0  0  0  0  0  0  0  0  0
    8.9932   -0.5090   -0.2399 O   0  0  0  0  0  0  0  0  0  0  0  0
    7.7880   -0.9763    0.2521 N   0  0  0  0  0  0  0  0  0  0  0  0
   -0.4023    2.3223   -0.5851 C   0  0  0  0  0  0  0  0  0  0  0  0
   -1.2805    3.4882   -0.1940 C   0  0  0  0  0  0  0  0  0  0  0  0
    0.1875    3.5454    0.0725 C   0  0  0  0  0  0  0  0  0  0  0  0
   -2.6479   -0.6351   -1.8136 C   0  0  0  0  0  0  0  0  0  0  0  0
   -2.9342    0.6443   -2.2350 O   0  0  0  0  0  0  0  0  0  0  0  0
   -2.3193    0.9726   -3.4815 C   0  0  0  0  0  0  0  0  0  0  0  0
   -4.7089   -3.2887   -4.0027 H   0  0  0  0  0  0  0  0  0  0  0  0
   -4.4831   -2.3118   -5.4587 H   0  0  0  0  0  0  0  0  0  0  0  0
   -3.1207   -3.2689   -4.8673 H   0  0  0  0  0  0  0  0  0  0  0  0
   -2.8789   -3.9431   -2.6526 H   0  0  0  0  0  0  0  0  0  0  0  0
   -1.8445   -4.1740   -0.4532 H   0  0  0  0  0  0  0  0  0  0  0  0
   -1.3513   -2.2114    0.9238 H   0  0  0  0  0  0  0  0  0  0  0  0
   -2.5359    1.2285    0.0317 H   0  0  0  0  0  0  0  0  0  0  0  0
   -3.8093   -0.7332    1.3612 H   0  0  0  0  0  0  0  0  0  0  0  0
   -5.6238   -1.5315    4.3190 H   0  0  0  0  0  0  0  0  0  0  0  0
   -5.9079   -0.6813    2.7912 H   0  0  0  0  0  0  0  0  0  0  0  0
   -5.0763   -2.2373    2.7880 H   0  0  0  0  0  0  0  0  0  0  0  0
   -2.6755   -2.4113    3.6960 H   0  0  0  0  0  0  0  0  0  0  0  0
   -1.9091   -1.0085    4.4429 H   0  0  0  0  0  0  0  0  0  0  0  0
   -3.2903   -1.7736    5.2307 H   0  0  0  0  0  0  0  0  0  0  0  0
   -4.7109    1.4149    3.7074 H   0  0  0  0  0  0  0  0  0  0  0  0
   -3.1352    1.2542    4.4844 H   0  0  0  0  0  0  0  0  0  0  0  0
   -4.5552    0.5269    5.2328 H   0  0  0  0  0  0  0  0  0  0  0  0
    1.9694    1.1116   -1.0835 H   0  0  0  0  0  0  0  0  0  0  0  0
    2.1837    1.8241    0.5363 H   0  0  0  0  0  0  0  0  0  0  0  0
    3.2467   -0.2354    1.3574 H   0  0  0  0  0  0  0  0  0  0  0  0
    2.9688   -1.0390   -0.1997 H   0  0  0  0  0  0  0  0  0  0  0  0
    5.3807   -1.1460    0.7318 H   0  0  0  0  0  0  0  0  0  0  0  0
    6.9364    1.6941   -1.5092 H   0  0  0  0  0  0  0  0  0  0  0  0
   10.3324    0.6146   -2.4213 H   0  0  0  0  0  0  0  0  0  0  0  0
   10.7540    1.3527   -0.8625 H   0  0  0  0  0  0  0  0  0  0  0  0
    9.7103    2.2203   -2.0006 H   0  0  0  0  0  0  0  0  0  0  0  0
   -0.2075    2.2063   -1.6495 H   0  0  0  0  0  0  0  0  0  0  0  0
   -1.9260    3.4096    0.6729 H   0  0  0  0  0  0  0  0  0  0  0  0
   -1.6829    4.1040   -0.9889 H   0  0  0  0  0  0  0  0  0  0  0  0
    0.7945    4.2007   -0.5397 H   0  0  0  0  0  0  0  0  0  0  0  0
    0.5029    3.4811    1.1084 H   0  0  0  0  0  0  0  0  0  0  0  0
   -3.0136    0.7968   -4.3087 H   0  0  0  0  0  0  0  0  0  0  0  0
   -2.0949    2.0438   -3.4668 H   0  0  0  0  0  0  0  0  0  0  0  0
   -1.3763    0.4367   -3.6438 H   0  0  0  0  0  0  0  0  0  0  0  0
  1  2  1  0
  2  3  1  0
  3  4  2  0
  4  5  1  0
  5  6  2  0
  6  7  1  0
  7  8  1  0
  8  9  1  0
  9 10  2  0
  9 11  1  0
 11 12  1  0
 12 13  1  0
 12 14  1  0
 12 15  1  0
  8 16  1  0
 16 17  1  0
 17 18  2  0
 17 19  1  0
 19 20  1  0
 20 21  1  0
 21 22  2  0
 21 23  1  0
 23 24  1  0
 24 25  1  0
 25 26  2  0
 26 27  1  0
 26 28  1  0
 28 29  1  0
 16 30  1  0
 30 31  1  0
 31 32  1  0
  7 33  2  0
 33 34  1  0
 34 35  1  0
 33  3  1  0
 29 24  2  0
 32 30  1  0
  1 36  1  0
  1 37  1  0
  1 38  1  0
  4 39  1  0
  5 40  1  0
  6 41  1  0
  8 42  1  0
 11 43  1  0
 13 44  1  0
 13 45  1  0
 13 46  1  0
 14 47  1  0
 14 48  1  0
 14 49  1  0
 15 50  1  0
 15 51  1  0
 15 52  1  0
 19 53  1  0
 19 54  1  0
 20 55  1  0
 20 56  1  0
 23 57  1  0
 25 58  1  0
 27 59  1  0
 27 60  1  0
 27 61  1  0
 30 62  1  0
 31 63  1  0
 31 64  1  0
 32 65  1  0
 32 66  1  0
 35 67  1  0
 35 68  1  0
 35 69  1  0
M  END
$$$$
