
     RDKit          3D

 62 66  0  0  0  0  0  0  0  0999 V2000
   -3.7123    6.2735   -1.6205 C   0  0  0  0  0  0  0  0  0  0  0  0
   -2.9874    5.0507   -1.5780 O   0  0  0  0  0  0  0  0  0  0  0  0
   -3.6278    3.9680   -1.0391 C   0  0  0  0  0  0  0  0  0  0  0  0
   -4.9200    3.9511   -0.5331 C   0  0  0  0  0  0  0  0  0  0  0  0
   -5.4644    2.7733   -0.0079 C   0  0  0  0  0  0  0  0  0  0  0  0
   -4.6857    1.5998    0.0063 C   0  0  0  0  0  0  0  0  0  0  0  0
   -5.1566    0.0579    0.5966 S   0  0  0  0  0  0  0  0  0  0  0  0
   -3.6451   -0.6474    0.2178 C   0  0  0  0  0  0  0  0  0  0  0  0
   -3.4347   -2.0662    0.5452 C   0  0  0  0  0  0  0  0  0  0  0  0
   -4.0851   -3.0450   -0.2254 C   0  0  0  0  0  0  0  0  0  0  0  0
   -3.8868   -4.4005    0.0323 C   0  0  0  0  0  0  0  0  0  0  0  0
   -3.0347   -4.7905    1.0596 C   0  0  0  0  0  0  0  0  0  0  0  0
   -2.3813   -3.8291    1.8350 C   0  0  0  0  0  0  0  0  0  0  0  0
   -2.5725   -2.4640    1.5876 C   0  0  0  0  0  0  0  0  0  0  0  0
   -1.9916   -1.4593    2.3210 O   0  0  0  0  0  0  0  0  0  0  0  0
   -0.9474   -1.8222    3.2134 C   0  0  0  0  0  0  0  0  0  0  0  0
   -2.7832    0.2714   -0.3613 C   0  0  0  0  0  0  0  0  0  0  0  0
   -1.4245   -0.0898   -0.7564 C   0  0  0  0  0  0  0  0  0  0  0  0
   -0.3326    0.4634   -0.0796 C   0  0  0  0  0  0  0  0  0  0  0  0
    0.9755    0.1305   -0.4486 C   0  0  0  0  0  0  0  0  0  0  0  0
    1.2030   -0.7550   -1.5014 C   0  0  0  0  0  0  0  0  0  0  0  0
    2.4222   -1.1700   -1.9598 O   0  0  0  0  0  0  0  0  0  0  0  0
    3.5929   -0.4934   -1.4892 C   0  0  0  0  0  0  0  0  0  0  0  0
    4.1530   -1.1842   -0.2323 C   0  0  0  0  0  0  0  0  0  0  0  0
    5.3083   -0.5767    0.4312 N   0  0  0  0  0  0  0  0  0  0  0  0
    5.0576    0.7279    1.0337 C   0  0  0  0  0  0  0  0  0  0  0  0
    6.4561    1.1837    1.4234 C   0  0  0  0  0  0  0  0  0  0  0  0
    7.3945    0.4636    0.4589 C   0  0  0  0  0  0  0  0  0  0  0  0
    6.4919   -0.4080   -0.4049 C   0  0  0  0  0  0  0  0  0  0  0  0
    0.1105   -1.3126   -2.1712 C   0  0  0  0  0  0  0  0  0  0  0  0
   -1.1972   -0.9800   -1.8083 C   0  0  0  0  0  0  0  0  0  0  0  0
   -3.3816    1.5827   -0.4887 C   0  0  0  0  0  0  0  0  0  0  0  0
   -2.8652    2.7940   -1.0197 C   0  0  0  0  0  0  0  0  0  0  0  0
   -3.9714    6.6144   -0.6126 H   0  0  0  0  0  0  0  0  0  0  0  0
   -3.0637    7.0311   -2.0711 H   0  0  0  0  0  0  0  0  0  0  0  0
   -4.6040    6.1820   -2.2497 H   0  0  0  0  0  0  0  0  0  0  0  0
   -5.5444    4.8386   -0.5297 H   0  0  0  0  0  0  0  0  0  0  0  0
   -6.4771    2.7667    0.3857 H   0  0  0  0  0  0  0  0  0  0  0  0
   -4.7470   -2.7507   -1.0365 H   0  0  0  0  0  0  0  0  0  0  0  0
   -4.3958   -5.1484   -0.5697 H   0  0  0  0  0  0  0  0  0  0  0  0
   -2.8785   -5.8474    1.2630 H   0  0  0  0  0  0  0  0  0  0  0  0
   -1.7351   -4.1783    2.6318 H   0  0  0  0  0  0  0  0  0  0  0  0
   -1.3356   -2.4149    4.0480 H   0  0  0  0  0  0  0  0  0  0  0  0
   -0.1404   -2.3502    2.6931 H   0  0  0  0  0  0  0  0  0  0  0  0
   -0.5283   -0.9009    3.6299 H   0  0  0  0  0  0  0  0  0  0  0  0
   -0.4963    1.1471    0.7504 H   0  0  0  0  0  0  0  0  0  0  0  0
    1.7869    0.5727    0.1177 H   0  0  0  0  0  0  0  0  0  0  0  0
    4.3276   -0.5745   -2.2983 H   0  0  0  0  0  0  0  0  0  0  0  0
    3.4125    0.5783   -1.3565 H   0  0  0  0  0  0  0  0  0  0  0  0
    3.3525   -1.3035    0.5089 H   0  0  0  0  0  0  0  0  0  0  0  0
    4.4132   -2.2166   -0.5025 H   0  0  0  0  0  0  0  0  0  0  0  0
    4.6245    1.4406    0.3225 H   0  0  0  0  0  0  0  0  0  0  0  0
    4.3993    0.6638    1.9052 H   0  0  0  0  0  0  0  0  0  0  0  0
    6.5597    2.2709    1.3547 H   0  0  0  0  0  0  0  0  0  0  0  0
    6.6871    0.8881    2.4536 H   0  0  0  0  0  0  0  0  0  0  0  0
    8.1091   -0.1486    1.0205 H   0  0  0  0  0  0  0  0  0  0  0  0
    7.9658    1.1723   -0.1496 H   0  0  0  0  0  0  0  0  0  0  0  0
    6.2705    0.1198   -1.3397 H   0  0  0  0  0  0  0  0  0  0  0  0
    6.9676   -1.3633   -0.6469 H   0  0  0  0  0  0  0  0  0  0  0  0
    0.2785   -2.0112   -2.9869 H   0  0  0  0  0  0  0  0  0  0  0  0
   -2.0295   -1.4216   -2.3494 H   0  0  0  0  0  0  0  0  0  0  0  0
   -1.8552    2.8141   -1.4226 H   0  0  0  0  0  0  0  0  0  0  0  0
  1  2  1  0
  2  3  1  0
  3  4  2  0
  4  5  1  0
  5  6  2  0
  6  7  1  0
  7  8  1  0
  8  9  1  0
  9 10  2  0
 10 11  1  0
 11 12  2  0
 12 13  1  0
 13 14  2  0
 14 15  1  0
 15 16  1  0
  8 17  2  0
 17 18  1  0
 18 19  2  0
 19 20  1  0
 20 21  2  0
 21 22  1  0
 22 23  1  0
 23 24  1  0
 24 25  1  0
 25 26  1  0
 26 27  1  0
 27 28  1  0
 28 29  1  0
 21 30  1  0
 30 31  2  0
 17 32  1  0
 32 33  2  0
 33  3  1  0
 32  6  1  0
 14  9  1  0
 31 18  1  0
 29 25  1  0
  1 34  1  0
  1 35  1  0
  1 36  1  0
  4 37  1  0
  5 38  1  0
 10 39  1  0
 11 40  1  0
 12 41  1  0
 13 42  1  0
 16 43  1  0
 16 44  1  0
 16 45  1  0
 19 46  1  0
 20 47  1  0
 23 48  1  0
 23 49  1  0
 24 50  1  0
 24 51  1  0
 26 52  1  0
 26 53  1  0
 27 54  1  0
 27 55  1  0
 28 56  1  0
 28 57  1  0
 29 58  1  0
 29 59  1  0
 30 60  1  0
 31 61  1  0
 33 62  1  0
M  END
$$$$
