
     RDKit          3D

 57 61  0  0  0  0  0  0  0  0999 V2000
    1.8535   -2.9692    2.9711 O   0  0  0  0  0  0  0  0  0  0  0  0
    2.0574   -2.4475    1.8807 C   0  0  0  0  0  0  0  0  0  0  0  0
    1.0292   -1.8644    1.1478 N   0  0  0  0  0  0  0  0  0  0  0  0
    1.1924   -1.2602   -0.0912 C   0  0  0  0  0  0  0  0  0  0  0  0
   -0.0470   -0.6692   -0.7634 C   0  0  0  0  0  0  0  0  0  0  0  0
   -0.6834    0.4648    0.0448 C   0  0  0  0  0  0  0  0  0  0  0  0
   -1.7562    0.0308    1.0365 C   0  0  0  0  0  0  0  0  0  0  0  0
   -2.7030   -0.9554    0.4642 N   0  0  0  0  0  0  0  0  0  0  0  0
   -4.0532   -0.3430   -0.3962 S   0  0  0  0  0  6  0  0  0  0  0  0
   -3.5285    0.6406   -1.3133 O   0  0  0  0  0  0  0  0  0  0  0  0
   -4.8559   -1.4594   -0.8401 O   0  0  0  0  0  0  0  0  0  0  0  0
   -5.0066    0.4882    0.8629 C   0  0  0  0  0  0  0  0  0  0  0  0
   -5.0440   -0.0984    2.1398 C   0  0  0  0  0  0  0  0  0  0  0  0
   -5.7324    0.5236    3.1790 C   0  0  0  0  0  0  0  0  0  0  0  0
   -6.3892    1.7276    2.9495 C   0  0  0  0  0  0  0  0  0  0  0  0
   -6.3743    2.3010    1.6762 C   0  0  0  0  0  0  0  0  0  0  0  0
   -5.6967    1.6857    0.6037 C   0  0  0  0  0  0  0  0  0  0  0  0
   -5.7605    2.3287   -0.7620 C   0  0  0  0  0  0  0  0  0  0  0  0
   -5.9916    1.4458   -1.7673 F   0  0  0  0  0  0  0  0  0  0  0  0
   -6.7763    3.2389   -0.8562 F   0  0  0  0  0  0  0  0  0  0  0  0
   -4.6356    3.0248   -1.0701 F   0  0  0  0  0  0  0  0  0  0  0  0
   -2.0461   -2.1379   -0.1352 C   0  0  0  0  0  0  0  0  0  0  0  0
   -1.0480   -1.7377   -1.2094 C   0  0  0  0  0  0  0  0  0  0  0  0
    2.3403   -1.1764   -0.7086 N   0  0  0  0  0  0  0  0  0  0  0  0
    3.3629   -1.7297   -0.0126 C   0  0  0  0  0  0  0  0  0  0  0  0
    3.3231   -2.3527    1.2101 C   0  0  0  0  0  0  0  0  0  0  0  0
    4.5614   -2.7845    1.5707 N   0  0  0  0  0  0  0  0  0  0  0  0
    5.4003   -2.4404    0.5930 N   0  0  0  0  0  0  0  0  0  0  0  0
    4.6833   -1.7860   -0.3549 N   0  0  0  0  0  0  0  0  0  0  0  0
    5.3182   -1.2843   -1.5552 C   0  0  0  0  0  0  0  0  0  0  0  0
    5.6993    0.1676   -1.4085 C   0  0  0  0  0  0  0  0  0  0  0  0
    6.9032    0.5307   -0.7822 C   0  0  0  0  0  0  0  0  0  0  0  0
    7.2490    1.8761   -0.6295 C   0  0  0  0  0  0  0  0  0  0  0  0
    6.3933    2.8719   -1.0959 C   0  0  0  0  0  0  0  0  0  0  0  0
    5.1976    2.5151   -1.7070 C   0  0  0  0  0  0  0  0  0  0  0  0
    4.3707    3.4724   -2.1475 F   0  0  0  0  0  0  0  0  0  0  0  0
    4.8424    1.1792   -1.8657 C   0  0  0  0  0  0  0  0  0  0  0  0
    0.1354   -1.9178    1.6063 H   0  0  0  0  0  0  0  0  0  0  0  0
    0.3398   -0.2079   -1.6852 H   0  0  0  0  0  0  0  0  0  0  0  0
   -1.1328    1.1709   -0.6640 H   0  0  0  0  0  0  0  0  0  0  0  0
    0.0875    1.0342    0.5787 H   0  0  0  0  0  0  0  0  0  0  0  0
   -1.3001   -0.4173    1.9257 H   0  0  0  0  0  0  0  0  0  0  0  0
   -2.2905    0.9129    1.4049 H   0  0  0  0  0  0  0  0  0  0  0  0
   -4.5428   -1.0456    2.3303 H   0  0  0  0  0  0  0  0  0  0  0  0
   -5.7591    0.0680    4.1664 H   0  0  0  0  0  0  0  0  0  0  0  0
   -6.9278    2.2164    3.7589 H   0  0  0  0  0  0  0  0  0  0  0  0
   -6.9139    3.2357    1.5187 H   0  0  0  0  0  0  0  0  0  0  0  0
   -2.7886   -2.8269   -0.5513 H   0  0  0  0  0  0  0  0  0  0  0  0
   -1.5584   -2.7038    0.6647 H   0  0  0  0  0  0  0  0  0  0  0  0
   -1.6044   -1.3469   -2.0712 H   0  0  0  0  0  0  0  0  0  0  0  0
   -0.5205   -2.6317   -1.5636 H   0  0  0  0  0  0  0  0  0  0  0  0
    6.2017   -1.9000   -1.7607 H   0  0  0  0  0  0  0  0  0  0  0  0
    4.6258   -1.4298   -2.3924 H   0  0  0  0  0  0  0  0  0  0  0  0
    7.5767   -0.2356   -0.3993 H   0  0  0  0  0  0  0  0  0  0  0  0
    8.1828    2.1452   -0.1417 H   0  0  0  0  0  0  0  0  0  0  0  0
    6.6472    3.9209   -0.9822 H   0  0  0  0  0  0  0  0  0  0  0  0
    3.8931    0.9421   -2.3389 H   0  0  0  0  0  0  0  0  0  0  0  0
  1  2  2  0
  2  3  1  0
  3  4  1  0
  4  5  1  0
  5  6  1  0
  6  7  1  0
  7  8  1  0
  8  9  1  0
  9 10  2  0
  9 11  2  0
  9 12  1  0
 12 13  2  0
 13 14  1  0
 14 15  2  0
 15 16  1  0
 16 17  2  0
 17 18  1  0
 18 19  1  0
 18 20  1  0
 18 21  1  0
  8 22  1  0
 22 23  1  0
  4 24  2  0
 24 25  1  0
 25 26  2  0
 26 27  1  0
 27 28  2  0
 28 29  1  0
 29 30  1  0
 30 31  1  0
 31 32  2  0
 32 33  1  0
 33 34  2  0
 34 35  1  0
 35 36  1  0
 35 37  2  0
 26  2  1  0
 37 31  1  0
 23  5  1  0
 29 25  1  0
 17 12  1  0
  3 38  1  0
  5 39  1  0
  6 40  1  0
  6 41  1  0
  7 42  1  0
  7 43  1  0
 13 44  1  0
 14 45  1  0
 15 46  1  0
 16 47  1  0
 22 48  1  0
 22 49  1  0
 23 50  1  0
 23 51  1  0
 30 52  1  0
 30 53  1  0
 32 54  1  0
 33 55  1  0
 34 56  1  0
 37 57  1  0
M  END
$$$$
