
     RDKit          3D

 77 80  0  0  0  0  0  0  0  0999 V2000
   -1.1127    2.9852   -4.6383 C   0  0  0  0  0  0  0  0  0  0  0  0
   -0.5164    3.0480   -3.2364 C   0  0  0  0  0  0  0  0  0  0  0  0
   -0.2282    4.4929   -2.8318 C   0  0  0  0  0  0  0  0  0  0  0  0
   -1.4221    2.4256   -2.2812 N   0  0  0  0  0  0  0  0  0  0  0  0
   -1.0208    1.9200   -1.0826 C   0  0  0  0  0  0  0  0  0  0  0  0
    0.1612    1.9185   -0.7400 O   0  0  0  0  0  0  0  0  0  0  0  0
   -2.0173    1.3652   -0.2972 N   0  0  0  0  0  0  0  0  0  0  0  0
   -3.4485    1.5743   -0.4548 C   0  0  0  0  0  0  0  0  0  0  0  0
   -1.5968    0.4947    0.8014 C   0  0  0  0  0  0  0  0  0  0  0  0
   -1.1514   -0.9261    0.3382 C   0  0  0  0  0  0  0  0  0  0  0  0
   -0.4108   -1.5144    1.4270 O   0  0  0  0  0  0  0  0  0  0  0  0
    0.7022   -2.1858    0.9696 C   0  0  0  0  0  0  0  0  0  0  0  0
    1.9002   -1.4853    0.7066 C   0  0  0  0  0  0  0  0  0  0  0  0
    1.9081   -0.0905    0.8746 N   0  0  0  0  0  0  0  0  0  0  0  0
    2.9709    0.7891    0.8514 C   0  0  0  0  0  0  0  0  0  0  0  0
    4.1546    0.4808    0.8535 O   0  0  0  0  0  0  0  0  0  0  0  0
    2.4781    2.0879    0.8410 N   0  0  0  0  0  0  0  0  0  0  0  0
    3.1652    3.2591    1.2048 C   0  0  0  0  0  0  0  0  0  0  0  0
    2.5504    4.4889    0.8908 C   0  0  0  0  0  0  0  0  0  0  0  0
    3.1215    5.7061    1.2875 C   0  0  0  0  0  0  0  0  0  0  0  0
    4.2926    5.6505    2.0078 C   0  0  0  0  0  0  0  0  0  0  0  0
    4.8976    4.4554    2.3143 C   0  0  0  0  0  0  0  0  0  0  0  0
    4.3648    3.2432    1.9213 C   0  0  0  0  0  0  0  0  0  0  0  0
    6.0271    4.6267    3.0603 O   0  0  0  0  0  0  0  0  0  0  0  0
    6.0800    6.0661    3.1518 C   0  0  0  0  0  0  0  0  0  0  0  0
    4.9718    6.7202    2.5031 O   0  0  0  0  0  0  0  0  0  0  0  0
    3.0218   -2.1872    0.2638 C   0  0  0  0  0  0  0  0  0  0  0  0
    2.9826   -3.5738    0.1185 C   0  0  0  0  0  0  0  0  0  0  0  0
    1.8158   -4.2704    0.4103 C   0  0  0  0  0  0  0  0  0  0  0  0
    0.6701   -3.5774    0.8329 C   0  0  0  0  0  0  0  0  0  0  0  0
   -0.4902   -4.4164    1.1826 C   0  0  0  0  0  0  0  0  0  0  0  0
   -0.2763   -5.3343    1.9778 O   0  0  0  0  0  0  0  0  0  0  0  0
   -1.7263   -4.2420    0.5308 N   0  0  0  0  0  0  0  0  0  0  0  0
   -2.6010   -5.4455    0.5680 C   0  0  0  0  0  0  0  0  0  0  0  0
   -4.1037   -5.1665    0.5310 C   0  0  0  0  0  0  0  0  0  0  0  0
   -2.1838   -6.4872   -0.5014 C   0  0  0  0  0  0  0  0  0  0  0  0
   -2.4900   -6.0650   -1.8341 O   0  0  0  0  0  0  0  0  0  0  0  0
   -1.9169   -3.2477   -0.5380 C   0  0  0  0  0  0  0  0  0  0  0  0
   -2.3455   -1.8300   -0.0709 C   0  0  0  0  0  0  0  0  0  0  0  0
   -3.4556   -1.8895    0.9831 C   0  0  0  0  0  0  0  0  0  0  0  0
   -0.4776    3.4992   -5.3668 H   0  0  0  0  0  0  0  0  0  0  0  0
   -2.1102    3.4436   -4.6640 H   0  0  0  0  0  0  0  0  0  0  0  0
   -1.2243    1.9426   -4.9622 H   0  0  0  0  0  0  0  0  0  0  0  0
    0.4233    2.4840   -3.2320 H   0  0  0  0  0  0  0  0  0  0  0  0
    0.3942    5.0037   -3.5793 H   0  0  0  0  0  0  0  0  0  0  0  0
    0.2991    4.5270   -1.8644 H   0  0  0  0  0  0  0  0  0  0  0  0
   -1.1571    5.0652   -2.7120 H   0  0  0  0  0  0  0  0  0  0  0  0
   -2.3893    2.3338   -2.5437 H   0  0  0  0  0  0  0  0  0  0  0  0
   -3.9093    0.6380   -0.7790 H   0  0  0  0  0  0  0  0  0  0  0  0
   -3.6853    2.3517   -1.1799 H   0  0  0  0  0  0  0  0  0  0  0  0
   -3.8753    1.8862    0.4997 H   0  0  0  0  0  0  0  0  0  0  0  0
   -2.3682    0.4569    1.5749 H   0  0  0  0  0  0  0  0  0  0  0  0
   -0.7641    0.9968    1.3031 H   0  0  0  0  0  0  0  0  0  0  0  0
   -0.5064   -0.8063   -0.5468 H   0  0  0  0  0  0  0  0  0  0  0  0
    1.0784    0.3006    1.2865 H   0  0  0  0  0  0  0  0  0  0  0  0
    1.6070    2.1942    0.3178 H   0  0  0  0  0  0  0  0  0  0  0  0
    1.6128    4.5057    0.3501 H   0  0  0  0  0  0  0  0  0  0  0  0
    2.6453    6.6532    1.0661 H   0  0  0  0  0  0  0  0  0  0  0  0
    4.8799    2.3268    2.1719 H   0  0  0  0  0  0  0  0  0  0  0  0
    7.0117    6.4138    2.6879 H   0  0  0  0  0  0  0  0  0  0  0  0
    6.0785    6.3498    4.2065 H   0  0  0  0  0  0  0  0  0  0  0  0
    3.9633   -1.6861    0.0524 H   0  0  0  0  0  0  0  0  0  0  0  0
    3.8869   -4.1055   -0.1804 H   0  0  0  0  0  0  0  0  0  0  0  0
    1.8062   -5.3567    0.3356 H   0  0  0  0  0  0  0  0  0  0  0  0
   -2.4382   -5.9330    1.5391 H   0  0  0  0  0  0  0  0  0  0  0  0
   -4.6614   -6.1119    0.5200 H   0  0  0  0  0  0  0  0  0  0  0  0
   -4.4106   -4.6273    1.4375 H   0  0  0  0  0  0  0  0  0  0  0  0
   -4.4224   -4.5853   -0.3395 H   0  0  0  0  0  0  0  0  0  0  0  0
   -1.1050   -6.6770   -0.4570 H   0  0  0  0  0  0  0  0  0  0  0  0
   -2.6992   -7.4354   -0.3297 H   0  0  0  0  0  0  0  0  0  0  0  0
   -3.4541   -6.0279   -1.9183 H   0  0  0  0  0  0  0  0  0  0  0  0
   -1.0099   -3.1938   -1.1507 H   0  0  0  0  0  0  0  0  0  0  0  0
   -2.6920   -3.6237   -1.2166 H   0  0  0  0  0  0  0  0  0  0  0  0
   -2.7800   -1.3588   -0.9597 H   0  0  0  0  0  0  0  0  0  0  0  0
   -3.0955   -2.3076    1.9246 H   0  0  0  0  0  0  0  0  0  0  0  0
   -4.2909   -2.4953    0.6235 H   0  0  0  0  0  0  0  0  0  0  0  0
   -3.8824   -0.9042    1.1876 H   0  0  0  0  0  0  0  0  0  0  0  0
  1  2  1  0
  2  3  1  0
  2  4  1  0
  4  5  1  0
  5  6  2  0
  5  7  1  0
  7  8  1  0
  7  9  1  0
  9 10  1  0
 10 11  1  0
 11 12  1  0
 12 13  2  0
 13 14  1  0
 14 15  1  0
 15 16  2  0
 15 17  1  0
 17 18  1  0
 18 19  2  0
 19 20  1  0
 20 21  2  0
 21 22  1  0
 22 23  2  0
 22 24  1  0
 24 25  1  0
 25 26  1  0
 13 27  1  0
 27 28  2  0
 28 29  1  0
 29 30  2  0
 30 31  1  0
 31 32  2  0
 31 33  1  0
 33 34  1  0
 34 35  1  0
 34 36  1  0
 36 37  1  0
 33 38  1  0
 38 39  1  0
 39 40  1  0
 39 10  1  0
 30 12  1  0
 23 18  1  0
 26 21  1  0
  1 41  1  0
  1 42  1  0
  1 43  1  0
  2 44  1  0
  3 45  1  0
  3 46  1  0
  3 47  1  0
  4 48  1  0
  8 49  1  0
  8 50  1  0
  8 51  1  0
  9 52  1  0
  9 53  1  0
 10 54  1  0
 14 55  1  0
 17 56  1  0
 19 57  1  0
 20 58  1  0
 23 59  1  0
 25 60  1  0
 25 61  1  0
 27 62  1  0
 28 63  1  0
 29 64  1  0
 34 65  1  0
 35 66  1  0
 35 67  1  0
 35 68  1  0
 36 69  1  0
 36 70  1  0
 37 71  1  0
 38 72  1  0
 38 73  1  0
 39 74  1  0
 40 75  1  0
 40 76  1  0
 40 77  1  0
M  END
$$$$
