
     RDKit          3D

 63 67  0  0  0  0  0  0  0  0999 V2000
   -5.0880   -1.4467    6.1679 C   0  0  0  0  0  0  0  0  0  0  0  0
   -4.0877   -1.1693    5.1959 O   0  0  0  0  0  0  0  0  0  0  0  0
   -4.4605   -1.2490    3.8816 C   0  0  0  0  0  0  0  0  0  0  0  0
   -5.7336   -1.5395    3.4098 C   0  0  0  0  0  0  0  0  0  0  0  0
   -5.9903   -1.5922    2.0346 C   0  0  0  0  0  0  0  0  0  0  0  0
   -4.9410   -1.3466    1.1282 C   0  0  0  0  0  0  0  0  0  0  0  0
   -5.0343   -1.3643   -0.5883 S   0  0  0  0  0  0  0  0  0  0  0  0
   -3.3808   -0.9722   -0.7666 C   0  0  0  0  0  0  0  0  0  0  0  0
   -2.8349   -0.8337   -2.1228 C   0  0  0  0  0  0  0  0  0  0  0  0
   -2.4079   -1.9883   -2.8000 C   0  0  0  0  0  0  0  0  0  0  0  0
   -1.8655   -1.8987   -4.0803 C   0  0  0  0  0  0  0  0  0  0  0  0
   -1.7437   -0.6555   -4.6933 C   0  0  0  0  0  0  0  0  0  0  0  0
   -2.1640    0.5017   -4.0307 C   0  0  0  0  0  0  0  0  0  0  0  0
   -2.7119    0.4262   -2.7445 C   0  0  0  0  0  0  0  0  0  0  0  0
   -3.1418    1.5103   -2.0204 O   0  0  0  0  0  0  0  0  0  0  0  0
   -3.1264    2.7765   -2.6622 C   0  0  0  0  0  0  0  0  0  0  0  0
   -2.7525   -0.8351    0.4591 C   0  0  0  0  0  0  0  0  0  0  0  0
   -1.3383   -0.5019    0.5537 C   0  0  0  0  0  0  0  0  0  0  0  0
   -0.9405    0.8340    0.6621 C   0  0  0  0  0  0  0  0  0  0  0  0
    0.4166    1.1616    0.7500 C   0  0  0  0  0  0  0  0  0  0  0  0
    1.3828    0.1548    0.7294 C   0  0  0  0  0  0  0  0  0  0  0  0
    2.7362    0.3371    0.7970 O   0  0  0  0  0  0  0  0  0  0  0  0
    3.2108    1.6836    0.8718 C   0  0  0  0  0  0  0  0  0  0  0  0
    4.7525    1.6836    0.8666 C   0  0  0  0  0  0  0  0  0  0  0  0
    5.3551    1.8345   -0.4739 N   0  0  0  0  0  0  0  0  0  0  0  0
    6.8038    2.1200   -0.3537 C   0  0  0  0  0  0  0  0  0  0  0  0
    7.5762    1.7362   -1.6237 C   0  0  0  0  0  0  0  0  0  0  0  0
    7.5338    0.3282   -1.8874 O   0  0  0  0  0  0  0  0  0  0  0  0
    6.3261   -0.2932   -1.4231 C   0  0  0  0  0  0  0  0  0  0  0  0
    5.1318    0.6722   -1.3623 C   0  0  0  0  0  0  0  0  0  0  0  0
    0.9799   -1.1807    0.6301 C   0  0  0  0  0  0  0  0  0  0  0  0
   -0.3742   -1.5124    0.5444 C   0  0  0  0  0  0  0  0  0  0  0  0
   -3.6509   -1.0491    1.5689 C   0  0  0  0  0  0  0  0  0  0  0  0
   -3.4266   -1.0040    2.9698 C   0  0  0  0  0  0  0  0  0  0  0  0
   -4.6260   -1.3606    7.1559 H   0  0  0  0  0  0  0  0  0  0  0  0
   -5.9020   -0.7157    6.1165 H   0  0  0  0  0  0  0  0  0  0  0  0
   -5.4667   -2.4694    6.0656 H   0  0  0  0  0  0  0  0  0  0  0  0
   -6.5628   -1.7313    4.0833 H   0  0  0  0  0  0  0  0  0  0  0  0
   -6.9892   -1.8192    1.6722 H   0  0  0  0  0  0  0  0  0  0  0  0
   -2.4945   -2.9629   -2.3246 H   0  0  0  0  0  0  0  0  0  0  0  0
   -1.5356   -2.7964   -4.5963 H   0  0  0  0  0  0  0  0  0  0  0  0
   -1.3172   -0.5837   -5.6907 H   0  0  0  0  0  0  0  0  0  0  0  0
   -2.0430    1.4484   -4.5459 H   0  0  0  0  0  0  0  0  0  0  0  0
   -2.1040    3.0871   -2.8977 H   0  0  0  0  0  0  0  0  0  0  0  0
   -3.5410    3.5089   -1.9631 H   0  0  0  0  0  0  0  0  0  0  0  0
   -3.7565    2.7764   -3.5576 H   0  0  0  0  0  0  0  0  0  0  0  0
   -1.6856    1.6266    0.6669 H   0  0  0  0  0  0  0  0  0  0  0  0
    0.6798    2.2106    0.8291 H   0  0  0  0  0  0  0  0  0  0  0  0
    2.8704    2.1227    1.8180 H   0  0  0  0  0  0  0  0  0  0  0  0
    2.8328    2.2858    0.0361 H   0  0  0  0  0  0  0  0  0  0  0  0
    5.1368    0.7844    1.3648 H   0  0  0  0  0  0  0  0  0  0  0  0
    5.0623    2.5520    1.4626 H   0  0  0  0  0  0  0  0  0  0  0  0
    7.2349    1.5622    0.4881 H   0  0  0  0  0  0  0  0  0  0  0  0
    6.9385    3.1882   -0.1534 H   0  0  0  0  0  0  0  0  0  0  0  0
    7.1791    2.2650   -2.4973 H   0  0  0  0  0  0  0  0  0  0  0  0
    8.6287    2.0187   -1.5234 H   0  0  0  0  0  0  0  0  0  0  0  0
    6.5256   -0.7263   -0.4350 H   0  0  0  0  0  0  0  0  0  0  0  0
    6.1052   -1.1224   -2.1039 H   0  0  0  0  0  0  0  0  0  0  0  0
    4.9697    1.0762   -2.3700 H   0  0  0  0  0  0  0  0  0  0  0  0
    4.2219    0.1188   -1.1152 H   0  0  0  0  0  0  0  0  0  0  0  0
    1.7277   -1.9701    0.6164 H   0  0  0  0  0  0  0  0  0  0  0  0
   -0.6684   -2.5561    0.4659 H   0  0  0  0  0  0  0  0  0  0  0  0
   -2.4313   -0.7750    3.3449 H   0  0  0  0  0  0  0  0  0  0  0  0
  1  2  1  0
  2  3  1  0
  3  4  2  0
  4  5  1  0
  5  6  2  0
  6  7  1  0
  7  8  1  0
  8  9  1  0
  9 10  2  0
 10 11  1  0
 11 12  2  0
 12 13  1  0
 13 14  2  0
 14 15  1  0
 15 16  1  0
  8 17  2  0
 17 18  1  0
 18 19  2  0
 19 20  1  0
 20 21  2  0
 21 22  1  0
 22 23  1  0
 23 24  1  0
 24 25  1  0
 25 26  1  0
 26 27  1  0
 27 28  1  0
 28 29  1  0
 29 30  1  0
 21 31  1  0
 31 32  2  0
 17 33  1  0
 33 34  2  0
 34  3  1  0
 33  6  1  0
 14  9  1  0
 32 18  1  0
 30 25  1  0
  1 35  1  0
  1 36  1  0
  1 37  1  0
  4 38  1  0
  5 39  1  0
 10 40  1  0
 11 41  1  0
 12 42  1  0
 13 43  1  0
 16 44  1  0
 16 45  1  0
 16 46  1  0
 19 47  1  0
 20 48  1  0
 23 49  1  0
 23 50  1  0
 24 51  1  0
 24 52  1  0
 26 53  1  0
 26 54  1  0
 27 55  1  0
 27 56  1  0
 29 57  1  0
 29 58  1  0
 30 59  1  0
 30 60  1  0
 31 61  1  0
 32 62  1  0
 34 63  1  0
M  END
$$$$
