
     RDKit          3D

 37 39  0  0  0  0  0  0  0  0999 V2000
    2.6642    1.3134    5.3355 C   0  0  0  0  0  0  0  0  0  0  0  0
    1.9689    1.2504    4.0958 O   0  0  0  0  0  0  0  0  0  0  0  0
    2.0307    0.0660    3.4105 C   0  0  0  0  0  0  0  0  0  0  0  0
    2.7058   -1.0819    3.8205 C   0  0  0  0  0  0  0  0  0  0  0  0
    2.7021   -2.2432    3.0365 C   0  0  0  0  0  0  0  0  0  0  0  0
    1.9980   -2.2144    1.8279 C   0  0  0  0  0  0  0  0  0  0  0  0
    1.8296   -3.1950    0.8782 N   0  0  0  0  0  0  0  0  0  0  0  0
    1.0566   -2.7286   -0.1546 C   0  0  0  0  0  0  0  0  0  0  0  0
    0.7160   -1.4222    0.1244 C   0  0  0  0  0  0  0  0  0  0  0  0
   -0.0865   -0.5598   -0.6874 C   0  0  0  0  0  0  0  0  0  0  0  0
   -0.6058   -0.8603   -1.8902 C   0  0  0  0  0  0  0  0  0  0  0  0
   -1.4195    0.0739   -2.6757 C   0  0  0  0  0  0  0  0  0  0  0  0
   -1.2153    0.1658   -4.0509 C   0  0  0  0  0  0  0  0  0  0  0  0
   -1.9939    1.0348   -4.8071 C   0  0  0  0  0  0  0  0  0  0  0  0
   -2.9531    1.7863   -4.2221 N   0  0  0  0  0  4  0  0  0  0  0  0
   -3.7716    2.6932   -5.0445 C   0  0  0  0  0  0  0  0  0  0  0  0
   -3.1869    1.6949   -2.8940 C   0  0  0  0  0  0  0  0  0  0  0  0
   -2.4309    0.8411   -2.0991 C   0  0  0  0  0  0  0  0  0  0  0  0
    1.3094   -1.0859    1.3829 C   0  0  0  0  0  0  0  0  0  0  0  0
    1.3326    0.0689    2.1949 C   0  0  0  0  0  0  0  0  0  0  0  0
    2.5192    2.3161    5.7490 H   0  0  0  0  0  0  0  0  0  0  0  0
    2.2557    0.5949    6.0538 H   0  0  0  0  0  0  0  0  0  0  0  0
    3.7396    1.1644    5.1930 H   0  0  0  0  0  0  0  0  0  0  0  0
    3.2545   -1.1134    4.7569 H   0  0  0  0  0  0  0  0  0  0  0  0
    3.2314   -3.1325    3.3646 H   0  0  0  0  0  0  0  0  0  0  0  0
    2.2215   -4.1249    0.9411 H   0  0  0  0  0  0  0  0  0  0  0  0
    0.8247   -3.3790   -0.9865 H   0  0  0  0  0  0  0  0  0  0  0  0
   -0.2662    0.4300   -0.2729 H   0  0  0  0  0  0  0  0  0  0  0  0
   -0.4159   -1.8291   -2.3464 H   0  0  0  0  0  0  0  0  0  0  0  0
   -0.4445   -0.4281   -4.5393 H   0  0  0  0  0  0  0  0  0  0  0  0
   -1.8579    1.1342   -5.8804 H   0  0  0  0  0  0  0  0  0  0  0  0
   -4.6429    2.1288   -5.3857 H   0  0  0  0  0  0  0  0  0  0  0  0
   -3.1771    3.0430   -5.8925 H   0  0  0  0  0  0  0  0  0  0  0  0
   -4.0751    3.5505   -4.4382 H   0  0  0  0  0  0  0  0  0  0  0  0
   -3.9839    2.3046   -2.4773 H   0  0  0  0  0  0  0  0  0  0  0  0
   -2.6453    0.7734   -1.0339 H   0  0  0  0  0  0  0  0  0  0  0  0
    0.8119    0.9697    1.8860 H   0  0  0  0  0  0  0  0  0  0  0  0
  1  2  1  0
  2  3  1  0
  3  4  2  0
  4  5  1  0
  5  6  2  0
  6  7  1  0
  7  8  1  0
  8  9  2  0
  9 10  1  0
 10 11  2  3
 11 12  1  0
 12 13  2  0
 13 14  1  0
 14 15  2  0
 15 16  1  0
 15 17  1  0
 17 18  2  0
  9 19  1  0
 19 20  2  0
 20  3  1  0
 19  6  1  0
 18 12  1  0
  1 21  1  0
  1 22  1  0
  1 23  1  0
  4 24  1  0
  5 25  1  0
  7 26  1  0
  8 27  1  0
 10 28  1  0
 11 29  1  0
 13 30  1  0
 14 31  1  0
 16 32  1  0
 16 33  1  0
 16 34  1  0
 17 35  1  0
 18 36  1  0
 20 37  1  0
M  CHG  1  15   1
M  END
$$$$
