
     RDKit          3D

 39 41  0  0  0  0  0  0  0  0999 V2000
    1.6863   -0.7951   -2.7106 O   0  0  0  0  0  0  0  0  0  0  0  0
    1.5203   -0.4290   -1.5490 C   0  0  0  0  0  0  0  0  0  0  0  0
    2.6905   -0.1440   -0.6676 C   0  0  0  0  0  0  0  0  0  0  0  0
    3.9322   -0.2930   -1.1597 C   0  0  0  0  0  0  0  0  0  0  0  0
    5.1980   -0.0585   -0.4396 C   0  0  0  0  0  0  0  0  0  0  0  0
    6.4008   -0.2710   -1.1333 C   0  0  0  0  0  0  0  0  0  0  0  0
    7.6385   -0.0686   -0.5140 C   0  0  0  0  0  0  0  0  0  0  0  0
    7.6849    0.3502    0.8113 C   0  0  0  0  0  0  0  0  0  0  0  0
    9.3535    0.6256    1.6542 Br  0  0  0  0  0  0  0  0  0  0  0  0
    6.5067    0.5674    1.5194 C   0  0  0  0  0  0  0  0  0  0  0  0
    5.2698    0.3637    0.8958 C   0  0  0  0  0  0  0  0  0  0  0  0
    0.1294   -0.2692   -1.0191 C   0  0  0  0  0  0  0  0  0  0  0  0
   -0.9305   -0.5512   -1.8940 C   0  0  0  0  0  0  0  0  0  0  0  0
   -2.2651   -0.4288   -1.4836 C   0  0  0  0  0  0  0  0  0  0  0  0
   -2.5687   -0.0211   -0.1871 C   0  0  0  0  0  0  0  0  0  0  0  0
   -3.8757    0.1285    0.3089 N   0  0  0  0  0  0  0  0  0  0  0  0
   -5.0756   -0.0854   -0.3475 C   0  0  0  0  0  0  0  0  0  0  0  0
   -5.1961   -0.4534   -1.5109 O   0  0  0  0  0  0  0  0  0  0  0  0
   -6.2260    0.1762    0.5006 C   0  0  0  0  0  0  0  0  0  0  0  0
   -7.5820    0.0889    0.2475 C   0  0  0  0  0  0  0  0  0  0  0  0
   -8.2455    0.4621    1.4405 C   0  0  0  0  0  0  0  0  0  0  0  0
   -7.2588    0.7551    2.3515 C   0  0  0  0  0  0  0  0  0  0  0  0
   -6.0306    0.5866    1.7967 O   0  0  0  0  0  0  0  0  0  0  0  0
   -1.5159    0.2617    0.6905 C   0  0  0  0  0  0  0  0  0  0  0  0
   -0.1791    0.1401    0.2822 C   0  0  0  0  0  0  0  0  0  0  0  0
    2.5213    0.1757    0.3460 H   0  0  0  0  0  0  0  0  0  0  0  0
    4.0461   -0.6195   -2.1942 H   0  0  0  0  0  0  0  0  0  0  0  0
    6.3890   -0.5990   -2.1715 H   0  0  0  0  0  0  0  0  0  0  0  0
    8.5528   -0.2410   -1.0757 H   0  0  0  0  0  0  0  0  0  0  0  0
    6.5363    0.8948    2.5554 H   0  0  0  0  0  0  0  0  0  0  0  0
    4.3737    0.5437    1.4814 H   0  0  0  0  0  0  0  0  0  0  0  0
   -0.7285   -0.8726   -2.9154 H   0  0  0  0  0  0  0  0  0  0  0  0
   -3.0383   -0.6622   -2.2094 H   0  0  0  0  0  0  0  0  0  0  0  0
   -3.9761    0.4320    1.2719 H   0  0  0  0  0  0  0  0  0  0  0  0
   -8.0251   -0.2106   -0.6932 H   0  0  0  0  0  0  0  0  0  0  0  0
   -9.3114    0.5113    1.6148 H   0  0  0  0  0  0  0  0  0  0  0  0
   -7.2669    1.0808    3.3828 H   0  0  0  0  0  0  0  0  0  0  0  0
   -1.7188    0.5826    1.7100 H   0  0  0  0  0  0  0  0  0  0  0  0
    0.5846    0.3753    1.0141 H   0  0  0  0  0  0  0  0  0  0  0  0
  1  2  2  0
  2  3  1  0
  3  4  2  3
  4  5  1  0
  5  6  2  0
  6  7  1  0
  7  8  2  0
  8  9  1  0
  8 10  1  0
 10 11  2  0
  2 12  1  0
 12 13  2  0
 13 14  1  0
 14 15  2  0
 15 16  1  0
 16 17  1  0
 17 18  2  0
 17 19  1  0
 19 20  2  0
 20 21  1  0
 21 22  2  0
 22 23  1  0
 15 24  1  0
 24 25  2  0
 11  5  1  0
 25 12  1  0
 23 19  1  0
  3 26  1  0
  4 27  1  0
  6 28  1  0
  7 29  1  0
 10 30  1  0
 11 31  1  0
 13 32  1  0
 14 33  1  0
 16 34  1  0
 20 35  1  0
 21 36  1  0
 22 37  1  0
 24 38  1  0
 25 39  1  0
M  END
$$$$
