
     RDKit          3D

 61 65  0  0  0  0  0  0  0  0999 V2000
   -8.4995   -1.3070   -2.5812 C   0  0  0  0  0  0  0  0  0  0  0  0
   -7.0737   -1.4258   -2.1339 C   0  0  0  0  0  0  0  0  0  0  0  0
   -6.1356   -2.0963   -2.9269 C   0  0  0  0  0  0  0  0  0  0  0  0
   -4.8072   -2.2237   -2.4996 C   0  0  0  0  0  0  0  0  0  0  0  0
   -4.3873   -1.6764   -1.2745 C   0  0  0  0  0  0  0  0  0  0  0  0
   -3.0193   -1.7818   -0.8395 N   0  0  0  0  0  0  0  0  0  0  0  0
   -1.9354   -1.4222   -1.6430 C   0  0  0  0  0  0  0  0  0  0  0  0
   -2.1878   -0.6087   -3.1847 S   0  0  0  0  0  0  0  0  0  0  0  0
   -1.8526    1.0943   -2.6566 C   0  0  0  0  0  0  0  0  0  0  0  0
   -0.3678    1.3199   -2.3964 C   0  0  0  0  0  0  0  0  0  0  0  0
    0.4334    1.3885   -3.3257 O   0  0  0  0  0  0  0  0  0  0  0  0
   -0.0720    1.4550   -1.0470 N   0  0  0  0  0  0  0  0  0  0  0  0
    1.2018    1.5748   -0.4552 C   0  0  0  0  0  0  0  0  0  0  0  0
    2.3974    1.5952   -1.1614 C   0  0  0  0  0  0  0  0  0  0  0  0
    3.6237    1.7004   -0.4835 C   0  0  0  0  0  0  0  0  0  0  0  0
    3.7037    1.7944    0.9125 C   0  0  0  0  0  0  0  0  0  0  0  0
    4.9122    1.8959    1.5807 N   0  0  0  0  0  0  0  0  0  0  0  0
    6.1948    1.6245    0.9117 C   0  0  0  0  0  0  0  0  0  0  0  0
    7.2987    1.4178    1.9656 C   0  0  0  0  0  0  0  0  0  0  0  0
    7.5020    2.5465    2.8305 O   0  0  0  0  0  0  0  0  0  0  0  0
    6.3346    3.3674    2.9744 C   0  0  0  0  0  0  0  0  0  0  0  0
    5.0095    2.5862    2.8814 C   0  0  0  0  0  0  0  0  0  0  0  0
    2.4851    1.7582    1.6031 C   0  0  0  0  0  0  0  0  0  0  0  0
    1.2557    1.6520    0.9362 C   0  0  0  0  0  0  0  0  0  0  0  0
   -0.6950   -1.5586   -1.3009 N   0  0  0  0  0  0  0  0  0  0  0  0
   -0.3886   -2.0868   -0.0493 C   0  0  0  0  0  0  0  0  0  0  0  0
    0.9520   -2.2353    0.3085 C   0  0  0  0  0  0  0  0  0  0  0  0
    1.3002   -2.7387    1.5615 C   0  0  0  0  0  0  0  0  0  0  0  0
    0.3058   -3.0952    2.4708 C   0  0  0  0  0  0  0  0  0  0  0  0
   -1.0351   -2.9408    2.1255 C   0  0  0  0  0  0  0  0  0  0  0  0
   -1.3735   -2.4324    0.8651 C   0  0  0  0  0  0  0  0  0  0  0  0
   -2.7823   -2.2428    0.4675 C   0  0  0  0  0  0  0  0  0  0  0  0
   -3.6421   -2.5072    1.3064 O   0  0  0  0  0  0  0  0  0  0  0  0
   -5.3470   -1.0491   -0.4656 C   0  0  0  0  0  0  0  0  0  0  0  0
   -6.6739   -0.9217   -0.8904 C   0  0  0  0  0  0  0  0  0  0  0  0
   -8.5507   -1.0933   -3.6540 H   0  0  0  0  0  0  0  0  0  0  0  0
   -9.0362   -2.2379   -2.3734 H   0  0  0  0  0  0  0  0  0  0  0  0
   -9.0072   -0.4880   -2.0622 H   0  0  0  0  0  0  0  0  0  0  0  0
   -6.4317   -2.5302   -3.8838 H   0  0  0  0  0  0  0  0  0  0  0  0
   -4.1151   -2.7794   -3.1315 H   0  0  0  0  0  0  0  0  0  0  0  0
   -2.4564    1.3352   -1.7759 H   0  0  0  0  0  0  0  0  0  0  0  0
   -2.1590    1.7809   -3.4531 H   0  0  0  0  0  0  0  0  0  0  0  0
   -0.8410    1.3843   -0.3968 H   0  0  0  0  0  0  0  0  0  0  0  0
    2.4240    1.5255   -2.2438 H   0  0  0  0  0  0  0  0  0  0  0  0
    4.5202    1.7316   -1.0938 H   0  0  0  0  0  0  0  0  0  0  0  0
    6.1290    0.7146    0.3013 H   0  0  0  0  0  0  0  0  0  0  0  0
    6.4536    2.4714    0.2628 H   0  0  0  0  0  0  0  0  0  0  0  0
    8.2528    1.2028    1.4748 H   0  0  0  0  0  0  0  0  0  0  0  0
    7.0582    0.5563    2.6007 H   0  0  0  0  0  0  0  0  0  0  0  0
    6.4080    3.8775    3.9430 H   0  0  0  0  0  0  0  0  0  0  0  0
    6.3727    4.1429    2.1952 H   0  0  0  0  0  0  0  0  0  0  0  0
    4.9665    1.8358    3.6804 H   0  0  0  0  0  0  0  0  0  0  0  0
    4.1906    3.3014    3.0240 H   0  0  0  0  0  0  0  0  0  0  0  0
    2.4693    1.7870    2.6897 H   0  0  0  0  0  0  0  0  0  0  0  0
    0.3485    1.6244    1.5334 H   0  0  0  0  0  0  0  0  0  0  0  0
    1.7295   -1.9453   -0.3954 H   0  0  0  0  0  0  0  0  0  0  0  0
    2.3474   -2.8475    1.8258 H   0  0  0  0  0  0  0  0  0  0  0  0
    0.5735   -3.4938    3.4449 H   0  0  0  0  0  0  0  0  0  0  0  0
   -1.8116   -3.2166    2.8359 H   0  0  0  0  0  0  0  0  0  0  0  0
   -5.0770   -0.6356    0.5052 H   0  0  0  0  0  0  0  0  0  0  0  0
   -7.3929   -0.4245   -0.2396 H   0  0  0  0  0  0  0  0  0  0  0  0
  1  2  1  0
  2  3  2  0
  3  4  1  0
  4  5  2  0
  5  6  1  0
  6  7  1  0
  7  8  1  0
  8  9  1  0
  9 10  1  0
 10 11  2  0
 10 12  1  0
 12 13  1  0
 13 14  2  0
 14 15  1  0
 15 16  2  0
 16 17  1  0
 17 18  1  0
 18 19  1  0
 19 20  1  0
 20 21  1  0
 21 22  1  0
 16 23  1  0
 23 24  2  0
  7 25  2  0
 25 26  1  0
 26 27  2  0
 27 28  1  0
 28 29  2  0
 29 30  1  0
 30 31  2  0
 31 32  1  0
 32 33  2  0
  5 34  1  0
 34 35  2  0
 35  2  1  0
 32  6  1  0
 24 13  1  0
 31 26  1  0
 22 17  1  0
  1 36  1  0
  1 37  1  0
  1 38  1  0
  3 39  1  0
  4 40  1  0
  9 41  1  0
  9 42  1  0
 12 43  1  0
 14 44  1  0
 15 45  1  0
 18 46  1  0
 18 47  1  0
 19 48  1  0
 19 49  1  0
 21 50  1  0
 21 51  1  0
 22 52  1  0
 22 53  1  0
 23 54  1  0
 24 55  1  0
 27 56  1  0
 28 57  1  0
 29 58  1  0
 30 59  1  0
 34 60  1  0
 35 61  1  0
M  END
$$$$
