
     RDKit          3D

 49 52  0  0  0  0  0  0  0  0999 V2000
   -5.2233    2.5829    2.5772 C   0  0  0  0  0  0  0  0  0  0  0  0
   -4.1115    2.1822    1.6522 C   0  0  0  0  0  0  0  0  0  0  0  0
   -4.3468    2.0338    0.2800 C   0  0  0  0  0  0  0  0  0  0  0  0
   -3.3104    1.6716   -0.5829 C   0  0  0  0  0  0  0  0  0  0  0  0
   -2.0218    1.4633   -0.0769 C   0  0  0  0  0  0  0  0  0  0  0  0
   -0.9777    1.0558   -0.9452 N   0  0  0  0  0  0  0  0  0  0  0  0
   -1.0131    0.0292   -1.8868 C   0  0  0  0  0  0  0  0  0  0  0  0
   -2.1103   -0.9783   -2.0500 C   0  0  0  0  0  0  0  0  0  0  0  0
   -2.2006   -1.9200   -0.8789 C   0  0  0  0  0  0  0  0  0  0  0  0
   -1.2083   -2.7238   -0.3469 C   0  0  0  0  0  0  0  0  0  0  0  0
   -1.6623   -3.4788    0.7755 C   0  0  0  0  0  0  0  0  0  0  0  0
   -2.9902   -3.2429    1.0513 C   0  0  0  0  0  0  0  0  0  0  0  0
   -3.6792   -2.1096   -0.0299 S   0  0  0  0  0  0  0  0  0  0  0  0
    0.1523   -0.0434   -2.5068 N   0  0  0  0  0  0  0  0  0  0  0  0
    0.9785    0.9016   -1.9786 N   0  0  0  0  0  0  0  0  0  0  0  0
    0.3206    1.5335   -1.0314 C   0  0  0  0  0  0  0  0  0  0  0  0
    0.9760    2.8635   -0.1325 S   0  0  0  0  0  0  0  0  0  0  0  0
    2.6865    2.9124   -0.7488 C   0  0  0  0  0  0  0  0  0  0  0  0
    3.5348    1.8219   -0.1062 C   0  0  0  0  0  0  0  0  0  0  0  0
    4.2157    2.0602    0.8902 O   0  0  0  0  0  0  0  0  0  0  0  0
    3.4441    0.6024   -0.7569 N   0  0  0  0  0  0  0  0  0  0  0  0
    4.1084   -0.5984   -0.4397 C   0  0  0  0  0  0  0  0  0  0  0  0
    5.1190   -0.7012    0.5225 C   0  0  0  0  0  0  0  0  0  0  0  0
    5.7337   -1.9337    0.7775 C   0  0  0  0  0  0  0  0  0  0  0  0
    5.3356   -3.0612    0.0700 C   0  0  0  0  0  0  0  0  0  0  0  0
    5.9163   -4.2430    0.3279 F   0  0  0  0  0  0  0  0  0  0  0  0
    4.3366   -2.9655   -0.8889 C   0  0  0  0  0  0  0  0  0  0  0  0
    3.9479   -4.0537   -1.5696 F   0  0  0  0  0  0  0  0  0  0  0  0
    3.7236   -1.7429   -1.1514 C   0  0  0  0  0  0  0  0  0  0  0  0
   -1.7706    1.6403    1.2896 C   0  0  0  0  0  0  0  0  0  0  0  0
   -2.8125    2.0004    2.1462 C   0  0  0  0  0  0  0  0  0  0  0  0
   -6.1916    2.2446    2.1945 H   0  0  0  0  0  0  0  0  0  0  0  0
   -5.2466    3.6721    2.6837 H   0  0  0  0  0  0  0  0  0  0  0  0
   -5.0880    2.1315    3.5655 H   0  0  0  0  0  0  0  0  0  0  0  0
   -5.3422    2.2002   -0.1243 H   0  0  0  0  0  0  0  0  0  0  0  0
   -3.5273    1.5970   -1.6455 H   0  0  0  0  0  0  0  0  0  0  0  0
   -3.0656   -0.4892   -2.2616 H   0  0  0  0  0  0  0  0  0  0  0  0
   -1.8945   -1.5821   -2.9419 H   0  0  0  0  0  0  0  0  0  0  0  0
   -0.1979   -2.7668   -0.7412 H   0  0  0  0  0  0  0  0  0  0  0  0
   -1.0493   -4.1672    1.3448 H   0  0  0  0  0  0  0  0  0  0  0  0
   -3.5905   -3.6835    1.8384 H   0  0  0  0  0  0  0  0  0  0  0  0
    2.7236    2.8456   -1.8403 H   0  0  0  0  0  0  0  0  0  0  0  0
    3.1252    3.8797   -0.4795 H   0  0  0  0  0  0  0  0  0  0  0  0
    2.7298    0.5350   -1.4841 H   0  0  0  0  0  0  0  0  0  0  0  0
    5.4584    0.1623    1.0867 H   0  0  0  0  0  0  0  0  0  0  0  0
    6.5177   -2.0139    1.5254 H   0  0  0  0  0  0  0  0  0  0  0  0
    2.9432   -1.7040   -1.9074 H   0  0  0  0  0  0  0  0  0  0  0  0
   -0.7904    1.4565    1.7250 H   0  0  0  0  0  0  0  0  0  0  0  0
   -2.6048    2.1235    3.2099 H   0  0  0  0  0  0  0  0  0  0  0  0
  1  2  1  0
  2  3  2  0
  3  4  1  0
  4  5  2  0
  5  6  1  0
  6  7  1  0
  7  8  1  0
  8  9  1  0
  9 10  2  0
 10 11  1  0
 11 12  2  0
 12 13  1  0
  7 14  2  0
 14 15  1  0
 15 16  2  0
 16 17  1  0
 17 18  1  0
 18 19  1  0
 19 20  2  0
 19 21  1  0
 21 22  1  0
 22 23  2  0
 23 24  1  0
 24 25  2  0
 25 26  1  0
 25 27  1  0
 27 28  1  0
 27 29  2  0
  5 30  1  0
 30 31  2  0
 31  2  1  0
 16  6  1  0
 29 22  1  0
 13  9  1  0
  1 32  1  0
  1 33  1  0
  1 34  1  0
  3 35  1  0
  4 36  1  0
  8 37  1  0
  8 38  1  0
 10 39  1  0
 11 40  1  0
 12 41  1  0
 18 42  1  0
 18 43  1  0
 21 44  1  0
 23 45  1  0
 24 46  1  0
 29 47  1  0
 30 48  1  0
 31 49  1  0
M  END
$$$$
