
     RDKit          3D

 42 44  0  0  0  0  0  0  0  0999 V2000
   -0.8571   -3.0136   -1.2888 C   0  0  0  0  0  0  0  0  0  0  0  0
   -0.9295   -1.6760   -0.6277 C   0  0  0  0  0  0  0  0  0  0  0  0
   -0.0224   -0.6853   -0.6472 C   0  0  0  0  0  0  0  0  0  0  0  0
    1.2395   -0.5430   -1.1601 N   0  0  0  0  0  0  0  0  0  0  0  0
    2.1479   -1.5362   -1.4657 C   0  0  0  0  0  0  0  0  0  0  0  0
    1.9869   -2.7374   -1.2640 O   0  0  0  0  0  0  0  0  0  0  0  0
    3.4272   -1.0272   -2.0879 C   0  0  0  0  0  0  0  0  0  0  0  0
    4.1649   -0.1957   -1.1565 N   0  0  0  0  0  0  0  0  0  0  0  0
    5.1670   -0.5858   -0.3137 C   0  0  0  0  0  0  0  0  0  0  0  0
    5.5546    0.5446    0.3704 C   0  0  0  0  0  0  0  0  0  0  0  0
    4.7291    1.5724   -0.1398 C   0  0  0  0  0  0  0  0  0  0  0  0
    4.7218    2.9846    0.2071 N   0  0  0  0  0  4  0  0  0  0  0  0
    5.4617    3.3198    1.1464 O   0  0  0  0  0  0  0  0  0  0  0  0
    4.0056    3.7524   -0.4537 O   0  0  0  0  0  1  0  0  0  0  0  0
    3.8671    1.1161   -1.0684 N   0  0  0  0  0  0  0  0  0  0  0  0
   -0.6693    0.4693    0.0509 C   0  0  0  0  0  0  0  0  0  0  0  0
   -0.1186    1.5545    0.1540 O   0  0  0  0  0  0  0  0  0  0  0  0
   -1.9360    0.0376    0.4483 N   0  0  0  0  0  0  0  0  0  0  0  0
   -3.0465    0.8759    0.7264 C   0  0  0  0  0  0  0  0  0  0  0  0
   -4.3632    0.4389    0.5113 C   0  0  0  0  0  0  0  0  0  0  0  0
   -5.4552    1.2675    0.7904 C   0  0  0  0  0  0  0  0  0  0  0  0
   -5.2472    2.5498    1.2876 C   0  0  0  0  0  0  0  0  0  0  0  0
   -3.9492    3.0038    1.5004 C   0  0  0  0  0  0  0  0  0  0  0  0
   -2.8582    2.1737    1.2189 C   0  0  0  0  0  0  0  0  0  0  0  0
   -2.1025   -1.3259    0.0704 N   0  0  0  0  0  0  0  0  0  0  0  0
   -2.4993   -2.1982    1.1905 C   0  0  0  0  0  0  0  0  0  0  0  0
   -0.2564   -2.9828   -2.2005 H   0  0  0  0  0  0  0  0  0  0  0  0
   -0.4469   -3.7619   -0.6055 H   0  0  0  0  0  0  0  0  0  0  0  0
   -1.8546   -3.3456   -1.5949 H   0  0  0  0  0  0  0  0  0  0  0  0
    1.6029    0.4147   -1.0992 H   0  0  0  0  0  0  0  0  0  0  0  0
    4.0639   -1.8693   -2.3744 H   0  0  0  0  0  0  0  0  0  0  0  0
    3.2070   -0.4393   -2.9862 H   0  0  0  0  0  0  0  0  0  0  0  0
    5.5120   -1.6108   -0.2744 H   0  0  0  0  0  0  0  0  0  0  0  0
    6.3288    0.6251    1.1212 H   0  0  0  0  0  0  0  0  0  0  0  0
   -4.5589   -0.5426    0.0899 H   0  0  0  0  0  0  0  0  0  0  0  0
   -6.4666    0.9128    0.6075 H   0  0  0  0  0  0  0  0  0  0  0  0
   -6.0934    3.1976    1.5020 H   0  0  0  0  0  0  0  0  0  0  0  0
   -3.7779    4.0063    1.8846 H   0  0  0  0  0  0  0  0  0  0  0  0
   -1.8606    2.5618    1.4092 H   0  0  0  0  0  0  0  0  0  0  0  0
   -3.3869   -1.8221    1.7080 H   0  0  0  0  0  0  0  0  0  0  0  0
   -1.6883   -2.2807    1.9252 H   0  0  0  0  0  0  0  0  0  0  0  0
   -2.7435   -3.2001    0.8205 H   0  0  0  0  0  0  0  0  0  0  0  0
  1  2  1  0
  2  3  2  0
  3  4  1  0
  4  5  1  0
  5  6  2  0
  5  7  1  0
  7  8  1  0
  8  9  1  0
  9 10  2  0
 10 11  1  0
 11 12  1  0
 12 13  2  0
 12 14  1  0
 11 15  2  0
  3 16  1  0
 16 17  2  0
 16 18  1  0
 18 19  1  0
 19 20  2  0
 20 21  1  0
 21 22  2  0
 22 23  1  0
 23 24  2  0
 18 25  1  0
 25 26  1  0
 25  2  1  0
 15  8  1  0
 24 19  1  0
  1 27  1  0
  1 28  1  0
  1 29  1  0
  4 30  1  0
  7 31  1  0
  7 32  1  0
  9 33  1  0
 10 34  1  0
 20 35  1  0
 21 36  1  0
 22 37  1  0
 23 38  1  0
 24 39  1  0
 26 40  1  0
 26 41  1  0
 26 42  1  0
M  CHG  2  12   1  14  -1
M  END
$$$$
