
     RDKit          3D

 46 47  0  0  0  0  0  0  0  0999 V2000
    8.0267   -1.2276    0.6103 C   0  0  0  0  0  0  0  0  0  0  0  0
    7.4933   -0.1810   -0.1905 O   0  0  0  0  0  0  0  0  0  0  0  0
    6.1394   -0.1799   -0.3835 C   0  0  0  0  0  0  0  0  0  0  0  0
    5.6584    0.8922   -1.1388 C   0  0  0  0  0  0  0  0  0  0  0  0
    4.2944    1.0186   -1.4113 C   0  0  0  0  0  0  0  0  0  0  0  0
    3.3888    0.0662   -0.9326 C   0  0  0  0  0  0  0  0  0  0  0  0
    1.9115    0.2099   -1.2022 C   0  0  0  0  0  0  0  0  0  0  0  0
    1.2272    1.0316   -0.1138 C   0  0  0  0  0  0  0  0  0  0  0  0
   -0.2535    1.1856   -0.3798 C   0  0  0  0  0  0  0  0  0  0  0  0
   -0.8278    0.7269   -1.3629 O   0  0  0  0  0  0  0  0  0  0  0  0
   -0.8986    1.9156    0.6039 N   0  0  0  0  0  0  0  0  0  0  0  0
   -2.3086    1.9080    0.5912 N   0  0  0  0  0  0  0  0  0  0  0  0
   -2.9375    1.5770    1.7810 C   0  0  0  0  0  0  0  0  0  0  0  0
   -2.3340    1.5280    2.8551 O   0  0  0  0  0  0  0  0  0  0  0  0
   -4.4262    1.3523    1.6750 C   0  0  0  0  0  0  0  0  0  0  0  0
   -4.7275    0.3038    0.7213 N   0  0  0  0  0  0  0  0  0  0  0  0
   -4.6346    0.5973   -0.5926 N   0  0  0  0  0  0  0  0  0  0  0  0
   -4.8940   -0.5614   -1.2085 C   0  0  0  0  0  0  0  0  0  0  0  0
   -4.8551   -0.6469   -2.6873 C   0  0  0  0  0  0  0  0  0  0  0  0
   -5.1691   -1.5891   -0.2804 C   0  0  0  0  0  0  0  0  0  0  0  0
   -5.0495   -1.0057    0.9637 C   0  0  0  0  0  0  0  0  0  0  0  0
   -5.1972   -1.5889    2.3187 C   0  0  0  0  0  0  0  0  0  0  0  0
    3.8730   -1.0079   -0.1755 C   0  0  0  0  0  0  0  0  0  0  0  0
    5.2402   -1.1314    0.0963 C   0  0  0  0  0  0  0  0  0  0  0  0
    9.1084   -1.0773    0.6805 H   0  0  0  0  0  0  0  0  0  0  0  0
    7.8567   -2.2061    0.1479 H   0  0  0  0  0  0  0  0  0  0  0  0
    7.6197   -1.1949    1.6266 H   0  0  0  0  0  0  0  0  0  0  0  0
    6.3539    1.6365   -1.5189 H   0  0  0  0  0  0  0  0  0  0  0  0
    3.9477    1.8644   -1.9997 H   0  0  0  0  0  0  0  0  0  0  0  0
    1.7620    0.6738   -2.1860 H   0  0  0  0  0  0  0  0  0  0  0  0
    1.4542   -0.7862   -1.2718 H   0  0  0  0  0  0  0  0  0  0  0  0
    1.6711    2.0326   -0.0542 H   0  0  0  0  0  0  0  0  0  0  0  0
    1.3537    0.5476    0.8624 H   0  0  0  0  0  0  0  0  0  0  0  0
   -0.4814    1.9962    1.5315 H   0  0  0  0  0  0  0  0  0  0  0  0
   -2.7414    1.5837   -0.2871 H   0  0  0  0  0  0  0  0  0  0  0  0
   -4.9219    2.2719    1.3470 H   0  0  0  0  0  0  0  0  0  0  0  0
   -4.8295    1.0726    2.6520 H   0  0  0  0  0  0  0  0  0  0  0  0
   -3.8381   -0.4715   -3.0524 H   0  0  0  0  0  0  0  0  0  0  0  0
   -5.1749   -1.6348   -3.0338 H   0  0  0  0  0  0  0  0  0  0  0  0
   -5.5179    0.1002   -3.1353 H   0  0  0  0  0  0  0  0  0  0  0  0
   -5.4082   -2.6228   -0.4912 H   0  0  0  0  0  0  0  0  0  0  0  0
   -6.0347   -1.1267    2.8498 H   0  0  0  0  0  0  0  0  0  0  0  0
   -5.3891   -2.6652    2.2605 H   0  0  0  0  0  0  0  0  0  0  0  0
   -4.2843   -1.4442    2.9055 H   0  0  0  0  0  0  0  0  0  0  0  0
    3.1870   -1.7598    0.2094 H   0  0  0  0  0  0  0  0  0  0  0  0
    5.5673   -1.9833    0.6824 H   0  0  0  0  0  0  0  0  0  0  0  0
  1  2  1  0
  2  3  1  0
  3  4  2  0
  4  5  1  0
  5  6  2  0
  6  7  1  0
  7  8  1  0
  8  9  1  0
  9 10  2  0
  9 11  1  0
 11 12  1  0
 12 13  1  0
 13 14  2  0
 13 15  1  0
 15 16  1  0
 16 17  1  0
 17 18  2  0
 18 19  1  0
 18 20  1  0
 20 21  2  0
 21 22  1  0
  6 23  1  0
 23 24  2  0
 24  3  1  0
 21 16  1  0
  1 25  1  0
  1 26  1  0
  1 27  1  0
  4 28  1  0
  5 29  1  0
  7 30  1  0
  7 31  1  0
  8 32  1  0
  8 33  1  0
 11 34  1  0
 12 35  1  0
 15 36  1  0
 15 37  1  0
 19 38  1  0
 19 39  1  0
 19 40  1  0
 20 41  1  0
 22 42  1  0
 22 43  1  0
 22 44  1  0
 23 45  1  0
 24 46  1  0
M  END
$$$$
