
     RDKit          3D

 43 46  0  0  0  0  0  0  0  0999 V2000
    6.4100    1.9084   -1.2327 C   0  0  0  0  0  0  0  0  0  0  0  0
    5.0290    1.3757   -0.9825 C   0  0  0  0  0  0  0  0  0  0  0  0
    4.1978    1.0301   -2.0515 C   0  0  0  0  0  0  0  0  0  0  0  0
    2.9228    0.5051   -1.8193 C   0  0  0  0  0  0  0  0  0  0  0  0
    2.4671    0.3125   -0.5100 C   0  0  0  0  0  0  0  0  0  0  0  0
    1.0326   -0.2772   -0.2598 C   0  0  0  0  0  0  0  0  0  0  0  0
    0.1376   -0.7076   -1.2322 C   0  0  0  0  0  0  0  0  0  0  0  0
   -1.0180   -1.1831   -0.6098 N   0  0  0  0  0  4  0  0  0  0  0  0
   -2.1931   -1.7501   -1.2674 C   0  0  0  0  0  0  0  0  0  0  0  0
   -3.3990   -0.8892   -0.9917 C   0  0  0  0  0  0  0  0  0  0  0  0
   -4.5996   -1.4712   -0.5540 C   0  0  0  0  0  0  0  0  0  0  0  0
   -5.7240   -0.6803   -0.3039 C   0  0  0  0  0  0  0  0  0  0  0  0
   -5.6663    0.6996   -0.4943 C   0  0  0  0  0  0  0  0  0  0  0  0
   -4.4859    1.2840   -0.9426 C   0  0  0  0  0  0  0  0  0  0  0  0
   -4.4048    2.9847   -1.1796 Cl  0  0  0  0  0  0  0  0  0  0  0  0
   -3.3602    0.4998   -1.1980 C   0  0  0  0  0  0  0  0  0  0  0  0
   -0.8422   -1.0521    0.7015 C   0  0  0  0  0  0  0  0  0  0  0  0
    0.3501   -0.5057    0.9218 N   0  0  0  0  0  0  0  0  0  0  0  0
    0.6052   -0.3087    2.3416 C   0  0  0  0  0  0  0  0  0  0  0  0
   -0.7784   -0.5611    3.0001 C   0  0  0  0  0  0  0  0  0  0  0  0
   -1.5918   -1.3388    1.9467 C   0  0  0  0  0  0  0  0  0  0  0  0
    3.3015    0.6385    0.5594 C   0  0  0  0  0  0  0  0  0  0  0  0
    4.5765    1.1628    0.3231 C   0  0  0  0  0  0  0  0  0  0  0  0
    6.7213    2.5804   -0.4260 H   0  0  0  0  0  0  0  0  0  0  0  0
    6.4440    2.4825   -2.1646 H   0  0  0  0  0  0  0  0  0  0  0  0
    7.1233    1.0812   -1.2999 H   0  0  0  0  0  0  0  0  0  0  0  0
    4.5407    1.1710   -3.0756 H   0  0  0  0  0  0  0  0  0  0  0  0
    2.3148    0.2624   -2.6855 H   0  0  0  0  0  0  0  0  0  0  0  0
    0.1802   -0.7446   -2.3077 H   0  0  0  0  0  0  0  0  0  0  0  0
   -2.0225   -1.8153   -2.3474 H   0  0  0  0  0  0  0  0  0  0  0  0
   -2.3273   -2.7664   -0.8800 H   0  0  0  0  0  0  0  0  0  0  0  0
   -4.6798   -2.5475   -0.4059 H   0  0  0  0  0  0  0  0  0  0  0  0
   -6.6517   -1.1396    0.0336 H   0  0  0  0  0  0  0  0  0  0  0  0
   -6.5457    1.3098   -0.3004 H   0  0  0  0  0  0  0  0  0  0  0  0
   -2.4531    0.9799   -1.5581 H   0  0  0  0  0  0  0  0  0  0  0  0
    0.9533    0.7075    2.5398 H   0  0  0  0  0  0  0  0  0  0  0  0
    1.3409   -1.0469    2.6737 H   0  0  0  0  0  0  0  0  0  0  0  0
   -0.7032   -1.0888    3.9547 H   0  0  0  0  0  0  0  0  0  0  0  0
   -1.2643    0.4039    3.1874 H   0  0  0  0  0  0  0  0  0  0  0  0
   -1.5483   -2.4197    2.0954 H   0  0  0  0  0  0  0  0  0  0  0  0
   -2.6157   -0.9794    1.8489 H   0  0  0  0  0  0  0  0  0  0  0  0
    3.0060    0.4881    1.5892 H   0  0  0  0  0  0  0  0  0  0  0  0
    5.2201    1.4051    1.1677 H   0  0  0  0  0  0  0  0  0  0  0  0
  1  2  1  0
  2  3  2  0
  3  4  1  0
  4  5  2  0
  5  6  1  0
  6  7  2  0
  7  8  1  0
  8  9  1  0
  9 10  1  0
 10 11  2  0
 11 12  1  0
 12 13  2  0
 13 14  1  0
 14 15  1  0
 14 16  2  0
  8 17  2  0
 17 18  1  0
 18 19  1  0
 19 20  1  0
 20 21  1  0
  5 22  1  0
 22 23  2  0
 23  2  1  0
 18  6  1  0
 16 10  1  0
 21 17  1  0
  1 24  1  0
  1 25  1  0
  1 26  1  0
  3 27  1  0
  4 28  1  0
  7 29  1  0
  9 30  1  0
  9 31  1  0
 11 32  1  0
 12 33  1  0
 13 34  1  0
 16 35  1  0
 19 36  1  0
 19 37  1  0
 20 38  1  0
 20 39  1  0
 21 40  1  0
 21 41  1  0
 22 42  1  0
 23 43  1  0
M  CHG  1   8   1
M  END
$$$$
