
     RDKit          3D

 32 32  0  0  0  0  0  0  0  0999 V2000
    1.6303    0.4964   -5.1026 C   0  0  0  0  0  0  0  0  0  0  0  0
    1.2077    0.4652   -3.9783 C   0  0  0  0  0  0  0  0  0  0  0  0
    0.6955    0.4224   -2.5967 C   0  0  0  0  0  0  0  0  0  0  0  0
   -0.7676    0.5184   -2.5667 N   0  0  0  0  0  0  0  0  0  0  0  0
   -1.2603    1.8411   -2.9334 C   0  0  0  0  0  0  0  0  0  0  0  0
   -1.3633   -0.0092   -1.3344 C   0  0  0  0  0  0  0  0  0  0  0  0
   -1.4551    0.8849   -0.0857 C   0  0  0  0  0  0  0  0  0  0  0  0
   -0.1280    1.3188    0.5300 C   0  0  0  0  0  0  0  0  0  0  0  0
    0.7918    0.2388    0.6602 O   0  0  0  0  0  0  0  0  0  0  0  0
    0.7158   -0.6091    1.7315 C   0  0  0  0  0  0  0  0  0  0  0  0
   -0.1778   -0.4753    2.7981 C   0  0  0  0  0  0  0  0  0  0  0  0
   -0.1677   -1.4044    3.8428 C   0  0  0  0  0  0  0  0  0  0  0  0
   -1.2766   -1.2269    5.1479 Cl  0  0  0  0  0  0  0  0  0  0  0  0
    0.7263   -2.4720    3.8424 C   0  0  0  0  0  0  0  0  0  0  0  0
    1.6228   -2.6149    2.7852 C   0  0  0  0  0  0  0  0  0  0  0  0
    1.6175   -1.6893    1.7371 C   0  0  0  0  0  0  0  0  0  0  0  0
    2.7503   -1.9216    0.4503 Cl  0  0  0  0  0  0  0  0  0  0  0  0
    1.9991    0.5189   -6.1016 H   0  0  0  0  0  0  0  0  0  0  0  0
    1.0197   -0.5322   -2.1645 H   0  0  0  0  0  0  0  0  0  0  0  0
    1.1660    1.2170   -2.0092 H   0  0  0  0  0  0  0  0  0  0  0  0
   -2.3559    1.8631   -2.9156 H   0  0  0  0  0  0  0  0  0  0  0  0
   -0.8892    2.6252   -2.2648 H   0  0  0  0  0  0  0  0  0  0  0  0
   -0.9690    2.1042   -3.9558 H   0  0  0  0  0  0  0  0  0  0  0  0
   -2.3949   -0.2898   -1.5886 H   0  0  0  0  0  0  0  0  0  0  0  0
   -0.8894   -0.9631   -1.0687 H   0  0  0  0  0  0  0  0  0  0  0  0
   -2.0617    1.7737   -0.2950 H   0  0  0  0  0  0  0  0  0  0  0  0
   -2.0176    0.3158    0.6648 H   0  0  0  0  0  0  0  0  0  0  0  0
    0.3461    2.0561   -0.1260 H   0  0  0  0  0  0  0  0  0  0  0  0
   -0.2744    1.8488    1.4780 H   0  0  0  0  0  0  0  0  0  0  0  0
   -0.8931    0.3377    2.8466 H   0  0  0  0  0  0  0  0  0  0  0  0
    0.7303   -3.1917    4.6569 H   0  0  0  0  0  0  0  0  0  0  0  0
    2.3223   -3.4471    2.7805 H   0  0  0  0  0  0  0  0  0  0  0  0
  1  2  3  0
  2  3  1  0
  3  4  1  0
  4  5  1  0
  4  6  1  0
  6  7  1  0
  7  8  1  0
  8  9  1  0
  9 10  1  0
 10 11  2  0
 11 12  1  0
 12 13  1  0
 12 14  2  0
 14 15  1  0
 15 16  2  0
 16 17  1  0
 16 10  1  0
  1 18  1  0
  3 19  1  0
  3 20  1  0
  5 21  1  0
  5 22  1  0
  5 23  1  0
  6 24  1  0
  6 25  1  0
  7 26  1  0
  7 27  1  0
  8 28  1  0
  8 29  1  0
 11 30  1  0
 14 31  1  0
 15 32  1  0
M  END
$$$$
