
     RDKit          3D

 53 55  0  0  0  0  0  0  0  0999 V2000
   -5.7606    2.1623   -3.2167 C   0  0  0  0  0  0  0  0  0  0  0  0
   -6.2021    0.8602   -2.8565 O   0  0  0  0  0  0  0  0  0  0  0  0
   -5.4916    0.2000   -1.8922 C   0  0  0  0  0  0  0  0  0  0  0  0
   -4.3687    0.6851   -1.2205 C   0  0  0  0  0  0  0  0  0  0  0  0
   -3.7206   -0.0988   -0.2522 C   0  0  0  0  0  0  0  0  0  0  0  0
   -2.5865    0.4677    0.3743 N   0  0  0  0  0  0  0  0  0  0  0  0
   -1.7665   -0.1141    1.3291 C   0  0  0  0  0  0  0  0  0  0  0  0
   -1.8845   -1.2340    1.8112 O   0  0  0  0  0  0  0  0  0  0  0  0
   -0.6508    0.8232    1.7494 C   0  0  0  0  0  0  0  0  0  0  0  0
    0.3060    0.1467    2.7228 C   0  0  0  0  0  0  0  0  0  0  0  0
    1.3786    1.0930    3.0674 N   0  0  0  0  0  0  0  0  0  0  0  0
    2.8614    0.4736    3.5681 S   0  0  0  0  0  6  0  0  0  0  0  0
    3.5720    1.5800    4.1689 O   0  0  0  0  0  0  0  0  0  0  0  0
    2.6227   -0.7595    4.2813 O   0  0  0  0  0  0  0  0  0  0  0  0
    3.6433    0.1105    2.0165 C   0  0  0  0  0  0  0  0  0  0  0  0
    3.7004   -1.2090    1.5570 C   0  0  0  0  0  0  0  0  0  0  0  0
    4.3141   -1.4858    0.3338 C   0  0  0  0  0  0  0  0  0  0  0  0
    4.8863   -0.4487   -0.4046 C   0  0  0  0  0  0  0  0  0  0  0  0
    4.8408    0.8726    0.0585 C   0  0  0  0  0  0  0  0  0  0  0  0
    4.2112    1.1532    1.2763 C   0  0  0  0  0  0  0  0  0  0  0  0
    5.3749    1.9757   -0.8125 C   0  0  0  0  0  0  0  0  0  0  0  0
    6.5308    1.4905   -1.6715 C   0  0  0  0  0  0  0  0  0  0  0  0
    6.2192    0.1797   -2.3559 C   0  0  0  0  0  0  0  0  0  0  0  0
    6.6692   -0.1080   -3.4626 O   0  0  0  0  0  0  0  0  0  0  0  0
    5.4909   -0.7279   -1.6332 N   0  0  0  0  0  0  0  0  0  0  0  0
   -4.2149   -1.3742    0.0396 C   0  0  0  0  0  0  0  0  0  0  0  0
   -5.3405   -1.8663   -0.6254 C   0  0  0  0  0  0  0  0  0  0  0  0
   -5.9180   -3.0922   -0.4304 O   0  0  0  0  0  0  0  0  0  0  0  0
   -5.3331   -3.9310    0.5592 C   0  0  0  0  0  0  0  0  0  0  0  0
   -5.9692   -1.0746   -1.5871 C   0  0  0  0  0  0  0  0  0  0  0  0
   -6.4213    2.5331   -4.0072 H   0  0  0  0  0  0  0  0  0  0  0  0
   -5.8331    2.8514   -2.3687 H   0  0  0  0  0  0  0  0  0  0  0  0
   -4.7431    2.1379   -3.6209 H   0  0  0  0  0  0  0  0  0  0  0  0
   -3.9826    1.6735   -1.4447 H   0  0  0  0  0  0  0  0  0  0  0  0
   -2.3411    1.4034    0.0751 H   0  0  0  0  0  0  0  0  0  0  0  0
   -0.1055    1.1467    0.8541 H   0  0  0  0  0  0  0  0  0  0  0  0
   -1.0973    1.7112    2.2134 H   0  0  0  0  0  0  0  0  0  0  0  0
   -0.2193   -0.1455    3.6388 H   0  0  0  0  0  0  0  0  0  0  0  0
    0.7201   -0.7556    2.2603 H   0  0  0  0  0  0  0  0  0  0  0  0
    1.1314    1.9328    3.5917 H   0  0  0  0  0  0  0  0  0  0  0  0
    3.2685   -2.0206    2.1390 H   0  0  0  0  0  0  0  0  0  0  0  0
    4.3497   -2.5118   -0.0240 H   0  0  0  0  0  0  0  0  0  0  0  0
    4.1558    2.1763    1.6443 H   0  0  0  0  0  0  0  0  0  0  0  0
    4.5575    2.3342   -1.4511 H   0  0  0  0  0  0  0  0  0  0  0  0
    5.7131    2.8190   -0.1988 H   0  0  0  0  0  0  0  0  0  0  0  0
    7.4274    1.3349   -1.0591 H   0  0  0  0  0  0  0  0  0  0  0  0
    6.7662    2.2435   -2.4315 H   0  0  0  0  0  0  0  0  0  0  0  0
    5.4100   -1.6498   -2.0435 H   0  0  0  0  0  0  0  0  0  0  0  0
   -3.7261   -1.9866    0.7857 H   0  0  0  0  0  0  0  0  0  0  0  0
   -5.9144   -4.8575    0.5972 H   0  0  0  0  0  0  0  0  0  0  0  0
   -5.3826   -3.4663    1.5498 H   0  0  0  0  0  0  0  0  0  0  0  0
   -4.3036   -4.1949    0.2947 H   0  0  0  0  0  0  0  0  0  0  0  0
   -6.8438   -1.4590   -2.1076 H   0  0  0  0  0  0  0  0  0  0  0  0
  1  2  1  0
  2  3  1  0
  3  4  2  0
  4  5  1  0
  5  6  1  0
  6  7  1  0
  7  8  2  0
  7  9  1  0
  9 10  1  0
 10 11  1  0
 11 12  1  0
 12 13  2  0
 12 14  2  0
 12 15  1  0
 15 16  2  0
 16 17  1  0
 17 18  2  0
 18 19  1  0
 19 20  2  0
 19 21  1  0
 21 22  1  0
 22 23  1  0
 23 24  2  0
 23 25  1  0
  5 26  2  0
 26 27  1  0
 27 28  1  0
 28 29  1  0
 27 30  2  0
 30  3  1  0
 20 15  1  0
 25 18  1  0
  1 31  1  0
  1 32  1  0
  1 33  1  0
  4 34  1  0
  6 35  1  0
  9 36  1  0
  9 37  1  0
 10 38  1  0
 10 39  1  0
 11 40  1  0
 16 41  1  0
 17 42  1  0
 20 43  1  0
 21 44  1  0
 21 45  1  0
 22 46  1  0
 22 47  1  0
 25 48  1  0
 26 49  1  0
 29 50  1  0
 29 51  1  0
 29 52  1  0
 30 53  1  0
M  END
$$$$
