
     RDKit          3D

 52 55  0  0  0  0  0  0  0  0999 V2000
    6.6121    0.4662   -0.6464 C   0  0  0  0  0  0  0  0  0  0  0  0
    5.3356   -0.0102   -0.1213 N   0  0  0  0  0  0  0  0  0  0  0  0
    4.4031   -0.3117   -1.2269 C   0  0  0  0  0  0  0  0  0  0  0  0
    2.9323   -0.3389   -0.7581 C   0  0  0  0  0  0  0  0  0  0  0  0
    2.4527    0.9760   -0.2731 N   0  0  0  0  0  0  0  0  0  0  0  0
    1.3510    0.8427    0.6902 C   0  0  0  0  0  0  0  0  0  0  0  0
    0.1082    0.1734    0.0894 C   0  0  0  0  0  0  0  0  0  0  0  0
   -1.0453    0.1800    1.1033 C   0  0  0  0  0  0  0  0  0  0  0  0
   -2.2290   -0.5539    0.5984 N   0  0  0  0  0  0  0  0  0  0  0  0
   -2.3284   -1.9349    0.9431 C   0  0  0  0  0  0  0  0  0  0  0  0
   -1.2152   -2.6816    1.3944 C   0  0  0  0  0  0  0  0  0  0  0  0
   -1.2988   -4.0407    1.7215 C   0  0  0  0  0  0  0  0  0  0  0  0
   -2.5062   -4.7071    1.6051 C   0  0  0  0  0  0  0  0  0  0  0  0
   -3.6223   -4.0097    1.1588 C   0  0  0  0  0  0  0  0  0  0  0  0
   -3.5421   -2.6424    0.8258 C   0  0  0  0  0  0  0  0  0  0  0  0
   -5.0665   -1.8966    0.3011 S   0  0  0  0  0  0  0  0  0  0  0  0
   -4.5279   -0.3088   -0.2851 C   0  0  0  0  0  0  0  0  0  0  0  0
   -5.5047    0.4445   -0.9647 C   0  0  0  0  0  0  0  0  0  0  0  0
   -5.2213    1.7139   -1.4569 C   0  0  0  0  0  0  0  0  0  0  0  0
   -3.9520    2.2558   -1.2720 C   0  0  0  0  0  0  0  0  0  0  0  0
   -3.6072    3.6170   -1.8237 C   0  0  0  0  0  0  0  0  0  0  0  0
   -4.6818    4.4505   -1.9031 F   0  0  0  0  0  0  0  0  0  0  0  0
   -2.6816    4.2768   -1.0723 F   0  0  0  0  0  0  0  0  0  0  0  0
   -3.0909    3.5519   -3.0816 F   0  0  0  0  0  0  0  0  0  0  0  0
   -2.9786    1.4926   -0.5958 C   0  0  0  0  0  0  0  0  0  0  0  0
   -3.2317    0.2020   -0.0747 C   0  0  0  0  0  0  0  0  0  0  0  0
    3.5687    1.7747    0.2802 C   0  0  0  0  0  0  0  0  0  0  0  0
    4.7440    0.9412    0.8398 C   0  0  0  0  0  0  0  0  0  0  0  0
    7.0421   -0.2671   -1.3379 H   0  0  0  0  0  0  0  0  0  0  0  0
    6.5119    1.4222   -1.1733 H   0  0  0  0  0  0  0  0  0  0  0  0
    7.3371    0.5937    0.1653 H   0  0  0  0  0  0  0  0  0  0  0  0
    4.6628   -1.2900   -1.6484 H   0  0  0  0  0  0  0  0  0  0  0  0
    4.4963    0.4239   -2.0379 H   0  0  0  0  0  0  0  0  0  0  0  0
    2.3031   -0.6549   -1.5980 H   0  0  0  0  0  0  0  0  0  0  0  0
    2.8396   -1.1040    0.0248 H   0  0  0  0  0  0  0  0  0  0  0  0
    1.6799    0.2898    1.5796 H   0  0  0  0  0  0  0  0  0  0  0  0
    1.0556    1.8448    1.0269 H   0  0  0  0  0  0  0  0  0  0  0  0
   -0.1839    0.6974   -0.8273 H   0  0  0  0  0  0  0  0  0  0  0  0
    0.3371   -0.8539   -0.2119 H   0  0  0  0  0  0  0  0  0  0  0  0
   -1.3063    1.2117    1.3739 H   0  0  0  0  0  0  0  0  0  0  0  0
   -0.7110   -0.2334    2.0641 H   0  0  0  0  0  0  0  0  0  0  0  0
   -0.2314   -2.2348    1.4912 H   0  0  0  0  0  0  0  0  0  0  0  0
   -0.4133   -4.5721    2.0615 H   0  0  0  0  0  0  0  0  0  0  0  0
   -2.5820   -5.7612    1.8560 H   0  0  0  0  0  0  0  0  0  0  0  0
   -4.5684   -4.5406    1.0705 H   0  0  0  0  0  0  0  0  0  0  0  0
   -6.5034    0.0370   -1.1147 H   0  0  0  0  0  0  0  0  0  0  0  0
   -5.9939    2.2715   -1.9832 H   0  0  0  0  0  0  0  0  0  0  0  0
   -1.9947    1.9454   -0.5059 H   0  0  0  0  0  0  0  0  0  0  0  0
    3.2171    2.4733    1.0497 H   0  0  0  0  0  0  0  0  0  0  0  0
    3.9515    2.4078   -0.5311 H   0  0  0  0  0  0  0  0  0  0  0  0
    5.5036    1.6151    1.2549 H   0  0  0  0  0  0  0  0  0  0  0  0
    4.3744    0.3561    1.6916 H   0  0  0  0  0  0  0  0  0  0  0  0
  1  2  1  0
  2  3  1  0
  3  4  1  0
  4  5  1  0
  5  6  1  0
  6  7  1  0
  7  8  1  0
  8  9  1  0
  9 10  1  0
 10 11  2  0
 11 12  1  0
 12 13  2  0
 13 14  1  0
 14 15  2  0
 15 16  1  0
 16 17  1  0
 17 18  2  0
 18 19  1  0
 19 20  2  0
 20 21  1  0
 21 22  1  0
 21 23  1  0
 21 24  1  0
 20 25  1  0
 25 26  2  0
  5 27  1  0
 27 28  1  0
 28  2  1  0
 26  9  1  0
 15 10  1  0
 26 17  1  0
  1 29  1  0
  1 30  1  0
  1 31  1  0
  3 32  1  0
  3 33  1  0
  4 34  1  0
  4 35  1  0
  6 36  1  0
  6 37  1  0
  7 38  1  0
  7 39  1  0
  8 40  1  0
  8 41  1  0
 11 42  1  0
 12 43  1  0
 13 44  1  0
 14 45  1  0
 18 46  1  0
 19 47  1  0
 25 48  1  0
 27 49  1  0
 27 50  1  0
 28 51  1  0
 28 52  1  0
M  END
$$$$
