
     RDKit          3D

 53 52  0  0  0  0  0  0  0  0999 V2000
   -7.2749    0.3597    1.3989 C   0  0  0  0  0  0  0  0  0  0  0  0
   -7.0560    0.8975   -0.0162 C   0  0  0  0  0  0  0  0  0  0  0  0
   -7.8846    2.1670   -0.2195 C   0  0  0  0  0  0  0  0  0  0  0  0
   -5.5542    1.1323   -0.2616 C   0  0  0  0  0  0  0  0  0  0  0  0
   -5.2309    1.5472   -1.6972 C   0  0  0  0  0  0  0  0  0  0  0  0
   -3.8023    1.6808   -1.9049 N   0  0  0  0  0  0  0  0  0  0  0  0
   -3.0079    0.5864   -2.1806 C   0  0  0  0  0  0  0  0  0  0  0  0
   -3.4549   -0.5407   -2.3654 O   0  0  0  0  0  0  0  0  0  0  0  0
   -1.5381    0.9313   -2.3276 C   0  0  0  0  0  0  0  0  0  0  0  0
   -0.6239   -0.2338   -1.9662 C   0  0  0  0  0  0  0  0  0  0  0  0
   -0.4187   -0.4156   -0.1565 S   0  0  0  0  0  0  0  0  0  0  0  0
    0.8870    0.8281    0.1575 C   0  0  0  0  0  0  0  0  0  0  0  0
    2.2806    0.3025   -0.1687 C   0  0  0  0  0  0  0  0  0  0  0  0
    2.8355   -0.6029    0.9143 C   0  0  0  0  0  0  0  0  0  0  0  0
    2.5521   -0.4845    2.1006 O   0  0  0  0  0  0  0  0  0  0  0  0
    3.7490   -1.5213    0.4416 N   0  0  0  0  0  0  0  0  0  0  0  0
    4.4365   -2.4432    1.3227 C   0  0  0  0  0  0  0  0  0  0  0  0
    5.6239   -1.8032    2.0442 C   0  0  0  0  0  0  0  0  0  0  0  0
    6.7055   -1.2060    1.1223 C   0  0  0  0  0  0  0  0  0  0  0  0
    7.3595   -2.2591    0.2278 C   0  0  0  0  0  0  0  0  0  0  0  0
    7.7757   -0.5095    1.9698 C   0  0  0  0  0  0  0  0  0  0  0  0
   -8.3334    0.1369    1.5690 H   0  0  0  0  0  0  0  0  0  0  0  0
   -6.9551    1.0837    2.1544 H   0  0  0  0  0  0  0  0  0  0  0  0
   -6.7113   -0.5656    1.5580 H   0  0  0  0  0  0  0  0  0  0  0  0
   -7.4133    0.1372   -0.7225 H   0  0  0  0  0  0  0  0  0  0  0  0
   -7.8613    2.4951   -1.2621 H   0  0  0  0  0  0  0  0  0  0  0  0
   -7.5123    2.9863    0.4067 H   0  0  0  0  0  0  0  0  0  0  0  0
   -8.9343    1.9948    0.0430 H   0  0  0  0  0  0  0  0  0  0  0  0
   -5.0067    0.2105   -0.0238 H   0  0  0  0  0  0  0  0  0  0  0  0
   -5.1773    1.8963    0.4310 H   0  0  0  0  0  0  0  0  0  0  0  0
   -5.6254    0.8119   -2.4071 H   0  0  0  0  0  0  0  0  0  0  0  0
   -5.6689    2.5216   -1.9346 H   0  0  0  0  0  0  0  0  0  0  0  0
   -3.3640    2.5488   -1.6254 H   0  0  0  0  0  0  0  0  0  0  0  0
   -1.2900    1.8331   -1.7564 H   0  0  0  0  0  0  0  0  0  0  0  0
   -1.3931    1.1751   -3.3884 H   0  0  0  0  0  0  0  0  0  0  0  0
    0.3602   -0.0913   -2.4218 H   0  0  0  0  0  0  0  0  0  0  0  0
   -1.0157   -1.1805   -2.3512 H   0  0  0  0  0  0  0  0  0  0  0  0
    0.8124    1.1276    1.2081 H   0  0  0  0  0  0  0  0  0  0  0  0
    0.6739    1.7191   -0.4409 H   0  0  0  0  0  0  0  0  0  0  0  0
    2.3046   -0.2001   -1.1413 H   0  0  0  0  0  0  0  0  0  0  0  0
    2.9712    1.1529   -0.2315 H   0  0  0  0  0  0  0  0  0  0  0  0
    3.9981   -1.5204   -0.5386 H   0  0  0  0  0  0  0  0  0  0  0  0
    4.7497   -3.3018    0.7214 H   0  0  0  0  0  0  0  0  0  0  0  0
    3.7204   -2.8108    2.0673 H   0  0  0  0  0  0  0  0  0  0  0  0
    6.0777   -2.5573    2.7003 H   0  0  0  0  0  0  0  0  0  0  0  0
    5.2511   -1.0076    2.7003 H   0  0  0  0  0  0  0  0  0  0  0  0
    6.2473   -0.4445    0.4795 H   0  0  0  0  0  0  0  0  0  0  0  0
    7.7976   -3.0676    0.8230 H   0  0  0  0  0  0  0  0  0  0  0  0
    6.6373   -2.6987   -0.4672 H   0  0  0  0  0  0  0  0  0  0  0  0
    8.1584   -1.8132   -0.3741 H   0  0  0  0  0  0  0  0  0  0  0  0
    8.5252   -0.0266    1.3341 H   0  0  0  0  0  0  0  0  0  0  0  0
    8.2928   -1.2215    2.6219 H   0  0  0  0  0  0  0  0  0  0  0  0
    7.3254    0.2639    2.6016 H   0  0  0  0  0  0  0  0  0  0  0  0
  1  2  1  0
  2  3  1  0
  2  4  1  0
  4  5  1  0
  5  6  1  0
  6  7  1  0
  7  8  2  0
  7  9  1  0
  9 10  1  0
 10 11  1  0
 11 12  1  0
 12 13  1  0
 13 14  1  0
 14 15  2  0
 14 16  1  0
 16 17  1  0
 17 18  1  0
 18 19  1  0
 19 20  1  0
 19 21  1  0
  1 22  1  0
  1 23  1  0
  1 24  1  0
  2 25  1  0
  3 26  1  0
  3 27  1  0
  3 28  1  0
  4 29  1  0
  4 30  1  0
  5 31  1  0
  5 32  1  0
  6 33  1  0
  9 34  1  0
  9 35  1  0
 10 36  1  0
 10 37  1  0
 12 38  1  0
 12 39  1  0
 13 40  1  0
 13 41  1  0
 16 42  1  0
 17 43  1  0
 17 44  1  0
 18 45  1  0
 18 46  1  0
 19 47  1  0
 20 48  1  0
 20 49  1  0
 20 50  1  0
 21 51  1  0
 21 52  1  0
 21 53  1  0
M  END
$$$$
