
     RDKit          3D

 55 60  0  0  0  0  0  0  0  0999 V2000
    4.2322    0.1065    2.5174 O   0  0  0  0  0  0  0  0  0  0  0  0
    3.7361    0.7154    1.5710 C   0  0  0  0  0  0  0  0  0  0  0  0
    4.5320    1.6736    0.8204 C   0  0  0  0  0  0  0  0  0  0  0  0
    4.5807    1.9575   -0.5771 C   0  0  0  0  0  0  0  0  0  0  0  0
    5.5442    2.9232   -0.7496 C   0  0  0  0  0  0  0  0  0  0  0  0
    6.1133    3.2399    0.4402 O   0  0  0  0  0  0  0  0  0  0  0  0
    5.5159    2.4647    1.3805 C   0  0  0  0  0  0  0  0  0  0  0  0
    2.4169    0.4869    1.1682 N   0  0  0  0  0  0  0  0  0  0  0  0
    1.7230   -0.6329    1.7918 C   0  0  0  0  0  0  0  0  0  0  0  0
    0.2952   -0.8164    1.2721 C   0  0  0  0  0  0  0  0  0  0  0  0
    0.2021   -0.5994   -0.2590 C   0  0  0  0  0  0  0  0  0  0  0  0
    0.7896    0.7969   -0.6411 C   0  0  0  0  0  0  0  0  0  0  0  0
    1.5729    1.4581    0.4921 C   0  0  0  0  0  0  0  0  0  0  0  0
    1.0796   -1.6231   -0.8084 O   0  0  0  0  0  0  0  0  0  0  0  0
    0.9286   -1.9470   -2.1247 C   0  0  0  0  0  0  0  0  0  0  0  0
    1.9438   -2.7213   -2.6857 C   0  0  0  0  0  0  0  0  0  0  0  0
    1.8892   -3.0758   -4.0360 C   0  0  0  0  0  0  0  0  0  0  0  0
    0.8159   -2.6555   -4.8219 C   0  0  0  0  0  0  0  0  0  0  0  0
    0.7573   -3.0868   -6.4856 Cl  0  0  0  0  0  0  0  0  0  0  0  0
   -0.2084   -1.8921   -4.2683 C   0  0  0  0  0  0  0  0  0  0  0  0
   -0.1485   -1.5526   -2.9132 C   0  0  0  0  0  0  0  0  0  0  0  0
   -1.2253   -0.7686   -2.2901 C   0  0  0  0  0  0  0  0  0  0  0  0
   -2.0078   -0.1404   -2.9971 O   0  0  0  0  0  0  0  0  0  0  0  0
   -1.2573   -0.7842   -0.7701 C   0  0  0  0  0  0  0  0  0  0  0  0
   -2.2872    0.1858   -0.2053 C   0  0  0  0  0  0  0  0  0  0  0  0
   -3.0380   -0.7335    0.6926 C   0  0  0  0  0  0  0  0  0  0  0  0
   -4.0621   -0.2390    1.6434 C   0  0  0  0  0  0  0  0  0  0  0  0
   -4.4712    1.1001    1.6477 C   0  0  0  0  0  0  0  0  0  0  0  0
   -5.4369    1.5337    2.5624 C   0  0  0  0  0  0  0  0  0  0  0  0
   -5.9932    0.6322    3.4690 C   0  0  0  0  0  0  0  0  0  0  0  0
   -7.1787    1.1721    4.5915 Cl  0  0  0  0  0  0  0  0  0  0  0  0
   -5.5950   -0.7024    3.4688 C   0  0  0  0  0  0  0  0  0  0  0  0
   -4.6309   -1.1384    2.5557 C   0  0  0  0  0  0  0  0  0  0  0  0
   -2.7258   -1.9829    0.5817 N   0  0  0  0  0  0  0  0  0  0  0  0
   -1.7418   -2.0964   -0.4220 O   0  0  0  0  0  0  0  0  0  0  0  0
    3.9969    1.4996   -1.3628 H   0  0  0  0  0  0  0  0  0  0  0  0
    5.9361    3.4489   -1.6095 H   0  0  0  0  0  0  0  0  0  0  0  0
    5.8867    2.5821    2.3901 H   0  0  0  0  0  0  0  0  0  0  0  0
    2.3186   -1.5365    1.6131 H   0  0  0  0  0  0  0  0  0  0  0  0
    1.7008   -0.4718    2.8764 H   0  0  0  0  0  0  0  0  0  0  0  0
   -0.0306   -1.8263    1.5484 H   0  0  0  0  0  0  0  0  0  0  0  0
   -0.3625   -0.1130    1.7963 H   0  0  0  0  0  0  0  0  0  0  0  0
    1.4623    0.6956   -1.5018 H   0  0  0  0  0  0  0  0  0  0  0  0
    0.0027    1.4944   -0.9492 H   0  0  0  0  0  0  0  0  0  0  0  0
    0.8835    1.8649    1.2432 H   0  0  0  0  0  0  0  0  0  0  0  0
    2.1306    2.3181    0.1183 H   0  0  0  0  0  0  0  0  0  0  0  0
    2.7831   -3.0447   -2.0738 H   0  0  0  0  0  0  0  0  0  0  0  0
    2.6859   -3.6772   -4.4674 H   0  0  0  0  0  0  0  0  0  0  0  0
   -1.0502   -1.5734   -4.8786 H   0  0  0  0  0  0  0  0  0  0  0  0
   -2.9790    0.5910   -0.9491 H   0  0  0  0  0  0  0  0  0  0  0  0
   -1.8466    1.0139    0.3551 H   0  0  0  0  0  0  0  0  0  0  0  0
   -4.0654    1.8228    0.9459 H   0  0  0  0  0  0  0  0  0  0  0  0
   -5.7544    2.5738    2.5603 H   0  0  0  0  0  0  0  0  0  0  0  0
   -6.0295   -1.4089    4.1716 H   0  0  0  0  0  0  0  0  0  0  0  0
   -4.3295   -2.1848    2.5623 H   0  0  0  0  0  0  0  0  0  0  0  0
  1  2  2  0
  2  3  1  0
  3  4  1  0
  4  5  2  0
  5  6  1  0
  6  7  1  0
  2  8  1  0
  8  9  1  0
  9 10  1  0
 10 11  1  0
 11 12  1  0
 12 13  1  0
 11 14  1  0
 14 15  1  0
 15 16  2  0
 16 17  1  0
 17 18  2  0
 18 19  1  0
 18 20  1  0
 20 21  2  0
 21 22  1  0
 22 23  2  0
 22 24  1  0
 24 25  1  0
 25 26  1  0
 26 27  1  0
 27 28  2  0
 28 29  1  0
 29 30  2  0
 30 31  1  0
 30 32  1  0
 32 33  2  0
 26 34  2  0
 34 35  1  0
  7  3  2  0
 13  8  1  0
 21 15  1  0
 35 24  1  0
 24 11  1  0
 33 27  1  0
  4 36  1  0
  5 37  1  0
  7 38  1  0
  9 39  1  0
  9 40  1  0
 10 41  1  0
 10 42  1  0
 12 43  1  0
 12 44  1  0
 13 45  1  0
 13 46  1  0
 16 47  1  0
 17 48  1  0
 20 49  1  0
 25 50  1  0
 25 51  1  0
 28 52  1  0
 29 53  1  0
 32 54  1  0
 33 55  1  0
M  END
$$$$
