
     RDKit          3D

 64 69  0  0  0  0  0  0  0  0999 V2000
   -8.8086    3.2688    1.2634 C   0  0  0  0  0  0  0  0  0  0  0  0
   -8.5022    1.9919    0.7162 O   0  0  0  0  0  0  0  0  0  0  0  0
   -7.1789    1.6925    0.5528 C   0  0  0  0  0  0  0  0  0  0  0  0
   -6.9273    0.4443   -0.0173 C   0  0  0  0  0  0  0  0  0  0  0  0
   -5.6171    0.0063   -0.2387 C   0  0  0  0  0  0  0  0  0  0  0  0
   -4.5313    0.8208    0.1036 C   0  0  0  0  0  0  0  0  0  0  0  0
   -3.1836    0.3761   -0.1114 N   0  0  0  0  0  0  0  0  0  0  0  0
   -2.0534    1.1766   -0.3439 C   0  0  0  0  0  0  0  0  0  0  0  0
   -2.1129    2.5216   -0.5473 N   0  0  0  0  0  0  0  0  0  0  0  0
   -0.9185    0.3736   -0.3779 C   0  0  0  0  0  0  0  0  0  0  0  0
    0.4522    0.8458   -0.5901 C   0  0  0  0  0  0  0  0  0  0  0  0
    0.6731    2.0064   -0.9151 O   0  0  0  0  0  0  0  0  0  0  0  0
    1.4063   -0.1470   -0.4737 N   0  0  0  0  0  0  0  0  0  0  0  0
    2.7667   -0.0089   -0.5364 C   0  0  0  0  0  0  0  0  0  0  0  0
    3.6604   -0.9945   -0.7405 C   0  0  0  0  0  0  0  0  0  0  0  0
    3.3677   -2.4461   -0.9594 C   0  0  0  0  0  0  0  0  0  0  0  0
    4.9861   -0.5389   -0.7981 N   0  0  0  0  0  0  0  0  0  0  0  0
    5.7634   -0.8442   -2.0141 C   0  0  0  0  0  0  0  0  0  0  0  0
    4.9258    0.8553   -0.5087 N   0  0  0  0  0  0  0  0  0  0  0  0
    6.0481    1.5410    0.0321 C   0  0  0  0  0  0  0  0  0  0  0  0
    6.0295    2.9330    0.1947 C   0  0  0  0  0  0  0  0  0  0  0  0
    7.1331    3.6140    0.7199 C   0  0  0  0  0  0  0  0  0  0  0  0
    8.2739    2.9120    1.0959 C   0  0  0  0  0  0  0  0  0  0  0  0
    8.3120    1.5286    0.9461 C   0  0  0  0  0  0  0  0  0  0  0  0
    7.2080    0.8506    0.4192 C   0  0  0  0  0  0  0  0  0  0  0  0
    3.5816    1.2387   -0.3314 C   0  0  0  0  0  0  0  0  0  0  0  0
    3.1440    2.3150    0.0391 O   0  0  0  0  0  0  0  0  0  0  0  0
   -1.3712   -0.9564   -0.2276 C   0  0  0  0  0  0  0  0  0  0  0  0
   -0.6474   -2.1110   -0.2195 N   0  0  0  0  0  0  0  0  0  0  0  0
   -1.3805   -3.2256   -0.0603 C   0  0  0  0  0  0  0  0  0  0  0  0
   -0.7258   -4.4511   -0.0385 C   0  0  0  0  0  0  0  0  0  0  0  0
   -1.4224   -5.6500    0.1180 C   0  0  0  0  0  0  0  0  0  0  0  0
   -2.8025   -5.6251    0.2585 C   0  0  0  0  0  0  0  0  0  0  0  0
   -3.4721   -4.4016    0.2414 C   0  0  0  0  0  0  0  0  0  0  0  0
   -2.7909   -3.2018    0.0835 C   0  0  0  0  0  0  0  0  0  0  0  0
   -3.5019   -2.0659    0.0715 N   0  0  0  0  0  0  0  0  0  0  0  0
   -2.7530   -0.9502   -0.0980 C   0  0  0  0  0  0  0  0  0  0  0  0
   -4.7881    2.0692    0.6883 C   0  0  0  0  0  0  0  0  0  0  0  0
   -6.1027    2.5023    0.9085 C   0  0  0  0  0  0  0  0  0  0  0  0
   -8.4380    4.0741    0.6204 H   0  0  0  0  0  0  0  0  0  0  0  0
   -9.8978    3.3578    1.3143 H   0  0  0  0  0  0  0  0  0  0  0  0
   -8.4195    3.3652    2.2826 H   0  0  0  0  0  0  0  0  0  0  0  0
   -7.7601   -0.1976   -0.2955 H   0  0  0  0  0  0  0  0  0  0  0  0
   -5.4829   -0.9647   -0.7070 H   0  0  0  0  0  0  0  0  0  0  0  0
   -2.9157    2.9257   -1.0270 H   0  0  0  0  0  0  0  0  0  0  0  0
   -1.2389    2.9794   -0.8406 H   0  0  0  0  0  0  0  0  0  0  0  0
    1.0417   -1.0943   -0.4181 H   0  0  0  0  0  0  0  0  0  0  0  0
    2.3564   -2.7225   -0.6507 H   0  0  0  0  0  0  0  0  0  0  0  0
    4.0601   -3.0647   -0.3778 H   0  0  0  0  0  0  0  0  0  0  0  0
    3.4791   -2.7031   -2.0180 H   0  0  0  0  0  0  0  0  0  0  0  0
    5.2522   -0.4683   -2.9078 H   0  0  0  0  0  0  0  0  0  0  0  0
    5.8957   -1.9262   -2.1159 H   0  0  0  0  0  0  0  0  0  0  0  0
    6.7625   -0.4001   -1.9838 H   0  0  0  0  0  0  0  0  0  0  0  0
    5.1629    3.5191   -0.1012 H   0  0  0  0  0  0  0  0  0  0  0  0
    7.0934    4.6943    0.8355 H   0  0  0  0  0  0  0  0  0  0  0  0
    9.1279    3.4415    1.5096 H   0  0  0  0  0  0  0  0  0  0  0  0
    9.1942    0.9730    1.2514 H   0  0  0  0  0  0  0  0  0  0  0  0
    7.2576   -0.2323    0.3483 H   0  0  0  0  0  0  0  0  0  0  0  0
    0.3556   -4.4772   -0.1464 H   0  0  0  0  0  0  0  0  0  0  0  0
   -0.8861   -6.5952    0.1295 H   0  0  0  0  0  0  0  0  0  0  0  0
   -3.3603   -6.5497    0.3820 H   0  0  0  0  0  0  0  0  0  0  0  0
   -4.5541   -4.3818    0.3536 H   0  0  0  0  0  0  0  0  0  0  0  0
   -3.9805    2.7101    1.0353 H   0  0  0  0  0  0  0  0  0  0  0  0
   -6.2451    3.4714    1.3749 H   0  0  0  0  0  0  0  0  0  0  0  0
  1  2  1  0
  2  3  1  0
  3  4  2  0
  4  5  1  0
  5  6  2  0
  6  7  1  0
  7  8  1  0
  8  9  1  0
  8 10  2  0
 10 11  1  0
 11 12  2  0
 11 13  1  0
 13 14  1  0
 14 15  2  0
 15 16  1  0
 15 17  1  0
 17 18  1  0
 17 19  1  0
 19 20  1  0
 20 21  2  0
 21 22  1  0
 22 23  2  0
 23 24  1  0
 24 25  2  0
 19 26  1  0
 26 27  2  0
 10 28  1  0
 28 29  2  0
 29 30  1  0
 30 31  2  0
 31 32  1  0
 32 33  2  0
 33 34  1  0
 34 35  2  0
 35 36  1  0
 36 37  2  0
  6 38  1  0
 38 39  2  0
 39  3  1  0
 37  7  1  0
 26 14  1  0
 37 28  1  0
 25 20  1  0
 35 30  1  0
  1 40  1  0
  1 41  1  0
  1 42  1  0
  4 43  1  0
  5 44  1  0
  9 45  1  0
  9 46  1  0
 13 47  1  0
 16 48  1  0
 16 49  1  0
 16 50  1  0
 18 51  1  0
 18 52  1  0
 18 53  1  0
 21 54  1  0
 22 55  1  0
 23 56  1  0
 24 57  1  0
 25 58  1  0
 31 59  1  0
 32 60  1  0
 33 61  1  0
 34 62  1  0
 38 63  1  0
 39 64  1  0
M  END
$$$$
