
     RDKit          3D

 44 47  0  0  0  0  0  0  0  0999 V2000
   -3.2033    5.0397    0.9897 N   0  0  0  0  0  0  0  0  0  0  0  0
   -3.6929    3.7854    0.9612 C   0  0  0  0  0  0  0  0  0  0  0  0
   -4.9524    3.4652    1.2547 N   0  0  0  0  0  0  0  0  0  0  0  0
   -5.0278    2.0841    1.1149 O   0  0  0  0  0  0  0  0  0  0  0  0
   -3.8015    1.5473    0.7280 N   0  0  0  0  0  0  0  0  0  0  0  0
   -2.9970    2.6059    0.6314 C   0  0  0  0  0  0  0  0  0  0  0  0
   -1.6410    2.4713    0.2358 N   0  0  0  0  0  0  0  0  0  0  0  0
   -0.8333    3.5662    0.1082 N   0  0  0  0  0  0  0  0  0  0  0  0
    0.3644    3.1824   -0.2926 N   0  0  0  0  0  0  0  0  0  0  0  0
    0.3566    1.8210   -0.4266 C   0  0  0  0  0  0  0  0  0  0  0  0
    1.5342    1.0754   -0.8675 C   0  0  0  0  0  0  0  0  0  0  0  0
    1.5212   -0.1434   -1.0070 O   0  0  0  0  0  0  0  0  0  0  0  0
    2.6332    1.9007   -1.0925 N   0  0  0  0  0  0  0  0  0  0  0  0
    3.7537    1.5055   -1.7757 N   0  0  0  0  0  0  0  0  0  0  0  0
    4.4434    0.4776   -1.3703 C   0  0  0  0  0  0  0  0  0  0  0  0
    4.3056   -0.3224   -0.1389 C   0  0  0  0  0  0  0  0  0  0  0  0
    4.1575   -1.7127   -0.2524 C   0  0  0  0  0  0  0  0  0  0  0  0
    4.1290   -2.5226   -1.7810 Cl  0  0  0  0  0  0  0  0  0  0  0  0
    4.0201   -2.5023    0.8943 C   0  0  0  0  0  0  0  0  0  0  0  0
    4.0495   -1.9150    2.1576 C   0  0  0  0  0  0  0  0  0  0  0  0
    4.2343   -0.5384    2.2767 C   0  0  0  0  0  0  0  0  0  0  0  0
    4.3730    0.2592    1.1342 C   0  0  0  0  0  0  0  0  0  0  0  0
    4.7056    1.9364    1.3899 Cl  0  0  0  0  0  0  0  0  0  0  0  0
   -0.8997    1.3359   -0.0894 C   0  0  0  0  0  0  0  0  0  0  0  0
   -1.4076   -0.0632   -0.0678 C   0  0  0  0  0  0  0  0  0  0  0  0
   -2.1734   -0.4687   -1.6591 S   0  0  0  0  0  0  0  0  0  0  0  0
   -2.5857   -2.1248   -1.3742 C   0  0  0  0  0  0  0  0  0  0  0  0
   -2.4486   -2.7179   -0.2356 N   0  0  0  0  0  0  0  0  0  0  0  0
   -2.8466   -4.1334   -0.3847 C   0  0  0  0  0  0  0  0  0  0  0  0
   -3.8322   -4.2792   -1.5331 C   0  0  0  0  0  0  0  0  0  0  0  0
   -3.2653   -3.0293   -2.6970 S   0  0  0  0  0  0  0  0  0  0  0  0
   -3.8523    5.8188    1.0294 H   0  0  0  0  0  0  0  0  0  0  0  0
   -2.3037    5.2625    0.5663 H   0  0  0  0  0  0  0  0  0  0  0  0
    2.4114    2.8885   -1.2070 H   0  0  0  0  0  0  0  0  0  0  0  0
    5.2716    0.1649   -2.0306 H   0  0  0  0  0  0  0  0  0  0  0  0
    3.8868   -3.5785    0.8068 H   0  0  0  0  0  0  0  0  0  0  0  0
    3.9416   -2.5308    3.0478 H   0  0  0  0  0  0  0  0  0  0  0  0
    4.2831   -0.0915    3.2678 H   0  0  0  0  0  0  0  0  0  0  0  0
   -2.1082   -0.2238    0.7556 H   0  0  0  0  0  0  0  0  0  0  0  0
   -0.5795   -0.7558    0.1143 H   0  0  0  0  0  0  0  0  0  0  0  0
   -3.3019   -4.4861    0.5469 H   0  0  0  0  0  0  0  0  0  0  0  0
   -1.9479   -4.7393   -0.5556 H   0  0  0  0  0  0  0  0  0  0  0  0
   -4.8479   -4.0308   -1.2096 H   0  0  0  0  0  0  0  0  0  0  0  0
   -3.8258   -5.2836   -1.9636 H   0  0  0  0  0  0  0  0  0  0  0  0
  1  2  1  0
  2  3  2  0
  3  4  1  0
  4  5  1  0
  5  6  2  0
  6  7  1  0
  7  8  1  0
  8  9  2  0
  9 10  1  0
 10 11  1  0
 11 12  2  0
 11 13  1  0
 13 14  1  0
 14 15  2  3
 15 16  1  0
 16 17  2  0
 17 18  1  0
 17 19  1  0
 19 20  2  0
 20 21  1  0
 21 22  2  0
 22 23  1  0
 10 24  2  0
 24 25  1  0
 25 26  1  0
 26 27  1  0
 27 28  2  0
 28 29  1  0
 29 30  1  0
 30 31  1  0
  6  2  1  0
 24  7  1  0
 31 27  1  0
 22 16  1  0
  1 32  1  0
  1 33  1  0
 13 34  1  0
 15 35  1  0
 19 36  1  0
 20 37  1  0
 21 38  1  0
 25 39  1  0
 25 40  1  0
 29 41  1  0
 29 42  1  0
 30 43  1  0
 30 44  1  0
M  END
$$$$
