
     RDKit          3D

 51 54  0  0  0  0  0  0  0  0999 V2000
   -3.4984   -4.3468    2.4496 C   0  0  0  0  0  0  0  0  0  0  0  0
   -2.2130   -4.3859    1.8421 O   0  0  0  0  0  0  0  0  0  0  0  0
   -1.7174   -3.2120    1.3453 C   0  0  0  0  0  0  0  0  0  0  0  0
   -2.3389   -1.9701    1.4387 C   0  0  0  0  0  0  0  0  0  0  0  0
   -1.7331   -0.8265    0.8823 C   0  0  0  0  0  0  0  0  0  0  0  0
   -2.4086    0.4743    1.0145 C   0  0  0  0  0  0  0  0  0  0  0  0
   -3.4669    0.5316    1.6350 O   0  0  0  0  0  0  0  0  0  0  0  0
   -1.7788    1.5682    0.4446 N   0  0  0  0  0  0  0  0  0  0  0  0
   -2.4473    2.8579    0.5405 C   0  0  0  0  0  0  0  0  0  0  0  0
   -3.1506    3.1503   -0.7417 C   0  0  0  0  0  0  0  0  0  0  0  0
   -2.7708    3.7919   -1.9040 C   0  0  0  0  0  0  0  0  0  0  0  0
   -3.8896    3.7486   -2.7697 C   0  0  0  0  0  0  0  0  0  0  0  0
   -4.8792    3.0860   -2.0823 C   0  0  0  0  0  0  0  0  0  0  0  0
   -4.4406    2.7192   -0.8509 O   0  0  0  0  0  0  0  0  0  0  0  0
   -0.5385    1.5344   -0.1722 C   0  0  0  0  0  0  0  0  0  0  0  0
    0.0208    2.5606   -0.5724 O   0  0  0  0  0  0  0  0  0  0  0  0
    0.0575    0.2874   -0.3282 N   0  0  0  0  0  0  0  0  0  0  0  0
    1.3718    0.2691   -0.9767 C   0  0  0  0  0  0  0  0  0  0  0  0
    2.4951    0.4321    0.0486 C   0  0  0  0  0  0  0  0  0  0  0  0
    2.3640    0.1258    1.2353 O   0  0  0  0  0  0  0  0  0  0  0  0
    3.8169    0.9492   -0.4150 C   0  0  0  0  0  0  0  0  0  0  0  0
    4.7269    1.4049    0.5519 C   0  0  0  0  0  0  0  0  0  0  0  0
    5.9767    1.8991    0.1727 C   0  0  0  0  0  0  0  0  0  0  0  0
    6.3288    1.9367   -1.1752 C   0  0  0  0  0  0  0  0  0  0  0  0
    5.4298    1.4752   -2.1360 C   0  0  0  0  0  0  0  0  0  0  0  0
    5.9139    1.5181   -3.9644 Br  0  0  0  0  0  0  0  0  0  0  0  0
    4.1769    0.9792   -1.7673 C   0  0  0  0  0  0  0  0  0  0  0  0
   -0.5096   -0.8964    0.2182 C   0  0  0  0  0  0  0  0  0  0  0  0
    0.1134   -2.1472    0.1313 C   0  0  0  0  0  0  0  0  0  0  0  0
   -0.4777   -3.2807    0.7019 C   0  0  0  0  0  0  0  0  0  0  0  0
    0.1689   -4.4826    0.5435 O   0  0  0  0  0  0  0  0  0  0  0  0
    0.9996   -4.7425    1.6770 C   0  0  0  0  0  0  0  0  0  0  0  0
   -3.7506   -5.3641    2.7641 H   0  0  0  0  0  0  0  0  0  0  0  0
   -4.2630   -4.0193    1.7369 H   0  0  0  0  0  0  0  0  0  0  0  0
   -3.4924   -3.7150    3.3441 H   0  0  0  0  0  0  0  0  0  0  0  0
   -3.2952   -1.8552    1.9394 H   0  0  0  0  0  0  0  0  0  0  0  0
   -3.1636    2.8699    1.3698 H   0  0  0  0  0  0  0  0  0  0  0  0
   -1.7102    3.6433    0.7467 H   0  0  0  0  0  0  0  0  0  0  0  0
   -1.7997    4.2289   -2.0975 H   0  0  0  0  0  0  0  0  0  0  0  0
   -3.9662    4.1489   -3.7708 H   0  0  0  0  0  0  0  0  0  0  0  0
   -5.8977    2.8083   -2.3157 H   0  0  0  0  0  0  0  0  0  0  0  0
    1.5142   -0.6478   -1.5545 H   0  0  0  0  0  0  0  0  0  0  0  0
    1.4177    1.0982   -1.6914 H   0  0  0  0  0  0  0  0  0  0  0  0
    4.4632    1.3824    1.6092 H   0  0  0  0  0  0  0  0  0  0  0  0
    6.6729    2.2543    0.9295 H   0  0  0  0  0  0  0  0  0  0  0  0
    7.3022    2.3248   -1.4649 H   0  0  0  0  0  0  0  0  0  0  0  0
    3.5081    0.6169   -2.5424 H   0  0  0  0  0  0  0  0  0  0  0  0
    1.0700   -2.2888   -0.3577 H   0  0  0  0  0  0  0  0  0  0  0  0
    1.3663   -5.7697    1.5934 H   0  0  0  0  0  0  0  0  0  0  0  0
    1.8680   -4.0721    1.6754 H   0  0  0  0  0  0  0  0  0  0  0  0
    0.4538   -4.6529    2.6225 H   0  0  0  0  0  0  0  0  0  0  0  0
  1  2  1  0
  2  3  1  0
  3  4  2  0
  4  5  1  0
  5  6  1  0
  6  7  2  0
  6  8  1  0
  8  9  1  0
  9 10  1  0
 10 11  2  0
 11 12  1  0
 12 13  2  0
 13 14  1  0
  8 15  1  0
 15 16  2  0
 15 17  1  0
 17 18  1  0
 18 19  1  0
 19 20  2  0
 19 21  1  0
 21 22  2  0
 22 23  1  0
 23 24  2  0
 24 25  1  0
 25 26  1  0
 25 27  2  0
 17 28  1  0
 28 29  1  0
 29 30  2  0
 30 31  1  0
 31 32  1  0
 30  3  1  0
 28  5  2  0
 14 10  1  0
 27 21  1  0
  1 33  1  0
  1 34  1  0
  1 35  1  0
  4 36  1  0
  9 37  1  0
  9 38  1  0
 11 39  1  0
 12 40  1  0
 13 41  1  0
 18 42  1  0
 18 43  1  0
 22 44  1  0
 23 45  1  0
 24 46  1  0
 27 47  1  0
 29 48  1  0
 32 49  1  0
 32 50  1  0
 32 51  1  0
M  END
$$$$
