
     RDKit          3D

 59 62  0  0  0  0  0  0  0  0999 V2000
    8.3515   -1.1409   -1.1729 C   0  0  0  0  0  0  0  0  0  0  0  0
    7.0010   -0.7124   -0.6808 C   0  0  0  0  0  0  0  0  0  0  0  0
    6.5618    0.6000   -0.8714 C   0  0  0  0  0  0  0  0  0  0  0  0
    5.2894    0.9906   -0.4435 C   0  0  0  0  0  0  0  0  0  0  0  0
    4.4320    0.0755    0.1899 C   0  0  0  0  0  0  0  0  0  0  0  0
    3.1381    0.5184    0.6068 N   0  0  0  0  0  0  0  0  0  0  0  0
    2.6498    1.6777    0.0878 N   0  0  0  0  0  0  0  0  0  0  0  0
    1.3734    1.7226    0.4722 C   0  0  0  0  0  0  0  0  0  0  0  0
    0.3957    2.7384    0.1042 C   0  0  0  0  0  0  0  0  0  0  0  0
    0.6340    3.6735   -0.6556 O   0  0  0  0  0  0  0  0  0  0  0  0
   -0.8576    2.5298    0.7155 N   0  0  0  0  0  0  0  0  0  0  0  0
   -1.9448    3.4584    0.4103 C   0  0  0  0  0  0  0  0  0  0  0  0
   -2.7873    3.0077   -0.7852 C   0  0  0  0  0  0  0  0  0  0  0  0
   -3.6035    3.7532   -1.3236 O   0  0  0  0  0  0  0  0  0  0  0  0
   -2.6380    1.6845   -1.1412 N   0  0  0  0  0  0  0  0  0  0  0  0
   -3.4690    1.0497   -2.1442 C   0  0  0  0  0  0  0  0  0  0  0  0
   -4.8353    0.6100   -1.6059 C   0  0  0  0  0  0  0  0  0  0  0  0
   -4.7361   -0.4704   -0.5455 C   0  0  0  0  0  0  0  0  0  0  0  0
   -4.7035   -0.0787    0.8052 C   0  0  0  0  0  0  0  0  0  0  0  0
   -4.6040   -1.0231    1.8251 C   0  0  0  0  0  0  0  0  0  0  0  0
   -4.5299   -2.3749    1.5114 C   0  0  0  0  0  0  0  0  0  0  0  0
   -4.5600   -2.7815    0.1777 C   0  0  0  0  0  0  0  0  0  0  0  0
   -4.6605   -1.8427   -0.8632 C   0  0  0  0  0  0  0  0  0  0  0  0
   -4.7258   -2.3397   -2.2817 C   0  0  0  0  0  0  0  0  0  0  0  0
   -1.1797    1.4507    1.5514 N   0  0  0  0  0  0  0  0  0  0  0  0
   -0.2858    0.5535    1.8661 C   0  0  0  0  0  0  0  0  0  0  0  0
   -0.6904   -0.5710    2.7757 C   0  0  0  0  0  0  0  0  0  0  0  0
    1.0485    0.6667    1.3303 C   0  0  0  0  0  0  0  0  0  0  0  0
    2.2198   -0.0541    1.4969 C   0  0  0  0  0  0  0  0  0  0  0  0
    2.5328   -1.1601    2.4386 C   0  0  0  0  0  0  0  0  0  0  0  0
    4.8587   -1.2479    0.3427 C   0  0  0  0  0  0  0  0  0  0  0  0
    6.1337   -1.6358   -0.0887 C   0  0  0  0  0  0  0  0  0  0  0  0
    8.7500   -1.9559   -0.5596 H   0  0  0  0  0  0  0  0  0  0  0  0
    8.2813   -1.4809   -2.2107 H   0  0  0  0  0  0  0  0  0  0  0  0
    9.0672   -0.3139   -1.1183 H   0  0  0  0  0  0  0  0  0  0  0  0
    7.2038    1.3319   -1.3570 H   0  0  0  0  0  0  0  0  0  0  0  0
    4.9842    2.0237   -0.6061 H   0  0  0  0  0  0  0  0  0  0  0  0
   -2.5974    3.5338    1.2866 H   0  0  0  0  0  0  0  0  0  0  0  0
   -1.5350    4.4485    0.1862 H   0  0  0  0  0  0  0  0  0  0  0  0
   -2.1678    1.0927   -0.4612 H   0  0  0  0  0  0  0  0  0  0  0  0
   -3.6163    1.7568   -2.9682 H   0  0  0  0  0  0  0  0  0  0  0  0
   -2.9003    0.1979   -2.5296 H   0  0  0  0  0  0  0  0  0  0  0  0
   -5.4569    0.2530   -2.4352 H   0  0  0  0  0  0  0  0  0  0  0  0
   -5.3726    1.4736   -1.1931 H   0  0  0  0  0  0  0  0  0  0  0  0
   -4.7617    0.9760    1.0693 H   0  0  0  0  0  0  0  0  0  0  0  0
   -4.5893   -0.7009    2.8627 H   0  0  0  0  0  0  0  0  0  0  0  0
   -4.4594   -3.1153    2.3035 H   0  0  0  0  0  0  0  0  0  0  0  0
   -4.5139   -3.8454   -0.0461 H   0  0  0  0  0  0  0  0  0  0  0  0
   -3.9606   -1.8603   -2.8982 H   0  0  0  0  0  0  0  0  0  0  0  0
   -5.7151   -2.1411   -2.7054 H   0  0  0  0  0  0  0  0  0  0  0  0
   -4.5515   -3.4196   -2.3370 H   0  0  0  0  0  0  0  0  0  0  0  0
   -0.3914   -1.5309    2.3469 H   0  0  0  0  0  0  0  0  0  0  0  0
   -1.7743   -0.5745    2.9175 H   0  0  0  0  0  0  0  0  0  0  0  0
   -0.2177   -0.4385    3.7523 H   0  0  0  0  0  0  0  0  0  0  0  0
    2.3039   -2.1302    1.9880 H   0  0  0  0  0  0  0  0  0  0  0  0
    1.9455   -1.0704    3.3565 H   0  0  0  0  0  0  0  0  0  0  0  0
    3.5781   -1.1413    2.7603 H   0  0  0  0  0  0  0  0  0  0  0  0
    4.2175   -2.0230    0.7437 H   0  0  0  0  0  0  0  0  0  0  0  0
    6.4409   -2.6731    0.0296 H   0  0  0  0  0  0  0  0  0  0  0  0
  1  2  1  0
  2  3  2  0
  3  4  1  0
  4  5  2  0
  5  6  1  0
  6  7  1  0
  7  8  2  0
  8  9  1  0
  9 10  2  0
  9 11  1  0
 11 12  1  0
 12 13  1  0
 13 14  2  0
 13 15  1  0
 15 16  1  0
 16 17  1  0
 17 18  1  0
 18 19  2  0
 19 20  1  0
 20 21  2  0
 21 22  1  0
 22 23  2  0
 23 24  1  0
 11 25  1  0
 25 26  2  0
 26 27  1  0
 26 28  1  0
 28 29  2  0
 29 30  1  0
  5 31  1  0
 31 32  2  0
 32  2  1  0
 29  6  1  0
 28  8  1  0
 23 18  1  0
  1 33  1  0
  1 34  1  0
  1 35  1  0
  3 36  1  0
  4 37  1  0
 12 38  1  0
 12 39  1  0
 15 40  1  0
 16 41  1  0
 16 42  1  0
 17 43  1  0
 17 44  1  0
 19 45  1  0
 20 46  1  0
 21 47  1  0
 22 48  1  0
 24 49  1  0
 24 50  1  0
 24 51  1  0
 27 52  1  0
 27 53  1  0
 27 54  1  0
 30 55  1  0
 30 56  1  0
 30 57  1  0
 31 58  1  0
 32 59  1  0
M  END
$$$$
