
     RDKit          3D

 68 71  0  0  0  0  0  0  0  0999 V2000
    6.2742   -2.3758    4.5658 C   0  0  0  0  0  0  0  0  0  0  0  0
    6.0411   -1.5623    3.3611 C   0  0  0  0  0  0  0  0  0  0  0  0
    4.9328   -0.9949    2.7839 C   0  0  0  0  0  0  0  0  0  0  0  0
    5.4257   -0.3432    1.6323 C   0  0  0  0  0  0  0  0  0  0  0  0
    4.7512    0.3856    0.6787 N   0  0  0  0  0  0  0  0  0  0  0  0
    3.4048    0.6694    0.6999 C   0  0  0  0  0  0  0  0  0  0  0  0
    2.6129    0.3230    1.5709 O   0  0  0  0  0  0  0  0  0  0  0  0
    2.9871    1.5152   -0.4928 C   0  0  0  0  0  0  0  0  0  0  0  0
    1.4950    1.8379   -0.4621 C   0  0  0  0  0  0  0  0  0  0  0  0
    0.6496    0.6070   -0.7583 C   0  0  0  0  0  0  0  0  0  0  0  0
    1.1151   -0.3247   -1.4176 O   0  0  0  0  0  0  0  0  0  0  0  0
   -0.6692    0.6033   -0.3272 N   0  0  0  0  0  0  0  0  0  0  0  0
   -1.3820    1.8317    0.0292 C   0  0  0  0  0  0  0  0  0  0  0  0
   -1.3957    2.1017    1.4898 C   0  0  0  0  0  0  0  0  0  0  0  0
   -0.6919    1.6311    2.5812 C   0  0  0  0  0  0  0  0  0  0  0  0
   -1.1866    2.3233    3.7115 C   0  0  0  0  0  0  0  0  0  0  0  0
   -2.1498    3.1828    3.2414 C   0  0  0  0  0  0  0  0  0  0  0  0
   -2.2807    3.0610    1.8958 O   0  0  0  0  0  0  0  0  0  0  0  0
   -1.4562   -0.6592   -0.4537 C   0  0  0  0  0  0  0  0  0  0  0  0
   -2.3896   -0.6930   -1.6946 C   0  0  0  0  0  0  0  0  0  0  0  0
   -3.3963   -1.3891   -1.7928 O   0  0  0  0  0  0  0  0  0  0  0  0
   -1.9053    0.0411   -2.7718 N   0  0  0  0  0  0  0  0  0  0  0  0
   -2.5476   -0.0179   -4.0749 C   0  0  0  0  0  0  0  0  0  0  0  0
   -2.1600   -1.2717   -4.8552 C   0  0  0  0  0  0  0  0  0  0  0  0
   -0.7918   -0.9447   -5.4467 C   0  0  0  0  0  0  0  0  0  0  0  0
   -0.7383    0.5788   -5.5720 C   0  0  0  0  0  0  0  0  0  0  0  0
   -2.0481    1.1024   -4.9819 C   0  0  0  0  0  0  0  0  0  0  0  0
   -2.0052   -1.1451    0.8917 C   0  0  0  0  0  0  0  0  0  0  0  0
   -1.0768   -1.8487    1.7017 C   0  0  0  0  0  0  0  0  0  0  0  0
   -1.4143   -2.3391    2.9617 C   0  0  0  0  0  0  0  0  0  0  0  0
   -2.6931   -2.1371    3.4528 C   0  0  0  0  0  0  0  0  0  0  0  0
   -3.6226   -1.4374    2.6870 C   0  0  0  0  0  0  0  0  0  0  0  0
   -3.2967   -0.9181    1.4147 C   0  0  0  0  0  0  0  0  0  0  0  0
   -4.4066   -0.2007    0.6972 C   0  0  0  0  0  0  0  0  0  0  0  0
    6.7507   -0.4975    1.5259 N   0  0  0  0  0  0  0  0  0  0  0  0
    7.1333   -1.2671    2.6083 O   0  0  0  0  0  0  0  0  0  0  0  0
    6.8171   -1.7959    5.3186 H   0  0  0  0  0  0  0  0  0  0  0  0
    6.8628   -3.2668    4.3237 H   0  0  0  0  0  0  0  0  0  0  0  0
    5.3282   -2.7053    5.0067 H   0  0  0  0  0  0  0  0  0  0  0  0
    3.9162   -1.0508    3.1433 H   0  0  0  0  0  0  0  0  0  0  0  0
    5.3443    0.7366   -0.0612 H   0  0  0  0  0  0  0  0  0  0  0  0
    3.2655    0.9924   -1.4147 H   0  0  0  0  0  0  0  0  0  0  0  0
    3.5535    2.4532   -0.4505 H   0  0  0  0  0  0  0  0  0  0  0  0
    1.2735    2.5825   -1.2337 H   0  0  0  0  0  0  0  0  0  0  0  0
    1.2378    2.2616    0.5109 H   0  0  0  0  0  0  0  0  0  0  0  0
   -0.9102    2.6811   -0.4761 H   0  0  0  0  0  0  0  0  0  0  0  0
   -2.3974    1.7867   -0.3696 H   0  0  0  0  0  0  0  0  0  0  0  0
    0.0774    0.8704    2.5655 H   0  0  0  0  0  0  0  0  0  0  0  0
   -0.8784    2.2068    4.7412 H   0  0  0  0  0  0  0  0  0  0  0  0
   -2.8040    3.9043    3.7112 H   0  0  0  0  0  0  0  0  0  0  0  0
   -0.7444   -1.4494   -0.7400 H   0  0  0  0  0  0  0  0  0  0  0  0
   -0.9059    0.2128   -2.7497 H   0  0  0  0  0  0  0  0  0  0  0  0
   -3.6308    0.0394   -3.9257 H   0  0  0  0  0  0  0  0  0  0  0  0
   -2.8752   -1.4336   -5.6706 H   0  0  0  0  0  0  0  0  0  0  0  0
   -2.1351   -2.1796   -4.2454 H   0  0  0  0  0  0  0  0  0  0  0  0
    0.0032   -1.2888   -4.7752 H   0  0  0  0  0  0  0  0  0  0  0  0
   -0.6426   -1.4400   -6.4113 H   0  0  0  0  0  0  0  0  0  0  0  0
   -0.6149    0.8981   -6.6117 H   0  0  0  0  0  0  0  0  0  0  0  0
    0.1171    0.9662   -5.0069 H   0  0  0  0  0  0  0  0  0  0  0  0
   -1.9077    2.0532   -4.4568 H   0  0  0  0  0  0  0  0  0  0  0  0
   -2.7701    1.2694   -5.7923 H   0  0  0  0  0  0  0  0  0  0  0  0
   -0.0590   -2.0100    1.3458 H   0  0  0  0  0  0  0  0  0  0  0  0
   -0.6776   -2.8750    3.5528 H   0  0  0  0  0  0  0  0  0  0  0  0
   -2.9701   -2.5200    4.4308 H   0  0  0  0  0  0  0  0  0  0  0  0
   -4.6235   -1.2924    3.0904 H   0  0  0  0  0  0  0  0  0  0  0  0
   -4.0459    0.5259   -0.0280 H   0  0  0  0  0  0  0  0  0  0  0  0
   -5.0519   -0.9233    0.1884 H   0  0  0  0  0  0  0  0  0  0  0  0
   -5.0209    0.3626    1.4090 H   0  0  0  0  0  0  0  0  0  0  0  0
  1  2  1  0
  2  3  2  0
  3  4  1  0
  4  5  1  0
  5  6  1  0
  6  7  2  0
  6  8  1  0
  8  9  1  0
  9 10  1  0
 10 11  2  0
 10 12  1  0
 12 13  1  0
 13 14  1  0
 14 15  2  0
 15 16  1  0
 16 17  2  0
 17 18  1  0
 12 19  1  0
 19 20  1  0
 20 21  2  0
 20 22  1  0
 22 23  1  0
 23 24  1  0
 24 25  1  0
 25 26  1  0
 26 27  1  0
 19 28  1  0
 28 29  2  0
 29 30  1  0
 30 31  2  0
 31 32  1  0
 32 33  2  0
 33 34  1  0
  4 35  2  0
 35 36  1  0
 36  2  1  0
 18 14  1  0
 27 23  1  0
 33 28  1  0
  1 37  1  0
  1 38  1  0
  1 39  1  0
  3 40  1  0
  5 41  1  0
  8 42  1  0
  8 43  1  0
  9 44  1  0
  9 45  1  0
 13 46  1  0
 13 47  1  0
 15 48  1  0
 16 49  1  0
 17 50  1  0
 19 51  1  0
 22 52  1  0
 23 53  1  0
 24 54  1  0
 24 55  1  0
 25 56  1  0
 25 57  1  0
 26 58  1  0
 26 59  1  0
 27 60  1  0
 27 61  1  0
 29 62  1  0
 30 63  1  0
 31 64  1  0
 32 65  1  0
 34 66  1  0
 34 67  1  0
 34 68  1  0
M  END
$$$$
