
     RDKit          3D

 28 29  0  0  0  0  0  0  0  0999 V2000
    5.9760    1.3541   -0.7120 O   0  0  0  0  0  0  0  0  0  0  0  0
    5.5719    0.2038   -0.4929 N   0  0  0  0  0  4  0  0  0  0  0  0
    6.3050   -0.7856   -0.3564 O   0  0  0  0  0  1  0  0  0  0  0  0
    4.1358   -0.0008   -0.3843 C   0  0  0  0  0  0  0  0  0  0  0  0
    3.6029   -1.2634   -0.1397 C   0  0  0  0  0  0  0  0  0  0  0  0
    2.2163   -1.3940   -0.0486 C   0  0  0  0  0  0  0  0  0  0  0  0
    1.3997   -0.2707   -0.1916 C   0  0  0  0  0  0  0  0  0  0  0  0
    0.0135   -0.4532   -0.1348 N   0  0  0  0  0  0  0  0  0  0  0  0
   -0.7685    0.7735   -0.2285 C   0  0  0  0  0  0  0  0  0  0  0  0
   -2.2324    0.4329   -0.0591 C   0  0  0  0  0  0  0  0  0  0  0  0
   -2.9211    0.7848    1.1106 C   0  0  0  0  0  0  0  0  0  0  0  0
   -4.2699    0.4575    1.2628 C   0  0  0  0  0  0  0  0  0  0  0  0
   -4.9414   -0.2275    0.2515 C   0  0  0  0  0  0  0  0  0  0  0  0
   -4.2659   -0.5885   -0.9127 C   0  0  0  0  0  0  0  0  0  0  0  0
   -2.9180   -0.2618   -1.0671 C   0  0  0  0  0  0  0  0  0  0  0  0
    1.9210    0.9501   -0.4395 N   0  0  0  0  0  0  0  0  0  0  0  0
    3.2708    1.0692   -0.5286 C   0  0  0  0  0  0  0  0  0  0  0  0
    4.2349   -2.1406   -0.0283 H   0  0  0  0  0  0  0  0  0  0  0  0
    1.7742   -2.3718    0.1195 H   0  0  0  0  0  0  0  0  0  0  0  0
   -0.2392   -0.9886    0.6902 H   0  0  0  0  0  0  0  0  0  0  0  0
   -0.6312    1.2570   -1.2042 H   0  0  0  0  0  0  0  0  0  0  0  0
   -0.4690    1.4907    0.5468 H   0  0  0  0  0  0  0  0  0  0  0  0
   -2.4124    1.3184    1.9104 H   0  0  0  0  0  0  0  0  0  0  0  0
   -4.7976    0.7372    2.1710 H   0  0  0  0  0  0  0  0  0  0  0  0
   -5.9913   -0.4816    0.3711 H   0  0  0  0  0  0  0  0  0  0  0  0
   -4.7872   -1.1262   -1.7003 H   0  0  0  0  0  0  0  0  0  0  0  0
   -2.3949   -0.5550   -1.9754 H   0  0  0  0  0  0  0  0  0  0  0  0
    3.6184    2.0801   -0.7264 H   0  0  0  0  0  0  0  0  0  0  0  0
  1  2  2  0
  2  3  1  0
  2  4  1  0
  4  5  2  0
  5  6  1  0
  6  7  2  0
  7  8  1  0
  8  9  1  0
  9 10  1  0
 10 11  2  0
 11 12  1  0
 12 13  2  0
 13 14  1  0
 14 15  2  0
  7 16  1  0
 16 17  2  0
 17  4  1  0
 15 10  1  0
  5 18  1  0
  6 19  1  0
  8 20  1  0
  9 21  1  0
  9 22  1  0
 11 23  1  0
 12 24  1  0
 13 25  1  0
 14 26  1  0
 15 27  1  0
 17 28  1  0
M  CHG  2   2   1   3  -1
M  END
$$$$
