
     RDKit          3D

 26 27  0  0  0  0  0  0  0  0999 V2000
   -1.1858    2.0480   -1.3218 O   0  0  0  0  0  0  0  0  0  0  0  0
   -1.3868    0.9721   -0.7607 C   0  0  0  0  0  0  0  0  0  0  0  0
   -0.2397    0.1348   -0.1786 C   0  0  0  0  0  0  0  0  0  0  0  0
    1.0229    0.7536   -0.3735 O   0  0  0  0  0  0  0  0  0  0  0  0
    2.1379    0.1122    0.0988 C   0  0  0  0  0  0  0  0  0  0  0  0
    2.1248   -1.1190    0.7651 C   0  0  0  0  0  0  0  0  0  0  0  0
    3.3181   -1.6976    1.2120 C   0  0  0  0  0  0  0  0  0  0  0  0
    4.5351   -1.0547    0.9992 C   0  0  0  0  0  0  0  0  0  0  0  0
    4.5627    0.1708    0.3377 C   0  0  0  0  0  0  0  0  0  0  0  0
    3.3720    0.7511   -0.1100 C   0  0  0  0  0  0  0  0  0  0  0  0
    3.4743    2.2735   -0.9242 Cl  0  0  0  0  0  0  0  0  0  0  0  0
   -2.7336    0.4261   -0.6148 C   0  0  0  0  0  0  0  0  0  0  0  0
   -3.9184    0.9966   -1.0567 C   0  0  0  0  0  0  0  0  0  0  0  0
   -4.9855    0.1373   -0.7096 C   0  0  0  0  0  0  0  0  0  0  0  0
   -4.4378   -0.9437   -0.0619 C   0  0  0  0  0  0  0  0  0  0  0  0
   -3.0802   -0.7634   -0.0081 N   0  0  0  0  0  0  0  0  0  0  0  0
   -0.4310    0.0209    0.8952 H   0  0  0  0  0  0  0  0  0  0  0  0
   -0.2546   -0.8371   -0.6863 H   0  0  0  0  0  0  0  0  0  0  0  0
    1.2051   -1.6607    0.9562 H   0  0  0  0  0  0  0  0  0  0  0  0
    3.2969   -2.6547    1.7287 H   0  0  0  0  0  0  0  0  0  0  0  0
    5.4609   -1.5062    1.3474 H   0  0  0  0  0  0  0  0  0  0  0  0
    5.5129    0.6720    0.1719 H   0  0  0  0  0  0  0  0  0  0  0  0
   -3.9922    1.9440   -1.5790 H   0  0  0  0  0  0  0  0  0  0  0  0
   -6.0378    0.2929   -0.9116 H   0  0  0  0  0  0  0  0  0  0  0  0
   -4.8983   -1.8252    0.3649 H   0  0  0  0  0  0  0  0  0  0  0  0
   -2.4418   -1.4205    0.4197 H   0  0  0  0  0  0  0  0  0  0  0  0
  1  2  2  0
  2  3  1  0
  3  4  1  0
  4  5  1  0
  5  6  2  0
  6  7  1  0
  7  8  2  0
  8  9  1  0
  9 10  2  0
 10 11  1  0
  2 12  1  0
 12 13  2  0
 13 14  1  0
 14 15  2  0
 15 16  1  0
 10  5  1  0
 16 12  1  0
  3 17  1  0
  3 18  1  0
  6 19  1  0
  7 20  1  0
  8 21  1  0
  9 22  1  0
 13 23  1  0
 14 24  1  0
 15 25  1  0
 16 26  1  0
M  END
$$$$
