
     RDKit          3D

 57 60  0  0  0  0  0  0  0  0999 V2000
    5.4489    2.5076   -1.7530 C   0  0  0  0  0  0  0  0  0  0  0  0
    4.3984    1.5840   -1.2312 C   0  0  0  0  0  0  0  0  0  0  0  0
    3.0914    1.4805   -1.6622 C   0  0  0  0  0  0  0  0  0  0  0  0
    2.4836    0.4295   -0.9495 C   0  0  0  0  0  0  0  0  0  0  0  0
    1.1248    0.0300   -1.1065 C   0  0  0  0  0  0  0  0  0  0  0  0
    0.2374   -0.0179   -0.0991 C   0  0  0  0  0  0  0  0  0  0  0  0
   -1.1692   -0.3712   -0.2975 C   0  0  0  0  0  0  0  0  0  0  0  0
   -1.4821   -1.6870   -0.6425 C   0  0  0  0  0  0  0  0  0  0  0  0
   -2.8037   -2.0675   -0.7907 C   0  0  0  0  0  0  0  0  0  0  0  0
   -3.8158   -1.1346   -0.5808 C   0  0  0  0  0  0  0  0  0  0  0  0
   -5.1676   -1.5132   -0.7161 C   0  0  0  0  0  0  0  0  0  0  0  0
   -6.2362   -0.6248   -0.5084 C   0  0  0  0  0  0  0  0  0  0  0  0
   -7.5640   -1.0096   -0.6704 N   0  0  0  0  0  0  0  0  0  0  0  0
   -8.6476   -0.1202   -0.2459 C   0  0  0  0  0  0  0  0  0  0  0  0
   -7.9139   -2.4296   -0.7553 C   0  0  0  0  0  0  0  0  0  0  0  0
   -5.8766    0.6856   -0.1667 C   0  0  0  0  0  0  0  0  0  0  0  0
   -4.5388    1.0894   -0.0256 C   0  0  0  0  0  0  0  0  0  0  0  0
   -3.4799    0.1937   -0.2318 C   0  0  0  0  0  0  0  0  0  0  0  0
   -2.1584    0.5501   -0.1104 N   0  0  0  0  0  4  0  0  0  0  0  0
   -1.8176    1.9610    0.1988 C   0  0  0  0  0  0  0  0  0  0  0  0
    3.4328   -0.1274   -0.1069 C   0  0  0  0  0  0  0  0  0  0  0  0
    3.3017   -1.2536    0.8691 C   0  0  0  0  0  0  0  0  0  0  0  0
    4.6219    0.5948   -0.2756 N   0  0  0  0  0  0  0  0  0  0  0  0
    5.8508    0.3634    0.4072 C   0  0  0  0  0  0  0  0  0  0  0  0
    6.3806   -0.9307    0.4871 C   0  0  0  0  0  0  0  0  0  0  0  0
    7.5871   -1.1499    1.1562 C   0  0  0  0  0  0  0  0  0  0  0  0
    8.2630   -0.0833    1.7478 C   0  0  0  0  0  0  0  0  0  0  0  0
    7.7384    1.2066    1.6678 C   0  0  0  0  0  0  0  0  0  0  0  0
    6.5352    1.4342    0.9960 C   0  0  0  0  0  0  0  0  0  0  0  0
    6.4034    1.9927   -1.9001 H   0  0  0  0  0  0  0  0  0  0  0  0
    5.5939    3.3535   -1.0753 H   0  0  0  0  0  0  0  0  0  0  0  0
    5.1503    2.9162   -2.7247 H   0  0  0  0  0  0  0  0  0  0  0  0
    2.6405    2.1071   -2.4228 H   0  0  0  0  0  0  0  0  0  0  0  0
    0.8077   -0.1757   -2.1284 H   0  0  0  0  0  0  0  0  0  0  0  0
    0.5353    0.2322    0.9165 H   0  0  0  0  0  0  0  0  0  0  0  0
   -0.6946   -2.4266   -0.7880 H   0  0  0  0  0  0  0  0  0  0  0  0
   -3.0347   -3.0989   -1.0589 H   0  0  0  0  0  0  0  0  0  0  0  0
   -5.3779   -2.5430   -0.9997 H   0  0  0  0  0  0  0  0  0  0  0  0
   -8.6081    0.8341   -0.7842 H   0  0  0  0  0  0  0  0  0  0  0  0
   -9.6307   -0.5499   -0.4675 H   0  0  0  0  0  0  0  0  0  0  0  0
   -8.6010    0.0623    0.8336 H   0  0  0  0  0  0  0  0  0  0  0  0
   -8.9940   -2.5730   -0.8697 H   0  0  0  0  0  0  0  0  0  0  0  0
   -7.4525   -2.8968   -1.6320 H   0  0  0  0  0  0  0  0  0  0  0  0
   -7.6057   -2.9623    0.1508 H   0  0  0  0  0  0  0  0  0  0  0  0
   -6.6397    1.4433    0.0006 H   0  0  0  0  0  0  0  0  0  0  0  0
   -4.3795    2.1286    0.2500 H   0  0  0  0  0  0  0  0  0  0  0  0
   -0.7440    2.1510    0.1584 H   0  0  0  0  0  0  0  0  0  0  0  0
   -2.2956    2.5980   -0.5543 H   0  0  0  0  0  0  0  0  0  0  0  0
   -2.1837    2.1795    1.2080 H   0  0  0  0  0  0  0  0  0  0  0  0
    3.8191   -1.0335    1.8084 H   0  0  0  0  0  0  0  0  0  0  0  0
    3.7024   -2.1790    0.4443 H   0  0  0  0  0  0  0  0  0  0  0  0
    2.2583   -1.4480    1.1312 H   0  0  0  0  0  0  0  0  0  0  0  0
    5.8978   -1.7713   -0.0038 H   0  0  0  0  0  0  0  0  0  0  0  0
    8.0079   -2.1521    1.2069 H   0  0  0  0  0  0  0  0  0  0  0  0
    9.2027   -0.2563    2.2681 H   0  0  0  0  0  0  0  0  0  0  0  0
    8.2663    2.0352    2.1341 H   0  0  0  0  0  0  0  0  0  0  0  0
    6.1313    2.4428    0.9773 H   0  0  0  0  0  0  0  0  0  0  0  0
  1  2  1  0
  2  3  2  0
  3  4  1  0
  4  5  1  0
  5  6  2  3
  6  7  1  0
  7  8  2  0
  8  9  1  0
  9 10  2  0
 10 11  1  0
 11 12  2  0
 12 13  1  0
 13 14  1  0
 13 15  1  0
 12 16  1  0
 16 17  2  0
 17 18  1  0
 18 19  2  0
 19 20  1  0
  4 21  2  0
 21 22  1  0
 21 23  1  0
 23 24  1  0
 24 25  2  0
 25 26  1  0
 26 27  2  0
 27 28  1  0
 28 29  2  0
 23  2  1  0
 29 24  1  0
 19  7  1  0
 18 10  1  0
  1 30  1  0
  1 31  1  0
  1 32  1  0
  3 33  1  0
  5 34  1  0
  6 35  1  0
  8 36  1  0
  9 37  1  0
 11 38  1  0
 14 39  1  0
 14 40  1  0
 14 41  1  0
 15 42  1  0
 15 43  1  0
 15 44  1  0
 16 45  1  0
 17 46  1  0
 20 47  1  0
 20 48  1  0
 20 49  1  0
 22 50  1  0
 22 51  1  0
 22 52  1  0
 25 53  1  0
 26 54  1  0
 27 55  1  0
 28 56  1  0
 29 57  1  0
M  CHG  1  19   1
M  END
$$$$
