
     RDKit          3D

 58 62  0  0  0  0  0  0  0  0999 V2000
    8.9797   -0.6173    1.9423 C   0  0  0  0  0  0  0  0  0  0  0  0
    8.1735   -0.6316    0.7707 O   0  0  0  0  0  0  0  0  0  0  0  0
    6.8285   -0.4540    0.9438 C   0  0  0  0  0  0  0  0  0  0  0  0
    6.1829   -0.2215    2.1596 C   0  0  0  0  0  0  0  0  0  0  0  0
    4.7926   -0.0579    2.1985 C   0  0  0  0  0  0  0  0  0  0  0  0
    4.0296   -0.1239    1.0322 C   0  0  0  0  0  0  0  0  0  0  0  0
    2.6386    0.0571    1.1313 N   0  0  0  0  0  0  0  0  0  0  0  0
    1.8747    0.0190    0.0655 C   0  0  0  0  0  0  0  0  0  0  0  0
    0.5114    0.2454    0.2330 N   0  0  0  0  0  0  0  0  0  0  0  0
   -0.2738    1.0071   -0.7492 C   0  0  0  0  0  0  0  0  0  0  0  0
   -1.2657    1.9860   -0.0799 C   0  0  0  0  0  0  0  0  0  0  0  0
   -2.1685    1.3893    0.9168 N   0  0  0  0  0  0  0  0  0  0  0  0
   -3.5604    1.2323    0.4843 C   0  0  0  0  0  0  0  0  0  0  0  0
   -3.8008    0.3878   -0.7824 C   0  0  0  0  0  0  0  0  0  0  0  0
   -5.2804    0.2204   -1.0719 C   0  0  0  0  0  0  0  0  0  0  0  0
   -5.9452    1.2536   -1.7572 C   0  0  0  0  0  0  0  0  0  0  0  0
   -7.3082    1.1678   -2.0362 C   0  0  0  0  0  0  0  0  0  0  0  0
   -8.0302    0.0504   -1.6340 C   0  0  0  0  0  0  0  0  0  0  0  0
   -7.3889   -0.9828   -0.9517 C   0  0  0  0  0  0  0  0  0  0  0  0
   -6.0132   -0.9159   -0.6561 C   0  0  0  0  0  0  0  0  0  0  0  0
   -5.3642   -2.0718    0.0758 C   0  0  0  0  0  0  0  0  0  0  0  0
   -4.6568   -1.6774    1.1720 F   0  0  0  0  0  0  0  0  0  0  0  0
   -4.4874   -2.7586   -0.7089 F   0  0  0  0  0  0  0  0  0  0  0  0
   -6.2538   -2.9993    0.5313 F   0  0  0  0  0  0  0  0  0  0  0  0
   -1.6062    0.1708    1.5274 C   0  0  0  0  0  0  0  0  0  0  0  0
   -0.0656    0.1863    1.5893 C   0  0  0  0  0  0  0  0  0  0  0  0
    2.5008   -0.2704   -1.2197 C   0  0  0  0  0  0  0  0  0  0  0  0
    1.9767   -0.4965   -2.4814 C   0  0  0  0  0  0  0  0  0  0  0  0
    3.0550   -0.7256   -3.3672 C   0  0  0  0  0  0  0  0  0  0  0  0
    4.2118   -0.6669   -2.6228 C   0  0  0  0  0  0  0  0  0  0  0  0
    3.8684   -0.4267   -1.3135 N   0  0  0  0  0  0  0  0  0  0  0  0
    4.6903   -0.3550   -0.1780 C   0  0  0  0  0  0  0  0  0  0  0  0
    6.0773   -0.5198   -0.2330 C   0  0  0  0  0  0  0  0  0  0  0  0
    8.9383    0.3584    2.4373 H   0  0  0  0  0  0  0  0  0  0  0  0
    8.6954   -1.4217    2.6287 H   0  0  0  0  0  0  0  0  0  0  0  0
   10.0154   -0.7911    1.6366 H   0  0  0  0  0  0  0  0  0  0  0  0
    6.7264   -0.1595    3.0963 H   0  0  0  0  0  0  0  0  0  0  0  0
    4.2954    0.1247    3.1477 H   0  0  0  0  0  0  0  0  0  0  0  0
    0.3835    1.5982   -1.3969 H   0  0  0  0  0  0  0  0  0  0  0  0
   -0.8261    0.3026   -1.3806 H   0  0  0  0  0  0  0  0  0  0  0  0
   -1.8226    2.5339   -0.8497 H   0  0  0  0  0  0  0  0  0  0  0  0
   -0.6760    2.7489    0.4458 H   0  0  0  0  0  0  0  0  0  0  0  0
   -4.1426    0.8228    1.3203 H   0  0  0  0  0  0  0  0  0  0  0  0
   -3.9763    2.2359    0.3235 H   0  0  0  0  0  0  0  0  0  0  0  0
   -3.3319    0.8654   -1.6519 H   0  0  0  0  0  0  0  0  0  0  0  0
   -3.3231   -0.5927   -0.7041 H   0  0  0  0  0  0  0  0  0  0  0  0
   -5.3996    2.1394   -2.0789 H   0  0  0  0  0  0  0  0  0  0  0  0
   -7.8063    1.9750   -2.5675 H   0  0  0  0  0  0  0  0  0  0  0  0
   -9.0937   -0.0176   -1.8512 H   0  0  0  0  0  0  0  0  0  0  0  0
   -7.9738   -1.8506   -0.6470 H   0  0  0  0  0  0  0  0  0  0  0  0
   -1.9081   -0.7244    0.9710 H   0  0  0  0  0  0  0  0  0  0  0  0
   -2.0043    0.0695    2.5435 H   0  0  0  0  0  0  0  0  0  0  0  0
    0.2680   -0.7290    2.0930 H   0  0  0  0  0  0  0  0  0  0  0  0
    0.2796    1.0425    2.1825 H   0  0  0  0  0  0  0  0  0  0  0  0
    0.9291   -0.5030   -2.7460 H   0  0  0  0  0  0  0  0  0  0  0  0
    2.9957   -0.9257   -4.4293 H   0  0  0  0  0  0  0  0  0  0  0  0
    5.2399   -0.7991   -2.9276 H   0  0  0  0  0  0  0  0  0  0  0  0
    6.5952   -0.7033   -1.1686 H   0  0  0  0  0  0  0  0  0  0  0  0
  1  2  1  0
  2  3  1  0
  3  4  2  0
  4  5  1  0
  5  6  2  0
  6  7  1  0
  7  8  2  0
  8  9  1  0
  9 10  1  0
 10 11  1  0
 11 12  1  0
 12 13  1  0
 13 14  1  0
 14 15  1  0
 15 16  2  0
 16 17  1  0
 17 18  2  0
 18 19  1  0
 19 20  2  0
 20 21  1  0
 21 22  1  0
 21 23  1  0
 21 24  1  0
 12 25  1  0
 25 26  1  0
  8 27  1  0
 27 28  2  0
 28 29  1  0
 29 30  2  0
 30 31  1  0
 31 32  1  0
 32 33  2  0
 33  3  1  0
 32  6  1  0
 26  9  1  0
 31 27  1  0
 20 15  1  0
  1 34  1  0
  1 35  1  0
  1 36  1  0
  4 37  1  0
  5 38  1  0
 10 39  1  0
 10 40  1  0
 11 41  1  0
 11 42  1  0
 13 43  1  0
 13 44  1  0
 14 45  1  0
 14 46  1  0
 16 47  1  0
 17 48  1  0
 18 49  1  0
 19 50  1  0
 25 51  1  0
 25 52  1  0
 26 53  1  0
 26 54  1  0
 28 55  1  0
 29 56  1  0
 30 57  1  0
 33 58  1  0
M  END
$$$$
