
     RDKit          3D

 38 39  0  0  0  0  0  0  0  0999 V2000
   -4.5960    3.0436    1.1041 C   0  0  0  0  0  0  0  0  0  0  0  0
   -3.3660    2.5130    1.0947 C   0  0  0  0  0  0  0  0  0  0  0  0
   -2.9101    1.4118    2.0095 C   0  0  0  0  0  0  0  0  0  0  0  0
   -2.4558    0.1881    1.2493 C   0  0  0  0  0  0  0  0  0  0  0  0
   -3.3888   -0.7530    0.7984 C   0  0  0  0  0  0  0  0  0  0  0  0
   -2.9691   -1.8735    0.0838 C   0  0  0  0  0  0  0  0  0  0  0  0
   -1.6161   -2.0579   -0.1930 C   0  0  0  0  0  0  0  0  0  0  0  0
   -1.2997   -3.1878   -0.8983 O   0  0  0  0  0  0  0  0  0  0  0  0
   -0.6500   -1.1338    0.2383 C   0  0  0  0  0  0  0  0  0  0  0  0
    0.7893   -1.3002   -0.0258 C   0  0  0  0  0  0  0  0  0  0  0  0
    1.4449   -0.3950   -0.8812 C   0  0  0  0  0  0  0  0  0  0  0  0
    2.8144   -0.5152   -1.1734 C   0  0  0  0  0  0  0  0  0  0  0  0
    3.4901    0.4844   -2.0823 C   0  0  0  0  0  0  0  0  0  0  0  0
    3.8170    1.7676   -1.3723 C   0  0  0  0  0  0  0  0  0  0  0  0
    3.3475    2.9705   -1.7289 C   0  0  0  0  0  0  0  0  0  0  0  0
    3.5431   -1.5575   -0.5897 C   0  0  0  0  0  0  0  0  0  0  0  0
    2.9129   -2.4659    0.2593 C   0  0  0  0  0  0  0  0  0  0  0  0
    1.5538   -2.3351    0.5377 C   0  0  0  0  0  0  0  0  0  0  0  0
    1.0246   -3.2747    1.3810 O   0  0  0  0  0  0  0  0  0  0  0  0
   -1.0955   -0.0089    0.9583 C   0  0  0  0  0  0  0  0  0  0  0  0
   -4.8614    3.8398    0.4151 H   0  0  0  0  0  0  0  0  0  0  0  0
   -5.3632    2.6982    1.7900 H   0  0  0  0  0  0  0  0  0  0  0  0
   -2.6332    2.8965    0.3874 H   0  0  0  0  0  0  0  0  0  0  0  0
   -2.0873    1.7871    2.6308 H   0  0  0  0  0  0  0  0  0  0  0  0
   -3.7035    1.1233    2.7110 H   0  0  0  0  0  0  0  0  0  0  0  0
   -4.4493   -0.6144    0.9976 H   0  0  0  0  0  0  0  0  0  0  0  0
   -3.6973   -2.6012   -0.2647 H   0  0  0  0  0  0  0  0  0  0  0  0
   -0.3508   -3.1757   -1.1151 H   0  0  0  0  0  0  0  0  0  0  0  0
    0.8788    0.4200   -1.3323 H   0  0  0  0  0  0  0  0  0  0  0  0
    4.4188    0.0563   -2.4799 H   0  0  0  0  0  0  0  0  0  0  0  0
    2.8478    0.6637   -2.9541 H   0  0  0  0  0  0  0  0  0  0  0  0
    4.4862    1.6959   -0.5169 H   0  0  0  0  0  0  0  0  0  0  0  0
    2.6795    3.0964   -2.5753 H   0  0  0  0  0  0  0  0  0  0  0  0
    3.6253    3.8609   -1.1728 H   0  0  0  0  0  0  0  0  0  0  0  0
    4.6064   -1.6685   -0.7899 H   0  0  0  0  0  0  0  0  0  0  0  0
    3.4820   -3.2745    0.7107 H   0  0  0  0  0  0  0  0  0  0  0  0
    0.0976   -3.0482    1.5732 H   0  0  0  0  0  0  0  0  0  0  0  0
   -0.3669    0.7243    1.3041 H   0  0  0  0  0  0  0  0  0  0  0  0
  1  2  2  0
  2  3  1  0
  3  4  1  0
  4  5  2  0
  5  6  1  0
  6  7  2  0
  7  8  1  0
  7  9  1  0
  9 10  1  0
 10 11  2  0
 11 12  1  0
 12 13  1  0
 13 14  1  0
 14 15  2  0
 12 16  2  0
 16 17  1  0
 17 18  2  0
 18 19  1  0
  9 20  2  0
 20  4  1  0
 18 10  1  0
  1 21  1  0
  1 22  1  0
  2 23  1  0
  3 24  1  0
  3 25  1  0
  5 26  1  0
  6 27  1  0
  8 28  1  0
 11 29  1  0
 13 30  1  0
 13 31  1  0
 14 32  1  0
 15 33  1  0
 15 34  1  0
 16 35  1  0
 17 36  1  0
 19 37  1  0
 20 38  1  0
M  END
$$$$
