
     RDKit          3D

 37 39  0  0  0  0  0  0  0  0999 V2000
   -5.6149    0.2608   -0.7636 C   0  0  0  0  0  0  0  0  0  0  0  0
   -4.8175    0.3804    0.5022 C   0  0  0  0  0  0  0  0  0  0  0  0
   -5.2052   -0.3257    1.6498 C   0  0  0  0  0  0  0  0  0  0  0  0
   -4.4834   -0.2012    2.8388 C   0  0  0  0  0  0  0  0  0  0  0  0
   -3.3712    0.6362    2.8973 C   0  0  0  0  0  0  0  0  0  0  0  0
   -2.9689    1.3374    1.7623 C   0  0  0  0  0  0  0  0  0  0  0  0
   -3.6724    1.1864    0.5671 C   0  0  0  0  0  0  0  0  0  0  0  0
   -3.2678    1.8901   -0.5376 O   0  0  0  0  0  0  0  0  0  0  0  0
   -2.2555    1.1817   -1.2446 C   0  0  0  0  0  0  0  0  0  0  0  0
   -0.8114    1.4478   -0.7887 C   0  0  0  0  0  0  0  0  0  0  0  0
   -0.4899    2.4786   -0.2069 O   0  0  0  0  0  0  0  0  0  0  0  0
    0.0369    0.4104   -1.1274 N   0  0  0  0  0  0  0  0  0  0  0  0
    1.3648    0.4258   -0.8003 C   0  0  0  0  0  0  0  0  0  0  0  0
    2.0774    1.3233   -0.1709 N   0  0  0  0  0  0  0  0  0  0  0  0
    3.3959    0.9294   -0.0453 N   0  0  0  0  0  0  0  0  0  0  0  0
    3.6354   -0.2517   -0.5890 C   0  0  0  0  0  0  0  0  0  0  0  0
    4.9522   -0.9127   -0.5908 C   0  0  0  0  0  0  0  0  0  0  0  0
    6.0133   -0.3038    0.0924 C   0  0  0  0  0  0  0  0  0  0  0  0
    7.2545   -0.9178    0.0999 C   0  0  0  0  0  0  0  0  0  0  0  0
    7.5131   -2.0855   -0.5208 N   0  0  0  0  0  0  0  0  0  0  0  0
    6.4877   -2.6614   -1.1782 C   0  0  0  0  0  0  0  0  0  0  0  0
    5.2106   -2.1240   -1.2423 C   0  0  0  0  0  0  0  0  0  0  0  0
    2.2271   -0.9599   -1.2947 S   0  0  0  0  0  0  0  0  0  0  0  0
   -6.5545   -0.2765   -0.5949 H   0  0  0  0  0  0  0  0  0  0  0  0
   -5.0450   -0.2869   -1.5205 H   0  0  0  0  0  0  0  0  0  0  0  0
   -5.8718    1.2522   -1.1498 H   0  0  0  0  0  0  0  0  0  0  0  0
   -6.0819   -0.9683    1.6311 H   0  0  0  0  0  0  0  0  0  0  0  0
   -4.8009   -0.7429    3.7263 H   0  0  0  0  0  0  0  0  0  0  0  0
   -2.8233    0.7542    3.8286 H   0  0  0  0  0  0  0  0  0  0  0  0
   -2.1163    2.0110    1.8168 H   0  0  0  0  0  0  0  0  0  0  0  0
   -2.3117    1.5130   -2.2886 H   0  0  0  0  0  0  0  0  0  0  0  0
   -2.4560    0.1013   -1.2508 H   0  0  0  0  0  0  0  0  0  0  0  0
   -0.3031   -0.4093   -1.6062 H   0  0  0  0  0  0  0  0  0  0  0  0
    5.8800    0.6389    0.6165 H   0  0  0  0  0  0  0  0  0  0  0  0
    8.0960   -0.4705    0.6214 H   0  0  0  0  0  0  0  0  0  0  0  0
    6.7258   -3.5999   -1.6713 H   0  0  0  0  0  0  0  0  0  0  0  0
    4.4520   -2.6611   -1.7997 H   0  0  0  0  0  0  0  0  0  0  0  0
  1  2  1  0
  2  3  2  0
  3  4  1  0
  4  5  2  0
  5  6  1  0
  6  7  2  0
  7  8  1  0
  8  9  1  0
  9 10  1  0
 10 11  2  0
 10 12  1  0
 12 13  1  0
 13 14  2  0
 14 15  1  0
 15 16  2  0
 16 17  1  0
 17 18  2  0
 18 19  1  0
 19 20  2  0
 20 21  1  0
 21 22  2  0
 16 23  1  0
  7  2  1  0
 23 13  1  0
 22 17  1  0
  1 24  1  0
  1 25  1  0
  1 26  1  0
  3 27  1  0
  4 28  1  0
  5 29  1  0
  6 30  1  0
  9 31  1  0
  9 32  1  0
 12 33  1  0
 18 34  1  0
 19 35  1  0
 21 36  1  0
 22 37  1  0
M  END
$$$$
