
     RDKit          3D

 36 37  0  0  0  0  0  0  0  0999 V2000
   -2.5161    1.9265   -1.6251 C   0  0  0  0  0  0  0  0  0  0  0  0
   -2.6748    1.5827    0.1504 S   0  0  0  0  0  0  0  0  0  0  0  0
   -3.3093   -0.0922    0.0612 C   0  0  0  0  0  0  0  0  0  0  0  0
   -4.6556   -0.2549    0.4309 C   0  0  0  0  0  0  0  0  0  0  0  0
   -5.2748   -1.5048    0.3657 C   0  0  0  0  0  0  0  0  0  0  0  0
   -4.5579   -2.6129   -0.0710 C   0  0  0  0  0  0  0  0  0  0  0  0
   -3.2177   -2.4721   -0.4294 C   0  0  0  0  0  0  0  0  0  0  0  0
   -2.5767   -1.2215   -0.3528 C   0  0  0  0  0  0  0  0  0  0  0  0
   -1.1315   -1.2109   -0.7328 C   0  0  0  0  0  0  0  0  0  0  0  0
   -0.7779   -1.9319   -1.6594 O   0  0  0  0  0  0  0  0  0  0  0  0
   -0.3207   -0.4026    0.0380 N   0  0  0  0  0  0  0  0  0  0  0  0
    1.0702   -0.2069   -0.0796 C   0  0  0  0  0  0  0  0  0  0  0  0
    1.8767   -0.8721   -0.9980 C   0  0  0  0  0  0  0  0  0  0  0  0
    3.2508   -0.6163   -1.0479 C   0  0  0  0  0  0  0  0  0  0  0  0
    3.8468    0.3096   -0.1806 C   0  0  0  0  0  0  0  0  0  0  0  0
    5.3279    0.5544   -0.2676 C   0  0  0  0  0  0  0  0  0  0  0  0
    3.0412    0.9867    0.7529 C   0  0  0  0  0  0  0  0  0  0  0  0
    3.6240    1.9909    1.7091 C   0  0  0  0  0  0  0  0  0  0  0  0
    1.6609    0.7185    0.7911 C   0  0  0  0  0  0  0  0  0  0  0  0
   -1.7768    1.2694   -2.0893 H   0  0  0  0  0  0  0  0  0  0  0  0
   -3.4799    1.7984   -2.1255 H   0  0  0  0  0  0  0  0  0  0  0  0
   -2.1898    2.9612   -1.7591 H   0  0  0  0  0  0  0  0  0  0  0  0
   -5.2429    0.5990    0.7652 H   0  0  0  0  0  0  0  0  0  0  0  0
   -6.3194   -1.6092    0.6498 H   0  0  0  0  0  0  0  0  0  0  0  0
   -5.0374   -3.5870   -0.1311 H   0  0  0  0  0  0  0  0  0  0  0  0
   -2.6631   -3.3478   -0.7649 H   0  0  0  0  0  0  0  0  0  0  0  0
   -0.7858    0.1570    0.7449 H   0  0  0  0  0  0  0  0  0  0  0  0
    1.4708   -1.6008   -1.6919 H   0  0  0  0  0  0  0  0  0  0  0  0
    3.8527   -1.1540   -1.7778 H   0  0  0  0  0  0  0  0  0  0  0  0
    5.7908   -0.0541   -1.0519 H   0  0  0  0  0  0  0  0  0  0  0  0
    5.8124    0.2956    0.6791 H   0  0  0  0  0  0  0  0  0  0  0  0
    5.5268    1.6041   -0.5055 H   0  0  0  0  0  0  0  0  0  0  0  0
    4.3759    1.5164    2.3475 H   0  0  0  0  0  0  0  0  0  0  0  0
    2.8565    2.4155    2.3649 H   0  0  0  0  0  0  0  0  0  0  0  0
    4.0813    2.8191    1.1585 H   0  0  0  0  0  0  0  0  0  0  0  0
    1.0426    1.2468    1.5138 H   0  0  0  0  0  0  0  0  0  0  0  0
  1  2  1  0
  2  3  1  0
  3  4  2  0
  4  5  1  0
  5  6  2  0
  6  7  1  0
  7  8  2  0
  8  9  1  0
  9 10  2  0
  9 11  1  0
 11 12  1  0
 12 13  2  0
 13 14  1  0
 14 15  2  0
 15 16  1  0
 15 17  1  0
 17 18  1  0
 17 19  2  0
  8  3  1  0
 19 12  1  0
  1 20  1  0
  1 21  1  0
  1 22  1  0
  4 23  1  0
  5 24  1  0
  6 25  1  0
  7 26  1  0
 11 27  1  0
 13 28  1  0
 14 29  1  0
 16 30  1  0
 16 31  1  0
 16 32  1  0
 18 33  1  0
 18 34  1  0
 18 35  1  0
 19 36  1  0
M  END
$$$$
