
     RDKit          3D

 55 58  0  0  0  0  0  0  0  0999 V2000
    7.1957    0.5860   -1.7176 C   0  0  0  0  0  0  0  0  0  0  0  0
    6.8338    0.6997   -0.2436 C   0  0  0  0  0  0  0  0  0  0  0  0
    5.9641   -0.4083    0.1728 N   0  0  0  0  0  0  0  0  0  0  0  0
    6.6492   -1.5894    0.7135 C   0  0  0  0  0  0  0  0  0  0  0  0
    6.7923   -1.4948    2.2259 C   0  0  0  0  0  0  0  0  0  0  0  0
    4.5784   -0.3369    0.0731 C   0  0  0  0  0  0  0  0  0  0  0  0
    3.9232    0.7330   -0.5600 C   0  0  0  0  0  0  0  0  0  0  0  0
    2.5240    0.8128   -0.6629 C   0  0  0  0  0  0  0  0  0  0  0  0
    1.7123   -0.1811   -0.1210 C   0  0  0  0  0  0  0  0  0  0  0  0
    0.2473   -0.1581   -0.2309 C   0  0  0  0  0  0  0  0  0  0  0  0
   -0.4888    0.9621   -0.1378 C   0  0  0  0  0  0  0  0  0  0  0  0
   -1.9502    1.0409   -0.2509 C   0  0  0  0  0  0  0  0  0  0  0  0
   -2.7982   -0.0093    0.0594 C   0  0  0  0  0  0  0  0  0  0  0  0
   -4.1830    0.1688   -0.0554 C   0  0  0  0  0  0  0  0  0  0  0  0
   -5.0639   -0.9613    0.2732 C   0  0  0  0  0  0  0  0  0  0  0  0
   -5.5366   -1.1436    1.5818 C   0  0  0  0  0  0  0  0  0  0  0  0
   -6.3709   -2.2190    1.8942 C   0  0  0  0  0  0  0  0  0  0  0  0
   -6.7407   -3.1256    0.9027 C   0  0  0  0  0  0  0  0  0  0  0  0
   -6.2770   -2.9592   -0.4009 C   0  0  0  0  0  0  0  0  0  0  0  0
   -5.4425   -1.8841   -0.7137 C   0  0  0  0  0  0  0  0  0  0  0  0
   -4.6798    1.4271   -0.4782 C   0  0  0  0  0  0  0  0  0  0  0  0
   -6.0569    1.7235   -0.6323 C   0  0  0  0  0  0  0  0  0  0  0  0
   -6.4834    2.9835   -1.0486 C   0  0  0  0  0  0  0  0  0  0  0  0
   -5.5435    3.9674   -1.3170 C   0  0  0  0  0  0  0  0  0  0  0  0
   -4.1844    3.6835   -1.1673 C   0  0  0  0  0  0  0  0  0  0  0  0
   -3.7333    2.4365   -0.7549 C   0  0  0  0  0  0  0  0  0  0  0  0
   -2.4091    2.2501   -0.6380 N   0  0  0  0  0  0  0  0  0  0  0  0
    2.3332   -1.2641    0.4973 C   0  0  0  0  0  0  0  0  0  0  0  0
    3.7334   -1.3318    0.5935 C   0  0  0  0  0  0  0  0  0  0  0  0
    7.8598    1.4062   -2.0077 H   0  0  0  0  0  0  0  0  0  0  0  0
    6.3093    0.6249   -2.3578 H   0  0  0  0  0  0  0  0  0  0  0  0
    7.7121   -0.3573   -1.9241 H   0  0  0  0  0  0  0  0  0  0  0  0
    6.3867    1.6754   -0.0230 H   0  0  0  0  0  0  0  0  0  0  0  0
    7.7620    0.6800    0.3420 H   0  0  0  0  0  0  0  0  0  0  0  0
    7.6529   -1.6655    0.2759 H   0  0  0  0  0  0  0  0  0  0  0  0
    6.1484   -2.5199    0.4240 H   0  0  0  0  0  0  0  0  0  0  0  0
    7.3595   -0.6030    2.5124 H   0  0  0  0  0  0  0  0  0  0  0  0
    7.3228   -2.3716    2.6104 H   0  0  0  0  0  0  0  0  0  0  0  0
    5.8194   -1.4423    2.7236 H   0  0  0  0  0  0  0  0  0  0  0  0
    4.4847    1.5429   -1.0146 H   0  0  0  0  0  0  0  0  0  0  0  0
    2.0898    1.6611   -1.1866 H   0  0  0  0  0  0  0  0  0  0  0  0
   -0.2178   -1.1264   -0.3933 H   0  0  0  0  0  0  0  0  0  0  0  0
   -0.0135    1.9276    0.0176 H   0  0  0  0  0  0  0  0  0  0  0  0
   -2.4047   -0.9616    0.3999 H   0  0  0  0  0  0  0  0  0  0  0  0
   -5.2562   -0.4424    2.3655 H   0  0  0  0  0  0  0  0  0  0  0  0
   -6.7312   -2.3481    2.9116 H   0  0  0  0  0  0  0  0  0  0  0  0
   -7.3900   -3.9627    1.1461 H   0  0  0  0  0  0  0  0  0  0  0  0
   -6.5643   -3.6661   -1.1750 H   0  0  0  0  0  0  0  0  0  0  0  0
   -5.0883   -1.7654   -1.7359 H   0  0  0  0  0  0  0  0  0  0  0  0
   -6.8112    0.9664   -0.4262 H   0  0  0  0  0  0  0  0  0  0  0  0
   -7.5442    3.1917   -1.1611 H   0  0  0  0  0  0  0  0  0  0  0  0
   -5.8591    4.9551   -1.6422 H   0  0  0  0  0  0  0  0  0  0  0  0
   -3.4525    4.4598   -1.3798 H   0  0  0  0  0  0  0  0  0  0  0  0
    1.7417   -2.0695    0.9260 H   0  0  0  0  0  0  0  0  0  0  0  0
    4.1391   -2.1977    1.1066 H   0  0  0  0  0  0  0  0  0  0  0  0
  1  2  1  0
  2  3  1  0
  3  4  1  0
  4  5  1  0
  3  6  1  0
  6  7  2  0
  7  8  1  0
  8  9  2  0
  9 10  1  0
 10 11  2  3
 11 12  1  0
 12 13  2  0
 13 14  1  0
 14 15  1  0
 15 16  2  0
 16 17  1  0
 17 18  2  0
 18 19  1  0
 19 20  2  0
 14 21  2  0
 21 22  1  0
 22 23  2  0
 23 24  1  0
 24 25  2  0
 25 26  1  0
 26 27  2  0
  9 28  1  0
 28 29  2  0
 29  6  1  0
 27 12  1  0
 20 15  1  0
 26 21  1  0
  1 30  1  0
  1 31  1  0
  1 32  1  0
  2 33  1  0
  2 34  1  0
  4 35  1  0
  4 36  1  0
  5 37  1  0
  5 38  1  0
  5 39  1  0
  7 40  1  0
  8 41  1  0
 10 42  1  0
 11 43  1  0
 13 44  1  0
 16 45  1  0
 17 46  1  0
 18 47  1  0
 19 48  1  0
 20 49  1  0
 22 50  1  0
 23 51  1  0
 24 52  1  0
 25 53  1  0
 28 54  1  0
 29 55  1  0
M  END
$$$$
