
     RDKit          3D

 44 46  0  0  0  0  0  0  0  0999 V2000
   -6.6072    1.2081    0.8958 C   0  0  0  0  0  0  0  0  0  0  0  0
   -5.2638    0.7313    0.4259 C   0  0  0  0  0  0  0  0  0  0  0  0
   -5.0912   -0.5853   -0.0212 C   0  0  0  0  0  0  0  0  0  0  0  0
   -3.8324   -1.0522   -0.4267 C   0  0  0  0  0  0  0  0  0  0  0  0
   -3.6872   -2.4710   -0.8979 C   0  0  0  0  0  0  0  0  0  0  0  0
   -2.7485   -0.1620   -0.4086 C   0  0  0  0  0  0  0  0  0  0  0  0
   -1.5068   -0.5872   -0.8111 O   0  0  0  0  0  0  0  0  0  0  0  0
   -1.3451   -0.3993   -2.2223 C   0  0  0  0  0  0  0  0  0  0  0  0
    0.1380   -0.2956   -2.5916 C   0  0  0  0  0  0  0  0  0  0  0  0
    0.4763   -0.1881   -3.7670 O   0  0  0  0  0  0  0  0  0  0  0  0
    0.9590   -0.3298   -1.4881 N   0  0  0  0  0  0  0  0  0  0  0  0
    2.3235   -0.2434   -1.4488 C   0  0  0  0  0  0  0  0  0  0  0  0
    2.9699   -0.2956   -0.3077 N   0  0  0  0  0  0  0  0  0  0  0  0
    4.3395   -0.1852   -0.5360 C   0  0  0  0  0  0  0  0  0  0  0  0
    5.3147   -0.2094    0.5524 C   0  0  0  0  0  0  0  0  0  0  0  0
    4.8913   -0.3107    1.8749 C   0  0  0  0  0  0  0  0  0  0  0  0
    5.8469   -0.3264    2.8877 C   0  0  0  0  0  0  0  0  0  0  0  0
    7.1927   -0.2426    2.5530 C   0  0  0  0  0  0  0  0  0  0  0  0
    7.5298   -0.1469    1.2137 C   0  0  0  0  0  0  0  0  0  0  0  0
    6.6267   -0.1268    0.2091 N   0  0  0  0  0  0  0  0  0  0  0  0
    4.6888   -0.0497   -1.8669 C   0  0  0  0  0  0  0  0  0  0  0  0
    3.2815   -0.0581   -2.8422 S   0  0  0  0  0  0  0  0  0  0  0  0
   -2.8842    1.1436    0.0908 C   0  0  0  0  0  0  0  0  0  0  0  0
   -1.7092    2.0769    0.1726 C   0  0  0  0  0  0  0  0  0  0  0  0
   -4.1531    1.5821    0.4938 C   0  0  0  0  0  0  0  0  0  0  0  0
   -6.6704    1.1272    1.9852 H   0  0  0  0  0  0  0  0  0  0  0  0
   -6.7714    2.2514    0.6044 H   0  0  0  0  0  0  0  0  0  0  0  0
   -7.4145    0.6152    0.4529 H   0  0  0  0  0  0  0  0  0  0  0  0
   -5.9469   -1.2582   -0.0449 H   0  0  0  0  0  0  0  0  0  0  0  0
   -2.7275   -2.8941   -0.5836 H   0  0  0  0  0  0  0  0  0  0  0  0
   -4.4699   -3.1096   -0.4717 H   0  0  0  0  0  0  0  0  0  0  0  0
   -3.7606   -2.5148   -1.9885 H   0  0  0  0  0  0  0  0  0  0  0  0
   -1.8320    0.5199   -2.5742 H   0  0  0  0  0  0  0  0  0  0  0  0
   -1.7572   -1.2661   -2.7509 H   0  0  0  0  0  0  0  0  0  0  0  0
    0.5191   -0.4409   -0.5818 H   0  0  0  0  0  0  0  0  0  0  0  0
    3.8349   -0.3745    2.1170 H   0  0  0  0  0  0  0  0  0  0  0  0
    5.5410   -0.4012    3.9268 H   0  0  0  0  0  0  0  0  0  0  0  0
    7.9617   -0.2522    3.3171 H   0  0  0  0  0  0  0  0  0  0  0  0
    8.5690   -0.0806    0.9026 H   0  0  0  0  0  0  0  0  0  0  0  0
    5.6756    0.0527   -2.2967 H   0  0  0  0  0  0  0  0  0  0  0  0
   -0.8498    1.5733    0.6300 H   0  0  0  0  0  0  0  0  0  0  0  0
   -1.4339    2.4275   -0.8278 H   0  0  0  0  0  0  0  0  0  0  0  0
   -1.9370    2.9523    0.7910 H   0  0  0  0  0  0  0  0  0  0  0  0
   -4.2802    2.5960    0.8709 H   0  0  0  0  0  0  0  0  0  0  0  0
  1  2  1  0
  2  3  2  0
  3  4  1  0
  4  5  1  0
  4  6  2  0
  6  7  1  0
  7  8  1  0
  8  9  1  0
  9 10  2  0
  9 11  1  0
 11 12  1  0
 12 13  2  0
 13 14  1  0
 14 15  1  0
 15 16  2  0
 16 17  1  0
 17 18  2  0
 18 19  1  0
 19 20  2  0
 14 21  2  0
 21 22  1  0
  6 23  1  0
 23 24  1  0
 23 25  2  0
 25  2  1  0
 22 12  1  0
 20 15  1  0
  1 26  1  0
  1 27  1  0
  1 28  1  0
  3 29  1  0
  5 30  1  0
  5 31  1  0
  5 32  1  0
  8 33  1  0
  8 34  1  0
 11 35  1  0
 16 36  1  0
 17 37  1  0
 18 38  1  0
 19 39  1  0
 21 40  1  0
 24 41  1  0
 24 42  1  0
 24 43  1  0
 25 44  1  0
M  END
$$$$
