
     RDKit          3D

 41 42  0  0  0  0  0  0  0  0999 V2000
   -4.9852   -2.1229   -0.7982 C   0  0  0  0  0  0  0  0  0  0  0  0
   -4.8225   -0.6193   -0.9695 C   0  0  0  0  0  0  0  0  0  0  0  0
   -3.8523   -0.0802   -0.0070 N   0  0  0  0  0  0  0  0  0  0  0  0
   -4.4130    0.3977    1.2636 C   0  0  0  0  0  0  0  0  0  0  0  0
   -4.7455    1.8813    1.1908 C   0  0  0  0  0  0  0  0  0  0  0  0
   -2.4896   -0.0291   -0.2807 C   0  0  0  0  0  0  0  0  0  0  0  0
   -1.9312   -0.6020   -1.4359 C   0  0  0  0  0  0  0  0  0  0  0  0
   -0.5555   -0.5552   -1.7164 C   0  0  0  0  0  0  0  0  0  0  0  0
    0.3308    0.0636   -0.8381 C   0  0  0  0  0  0  0  0  0  0  0  0
    1.7576    0.1139   -1.1782 C   0  0  0  0  0  0  0  0  0  0  0  0
    2.7452    0.0060   -0.2761 C   0  0  0  0  0  0  0  0  0  0  0  0
    4.1612    0.0366   -0.7349 C   0  0  0  0  0  0  0  0  0  0  0  0
    4.4599   -0.0385   -1.9225 O   0  0  0  0  0  0  0  0  0  0  0  0
    5.2303    0.1218    0.2862 C   0  0  0  0  0  0  0  0  0  0  0  0
    6.4993   -0.3833   -0.0097 C   0  0  0  0  0  0  0  0  0  0  0  0
    7.5137   -0.3002    0.9415 C   0  0  0  0  0  0  0  0  0  0  0  0
    7.2250    0.2950    2.1588 C   0  0  0  0  0  0  0  0  0  0  0  0
    6.0150    0.8077    2.4742 N   0  0  0  0  0  0  0  0  0  0  0  0
    5.0481    0.7182    1.5272 C   0  0  0  0  0  0  0  0  0  0  0  0
   -0.1943    0.6574    0.3076 C   0  0  0  0  0  0  0  0  0  0  0  0
   -1.5727    0.6036    0.5761 C   0  0  0  0  0  0  0  0  0  0  0  0
   -5.3251   -2.3690    0.2132 H   0  0  0  0  0  0  0  0  0  0  0  0
   -4.0450   -2.6556   -0.9701 H   0  0  0  0  0  0  0  0  0  0  0  0
   -5.7261   -2.5056   -1.5071 H   0  0  0  0  0  0  0  0  0  0  0  0
   -5.8002   -0.1462   -0.8113 H   0  0  0  0  0  0  0  0  0  0  0  0
   -4.5559   -0.3680   -2.0021 H   0  0  0  0  0  0  0  0  0  0  0  0
   -3.7487    0.1853    2.1087 H   0  0  0  0  0  0  0  0  0  0  0  0
   -5.3357   -0.1522    1.4895 H   0  0  0  0  0  0  0  0  0  0  0  0
   -5.4691    2.0835    0.3941 H   0  0  0  0  0  0  0  0  0  0  0  0
   -5.1807    2.2175    2.1370 H   0  0  0  0  0  0  0  0  0  0  0  0
   -3.8566    2.4875    0.9920 H   0  0  0  0  0  0  0  0  0  0  0  0
   -2.5522   -1.1187   -2.1607 H   0  0  0  0  0  0  0  0  0  0  0  0
   -0.1926   -1.0218   -2.6298 H   0  0  0  0  0  0  0  0  0  0  0  0
    1.9892    0.2202   -2.2372 H   0  0  0  0  0  0  0  0  0  0  0  0
    2.5391   -0.1434    0.7757 H   0  0  0  0  0  0  0  0  0  0  0  0
    6.6979   -0.8405   -0.9769 H   0  0  0  0  0  0  0  0  0  0  0  0
    8.5052   -0.6885    0.7355 H   0  0  0  0  0  0  0  0  0  0  0  0
    7.9824    0.3825    2.9331 H   0  0  0  0  0  0  0  0  0  0  0  0
    4.1088    1.1775    1.8187 H   0  0  0  0  0  0  0  0  0  0  0  0
    0.4471    1.1866    1.0070 H   0  0  0  0  0  0  0  0  0  0  0  0
   -1.9061    1.0972    1.4835 H   0  0  0  0  0  0  0  0  0  0  0  0
  1  2  1  0
  2  3  1  0
  3  4  1  0
  4  5  1  0
  3  6  1  0
  6  7  2  0
  7  8  1  0
  8  9  2  0
  9 10  1  0
 10 11  2  3
 11 12  1  0
 12 13  2  0
 12 14  1  0
 14 15  2  0
 15 16  1  0
 16 17  2  0
 17 18  1  0
 18 19  2  0
  9 20  1  0
 20 21  2  0
 21  6  1  0
 19 14  1  0
  1 22  1  0
  1 23  1  0
  1 24  1  0
  2 25  1  0
  2 26  1  0
  4 27  1  0
  4 28  1  0
  5 29  1  0
  5 30  1  0
  5 31  1  0
  7 32  1  0
  8 33  1  0
 10 34  1  0
 11 35  1  0
 15 36  1  0
 16 37  1  0
 17 38  1  0
 19 39  1  0
 20 40  1  0
 21 41  1  0
M  END
$$$$
