
     RDKit          3D

 35 38  0  0  0  0  0  0  0  0999 V2000
   -3.4837   -3.5932   -0.1551 N   0  0  0  0  0  0  0  0  0  0  0  0
   -2.1183   -3.5485   -0.0769 C   0  0  0  0  0  0  0  0  0  0  0  0
   -1.4380   -4.5663   -0.0509 O   0  0  0  0  0  0  0  0  0  0  0  0
   -1.5172   -2.1868   -0.0256 C   0  0  0  0  0  0  0  0  0  0  0  0
   -2.3714   -1.1335   -0.0622 N   0  0  0  0  0  0  0  0  0  0  0  0
   -1.7927    0.0872   -0.0172 C   0  0  0  0  0  0  0  0  0  0  0  0
   -2.6950    1.2288   -0.0553 C   0  0  0  0  0  0  0  0  0  0  0  0
   -4.0694    1.3600   -0.1361 C   0  0  0  0  0  0  0  0  0  0  0  0
   -4.3493    2.7483   -0.1329 C   0  0  0  0  0  0  0  0  0  0  0  0
   -3.1327    3.3821   -0.0503 C   0  0  0  0  0  0  0  0  0  0  0  0
   -2.1251    2.4736   -0.0024 O   0  0  0  0  0  0  0  0  0  0  0  0
   -0.4700    0.3397    0.0601 N   0  0  0  0  0  0  0  0  0  0  0  0
    0.3199   -0.7349    0.0967 C   0  0  0  0  0  0  0  0  0  0  0  0
   -0.1645   -2.0208    0.0531 C   0  0  0  0  0  0  0  0  0  0  0  0
    0.8892   -2.9183    0.0977 N   0  0  0  0  0  0  0  0  0  0  0  0
    2.0888   -2.1993    0.1710 C   0  0  0  0  0  0  0  0  0  0  0  0
    3.1835   -2.7339    0.2258 O   0  0  0  0  0  0  0  0  0  0  0  0
    1.7357   -0.8132    0.1716 N   0  0  0  0  0  0  0  0  0  0  0  0
    2.6228    0.2993    0.2303 C   0  0  0  0  0  0  0  0  0  0  0  0
    2.1777    1.6293    0.3020 C   0  0  0  0  0  0  0  0  0  0  0  0
    3.0727    2.7082    0.3589 C   0  0  0  0  0  0  0  0  0  0  0  0
    4.4459    2.4865    0.3463 C   0  0  0  0  0  0  0  0  0  0  0  0
    5.4896    3.8590    0.4184 Cl  0  0  0  0  0  0  0  0  0  0  0  0
    4.9196    1.1783    0.2772 C   0  0  0  0  0  0  0  0  0  0  0  0
    6.6098    0.8118    0.2551 Cl  0  0  0  0  0  0  0  0  0  0  0  0
    4.0160    0.1039    0.2209 C   0  0  0  0  0  0  0  0  0  0  0  0
   -4.0297   -2.7400   -0.1760 H   0  0  0  0  0  0  0  0  0  0  0  0
   -3.9486   -4.4900   -0.1932 H   0  0  0  0  0  0  0  0  0  0  0  0
   -4.7793    0.5465   -0.1908 H   0  0  0  0  0  0  0  0  0  0  0  0
   -5.3166    3.2285   -0.1845 H   0  0  0  0  0  0  0  0  0  0  0  0
   -2.8281    4.4193   -0.0170 H   0  0  0  0  0  0  0  0  0  0  0  0
    0.8114   -3.9291    0.0797 H   0  0  0  0  0  0  0  0  0  0  0  0
    1.1248    1.8896    0.3252 H   0  0  0  0  0  0  0  0  0  0  0  0
    2.6786    3.7207    0.4145 H   0  0  0  0  0  0  0  0  0  0  0  0
    4.4435   -0.8929    0.1625 H   0  0  0  0  0  0  0  0  0  0  0  0
  1  2  1  0
  2  3  2  0
  2  4  1  0
  4  5  2  0
  5  6  1  0
  6  7  1  0
  7  8  2  0
  8  9  1  0
  9 10  2  0
 10 11  1  0
  6 12  2  0
 12 13  1  0
 13 14  2  0
 14 15  1  0
 15 16  1  0
 16 17  2  0
 16 18  1  0
 18 19  1  0
 19 20  2  0
 20 21  1  0
 21 22  2  0
 22 23  1  0
 22 24  1  0
 24 25  1  0
 24 26  2  0
 14  4  1  0
 26 19  1  0
 11  7  1  0
 18 13  1  0
  1 27  1  0
  1 28  1  0
  8 29  1  0
  9 30  1  0
 10 31  1  0
 15 32  1  0
 20 33  1  0
 21 34  1  0
 26 35  1  0
M  END
$$$$
