
     RDKit          3D

 58 63  0  0  0  0  0  0  0  0999 V2000
    6.9742   -3.0427    2.1921 C   0  0  0  0  0  0  0  0  0  0  0  0
    6.0642   -2.0122    1.6175 C   0  0  0  0  0  0  0  0  0  0  0  0
    5.6064   -0.8489    2.1988 C   0  0  0  0  0  0  0  0  0  0  0  0
    4.7545   -0.1106    1.3262 C   0  0  0  0  0  0  0  0  0  0  0  0
    4.5703   -0.7420    0.1102 C   0  0  0  0  0  0  0  0  0  0  0  0
    3.7929   -0.3208   -1.0475 C   0  0  0  0  0  0  0  0  0  0  0  0
    4.2532   -0.3547   -2.1893 O   0  0  0  0  0  0  0  0  0  0  0  0
    2.4920    0.1573   -0.8203 N   0  0  0  0  0  0  0  0  0  0  0  0
    1.7534    0.7010   -1.9544 C   0  0  0  0  0  0  0  0  0  0  0  0
    0.6958    1.6938   -1.4868 C   0  0  0  0  0  0  0  0  0  0  0  0
   -0.3466    1.0646   -0.5092 C   0  0  0  0  0  0  0  0  0  0  0  0
    0.2331   -0.2419    0.0997 C   0  0  0  0  0  0  0  0  0  0  0  0
    1.7265   -0.1146    0.3948 C   0  0  0  0  0  0  0  0  0  0  0  0
   -0.5055    1.9496    0.6340 O   0  0  0  0  0  0  0  0  0  0  0  0
   -1.2165    3.0948    0.4130 C   0  0  0  0  0  0  0  0  0  0  0  0
   -1.0415    4.1161    1.3464 C   0  0  0  0  0  0  0  0  0  0  0  0
   -1.7148    5.3297    1.1892 C   0  0  0  0  0  0  0  0  0  0  0  0
   -2.5668    5.5158    0.1005 C   0  0  0  0  0  0  0  0  0  0  0  0
   -3.3924    7.0122   -0.0884 Cl  0  0  0  0  0  0  0  0  0  0  0  0
   -2.7598    4.4957   -0.8276 C   0  0  0  0  0  0  0  0  0  0  0  0
   -2.0869    3.2810   -0.6589 C   0  0  0  0  0  0  0  0  0  0  0  0
   -2.3115    2.1672   -1.5987 C   0  0  0  0  0  0  0  0  0  0  0  0
   -2.9778    2.3567   -2.6111 O   0  0  0  0  0  0  0  0  0  0  0  0
   -1.7263    0.8202   -1.1846 C   0  0  0  0  0  0  0  0  0  0  0  0
   -2.7718    0.1104   -0.3326 C   0  0  0  0  0  0  0  0  0  0  0  0
   -2.7365   -1.2328   -0.9731 C   0  0  0  0  0  0  0  0  0  0  0  0
   -3.4209   -2.4038   -0.3776 C   0  0  0  0  0  0  0  0  0  0  0  0
   -4.2338   -2.2784    0.7549 C   0  0  0  0  0  0  0  0  0  0  0  0
   -4.8590   -3.4058    1.2947 C   0  0  0  0  0  0  0  0  0  0  0  0
   -4.6763   -4.6571    0.7076 C   0  0  0  0  0  0  0  0  0  0  0  0
   -3.8714   -4.7861   -0.4226 C   0  0  0  0  0  0  0  0  0  0  0  0
   -3.2455   -3.6626   -0.9656 C   0  0  0  0  0  0  0  0  0  0  0  0
   -2.0638   -1.2910   -2.0771 N   0  0  0  0  0  0  0  0  0  0  0  0
   -1.5674    0.0033   -2.3493 O   0  0  0  0  0  0  0  0  0  0  0  0
    5.4687   -2.1972    0.0242 S   0  0  0  0  0  0  0  0  0  0  0  0
    7.2550   -2.7870    3.2192 H   0  0  0  0  0  0  0  0  0  0  0  0
    6.4874   -4.0234    2.2129 H   0  0  0  0  0  0  0  0  0  0  0  0
    7.8939   -3.1204    1.6030 H   0  0  0  0  0  0  0  0  0  0  0  0
    5.8797   -0.5327    3.1986 H   0  0  0  0  0  0  0  0  0  0  0  0
    4.3108    0.8454    1.5754 H   0  0  0  0  0  0  0  0  0  0  0  0
    2.4467    1.2014   -2.6400 H   0  0  0  0  0  0  0  0  0  0  0  0
    1.3024   -0.1357   -2.5004 H   0  0  0  0  0  0  0  0  0  0  0  0
    1.2070    2.5317   -0.9935 H   0  0  0  0  0  0  0  0  0  0  0  0
    0.2073    2.1194   -2.3706 H   0  0  0  0  0  0  0  0  0  0  0  0
   -0.2799   -0.4895    1.0367 H   0  0  0  0  0  0  0  0  0  0  0  0
    0.0997   -1.0888   -0.5820 H   0  0  0  0  0  0  0  0  0  0  0  0
    2.0786   -1.0413    0.8589 H   0  0  0  0  0  0  0  0  0  0  0  0
    1.9080    0.7096    1.0931 H   0  0  0  0  0  0  0  0  0  0  0  0
   -0.3711    3.9754    2.1912 H   0  0  0  0  0  0  0  0  0  0  0  0
   -1.5680    6.1260    1.9152 H   0  0  0  0  0  0  0  0  0  0  0  0
   -3.4332    4.6393   -1.6701 H   0  0  0  0  0  0  0  0  0  0  0  0
   -2.5204    0.0743    0.7296 H   0  0  0  0  0  0  0  0  0  0  0  0
   -3.7787    0.5267   -0.4485 H   0  0  0  0  0  0  0  0  0  0  0  0
   -4.4051   -1.3177    1.2303 H   0  0  0  0  0  0  0  0  0  0  0  0
   -5.4934   -3.3085    2.1726 H   0  0  0  0  0  0  0  0  0  0  0  0
   -5.1652   -5.5327    1.1280 H   0  0  0  0  0  0  0  0  0  0  0  0
   -3.7314   -5.7603   -0.8847 H   0  0  0  0  0  0  0  0  0  0  0  0
   -2.6223   -3.7777   -1.8507 H   0  0  0  0  0  0  0  0  0  0  0  0
  1  2  1  0
  2  3  2  0
  3  4  1  0
  4  5  2  0
  5  6  1  0
  6  7  2  0
  6  8  1  0
  8  9  1  0
  9 10  1  0
 10 11  1  0
 11 12  1  0
 12 13  1  0
 11 14  1  0
 14 15  1  0
 15 16  2  0
 16 17  1  0
 17 18  2  0
 18 19  1  0
 18 20  1  0
 20 21  2  0
 21 22  1  0
 22 23  2  0
 22 24  1  0
 24 25  1  0
 25 26  1  0
 26 27  1  0
 27 28  2  0
 28 29  1  0
 29 30  2  0
 30 31  1  0
 31 32  2  0
 26 33  2  0
 33 34  1  0
  5 35  1  0
 35  2  1  0
 13  8  1  0
 21 15  1  0
 34 24  1  0
 24 11  1  0
 32 27  1  0
  1 36  1  0
  1 37  1  0
  1 38  1  0
  3 39  1  0
  4 40  1  0
  9 41  1  0
  9 42  1  0
 10 43  1  0
 10 44  1  0
 12 45  1  0
 12 46  1  0
 13 47  1  0
 13 48  1  0
 16 49  1  0
 17 50  1  0
 20 51  1  0
 25 52  1  0
 25 53  1  0
 28 54  1  0
 29 55  1  0
 30 56  1  0
 31 57  1  0
 32 58  1  0
M  END
$$$$
