
     RDKit          3D

 37 39  0  0  0  0  0  0  0  0999 V2000
    7.0554    1.0624    1.6762 O   0  0  0  0  0  0  0  0  0  0  0  0
    5.6447    1.0947    1.5322 C   0  0  0  0  0  0  0  0  0  0  0  0
    5.2100   -0.0611    0.6361 C   0  0  0  0  0  0  0  0  0  0  0  0
    3.7401   -0.0512    0.4692 N   0  0  0  0  0  4  0  0  0  0  0  0
    3.1868    0.6382   -0.5544 C   0  0  0  0  0  0  0  0  0  0  0  0
    1.8081    0.6567   -0.7322 C   0  0  0  0  0  0  0  0  0  0  0  0
    0.9874   -0.0558    0.1404 C   0  0  0  0  0  0  0  0  0  0  0  0
   -0.4666   -0.0028   -0.0456 C   0  0  0  0  0  0  0  0  0  0  0  0
   -1.2880   -1.0527    0.1224 C   0  0  0  0  0  0  0  0  0  0  0  0
   -2.7067   -1.0235   -0.0429 C   0  0  0  0  0  0  0  0  0  0  0  0
   -3.5541   -1.7988    0.7191 C   0  0  0  0  0  0  0  0  0  0  0  0
   -4.8392   -1.5280    0.3297 N   0  0  0  0  0  0  0  0  0  0  0  0
   -4.8427   -0.6092   -0.6944 C   0  0  0  0  0  0  0  0  0  0  0  0
   -5.9214   -0.0606   -1.3992 C   0  0  0  0  0  0  0  0  0  0  0  0
   -5.6362    0.8472   -2.4215 C   0  0  0  0  0  0  0  0  0  0  0  0
   -4.3226    1.1864   -2.7298 C   0  0  0  0  0  0  0  0  0  0  0  0
   -3.2554    0.6298   -2.0141 C   0  0  0  0  0  0  0  0  0  0  0  0
   -3.5112   -0.2792   -0.9633 C   0  0  0  0  0  0  0  0  0  0  0  0
    1.5803   -0.7522    1.1925 C   0  0  0  0  0  0  0  0  0  0  0  0
    2.9632   -0.7418    1.3347 C   0  0  0  0  0  0  0  0  0  0  0  0
    7.3259    1.8047    2.2505 H   0  0  0  0  0  0  0  0  0  0  0  0
    5.1870    1.0131    2.5232 H   0  0  0  0  0  0  0  0  0  0  0  0
    5.3566    2.0562    1.0954 H   0  0  0  0  0  0  0  0  0  0  0  0
    5.6743    0.0044   -0.3547 H   0  0  0  0  0  0  0  0  0  0  0  0
    5.5069   -1.0281    1.0583 H   0  0  0  0  0  0  0  0  0  0  0  0
    3.8547    1.1737   -1.2239 H   0  0  0  0  0  0  0  0  0  0  0  0
    1.3819    1.2196   -1.5611 H   0  0  0  0  0  0  0  0  0  0  0  0
   -0.8741    0.9637   -0.3351 H   0  0  0  0  0  0  0  0  0  0  0  0
   -0.8765   -2.0116    0.4305 H   0  0  0  0  0  0  0  0  0  0  0  0
   -3.3649   -2.5080    1.5138 H   0  0  0  0  0  0  0  0  0  0  0  0
   -5.6709   -1.9472    0.7233 H   0  0  0  0  0  0  0  0  0  0  0  0
   -6.9474   -0.3312   -1.1694 H   0  0  0  0  0  0  0  0  0  0  0  0
   -6.4536    1.2874   -2.9889 H   0  0  0  0  0  0  0  0  0  0  0  0
   -4.1235    1.8858   -3.5382 H   0  0  0  0  0  0  0  0  0  0  0  0
   -2.2395    0.8949   -2.2852 H   0  0  0  0  0  0  0  0  0  0  0  0
    0.9746   -1.2983    1.9134 H   0  0  0  0  0  0  0  0  0  0  0  0
    3.4567   -1.2779    2.1411 H   0  0  0  0  0  0  0  0  0  0  0  0
  1  2  1  0
  2  3  1  0
  3  4  1  0
  4  5  2  0
  5  6  1  0
  6  7  2  0
  7  8  1  0
  8  9  2  3
  9 10  1  0
 10 11  2  0
 11 12  1  0
 12 13  1  0
 13 14  2  0
 14 15  1  0
 15 16  2  0
 16 17  1  0
 17 18  2  0
  7 19  1  0
 19 20  2  0
 20  4  1  0
 18 10  1  0
 18 13  1  0
  1 21  1  0
  2 22  1  0
  2 23  1  0
  3 24  1  0
  3 25  1  0
  5 26  1  0
  6 27  1  0
  8 28  1  0
  9 29  1  0
 11 30  1  0
 12 31  1  0
 14 32  1  0
 15 33  1  0
 16 34  1  0
 17 35  1  0
 19 36  1  0
 20 37  1  0
M  CHG  1   4   1
M  END
$$$$
