
     RDKit          3D

 58 61  0  0  0  0  0  0  0  0999 V2000
   -5.2582    4.9160    1.8272 C   0  0  0  0  0  0  0  0  0  0  0  0
   -5.0684    3.5111    1.7178 O   0  0  0  0  0  0  0  0  0  0  0  0
   -4.2716    3.0721    0.6958 C   0  0  0  0  0  0  0  0  0  0  0  0
   -3.6242    3.8763   -0.2422 C   0  0  0  0  0  0  0  0  0  0  0  0
   -2.8328    3.2954   -1.2362 C   0  0  0  0  0  0  0  0  0  0  0  0
   -2.6860    1.9093   -1.2971 C   0  0  0  0  0  0  0  0  0  0  0  0
   -3.3299    1.0884   -0.3642 C   0  0  0  0  0  0  0  0  0  0  0  0
   -3.1594   -0.3693   -0.4166 C   0  0  0  0  0  0  0  0  0  0  0  0
   -4.5361   -1.3371   -0.7290 S   0  0  0  0  0  0  0  0  0  0  0  0
   -3.6367   -2.7976   -0.6747 C   0  0  0  0  0  0  0  0  0  0  0  0
   -4.1343   -4.1029   -0.8532 C   0  0  0  0  0  0  0  0  0  0  0  0
   -3.2552   -5.1887   -0.7703 C   0  0  0  0  0  0  0  0  0  0  0  0
   -1.9064   -4.9880   -0.5121 C   0  0  0  0  0  0  0  0  0  0  0  0
   -0.9532   -5.9636   -0.4055 O   0  0  0  0  0  0  0  0  0  0  0  0
   -1.3897   -7.3097   -0.5459 C   0  0  0  0  0  0  0  0  0  0  0  0
   -1.4251   -3.6848   -0.3378 C   0  0  0  0  0  0  0  0  0  0  0  0
   -2.2862   -2.5586   -0.4211 C   0  0  0  0  0  0  0  0  0  0  0  0
   -2.0162   -1.1432   -0.2783 C   0  0  0  0  0  0  0  0  0  0  0  0
   -0.7085   -0.5483   -0.0159 C   0  0  0  0  0  0  0  0  0  0  0  0
   -0.4527    0.1074    1.1915 C   0  0  0  0  0  0  0  0  0  0  0  0
    0.8035    0.6715    1.4274 C   0  0  0  0  0  0  0  0  0  0  0  0
    1.8167    0.5846    0.4691 C   0  0  0  0  0  0  0  0  0  0  0  0
    2.9948    1.1783    0.8293 O   0  0  0  0  0  0  0  0  0  0  0  0
    4.0736    1.1066   -0.1092 C   0  0  0  0  0  0  0  0  0  0  0  0
    5.2804    1.8415    0.4972 C   0  0  0  0  0  0  0  0  0  0  0  0
    6.4447    1.9412   -0.4049 N   0  0  0  0  0  0  0  0  0  0  0  0
    7.0687    0.6363   -0.6349 C   0  0  0  0  0  0  0  0  0  0  0  0
    7.4320    2.8659    0.1602 C   0  0  0  0  0  0  0  0  0  0  0  0
    1.5634   -0.0741   -0.7345 C   0  0  0  0  0  0  0  0  0  0  0  0
    0.3059   -0.6395   -0.9755 C   0  0  0  0  0  0  0  0  0  0  0  0
   -4.1204    1.6833    0.6297 C   0  0  0  0  0  0  0  0  0  0  0  0
   -5.9147    5.0990    2.6833 H   0  0  0  0  0  0  0  0  0  0  0  0
   -4.3098    5.4287    2.0196 H   0  0  0  0  0  0  0  0  0  0  0  0
   -5.7525    5.3183    0.9367 H   0  0  0  0  0  0  0  0  0  0  0  0
   -3.7115    4.9574   -0.2278 H   0  0  0  0  0  0  0  0  0  0  0  0
   -2.3265    3.9246   -1.9640 H   0  0  0  0  0  0  0  0  0  0  0  0
   -2.0650    1.4739   -2.0765 H   0  0  0  0  0  0  0  0  0  0  0  0
   -5.1900   -4.2674   -1.0518 H   0  0  0  0  0  0  0  0  0  0  0  0
   -3.6685   -6.1820   -0.9126 H   0  0  0  0  0  0  0  0  0  0  0  0
   -0.5175   -7.9586   -0.4210 H   0  0  0  0  0  0  0  0  0  0  0  0
   -1.7980   -7.4894   -1.5459 H   0  0  0  0  0  0  0  0  0  0  0  0
   -2.1148   -7.5732    0.2314 H   0  0  0  0  0  0  0  0  0  0  0  0
   -0.3677   -3.5371   -0.1287 H   0  0  0  0  0  0  0  0  0  0  0  0
   -1.2240    0.1866    1.9537 H   0  0  0  0  0  0  0  0  0  0  0  0
    0.9929    1.1836    2.3676 H   0  0  0  0  0  0  0  0  0  0  0  0
    4.3248    0.0561   -0.2922 H   0  0  0  0  0  0  0  0  0  0  0  0
    3.7860    1.5968   -1.0473 H   0  0  0  0  0  0  0  0  0  0  0  0
    4.9380    2.8523    0.7586 H   0  0  0  0  0  0  0  0  0  0  0  0
    5.5562    1.3700    1.4504 H   0  0  0  0  0  0  0  0  0  0  0  0
    7.3854    0.1585    0.2993 H   0  0  0  0  0  0  0  0  0  0  0  0
    7.9477    0.7397   -1.2817 H   0  0  0  0  0  0  0  0  0  0  0  0
    6.3876   -0.0411   -1.1593 H   0  0  0  0  0  0  0  0  0  0  0  0
    8.2848    2.9809   -0.5182 H   0  0  0  0  0  0  0  0  0  0  0  0
    6.9981    3.8643    0.2853 H   0  0  0  0  0  0  0  0  0  0  0  0
    7.8070    2.5269    1.1328 H   0  0  0  0  0  0  0  0  0  0  0  0
    2.3184   -0.1655   -1.5081 H   0  0  0  0  0  0  0  0  0  0  0  0
    0.1236   -1.1475   -1.9200 H   0  0  0  0  0  0  0  0  0  0  0  0
   -4.6224    1.0644    1.3703 H   0  0  0  0  0  0  0  0  0  0  0  0
  1  2  1  0
  2  3  1  0
  3  4  2  0
  4  5  1  0
  5  6  2  0
  6  7  1  0
  7  8  1  0
  8  9  1  0
  9 10  1  0
 10 11  2  0
 11 12  1  0
 12 13  2  0
 13 14  1  0
 14 15  1  0
 13 16  1  0
 16 17  2  0
 17 18  1  0
 18 19  1  0
 19 20  2  0
 20 21  1  0
 21 22  2  0
 22 23  1  0
 23 24  1  0
 24 25  1  0
 25 26  1  0
 26 27  1  0
 26 28  1  0
 22 29  1  0
 29 30  2  0
  7 31  2  0
 31  3  1  0
 18  8  2  0
 30 19  1  0
 17 10  1  0
  1 32  1  0
  1 33  1  0
  1 34  1  0
  4 35  1  0
  5 36  1  0
  6 37  1  0
 11 38  1  0
 12 39  1  0
 15 40  1  0
 15 41  1  0
 15 42  1  0
 16 43  1  0
 20 44  1  0
 21 45  1  0
 24 46  1  0
 24 47  1  0
 25 48  1  0
 25 49  1  0
 27 50  1  0
 27 51  1  0
 27 52  1  0
 28 53  1  0
 28 54  1  0
 28 55  1  0
 29 56  1  0
 30 57  1  0
 31 58  1  0
M  END
$$$$
