
     RDKit          3D

 42 44  0  0  0  0  0  0  0  0999 V2000
    6.2611   -2.0632    1.1804 C   0  0  0  0  0  0  0  0  0  0  0  0
    4.8684   -2.1889    1.4356 O   0  0  0  0  0  0  0  0  0  0  0  0
    4.0133   -1.5404    0.5866 C   0  0  0  0  0  0  0  0  0  0  0  0
    4.3834   -0.7558   -0.5100 C   0  0  0  0  0  0  0  0  0  0  0  0
    3.4048   -0.1500   -1.3046 C   0  0  0  0  0  0  0  0  0  0  0  0
    3.6337    0.6272   -2.4079 O   0  0  0  0  0  0  0  0  0  0  0  0
    4.9874    0.8205   -2.7979 C   0  0  0  0  0  0  0  0  0  0  0  0
    2.0532   -0.3209   -0.9929 C   0  0  0  0  0  0  0  0  0  0  0  0
    1.6753   -1.0912    0.1117 C   0  0  0  0  0  0  0  0  0  0  0  0
    0.2443   -1.3042    0.4771 C   0  0  0  0  0  0  0  0  0  0  0  0
   -0.0578   -2.3762    0.9870 O   0  0  0  0  0  0  0  0  0  0  0  0
   -0.5813   -0.2289    0.2146 N   0  0  0  0  0  0  0  0  0  0  0  0
   -1.9492   -0.1346    0.4367 C   0  0  0  0  0  0  0  0  0  0  0  0
   -2.8461   -1.4548    1.0567 S   0  0  0  0  0  0  0  0  0  0  0  0
   -4.2432   -0.5496    1.0458 C   0  0  0  0  0  0  0  0  0  0  0  0
   -4.0846    0.7238    0.5725 C   0  0  0  0  0  0  0  0  0  0  0  0
   -2.7383    0.9947    0.1813 C   0  0  0  0  0  0  0  0  0  0  0  0
   -2.1702    2.2169   -0.3845 C   0  0  0  0  0  0  0  0  0  0  0  0
   -3.0492    3.1755   -0.7960 N   0  0  0  0  0  0  0  0  0  0  0  0
   -0.9621    2.3881   -0.5343 O   0  0  0  0  0  0  0  0  0  0  0  0
   -5.3802    1.4539    0.6201 C   0  0  0  0  0  0  0  0  0  0  0  0
   -6.2589    0.5352    1.5246 C   0  0  0  0  0  0  0  0  0  0  0  0
   -5.6218   -0.8839    1.4697 C   0  0  0  0  0  0  0  0  0  0  0  0
    2.6606   -1.7094    0.8884 C   0  0  0  0  0  0  0  0  0  0  0  0
    6.7944   -2.6418    1.9408 H   0  0  0  0  0  0  0  0  0  0  0  0
    6.5224   -2.4786    0.2018 H   0  0  0  0  0  0  0  0  0  0  0  0
    6.5849   -1.0210    1.2677 H   0  0  0  0  0  0  0  0  0  0  0  0
    5.4305   -0.6216   -0.7471 H   0  0  0  0  0  0  0  0  0  0  0  0
    5.4620   -0.1308   -3.0595 H   0  0  0  0  0  0  0  0  0  0  0  0
    5.5513    1.3439   -2.0191 H   0  0  0  0  0  0  0  0  0  0  0  0
    4.9911    1.4509   -3.6923 H   0  0  0  0  0  0  0  0  0  0  0  0
    1.3089    0.1360   -1.6402 H   0  0  0  0  0  0  0  0  0  0  0  0
   -0.1587    0.6381   -0.1144 H   0  0  0  0  0  0  0  0  0  0  0  0
   -4.0269    2.9746   -0.9319 H   0  0  0  0  0  0  0  0  0  0  0  0
   -2.6521    3.9533   -1.3051 H   0  0  0  0  0  0  0  0  0  0  0  0
   -5.2898    2.4540    1.0524 H   0  0  0  0  0  0  0  0  0  0  0  0
   -5.8154    1.5254   -0.3823 H   0  0  0  0  0  0  0  0  0  0  0  0
   -6.2166    0.9065    2.5574 H   0  0  0  0  0  0  0  0  0  0  0  0
   -7.3100    0.5333    1.2191 H   0  0  0  0  0  0  0  0  0  0  0  0
   -5.6706   -1.3787    2.4434 H   0  0  0  0  0  0  0  0  0  0  0  0
   -6.1218   -1.5014    0.7164 H   0  0  0  0  0  0  0  0  0  0  0  0
    2.3736   -2.3257    1.7387 H   0  0  0  0  0  0  0  0  0  0  0  0
  1  2  1  0
  2  3  1  0
  3  4  2  0
  4  5  1  0
  5  6  1  0
  6  7  1  0
  5  8  2  0
  8  9  1  0
  9 10  1  0
 10 11  2  0
 10 12  1  0
 12 13  1  0
 13 14  1  0
 14 15  1  0
 15 16  2  0
 16 17  1  0
 17 18  1  0
 18 19  1  0
 18 20  2  0
 16 21  1  0
 21 22  1  0
 22 23  1  0
  9 24  2  0
 24  3  1  0
 17 13  2  0
 23 15  1  0
  1 25  1  0
  1 26  1  0
  1 27  1  0
  4 28  1  0
  7 29  1  0
  7 30  1  0
  7 31  1  0
  8 32  1  0
 12 33  1  0
 19 34  1  0
 19 35  1  0
 21 36  1  0
 21 37  1  0
 22 38  1  0
 22 39  1  0
 23 40  1  0
 23 41  1  0
 24 42  1  0
M  END
$$$$
