
     RDKit          3D

 51 53  0  0  0  0  0  0  0  0999 V2000
  -10.3004    0.7120   -0.7793 C   0  0  0  0  0  0  0  0  0  0  0  0
   -8.8037    0.6386   -0.7229 C   0  0  0  0  0  0  0  0  0  0  0  0
   -8.0411    0.7898   -1.8840 C   0  0  0  0  0  0  0  0  0  0  0  0
   -6.6463    0.6957   -1.8327 C   0  0  0  0  0  0  0  0  0  0  0  0
   -5.9887    0.4392   -0.6233 C   0  0  0  0  0  0  0  0  0  0  0  0
   -4.5799    0.3671   -0.6605 N   0  0  0  0  0  0  0  0  0  0  0  0
   -3.7134    0.1569    0.4075 C   0  0  0  0  0  0  0  0  0  0  0  0
   -4.0393    0.0017    1.5790 O   0  0  0  0  0  0  0  0  0  0  0  0
   -2.2472    0.1463   -0.0512 C   0  0  0  0  0  0  0  0  0  0  0  0
   -1.3579   -0.0732    1.0316 O   0  0  0  0  0  0  0  0  0  0  0  0
   -0.0190   -0.0475    0.7606 C   0  0  0  0  0  0  0  0  0  0  0  0
    0.8037   -0.1551    1.8847 C   0  0  0  0  0  0  0  0  0  0  0  0
    2.1951   -0.1384    1.7569 C   0  0  0  0  0  0  0  0  0  0  0  0
    2.7735   -0.0378    0.4910 C   0  0  0  0  0  0  0  0  0  0  0  0
    4.1975    0.0653    0.2960 N   0  0  0  0  0  0  0  0  0  0  0  0
    4.7481    1.3989    0.6405 C   0  0  0  0  0  0  0  0  0  0  0  0
    5.0874   -1.2661    0.9180 S   0  0  0  0  0  6  0  0  0  0  0  0
    5.3665   -1.0117    2.3171 O   0  0  0  0  0  0  0  0  0  0  0  0
    4.4690   -2.5027    0.4877 O   0  0  0  0  0  0  0  0  0  0  0  0
    6.6231   -1.1312    0.0235 C   0  0  0  0  0  0  0  0  0  0  0  0
    6.6403   -1.4533   -1.3399 C   0  0  0  0  0  0  0  0  0  0  0  0
    7.8371   -1.3600   -2.0494 C   0  0  0  0  0  0  0  0  0  0  0  0
    8.9958   -0.9547   -1.3924 C   0  0  0  0  0  0  0  0  0  0  0  0
   10.1429   -0.8637   -2.0783 F   0  0  0  0  0  0  0  0  0  0  0  0
    8.9843   -0.6436   -0.0354 C   0  0  0  0  0  0  0  0  0  0  0  0
    7.7921   -0.7363    0.6842 C   0  0  0  0  0  0  0  0  0  0  0  0
    1.9564    0.0868   -0.6330 C   0  0  0  0  0  0  0  0  0  0  0  0
    0.5630    0.0728   -0.5013 C   0  0  0  0  0  0  0  0  0  0  0  0
   -6.7530    0.2698    0.5316 C   0  0  0  0  0  0  0  0  0  0  0  0
   -8.1494    0.3631    0.4814 C   0  0  0  0  0  0  0  0  0  0  0  0
  -10.6233    1.4645   -1.5061 H   0  0  0  0  0  0  0  0  0  0  0  0
  -10.7132   -0.2598   -1.0656 H   0  0  0  0  0  0  0  0  0  0  0  0
  -10.7167    1.0004    0.1926 H   0  0  0  0  0  0  0  0  0  0  0  0
   -8.5270    0.9836   -2.8373 H   0  0  0  0  0  0  0  0  0  0  0  0
   -6.0870    0.8271   -2.7553 H   0  0  0  0  0  0  0  0  0  0  0  0
   -4.1616    0.4947   -1.5720 H   0  0  0  0  0  0  0  0  0  0  0  0
   -2.1418   -0.6553   -0.7906 H   0  0  0  0  0  0  0  0  0  0  0  0
   -2.0442    1.1214   -0.5071 H   0  0  0  0  0  0  0  0  0  0  0  0
    0.3551   -0.2500    2.8716 H   0  0  0  0  0  0  0  0  0  0  0  0
    2.8078   -0.2070    2.6517 H   0  0  0  0  0  0  0  0  0  0  0  0
    4.1421    2.1881    0.1828 H   0  0  0  0  0  0  0  0  0  0  0  0
    4.7593    1.5582    1.7224 H   0  0  0  0  0  0  0  0  0  0  0  0
    5.7612    1.5119    0.2464 H   0  0  0  0  0  0  0  0  0  0  0  0
    5.7315   -1.7792   -1.8424 H   0  0  0  0  0  0  0  0  0  0  0  0
    7.8772   -1.6057   -3.1064 H   0  0  0  0  0  0  0  0  0  0  0  0
    9.9050   -0.3379    0.4517 H   0  0  0  0  0  0  0  0  0  0  0  0
    7.7835   -0.5021    1.7464 H   0  0  0  0  0  0  0  0  0  0  0  0
    2.4035    0.1835   -1.6185 H   0  0  0  0  0  0  0  0  0  0  0  0
   -0.0314    0.1524   -1.4037 H   0  0  0  0  0  0  0  0  0  0  0  0
   -6.2980    0.0593    1.4941 H   0  0  0  0  0  0  0  0  0  0  0  0
   -8.7185    0.2233    1.3980 H   0  0  0  0  0  0  0  0  0  0  0  0
  1  2  1  0
  2  3  2  0
  3  4  1  0
  4  5  2  0
  5  6  1  0
  6  7  1  0
  7  8  2  0
  7  9  1  0
  9 10  1  0
 10 11  1  0
 11 12  2  0
 12 13  1  0
 13 14  2  0
 14 15  1  0
 15 16  1  0
 15 17  1  0
 17 18  2  0
 17 19  2  0
 17 20  1  0
 20 21  2  0
 21 22  1  0
 22 23  2  0
 23 24  1  0
 23 25  1  0
 25 26  2  0
 14 27  1  0
 27 28  2  0
  5 29  1  0
 29 30  2  0
 30  2  1  0
 28 11  1  0
 26 20  1  0
  1 31  1  0
  1 32  1  0
  1 33  1  0
  3 34  1  0
  4 35  1  0
  6 36  1  0
  9 37  1  0
  9 38  1  0
 12 39  1  0
 13 40  1  0
 16 41  1  0
 16 42  1  0
 16 43  1  0
 21 44  1  0
 22 45  1  0
 25 46  1  0
 26 47  1  0
 27 48  1  0
 28 49  1  0
 29 50  1  0
 30 51  1  0
M  END
$$$$
