
     RDKit          3D

 60 64  0  0  0  0  0  0  0  0999 V2000
   -7.8154    0.0085    2.8172 C   0  0  0  0  0  0  0  0  0  0  0  0
   -7.0941    0.3662    1.5515 C   0  0  0  0  0  0  0  0  0  0  0  0
   -6.0957   -0.4720    1.0425 C   0  0  0  0  0  0  0  0  0  0  0  0
   -5.4019   -0.1239   -0.1190 C   0  0  0  0  0  0  0  0  0  0  0  0
   -5.6923    1.0715   -0.7908 C   0  0  0  0  0  0  0  0  0  0  0  0
   -4.9336    1.4579   -2.0356 C   0  0  0  0  0  0  0  0  0  0  0  0
   -3.8576    2.3778   -1.7340 N   0  0  0  0  0  0  0  0  0  0  0  0
   -4.0327    3.7187   -1.8510 N   0  0  0  0  0  0  0  0  0  0  0  0
   -2.8891    4.3095   -1.5018 N   0  0  0  0  0  0  0  0  0  0  0  0
   -2.0039    3.3238   -1.1916 C   0  0  0  0  0  0  0  0  0  0  0  0
   -0.6372    3.3875   -0.7523 C   0  0  0  0  0  0  0  0  0  0  0  0
    0.0210    4.4086   -0.5863 O   0  0  0  0  0  0  0  0  0  0  0  0
   -0.0988    2.1241   -0.5322 N   0  0  0  0  0  0  0  0  0  0  0  0
   -0.7792    0.9330   -0.7570 C   0  0  0  0  0  0  0  0  0  0  0  0
   -0.0222   -0.3603   -0.4771 C   0  0  0  0  0  0  0  0  0  0  0  0
    1.2697   -0.4673   -1.2927 C   0  0  0  0  0  0  0  0  0  0  0  0
    2.2867   -1.3478   -0.5806 C   0  0  0  0  0  0  0  0  0  0  0  0
    2.6936   -0.7057    0.6960 N   0  0  0  0  0  0  0  0  0  0  0  0
    3.8179   -1.6074    1.6327 S   0  0  0  0  0  6  0  0  0  0  0  0
    3.2603   -2.9354    1.7951 O   0  0  0  0  0  0  0  0  0  0  0  0
    4.1958   -0.8027    2.7755 O   0  0  0  0  0  0  0  0  0  0  0  0
    5.2349   -1.7052    0.5693 C   0  0  0  0  0  0  0  0  0  0  0  0
    5.6454   -2.9369    0.0544 C   0  0  0  0  0  0  0  0  0  0  0  0
    6.7702   -2.9935   -0.7714 C   0  0  0  0  0  0  0  0  0  0  0  0
    7.4816   -1.8259   -1.0876 C   0  0  0  0  0  0  0  0  0  0  0  0
    8.7127   -1.8996   -1.9440 C   0  0  0  0  0  0  0  0  0  0  0  0
    7.0697   -0.6001   -0.5443 C   0  0  0  0  0  0  0  0  0  0  0  0
    5.9464   -0.5365    0.2824 C   0  0  0  0  0  0  0  0  0  0  0  0
    1.5858   -0.1156    1.4995 C   0  0  0  0  0  0  0  0  0  0  0  0
    0.2075   -0.5610    1.0271 C   0  0  0  0  0  0  0  0  0  0  0  0
   -2.0177    0.8656   -1.1653 N   0  0  0  0  0  0  0  0  0  0  0  0
   -2.5785    2.0862   -1.3536 C   0  0  0  0  0  0  0  0  0  0  0  0
   -6.6771    1.9194   -0.2665 C   0  0  0  0  0  0  0  0  0  0  0  0
   -7.3682    1.5718    0.8969 C   0  0  0  0  0  0  0  0  0  0  0  0
   -7.9221   -1.0789    2.9137 H   0  0  0  0  0  0  0  0  0  0  0  0
   -8.8256    0.4345    2.8244 H   0  0  0  0  0  0  0  0  0  0  0  0
   -7.2649    0.3904    3.6831 H   0  0  0  0  0  0  0  0  0  0  0  0
   -5.8506   -1.4024    1.5502 H   0  0  0  0  0  0  0  0  0  0  0  0
   -4.6261   -0.7901   -0.4903 H   0  0  0  0  0  0  0  0  0  0  0  0
   -5.6000    1.9343   -2.7645 H   0  0  0  0  0  0  0  0  0  0  0  0
   -4.4993    0.5796   -2.5256 H   0  0  0  0  0  0  0  0  0  0  0  0
    0.8689    2.1356   -0.2451 H   0  0  0  0  0  0  0  0  0  0  0  0
   -0.6864   -1.1753   -0.8014 H   0  0  0  0  0  0  0  0  0  0  0  0
    1.7157    0.5152   -1.4860 H   0  0  0  0  0  0  0  0  0  0  0  0
    1.0392   -0.8919   -2.2778 H   0  0  0  0  0  0  0  0  0  0  0  0
    3.1609   -1.4533   -1.2305 H   0  0  0  0  0  0  0  0  0  0  0  0
    1.8692   -2.3444   -0.4017 H   0  0  0  0  0  0  0  0  0  0  0  0
    5.1073   -3.8507    0.2946 H   0  0  0  0  0  0  0  0  0  0  0  0
    7.0950   -3.9560   -1.1628 H   0  0  0  0  0  0  0  0  0  0  0  0
    9.5915   -2.1110   -1.3231 H   0  0  0  0  0  0  0  0  0  0  0  0
    8.6128   -2.6873   -2.6990 H   0  0  0  0  0  0  0  0  0  0  0  0
    8.8742   -0.9548   -2.4775 H   0  0  0  0  0  0  0  0  0  0  0  0
    7.6273    0.3117   -0.7573 H   0  0  0  0  0  0  0  0  0  0  0  0
    5.6354    0.4171    0.7047 H   0  0  0  0  0  0  0  0  0  0  0  0
    1.6834    0.9739    1.4364 H   0  0  0  0  0  0  0  0  0  0  0  0
    1.6813   -0.3682    2.5626 H   0  0  0  0  0  0  0  0  0  0  0  0
    0.1000   -1.6311    1.2528 H   0  0  0  0  0  0  0  0  0  0  0  0
   -0.5637   -0.0472    1.6136 H   0  0  0  0  0  0  0  0  0  0  0  0
   -6.9063    2.8649   -0.7544 H   0  0  0  0  0  0  0  0  0  0  0  0
   -8.1213    2.2522    1.2906 H   0  0  0  0  0  0  0  0  0  0  0  0
  1  2  1  0
  2  3  2  0
  3  4  1  0
  4  5  2  0
  5  6  1  0
  6  7  1  0
  7  8  1  0
  8  9  2  0
  9 10  1  0
 10 11  1  0
 11 12  2  0
 11 13  1  0
 13 14  1  0
 14 15  1  0
 15 16  1  0
 16 17  1  0
 17 18  1  0
 18 19  1  0
 19 20  2  0
 19 21  2  0
 19 22  1  0
 22 23  2  0
 23 24  1  0
 24 25  2  0
 25 26  1  0
 25 27  1  0
 27 28  2  0
 18 29  1  0
 29 30  1  0
 14 31  2  0
 31 32  1  0
  5 33  1  0
 33 34  2  0
 34  2  1  0
 32  7  1  0
 32 10  2  0
 30 15  1  0
 28 22  1  0
  1 35  1  0
  1 36  1  0
  1 37  1  0
  3 38  1  0
  4 39  1  0
  6 40  1  0
  6 41  1  0
 13 42  1  0
 15 43  1  0
 16 44  1  0
 16 45  1  0
 17 46  1  0
 17 47  1  0
 23 48  1  0
 24 49  1  0
 26 50  1  0
 26 51  1  0
 26 52  1  0
 27 53  1  0
 28 54  1  0
 29 55  1  0
 29 56  1  0
 30 57  1  0
 30 58  1  0
 33 59  1  0
 34 60  1  0
M  END
$$$$
