
     RDKit          3D

 58 62  0  0  0  0  0  0  0  0999 V2000
    8.8832   -0.8983    1.4941 C   0  0  0  0  0  0  0  0  0  0  0  0
    8.0796    0.0663    2.1615 O   0  0  0  0  0  0  0  0  0  0  0  0
    6.7593    0.1287    1.8092 C   0  0  0  0  0  0  0  0  0  0  0  0
    6.0193    1.0907    2.5030 C   0  0  0  0  0  0  0  0  0  0  0  0
    4.6565    1.2655    2.2470 C   0  0  0  0  0  0  0  0  0  0  0  0
    4.0092    0.4820    1.2932 C   0  0  0  0  0  0  0  0  0  0  0  0
    2.6399    0.7048    1.0637 N   0  0  0  0  0  0  0  0  0  0  0  0
    1.9823    0.0094    0.1678 C   0  0  0  0  0  0  0  0  0  0  0  0
    0.6389    0.3121   -0.0350 N   0  0  0  0  0  0  0  0  0  0  0  0
    0.0376    0.3002   -1.3768 C   0  0  0  0  0  0  0  0  0  0  0  0
   -0.9017    1.5063   -1.6005 C   0  0  0  0  0  0  0  0  0  0  0  0
   -1.9993    1.6473   -0.6176 N   0  0  0  0  0  0  0  0  0  0  0  0
   -3.2416    1.0189   -1.0996 C   0  0  0  0  0  0  0  0  0  0  0  0
   -4.4572    1.3121   -0.1994 C   0  0  0  0  0  0  0  0  0  0  0  0
   -5.7300    0.6975   -0.7507 C   0  0  0  0  0  0  0  0  0  0  0  0
   -6.4440    1.4147   -1.7281 C   0  0  0  0  0  0  0  0  0  0  0  0
   -7.6141    0.8999   -2.2839 C   0  0  0  0  0  0  0  0  0  0  0  0
   -8.0904   -0.3396   -1.8736 C   0  0  0  0  0  0  0  0  0  0  0  0
   -7.3945   -1.0664   -0.9078 C   0  0  0  0  0  0  0  0  0  0  0  0
   -6.2071   -0.5679   -0.3365 C   0  0  0  0  0  0  0  0  0  0  0  0
   -5.4975   -1.3943    0.7152 C   0  0  0  0  0  0  0  0  0  0  0  0
   -4.1745   -1.5761    0.4423 F   0  0  0  0  0  0  0  0  0  0  0  0
   -6.0122   -2.6490    0.8625 F   0  0  0  0  0  0  0  0  0  0  0  0
   -5.5513   -0.8273    1.9524 F   0  0  0  0  0  0  0  0  0  0  0  0
   -1.5883    1.1145    0.7048 C   0  0  0  0  0  0  0  0  0  0  0  0
   -0.0660    1.1500    0.9524 C   0  0  0  0  0  0  0  0  0  0  0  0
    2.6970   -1.0414   -0.5465 C   0  0  0  0  0  0  0  0  0  0  0  0
    2.2742   -2.0107   -1.4405 C   0  0  0  0  0  0  0  0  0  0  0  0
    3.4033   -2.7678   -1.8285 C   0  0  0  0  0  0  0  0  0  0  0  0
    4.4849   -2.2670   -1.1388 C   0  0  0  0  0  0  0  0  0  0  0  0
    4.0450   -1.2432   -0.3332 N   0  0  0  0  0  0  0  0  0  0  0  0
    4.7597   -0.4773    0.6031 C   0  0  0  0  0  0  0  0  0  0  0  0
    6.1269   -0.6638    0.8503 C   0  0  0  0  0  0  0  0  0  0  0  0
    9.8994   -0.8207    1.8926 H   0  0  0  0  0  0  0  0  0  0  0  0
    8.9309   -0.6957    0.4190 H   0  0  0  0  0  0  0  0  0  0  0  0
    8.5256   -1.9145    1.6903 H   0  0  0  0  0  0  0  0  0  0  0  0
    6.5076    1.7114    3.2506 H   0  0  0  0  0  0  0  0  0  0  0  0
    4.0944    2.0185    2.7926 H   0  0  0  0  0  0  0  0  0  0  0  0
   -0.5255   -0.6309   -1.5074 H   0  0  0  0  0  0  0  0  0  0  0  0
    0.8136    0.3393   -2.1497 H   0  0  0  0  0  0  0  0  0  0  0  0
   -0.2989    2.4225   -1.5396 H   0  0  0  0  0  0  0  0  0  0  0  0
   -1.2883    1.4849   -2.6271 H   0  0  0  0  0  0  0  0  0  0  0  0
   -3.1055   -0.0635   -1.2202 H   0  0  0  0  0  0  0  0  0  0  0  0
   -3.4679    1.4136   -2.0991 H   0  0  0  0  0  0  0  0  0  0  0  0
   -4.2894    0.9599    0.8233 H   0  0  0  0  0  0  0  0  0  0  0  0
   -4.5979    2.3979   -0.1107 H   0  0  0  0  0  0  0  0  0  0  0  0
   -6.0887    2.3889   -2.0613 H   0  0  0  0  0  0  0  0  0  0  0  0
   -8.1548    1.4693   -3.0360 H   0  0  0  0  0  0  0  0  0  0  0  0
   -9.0050   -0.7408   -2.3033 H   0  0  0  0  0  0  0  0  0  0  0  0
   -7.7878   -2.0343   -0.5982 H   0  0  0  0  0  0  0  0  0  0  0  0
   -2.0868    1.6978    1.4871 H   0  0  0  0  0  0  0  0  0  0  0  0
   -1.9146    0.0711    0.8147 H   0  0  0  0  0  0  0  0  0  0  0  0
    0.1265    0.7712    1.9633 H   0  0  0  0  0  0  0  0  0  0  0  0
    0.3016    2.1826    0.9037 H   0  0  0  0  0  0  0  0  0  0  0  0
    1.2602   -2.1662   -1.7805 H   0  0  0  0  0  0  0  0  0  0  0  0
    3.4244   -3.5969   -2.5241 H   0  0  0  0  0  0  0  0  0  0  0  0
    5.5182   -2.5808   -1.1522 H   0  0  0  0  0  0  0  0  0  0  0  0
    6.6815   -1.4155    0.3046 H   0  0  0  0  0  0  0  0  0  0  0  0
  1  2  1  0
  2  3  1  0
  3  4  2  0
  4  5  1  0
  5  6  2  0
  6  7  1  0
  7  8  2  0
  8  9  1  0
  9 10  1  0
 10 11  1  0
 11 12  1  0
 12 13  1  0
 13 14  1  0
 14 15  1  0
 15 16  2  0
 16 17  1  0
 17 18  2  0
 18 19  1  0
 19 20  2  0
 20 21  1  0
 21 22  1  0
 21 23  1  0
 21 24  1  0
 12 25  1  0
 25 26  1  0
  8 27  1  0
 27 28  2  0
 28 29  1  0
 29 30  2  0
 30 31  1  0
 31 32  1  0
 32 33  2  0
 33  3  1  0
 32  6  1  0
 26  9  1  0
 31 27  1  0
 20 15  1  0
  1 34  1  0
  1 35  1  0
  1 36  1  0
  4 37  1  0
  5 38  1  0
 10 39  1  0
 10 40  1  0
 11 41  1  0
 11 42  1  0
 13 43  1  0
 13 44  1  0
 14 45  1  0
 14 46  1  0
 16 47  1  0
 17 48  1  0
 18 49  1  0
 19 50  1  0
 25 51  1  0
 25 52  1  0
 26 53  1  0
 26 54  1  0
 28 55  1  0
 29 56  1  0
 30 57  1  0
 33 58  1  0
M  END
$$$$
