
     RDKit          3D

 68 71  0  0  0  0  0  0  0  0999 V2000
   -2.1521   -6.7087    2.3349 C   0  0  0  0  0  0  0  0  0  0  0  0
   -2.1557   -5.4341    1.5452 C   0  0  0  0  0  0  0  0  0  0  0  0
   -2.1790   -5.4485    0.1480 C   0  0  0  0  0  0  0  0  0  0  0  0
   -2.1650   -4.2506   -0.5735 C   0  0  0  0  0  0  0  0  0  0  0  0
   -2.1325   -3.0081    0.0846 C   0  0  0  0  0  0  0  0  0  0  0  0
   -2.0701   -1.7210   -0.7314 C   0  0  0  0  0  0  0  0  0  0  0  0
   -3.0647   -0.5977   -0.3087 C   0  0  0  0  0  0  0  0  0  0  0  0
   -4.0891   -0.7944    0.3412 O   0  0  0  0  0  0  0  0  0  0  0  0
   -2.7849    0.6354   -0.8821 N   0  0  0  0  0  0  0  0  0  0  0  0
   -3.5004    1.8261   -0.4939 C   0  0  0  0  0  0  0  0  0  0  0  0
   -3.3100    2.9660   -1.4869 C   0  0  0  0  0  0  0  0  0  0  0  0
   -3.7525    4.1869   -0.6963 C   0  0  0  0  0  0  0  0  0  0  0  0
   -3.3271    3.9105    0.7447 C   0  0  0  0  0  0  0  0  0  0  0  0
   -2.9874    2.4217    0.8163 C   0  0  0  0  0  0  0  0  0  0  0  0
   -0.6669   -1.2651   -0.9261 N   0  0  0  0  0  0  0  0  0  0  0  0
   -0.0288   -1.6289   -2.1920 C   0  0  0  0  0  0  0  0  0  0  0  0
   -0.2372   -0.5368   -3.1796 C   0  0  0  0  0  0  0  0  0  0  0  0
    0.5904    0.4231   -3.7261 C   0  0  0  0  0  0  0  0  0  0  0  0
   -0.2083    1.1799   -4.6188 C   0  0  0  0  0  0  0  0  0  0  0  0
   -1.4683    0.6323   -4.5643 C   0  0  0  0  0  0  0  0  0  0  0  0
   -1.4953   -0.4105   -3.6950 O   0  0  0  0  0  0  0  0  0  0  0  0
   -0.0018   -0.6654    0.1351 C   0  0  0  0  0  0  0  0  0  0  0  0
   -0.5774   -0.3463    1.1748 O   0  0  0  0  0  0  0  0  0  0  0  0
    1.4768   -0.3666   -0.0328 C   0  0  0  0  0  0  0  0  0  0  0  0
    2.0326    0.3635    1.1858 C   0  0  0  0  0  0  0  0  0  0  0  0
    3.4759    0.7761    0.9879 C   0  0  0  0  0  0  0  0  0  0  0  0
    4.1233    0.4376    0.0037 O   0  0  0  0  0  0  0  0  0  0  0  0
    3.9307    1.5485    2.0328 N   0  0  0  0  0  0  0  0  0  0  0  0
    5.1772    2.1266    2.1139 C   0  0  0  0  0  0  0  0  0  0  0  0
    6.2701    2.0425    1.2237 C   0  0  0  0  0  0  0  0  0  0  0  0
    7.2397    2.8293    1.7941 C   0  0  0  0  0  0  0  0  0  0  0  0
    8.6205    3.1876    1.4254 C   0  0  0  0  0  0  0  0  0  0  0  0
    6.7625    3.3510    2.9554 O   0  0  0  0  0  0  0  0  0  0  0  0
    5.4661    2.9142    3.1552 N   0  0  0  0  0  0  0  0  0  0  0  0
   -2.1166   -3.0050    1.4859 C   0  0  0  0  0  0  0  0  0  0  0  0
   -2.1228   -4.2022    2.2073 C   0  0  0  0  0  0  0  0  0  0  0  0
   -1.2138   -6.8027    2.8895 H   0  0  0  0  0  0  0  0  0  0  0  0
   -2.9882   -6.7201    3.0416 H   0  0  0  0  0  0  0  0  0  0  0  0
   -2.2505   -7.5843    1.6855 H   0  0  0  0  0  0  0  0  0  0  0  0
   -2.2081   -6.3920   -0.3924 H   0  0  0  0  0  0  0  0  0  0  0  0
   -2.1883   -4.2984   -1.6609 H   0  0  0  0  0  0  0  0  0  0  0  0
   -2.4513   -1.9756   -1.7316 H   0  0  0  0  0  0  0  0  0  0  0  0
   -1.8543    0.7372   -1.2736 H   0  0  0  0  0  0  0  0  0  0  0  0
   -4.5671    1.5877   -0.3950 H   0  0  0  0  0  0  0  0  0  0  0  0
   -3.8955    2.8247   -2.4002 H   0  0  0  0  0  0  0  0  0  0  0  0
   -2.2574    3.0662   -1.7789 H   0  0  0  0  0  0  0  0  0  0  0  0
   -4.8431    4.2870   -0.7429 H   0  0  0  0  0  0  0  0  0  0  0  0
   -3.3167    5.1114   -1.0868 H   0  0  0  0  0  0  0  0  0  0  0  0
   -4.1326    4.1706    1.4401 H   0  0  0  0  0  0  0  0  0  0  0  0
   -2.4530    4.5122    1.0194 H   0  0  0  0  0  0  0  0  0  0  0  0
   -1.9010    2.2985    0.9033 H   0  0  0  0  0  0  0  0  0  0  0  0
   -3.4356    1.9385    1.6908 H   0  0  0  0  0  0  0  0  0  0  0  0
   -0.4519   -2.5690   -2.5615 H   0  0  0  0  0  0  0  0  0  0  0  0
    1.0414   -1.8040   -2.0536 H   0  0  0  0  0  0  0  0  0  0  0  0
    1.6418    0.5607   -3.5098 H   0  0  0  0  0  0  0  0  0  0  0  0
    0.0969    2.0172   -5.2321 H   0  0  0  0  0  0  0  0  0  0  0  0
   -2.4045    0.8544   -5.0594 H   0  0  0  0  0  0  0  0  0  0  0  0
    1.6170    0.2555   -0.9211 H   0  0  0  0  0  0  0  0  0  0  0  0
    2.0161   -1.3103   -0.1654 H   0  0  0  0  0  0  0  0  0  0  0  0
    1.4429    1.2661    1.3833 H   0  0  0  0  0  0  0  0  0  0  0  0
    1.9736   -0.2794    2.0717 H   0  0  0  0  0  0  0  0  0  0  0  0
    3.3212    1.7829    2.8055 H   0  0  0  0  0  0  0  0  0  0  0  0
    6.3516    1.4785    0.3073 H   0  0  0  0  0  0  0  0  0  0  0  0
    9.3204    2.4459    1.8200 H   0  0  0  0  0  0  0  0  0  0  0  0
    8.8941    4.1661    1.8338 H   0  0  0  0  0  0  0  0  0  0  0  0
    8.7344    3.2322    0.3373 H   0  0  0  0  0  0  0  0  0  0  0  0
   -2.1051   -2.0647    2.0356 H   0  0  0  0  0  0  0  0  0  0  0  0
   -2.1056   -4.1622    3.2946 H   0  0  0  0  0  0  0  0  0  0  0  0
  1  2  1  0
  2  3  2  0
  3  4  1  0
  4  5  2  0
  5  6  1  0
  6  7  1  0
  7  8  2  0
  7  9  1  0
  9 10  1  0
 10 11  1  0
 11 12  1  0
 12 13  1  0
 13 14  1  0
  6 15  1  0
 15 16  1  0
 16 17  1  0
 17 18  2  0
 18 19  1  0
 19 20  2  0
 20 21  1  0
 15 22  1  0
 22 23  2  0
 22 24  1  0
 24 25  1  0
 25 26  1  0
 26 27  2  0
 26 28  1  0
 28 29  1  0
 29 30  1  0
 30 31  2  0
 31 32  1  0
 31 33  1  0
 33 34  1  0
  5 35  1  0
 35 36  2  0
 36  2  1  0
 14 10  1  0
 21 17  1  0
 34 29  2  0
  1 37  1  0
  1 38  1  0
  1 39  1  0
  3 40  1  0
  4 41  1  0
  6 42  1  0
  9 43  1  0
 10 44  1  0
 11 45  1  0
 11 46  1  0
 12 47  1  0
 12 48  1  0
 13 49  1  0
 13 50  1  0
 14 51  1  0
 14 52  1  0
 16 53  1  0
 16 54  1  0
 18 55  1  0
 19 56  1  0
 20 57  1  0
 24 58  1  0
 24 59  1  0
 25 60  1  0
 25 61  1  0
 28 62  1  0
 30 63  1  0
 32 64  1  0
 32 65  1  0
 32 66  1  0
 35 67  1  0
 36 68  1  0
M  END
$$$$
