
     RDKit          3D

 43 45  0  0  0  0  0  0  0  0999 V2000
    6.2401    0.5860   -2.8466 C   0  0  0  0  0  0  0  0  0  0  0  0
    6.0772    0.0261   -1.5492 O   0  0  0  0  0  0  0  0  0  0  0  0
    4.8314    0.1067   -0.9901 C   0  0  0  0  0  0  0  0  0  0  0  0
    3.7067    0.6794   -1.5778 C   0  0  0  0  0  0  0  0  0  0  0  0
    2.4849    0.6955   -0.8942 C   0  0  0  0  0  0  0  0  0  0  0  0
    2.3680    0.1469    0.3888 C   0  0  0  0  0  0  0  0  0  0  0  0
    1.1446    0.0811    1.1037 N   0  0  0  0  0  0  0  0  0  0  0  0
   -0.0930    0.5194    0.7340 C   0  0  0  0  0  0  0  0  0  0  0  0
   -0.8225    1.1795    1.5826 N   0  0  0  0  0  0  0  0  0  0  0  0
   -2.0598    1.5438    1.0943 C   0  0  0  0  0  0  0  0  0  0  0  0
   -2.8069    2.3012    1.7049 O   0  0  0  0  0  0  0  0  0  0  0  0
   -2.5493    1.0335   -0.2614 C   0  0  0  0  0  0  0  0  0  0  0  0
   -3.9717    1.3257   -0.6553 C   0  0  0  0  0  0  0  0  0  0  0  0
   -4.9341    0.3084   -0.0951 C   0  0  0  0  0  0  0  0  0  0  0  0
   -5.1192   -0.9226   -0.7399 C   0  0  0  0  0  0  0  0  0  0  0  0
   -5.9922   -1.8740   -0.2104 C   0  0  0  0  0  0  0  0  0  0  0  0
   -6.6828   -1.6071    0.9701 C   0  0  0  0  0  0  0  0  0  0  0  0
   -6.4993   -0.3900    1.6235 C   0  0  0  0  0  0  0  0  0  0  0  0
   -5.6274    0.5633    1.0956 C   0  0  0  0  0  0  0  0  0  0  0  0
   -1.7605    0.3438   -1.0386 N   0  0  0  0  0  0  0  0  0  0  0  0
   -0.5112    0.1491   -0.5245 N   0  0  0  0  0  0  0  0  0  0  0  0
    3.5146   -0.4327    0.9797 C   0  0  0  0  0  0  0  0  0  0  0  0
    3.3241   -0.9397    2.2449 O   0  0  0  0  0  0  0  0  0  0  0  0
    4.4338   -1.5831    2.8601 C   0  0  0  0  0  0  0  0  0  0  0  0
    4.7309   -0.4463    0.2894 C   0  0  0  0  0  0  0  0  0  0  0  0
    5.6106    0.0716   -3.5802 H   0  0  0  0  0  0  0  0  0  0  0  0
    7.2833    0.4422   -3.1441 H   0  0  0  0  0  0  0  0  0  0  0  0
    6.0412    1.6628   -2.8395 H   0  0  0  0  0  0  0  0  0  0  0  0
    3.7422    1.1289   -2.5649 H   0  0  0  0  0  0  0  0  0  0  0  0
    1.6417    1.1795   -1.3793 H   0  0  0  0  0  0  0  0  0  0  0  0
    1.3303    0.1822    2.1003 H   0  0  0  0  0  0  0  0  0  0  0  0
   -4.0416    1.3241   -1.7505 H   0  0  0  0  0  0  0  0  0  0  0  0
   -4.2494    2.3384   -0.3425 H   0  0  0  0  0  0  0  0  0  0  0  0
   -4.5804   -1.1490   -1.6580 H   0  0  0  0  0  0  0  0  0  0  0  0
   -6.1308   -2.8252   -0.7176 H   0  0  0  0  0  0  0  0  0  0  0  0
   -7.3610   -2.3488    1.3834 H   0  0  0  0  0  0  0  0  0  0  0  0
   -7.0321   -0.1830    2.5480 H   0  0  0  0  0  0  0  0  0  0  0  0
   -5.4890    1.5050    1.6248 H   0  0  0  0  0  0  0  0  0  0  0  0
    0.0564   -0.5682   -0.9737 H   0  0  0  0  0  0  0  0  0  0  0  0
    4.1057   -1.9521    3.8366 H   0  0  0  0  0  0  0  0  0  0  0  0
    5.2533   -0.8773    3.0299 H   0  0  0  0  0  0  0  0  0  0  0  0
    4.7664   -2.4457    2.2734 H   0  0  0  0  0  0  0  0  0  0  0  0
    5.6267   -0.8794    0.7220 H   0  0  0  0  0  0  0  0  0  0  0  0
  1  2  1  0
  2  3  1  0
  3  4  2  0
  4  5  1  0
  5  6  2  0
  6  7  1  0
  7  8  1  0
  8  9  2  0
  9 10  1  0
 10 11  2  0
 10 12  1  0
 12 13  1  0
 13 14  1  0
 14 15  2  0
 15 16  1  0
 16 17  2  0
 17 18  1  0
 18 19  2  0
 12 20  2  0
 20 21  1  0
  6 22  1  0
 22 23  1  0
 23 24  1  0
 22 25  2  0
 25  3  1  0
 21  8  1  0
 19 14  1  0
  1 26  1  0
  1 27  1  0
  1 28  1  0
  4 29  1  0
  5 30  1  0
  7 31  1  0
 13 32  1  0
 13 33  1  0
 15 34  1  0
 16 35  1  0
 17 36  1  0
 18 37  1  0
 19 38  1  0
 21 39  1  0
 24 40  1  0
 24 41  1  0
 24 42  1  0
 25 43  1  0
M  END
$$$$
