
     RDKit          3D

 32 32  0  0  0  0  0  0  0  0999 V2000
   -5.1432    0.5939   -2.1854 C   0  0  0  0  0  0  0  0  0  0  0  0
   -4.1759   -0.0889   -1.9814 C   0  0  0  0  0  0  0  0  0  0  0  0
   -2.9929   -0.9289   -1.7277 C   0  0  0  0  0  0  0  0  0  0  0  0
   -1.7574   -0.1282   -1.6826 N   0  0  0  0  0  0  0  0  0  0  0  0
   -1.3933    0.3337   -3.0280 C   0  0  0  0  0  0  0  0  0  0  0  0
   -0.6399   -0.8938   -1.1025 C   0  0  0  0  0  0  0  0  0  0  0  0
   -0.6835   -0.9434    0.4328 C   0  0  0  0  0  0  0  0  0  0  0  0
   -0.5107    0.4323    1.0805 C   0  0  0  0  0  0  0  0  0  0  0  0
    0.7608    1.0025    0.7676 O   0  0  0  0  0  0  0  0  0  0  0  0
    1.8561    0.7065    1.5318 C   0  0  0  0  0  0  0  0  0  0  0  0
    1.8597   -0.1673    2.6234 C   0  0  0  0  0  0  0  0  0  0  0  0
    3.0392   -0.4029    3.3392 C   0  0  0  0  0  0  0  0  0  0  0  0
    4.2212    0.2321    2.9666 C   0  0  0  0  0  0  0  0  0  0  0  0
    5.6654   -0.0652    3.8521 Cl  0  0  0  0  0  0  0  0  0  0  0  0
    4.2403    1.1015    1.8824 C   0  0  0  0  0  0  0  0  0  0  0  0
    3.0618    1.3351    1.1690 C   0  0  0  0  0  0  0  0  0  0  0  0
    3.1404    2.4197   -0.1779 Cl  0  0  0  0  0  0  0  0  0  0  0  0
   -5.9953    1.2076   -2.3645 H   0  0  0  0  0  0  0  0  0  0  0  0
   -3.1606   -1.4280   -0.7667 H   0  0  0  0  0  0  0  0  0  0  0  0
   -2.9213   -1.7231   -2.4816 H   0  0  0  0  0  0  0  0  0  0  0  0
   -0.5012    0.9693   -2.9854 H   0  0  0  0  0  0  0  0  0  0  0  0
   -1.1881   -0.5013   -3.7080 H   0  0  0  0  0  0  0  0  0  0  0  0
   -2.1824    0.9527   -3.4678 H   0  0  0  0  0  0  0  0  0  0  0  0
   -0.6226   -1.9152   -1.5048 H   0  0  0  0  0  0  0  0  0  0  0  0
    0.3184   -0.4402   -1.3878 H   0  0  0  0  0  0  0  0  0  0  0  0
    0.1229   -1.6087    0.7623 H   0  0  0  0  0  0  0  0  0  0  0  0
   -1.6195   -1.3909    0.7823 H   0  0  0  0  0  0  0  0  0  0  0  0
   -1.2682    1.1223    0.6918 H   0  0  0  0  0  0  0  0  0  0  0  0
   -0.6851    0.3961    2.1614 H   0  0  0  0  0  0  0  0  0  0  0  0
    0.9653   -0.6892    2.9465 H   0  0  0  0  0  0  0  0  0  0  0  0
    3.0262   -1.0847    4.1865 H   0  0  0  0  0  0  0  0  0  0  0  0
    5.1634    1.5947    1.5914 H   0  0  0  0  0  0  0  0  0  0  0  0
  1  2  3  0
  2  3  1  0
  3  4  1  0
  4  5  1  0
  4  6  1  0
  6  7  1  0
  7  8  1  0
  8  9  1  0
  9 10  1  0
 10 11  2  0
 11 12  1  0
 12 13  2  0
 13 14  1  0
 13 15  1  0
 15 16  2  0
 16 17  1  0
 16 10  1  0
  1 18  1  0
  3 19  1  0
  3 20  1  0
  5 21  1  0
  5 22  1  0
  5 23  1  0
  6 24  1  0
  6 25  1  0
  7 26  1  0
  7 27  1  0
  8 28  1  0
  8 29  1  0
 11 30  1  0
 12 31  1  0
 15 32  1  0
M  END
$$$$
