
     RDKit          3D

 57 61  0  0  0  0  0  0  0  0999 V2000
   -4.0630   -1.0683   -3.4025 C   0  0  0  0  0  0  0  0  0  0  0  0
   -3.9098   -2.0925   -2.2779 C   0  0  0  0  0  0  0  0  0  0  0  0
   -5.0688   -3.0930   -2.3302 C   0  0  0  0  0  0  0  0  0  0  0  0
   -3.8721   -1.3791   -0.9256 C   0  0  0  0  0  0  0  0  0  0  0  0
   -4.8909   -1.2967   -0.2348 O   0  0  0  0  0  0  0  0  0  0  0  0
   -2.6750   -0.7927   -0.5176 N   0  0  0  0  0  0  0  0  0  0  0  0
   -2.6833   -0.0908    0.7654 C   0  0  0  0  0  0  0  0  0  0  0  0
   -1.2807    0.1347    1.3210 C   0  0  0  0  0  0  0  0  0  0  0  0
   -0.3971    0.9299    0.3251 C   0  0  0  0  0  0  0  0  0  0  0  0
   -0.6334    0.4469   -1.1340 C   0  0  0  0  0  0  0  0  0  0  0  0
   -1.3972   -0.8717   -1.2193 C   0  0  0  0  0  0  0  0  0  0  0  0
   -0.9288    2.2825    0.4289 O   0  0  0  0  0  0  0  0  0  0  0  0
   -0.1381    3.3165    0.0283 C   0  0  0  0  0  0  0  0  0  0  0  0
   -0.7697    4.5553   -0.1016 C   0  0  0  0  0  0  0  0  0  0  0  0
   -0.0439    5.6691   -0.5272 C   0  0  0  0  0  0  0  0  0  0  0  0
    1.3100    5.5360   -0.8180 C   0  0  0  0  0  0  0  0  0  0  0  0
    2.0023    6.6053   -1.2302 F   0  0  0  0  0  0  0  0  0  0  0  0
    1.9542    4.3130   -0.6840 C   0  0  0  0  0  0  0  0  0  0  0  0
    1.2208    3.2070   -0.2471 C   0  0  0  0  0  0  0  0  0  0  0  0
    1.8715    1.9039   -0.0720 C   0  0  0  0  0  0  0  0  0  0  0  0
    2.9659    1.6981   -0.5908 O   0  0  0  0  0  0  0  0  0  0  0  0
    1.1000    0.8742    0.7463 C   0  0  0  0  0  0  0  0  0  0  0  0
    1.7513   -0.4993    0.6465 C   0  0  0  0  0  0  0  0  0  0  0  0
    2.5425   -0.4776    1.9103 C   0  0  0  0  0  0  0  0  0  0  0  0
    3.5744   -1.4989    2.2112 C   0  0  0  0  0  0  0  0  0  0  0  0
    3.8533   -2.5449    1.3245 C   0  0  0  0  0  0  0  0  0  0  0  0
    4.8288   -3.4935    1.6454 C   0  0  0  0  0  0  0  0  0  0  0  0
    5.5254   -3.4034    2.8496 C   0  0  0  0  0  0  0  0  0  0  0  0
    5.2501   -2.3653    3.7369 C   0  0  0  0  0  0  0  0  0  0  0  0
    4.2776   -1.4149    3.4195 C   0  0  0  0  0  0  0  0  0  0  0  0
    2.2296    0.4735    2.7314 N   0  0  0  0  0  0  0  0  0  0  0  0
    1.2216    1.2536    2.1271 O   0  0  0  0  0  0  0  0  0  0  0  0
   -3.2780   -0.3062   -3.3787 H   0  0  0  0  0  0  0  0  0  0  0  0
   -4.0249   -1.5611   -4.3793 H   0  0  0  0  0  0  0  0  0  0  0  0
   -5.0215   -0.5408   -3.3253 H   0  0  0  0  0  0  0  0  0  0  0  0
   -2.9862   -2.6672   -2.4084 H   0  0  0  0  0  0  0  0  0  0  0  0
   -5.0672   -3.6398   -3.2786 H   0  0  0  0  0  0  0  0  0  0  0  0
   -4.9872   -3.8238   -1.5172 H   0  0  0  0  0  0  0  0  0  0  0  0
   -6.0393   -2.5925   -2.2302 H   0  0  0  0  0  0  0  0  0  0  0  0
   -3.2715   -0.6676    1.4900 H   0  0  0  0  0  0  0  0  0  0  0  0
   -3.2032    0.8634    0.6121 H   0  0  0  0  0  0  0  0  0  0  0  0
   -1.3710    0.6791    2.2692 H   0  0  0  0  0  0  0  0  0  0  0  0
   -0.8442   -0.8415    1.5551 H   0  0  0  0  0  0  0  0  0  0  0  0
    0.3150    0.3319   -1.6711 H   0  0  0  0  0  0  0  0  0  0  0  0
   -1.2027    1.2043   -1.6898 H   0  0  0  0  0  0  0  0  0  0  0  0
   -1.5291   -1.1351   -2.2696 H   0  0  0  0  0  0  0  0  0  0  0  0
   -0.8255   -1.6868   -0.7625 H   0  0  0  0  0  0  0  0  0  0  0  0
   -1.8294    4.6527    0.1234 H   0  0  0  0  0  0  0  0  0  0  0  0
   -0.5249    6.6370   -0.6345 H   0  0  0  0  0  0  0  0  0  0  0  0
    3.0143    4.2351   -0.9072 H   0  0  0  0  0  0  0  0  0  0  0  0
    2.3765   -0.6341   -0.2392 H   0  0  0  0  0  0  0  0  0  0  0  0
    1.0444   -1.3298    0.7059 H   0  0  0  0  0  0  0  0  0  0  0  0
    3.3303   -2.6462    0.3792 H   0  0  0  0  0  0  0  0  0  0  0  0
    5.0477   -4.3039    0.9546 H   0  0  0  0  0  0  0  0  0  0  0  0
    6.2847   -4.1418    3.0970 H   0  0  0  0  0  0  0  0  0  0  0  0
    5.7920   -2.2931    4.6767 H   0  0  0  0  0  0  0  0  0  0  0  0
    4.0739   -0.6091    4.1218 H   0  0  0  0  0  0  0  0  0  0  0  0
  1  2  1  0
  2  3  1  0
  2  4  1  0
  4  5  2  0
  4  6  1  0
  6  7  1  0
  7  8  1  0
  8  9  1  0
  9 10  1  0
 10 11  1  0
  9 12  1  0
 12 13  1  0
 13 14  2  0
 14 15  1  0
 15 16  2  0
 16 17  1  0
 16 18  1  0
 18 19  2  0
 19 20  1  0
 20 21  2  0
 20 22  1  0
 22 23  1  0
 23 24  1  0
 24 25  1  0
 25 26  2  0
 26 27  1  0
 27 28  2  0
 28 29  1  0
 29 30  2  0
 24 31  2  0
 31 32  1  0
 11  6  1  0
 19 13  1  0
 32 22  1  0
 22  9  1  0
 30 25  1  0
  1 33  1  0
  1 34  1  0
  1 35  1  0
  2 36  1  0
  3 37  1  0
  3 38  1  0
  3 39  1  0
  7 40  1  0
  7 41  1  0
  8 42  1  0
  8 43  1  0
 10 44  1  0
 10 45  1  0
 11 46  1  0
 11 47  1  0
 14 48  1  0
 15 49  1  0
 18 50  1  0
 23 51  1  0
 23 52  1  0
 26 53  1  0
 27 54  1  0
 28 55  1  0
 29 56  1  0
 30 57  1  0
M  END
$$$$
