
     RDKit          3D

 33 35  0  0  0  0  0  0  0  0999 V2000
    5.0208    1.1395   -1.3331 C   0  0  0  0  0  0  0  0  0  0  0  0
    4.3077    0.3739   -0.3367 N   0  0  0  0  0  0  0  0  0  0  0  0
    4.8510   -0.3979    0.6445 C   0  0  0  0  0  0  0  0  0  0  0  0
    3.7793   -0.9313    1.3305 C   0  0  0  0  0  0  0  0  0  0  0  0
    3.8618   -1.8410    2.4219 N   0  0  0  0  0  4  0  0  0  0  0  0
    4.5797   -1.4997    3.3700 O   0  0  0  0  0  0  0  0  0  0  0  0
    3.2737   -2.9196    2.2921 O   0  0  0  0  0  1  0  0  0  0  0  0
    2.6237   -0.4003    0.7189 C   0  0  0  0  0  0  0  0  0  0  0  0
    1.2159   -0.5857    1.1090 C   0  0  0  0  0  0  0  0  0  0  0  0
    0.9175   -1.1466    2.1531 O   0  0  0  0  0  0  0  0  0  0  0  0
    0.3661   -0.0221    0.1743 N   0  0  0  0  0  0  0  0  0  0  0  0
   -1.0177    0.0087    0.1876 C   0  0  0  0  0  0  0  0  0  0  0  0
   -1.9123   -0.7456    1.4486 S   0  0  0  0  0  0  0  0  0  0  0  0
   -3.3553   -0.2814    0.7525 C   0  0  0  0  0  0  0  0  0  0  0  0
   -3.2113    0.4272   -0.4063 C   0  0  0  0  0  0  0  0  0  0  0  0
   -1.8527    0.6060   -0.7520 C   0  0  0  0  0  0  0  0  0  0  0  0
   -1.3875    1.3061   -1.9092 C   0  0  0  0  0  0  0  0  0  0  0  0
   -0.9923    1.8704   -2.8432 N   0  0  0  0  0  0  0  0  0  0  0  0
   -4.5325    0.8080   -0.9665 C   0  0  0  0  0  0  0  0  0  0  0  0
   -5.5121   -0.0868   -0.1425 C   0  0  0  0  0  0  0  0  0  0  0  0
   -4.7619   -0.4970    1.1626 C   0  0  0  0  0  0  0  0  0  0  0  0
    2.9590    0.3856   -0.3325 N   0  0  0  0  0  0  0  0  0  0  0  0
    6.0963    1.0141   -1.1861 H   0  0  0  0  0  0  0  0  0  0  0  0
    4.7321    0.7708   -2.3205 H   0  0  0  0  0  0  0  0  0  0  0  0
    4.7472    2.1912   -1.2184 H   0  0  0  0  0  0  0  0  0  0  0  0
    5.9191   -0.5166    0.7697 H   0  0  0  0  0  0  0  0  0  0  0  0
    0.8519    0.4366   -0.5957 H   0  0  0  0  0  0  0  0  0  0  0  0
   -4.7356    1.8681   -0.7818 H   0  0  0  0  0  0  0  0  0  0  0  0
   -4.6157    0.6025   -2.0373 H   0  0  0  0  0  0  0  0  0  0  0  0
   -5.7394   -0.9917   -0.7219 H   0  0  0  0  0  0  0  0  0  0  0  0
   -6.4613    0.4173    0.0641 H   0  0  0  0  0  0  0  0  0  0  0  0
   -4.9810   -1.5324    1.4370 H   0  0  0  0  0  0  0  0  0  0  0  0
   -5.0339    0.1695    1.9874 H   0  0  0  0  0  0  0  0  0  0  0  0
  1  2  1  0
  2  3  1  0
  3  4  2  0
  4  5  1  0
  5  6  2  0
  5  7  1  0
  4  8  1  0
  8  9  1  0
  9 10  2  0
  9 11  1  0
 11 12  1  0
 12 13  1  0
 13 14  1  0
 14 15  2  0
 15 16  1  0
 16 17  1  0
 17 18  3  0
 15 19  1  0
 19 20  1  0
 20 21  1  0
  8 22  2  0
 22  2  1  0
 16 12  2  0
 21 14  1  0
  1 23  1  0
  1 24  1  0
  1 25  1  0
  3 26  1  0
 11 27  1  0
 19 28  1  0
 19 29  1  0
 20 30  1  0
 20 31  1  0
 21 32  1  0
 21 33  1  0
M  CHG  2   5   1   7  -1
M  END
$$$$
