
     RDKit          3D

 39 41  0  0  0  0  0  0  0  0999 V2000
    4.6090   -1.1736    0.6147 C   0  0  0  0  0  0  0  0  0  0  0  0
    3.5329   -1.2842   -0.3740 N   0  0  0  0  0  0  0  0  0  0  0  0
    4.1025   -1.3180   -1.7223 C   0  0  0  0  0  0  0  0  0  0  0  0
    2.5749   -0.1765   -0.2034 C   0  0  0  0  0  0  0  0  0  0  0  0
    1.2925   -0.3451   -1.0376 C   0  0  0  0  0  0  0  0  0  0  0  0
    0.2717    0.7141   -0.6990 C   0  0  0  0  0  0  0  0  0  0  0  0
   -0.9378    0.5833   -0.1063 C   0  0  0  0  0  0  0  0  0  0  0  0
   -1.8183    1.7865   -0.0785 C   0  0  0  0  0  0  0  0  0  0  0  0
   -1.3493    3.0443    0.3340 C   0  0  0  0  0  0  0  0  0  0  0  0
   -2.2019    4.1500    0.3502 C   0  0  0  0  0  0  0  0  0  0  0  0
   -3.5326    4.0103   -0.0363 C   0  0  0  0  0  0  0  0  0  0  0  0
   -4.0179    2.7621   -0.4281 C   0  0  0  0  0  0  0  0  0  0  0  0
   -3.1725    1.6450   -0.4400 C   0  0  0  0  0  0  0  0  0  0  0  0
   -3.8627    0.0626   -0.9268 S   0  0  0  0  0  0  0  0  0  0  0  0
   -2.8127   -1.0571    0.0002 C   0  0  0  0  0  0  0  0  0  0  0  0
   -3.3562   -2.2824    0.4098 C   0  0  0  0  0  0  0  0  0  0  0  0
   -2.6009   -3.1643    1.1837 C   0  0  0  0  0  0  0  0  0  0  0  0
   -1.3066   -2.8160    1.5593 C   0  0  0  0  0  0  0  0  0  0  0  0
   -0.3877   -3.8877    2.5434 Cl  0  0  0  0  0  0  0  0  0  0  0  0
   -0.7512   -1.6035    1.1516 C   0  0  0  0  0  0  0  0  0  0  0  0
   -1.4843   -0.7265    0.3380 C   0  0  0  0  0  0  0  0  0  0  0  0
    4.2035   -1.2090    1.6321 H   0  0  0  0  0  0  0  0  0  0  0  0
    5.1800   -0.2449    0.5017 H   0  0  0  0  0  0  0  0  0  0  0  0
    5.3016   -2.0183    0.5273 H   0  0  0  0  0  0  0  0  0  0  0  0
    4.6037   -0.3789   -1.9829 H   0  0  0  0  0  0  0  0  0  0  0  0
    4.8324   -2.1311   -1.8109 H   0  0  0  0  0  0  0  0  0  0  0  0
    3.3329   -1.5227   -2.4730 H   0  0  0  0  0  0  0  0  0  0  0  0
    3.0499    0.7857   -0.4393 H   0  0  0  0  0  0  0  0  0  0  0  0
    2.2820   -0.1285    0.8539 H   0  0  0  0  0  0  0  0  0  0  0  0
    1.5234   -0.2395   -2.1046 H   0  0  0  0  0  0  0  0  0  0  0  0
    0.8915   -1.3559   -0.9197 H   0  0  0  0  0  0  0  0  0  0  0  0
    0.5672    1.6970   -1.0681 H   0  0  0  0  0  0  0  0  0  0  0  0
   -0.3184    3.1713    0.6555 H   0  0  0  0  0  0  0  0  0  0  0  0
   -1.8272    5.1198    0.6681 H   0  0  0  0  0  0  0  0  0  0  0  0
   -4.1964    4.8712   -0.0249 H   0  0  0  0  0  0  0  0  0  0  0  0
   -5.0620    2.6656   -0.7165 H   0  0  0  0  0  0  0  0  0  0  0  0
   -4.3754   -2.5513    0.1410 H   0  0  0  0  0  0  0  0  0  0  0  0
   -3.0325   -4.1097    1.5013 H   0  0  0  0  0  0  0  0  0  0  0  0
    0.2528   -1.3442    1.4752 H   0  0  0  0  0  0  0  0  0  0  0  0
  1  2  1  0
  2  3  1  0
  2  4  1  0
  4  5  1  0
  5  6  1  0
  6  7  2  3
  7  8  1  0
  8  9  2  0
  9 10  1  0
 10 11  2  0
 11 12  1  0
 12 13  2  0
 13 14  1  0
 14 15  1  0
 15 16  2  0
 16 17  1  0
 17 18  2  0
 18 19  1  0
 18 20  1  0
 20 21  2  0
 21  7  1  0
 13  8  1  0
 21 15  1  0
  1 22  1  0
  1 23  1  0
  1 24  1  0
  3 25  1  0
  3 26  1  0
  3 27  1  0
  4 28  1  0
  4 29  1  0
  5 30  1  0
  5 31  1  0
  6 32  1  0
  9 33  1  0
 10 34  1  0
 11 35  1  0
 12 36  1  0
 16 37  1  0
 17 38  1  0
 20 39  1  0
M  END
$$$$
