
     RDKit          3D

 46 49  0  0  0  0  0  0  0  0999 V2000
    4.2127    0.1811    0.1226 O   0  0  0  0  0  0  0  0  0  0  0  0
    3.2955    0.7272    0.7297 C   0  0  0  0  0  0  0  0  0  0  0  0
    3.0016    2.2078    0.5283 C   0  0  0  0  0  0  0  0  0  0  0  0
    1.8190    2.4475   -0.8337 S   0  0  0  0  0  0  0  0  0  0  0  0
    0.3725    1.8445   -0.1067 C   0  0  0  0  0  0  0  0  0  0  0  0
    0.1729    1.7180    1.1849 N   0  0  0  0  0  0  0  0  0  0  0  0
   -1.0345    1.0980    1.3608 N   0  0  0  0  0  0  0  0  0  0  0  0
   -1.5645    0.8792    0.1708 C   0  0  0  0  0  0  0  0  0  0  0  0
   -2.8639    0.1857   -0.0888 C   0  0  0  0  0  0  0  0  0  0  0  0
   -2.6749   -1.2480   -0.5092 C   0  0  0  0  0  0  0  0  0  0  0  0
   -1.8240   -2.2010    0.0207 C   0  0  0  0  0  0  0  0  0  0  0  0
   -1.9136   -3.4495   -0.6580 C   0  0  0  0  0  0  0  0  0  0  0  0
   -2.8459   -3.4195   -1.6701 C   0  0  0  0  0  0  0  0  0  0  0  0
   -3.6052   -1.8938   -1.7984 S   0  0  0  0  0  0  0  0  0  0  0  0
   -0.7057    1.3623   -0.7956 N   0  0  0  0  0  0  0  0  0  0  0  0
   -0.8786    1.2971   -2.2331 C   0  0  0  0  0  0  0  0  0  0  0  0
   -1.4278    2.5739   -2.7501 C   0  0  0  0  0  0  0  0  0  0  0  0
   -0.8678    3.6576   -3.3948 C   0  0  0  0  0  0  0  0  0  0  0  0
   -1.9257    4.5654   -3.6388 C   0  0  0  0  0  0  0  0  0  0  0  0
   -3.0603    3.9778   -3.1319 C   0  0  0  0  0  0  0  0  0  0  0  0
   -2.7693    2.7673   -2.5933 O   0  0  0  0  0  0  0  0  0  0  0  0
    2.4286    0.1110    1.6166 N   0  0  0  0  0  0  0  0  0  0  0  0
    2.4326   -1.2336    2.0375 C   0  0  0  0  0  0  0  0  0  0  0  0
    1.3364   -1.6600    2.8019 C   0  0  0  0  0  0  0  0  0  0  0  0
    1.2547   -2.9761    3.2623 C   0  0  0  0  0  0  0  0  0  0  0  0
    2.2762   -3.8761    2.9692 C   0  0  0  0  0  0  0  0  0  0  0  0
    3.3696   -3.4540    2.2147 C   0  0  0  0  0  0  0  0  0  0  0  0
    4.6325   -4.5691    1.8592 Cl  0  0  0  0  0  0  0  0  0  0  0  0
    3.4533   -2.1409    1.7481 C   0  0  0  0  0  0  0  0  0  0  0  0
    3.9420    2.7088    0.2727 H   0  0  0  0  0  0  0  0  0  0  0  0
    2.6397    2.6652    1.4548 H   0  0  0  0  0  0  0  0  0  0  0  0
   -3.4605    0.1960    0.8323 H   0  0  0  0  0  0  0  0  0  0  0  0
   -3.4383    0.7495   -0.8318 H   0  0  0  0  0  0  0  0  0  0  0  0
   -1.1548   -2.0086    0.8517 H   0  0  0  0  0  0  0  0  0  0  0  0
   -1.3199   -4.3221   -0.4156 H   0  0  0  0  0  0  0  0  0  0  0  0
   -3.1211   -4.2217   -2.3414 H   0  0  0  0  0  0  0  0  0  0  0  0
    0.0860    1.0591   -2.6923 H   0  0  0  0  0  0  0  0  0  0  0  0
   -1.5504    0.4703   -2.4751 H   0  0  0  0  0  0  0  0  0  0  0  0
    0.1754    3.7805   -3.6553 H   0  0  0  0  0  0  0  0  0  0  0  0
   -1.8698    5.5293   -4.1243 H   0  0  0  0  0  0  0  0  0  0  0  0
   -4.0980    4.2765   -3.0783 H   0  0  0  0  0  0  0  0  0  0  0  0
    1.6060    0.6525    1.8884 H   0  0  0  0  0  0  0  0  0  0  0  0
    0.5278   -0.9712    3.0413 H   0  0  0  0  0  0  0  0  0  0  0  0
    0.3978   -3.2946    3.8505 H   0  0  0  0  0  0  0  0  0  0  0  0
    2.2178   -4.8994    3.3301 H   0  0  0  0  0  0  0  0  0  0  0  0
    4.3239   -1.8497    1.1692 H   0  0  0  0  0  0  0  0  0  0  0  0
  1  2  2  0
  2  3  1  0
  3  4  1  0
  4  5  1  0
  5  6  2  0
  6  7  1  0
  7  8  2  0
  8  9  1  0
  9 10  1  0
 10 11  2  0
 11 12  1  0
 12 13  2  0
 13 14  1  0
  8 15  1  0
 15 16  1  0
 16 17  1  0
 17 18  2  0
 18 19  1  0
 19 20  2  0
 20 21  1  0
  2 22  1  0
 22 23  1  0
 23 24  2  0
 24 25  1  0
 25 26  2  0
 26 27  1  0
 27 28  1  0
 27 29  2  0
 15  5  1  0
 21 17  1  0
 29 23  1  0
 14 10  1  0
  3 30  1  0
  3 31  1  0
  9 32  1  0
  9 33  1  0
 11 34  1  0
 12 35  1  0
 13 36  1  0
 16 37  1  0
 16 38  1  0
 18 39  1  0
 19 40  1  0
 20 41  1  0
 22 42  1  0
 24 43  1  0
 25 44  1  0
 26 45  1  0
 29 46  1  0
M  END
$$$$
