
     RDKit          3D

 61 66  0  0  0  0  0  0  0  0999 V2000
    8.7245    2.6552    2.6278 F   0  0  0  0  0  0  0  0  0  0  0  0
    7.8817    1.8357    1.9817 C   0  0  0  0  0  0  0  0  0  0  0  0
    6.8880    2.3734    1.1715 C   0  0  0  0  0  0  0  0  0  0  0  0
    6.0113    1.5187    0.4978 C   0  0  0  0  0  0  0  0  0  0  0  0
    6.1296    0.1255    0.6325 C   0  0  0  0  0  0  0  0  0  0  0  0
    5.1785   -0.8035   -0.0928 C   0  0  0  0  0  0  0  0  0  0  0  0
    3.7880   -0.9117    0.5688 C   0  0  0  0  0  0  0  0  0  0  0  0
    2.9210    0.2660    0.3663 N   0  0  0  0  0  0  0  0  0  0  0  0
    1.7643    0.2489    1.2991 C   0  0  0  0  0  0  0  0  0  0  0  0
    0.6977   -0.8341    1.0044 C   0  0  0  0  0  0  0  0  0  0  0  0
    0.2163   -0.7721   -0.3994 N   0  0  0  0  0  0  0  0  0  0  0  0
   -0.9364   -0.0628   -0.6138 C   0  0  0  0  0  0  0  0  0  0  0  0
   -1.0889    1.2389   -1.0482 C   0  0  0  0  0  0  0  0  0  0  0  0
   -2.4640    1.5525   -1.0347 C   0  0  0  0  0  0  0  0  0  0  0  0
   -3.1425    0.4355   -0.5904 C   0  0  0  0  0  0  0  0  0  0  0  0
   -4.5521    0.1897   -0.3675 C   0  0  0  0  0  0  0  0  0  0  0  0
   -5.5402    1.2910   -0.4804 C   0  0  0  0  0  0  0  0  0  0  0  0
   -6.6804    1.0966   -1.2672 C   0  0  0  0  0  0  0  0  0  0  0  0
   -7.6411    2.1033   -1.3572 C   0  0  0  0  0  0  0  0  0  0  0  0
   -7.4694    3.2959   -0.6531 C   0  0  0  0  0  0  0  0  0  0  0  0
   -6.3389    3.4866    0.1442 C   0  0  0  0  0  0  0  0  0  0  0  0
   -5.3736    2.4829    0.2368 C   0  0  0  0  0  0  0  0  0  0  0  0
   -4.9867   -0.9997   -0.0659 N   0  0  0  0  0  0  0  0  0  0  0  0
   -4.0624   -2.0531    0.0703 C   0  0  0  0  0  0  0  0  0  0  0  0
   -4.5739   -3.3193    0.3821 C   0  0  0  0  0  0  0  0  0  0  0  0
   -3.7235   -4.4155    0.5255 C   0  0  0  0  0  0  0  0  0  0  0  0
   -2.3487   -4.2538    0.3475 C   0  0  0  0  0  0  0  0  0  0  0  0
   -1.8198   -2.9976    0.0310 C   0  0  0  0  0  0  0  0  0  0  0  0
   -2.6706   -1.8945   -0.0900 C   0  0  0  0  0  0  0  0  0  0  0  0
   -2.2196   -0.5843   -0.4067 N   0  0  0  0  0  0  0  0  0  0  0  0
    1.3062   -0.6775   -1.3965 C   0  0  0  0  0  0  0  0  0  0  0  0
    2.3898    0.3639   -1.0158 C   0  0  0  0  0  0  0  0  0  0  0  0
    7.1404   -0.3966    1.4580 C   0  0  0  0  0  0  0  0  0  0  0  0
    8.0159    0.4602    2.1310 C   0  0  0  0  0  0  0  0  0  0  0  0
    6.7979    3.4509    1.0739 H   0  0  0  0  0  0  0  0  0  0  0  0
    5.2270    1.9427   -0.1273 H   0  0  0  0  0  0  0  0  0  0  0  0
    5.6191   -1.8108   -0.1146 H   0  0  0  0  0  0  0  0  0  0  0  0
    5.1113   -0.5048   -1.1465 H   0  0  0  0  0  0  0  0  0  0  0  0
    3.9462   -1.0631    1.6466 H   0  0  0  0  0  0  0  0  0  0  0  0
    3.2995   -1.8239    0.2006 H   0  0  0  0  0  0  0  0  0  0  0  0
    2.1190    0.1418    2.3333 H   0  0  0  0  0  0  0  0  0  0  0  0
    1.2870    1.2373    1.2565 H   0  0  0  0  0  0  0  0  0  0  0  0
   -0.1342   -0.7272    1.7133 H   0  0  0  0  0  0  0  0  0  0  0  0
    1.1220   -1.8299    1.1789 H   0  0  0  0  0  0  0  0  0  0  0  0
   -0.2873    1.9126   -1.3104 H   0  0  0  0  0  0  0  0  0  0  0  0
   -2.9045    2.5009   -1.3106 H   0  0  0  0  0  0  0  0  0  0  0  0
   -6.8228    0.1628   -1.8067 H   0  0  0  0  0  0  0  0  0  0  0  0
   -8.5276    1.9535   -1.9682 H   0  0  0  0  0  0  0  0  0  0  0  0
   -8.2253    4.0742   -0.7180 H   0  0  0  0  0  0  0  0  0  0  0  0
   -6.2197    4.4136    0.7023 H   0  0  0  0  0  0  0  0  0  0  0  0
   -4.5109    2.6265    0.8830 H   0  0  0  0  0  0  0  0  0  0  0  0
   -5.6489   -3.4447    0.5102 H   0  0  0  0  0  0  0  0  0  0  0  0
   -4.1349   -5.3930    0.7683 H   0  0  0  0  0  0  0  0  0  0  0  0
   -1.6849   -5.1092    0.4452 H   0  0  0  0  0  0  0  0  0  0  0  0
   -0.7491   -2.9208   -0.1300 H   0  0  0  0  0  0  0  0  0  0  0  0
    0.9084   -0.4483   -2.3948 H   0  0  0  0  0  0  0  0  0  0  0  0
    1.7668   -1.6694   -1.4811 H   0  0  0  0  0  0  0  0  0  0  0  0
    1.9705    1.3717   -1.1295 H   0  0  0  0  0  0  0  0  0  0  0  0
    3.2019    0.3201   -1.7509 H   0  0  0  0  0  0  0  0  0  0  0  0
    7.2536   -1.4732    1.5794 H   0  0  0  0  0  0  0  0  0  0  0  0
    8.7994    0.0654    2.7704 H   0  0  0  0  0  0  0  0  0  0  0  0
  1  2  1  0
  2  3  2  0
  3  4  1  0
  4  5  2  0
  5  6  1  0
  6  7  1  0
  7  8  1  0
  8  9  1  0
  9 10  1  0
 10 11  1  0
 11 12  1  0
 12 13  2  0
 13 14  1  0
 14 15  2  0
 15 16  1  0
 16 17  1  0
 17 18  2  0
 18 19  1  0
 19 20  2  0
 20 21  1  0
 21 22  2  0
 16 23  2  0
 23 24  1  0
 24 25  2  0
 25 26  1  0
 26 27  2  0
 27 28  1  0
 28 29  2  0
 29 30  1  0
 11 31  1  0
 31 32  1  0
  5 33  1  0
 33 34  2  0
 34  2  1  0
 32  8  1  0
 30 12  1  0
 30 15  1  0
 22 17  1  0
 29 24  1  0
  3 35  1  0
  4 36  1  0
  6 37  1  0
  6 38  1  0
  7 39  1  0
  7 40  1  0
  9 41  1  0
  9 42  1  0
 10 43  1  0
 10 44  1  0
 13 45  1  0
 14 46  1  0
 18 47  1  0
 19 48  1  0
 20 49  1  0
 21 50  1  0
 22 51  1  0
 25 52  1  0
 26 53  1  0
 27 54  1  0
 28 55  1  0
 31 56  1  0
 31 57  1  0
 32 58  1  0
 32 59  1  0
 33 60  1  0
 34 61  1  0
M  END
$$$$
