
     RDKit          3D

 46 48  0  0  0  0  0  0  0  0999 V2000
    1.6391    3.2038   -2.9726 C   0  0  0  0  0  0  0  0  0  0  0  0
    1.2640    2.0892   -2.0072 C   0  0  0  0  0  0  0  0  0  0  0  0
    2.4532    1.2244   -1.5582 N   0  0  0  0  0  4  0  0  0  0  0  0
    3.0406    0.4326   -2.7271 C   0  0  0  0  0  0  0  0  0  0  0  0
    3.5670    2.1031   -0.9686 C   0  0  0  0  0  0  0  0  0  0  0  0
    2.0173    0.2533   -0.4203 C   0  0  0  0  0  0  0  0  0  0  0  0
    0.8654   -0.7035   -0.7736 C   0  0  0  0  0  0  0  0  0  0  0  0
   -0.4884   -0.2302   -0.2977 C   0  0  0  0  0  0  0  0  0  0  0  0
   -1.2222   -0.6876    0.7447 C   0  0  0  0  0  0  0  0  0  0  0  0
   -2.6399   -0.2377    0.8342 C   0  0  0  0  0  0  0  0  0  0  0  0
   -3.0012    1.1170    0.7727 C   0  0  0  0  0  0  0  0  0  0  0  0
   -4.3427    1.4944    0.8595 C   0  0  0  0  0  0  0  0  0  0  0  0
   -5.3326    0.5262    1.0154 C   0  0  0  0  0  0  0  0  0  0  0  0
   -4.9847   -0.8226    1.0991 C   0  0  0  0  0  0  0  0  0  0  0  0
   -3.6424   -1.2114    1.0226 C   0  0  0  0  0  0  0  0  0  0  0  0
   -3.2490   -2.9574    1.1653 S   0  0  0  0  0  0  0  0  0  0  0  0
   -1.6074   -2.8713    1.8804 C   0  0  0  0  0  0  0  0  0  0  0  0
   -1.1855   -3.9171    2.7112 C   0  0  0  0  0  0  0  0  0  0  0  0
    0.0630   -3.8626    3.3340 C   0  0  0  0  0  0  0  0  0  0  0  0
    0.8808   -2.7536    3.1403 C   0  0  0  0  0  0  0  0  0  0  0  0
    2.4115   -2.6648    3.9199 Cl  0  0  0  0  0  0  0  0  0  0  0  0
    0.4744   -1.7068    2.3136 C   0  0  0  0  0  0  0  0  0  0  0  0
   -0.7539   -1.7750    1.6425 C   0  0  0  0  0  0  0  0  0  0  0  0
    2.1367    2.8258   -3.8691 H   0  0  0  0  0  0  0  0  0  0  0  0
    2.2829    3.9518   -2.5018 H   0  0  0  0  0  0  0  0  0  0  0  0
    0.7314    3.7244   -3.2975 H   0  0  0  0  0  0  0  0  0  0  0  0
    0.8137    2.5127   -1.1016 H   0  0  0  0  0  0  0  0  0  0  0  0
    0.5419    1.4238   -2.4904 H   0  0  0  0  0  0  0  0  0  0  0  0
    2.2348   -0.0909   -3.2454 H   0  0  0  0  0  0  0  0  0  0  0  0
    3.7718   -0.2767   -2.3298 H   0  0  0  0  0  0  0  0  0  0  0  0
    3.5351    1.1266   -3.4117 H   0  0  0  0  0  0  0  0  0  0  0  0
    4.0054    2.7087   -1.7659 H   0  0  0  0  0  0  0  0  0  0  0  0
    4.3335    1.4497   -0.5427 H   0  0  0  0  0  0  0  0  0  0  0  0
    3.1290    2.7380   -0.1928 H   0  0  0  0  0  0  0  0  0  0  0  0
    1.7702    0.8766    0.4479 H   0  0  0  0  0  0  0  0  0  0  0  0
    2.9099   -0.3343   -0.1714 H   0  0  0  0  0  0  0  0  0  0  0  0
    1.0918   -1.6832   -0.3387 H   0  0  0  0  0  0  0  0  0  0  0  0
    0.8011   -0.8922   -1.8492 H   0  0  0  0  0  0  0  0  0  0  0  0
   -0.9600    0.4903   -0.9653 H   0  0  0  0  0  0  0  0  0  0  0  0
   -2.2463    1.8914    0.6732 H   0  0  0  0  0  0  0  0  0  0  0  0
   -4.6195    2.5451    0.8159 H   0  0  0  0  0  0  0  0  0  0  0  0
   -6.3776    0.8206    1.0847 H   0  0  0  0  0  0  0  0  0  0  0  0
   -5.7686   -1.5649    1.2348 H   0  0  0  0  0  0  0  0  0  0  0  0
   -1.8323   -4.7739    2.8920 H   0  0  0  0  0  0  0  0  0  0  0  0
    0.3776   -4.6772    3.9818 H   0  0  0  0  0  0  0  0  0  0  0  0
    1.1113   -0.8350    2.2129 H   0  0  0  0  0  0  0  0  0  0  0  0
  1  2  1  0
  2  3  1  0
  3  4  1  0
  3  5  1  0
  3  6  1  0
  6  7  1  0
  7  8  1  0
  8  9  2  3
  9 10  1  0
 10 11  2  0
 11 12  1  0
 12 13  2  0
 13 14  1  0
 14 15  2  0
 15 16  1  0
 16 17  1  0
 17 18  2  0
 18 19  1  0
 19 20  2  0
 20 21  1  0
 20 22  1  0
 22 23  2  0
 23  9  1  0
 15 10  1  0
 23 17  1  0
  1 24  1  0
  1 25  1  0
  1 26  1  0
  2 27  1  0
  2 28  1  0
  4 29  1  0
  4 30  1  0
  4 31  1  0
  5 32  1  0
  5 33  1  0
  5 34  1  0
  6 35  1  0
  6 36  1  0
  7 37  1  0
  7 38  1  0
  8 39  1  0
 11 40  1  0
 12 41  1  0
 13 42  1  0
 14 43  1  0
 18 44  1  0
 19 45  1  0
 22 46  1  0
M  CHG  1   3   1
M  END
$$$$
