
     RDKit          3D

 43 46  0  0  0  0  0  0  0  0999 V2000
    2.6188   -1.9264    1.1633 O   0  0  0  0  0  0  0  0  0  0  0  0
    2.6762   -0.7492    1.5229 C   0  0  0  0  0  0  0  0  0  0  0  0
    2.8144    0.3685    0.5101 C   0  0  0  0  0  0  0  0  0  0  0  0
    1.6532    1.7429    0.7383 S   0  0  0  0  0  0  0  0  0  0  0  0
    0.1457    0.9057    0.6745 C   0  0  0  0  0  0  0  0  0  0  0  0
   -0.3013    0.0994    1.6047 N   0  0  0  0  0  0  0  0  0  0  0  0
   -1.5130   -0.3858    1.1848 N   0  0  0  0  0  0  0  0  0  0  0  0
   -1.8016    0.1587    0.0173 C   0  0  0  0  0  0  0  0  0  0  0  0
   -2.9825   -0.1400   -0.7761 C   0  0  0  0  0  0  0  0  0  0  0  0
   -3.2008   -1.4313   -1.2605 C   0  0  0  0  0  0  0  0  0  0  0  0
   -4.3276   -1.6982   -2.0348 C   0  0  0  0  0  0  0  0  0  0  0  0
   -5.2042   -0.6585   -2.2984 C   0  0  0  0  0  0  0  0  0  0  0  0
   -5.0330    0.6008   -1.8398 N   0  0  0  0  0  0  0  0  0  0  0  0
   -3.9405    0.8233   -1.0709 C   0  0  0  0  0  0  0  0  0  0  0  0
   -0.7631    0.9972   -0.3430 N   0  0  0  0  0  0  0  0  0  0  0  0
   -0.6524    1.7709   -1.5641 C   0  0  0  0  0  0  0  0  0  0  0  0
   -0.1653    0.9270   -2.6815 C   0  0  0  0  0  0  0  0  0  0  0  0
   -0.7926    0.2804   -3.7270 C   0  0  0  0  0  0  0  0  0  0  0  0
    0.2270   -0.3728   -4.4601 C   0  0  0  0  0  0  0  0  0  0  0  0
    1.4085   -0.0773   -3.8225 C   0  0  0  0  0  0  0  0  0  0  0  0
    1.1812    0.7174   -2.7458 O   0  0  0  0  0  0  0  0  0  0  0  0
    2.6937   -0.4598    2.9842 C   0  0  0  0  0  0  0  0  0  0  0  0
    3.4129    0.6134    3.5200 C   0  0  0  0  0  0  0  0  0  0  0  0
    3.4047    0.8354    4.9002 C   0  0  0  0  0  0  0  0  0  0  0  0
    2.6876   -0.0148    5.7489 C   0  0  0  0  0  0  0  0  0  0  0  0
    2.7293    0.3235    7.4427 Cl  0  0  0  0  0  0  0  0  0  0  0  0
    1.9774   -1.0957    5.2145 C   0  0  0  0  0  0  0  0  0  0  0  0
    1.0793   -2.1905    6.2044 Cl  0  0  0  0  0  0  0  0  0  0  0  0
    1.9849   -1.3186    3.8350 C   0  0  0  0  0  0  0  0  0  0  0  0
    3.8418    0.7447    0.5336 H   0  0  0  0  0  0  0  0  0  0  0  0
    2.6495   -0.0535   -0.4870 H   0  0  0  0  0  0  0  0  0  0  0  0
   -2.4968   -2.2297   -1.0338 H   0  0  0  0  0  0  0  0  0  0  0  0
   -4.5177   -2.6948   -2.4180 H   0  0  0  0  0  0  0  0  0  0  0  0
   -6.0969   -0.8171   -2.8972 H   0  0  0  0  0  0  0  0  0  0  0  0
   -3.8626    1.8368   -0.6862 H   0  0  0  0  0  0  0  0  0  0  0  0
    0.0167    2.6198   -1.3950 H   0  0  0  0  0  0  0  0  0  0  0  0
   -1.6331    2.1978   -1.7925 H   0  0  0  0  0  0  0  0  0  0  0  0
   -1.8551    0.2736   -3.9329 H   0  0  0  0  0  0  0  0  0  0  0  0
    0.1163   -0.9850   -5.3443 H   0  0  0  0  0  0  0  0  0  0  0  0
    2.4419   -0.3415   -4.0008 H   0  0  0  0  0  0  0  0  0  0  0  0
    3.9911    1.2823    2.8886 H   0  0  0  0  0  0  0  0  0  0  0  0
    3.9630    1.6740    5.3108 H   0  0  0  0  0  0  0  0  0  0  0  0
    1.4251   -2.1530    3.4142 H   0  0  0  0  0  0  0  0  0  0  0  0
  1  2  2  0
  2  3  1  0
  3  4  1  0
  4  5  1  0
  5  6  2  0
  6  7  1  0
  7  8  2  0
  8  9  1  0
  9 10  2  0
 10 11  1  0
 11 12  2  0
 12 13  1  0
 13 14  2  0
  8 15  1  0
 15 16  1  0
 16 17  1  0
 17 18  2  0
 18 19  1  0
 19 20  2  0
 20 21  1  0
  2 22  1  0
 22 23  2  0
 23 24  1  0
 24 25  2  0
 25 26  1  0
 25 27  1  0
 27 28  1  0
 27 29  2  0
 15  5  1  0
 21 17  1  0
 29 22  1  0
 14  9  1  0
  3 30  1  0
  3 31  1  0
 10 32  1  0
 11 33  1  0
 12 34  1  0
 14 35  1  0
 16 36  1  0
 16 37  1  0
 18 38  1  0
 19 39  1  0
 20 40  1  0
 23 41  1  0
 24 42  1  0
 29 43  1  0
M  END
$$$$
