
     RDKit          3D

 36 37  0  0  0  0  0  0  0  0999 V2000
    0.0361   -1.2538    0.5146 O   0  0  0  0  0  0  0  0  0  0  0  0
    0.5127   -0.1213    0.5086 C   0  0  0  0  0  0  0  0  0  0  0  0
   -0.1723    1.0690   -0.1668 C   0  0  0  0  0  0  0  0  0  0  0  0
   -1.5661    0.8562   -0.3796 O   0  0  0  0  0  0  0  0  0  0  0  0
   -2.3173    0.9898    0.7416 C   0  0  0  0  0  0  0  0  0  0  0  0
   -1.9139    1.3773    1.8269 O   0  0  0  0  0  0  0  0  0  0  0  0
   -3.7355    0.6301    0.4709 C   0  0  0  0  0  0  0  0  0  0  0  0
   -4.1468    0.0549   -0.7400 C   0  0  0  0  0  0  0  0  0  0  0  0
   -5.4924   -0.2662   -0.9446 C   0  0  0  0  0  0  0  0  0  0  0  0
   -6.4258   -0.0150    0.0603 C   0  0  0  0  0  0  0  0  0  0  0  0
   -8.2440   -0.4495   -0.2194 Br  0  0  0  0  0  0  0  0  0  0  0  0
   -6.0283    0.5517    1.2700 C   0  0  0  0  0  0  0  0  0  0  0  0
   -4.6836    0.8724    1.4755 C   0  0  0  0  0  0  0  0  0  0  0  0
    1.7265    0.1873    1.0902 N   0  0  0  0  0  0  0  0  0  0  0  0
    2.5725   -0.8520    1.6492 C   0  0  0  0  0  0  0  0  0  0  0  0
    3.3426   -1.6325    0.5751 C   0  0  0  0  0  0  0  0  0  0  0  0
    4.3210   -0.8083   -0.1207 N   0  0  0  0  0  0  0  0  0  0  0  0
    4.1196   -0.2436   -1.3562 C   0  0  0  0  0  0  0  0  0  0  0  0
    2.9334   -0.4423   -1.9954 O   0  0  0  0  0  0  0  0  0  0  0  0
    5.1525    0.4732   -1.8139 C   0  0  0  0  0  0  0  0  0  0  0  0
    6.4637    0.4887   -0.6743 S   0  0  0  0  0  0  0  0  0  0  0  0
    5.5480   -0.5240    0.4578 C   0  0  0  0  0  0  0  0  0  0  0  0
    5.9653   -0.8704    1.5500 O   0  0  0  0  0  0  0  0  0  0  0  0
    0.0021    1.9931    0.3972 H   0  0  0  0  0  0  0  0  0  0  0  0
    0.2909    1.1953   -1.1514 H   0  0  0  0  0  0  0  0  0  0  0  0
   -3.4298   -0.1577   -1.5294 H   0  0  0  0  0  0  0  0  0  0  0  0
   -5.7988   -0.7144   -1.8865 H   0  0  0  0  0  0  0  0  0  0  0  0
   -6.7518    0.7450    2.0581 H   0  0  0  0  0  0  0  0  0  0  0  0
   -4.3775    1.3105    2.4241 H   0  0  0  0  0  0  0  0  0  0  0  0
    2.1406    1.0943    0.9223 H   0  0  0  0  0  0  0  0  0  0  0  0
    3.2588   -0.3633    2.3485 H   0  0  0  0  0  0  0  0  0  0  0  0
    1.9424   -1.5437    2.2192 H   0  0  0  0  0  0  0  0  0  0  0  0
    3.8871   -2.4478    1.0671 H   0  0  0  0  0  0  0  0  0  0  0  0
    2.6615   -2.0935   -0.1486 H   0  0  0  0  0  0  0  0  0  0  0  0
    3.0057   -0.0864   -2.8974 H   0  0  0  0  0  0  0  0  0  0  0  0
    5.2011    0.9968   -2.7573 H   0  0  0  0  0  0  0  0  0  0  0  0
  1  2  2  0
  2  3  1  0
  3  4  1  0
  4  5  1  0
  5  6  2  0
  5  7  1  0
  7  8  2  0
  8  9  1  0
  9 10  2  0
 10 11  1  0
 10 12  1  0
 12 13  2  0
  2 14  1  0
 14 15  1  0
 15 16  1  0
 16 17  1  0
 17 18  1  0
 18 19  1  0
 18 20  2  0
 20 21  1  0
 21 22  1  0
 22 23  2  0
 13  7  1  0
 22 17  1  0
  3 24  1  0
  3 25  1  0
  8 26  1  0
  9 27  1  0
 12 28  1  0
 13 29  1  0
 14 30  1  0
 15 31  1  0
 15 32  1  0
 16 33  1  0
 16 34  1  0
 19 35  1  0
 20 36  1  0
M  END
$$$$
