
     RDKit          3D

 58 63  0  0  0  0  0  0  0  0999 V2000
    7.6807    1.7790    1.6464 C   0  0  0  0  0  0  0  0  0  0  0  0
    6.6015    0.8121    1.2987 C   0  0  0  0  0  0  0  0  0  0  0  0
    6.1518   -0.2720    2.0228 C   0  0  0  0  0  0  0  0  0  0  0  0
    5.1018   -0.9672    1.3549 C   0  0  0  0  0  0  0  0  0  0  0  0
    4.7683   -0.3804    0.1498 C   0  0  0  0  0  0  0  0  0  0  0  0
    3.7667   -0.7768   -0.8273 C   0  0  0  0  0  0  0  0  0  0  0  0
    4.0612   -1.0000   -2.0018 O   0  0  0  0  0  0  0  0  0  0  0  0
    2.4383   -0.8992   -0.3827 N   0  0  0  0  0  0  0  0  0  0  0  0
    1.4124   -1.2866   -1.3400 C   0  0  0  0  0  0  0  0  0  0  0  0
    0.4279   -0.1415   -1.5621 C   0  0  0  0  0  0  0  0  0  0  0  0
   -0.1900    0.3884   -0.2336 C   0  0  0  0  0  0  0  0  0  0  0  0
    0.4477   -0.3160    0.9962 C   0  0  0  0  0  0  0  0  0  0  0  0
    1.9728   -0.3536    0.8920 C   0  0  0  0  0  0  0  0  0  0  0  0
    0.2308    1.7717   -0.0647 O   0  0  0  0  0  0  0  0  0  0  0  0
   -0.4713    2.7361   -0.7223 C   0  0  0  0  0  0  0  0  0  0  0  0
    0.1201    3.9989   -0.7685 C   0  0  0  0  0  0  0  0  0  0  0  0
   -0.5149    5.0472   -1.4389 C   0  0  0  0  0  0  0  0  0  0  0  0
   -1.7444    4.8295   -2.0600 C   0  0  0  0  0  0  0  0  0  0  0  0
   -2.5211    6.1203   -2.8893 Cl  0  0  0  0  0  0  0  0  0  0  0  0
   -2.3474    3.5758   -2.0098 C   0  0  0  0  0  0  0  0  0  0  0  0
   -1.7062    2.5360   -1.3280 C   0  0  0  0  0  0  0  0  0  0  0  0
   -2.3291    1.2090   -1.2392 C   0  0  0  0  0  0  0  0  0  0  0  0
   -3.2637    0.9262   -1.9846 O   0  0  0  0  0  0  0  0  0  0  0  0
   -1.7399    0.2582   -0.2034 C   0  0  0  0  0  0  0  0  0  0  0  0
   -2.2700   -1.1572   -0.3949 C   0  0  0  0  0  0  0  0  0  0  0  0
   -3.3317   -1.1585    0.6505 C   0  0  0  0  0  0  0  0  0  0  0  0
   -4.3332   -2.2469    0.7528 C   0  0  0  0  0  0  0  0  0  0  0  0
   -5.3223   -2.1663    1.7414 C   0  0  0  0  0  0  0  0  0  0  0  0
   -6.2770   -3.1772    1.8674 C   0  0  0  0  0  0  0  0  0  0  0  0
   -6.2484   -4.2732    1.0075 C   0  0  0  0  0  0  0  0  0  0  0  0
   -5.2665   -4.3602    0.0216 C   0  0  0  0  0  0  0  0  0  0  0  0
   -4.3084   -3.3506   -0.1075 C   0  0  0  0  0  0  0  0  0  0  0  0
   -3.2860   -0.1615    1.4753 N   0  0  0  0  0  0  0  0  0  0  0  0
   -2.2269    0.6810    1.0810 O   0  0  0  0  0  0  0  0  0  0  0  0
    5.7599    0.9737   -0.1827 S   0  0  0  0  0  0  0  0  0  0  0  0
    8.4932    1.7338    0.9140 H   0  0  0  0  0  0  0  0  0  0  0  0
    7.2917    2.8023    1.6738 H   0  0  0  0  0  0  0  0  0  0  0  0
    8.1032    1.5563    2.6319 H   0  0  0  0  0  0  0  0  0  0  0  0
    6.5630   -0.5620    2.9825 H   0  0  0  0  0  0  0  0  0  0  0  0
    4.6225   -1.8603    1.7365 H   0  0  0  0  0  0  0  0  0  0  0  0
    0.8996   -2.1693   -0.9402 H   0  0  0  0  0  0  0  0  0  0  0  0
    1.8473   -1.5885   -2.2979 H   0  0  0  0  0  0  0  0  0  0  0  0
   -0.3494   -0.4915   -2.2508 H   0  0  0  0  0  0  0  0  0  0  0  0
    0.9546    0.6689   -2.0826 H   0  0  0  0  0  0  0  0  0  0  0  0
    0.0795   -1.3416    1.1036 H   0  0  0  0  0  0  0  0  0  0  0  0
    0.1865    0.2128    1.9215 H   0  0  0  0  0  0  0  0  0  0  0  0
    2.3876    0.6537    1.0136 H   0  0  0  0  0  0  0  0  0  0  0  0
    2.3679   -0.9786    1.6987 H   0  0  0  0  0  0  0  0  0  0  0  0
    1.0819    4.1672   -0.2892 H   0  0  0  0  0  0  0  0  0  0  0  0
   -0.0450    6.0270   -1.4746 H   0  0  0  0  0  0  0  0  0  0  0  0
   -3.3107    3.4086   -2.4862 H   0  0  0  0  0  0  0  0  0  0  0  0
   -1.5445   -1.9362   -0.1488 H   0  0  0  0  0  0  0  0  0  0  0  0
   -2.6686   -1.3546   -1.3929 H   0  0  0  0  0  0  0  0  0  0  0  0
   -5.3586   -1.3149    2.4185 H   0  0  0  0  0  0  0  0  0  0  0  0
   -7.0429   -3.1063    2.6357 H   0  0  0  0  0  0  0  0  0  0  0  0
   -6.9938   -5.0590    1.1045 H   0  0  0  0  0  0  0  0  0  0  0  0
   -5.2488   -5.2157   -0.6494 H   0  0  0  0  0  0  0  0  0  0  0  0
   -3.5591   -3.4503   -0.8862 H   0  0  0  0  0  0  0  0  0  0  0  0
  1  2  1  0
  2  3  2  0
  3  4  1  0
  4  5  2  0
  5  6  1  0
  6  7  2  0
  6  8  1  0
  8  9  1  0
  9 10  1  0
 10 11  1  0
 11 12  1  0
 12 13  1  0
 11 14  1  0
 14 15  1  0
 15 16  2  0
 16 17  1  0
 17 18  2  0
 18 19  1  0
 18 20  1  0
 20 21  2  0
 21 22  1  0
 22 23  2  0
 22 24  1  0
 24 25  1  0
 25 26  1  0
 26 27  1  0
 27 28  2  0
 28 29  1  0
 29 30  2  0
 30 31  1  0
 31 32  2  0
 26 33  2  0
 33 34  1  0
  5 35  1  0
 35  2  1  0
 13  8  1  0
 21 15  1  0
 34 24  1  0
 24 11  1  0
 32 27  1  0
  1 36  1  0
  1 37  1  0
  1 38  1  0
  3 39  1  0
  4 40  1  0
  9 41  1  0
  9 42  1  0
 10 43  1  0
 10 44  1  0
 12 45  1  0
 12 46  1  0
 13 47  1  0
 13 48  1  0
 16 49  1  0
 17 50  1  0
 20 51  1  0
 25 52  1  0
 25 53  1  0
 28 54  1  0
 29 55  1  0
 30 56  1  0
 31 57  1  0
 32 58  1  0
M  END
$$$$
