
     RDKit          3D

 56 61  0  0  0  0  0  0  0  0999 V2000
    5.7744   -0.6869   -1.0874 C   0  0  0  0  0  0  0  0  0  0  0  0
    4.6572   -0.6390   -0.0883 C   0  0  0  0  0  0  0  0  0  0  0  0
    4.9062   -0.6332    1.2974 C   0  0  0  0  0  0  0  0  0  0  0  0
    6.5207   -0.6713    1.9196 Cl  0  0  0  0  0  0  0  0  0  0  0  0
    3.8561   -0.5985    2.2364 C   0  0  0  0  0  0  0  0  0  0  0  0
    2.5240   -0.5798    1.8214 C   0  0  0  0  0  0  0  0  0  0  0  0
    2.2661   -0.5972    0.4598 C   0  0  0  0  0  0  0  0  0  0  0  0
    3.3198   -0.6278   -0.4669 C   0  0  0  0  0  0  0  0  0  0  0  0
    2.8022   -0.6388   -1.7596 N   0  0  0  0  0  0  0  0  0  0  0  0
    1.4053   -0.6276   -1.7658 C   0  0  0  0  0  0  0  0  0  0  0  0
    0.7204   -0.6340   -2.7768 O   0  0  0  0  0  0  0  0  0  0  0  0
    0.9557   -0.6017   -0.2807 C   0  0  0  0  0  0  0  0  0  0  0  0
    0.0556   -1.7541    0.0493 N   0  0  0  0  0  0  0  0  0  0  0  0
   -1.3541   -1.2354    0.1959 C   0  0  2  0  0  0  0  0  0  0  0  0
   -2.2309   -1.5645   -1.0258 C   0  0  0  0  0  0  0  0  0  0  0  0
   -2.5813   -3.0318   -1.1177 C   0  0  0  0  0  0  0  0  0  0  0  0
   -1.7688   -3.9053   -1.8532 C   0  0  0  0  0  0  0  0  0  0  0  0
   -2.0757   -5.2644   -1.9263 C   0  0  0  0  0  0  0  0  0  0  0  0
   -3.1961   -5.7632   -1.2642 C   0  0  0  0  0  0  0  0  0  0  0  0
   -4.0105   -4.9032   -0.5289 C   0  0  0  0  0  0  0  0  0  0  0  0
   -3.7051   -3.5429   -0.4543 C   0  0  0  0  0  0  0  0  0  0  0  0
   -1.1402    0.2202    0.3779 C   0  0  0  0  0  0  0  0  0  0  0  0
    0.1726    0.5855    0.0962 C   0  0  0  0  0  0  0  0  0  0  0  0
    0.3012    1.9395    0.2752 C   0  0  0  0  0  0  0  0  0  0  0  0
    1.3824    2.7101    0.1747 O   0  0  0  0  0  0  0  0  0  0  0  0
   -0.9596    2.4365    0.6793 N   0  0  0  0  0  0  0  0  0  0  0  0
   -1.2801    3.8084    0.9760 C   0  0  0  0  0  0  0  0  0  0  0  0
   -2.3523    4.1294    1.8251 C   0  0  0  0  0  0  0  0  0  0  0  0
   -2.6608    5.4632    2.1133 C   0  0  0  0  0  0  0  0  0  0  0  0
   -1.9020    6.4809    1.5541 C   0  0  0  0  0  0  0  0  0  0  0  0
   -2.1988    7.7573    1.8311 F   0  0  0  0  0  0  0  0  0  0  0  0
   -0.8393    6.1907    0.7116 C   0  0  0  0  0  0  0  0  0  0  0  0
   -0.5275    4.8578    0.4225 C   0  0  0  0  0  0  0  0  0  0  0  0
   -1.8441    1.3362    0.7444 C   0  0  0  0  0  0  0  0  0  0  0  0
   -3.1321    1.4565    1.0571 O   0  0  0  0  0  0  0  0  0  0  0  0
    5.4226   -0.5453   -2.1135 H   0  0  0  0  0  0  0  0  0  0  0  0
    6.2805   -1.6568   -1.0405 H   0  0  0  0  0  0  0  0  0  0  0  0
    6.4986    0.1119   -0.8942 H   0  0  0  0  0  0  0  0  0  0  0  0
    4.0810   -0.5883    3.3015 H   0  0  0  0  0  0  0  0  0  0  0  0
    1.7193   -0.5479    2.5503 H   0  0  0  0  0  0  0  0  0  0  0  0
    3.3314   -0.6756   -2.6179 H   0  0  0  0  0  0  0  0  0  0  0  0
    0.3304   -2.0939    0.9686 H   0  0  0  0  0  0  0  0  0  0  0  0
   -1.7905   -1.6653    1.1058 H   0  0  0  0  0  0  0  0  0  0  0  0
   -3.1653   -0.9887   -0.9780 H   0  0  0  0  0  0  0  0  0  0  0  0
   -1.7518   -1.2408   -1.9586 H   0  0  0  0  0  0  0  0  0  0  0  0
   -0.8885   -3.5262   -2.3707 H   0  0  0  0  0  0  0  0  0  0  0  0
   -1.4388   -5.9327   -2.4995 H   0  0  0  0  0  0  0  0  0  0  0  0
   -3.4348   -6.8218   -1.3224 H   0  0  0  0  0  0  0  0  0  0  0  0
   -4.8855   -5.2929   -0.0151 H   0  0  0  0  0  0  0  0  0  0  0  0
   -4.3538   -2.8868    0.1202 H   0  0  0  0  0  0  0  0  0  0  0  0
    2.1454    2.1482   -0.0450 H   0  0  0  0  0  0  0  0  0  0  0  0
   -2.9487    3.3627    2.3099 H   0  0  0  0  0  0  0  0  0  0  0  0
   -3.4851    5.7084    2.7751 H   0  0  0  0  0  0  0  0  0  0  0  0
   -0.2609    6.9993    0.2770 H   0  0  0  0  0  0  0  0  0  0  0  0
    0.2878    4.6740   -0.2703 H   0  0  0  0  0  0  0  0  0  0  0  0
   -3.5540    0.5871    0.9503 H   0  0  0  0  0  0  0  0  0  0  0  0
  1  2  1  0
  2  3  2  0
  3  4  1  0
  3  5  1  0
  5  6  2  0
  6  7  1  0
  7  8  2  0
  8  9  1  0
  9 10  1  0
 10 11  2  0
 10 12  1  0
 12 13  1  0
 13 14  1  0
 14 15  1  0
 15 16  1  0
 16 17  2  0
 17 18  1  0
 18 19  2  0
 19 20  1  0
 20 21  2  0
 14 22  1  0
 22 23  1  0
 23 24  2  0
 24 25  1  0
 24 26  1  0
 26 27  1  0
 27 28  2  0
 28 29  1  0
 29 30  2  0
 30 31  1  0
 30 32  1  0
 32 33  2  0
 26 34  1  0
 34 35  1  0
  8  2  1  0
 23 12  1  0
 33 27  1  0
 12  7  1  0
 21 16  1  0
 34 22  2  0
  1 36  1  0
  1 37  1  0
  1 38  1  0
  5 39  1  0
  6 40  1  0
  9 41  1  0
 13 42  1  0
 14 43  1  1
 15 44  1  0
 15 45  1  0
 17 46  1  0
 18 47  1  0
 19 48  1  0
 20 49  1  0
 21 50  1  0
 25 51  1  0
 28 52  1  0
 29 53  1  0
 32 54  1  0
 33 55  1  0
 35 56  1  0
M  END
$$$$
