
     RDKit          3D

 38 39  0  0  0  0  0  0  0  0999 V2000
    1.4051    3.0342    1.9831 O   0  0  0  0  0  0  0  0  0  0  0  0
    0.7874    2.3302    1.1976 C   0  0  0  0  0  0  0  0  0  0  0  0
   -0.6129    1.9315    1.4659 C   0  0  0  0  0  0  0  0  0  0  0  0
   -1.0005    0.6606    1.2751 C   0  0  0  0  0  0  0  0  0  0  0  0
   -2.3902    0.2081    1.4218 C   0  0  0  0  0  0  0  0  0  0  0  0
   -3.0746    0.4662    2.6201 C   0  0  0  0  0  0  0  0  0  0  0  0
   -4.3836    0.0107    2.8128 C   0  0  0  0  0  0  0  0  0  0  0  0
   -5.0314   -0.7194    1.8173 C   0  0  0  0  0  0  0  0  0  0  0  0
   -4.3732   -0.9973    0.6211 C   0  0  0  0  0  0  0  0  0  0  0  0
   -3.0621   -0.5324    0.4297 C   0  0  0  0  0  0  0  0  0  0  0  0
   -2.4225   -0.8367   -0.8481 N   0  0  0  0  0  4  0  0  0  0  0  0
   -2.5498   -1.9897   -1.2834 O   0  0  0  0  0  0  0  0  0  0  0  0
   -1.8073    0.0731   -1.4245 O   0  0  0  0  0  1  0  0  0  0  0  0
    1.2598    1.8807   -0.0067 N   0  0  0  0  0  0  0  0  0  0  0  0
    2.6288    2.0959   -0.4273 C   0  0  0  0  0  0  0  0  0  0  0  0
    2.9741    1.3329   -1.7102 C   0  0  0  0  0  0  0  0  0  0  0  0
    2.8065   -0.1644   -1.5700 C   0  0  0  0  0  0  0  0  0  0  0  0
    1.6932   -0.8113   -2.1314 C   0  0  0  0  0  0  0  0  0  0  0  0
    1.5187   -2.1861   -1.9680 C   0  0  0  0  0  0  0  0  0  0  0  0
    2.4587   -2.9150   -1.2505 C   0  0  0  0  0  0  0  0  0  0  0  0
    2.2909   -4.2344   -1.0921 F   0  0  0  0  0  0  0  0  0  0  0  0
    3.5697   -2.2950   -0.6915 C   0  0  0  0  0  0  0  0  0  0  0  0
    3.7443   -0.9194   -0.8491 C   0  0  0  0  0  0  0  0  0  0  0  0
   -1.2642    2.7173    1.8274 H   0  0  0  0  0  0  0  0  0  0  0  0
   -0.2865   -0.0924    0.9433 H   0  0  0  0  0  0  0  0  0  0  0  0
   -2.5901    1.0147    3.4271 H   0  0  0  0  0  0  0  0  0  0  0  0
   -4.8952    0.2209    3.7503 H   0  0  0  0  0  0  0  0  0  0  0  0
   -6.0472   -1.0746    1.9772 H   0  0  0  0  0  0  0  0  0  0  0  0
   -4.8835   -1.5702   -0.1509 H   0  0  0  0  0  0  0  0  0  0  0  0
    0.6246    1.4061   -0.6383 H   0  0  0  0  0  0  0  0  0  0  0  0
    2.7603    3.1721   -0.5857 H   0  0  0  0  0  0  0  0  0  0  0  0
    3.2886    1.8029    0.3977 H   0  0  0  0  0  0  0  0  0  0  0  0
    4.0102    1.5489   -1.9989 H   0  0  0  0  0  0  0  0  0  0  0  0
    2.3461    1.6959   -2.5338 H   0  0  0  0  0  0  0  0  0  0  0  0
    0.9491   -0.2500   -2.6937 H   0  0  0  0  0  0  0  0  0  0  0  0
    0.6561   -2.6897   -2.3939 H   0  0  0  0  0  0  0  0  0  0  0  0
    4.2899   -2.8853   -0.1342 H   0  0  0  0  0  0  0  0  0  0  0  0
    4.6125   -0.4396   -0.4023 H   0  0  0  0  0  0  0  0  0  0  0  0
  1  2  2  0
  2  3  1  0
  3  4  2  3
  4  5  1  0
  5  6  2  0
  6  7  1  0
  7  8  2  0
  8  9  1  0
  9 10  2  0
 10 11  1  0
 11 12  2  0
 11 13  1  0
  2 14  1  0
 14 15  1  0
 15 16  1  0
 16 17  1  0
 17 18  2  0
 18 19  1  0
 19 20  2  0
 20 21  1  0
 20 22  1  0
 22 23  2  0
 10  5  1  0
 23 17  1  0
  3 24  1  0
  4 25  1  0
  6 26  1  0
  7 27  1  0
  8 28  1  0
  9 29  1  0
 14 30  1  0
 15 31  1  0
 15 32  1  0
 16 33  1  0
 16 34  1  0
 18 35  1  0
 19 36  1  0
 22 37  1  0
 23 38  1  0
M  CHG  2  11   1  13  -1
M  END
$$$$
