
     RDKit          3D

 36 38  0  0  0  0  0  0  0  0999 V2000
    4.5981    2.7179   -0.6123 C   0  0  0  0  0  0  0  0  0  0  0  0
    4.2348    1.3175   -0.2112 C   0  0  0  0  0  0  0  0  0  0  0  0
    5.2372    0.3735    0.0284 C   0  0  0  0  0  0  0  0  0  0  0  0
    4.9287   -0.9455    0.3751 C   0  0  0  0  0  0  0  0  0  0  0  0
    3.5773   -1.2960    0.4638 C   0  0  0  0  0  0  0  0  0  0  0  0
    2.9985   -2.5027    0.7798 N   0  0  0  0  0  0  0  0  0  0  0  0
    1.6316   -2.3993    0.7415 C   0  0  0  0  0  0  0  0  0  0  0  0
    1.3121   -1.1032    0.3964 C   0  0  0  0  0  0  0  0  0  0  0  0
   -0.0058   -0.5684    0.2385 C   0  0  0  0  0  0  0  0  0  0  0  0
   -1.1568   -1.2183    0.4834 C   0  0  0  0  0  0  0  0  0  0  0  0
   -2.4826   -0.6162    0.3071 C   0  0  0  0  0  0  0  0  0  0  0  0
   -2.8102    0.1376   -0.8190 C   0  0  0  0  0  0  0  0  0  0  0  0
   -4.0911    0.6627   -0.9480 C   0  0  0  0  0  0  0  0  0  0  0  0
   -5.0230    0.4474    0.0070 N   0  0  0  0  0  4  0  0  0  0  0  0
   -6.3754    1.0074   -0.1556 C   0  0  0  0  0  0  0  0  0  0  0  0
   -4.7349   -0.2992    1.0963 C   0  0  0  0  0  0  0  0  0  0  0  0
   -3.4678   -0.8461    1.2651 C   0  0  0  0  0  0  0  0  0  0  0  0
    2.5427   -0.3923    0.2184 C   0  0  0  0  0  0  0  0  0  0  0  0
    2.8848    0.9341   -0.1300 C   0  0  0  0  0  0  0  0  0  0  0  0
    4.6935    2.7820   -1.7006 H   0  0  0  0  0  0  0  0  0  0  0  0
    5.5452    3.0224   -0.1545 H   0  0  0  0  0  0  0  0  0  0  0  0
    3.8345    3.4295   -0.2810 H   0  0  0  0  0  0  0  0  0  0  0  0
    6.2846    0.6605   -0.0518 H   0  0  0  0  0  0  0  0  0  0  0  0
    5.7177   -1.6667    0.5642 H   0  0  0  0  0  0  0  0  0  0  0  0
    3.5157   -3.3421    1.0037 H   0  0  0  0  0  0  0  0  0  0  0  0
    1.0228   -3.2651    0.9614 H   0  0  0  0  0  0  0  0  0  0  0  0
   -0.0494    0.4649   -0.0984 H   0  0  0  0  0  0  0  0  0  0  0  0
   -1.1435   -2.2403    0.8552 H   0  0  0  0  0  0  0  0  0  0  0  0
   -2.0796    0.3110   -1.6071 H   0  0  0  0  0  0  0  0  0  0  0  0
   -4.3809    1.2510   -1.8142 H   0  0  0  0  0  0  0  0  0  0  0  0
   -6.3110    1.9410   -0.7205 H   0  0  0  0  0  0  0  0  0  0  0  0
   -6.8000    1.2107    0.8309 H   0  0  0  0  0  0  0  0  0  0  0  0
   -6.9736    0.2672   -0.6926 H   0  0  0  0  0  0  0  0  0  0  0  0
   -5.5248   -0.4556    1.8258 H   0  0  0  0  0  0  0  0  0  0  0  0
   -3.2536   -1.4420    2.1508 H   0  0  0  0  0  0  0  0  0  0  0  0
    2.1039    1.6606   -0.3322 H   0  0  0  0  0  0  0  0  0  0  0  0
  1  2  1  0
  2  3  2  0
  3  4  1  0
  4  5  2  0
  5  6  1  0
  6  7  1  0
  7  8  2  0
  8  9  1  0
  9 10  2  3
 10 11  1  0
 11 12  2  0
 12 13  1  0
 13 14  2  0
 14 15  1  0
 14 16  1  0
 16 17  2  0
  8 18  1  0
 18 19  2  0
 19  2  1  0
 18  5  1  0
 17 11  1  0
  1 20  1  0
  1 21  1  0
  1 22  1  0
  3 23  1  0
  4 24  1  0
  6 25  1  0
  7 26  1  0
  9 27  1  0
 10 28  1  0
 12 29  1  0
 13 30  1  0
 15 31  1  0
 15 32  1  0
 15 33  1  0
 16 34  1  0
 17 35  1  0
 19 36  1  0
M  CHG  1  14   1
M  END
$$$$
