
     RDKit          3D

 43 45  0  0  0  0  0  0  0  0999 V2000
   -6.3298   -0.3927    1.7074 C   0  0  0  0  0  0  0  0  0  0  0  0
   -5.0997   -1.0460    1.2599 N   0  0  0  0  0  0  0  0  0  0  0  0
   -5.1311   -2.5065    1.2397 C   0  0  0  0  0  0  0  0  0  0  0  0
   -4.2821   -0.3616    0.3521 C   0  0  0  0  0  0  0  0  0  0  0  0
   -3.4186   -1.0259   -0.5367 C   0  0  0  0  0  0  0  0  0  0  0  0
   -2.5872   -0.3347   -1.4312 C   0  0  0  0  0  0  0  0  0  0  0  0
   -2.5758    1.0580   -1.4518 C   0  0  0  0  0  0  0  0  0  0  0  0
   -1.7185    1.8011   -2.3785 C   0  0  0  0  0  0  0  0  0  0  0  0
   -0.3758    1.8481   -2.3656 C   0  0  0  0  0  0  0  0  0  0  0  0
    0.4982    1.1924   -1.4089 C   0  0  0  0  0  0  0  0  0  0  0  0
    1.8397    1.1980   -1.4174 C   0  0  0  0  0  0  0  0  0  0  0  0
    2.8785    1.9541   -2.5478 S   0  0  0  0  0  0  0  0  0  0  0  0
    4.3361    1.4830   -1.6716 C   0  0  0  0  0  0  0  0  0  0  0  0
    5.8150    2.1170   -2.1391 S   0  0  0  0  0  0  0  0  0  0  0  0
    4.0013    0.6599   -0.6012 N   0  0  0  0  0  0  0  0  0  0  0  0
    4.9515    0.0158    0.2609 C   0  0  0  0  0  0  0  0  0  0  0  0
    4.7195   -0.0753    1.6431 C   0  0  0  0  0  0  0  0  0  0  0  0
    5.6339   -0.7080    2.4915 C   0  0  0  0  0  0  0  0  0  0  0  0
    6.7926   -1.2747    1.9703 C   0  0  0  0  0  0  0  0  0  0  0  0
    7.0324   -1.2139    0.6014 C   0  0  0  0  0  0  0  0  0  0  0  0
    6.1181   -0.5779   -0.2456 C   0  0  0  0  0  0  0  0  0  0  0  0
    2.6341    0.4808   -0.3804 C   0  0  0  0  0  0  0  0  0  0  0  0
    2.0945   -0.1870    0.4943 O   0  0  0  0  0  0  0  0  0  0  0  0
   -3.4143    1.7458   -0.5795 C   0  0  0  0  0  0  0  0  0  0  0  0
   -4.2456    1.0440    0.3066 C   0  0  0  0  0  0  0  0  0  0  0  0
   -6.9553   -0.1055    0.8535 H   0  0  0  0  0  0  0  0  0  0  0  0
   -6.1145    0.4906    2.3192 H   0  0  0  0  0  0  0  0  0  0  0  0
   -6.9257   -1.0603    2.3410 H   0  0  0  0  0  0  0  0  0  0  0  0
   -5.5697   -2.8796    0.3073 H   0  0  0  0  0  0  0  0  0  0  0  0
   -5.7294   -2.8971    2.0706 H   0  0  0  0  0  0  0  0  0  0  0  0
   -4.1277   -2.9275    1.3696 H   0  0  0  0  0  0  0  0  0  0  0  0
   -3.3723   -2.1101   -0.5678 H   0  0  0  0  0  0  0  0  0  0  0  0
   -1.9484   -0.9011   -2.1047 H   0  0  0  0  0  0  0  0  0  0  0  0
   -2.2584    2.3668   -3.1359 H   0  0  0  0  0  0  0  0  0  0  0  0
    0.0988    2.4512   -3.1386 H   0  0  0  0  0  0  0  0  0  0  0  0
    0.0011    0.6518   -0.6027 H   0  0  0  0  0  0  0  0  0  0  0  0
    3.8312    0.3627    2.0930 H   0  0  0  0  0  0  0  0  0  0  0  0
    5.4345   -0.7591    3.5589 H   0  0  0  0  0  0  0  0  0  0  0  0
    7.5014   -1.7713    2.6281 H   0  0  0  0  0  0  0  0  0  0  0  0
    7.9264   -1.6730    0.1846 H   0  0  0  0  0  0  0  0  0  0  0  0
    6.3240   -0.6036   -1.3123 H   0  0  0  0  0  0  0  0  0  0  0  0
   -3.4263    2.8332   -0.5667 H   0  0  0  0  0  0  0  0  0  0  0  0
   -4.8566    1.6378    0.9799 H   0  0  0  0  0  0  0  0  0  0  0  0
  1  2  1  0
  2  3  1  0
  2  4  1  0
  4  5  2  0
  5  6  1  0
  6  7  2  0
  7  8  1  0
  8  9  2  3
  9 10  1  0
 10 11  2  3
 11 12  1  0
 12 13  1  0
 13 14  2  0
 13 15  1  0
 15 16  1  0
 16 17  2  0
 17 18  1  0
 18 19  2  0
 19 20  1  0
 20 21  2  0
 15 22  1  0
 22 23  2  0
  7 24  1  0
 24 25  2  0
 25  4  1  0
 22 11  1  0
 21 16  1  0
  1 26  1  0
  1 27  1  0
  1 28  1  0
  3 29  1  0
  3 30  1  0
  3 31  1  0
  5 32  1  0
  6 33  1  0
  8 34  1  0
  9 35  1  0
 10 36  1  0
 17 37  1  0
 18 38  1  0
 19 39  1  0
 20 40  1  0
 21 41  1  0
 24 42  1  0
 25 43  1  0
M  END
$$$$
