
     RDKit          3D

 44 47  0  0  0  0  0  0  0  0999 V2000
   -3.7162    5.3340   -0.9774 N   0  0  0  0  0  0  0  0  0  0  0  0
   -4.2954    4.1181   -0.9816 C   0  0  0  0  0  0  0  0  0  0  0  0
   -5.6049    3.9120   -1.1142 N   0  0  0  0  0  0  0  0  0  0  0  0
   -5.7700    2.5319   -1.0791 O   0  0  0  0  0  0  0  0  0  0  0  0
   -4.5486    1.8806   -0.9190 N   0  0  0  0  0  0  0  0  0  0  0  0
   -3.6566    2.8690   -0.8543 C   0  0  0  0  0  0  0  0  0  0  0  0
   -2.2740    2.6077   -0.6714 N   0  0  0  0  0  0  0  0  0  0  0  0
   -1.3725    3.6299   -0.5697 N   0  0  0  0  0  0  0  0  0  0  0  0
   -0.1656    3.1316   -0.3769 N   0  0  0  0  0  0  0  0  0  0  0  0
   -0.2619    1.7666   -0.3583 C   0  0  0  0  0  0  0  0  0  0  0  0
    0.9046    0.9080   -0.1525 C   0  0  0  0  0  0  0  0  0  0  0  0
    0.8188   -0.3160   -0.1329 O   0  0  0  0  0  0  0  0  0  0  0  0
    2.0750    1.6423    0.0202 N   0  0  0  0  0  0  0  0  0  0  0  0
    3.2895    1.1457    0.4203 N   0  0  0  0  0  0  0  0  0  0  0  0
    3.6349   -0.0341    0.0133 C   0  0  0  0  0  0  0  0  0  0  0  0
    4.9079   -0.6552    0.4329 C   0  0  0  0  0  0  0  0  0  0  0  0
    5.6851   -1.3229   -0.5268 C   0  0  0  0  0  0  0  0  0  0  0  0
    5.2318   -1.4221   -2.1944 Cl  0  0  0  0  0  0  0  0  0  0  0  0
    6.8983   -1.9200   -0.1649 C   0  0  0  0  0  0  0  0  0  0  0  0
    7.3434   -1.8611    1.1533 C   0  0  0  0  0  0  0  0  0  0  0  0
    6.5715   -1.2105    2.1137 C   0  0  0  0  0  0  0  0  0  0  0  0
    5.3547   -0.6108    1.7623 C   0  0  0  0  0  0  0  0  0  0  0  0
    4.4448    0.0938    3.0535 Cl  0  0  0  0  0  0  0  0  0  0  0  0
   -1.5870    1.3999   -0.5512 C   0  0  0  0  0  0  0  0  0  0  0  0
   -2.2039    0.0465   -0.6148 C   0  0  0  0  0  0  0  0  0  0  0  0
   -2.7711   -0.4521    1.0331 S   0  0  0  0  0  0  0  0  0  0  0  0
   -3.3874   -2.0273    0.6691 C   0  0  0  0  0  0  0  0  0  0  0  0
   -3.4320   -2.5293   -0.5192 N   0  0  0  0  0  0  0  0  0  0  0  0
   -4.0724   -3.8594   -0.4527 C   0  0  0  0  0  0  0  0  0  0  0  0
   -3.8967   -4.4532    0.9360 C   0  0  0  0  0  0  0  0  0  0  0  0
   -3.9606   -2.9991    1.9946 S   0  0  0  0  0  0  0  0  0  0  0  0
   -2.7517    5.4557   -0.6725 H   0  0  0  0  0  0  0  0  0  0  0  0
   -4.3005    6.1552   -0.8593 H   0  0  0  0  0  0  0  0  0  0  0  0
    1.9600    2.6403    0.1873 H   0  0  0  0  0  0  0  0  0  0  0  0
    3.0363   -0.6082   -0.7136 H   0  0  0  0  0  0  0  0  0  0  0  0
    7.5049   -2.4299   -0.9107 H   0  0  0  0  0  0  0  0  0  0  0  0
    8.2865   -2.3250    1.4336 H   0  0  0  0  0  0  0  0  0  0  0  0
    6.9187   -1.1809    3.1450 H   0  0  0  0  0  0  0  0  0  0  0  0
   -3.0225    0.0118   -1.3382 H   0  0  0  0  0  0  0  0  0  0  0  0
   -1.4678   -0.6812   -0.9709 H   0  0  0  0  0  0  0  0  0  0  0  0
   -5.1349   -3.7555   -0.7065 H   0  0  0  0  0  0  0  0  0  0  0  0
   -3.6241   -4.5202   -1.2023 H   0  0  0  0  0  0  0  0  0  0  0  0
   -4.6742   -5.1814    1.1800 H   0  0  0  0  0  0  0  0  0  0  0  0
   -2.9145   -4.9253    1.0371 H   0  0  0  0  0  0  0  0  0  0  0  0
  1  2  1  0
  2  3  2  0
  3  4  1  0
  4  5  1  0
  5  6  2  0
  6  7  1  0
  7  8  1  0
  8  9  2  0
  9 10  1  0
 10 11  1  0
 11 12  2  0
 11 13  1  0
 13 14  1  0
 14 15  2  3
 15 16  1  0
 16 17  2  0
 17 18  1  0
 17 19  1  0
 19 20  2  0
 20 21  1  0
 21 22  2  0
 22 23  1  0
 10 24  2  0
 24 25  1  0
 25 26  1  0
 26 27  1  0
 27 28  2  0
 28 29  1  0
 29 30  1  0
 30 31  1  0
  6  2  1  0
 24  7  1  0
 31 27  1  0
 22 16  1  0
  1 32  1  0
  1 33  1  0
 13 34  1  0
 15 35  1  0
 19 36  1  0
 20 37  1  0
 21 38  1  0
 25 39  1  0
 25 40  1  0
 29 41  1  0
 29 42  1  0
 30 43  1  0
 30 44  1  0
M  END
$$$$
