
     RDKit          3D

 36 38  0  0  0  0  0  0  0  0999 V2000
    4.5959    2.7146   -0.6362 C   0  0  0  0  0  0  0  0  0  0  0  0
    4.2338    1.2993   -0.2902 C   0  0  0  0  0  0  0  0  0  0  0  0
    5.2368    0.3626   -0.0259 C   0  0  0  0  0  0  0  0  0  0  0  0
    4.9292   -0.9541    0.3301 C   0  0  0  0  0  0  0  0  0  0  0  0
    3.5780   -1.3041    0.4244 C   0  0  0  0  0  0  0  0  0  0  0  0
    3.0000   -2.5084    0.7512 N   0  0  0  0  0  0  0  0  0  0  0  0
    1.6330   -2.4023    0.7265 C   0  0  0  0  0  0  0  0  0  0  0  0
    1.3126   -1.1071    0.3788 C   0  0  0  0  0  0  0  0  0  0  0  0
   -0.0057   -0.5702    0.2324 C   0  0  0  0  0  0  0  0  0  0  0  0
   -1.1553   -1.2152    0.4960 C   0  0  0  0  0  0  0  0  0  0  0  0
   -2.4816   -0.6114    0.3299 C   0  0  0  0  0  0  0  0  0  0  0  0
   -3.4565   -0.8314    1.3009 C   0  0  0  0  0  0  0  0  0  0  0  0
   -4.7243   -0.2831    1.1420 C   0  0  0  0  0  0  0  0  0  0  0  0
   -5.0230    0.4554    0.0500 N   0  0  0  0  0  4  0  0  0  0  0  0
   -6.3760    1.0171   -0.1018 C   0  0  0  0  0  0  0  0  0  0  0  0
   -4.1015    0.6610   -0.9171 C   0  0  0  0  0  0  0  0  0  0  0  0
   -2.8204    0.1341   -0.7983 C   0  0  0  0  0  0  0  0  0  0  0  0
    2.5428   -0.4001    0.1827 C   0  0  0  0  0  0  0  0  0  0  0  0
    2.8840    0.9244   -0.1736 C   0  0  0  0  0  0  0  0  0  0  0  0
    4.6876    3.3108    0.2769 H   0  0  0  0  0  0  0  0  0  0  0  0
    5.5446    2.7531   -1.1818 H   0  0  0  0  0  0  0  0  0  0  0  0
    3.8336    3.1667   -1.2794 H   0  0  0  0  0  0  0  0  0  0  0  0
    6.2839    0.6531   -0.0960 H   0  0  0  0  0  0  0  0  0  0  0  0
    5.7187   -1.6723    0.5281 H   0  0  0  0  0  0  0  0  0  0  0  0
    3.5179   -3.3473    0.9754 H   0  0  0  0  0  0  0  0  0  0  0  0
    1.0247   -3.2656    0.9571 H   0  0  0  0  0  0  0  0  0  0  0  0
   -0.0508    0.4605   -0.1124 H   0  0  0  0  0  0  0  0  0  0  0  0
   -1.1401   -2.2342    0.8759 H   0  0  0  0  0  0  0  0  0  0  0  0
   -3.2335   -1.4208    2.1888 H   0  0  0  0  0  0  0  0  0  0  0  0
   -5.5062   -0.4320    1.8815 H   0  0  0  0  0  0  0  0  0  0  0  0
   -6.3159    1.9462   -0.6745 H   0  0  0  0  0  0  0  0  0  0  0  0
   -6.7892    1.2288    0.8877 H   0  0  0  0  0  0  0  0  0  0  0  0
   -6.9816    0.2741   -0.6265 H   0  0  0  0  0  0  0  0  0  0  0  0
   -4.3998    1.2431   -1.7847 H   0  0  0  0  0  0  0  0  0  0  0  0
   -2.0983    0.2995   -1.5960 H   0  0  0  0  0  0  0  0  0  0  0  0
    2.1025    1.6551   -0.3578 H   0  0  0  0  0  0  0  0  0  0  0  0
  1  2  1  0
  2  3  2  0
  3  4  1  0
  4  5  2  0
  5  6  1  0
  6  7  1  0
  7  8  2  0
  8  9  1  0
  9 10  2  3
 10 11  1  0
 11 12  2  0
 12 13  1  0
 13 14  2  0
 14 15  1  0
 14 16  1  0
 16 17  2  0
  8 18  1  0
 18 19  2  0
 19  2  1  0
 18  5  1  0
 17 11  1  0
  1 20  1  0
  1 21  1  0
  1 22  1  0
  3 23  1  0
  4 24  1  0
  6 25  1  0
  7 26  1  0
  9 27  1  0
 10 28  1  0
 12 29  1  0
 13 30  1  0
 15 31  1  0
 15 32  1  0
 15 33  1  0
 16 34  1  0
 17 35  1  0
 19 36  1  0
M  CHG  1  14   1
M  END
$$$$
