
     RDKit          3D

 58 62  0  0  0  0  0  0  0  0999 V2000
    8.5386    2.5462    1.2275 C   0  0  0  0  0  0  0  0  0  0  0  0
    7.9409    1.2559    1.2681 O   0  0  0  0  0  0  0  0  0  0  0  0
    6.6477    1.1625    0.8327 C   0  0  0  0  0  0  0  0  0  0  0  0
    5.8486    2.2197    0.3976 C   0  0  0  0  0  0  0  0  0  0  0  0
    4.5346    1.9832   -0.0207 C   0  0  0  0  0  0  0  0  0  0  0  0
    4.0057    0.6872   -0.0122 C   0  0  0  0  0  0  0  0  0  0  0  0
    2.5800    0.4400   -0.4396 C   0  0  0  0  0  0  0  0  0  0  0  0
    1.6029    0.5723    0.7323 C   0  0  0  0  0  0  0  0  0  0  0  0
    0.2309    0.2268    0.3085 N   0  0  0  0  0  0  0  0  0  0  0  0
   -0.5781    1.2344   -0.2350 C   0  0  0  0  0  0  0  0  0  0  0  0
   -0.0949    2.4369   -0.3808 N   0  0  0  0  0  0  0  0  0  0  0  0
   -2.0041    0.9162   -0.6505 C   0  0  0  0  0  0  0  0  0  0  0  0
   -2.9261    1.9830   -1.1561 C   0  0  0  0  0  0  0  0  0  0  0  0
   -2.4894    3.0998   -1.4323 O   0  0  0  0  0  0  0  0  0  0  0  0
   -4.2590    1.6798   -1.2729 N   0  0  0  0  0  0  0  0  0  0  0  0
   -5.1797    2.6491   -1.8240 C   0  0  0  0  0  0  0  0  0  0  0  0
   -6.5622    2.1739   -1.5846 C   0  0  0  0  0  0  0  0  0  0  0  0
   -7.5411    2.5268   -0.6790 C   0  0  0  0  0  0  0  0  0  0  0  0
   -8.6539    1.6928   -0.9480 C   0  0  0  0  0  0  0  0  0  0  0  0
   -8.2819    0.8830   -1.9957 C   0  0  0  0  0  0  0  0  0  0  0  0
   -7.0119    1.1653   -2.3873 O   0  0  0  0  0  0  0  0  0  0  0  0
   -2.3494   -0.3798   -0.5421 C   0  0  0  0  0  0  0  0  0  0  0  0
   -1.4487   -1.4110   -0.0418 C   0  0  0  0  0  0  0  0  0  0  0  0
   -1.9182   -2.8255    0.0207 C   0  0  0  0  0  0  0  0  0  0  0  0
   -3.0628   -3.1049   -0.3448 O   0  0  0  0  0  0  0  0  0  0  0  0
   -1.0075   -3.7494    0.5002 N   0  0  0  0  0  0  0  0  0  0  0  0
   -1.3686   -5.0905    0.5839 C   0  0  0  0  0  0  0  0  0  0  0  0
   -0.5221   -6.0207    1.0428 C   0  0  0  0  0  0  0  0  0  0  0  0
    0.7994   -5.6402    1.4656 C   0  0  0  0  0  0  0  0  0  0  0  0
    1.1878   -4.3608    1.4037 C   0  0  0  0  0  0  0  0  0  0  0  0
    0.2480   -3.3230    0.8921 C   0  0  0  0  0  0  0  0  0  0  0  0
    0.6513   -2.0947    0.8426 N   0  0  0  0  0  0  0  0  0  0  0  0
   -0.1970   -1.1174    0.3741 C   0  0  0  0  0  0  0  0  0  0  0  0
    4.8083   -0.3694    0.4307 C   0  0  0  0  0  0  0  0  0  0  0  0
    6.1190   -0.1303    0.8478 C   0  0  0  0  0  0  0  0  0  0  0  0
    9.5713    2.4495    1.5770 H   0  0  0  0  0  0  0  0  0  0  0  0
    8.0225    3.2404    1.9007 H   0  0  0  0  0  0  0  0  0  0  0  0
    8.5702    2.9345    0.2033 H   0  0  0  0  0  0  0  0  0  0  0  0
    6.2123    3.2414    0.3731 H   0  0  0  0  0  0  0  0  0  0  0  0
    3.9227    2.8211   -0.3520 H   0  0  0  0  0  0  0  0  0  0  0  0
    2.5078   -0.5571   -0.8892 H   0  0  0  0  0  0  0  0  0  0  0  0
    2.3133    1.1388   -1.2410 H   0  0  0  0  0  0  0  0  0  0  0  0
    1.6376    1.5878    1.1465 H   0  0  0  0  0  0  0  0  0  0  0  0
    1.9180   -0.0677    1.5665 H   0  0  0  0  0  0  0  0  0  0  0  0
   -0.8078    3.0606   -0.8022 H   0  0  0  0  0  0  0  0  0  0  0  0
   -4.6029    0.7337   -1.1983 H   0  0  0  0  0  0  0  0  0  0  0  0
   -5.0097    3.6222   -1.3481 H   0  0  0  0  0  0  0  0  0  0  0  0
   -4.9743    2.7517   -2.8951 H   0  0  0  0  0  0  0  0  0  0  0  0
   -7.4586    3.2922    0.0833 H   0  0  0  0  0  0  0  0  0  0  0  0
   -9.6090    1.6816   -0.4407 H   0  0  0  0  0  0  0  0  0  0  0  0
   -8.7796    0.0972   -2.5509 H   0  0  0  0  0  0  0  0  0  0  0  0
   -3.3306   -0.7378   -0.8335 H   0  0  0  0  0  0  0  0  0  0  0  0
   -2.3725   -5.3550    0.2597 H   0  0  0  0  0  0  0  0  0  0  0  0
   -0.8126   -7.0650    1.1043 H   0  0  0  0  0  0  0  0  0  0  0  0
    1.4684   -6.4111    1.8348 H   0  0  0  0  0  0  0  0  0  0  0  0
    2.1723   -4.0328    1.7136 H   0  0  0  0  0  0  0  0  0  0  0  0
    4.4191   -1.3844    0.4559 H   0  0  0  0  0  0  0  0  0  0  0  0
    6.7351   -0.9589    1.1882 H   0  0  0  0  0  0  0  0  0  0  0  0
  1  2  1  0
  2  3  1  0
  3  4  2  0
  4  5  1  0
  5  6  2  0
  6  7  1  0
  7  8  1  0
  8  9  1  0
  9 10  1  0
 10 11  2  3
 10 12  1  0
 12 13  1  0
 13 14  2  0
 13 15  1  0
 15 16  1  0
 16 17  1  0
 17 18  2  0
 18 19  1  0
 19 20  2  0
 20 21  1  0
 12 22  2  0
 22 23  1  0
 23 24  1  0
 24 25  2  0
 24 26  1  0
 26 27  1  0
 27 28  2  0
 28 29  1  0
 29 30  2  0
 30 31  1  0
 31 32  2  0
 32 33  1  0
  6 34  1  0
 34 35  2  0
 35  3  1  0
 33  9  1  0
 21 17  1  0
 33 23  2  0
 31 26  1  0
  1 36  1  0
  1 37  1  0
  1 38  1  0
  4 39  1  0
  5 40  1  0
  7 41  1  0
  7 42  1  0
  8 43  1  0
  8 44  1  0
 11 45  1  0
 15 46  1  0
 16 47  1  0
 16 48  1  0
 18 49  1  0
 19 50  1  0
 20 51  1  0
 22 52  1  0
 27 53  1  0
 28 54  1  0
 29 55  1  0
 30 56  1  0
 34 57  1  0
 35 58  1  0
M  END
$$$$
