
     RDKit          3D

 74 79  0  0  0  0  0  0  0  0999 V2000
    8.7649   -2.8997   -3.3479 C   0  0  0  0  0  0  0  0  0  0  0  0
    7.4211   -3.2854   -3.0810 O   0  0  0  0  0  0  0  0  0  0  0  0
    6.5854   -2.3124   -2.6087 C   0  0  0  0  0  0  0  0  0  0  0  0
    6.8923   -0.9632   -2.4692 C   0  0  0  0  0  0  0  0  0  0  0  0
    5.9343   -0.0725   -1.9640 C   0  0  0  0  0  0  0  0  0  0  0  0
    4.6461   -0.4967   -1.5888 C   0  0  0  0  0  0  0  0  0  0  0  0
    3.6617    0.4674   -1.0482 C   0  0  0  0  0  0  0  0  0  0  0  0
    2.2928    0.2916   -1.1417 C   0  0  0  0  0  0  0  0  0  0  0  0
    1.4568    1.2514   -0.5697 C   0  0  0  0  0  0  0  0  0  0  0  0
    0.0052    0.9694   -0.6250 C   0  0  0  0  0  0  0  0  0  0  0  0
   -0.5152    0.7919   -1.7180 O   0  0  0  0  0  0  0  0  0  0  0  0
   -0.5862    0.8768    0.6113 N   0  0  0  0  0  0  0  0  0  0  0  0
   -1.9367    0.6287    0.9228 C   0  0  0  0  0  0  0  0  0  0  0  0
   -2.9408    0.4879   -0.0314 C   0  0  0  0  0  0  0  0  0  0  0  0
   -4.2480    0.2304    0.3896 C   0  0  0  0  0  0  0  0  0  0  0  0
   -5.5205    0.0555   -0.8339 S   0  0  0  0  0  6  0  0  0  0  0  0
   -5.5626    1.2906   -1.5862 O   0  0  0  0  0  0  0  0  0  0  0  0
   -6.7046   -0.4752   -0.1884 O   0  0  0  0  0  0  0  0  0  0  0  0
   -4.9132   -1.1690   -1.8446 N   0  0  0  0  0  0  0  0  0  0  0  0
   -4.7825   -2.5306   -1.2373 C   0  0  0  0  0  0  0  0  0  0  0  0
   -5.8588   -3.4759   -1.7781 C   0  0  0  0  0  0  0  0  0  0  0  0
   -5.7696   -3.6742   -3.1961 O   0  0  0  0  0  0  0  0  0  0  0  0
   -5.2629   -2.5292   -3.8973 C   0  0  0  0  0  0  0  0  0  0  0  0
   -5.5679   -1.2055   -3.1916 C   0  0  0  0  0  0  0  0  0  0  0  0
   -4.5629    0.1157    1.7457 C   0  0  0  0  0  0  0  0  0  0  0  0
   -3.5557    0.2659    2.7004 C   0  0  0  0  0  0  0  0  0  0  0  0
   -2.2354    0.5263    2.3063 C   0  0  0  0  0  0  0  0  0  0  0  0
   -1.1832    0.7176    3.2362 N   0  0  0  0  0  0  0  0  0  0  0  0
   -0.9893   -0.3907    4.2048 C   0  0  0  0  0  0  0  0  0  0  0  0
   -1.3091    0.0438    5.6437 C   0  0  0  0  0  0  0  0  0  0  0  0
   -0.5380    1.1696    6.0860 O   0  0  0  0  0  0  0  0  0  0  0  0
   -0.2518    2.1151    5.0417 C   0  0  0  0  0  0  0  0  0  0  0  0
   -1.2475    2.0570    3.8731 C   0  0  0  0  0  0  0  0  0  0  0  0
    1.9787    2.4096    0.0447 C   0  0  0  0  0  0  0  0  0  0  0  0
    1.2050    3.4706    0.5849 C   0  0  0  0  0  0  0  0  0  0  0  0
    1.8129    4.5734    1.1813 C   0  0  0  0  0  0  0  0  0  0  0  0
    3.1968    4.6370    1.2413 C   0  0  0  0  0  0  0  0  0  0  0  0
    3.9609    3.6039    0.6932 C   0  0  0  0  0  0  0  0  0  0  0  0
    3.3797    2.4968    0.0891 C   0  0  0  0  0  0  0  0  0  0  0  0
    4.1868    1.5562   -0.4303 N   0  0  0  0  0  0  0  0  0  0  0  0
    4.3598   -1.8642   -1.7401 C   0  0  0  0  0  0  0  0  0  0  0  0
    5.3148   -2.7559   -2.2454 C   0  0  0  0  0  0  0  0  0  0  0  0
    8.8104   -2.1751   -4.1672 H   0  0  0  0  0  0  0  0  0  0  0  0
    9.2525   -2.5113   -2.4471 H   0  0  0  0  0  0  0  0  0  0  0  0
    9.3121   -3.7930   -3.6636 H   0  0  0  0  0  0  0  0  0  0  0  0
    7.8630   -0.5639   -2.7409 H   0  0  0  0  0  0  0  0  0  0  0  0
    6.2055    0.9774   -1.8640 H   0  0  0  0  0  0  0  0  0  0  0  0
    1.8612   -0.5663   -1.6466 H   0  0  0  0  0  0  0  0  0  0  0  0
   -0.0063    0.9458    1.4455 H   0  0  0  0  0  0  0  0  0  0  0  0
   -2.7344    0.5788   -1.0936 H   0  0  0  0  0  0  0  0  0  0  0  0
   -4.8353   -2.4922   -0.1455 H   0  0  0  0  0  0  0  0  0  0  0  0
   -3.7859   -2.9030   -1.5001 H   0  0  0  0  0  0  0  0  0  0  0  0
   -6.8620   -3.0951   -1.5540 H   0  0  0  0  0  0  0  0  0  0  0  0
   -5.7682   -4.4596   -1.3055 H   0  0  0  0  0  0  0  0  0  0  0  0
   -4.1821   -2.6610   -4.0193 H   0  0  0  0  0  0  0  0  0  0  0  0
   -5.7094   -2.5353   -4.8965 H   0  0  0  0  0  0  0  0  0  0  0  0
   -5.1862   -0.3739   -3.7921 H   0  0  0  0  0  0  0  0  0  0  0  0
   -6.6531   -1.0982   -3.0783 H   0  0  0  0  0  0  0  0  0  0  0  0
   -5.5846   -0.0757    2.0657 H   0  0  0  0  0  0  0  0  0  0  0  0
   -3.8162    0.1933    3.7518 H   0  0  0  0  0  0  0  0  0  0  0  0
    0.0692   -0.6715    4.1519 H   0  0  0  0  0  0  0  0  0  0  0  0
   -1.5689   -1.2825    3.9386 H   0  0  0  0  0  0  0  0  0  0  0  0
   -1.1087   -0.7798    6.3374 H   0  0  0  0  0  0  0  0  0  0  0  0
   -2.3688    0.3034    5.7460 H   0  0  0  0  0  0  0  0  0  0  0  0
    0.7669    1.9174    4.6852 H   0  0  0  0  0  0  0  0  0  0  0  0
   -0.2550    3.1131    5.4927 H   0  0  0  0  0  0  0  0  0  0  0  0
   -0.9938    2.8275    3.1361 H   0  0  0  0  0  0  0  0  0  0  0  0
   -2.2567    2.2626    4.2535 H   0  0  0  0  0  0  0  0  0  0  0  0
    0.1183    3.4540    0.5247 H   0  0  0  0  0  0  0  0  0  0  0  0
    1.2086    5.3819    1.5855 H   0  0  0  0  0  0  0  0  0  0  0  0
    3.6890    5.4910    1.6994 H   0  0  0  0  0  0  0  0  0  0  0  0
    5.0461    3.6696    0.7316 H   0  0  0  0  0  0  0  0  0  0  0  0
    3.3937   -2.2690   -1.4500 H   0  0  0  0  0  0  0  0  0  0  0  0
    5.0652   -3.8094   -2.3475 H   0  0  0  0  0  0  0  0  0  0  0  0
  1  2  1  0
  2  3  1  0
  3  4  2  0
  4  5  1  0
  5  6  2  0
  6  7  1  0
  7  8  2  0
  8  9  1  0
  9 10  1  0
 10 11  2  0
 10 12  1  0
 12 13  1  0
 13 14  2  0
 14 15  1  0
 15 16  1  0
 16 17  2  0
 16 18  2  0
 16 19  1  0
 19 20  1  0
 20 21  1  0
 21 22  1  0
 22 23  1  0
 23 24  1  0
 15 25  2  0
 25 26  1  0
 26 27  2  0
 27 28  1  0
 28 29  1  0
 29 30  1  0
 30 31  1  0
 31 32  1  0
 32 33  1  0
  9 34  2  0
 34 35  1  0
 35 36  2  0
 36 37  1  0
 37 38  2  0
 38 39  1  0
 39 40  2  0
  6 41  1  0
 41 42  2  0
 42  3  1  0
 40  7  1  0
 27 13  1  0
 33 28  1  0
 39 34  1  0
 24 19  1  0
  1 43  1  0
  1 44  1  0
  1 45  1  0
  4 46  1  0
  5 47  1  0
  8 48  1  0
 12 49  1  0
 14 50  1  0
 20 51  1  0
 20 52  1  0
 21 53  1  0
 21 54  1  0
 23 55  1  0
 23 56  1  0
 24 57  1  0
 24 58  1  0
 25 59  1  0
 26 60  1  0
 29 61  1  0
 29 62  1  0
 30 63  1  0
 30 64  1  0
 32 65  1  0
 32 66  1  0
 33 67  1  0
 33 68  1  0
 35 69  1  0
 36 70  1  0
 37 71  1  0
 38 72  1  0
 41 73  1  0
 42 74  1  0
M  END
$$$$
