
     RDKit          3D

 44 45  0  0  0  0  0  0  0  0999 V2000
    7.6432    0.9217    0.5879 C   0  0  0  0  0  0  0  0  0  0  0  0
    6.3687    1.7041    0.8501 C   0  0  0  0  0  0  0  0  0  0  0  0
    5.2436    0.8151    0.8806 O   0  0  0  0  0  0  0  0  0  0  0  0
    4.6611    0.5603   -0.3177 C   0  0  0  0  0  0  0  0  0  0  0  0
    5.0096    1.0118   -1.3966 O   0  0  0  0  0  0  0  0  0  0  0  0
    3.5104   -0.3716   -0.1524 C   0  0  0  0  0  0  0  0  0  0  0  0
    3.1593   -0.9232    1.0892 C   0  0  0  0  0  0  0  0  0  0  0  0
    2.0737   -1.8001    1.1915 C   0  0  0  0  0  0  0  0  0  0  0  0
    1.3324   -2.1169    0.0498 C   0  0  0  0  0  0  0  0  0  0  0  0
   -0.0350   -3.2525    0.1798 S   0  0  0  0  0  6  0  0  0  0  0  0
   -0.3523   -3.7406   -1.1484 O   0  0  0  0  0  0  0  0  0  0  0  0
    0.2462   -4.1558    1.2780 O   0  0  0  0  0  0  0  0  0  0  0  0
   -1.3161   -2.2337    0.6801 N   0  0  0  0  0  0  0  0  0  0  0  0
   -1.5499   -1.1342   -0.1700 N   0  0  0  0  0  0  0  0  0  0  0  0
   -1.7623    0.3386    0.6838 S   0  0  0  0  0  6  0  0  0  0  0  0
   -1.6827    0.0210    2.0976 O   0  0  0  0  0  0  0  0  0  0  0  0
   -0.9007    1.3300    0.0767 O   0  0  0  0  0  0  0  0  0  0  0  0
   -3.4459    0.7255    0.2746 C   0  0  0  0  0  0  0  0  0  0  0  0
   -4.4810    0.1725    1.0324 C   0  0  0  0  0  0  0  0  0  0  0  0
   -5.8063    0.4619    0.6991 C   0  0  0  0  0  0  0  0  0  0  0  0
   -6.0997    1.3111   -0.3780 C   0  0  0  0  0  0  0  0  0  0  0  0
   -7.5224    1.6059   -0.7577 C   0  0  0  0  0  0  0  0  0  0  0  0
   -5.0492    1.8641   -1.1236 C   0  0  0  0  0  0  0  0  0  0  0  0
   -3.7221    1.5810   -0.7962 C   0  0  0  0  0  0  0  0  0  0  0  0
    1.6802   -1.5859   -1.1950 C   0  0  0  0  0  0  0  0  0  0  0  0
    2.7656   -0.7101   -1.2918 C   0  0  0  0  0  0  0  0  0  0  0  0
    8.5160    1.5818    0.6143 H   0  0  0  0  0  0  0  0  0  0  0  0
    7.6057    0.4252   -0.3893 H   0  0  0  0  0  0  0  0  0  0  0  0
    7.7747    0.1361    1.3407 H   0  0  0  0  0  0  0  0  0  0  0  0
    6.2280    2.5018    0.1120 H   0  0  0  0  0  0  0  0  0  0  0  0
    6.4246    2.1846    1.8334 H   0  0  0  0  0  0  0  0  0  0  0  0
    3.7255   -0.6826    1.9849 H   0  0  0  0  0  0  0  0  0  0  0  0
    1.8198   -2.2298    2.1580 H   0  0  0  0  0  0  0  0  0  0  0  0
   -1.2456   -2.0178    1.6901 H   0  0  0  0  0  0  0  0  0  0  0  0
   -2.2353   -1.3061   -0.9187 H   0  0  0  0  0  0  0  0  0  0  0  0
   -4.2699   -0.4847    1.8769 H   0  0  0  0  0  0  0  0  0  0  0  0
   -6.6120    0.0234    1.2861 H   0  0  0  0  0  0  0  0  0  0  0  0
   -7.7832    1.0741   -1.6797 H   0  0  0  0  0  0  0  0  0  0  0  0
   -7.6598    2.6828   -0.9129 H   0  0  0  0  0  0  0  0  0  0  0  0
   -8.2185    1.2910    0.0302 H   0  0  0  0  0  0  0  0  0  0  0  0
   -5.2638    2.5248   -1.9629 H   0  0  0  0  0  0  0  0  0  0  0  0
   -2.9191    2.0276   -1.3779 H   0  0  0  0  0  0  0  0  0  0  0  0
    1.1141   -1.8404   -2.0880 H   0  0  0  0  0  0  0  0  0  0  0  0
    3.0303   -0.2919   -2.2617 H   0  0  0  0  0  0  0  0  0  0  0  0
  1  2  1  0
  2  3  1  0
  3  4  1  0
  4  5  2  0
  4  6  1  0
  6  7  2  0
  7  8  1  0
  8  9  2  0
  9 10  1  0
 10 11  2  0
 10 12  2  0
 10 13  1  0
 13 14  1  0
 14 15  1  0
 15 16  2  0
 15 17  2  0
 15 18  1  0
 18 19  2  0
 19 20  1  0
 20 21  2  0
 21 22  1  0
 21 23  1  0
 23 24  2  0
  9 25  1  0
 25 26  2  0
 26  6  1  0
 24 18  1  0
  1 27  1  0
  1 28  1  0
  1 29  1  0
  2 30  1  0
  2 31  1  0
  7 32  1  0
  8 33  1  0
 13 34  1  0
 14 35  1  0
 19 36  1  0
 20 37  1  0
 22 38  1  0
 22 39  1  0
 22 40  1  0
 23 41  1  0
 24 42  1  0
 25 43  1  0
 26 44  1  0
M  END
$$$$
