
     RDKit          3D

 47 50  0  0  0  0  0  0  0  0999 V2000
   -8.3337    0.6019   -1.6242 C   0  0  0  0  0  0  0  0  0  0  0  0
   -7.3524    0.7169   -0.5921 O   0  0  0  0  0  0  0  0  0  0  0  0
   -6.2398   -0.0273   -0.8060 C   0  0  0  0  0  0  0  0  0  0  0  0
   -6.0369   -0.7496   -1.7691 O   0  0  0  0  0  0  0  0  0  0  0  0
   -5.2651    0.1430    0.3087 C   0  0  0  0  0  0  0  0  0  0  0  0
   -5.5345    0.9528    1.4175 C   0  0  0  0  0  0  0  0  0  0  0  0
   -4.6011    1.0552    2.4469 C   0  0  0  0  0  0  0  0  0  0  0  0
   -3.3941    0.3578    2.3694 C   0  0  0  0  0  0  0  0  0  0  0  0
   -3.0919   -0.4437    1.2524 C   0  0  0  0  0  0  0  0  0  0  0  0
   -1.8438   -1.1316    1.2255 N   0  0  0  0  0  0  0  0  0  0  0  0
   -1.0967   -1.2165    2.3629 N   0  0  0  0  0  0  0  0  0  0  0  0
   -0.0552   -1.9800    2.0818 N   0  0  0  0  0  0  0  0  0  0  0  0
   -0.0591   -2.3499    0.7715 N   0  0  0  0  0  0  0  0  0  0  0  0
   -1.1328   -1.8067    0.2378 C   0  0  0  0  0  0  0  0  0  0  0  0
   -1.4766   -1.8516   -1.4579 S   0  0  0  0  0  0  0  0  0  0  0  0
    0.0549   -2.5599   -2.1293 C   0  0  0  0  0  0  0  0  0  0  0  0
    1.1399   -1.4968   -2.2269 C   0  0  0  0  0  0  0  0  0  0  0  0
    1.2306   -0.7982   -3.2323 O   0  0  0  0  0  0  0  0  0  0  0  0
    1.9368   -1.4385   -1.1061 N   0  0  0  0  0  0  0  0  0  0  0  0
    3.0239   -0.6306   -0.8988 C   0  0  0  0  0  0  0  0  0  0  0  0
    3.6550   -0.6340    0.2550 N   0  0  0  0  0  0  0  0  0  0  0  0
    4.7192    0.2398    0.1939 C   0  0  0  0  0  0  0  0  0  0  0  0
    4.8694    0.8986   -1.0081 C   0  0  0  0  0  0  0  0  0  0  0  0
    3.6635    0.4031   -2.0983 S   0  0  0  0  0  0  0  0  0  0  0  0
    5.9492    1.8716   -1.3317 C   0  0  0  0  0  0  0  0  0  0  0  0
    6.6577    2.3270   -0.0418 C   0  0  0  0  0  0  0  0  0  0  0  0
    6.9208    1.1598    0.9275 C   0  0  0  0  0  0  0  0  0  0  0  0
    5.6181    0.4649    1.3613 C   0  0  0  0  0  0  0  0  0  0  0  0
   -4.0434   -0.5530    0.2305 C   0  0  0  0  0  0  0  0  0  0  0  0
   -9.2038    1.1971   -1.3326 H   0  0  0  0  0  0  0  0  0  0  0  0
   -7.9424    0.9964   -2.5668 H   0  0  0  0  0  0  0  0  0  0  0  0
   -8.6509   -0.4390   -1.7409 H   0  0  0  0  0  0  0  0  0  0  0  0
   -6.4679    1.5040    1.4976 H   0  0  0  0  0  0  0  0  0  0  0  0
   -4.8119    1.6789    3.3129 H   0  0  0  0  0  0  0  0  0  0  0  0
   -2.6909    0.4664    3.1949 H   0  0  0  0  0  0  0  0  0  0  0  0
   -0.1460   -2.9264   -3.1419 H   0  0  0  0  0  0  0  0  0  0  0  0
    0.3949   -3.4226   -1.5468 H   0  0  0  0  0  0  0  0  0  0  0  0
    1.6845   -1.9735   -0.2804 H   0  0  0  0  0  0  0  0  0  0  0  0
    5.5515    2.7462   -1.8575 H   0  0  0  0  0  0  0  0  0  0  0  0
    6.6785    1.3890   -1.9942 H   0  0  0  0  0  0  0  0  0  0  0  0
    6.0411    3.0787    0.4689 H   0  0  0  0  0  0  0  0  0  0  0  0
    7.6037    2.8165   -0.3010 H   0  0  0  0  0  0  0  0  0  0  0  0
    7.4518    1.5238    1.8137 H   0  0  0  0  0  0  0  0  0  0  0  0
    7.5779    0.4317    0.4362 H   0  0  0  0  0  0  0  0  0  0  0  0
    5.8526   -0.4860    1.8520 H   0  0  0  0  0  0  0  0  0  0  0  0
    5.0940    1.0932    2.0907 H   0  0  0  0  0  0  0  0  0  0  0  0
   -3.8986   -1.1990   -0.6291 H   0  0  0  0  0  0  0  0  0  0  0  0
  1  2  1  0
  2  3  1  0
  3  4  2  0
  3  5  1  0
  5  6  2  0
  6  7  1  0
  7  8  2  0
  8  9  1  0
  9 10  1  0
 10 11  1  0
 11 12  2  0
 12 13  1  0
 13 14  2  0
 14 15  1  0
 15 16  1  0
 16 17  1  0
 17 18  2  0
 17 19  1  0
 19 20  1  0
 20 21  2  0
 21 22  1  0
 22 23  2  0
 23 24  1  0
 23 25  1  0
 25 26  1  0
 26 27  1  0
 27 28  1  0
  9 29  2  0
 29  5  1  0
 14 10  1  0
 24 20  1  0
 28 22  1  0
  1 30  1  0
  1 31  1  0
  1 32  1  0
  6 33  1  0
  7 34  1  0
  8 35  1  0
 16 36  1  0
 16 37  1  0
 19 38  1  0
 25 39  1  0
 25 40  1  0
 26 41  1  0
 26 42  1  0
 27 43  1  0
 27 44  1  0
 28 45  1  0
 28 46  1  0
 29 47  1  0
M  END
$$$$
