
     RDKit          3D

 57 60  0  0  0  0  0  0  0  0999 V2000
    8.5685    1.8871    0.3500 C   0  0  0  0  0  0  0  0  0  0  0  0
    7.5215    2.9124    0.7449 C   0  0  0  0  0  0  0  0  0  0  0  0
    6.3605    2.8184   -0.0800 O   0  0  0  0  0  0  0  0  0  0  0  0
    5.4197    1.8750    0.2206 C   0  0  0  0  0  0  0  0  0  0  0  0
    5.4527    0.9827    1.2900 C   0  0  0  0  0  0  0  0  0  0  0  0
    4.4320    0.0368    1.4597 C   0  0  0  0  0  0  0  0  0  0  0  0
    3.3642   -0.0282    0.5644 C   0  0  0  0  0  0  0  0  0  0  0  0
    2.3300   -0.9771    0.6425 N   0  0  0  0  0  0  0  0  0  0  0  0
    2.1282   -1.9321    1.6246 C   0  0  0  0  0  0  0  0  0  0  0  0
    2.7722   -2.0494    2.6648 O   0  0  0  0  0  0  0  0  0  0  0  0
    1.0154   -2.9148    1.2920 C   0  0  0  0  0  0  0  0  0  0  0  0
   -0.6181   -2.2389    1.7147 S   0  0  0  0  0  0  0  0  0  0  0  0
   -1.0507   -1.4730    0.2178 C   0  0  0  0  0  0  0  0  0  0  0  0
   -0.1717   -0.9899   -0.6299 N   0  0  0  0  0  0  0  0  0  0  0  0
   -0.8385   -0.5941   -1.7475 N   0  0  0  0  0  0  0  0  0  0  0  0
   -2.1252   -0.8442   -1.5744 C   0  0  0  0  0  0  0  0  0  0  0  0
   -3.1943   -0.4020   -2.5207 C   0  0  0  0  0  0  0  0  0  0  0  0
   -4.0621    0.6848   -1.9623 C   0  0  0  0  0  0  0  0  0  0  0  0
   -5.3887    0.6257   -1.5698 C   0  0  0  0  0  0  0  0  0  0  0  0
   -5.7638    1.9053   -1.1050 C   0  0  0  0  0  0  0  0  0  0  0  0
   -4.6674    2.7256   -1.2388 C   0  0  0  0  0  0  0  0  0  0  0  0
   -3.6384    1.9834   -1.7595 N   0  0  0  0  0  0  0  0  0  0  0  0
   -2.3210    2.5154   -2.0392 C   0  0  0  0  0  0  0  0  0  0  0  0
   -2.3194   -1.4373   -0.3300 N   0  0  0  0  0  0  0  0  0  0  0  0
   -3.5294   -1.9234    0.2277 C   0  0  0  0  0  0  0  0  0  0  0  0
   -3.8598   -1.6233    1.5574 C   0  0  0  0  0  0  0  0  0  0  0  0
   -5.0424   -2.1203    2.1081 C   0  0  0  0  0  0  0  0  0  0  0  0
   -5.8838   -2.9057    1.3375 C   0  0  0  0  0  0  0  0  0  0  0  0
   -7.0144   -3.3795    1.8724 F   0  0  0  0  0  0  0  0  0  0  0  0
   -5.5694   -3.2074    0.0170 C   0  0  0  0  0  0  0  0  0  0  0  0
   -4.3905   -2.7168   -0.5446 C   0  0  0  0  0  0  0  0  0  0  0  0
    3.3231    0.8810   -0.4969 C   0  0  0  0  0  0  0  0  0  0  0  0
    4.3417    1.8238   -0.6651 C   0  0  0  0  0  0  0  0  0  0  0  0
    8.8639    2.0242   -0.6957 H   0  0  0  0  0  0  0  0  0  0  0  0
    9.4627    1.9812    0.9781 H   0  0  0  0  0  0  0  0  0  0  0  0
    8.1924    0.8624    0.4389 H   0  0  0  0  0  0  0  0  0  0  0  0
    7.9442    3.9102    0.5754 H   0  0  0  0  0  0  0  0  0  0  0  0
    7.2722    2.8757    1.8086 H   0  0  0  0  0  0  0  0  0  0  0  0
    6.2621    0.9761    2.0091 H   0  0  0  0  0  0  0  0  0  0  0  0
    4.5154   -0.6484    2.2979 H   0  0  0  0  0  0  0  0  0  0  0  0
    1.6199   -0.9137   -0.0806 H   0  0  0  0  0  0  0  0  0  0  0  0
    1.0770   -3.2201    0.2384 H   0  0  0  0  0  0  0  0  0  0  0  0
    1.1753   -3.8257    1.8887 H   0  0  0  0  0  0  0  0  0  0  0  0
   -3.8076   -1.2521   -2.8379 H   0  0  0  0  0  0  0  0  0  0  0  0
   -2.7227   -0.0369   -3.4422 H   0  0  0  0  0  0  0  0  0  0  0  0
   -6.0251   -0.2520   -1.6078 H   0  0  0  0  0  0  0  0  0  0  0  0
   -6.7305    2.2026   -0.7220 H   0  0  0  0  0  0  0  0  0  0  0  0
   -4.5426    3.7786   -1.0059 H   0  0  0  0  0  0  0  0  0  0  0  0
   -2.0276    2.2136   -3.0513 H   0  0  0  0  0  0  0  0  0  0  0  0
   -1.6243    2.1253   -1.2897 H   0  0  0  0  0  0  0  0  0  0  0  0
   -2.3533    3.6090   -1.9870 H   0  0  0  0  0  0  0  0  0  0  0  0
   -3.2364   -0.9721    2.1730 H   0  0  0  0  0  0  0  0  0  0  0  0
   -5.3104   -1.8885    3.1353 H   0  0  0  0  0  0  0  0  0  0  0  0
   -6.2452   -3.8261   -0.5619 H   0  0  0  0  0  0  0  0  0  0  0  0
   -4.1486   -3.0063   -1.5652 H   0  0  0  0  0  0  0  0  0  0  0  0
    2.5081    0.8649   -1.2090 H   0  0  0  0  0  0  0  0  0  0  0  0
    4.3005    2.5184   -1.5011 H   0  0  0  0  0  0  0  0  0  0  0  0
  1  2  1  0
  2  3  1  0
  3  4  1  0
  4  5  2  0
  5  6  1  0
  6  7  2  0
  7  8  1  0
  8  9  1  0
  9 10  2  0
  9 11  1  0
 11 12  1  0
 12 13  1  0
 13 14  2  0
 14 15  1  0
 15 16  2  0
 16 17  1  0
 17 18  1  0
 18 19  2  0
 19 20  1  0
 20 21  2  0
 21 22  1  0
 22 23  1  0
 16 24  1  0
 24 25  1  0
 25 26  2  0
 26 27  1  0
 27 28  2  0
 28 29  1  0
 28 30  1  0
 30 31  2  0
  7 32  1  0
 32 33  2  0
 33  4  1  0
 24 13  1  0
 31 25  1  0
 22 18  1  0
  1 34  1  0
  1 35  1  0
  1 36  1  0
  2 37  1  0
  2 38  1  0
  5 39  1  0
  6 40  1  0
  8 41  1  0
 11 42  1  0
 11 43  1  0
 17 44  1  0
 17 45  1  0
 19 46  1  0
 20 47  1  0
 21 48  1  0
 23 49  1  0
 23 50  1  0
 23 51  1  0
 26 52  1  0
 27 53  1  0
 30 54  1  0
 31 55  1  0
 32 56  1  0
 33 57  1  0
M  END
$$$$
