
     RDKit          3D

 61 66  0  0  0  0  0  0  0  0999 V2000
    7.6781   -2.8330    0.8903 C   0  0  0  0  0  0  0  0  0  0  0  0
    8.1569   -1.7468    0.1604 C   0  0  0  0  0  0  0  0  0  0  0  0
    7.4345   -0.5523    0.1287 C   0  0  0  0  0  0  0  0  0  0  0  0
    6.2267   -0.4318    0.8313 C   0  0  0  0  0  0  0  0  0  0  0  0
    5.4414    0.8582    0.7959 C   0  0  0  0  0  0  0  0  0  0  0  0
    4.2757    0.8431   -0.2139 C   0  0  0  0  0  0  0  0  0  0  0  0
    3.1100    0.0508    0.2183 N   0  0  0  0  0  0  0  0  0  0  0  0
    2.3083    0.7152    1.2708 C   0  0  0  0  0  0  0  0  0  0  0  0
    1.0613    1.4780    0.7709 C   0  0  0  0  0  0  0  0  0  0  0  0
    0.1487    0.6182   -0.0196 N   0  0  0  0  0  0  0  0  0  0  0  0
   -1.1220    0.4332    0.4538 C   0  0  0  0  0  0  0  0  0  0  0  0
   -1.5240    0.0629    1.7218 C   0  0  0  0  0  0  0  0  0  0  0  0
   -2.9255   -0.0873    1.7110 C   0  0  0  0  0  0  0  0  0  0  0  0
   -3.3637    0.1831    0.4302 C   0  0  0  0  0  0  0  0  0  0  0  0
   -4.6840    0.1652   -0.1610 C   0  0  0  0  0  0  0  0  0  0  0  0
   -5.8507   -0.3411    0.6049 C   0  0  0  0  0  0  0  0  0  0  0  0
   -7.0175    0.4294    0.6464 C   0  0  0  0  0  0  0  0  0  0  0  0
   -8.1317   -0.0336    1.3474 C   0  0  0  0  0  0  0  0  0  0  0  0
   -8.0853   -1.2698    1.9936 C   0  0  0  0  0  0  0  0  0  0  0  0
   -6.9291   -2.0493    1.9350 C   0  0  0  0  0  0  0  0  0  0  0  0
   -5.8114   -1.5894    1.2363 C   0  0  0  0  0  0  0  0  0  0  0  0
   -4.8797    0.5971   -1.3705 N   0  0  0  0  0  0  0  0  0  0  0  0
   -3.7813    1.0589   -2.1214 C   0  0  0  0  0  0  0  0  0  0  0  0
   -4.0365    1.5289   -3.4131 C   0  0  0  0  0  0  0  0  0  0  0  0
   -3.0019    2.0079   -4.2167 C   0  0  0  0  0  0  0  0  0  0  0  0
   -1.6975    2.0279   -3.7282 C   0  0  0  0  0  0  0  0  0  0  0  0
   -1.4226    1.5644   -2.4398 C   0  0  0  0  0  0  0  0  0  0  0  0
   -2.4586    1.0677   -1.6426 C   0  0  0  0  0  0  0  0  0  0  0  0
   -2.2703    0.5838   -0.3231 N   0  0  0  0  0  0  0  0  0  0  0  0
    0.7966   -0.5965   -0.5786 C   0  0  0  0  0  0  0  0  0  0  0  0
    2.2653   -0.3009   -0.9479 C   0  0  0  0  0  0  0  0  0  0  0  0
    5.7529   -1.5327    1.5569 C   0  0  0  0  0  0  0  0  0  0  0  0
    6.4757   -2.7263    1.5872 C   0  0  0  0  0  0  0  0  0  0  0  0
    8.2397   -3.7628    0.9137 H   0  0  0  0  0  0  0  0  0  0  0  0
    9.0933   -1.8311   -0.3864 H   0  0  0  0  0  0  0  0  0  0  0  0
    7.8223    0.2837   -0.4477 H   0  0  0  0  0  0  0  0  0  0  0  0
    6.1209    1.6756    0.5208 H   0  0  0  0  0  0  0  0  0  0  0  0
    5.1019    1.0999    1.8097 H   0  0  0  0  0  0  0  0  0  0  0  0
    3.9630    1.8763   -0.4168 H   0  0  0  0  0  0  0  0  0  0  0  0
    4.6613    0.4426   -1.1621 H   0  0  0  0  0  0  0  0  0  0  0  0
    1.9728   -0.0723    1.9593 H   0  0  0  0  0  0  0  0  0  0  0  0
    2.9190    1.3928    1.8785 H   0  0  0  0  0  0  0  0  0  0  0  0
    0.5480    1.9339    1.6261 H   0  0  0  0  0  0  0  0  0  0  0  0
    1.3808    2.3069    0.1276 H   0  0  0  0  0  0  0  0  0  0  0  0
   -0.8652   -0.1128    2.5603 H   0  0  0  0  0  0  0  0  0  0  0  0
   -3.5417   -0.3767    2.5513 H   0  0  0  0  0  0  0  0  0  0  0  0
   -7.0576    1.3878    0.1343 H   0  0  0  0  0  0  0  0  0  0  0  0
   -9.0369    0.5667    1.3839 H   0  0  0  0  0  0  0  0  0  0  0  0
   -8.9561   -1.6312    2.5354 H   0  0  0  0  0  0  0  0  0  0  0  0
   -6.9029   -3.0195    2.4255 H   0  0  0  0  0  0  0  0  0  0  0  0
   -4.9247   -2.2143    1.1724 H   0  0  0  0  0  0  0  0  0  0  0  0
   -5.0563    1.5191   -3.7898 H   0  0  0  0  0  0  0  0  0  0  0  0
   -3.2163    2.3679   -5.2191 H   0  0  0  0  0  0  0  0  0  0  0  0
   -0.8910    2.4108   -4.3484 H   0  0  0  0  0  0  0  0  0  0  0  0
   -0.3993    1.6180   -2.0879 H   0  0  0  0  0  0  0  0  0  0  0  0
    0.7549   -1.4230    0.1437 H   0  0  0  0  0  0  0  0  0  0  0  0
    0.2587   -0.9170   -1.4786 H   0  0  0  0  0  0  0  0  0  0  0  0
    2.2683    0.5162   -1.6828 H   0  0  0  0  0  0  0  0  0  0  0  0
    2.6978   -1.1813   -1.4365 H   0  0  0  0  0  0  0  0  0  0  0  0
    4.8096   -1.4653    2.0962 H   0  0  0  0  0  0  0  0  0  0  0  0
    6.0969   -3.5738    2.1516 H   0  0  0  0  0  0  0  0  0  0  0  0
  1  2  2  0
  2  3  1  0
  3  4  2  0
  4  5  1  0
  5  6  1  0
  6  7  1  0
  7  8  1  0
  8  9  1  0
  9 10  1  0
 10 11  1  0
 11 12  2  0
 12 13  1  0
 13 14  2  0
 14 15  1  0
 15 16  1  0
 16 17  2  0
 17 18  1  0
 18 19  2  0
 19 20  1  0
 20 21  2  0
 15 22  2  0
 22 23  1  0
 23 24  2  0
 24 25  1  0
 25 26  2  0
 26 27  1  0
 27 28  2  0
 28 29  1  0
 10 30  1  0
 30 31  1  0
  4 32  1  0
 32 33  2  0
 33  1  1  0
 31  7  1  0
 29 11  1  0
 29 14  1  0
 21 16  1  0
 28 23  1  0
  1 34  1  0
  2 35  1  0
  3 36  1  0
  5 37  1  0
  5 38  1  0
  6 39  1  0
  6 40  1  0
  8 41  1  0
  8 42  1  0
  9 43  1  0
  9 44  1  0
 12 45  1  0
 13 46  1  0
 17 47  1  0
 18 48  1  0
 19 49  1  0
 20 50  1  0
 21 51  1  0
 24 52  1  0
 25 53  1  0
 26 54  1  0
 27 55  1  0
 30 56  1  0
 30 57  1  0
 31 58  1  0
 31 59  1  0
 32 60  1  0
 33 61  1  0
M  END
$$$$
