
     RDKit          3D

 56 59  0  0  0  0  0  0  0  0999 V2000
   -5.3758    1.5667    2.2425 C   0  0  0  0  0  0  0  0  0  0  0  0
   -3.9607    1.6480    1.6811 C   0  0  0  0  0  0  0  0  0  0  0  0
   -3.4366    0.2821    1.2127 C   0  0  0  0  0  0  0  0  0  0  0  0
   -3.9300   -0.1319   -0.1931 C   0  0  0  0  0  0  0  0  0  0  0  0
   -4.9369    0.3469   -0.7064 O   0  0  0  0  0  0  0  0  0  0  0  0
   -3.2128   -1.2060   -0.7014 N   0  0  0  0  0  0  0  0  0  0  0  0
   -3.3826   -1.8684   -1.9322 C   0  0  0  0  0  0  0  0  0  0  0  0
   -4.3449   -1.5303   -2.8828 C   0  0  0  0  0  0  0  0  0  0  0  0
   -4.4213   -2.2562   -4.0714 C   0  0  0  0  0  0  0  0  0  0  0  0
   -5.3456   -1.9291   -4.9840 F   0  0  0  0  0  0  0  0  0  0  0  0
   -3.5560   -3.3153   -4.3348 C   0  0  0  0  0  0  0  0  0  0  0  0
   -2.5901   -3.6579   -3.3937 C   0  0  0  0  0  0  0  0  0  0  0  0
   -2.5114   -2.9340   -2.2063 C   0  0  0  0  0  0  0  0  0  0  0  0
   -1.5743   -3.2695   -1.3039 F   0  0  0  0  0  0  0  0  0  0  0  0
   -1.9632    0.1648    1.2694 N   0  0  0  0  0  0  0  0  0  0  0  0
   -1.4784   -0.9903    1.9063 N   0  0  0  0  0  0  0  0  0  0  0  0
   -0.1980   -1.2122    2.0241 C   0  0  0  0  0  0  0  0  0  0  0  0
    0.2486   -2.4636    2.7248 C   0  0  0  0  0  0  0  0  0  0  0  0
    0.7364   -0.2617    1.4771 C   0  0  0  0  0  0  0  0  0  0  0  0
    2.1166   -0.1474    1.4940 C   0  0  0  0  0  0  0  0  0  0  0  0
    3.1272   -0.9345    2.2465 C   0  0  0  0  0  0  0  0  0  0  0  0
    2.4082    0.9504    0.6744 N   0  0  0  0  0  0  0  0  0  0  0  0
    3.6533    1.4155    0.1477 C   0  0  0  0  0  0  0  0  0  0  0  0
    3.7245    2.7186   -0.3724 C   0  0  0  0  0  0  0  0  0  0  0  0
    4.9198    3.2117   -0.9041 C   0  0  0  0  0  0  0  0  0  0  0  0
    6.0654    2.4118   -0.9332 C   0  0  0  0  0  0  0  0  0  0  0  0
    7.3361    2.9312   -1.5376 C   0  0  0  0  0  0  0  0  0  0  0  0
    5.9866    1.1016   -0.4519 C   0  0  0  0  0  0  0  0  0  0  0  0
    4.7913    0.6047    0.0830 C   0  0  0  0  0  0  0  0  0  0  0  0
    1.2733    1.6336    0.3615 N   0  0  0  0  0  0  0  0  0  0  0  0
    0.2720    0.8645    0.7923 C   0  0  0  0  0  0  0  0  0  0  0  0
   -1.1519    1.1290    0.6291 C   0  0  0  0  0  0  0  0  0  0  0  0
   -1.5967    2.0810   -0.0049 O   0  0  0  0  0  0  0  0  0  0  0  0
   -5.4188    0.8846    3.0976 H   0  0  0  0  0  0  0  0  0  0  0  0
   -5.7019    2.5544    2.5834 H   0  0  0  0  0  0  0  0  0  0  0  0
   -6.0889    1.2184    1.4900 H   0  0  0  0  0  0  0  0  0  0  0  0
   -3.3094    2.0451    2.4694 H   0  0  0  0  0  0  0  0  0  0  0  0
   -3.9531    2.3736    0.8601 H   0  0  0  0  0  0  0  0  0  0  0  0
   -3.8282   -0.4829    1.8982 H   0  0  0  0  0  0  0  0  0  0  0  0
   -2.4554   -1.5477   -0.1109 H   0  0  0  0  0  0  0  0  0  0  0  0
   -5.0443   -0.7146   -2.7397 H   0  0  0  0  0  0  0  0  0  0  0  0
   -3.6433   -3.8594   -5.2703 H   0  0  0  0  0  0  0  0  0  0  0  0
   -1.9041   -4.4795   -3.5733 H   0  0  0  0  0  0  0  0  0  0  0  0
    1.0232   -2.9692    2.1426 H   0  0  0  0  0  0  0  0  0  0  0  0
    0.6374   -2.2076    3.7140 H   0  0  0  0  0  0  0  0  0  0  0  0
   -0.5947   -3.1492    2.8508 H   0  0  0  0  0  0  0  0  0  0  0  0
    3.9901   -0.3266    2.5335 H   0  0  0  0  0  0  0  0  0  0  0  0
    2.7092   -1.3083    3.1852 H   0  0  0  0  0  0  0  0  0  0  0  0
    3.4623   -1.7964    1.6623 H   0  0  0  0  0  0  0  0  0  0  0  0
    2.8532    3.3731   -0.3650 H   0  0  0  0  0  0  0  0  0  0  0  0
    4.9444    4.2249   -1.2994 H   0  0  0  0  0  0  0  0  0  0  0  0
    7.3155    2.7994   -2.6240 H   0  0  0  0  0  0  0  0  0  0  0  0
    7.4673    3.9948   -1.3095 H   0  0  0  0  0  0  0  0  0  0  0  0
    8.2071    2.4037   -1.1355 H   0  0  0  0  0  0  0  0  0  0  0  0
    6.8563    0.4495   -0.5009 H   0  0  0  0  0  0  0  0  0  0  0  0
    4.7836   -0.4339    0.3891 H   0  0  0  0  0  0  0  0  0  0  0  0
  1  2  1  0
  2  3  1  0
  3  4  1  0
  4  5  2  0
  4  6  1  0
  6  7  1  0
  7  8  2  0
  8  9  1  0
  9 10  1  0
  9 11  2  0
 11 12  1  0
 12 13  2  0
 13 14  1  0
  3 15  1  0
 15 16  1  0
 16 17  2  0
 17 18  1  0
 17 19  1  0
 19 20  2  0
 20 21  1  0
 20 22  1  0
 22 23  1  0
 23 24  2  0
 24 25  1  0
 25 26  2  0
 26 27  1  0
 26 28  1  0
 28 29  2  0
 22 30  1  0
 30 31  2  0
 31 32  1  0
 32 33  2  0
 13  7  1  0
 32 15  1  0
 31 19  1  0
 29 23  1  0
  1 34  1  0
  1 35  1  0
  1 36  1  0
  2 37  1  0
  2 38  1  0
  3 39  1  0
  6 40  1  0
  8 41  1  0
 11 42  1  0
 12 43  1  0
 18 44  1  0
 18 45  1  0
 18 46  1  0
 21 47  1  0
 21 48  1  0
 21 49  1  0
 24 50  1  0
 25 51  1  0
 27 52  1  0
 27 53  1  0
 27 54  1  0
 28 55  1  0
 29 56  1  0
M  END
$$$$
