
     RDKit          3D

 52 56  0  0  0  0  0  0  0  0999 V2000
    3.5256   -2.7963   -1.0100 O   0  0  0  0  0  0  0  0  0  0  0  0
    2.6429   -2.3113   -0.3035 C   0  0  0  0  0  0  0  0  0  0  0  0
    1.4222   -3.1311    0.0851 C   0  0  0  0  0  0  0  0  0  0  0  0
    0.0025   -2.7636   -0.9818 S   0  0  0  0  0  0  0  0  0  0  0  0
   -0.7506   -1.4787   -0.0965 C   0  0  0  0  0  0  0  0  0  0  0  0
   -0.1015   -0.6804    0.7213 N   0  0  0  0  0  0  0  0  0  0  0  0
   -1.0194    0.1135    1.3454 N   0  0  0  0  0  0  0  0  0  0  0  0
   -2.2219   -0.1992    0.8908 C   0  0  0  0  0  0  0  0  0  0  0  0
   -3.4736    0.5562    1.2217 C   0  0  0  0  0  0  0  0  0  0  0  0
   -4.0679    1.2843    0.0436 C   0  0  0  0  0  0  0  0  0  0  0  0
   -5.2217    0.9835   -0.6570 C   0  0  0  0  0  0  0  0  0  0  0  0
   -5.4686    1.8978   -1.7198 C   0  0  0  0  0  0  0  0  0  0  0  0
   -4.5020    2.8760   -1.7934 C   0  0  0  0  0  0  0  0  0  0  0  0
   -3.3111    2.6927   -0.5780 S   0  0  0  0  0  0  0  0  0  0  0  0
   -2.1124   -1.2528   -0.0120 N   0  0  0  0  0  0  0  0  0  0  0  0
   -3.1632   -1.9542   -0.6535 C   0  0  0  0  0  0  0  0  0  0  0  0
   -3.1155   -2.1826   -2.0332 C   0  0  0  0  0  0  0  0  0  0  0  0
   -4.1598   -2.8639   -2.6603 C   0  0  0  0  0  0  0  0  0  0  0  0
   -5.2468   -3.3222   -1.9125 C   0  0  0  0  0  0  0  0  0  0  0  0
   -5.2890   -3.1055   -0.5359 C   0  0  0  0  0  0  0  0  0  0  0  0
   -4.2477   -2.4215    0.0970 C   0  0  0  0  0  0  0  0  0  0  0  0
    2.6431   -1.0400    0.2435 N   0  0  0  0  0  0  0  0  0  0  0  0
    3.7085   -0.1200    0.2802 C   0  0  0  0  0  0  0  0  0  0  0  0
    5.0145   -0.4271   -0.1139 C   0  0  0  0  0  0  0  0  0  0  0  0
    6.0350    0.5233    0.0069 C   0  0  0  0  0  0  0  0  0  0  0  0
    5.7579    1.7839    0.5285 C   0  0  0  0  0  0  0  0  0  0  0  0
    4.4581    2.0873    0.9511 C   0  0  0  0  0  0  0  0  0  0  0  0
    3.4338    1.1507    0.8074 C   0  0  0  0  0  0  0  0  0  0  0  0
    4.1189    3.2835    1.5300 O   0  0  0  0  0  0  0  0  0  0  0  0
    5.2862    3.9578    2.0138 C   0  0  0  0  0  0  0  0  0  0  0  0
    6.3652    3.9847    0.9409 C   0  0  0  0  0  0  0  0  0  0  0  0
    6.8101    2.6600    0.6211 O   0  0  0  0  0  0  0  0  0  0  0  0
    1.6761   -4.1866   -0.0332 H   0  0  0  0  0  0  0  0  0  0  0  0
    1.1875   -2.9822    1.1454 H   0  0  0  0  0  0  0  0  0  0  0  0
   -4.2184   -0.1133    1.6684 H   0  0  0  0  0  0  0  0  0  0  0  0
   -3.2421    1.2868    2.0079 H   0  0  0  0  0  0  0  0  0  0  0  0
   -5.8598    0.1387   -0.4283 H   0  0  0  0  0  0  0  0  0  0  0  0
   -6.3113    1.8401   -2.3995 H   0  0  0  0  0  0  0  0  0  0  0  0
   -4.4321    3.6933   -2.5039 H   0  0  0  0  0  0  0  0  0  0  0  0
   -2.3036   -1.8056   -2.6443 H   0  0  0  0  0  0  0  0  0  0  0  0
   -4.1321   -3.0314   -3.7341 H   0  0  0  0  0  0  0  0  0  0  0  0
   -6.0615   -3.8514   -2.4044 H   0  0  0  0  0  0  0  0  0  0  0  0
   -6.1372   -3.4743    0.0459 H   0  0  0  0  0  0  0  0  0  0  0  0
   -4.2879   -2.3044    1.1768 H   0  0  0  0  0  0  0  0  0  0  0  0
    1.7514   -0.7091    0.6263 H   0  0  0  0  0  0  0  0  0  0  0  0
    5.2771   -1.4045   -0.5097 H   0  0  0  0  0  0  0  0  0  0  0  0
    7.0468    0.2686   -0.2966 H   0  0  0  0  0  0  0  0  0  0  0  0
    2.4299    1.4163    1.1322 H   0  0  0  0  0  0  0  0  0  0  0  0
    4.9916    4.9778    2.2841 H   0  0  0  0  0  0  0  0  0  0  0  0
    5.6362    3.4494    2.9251 H   0  0  0  0  0  0  0  0  0  0  0  0
    6.0023    4.4612    0.0216 H   0  0  0  0  0  0  0  0  0  0  0  0
    7.2353    4.5458    1.2971 H   0  0  0  0  0  0  0  0  0  0  0  0
  1  2  2  0
  2  3  1  0
  3  4  1  0
  4  5  1  0
  5  6  2  0
  6  7  1  0
  7  8  2  0
  8  9  1  0
  9 10  1  0
 10 11  2  0
 11 12  1  0
 12 13  2  0
 13 14  1  0
  8 15  1  0
 15 16  1  0
 16 17  2  0
 17 18  1  0
 18 19  2  0
 19 20  1  0
 20 21  2  0
  2 22  1  0
 22 23  1  0
 23 24  2  0
 24 25  1  0
 25 26  2  0
 26 27  1  0
 27 28  2  0
 27 29  1  0
 29 30  1  0
 30 31  1  0
 31 32  1  0
 15  5  1  0
 21 16  1  0
 28 23  1  0
 14 10  1  0
 32 26  1  0
  3 33  1  0
  3 34  1  0
  9 35  1  0
  9 36  1  0
 11 37  1  0
 12 38  1  0
 13 39  1  0
 17 40  1  0
 18 41  1  0
 19 42  1  0
 20 43  1  0
 21 44  1  0
 22 45  1  0
 24 46  1  0
 25 47  1  0
 28 48  1  0
 30 49  1  0
 30 50  1  0
 31 51  1  0
 31 52  1  0
M  END
$$$$
