
     RDKit          3D

 33 35  0  0  0  0  0  0  0  0999 V2000
    5.4857   -1.2857   -0.4642 C   0  0  0  0  0  0  0  0  0  0  0  0
    4.7096   -0.0945   -0.4219 O   0  0  0  0  0  0  0  0  0  0  0  0
    3.3900   -0.2283   -0.0878 C   0  0  0  0  0  0  0  0  0  0  0  0
    2.7396   -1.4224    0.2219 C   0  0  0  0  0  0  0  0  0  0  0  0
    1.3781   -1.4163    0.5413 C   0  0  0  0  0  0  0  0  0  0  0  0
    0.6590   -0.2157    0.5552 C   0  0  0  0  0  0  0  0  0  0  0  0
    1.3069    0.9949    0.2633 C   0  0  0  0  0  0  0  0  0  0  0  0
    2.6702    0.9716   -0.0689 C   0  0  0  0  0  0  0  0  0  0  0  0
    0.5573    2.3024    0.2585 C   0  0  0  0  0  0  0  0  0  0  0  0
   -0.6997    2.2433    1.1253 C   0  0  0  0  0  0  0  0  0  0  0  0
   -1.5267    1.0468    0.7469 C   0  0  0  0  0  0  0  0  0  0  0  0
   -2.8060    1.1510    0.3469 C   0  0  0  0  0  0  0  0  0  0  0  0
   -3.5873    0.0716   -0.1462 C   0  0  0  0  0  0  0  0  0  0  0  0
   -4.9560   -0.1367   -0.0167 C   0  0  0  0  0  0  0  0  0  0  0  0
   -5.2829   -1.3302   -0.7031 C   0  0  0  0  0  0  0  0  0  0  0  0
   -4.1061   -1.7862   -1.2379 C   0  0  0  0  0  0  0  0  0  0  0  0
   -3.0898   -0.9463   -0.9294 O   0  0  0  0  0  0  0  0  0  0  0  0
   -0.7914   -0.2496    0.8897 C   0  0  0  0  0  0  0  0  0  0  0  0
   -1.3117   -1.2649    1.3344 O   0  0  0  0  0  0  0  0  0  0  0  0
    6.5060   -1.0096   -0.7476 H   0  0  0  0  0  0  0  0  0  0  0  0
    5.5312   -1.7622    0.5206 H   0  0  0  0  0  0  0  0  0  0  0  0
    5.1054   -1.9781   -1.2225 H   0  0  0  0  0  0  0  0  0  0  0  0
    3.2567   -2.3761    0.2210 H   0  0  0  0  0  0  0  0  0  0  0  0
    0.8763   -2.3541    0.7743 H   0  0  0  0  0  0  0  0  0  0  0  0
    3.1873    1.8971   -0.3159 H   0  0  0  0  0  0  0  0  0  0  0  0
    0.2898    2.5458   -0.7775 H   0  0  0  0  0  0  0  0  0  0  0  0
    1.2039    3.1051    0.6330 H   0  0  0  0  0  0  0  0  0  0  0  0
   -0.4252    2.1678    2.1857 H   0  0  0  0  0  0  0  0  0  0  0  0
   -1.2618    3.1777    1.0113 H   0  0  0  0  0  0  0  0  0  0  0  0
   -3.2859    2.1254    0.3473 H   0  0  0  0  0  0  0  0  0  0  0  0
   -5.6358    0.5011    0.5309 H   0  0  0  0  0  0  0  0  0  0  0  0
   -6.2520   -1.7989   -0.7933 H   0  0  0  0  0  0  0  0  0  0  0  0
   -3.8347   -2.6460   -1.8336 H   0  0  0  0  0  0  0  0  0  0  0  0
  1  2  1  0
  2  3  1  0
  3  4  2  0
  4  5  1  0
  5  6  2  0
  6  7  1  0
  7  8  2  0
  7  9  1  0
  9 10  1  0
 10 11  1  0
 11 12  2  3
 12 13  1  0
 13 14  2  0
 14 15  1  0
 15 16  2  0
 16 17  1  0
 11 18  1  0
 18 19  2  0
  8  3  1  0
 17 13  1  0
 18  6  1  0
  1 20  1  0
  1 21  1  0
  1 22  1  0
  4 23  1  0
  5 24  1  0
  8 25  1  0
  9 26  1  0
  9 27  1  0
 10 28  1  0
 10 29  1  0
 12 30  1  0
 14 31  1  0
 15 32  1  0
 16 33  1  0
M  END
$$$$
