
     RDKit          3D

 47 50  0  0  0  0  0  0  0  0999 V2000
   -7.8592    1.8342   -0.2450 C   0  0  0  0  0  0  0  0  0  0  0  0
   -7.1557    0.6309   -0.5562 O   0  0  0  0  0  0  0  0  0  0  0  0
   -5.8408    0.6596   -0.2280 C   0  0  0  0  0  0  0  0  0  0  0  0
   -5.2515    1.5965    0.2880 O   0  0  0  0  0  0  0  0  0  0  0  0
   -5.1821   -0.6324   -0.5678 C   0  0  0  0  0  0  0  0  0  0  0  0
   -5.8415   -1.6335   -1.2921 C   0  0  0  0  0  0  0  0  0  0  0  0
   -5.1755   -2.8147   -1.6116 C   0  0  0  0  0  0  0  0  0  0  0  0
   -3.8513   -3.0028   -1.2028 C   0  0  0  0  0  0  0  0  0  0  0  0
   -3.1794   -2.0205   -0.4490 C   0  0  0  0  0  0  0  0  0  0  0  0
   -1.8356   -2.2725   -0.0456 N   0  0  0  0  0  0  0  0  0  0  0  0
   -1.1407   -3.2965   -0.6186 N   0  0  0  0  0  0  0  0  0  0  0  0
    0.0903   -3.2433   -0.1313 N   0  0  0  0  0  0  0  0  0  0  0  0
    0.2079   -2.2537    0.7964 N   0  0  0  0  0  0  0  0  0  0  0  0
   -0.9763   -1.6815    0.8769 C   0  0  0  0  0  0  0  0  0  0  0  0
   -1.3778   -0.4887    2.0641 S   0  0  0  0  0  0  0  0  0  0  0  0
    0.0891   -0.5166    3.1362 C   0  0  0  0  0  0  0  0  0  0  0  0
    1.1666    0.4204    2.6097 C   0  0  0  0  0  0  0  0  0  0  0  0
    1.2603    1.5632    3.0530 O   0  0  0  0  0  0  0  0  0  0  0  0
    1.9626   -0.1623    1.6499 N   0  0  0  0  0  0  0  0  0  0  0  0
    3.0160    0.4080    0.9842 C   0  0  0  0  0  0  0  0  0  0  0  0
    3.6296   -0.2393    0.0179 N   0  0  0  0  0  0  0  0  0  0  0  0
    4.6515    0.5420   -0.4769 C   0  0  0  0  0  0  0  0  0  0  0  0
    4.7970    1.7709    0.1321 C   0  0  0  0  0  0  0  0  0  0  0  0
    3.6282    1.9612    1.3487 S   0  0  0  0  0  0  0  0  0  0  0  0
    5.8148    2.7967   -0.2291 C   0  0  0  0  0  0  0  0  0  0  0  0
    6.9294    2.1543   -1.0775 C   0  0  0  0  0  0  0  0  0  0  0  0
    6.3664    1.2208   -2.1641 C   0  0  0  0  0  0  0  0  0  0  0  0
    5.5514    0.0606   -1.5642 C   0  0  0  0  0  0  0  0  0  0  0  0
   -3.8504   -0.8275   -0.1527 C   0  0  0  0  0  0  0  0  0  0  0  0
   -7.8123    2.0405    0.8278 H   0  0  0  0  0  0  0  0  0  0  0  0
   -8.9081    1.6966   -0.5230 H   0  0  0  0  0  0  0  0  0  0  0  0
   -7.4548    2.6705   -0.8205 H   0  0  0  0  0  0  0  0  0  0  0  0
   -6.8708   -1.5053   -1.6211 H   0  0  0  0  0  0  0  0  0  0  0  0
   -5.6853   -3.5951   -2.1745 H   0  0  0  0  0  0  0  0  0  0  0  0
   -3.3673   -3.9430   -1.4685 H   0  0  0  0  0  0  0  0  0  0  0  0
   -0.2096   -0.1599    4.1282 H   0  0  0  0  0  0  0  0  0  0  0  0
    0.4833   -1.5294    3.2731 H   0  0  0  0  0  0  0  0  0  0  0  0
    1.7183   -1.0769    1.2806 H   0  0  0  0  0  0  0  0  0  0  0  0
    5.3317    3.5946   -0.8072 H   0  0  0  0  0  0  0  0  0  0  0  0
    6.2529    3.2517    0.6654 H   0  0  0  0  0  0  0  0  0  0  0  0
    7.5971    1.5770   -0.4259 H   0  0  0  0  0  0  0  0  0  0  0  0
    7.5361    2.9420   -1.5381 H   0  0  0  0  0  0  0  0  0  0  0  0
    7.1830    0.8180   -2.7731 H   0  0  0  0  0  0  0  0  0  0  0  0
    5.7249    1.8057   -2.8366 H   0  0  0  0  0  0  0  0  0  0  0  0
    6.2348   -0.6881   -1.1440 H   0  0  0  0  0  0  0  0  0  0  0  0
    4.9700   -0.4288   -2.3531 H   0  0  0  0  0  0  0  0  0  0  0  0
   -3.3670   -0.0033    0.3615 H   0  0  0  0  0  0  0  0  0  0  0  0
  1  2  1  0
  2  3  1  0
  3  4  2  0
  3  5  1  0
  5  6  2  0
  6  7  1  0
  7  8  2  0
  8  9  1  0
  9 10  1  0
 10 11  1  0
 11 12  2  0
 12 13  1  0
 13 14  2  0
 14 15  1  0
 15 16  1  0
 16 17  1  0
 17 18  2  0
 17 19  1  0
 19 20  1  0
 20 21  2  0
 21 22  1  0
 22 23  2  0
 23 24  1  0
 23 25  1  0
 25 26  1  0
 26 27  1  0
 27 28  1  0
  9 29  2  0
 29  5  1  0
 14 10  1  0
 24 20  1  0
 28 22  1  0
  1 30  1  0
  1 31  1  0
  1 32  1  0
  6 33  1  0
  7 34  1  0
  8 35  1  0
 16 36  1  0
 16 37  1  0
 19 38  1  0
 25 39  1  0
 25 40  1  0
 26 41  1  0
 26 42  1  0
 27 43  1  0
 27 44  1  0
 28 45  1  0
 28 46  1  0
 29 47  1  0
M  END
$$$$
