
     RDKit          3D

 53 55  0  0  0  0  0  0  0  0999 V2000
   -2.5417    2.5957    3.6022 C   0  0  0  0  0  0  0  0  0  0  0  0
   -2.7668    1.1906    3.6164 O   0  0  0  0  0  0  0  0  0  0  0  0
   -2.1217    0.4516    2.6649 C   0  0  0  0  0  0  0  0  0  0  0  0
   -2.3220   -0.9291    2.7657 C   0  0  0  0  0  0  0  0  0  0  0  0
   -1.7136   -1.8069    1.8661 C   0  0  0  0  0  0  0  0  0  0  0  0
   -0.9172   -1.2938    0.8412 C   0  0  0  0  0  0  0  0  0  0  0  0
   -0.0832   -2.4053   -0.2722 S   0  0  0  0  0  6  0  0  0  0  0  0
    1.0789   -1.7128   -0.7842 O   0  0  0  0  0  0  0  0  0  0  0  0
    0.0589   -3.6739    0.4109 O   0  0  0  0  0  0  0  0  0  0  0  0
   -1.1643   -2.6281   -1.5360 N   0  0  0  0  0  0  0  0  0  0  0  0
   -2.4037   -3.3790   -1.2903 C   0  0  0  0  0  0  0  0  0  0  0  0
   -3.4833   -2.4119   -1.7170 C   0  0  0  0  0  0  0  0  0  0  0  0
   -2.8820   -1.6897   -2.7930 O   0  0  0  0  0  0  0  0  0  0  0  0
   -1.5074   -1.4853   -2.4067 C   0  0  0  0  0  0  0  0  0  0  0  0
   -0.6404   -1.4499   -3.6840 C   0  0  0  0  0  0  0  0  0  0  0  0
    0.7161   -0.9802   -3.4845 N   0  0  0  0  0  0  0  0  0  0  0  0
    0.9634    0.3303   -3.1418 C   0  0  0  0  0  0  0  0  0  0  0  0
    0.1298    1.2272   -3.1231 O   0  0  0  0  0  0  0  0  0  0  0  0
    2.4042    0.6018   -2.6494 C   0  0  0  0  0  0  0  0  0  0  0  0
    3.2776   -0.2425   -2.7775 O   0  0  0  0  0  0  0  0  0  0  0  0
    2.5361    1.8288   -2.0383 N   0  0  0  0  0  0  0  0  0  0  0  0
    3.6388    2.1169   -1.1592 C   0  0  0  0  0  0  0  0  0  0  0  0
    3.2222    1.9043    0.2762 C   0  0  0  0  0  0  0  0  0  0  0  0
    2.7911    2.9825    1.0651 C   0  0  0  0  0  0  0  0  0  0  0  0
    2.3729    2.7699    2.3807 C   0  0  0  0  0  0  0  0  0  0  0  0
    2.3773    1.4822    2.9048 C   0  0  0  0  0  0  0  0  0  0  0  0
    1.9719    1.2837    4.1660 F   0  0  0  0  0  0  0  0  0  0  0  0
    2.7911    0.4005    2.1382 C   0  0  0  0  0  0  0  0  0  0  0  0
    3.2111    0.6103    0.8238 C   0  0  0  0  0  0  0  0  0  0  0  0
   -0.6937    0.0827    0.7438 C   0  0  0  0  0  0  0  0  0  0  0  0
   -1.3039    0.9540    1.6510 C   0  0  0  0  0  0  0  0  0  0  0  0
   -3.0994    3.0328    4.4359 H   0  0  0  0  0  0  0  0  0  0  0  0
   -2.9186    3.0444    2.6777 H   0  0  0  0  0  0  0  0  0  0  0  0
   -1.4819    2.8287    3.7524 H   0  0  0  0  0  0  0  0  0  0  0  0
   -2.9426   -1.3228    3.5677 H   0  0  0  0  0  0  0  0  0  0  0  0
   -1.8537   -2.8784    1.9863 H   0  0  0  0  0  0  0  0  0  0  0  0
   -2.5419   -3.7176   -0.2620 H   0  0  0  0  0  0  0  0  0  0  0  0
   -2.3932   -4.2600   -1.9413 H   0  0  0  0  0  0  0  0  0  0  0  0
   -4.3935   -2.9120   -2.0572 H   0  0  0  0  0  0  0  0  0  0  0  0
   -3.7371   -1.7050   -0.9191 H   0  0  0  0  0  0  0  0  0  0  0  0
   -1.4686   -0.5341   -1.8709 H   0  0  0  0  0  0  0  0  0  0  0  0
   -0.5790   -2.4461   -4.1362 H   0  0  0  0  0  0  0  0  0  0  0  0
   -1.1158   -0.7928   -4.4225 H   0  0  0  0  0  0  0  0  0  0  0  0
    1.4266   -1.6391   -3.1666 H   0  0  0  0  0  0  0  0  0  0  0  0
    1.6825    2.3708   -1.9515 H   0  0  0  0  0  0  0  0  0  0  0  0
    3.9292    3.1601   -1.3243 H   0  0  0  0  0  0  0  0  0  0  0  0
    4.5051    1.4906   -1.3989 H   0  0  0  0  0  0  0  0  0  0  0  0
    2.7811    3.9923    0.6610 H   0  0  0  0  0  0  0  0  0  0  0  0
    2.0467    3.5985    3.0013 H   0  0  0  0  0  0  0  0  0  0  0  0
    2.7810   -0.5997    2.5617 H   0  0  0  0  0  0  0  0  0  0  0  0
    3.5214   -0.2437    0.2214 H   0  0  0  0  0  0  0  0  0  0  0  0
   -0.0372    0.4903   -0.0218 H   0  0  0  0  0  0  0  0  0  0  0  0
   -1.1077    2.0165    1.5471 H   0  0  0  0  0  0  0  0  0  0  0  0
  1  2  1  0
  2  3  1  0
  3  4  2  0
  4  5  1  0
  5  6  2  0
  6  7  1  0
  7  8  2  0
  7  9  2  0
  7 10  1  0
 10 11  1  0
 11 12  1  0
 12 13  1  0
 13 14  1  0
 14 15  1  0
 15 16  1  0
 16 17  1  0
 17 18  2  0
 17 19  1  0
 19 20  2  0
 19 21  1  0
 21 22  1  0
 22 23  1  0
 23 24  2  0
 24 25  1  0
 25 26  2  0
 26 27  1  0
 26 28  1  0
 28 29  2  0
  6 30  1  0
 30 31  2  0
 31  3  1  0
 14 10  1  0
 29 23  1  0
  1 32  1  0
  1 33  1  0
  1 34  1  0
  4 35  1  0
  5 36  1  0
 11 37  1  0
 11 38  1  0
 12 39  1  0
 12 40  1  0
 14 41  1  0
 15 42  1  0
 15 43  1  0
 16 44  1  0
 21 45  1  0
 22 46  1  0
 22 47  1  0
 24 48  1  0
 25 49  1  0
 28 50  1  0
 29 51  1  0
 30 52  1  0
 31 53  1  0
M  END
$$$$
