
     RDKit          3D

 58 61  0  0  0  0  0  0  0  0999 V2000
   -5.4772    3.2070    2.6652 C   0  0  0  0  0  0  0  0  0  0  0  0
   -4.7709    3.9700    1.6952 O   0  0  0  0  0  0  0  0  0  0  0  0
   -4.0458    3.2728    0.7676 C   0  0  0  0  0  0  0  0  0  0  0  0
   -3.3798    4.0681   -0.1677 C   0  0  0  0  0  0  0  0  0  0  0  0
   -2.6024    3.4881   -1.1695 C   0  0  0  0  0  0  0  0  0  0  0  0
   -2.4878    2.1009   -1.2427 C   0  0  0  0  0  0  0  0  0  0  0  0
   -3.1498    1.2868   -0.3146 C   0  0  0  0  0  0  0  0  0  0  0  0
   -3.0147   -0.1740   -0.3870 C   0  0  0  0  0  0  0  0  0  0  0  0
   -4.4091   -1.1013   -0.7404 S   0  0  0  0  0  0  0  0  0  0  0  0
   -3.5471   -2.5846   -0.6939 C   0  0  0  0  0  0  0  0  0  0  0  0
   -4.0729   -3.8737   -0.9047 C   0  0  0  0  0  0  0  0  0  0  0  0
   -3.2226   -4.9823   -0.8223 C   0  0  0  0  0  0  0  0  0  0  0  0
   -1.8749   -4.8196   -0.5331 C   0  0  0  0  0  0  0  0  0  0  0  0
   -0.9486   -5.8204   -0.4225 O   0  0  0  0  0  0  0  0  0  0  0  0
   -1.4160   -7.1532   -0.5899 C   0  0  0  0  0  0  0  0  0  0  0  0
   -1.3650   -3.5319   -0.3278 C   0  0  0  0  0  0  0  0  0  0  0  0
   -2.1964   -2.3836   -0.4097 C   0  0  0  0  0  0  0  0  0  0  0  0
   -1.8945   -0.9782   -0.2388 C   0  0  0  0  0  0  0  0  0  0  0  0
   -0.5786   -0.4200    0.0582 C   0  0  0  0  0  0  0  0  0  0  0  0
    0.4442   -0.4971   -0.8933 C   0  0  0  0  0  0  0  0  0  0  0  0
    1.7096    0.0345   -0.6188 C   0  0  0  0  0  0  0  0  0  0  0  0
    1.9618    0.6449    0.6103 C   0  0  0  0  0  0  0  0  0  0  0  0
    3.1469    1.2011    1.0051 O   0  0  0  0  0  0  0  0  0  0  0  0
    4.2059    1.2311    0.0428 C   0  0  0  0  0  0  0  0  0  0  0  0
    5.4158    1.9308    0.6877 C   0  0  0  0  0  0  0  0  0  0  0  0
    6.6270    2.1012   -0.1324 N   0  0  0  0  0  0  0  0  0  0  0  0
    7.2107    0.8288   -0.5464 C   0  0  0  0  0  0  0  0  0  0  0  0
    6.4090    2.9789   -1.2785 C   0  0  0  0  0  0  0  0  0  0  0  0
    0.9410    0.7137    1.5617 C   0  0  0  0  0  0  0  0  0  0  0  0
   -0.3234    0.1844    1.2920 C   0  0  0  0  0  0  0  0  0  0  0  0
   -3.9274    1.8834    0.6926 C   0  0  0  0  0  0  0  0  0  0  0  0
   -6.2253    2.5619    2.1923 H   0  0  0  0  0  0  0  0  0  0  0  0
   -6.0069    3.9062    3.3196 H   0  0  0  0  0  0  0  0  0  0  0  0
   -4.7888    2.6255    3.2873 H   0  0  0  0  0  0  0  0  0  0  0  0
   -3.4673    5.1506   -0.1129 H   0  0  0  0  0  0  0  0  0  0  0  0
   -2.0878    4.1167   -1.8907 H   0  0  0  0  0  0  0  0  0  0  0  0
   -1.8806    1.6578   -2.0284 H   0  0  0  0  0  0  0  0  0  0  0  0
   -5.1278   -4.0089   -1.1282 H   0  0  0  0  0  0  0  0  0  0  0  0
   -3.6567   -5.9625   -0.9905 H   0  0  0  0  0  0  0  0  0  0  0  0
   -0.5640   -7.8257   -0.4528 H   0  0  0  0  0  0  0  0  0  0  0  0
   -1.8050   -7.3098   -1.6013 H   0  0  0  0  0  0  0  0  0  0  0  0
   -2.1656   -7.4075    0.1667 H   0  0  0  0  0  0  0  0  0  0  0  0
   -0.3087   -3.4139   -0.0955 H   0  0  0  0  0  0  0  0  0  0  0  0
    0.2628   -0.9686   -1.8566 H   0  0  0  0  0  0  0  0  0  0  0  0
    2.4725   -0.0484   -1.3851 H   0  0  0  0  0  0  0  0  0  0  0  0
    4.4755    0.2060   -0.2355 H   0  0  0  0  0  0  0  0  0  0  0  0
    3.8796    1.7902   -0.8414 H   0  0  0  0  0  0  0  0  0  0  0  0
    5.0959    2.9156    1.0545 H   0  0  0  0  0  0  0  0  0  0  0  0
    5.6848    1.3867    1.6035 H   0  0  0  0  0  0  0  0  0  0  0  0
    8.1845    0.9941   -1.0210 H   0  0  0  0  0  0  0  0  0  0  0  0
    6.5772    0.2865   -1.2567 H   0  0  0  0  0  0  0  0  0  0  0  0
    7.3909    0.1840    0.3207 H   0  0  0  0  0  0  0  0  0  0  0  0
    5.7311    2.5428   -2.0200 H   0  0  0  0  0  0  0  0  0  0  0  0
    5.9980    3.9424   -0.9563 H   0  0  0  0  0  0  0  0  0  0  0  0
    7.3602    3.1958   -1.7776 H   0  0  0  0  0  0  0  0  0  0  0  0
    1.1305    1.1864    2.5224 H   0  0  0  0  0  0  0  0  0  0  0  0
   -1.1006    0.2496    2.0493 H   0  0  0  0  0  0  0  0  0  0  0  0
   -4.4256    1.2397    1.4102 H   0  0  0  0  0  0  0  0  0  0  0  0
  1  2  1  0
  2  3  1  0
  3  4  2  0
  4  5  1  0
  5  6  2  0
  6  7  1  0
  7  8  1  0
  8  9  1  0
  9 10  1  0
 10 11  2  0
 11 12  1  0
 12 13  2  0
 13 14  1  0
 14 15  1  0
 13 16  1  0
 16 17  2  0
 17 18  1  0
 18 19  1  0
 19 20  2  0
 20 21  1  0
 21 22  2  0
 22 23  1  0
 23 24  1  0
 24 25  1  0
 25 26  1  0
 26 27  1  0
 26 28  1  0
 22 29  1  0
 29 30  2  0
  7 31  2  0
 31  3  1  0
 18  8  2  0
 30 19  1  0
 17 10  1  0
  1 32  1  0
  1 33  1  0
  1 34  1  0
  4 35  1  0
  5 36  1  0
  6 37  1  0
 11 38  1  0
 12 39  1  0
 15 40  1  0
 15 41  1  0
 15 42  1  0
 16 43  1  0
 20 44  1  0
 21 45  1  0
 24 46  1  0
 24 47  1  0
 25 48  1  0
 25 49  1  0
 27 50  1  0
 27 51  1  0
 27 52  1  0
 28 53  1  0
 28 54  1  0
 28 55  1  0
 29 56  1  0
 30 57  1  0
 31 58  1  0
M  END
$$$$
