
     RDKit          3D

 57 59  0  0  0  0  0  0  0  0999 V2000
    5.5417   -0.7548    0.7485 C   0  0  0  0  0  0  0  0  0  0  0  0
    5.2287   -0.1743   -0.6259 C   0  0  0  0  0  0  0  0  0  0  0  0
    6.5631    0.9229   -1.2515 S   0  0  0  0  0  0  0  0  0  0  0  0
    6.5949    2.2459    0.0111 C   0  0  0  0  0  0  0  0  0  0  0  0
    7.5269    1.9647    1.1683 C   0  0  0  0  0  0  0  0  0  0  0  0
    8.8854    1.6803    0.9588 C   0  0  0  0  0  0  0  0  0  0  0  0
    9.7386    1.4391    2.0387 C   0  0  0  0  0  0  0  0  0  0  0  0
    9.2474    1.4881    3.3420 C   0  0  0  0  0  0  0  0  0  0  0  0
    7.9065    1.7907    3.5669 C   0  0  0  0  0  0  0  0  0  0  0  0
    7.0529    2.0347    2.4880 C   0  0  0  0  0  0  0  0  0  0  0  0
    3.8409    0.4844   -0.6645 C   0  0  0  0  0  0  0  0  0  0  0  0
    3.6520    1.6794   -0.8786 O   0  0  0  0  0  0  0  0  0  0  0  0
    2.8146   -0.4316   -0.4272 N   0  0  0  0  0  0  0  0  0  0  0  0
    1.5259    0.0051   -0.3672 N   0  0  0  0  0  0  0  0  0  0  0  0
    0.6284   -0.8960   -0.1289 C   0  0  0  0  0  0  0  0  0  0  0  0
   -0.8026   -0.5468   -0.0257 C   0  0  0  0  0  0  0  0  0  0  0  0
   -1.2369    0.7578   -0.2653 C   0  0  0  0  0  0  0  0  0  0  0  0
   -2.5933    1.0674   -0.1494 C   0  0  0  0  0  0  0  0  0  0  0  0
   -3.5188    0.0853    0.2164 C   0  0  0  0  0  0  0  0  0  0  0  0
   -4.8130    0.5200    0.2900 O   0  0  0  0  0  0  0  0  0  0  0  0
   -5.7228   -0.2590    1.0592 C   0  0  0  0  0  0  0  0  0  0  0  0
   -6.4529   -1.3549    0.2780 C   0  0  0  0  0  0  0  0  0  0  0  0
   -7.0573   -2.2622    0.8449 O   0  0  0  0  0  0  0  0  0  0  0  0
   -6.3947   -1.2166   -1.0880 N   0  0  0  0  0  0  0  0  0  0  0  0
   -7.1523   -2.0581   -1.9836 C   0  0  0  0  0  0  0  0  0  0  0  0
   -8.4213   -1.3693   -2.3219 C   0  0  0  0  0  0  0  0  0  0  0  0
   -9.6247   -1.2268   -1.6620 C   0  0  0  0  0  0  0  0  0  0  0  0
  -10.4565   -0.4574   -2.5113 C   0  0  0  0  0  0  0  0  0  0  0  0
   -9.7076   -0.1750   -3.6305 C   0  0  0  0  0  0  0  0  0  0  0  0
   -8.4686   -0.7200   -3.5237 O   0  0  0  0  0  0  0  0  0  0  0  0
   -3.0820   -1.2228    0.4400 C   0  0  0  0  0  0  0  0  0  0  0  0
   -1.7234   -1.5403    0.3198 C   0  0  0  0  0  0  0  0  0  0  0  0
    5.3147   -0.0487    1.5534 H   0  0  0  0  0  0  0  0  0  0  0  0
    6.5858   -1.0739    0.8317 H   0  0  0  0  0  0  0  0  0  0  0  0
    4.9244   -1.6426    0.9353 H   0  0  0  0  0  0  0  0  0  0  0  0
    5.2006   -1.0022   -1.3455 H   0  0  0  0  0  0  0  0  0  0  0  0
    6.9430    3.1609   -0.4844 H   0  0  0  0  0  0  0  0  0  0  0  0
    5.5864    2.4610    0.3722 H   0  0  0  0  0  0  0  0  0  0  0  0
    9.2879    1.6421   -0.0520 H   0  0  0  0  0  0  0  0  0  0  0  0
   10.7865    1.2125    1.8608 H   0  0  0  0  0  0  0  0  0  0  0  0
    9.9122    1.2985    4.1813 H   0  0  0  0  0  0  0  0  0  0  0  0
    7.5240    1.8383    4.5834 H   0  0  0  0  0  0  0  0  0  0  0  0
    6.0110    2.2796    2.6850 H   0  0  0  0  0  0  0  0  0  0  0  0
    3.0088   -1.4225   -0.3302 H   0  0  0  0  0  0  0  0  0  0  0  0
    0.8940   -1.9578    0.0165 H   0  0  0  0  0  0  0  0  0  0  0  0
   -0.5287    1.5377   -0.5389 H   0  0  0  0  0  0  0  0  0  0  0  0
   -2.9266    2.0850   -0.3324 H   0  0  0  0  0  0  0  0  0  0  0  0
   -5.2441   -0.6897    1.9473 H   0  0  0  0  0  0  0  0  0  0  0  0
   -6.4974    0.4284    1.4181 H   0  0  0  0  0  0  0  0  0  0  0  0
   -5.9931   -0.3626   -1.4603 H   0  0  0  0  0  0  0  0  0  0  0  0
   -7.3517   -3.0308   -1.5215 H   0  0  0  0  0  0  0  0  0  0  0  0
   -6.5433   -2.2182   -2.8774 H   0  0  0  0  0  0  0  0  0  0  0  0
   -9.8642   -1.6337   -0.6872 H   0  0  0  0  0  0  0  0  0  0  0  0
  -11.4759   -0.1472   -2.3310 H   0  0  0  0  0  0  0  0  0  0  0  0
   -9.9009    0.3709   -4.5442 H   0  0  0  0  0  0  0  0  0  0  0  0
   -3.7718   -2.0216    0.6999 H   0  0  0  0  0  0  0  0  0  0  0  0
   -1.4011   -2.5633    0.4999 H   0  0  0  0  0  0  0  0  0  0  0  0
  1  2  1  0
  2  3  1  0
  3  4  1  0
  4  5  1  0
  5  6  2  0
  6  7  1  0
  7  8  2  0
  8  9  1  0
  9 10  2  0
  2 11  1  0
 11 12  2  0
 11 13  1  0
 13 14  1  0
 14 15  2  3
 15 16  1  0
 16 17  2  0
 17 18  1  0
 18 19  2  0
 19 20  1  0
 20 21  1  0
 21 22  1  0
 22 23  2  0
 22 24  1  0
 24 25  1  0
 25 26  1  0
 26 27  2  0
 27 28  1  0
 28 29  2  0
 29 30  1  0
 19 31  1  0
 31 32  2  0
 10  5  1  0
 32 16  1  0
 30 26  1  0
  1 33  1  0
  1 34  1  0
  1 35  1  0
  2 36  1  0
  4 37  1  0
  4 38  1  0
  6 39  1  0
  7 40  1  0
  8 41  1  0
  9 42  1  0
 10 43  1  0
 13 44  1  0
 15 45  1  0
 17 46  1  0
 18 47  1  0
 21 48  1  0
 21 49  1  0
 24 50  1  0
 25 51  1  0
 25 52  1  0
 27 53  1  0
 28 54  1  0
 29 55  1  0
 31 56  1  0
 32 57  1  0
M  END
$$$$
