
     RDKit          3D

 56 58  0  0  0  0  0  0  0  0999 V2000
    6.5303   -1.6011    1.8224 C   0  0  0  0  0  0  0  0  0  0  0  0
    5.2704   -2.0806    1.3720 O   0  0  0  0  0  0  0  0  0  0  0  0
    4.6848   -1.4117    0.3310 C   0  0  0  0  0  0  0  0  0  0  0  0
    5.2316   -0.3251   -0.3506 C   0  0  0  0  0  0  0  0  0  0  0  0
    4.5289    0.2758   -1.4011 C   0  0  0  0  0  0  0  0  0  0  0  0
    3.2715   -0.2051   -1.7703 C   0  0  0  0  0  0  0  0  0  0  0  0
    2.5057    0.3153   -2.7882 O   0  0  0  0  0  0  0  0  0  0  0  0
    2.8176    1.6378   -3.2075 C   0  0  0  0  0  0  0  0  0  0  0  0
    2.7181   -1.3094   -1.0921 C   0  0  0  0  0  0  0  0  0  0  0  0
    1.4432   -1.7413   -1.5185 N   0  0  0  0  0  0  0  0  0  0  0  0
    0.6006   -2.6504   -0.9170 C   0  0  0  0  0  0  0  0  0  0  0  0
    0.8483   -3.3221    0.0823 O   0  0  0  0  0  0  0  0  0  0  0  0
   -0.7157   -2.8560   -1.6524 C   0  0  0  0  0  0  0  0  0  0  0  0
   -1.5417   -1.3225   -2.1633 S   0  0  0  0  0  0  0  0  0  0  0  0
   -1.6554   -0.5424   -0.5990 C   0  0  0  0  0  0  0  0  0  0  0  0
   -0.6047    0.1033   -0.2212 N   0  0  0  0  0  0  0  0  0  0  0  0
   -0.6139    0.7230    1.0282 C   0  0  0  0  0  0  0  0  0  0  0  0
    0.5404    1.3746    1.4677 C   0  0  0  0  0  0  0  0  0  0  0  0
    0.5673    2.0093    2.7121 C   0  0  0  0  0  0  0  0  0  0  0  0
   -0.5642    1.9964    3.5274 C   0  0  0  0  0  0  0  0  0  0  0  0
   -1.7205    1.3446    3.0994 C   0  0  0  0  0  0  0  0  0  0  0  0
   -1.7336    0.7089    1.8522 C   0  0  0  0  0  0  0  0  0  0  0  0
   -2.9292    0.0008    1.3646 C   0  0  0  0  0  0  0  0  0  0  0  0
   -3.9619    0.0367    2.0349 O   0  0  0  0  0  0  0  0  0  0  0  0
   -2.8185   -0.6587    0.1391 N   0  0  0  0  0  0  0  0  0  0  0  0
   -4.0289   -1.3388   -0.3391 C   0  0  0  0  0  0  0  0  0  0  0  0
   -4.9582   -0.4320   -1.1652 C   0  0  0  0  0  0  0  0  0  0  0  0
   -5.3622    0.7684   -0.4518 N   0  0  0  0  0  0  0  0  0  0  0  0
   -4.7535    1.9806   -0.6901 C   0  0  0  0  0  0  0  0  0  0  0  0
   -5.1595    3.0725    0.2637 C   0  0  0  0  0  0  0  0  0  0  0  0
   -3.9364    2.1676   -1.5851 O   0  0  0  0  0  0  0  0  0  0  0  0
    3.4303   -1.9020   -0.0471 C   0  0  0  0  0  0  0  0  0  0  0  0
    6.4564   -0.5689    2.1808 H   0  0  0  0  0  0  0  0  0  0  0  0
    7.2903   -1.6949    1.0397 H   0  0  0  0  0  0  0  0  0  0  0  0
    6.8426   -2.2238    2.6659 H   0  0  0  0  0  0  0  0  0  0  0  0
    6.2057    0.0771   -0.0942 H   0  0  0  0  0  0  0  0  0  0  0  0
    4.9935    1.1098   -1.9160 H   0  0  0  0  0  0  0  0  0  0  0  0
    2.0140    1.9774   -3.8682 H   0  0  0  0  0  0  0  0  0  0  0  0
    3.7501    1.6520   -3.7809 H   0  0  0  0  0  0  0  0  0  0  0  0
    2.8649    2.3288   -2.3589 H   0  0  0  0  0  0  0  0  0  0  0  0
    1.0389   -1.1533   -2.2456 H   0  0  0  0  0  0  0  0  0  0  0  0
   -1.3961   -3.4152   -1.0015 H   0  0  0  0  0  0  0  0  0  0  0  0
   -0.5198   -3.4666   -2.5394 H   0  0  0  0  0  0  0  0  0  0  0  0
    1.4245    1.3798    0.8346 H   0  0  0  0  0  0  0  0  0  0  0  0
    1.4736    2.5102    3.0437 H   0  0  0  0  0  0  0  0  0  0  0  0
   -0.5429    2.4894    4.4965 H   0  0  0  0  0  0  0  0  0  0  0  0
   -2.6017    1.3280    3.7359 H   0  0  0  0  0  0  0  0  0  0  0  0
   -3.7635   -2.2224   -0.9264 H   0  0  0  0  0  0  0  0  0  0  0  0
   -4.5850   -1.7150    0.5289 H   0  0  0  0  0  0  0  0  0  0  0  0
   -5.8761   -0.9814   -1.4005 H   0  0  0  0  0  0  0  0  0  0  0  0
   -4.4836   -0.1555   -2.1121 H   0  0  0  0  0  0  0  0  0  0  0  0
   -5.7770    0.6381    0.4661 H   0  0  0  0  0  0  0  0  0  0  0  0
   -6.0383    2.7904    0.8509 H   0  0  0  0  0  0  0  0  0  0  0  0
   -5.4035    3.9737   -0.3066 H   0  0  0  0  0  0  0  0  0  0  0  0
   -4.3286    3.2781    0.9440 H   0  0  0  0  0  0  0  0  0  0  0  0
    3.0308   -2.7523    0.4961 H   0  0  0  0  0  0  0  0  0  0  0  0
  1  2  1  0
  2  3  1  0
  3  4  2  0
  4  5  1  0
  5  6  2  0
  6  7  1  0
  7  8  1  0
  6  9  1  0
  9 10  1  0
 10 11  1  0
 11 12  2  0
 11 13  1  0
 13 14  1  0
 14 15  1  0
 15 16  2  0
 16 17  1  0
 17 18  2  0
 18 19  1  0
 19 20  2  0
 20 21  1  0
 21 22  2  0
 22 23  1  0
 23 24  2  0
 23 25  1  0
 25 26  1  0
 26 27  1  0
 27 28  1  0
 28 29  1  0
 29 30  1  0
 29 31  2  0
  9 32  2  0
 32  3  1  0
 25 15  1  0
 22 17  1  0
  1 33  1  0
  1 34  1  0
  1 35  1  0
  4 36  1  0
  5 37  1  0
  8 38  1  0
  8 39  1  0
  8 40  1  0
 10 41  1  0
 13 42  1  0
 13 43  1  0
 18 44  1  0
 19 45  1  0
 20 46  1  0
 21 47  1  0
 26 48  1  0
 26 49  1  0
 27 50  1  0
 27 51  1  0
 28 52  1  0
 30 53  1  0
 30 54  1  0
 30 55  1  0
 32 56  1  0
M  END
$$$$
