
     RDKit          3D

 33 35  0  0  0  0  0  0  0  0999 V2000
    4.7305   -0.3556   -1.9691 C   0  0  0  0  0  0  0  0  0  0  0  0
    4.3557   -0.8966   -0.6013 C   0  0  0  0  0  0  0  0  0  0  0  0
    2.9288   -0.8327   -0.3759 N   0  0  0  0  0  0  0  0  0  0  0  0
    2.2964    0.2953    0.0751 C   0  0  0  0  0  0  0  0  0  0  0  0
    2.9064    1.3229    0.3753 O   0  0  0  0  0  0  0  0  0  0  0  0
    0.8033    0.2289    0.1898 C   0  0  0  0  0  0  0  0  0  0  0  0
    0.1498    1.3201    0.6699 C   0  0  0  0  0  0  0  0  0  0  0  0
    0.7540    2.5016    1.0643 O   0  0  0  0  0  0  0  0  0  0  0  0
   -1.3124    1.3204    0.8111 C   0  0  0  0  0  0  0  0  0  0  0  0
   -2.1111    2.3602    1.2863 C   0  0  0  0  0  0  0  0  0  0  0  0
   -3.5135    2.2061    1.3627 C   0  0  0  0  0  0  0  0  0  0  0  0
   -4.1400    1.0133    0.9662 C   0  0  0  0  0  0  0  0  0  0  0  0
   -3.3451   -0.0126    0.4964 C   0  0  0  0  0  0  0  0  0  0  0  0
   -1.9736    0.1722    0.4353 C   0  0  0  0  0  0  0  0  0  0  0  0
   -1.3300   -0.9466   -0.0563 N   0  0  0  0  0  0  0  0  0  0  0  0
    0.0280   -1.0070   -0.2143 C   0  0  0  0  0  0  0  0  0  0  0  0
    0.5948   -2.0044   -0.6606 O   0  0  0  0  0  0  0  0  0  0  0  0
   -2.3211   -1.9784   -0.3618 C   0  0  0  0  0  0  0  0  0  0  0  0
   -3.7035   -1.3822    0.0068 C   0  0  0  0  0  0  0  0  0  0  0  0
    4.4462    0.6969   -2.0699 H   0  0  0  0  0  0  0  0  0  0  0  0
    5.8101   -0.4356   -2.1284 H   0  0  0  0  0  0  0  0  0  0  0  0
    4.2232   -0.9147   -2.7625 H   0  0  0  0  0  0  0  0  0  0  0  0
    4.8706   -0.3289    0.1809 H   0  0  0  0  0  0  0  0  0  0  0  0
    4.6519   -1.9468   -0.5159 H   0  0  0  0  0  0  0  0  0  0  0  0
    2.3577   -1.6319   -0.6558 H   0  0  0  0  0  0  0  0  0  0  0  0
    1.7249    2.4129    0.9259 H   0  0  0  0  0  0  0  0  0  0  0  0
   -1.6577    3.2975    1.6016 H   0  0  0  0  0  0  0  0  0  0  0  0
   -4.1174    3.0308    1.7369 H   0  0  0  0  0  0  0  0  0  0  0  0
   -5.2184    0.9092    1.0305 H   0  0  0  0  0  0  0  0  0  0  0  0
   -2.0933   -2.8774    0.2212 H   0  0  0  0  0  0  0  0  0  0  0  0
   -2.2551   -2.2329   -1.4253 H   0  0  0  0  0  0  0  0  0  0  0  0
   -4.1854   -1.9710    0.7932 H   0  0  0  0  0  0  0  0  0  0  0  0
   -4.3545   -1.3331   -0.8713 H   0  0  0  0  0  0  0  0  0  0  0  0
  1  2  1  0
  2  3  1  0
  3  4  1  0
  4  5  2  0
  4  6  1  0
  6  7  2  0
  7  8  1  0
  7  9  1  0
  9 10  2  0
 10 11  1  0
 11 12  2  0
 12 13  1  0
 13 14  2  0
 14 15  1  0
 15 16  1  0
 16 17  2  0
 15 18  1  0
 18 19  1  0
 16  6  1  0
 14  9  1  0
 19 13  1  0
  1 20  1  0
  1 21  1  0
  1 22  1  0
  2 23  1  0
  2 24  1  0
  3 25  1  0
  8 26  1  0
 10 27  1  0
 11 28  1  0
 12 29  1  0
 18 30  1  0
 18 31  1  0
 19 32  1  0
 19 33  1  0
M  END
$$$$
