
     RDKit          3D

 50 52  0  0  0  0  0  0  0  0999 V2000
   -3.6652   -1.6049   -2.0376 C   0  0  0  0  0  0  0  0  0  0  0  0
   -4.3808   -1.2262   -0.8679 O   0  0  0  0  0  0  0  0  0  0  0  0
   -3.6713   -0.5734    0.1045 C   0  0  0  0  0  0  0  0  0  0  0  0
   -2.2821   -0.4496    0.1484 C   0  0  0  0  0  0  0  0  0  0  0  0
   -1.6720    0.2237    1.2181 C   0  0  0  0  0  0  0  0  0  0  0  0
   -0.2010    0.3610    1.2841 C   0  0  0  0  0  0  0  0  0  0  0  0
    0.5682   -0.1352    0.3670 N   0  0  0  0  0  0  0  0  0  0  0  0
    1.9189    0.0702    0.4782 N   0  0  0  0  0  0  0  0  0  0  0  0
    2.5277    1.2361    0.9349 C   0  0  0  0  0  0  0  0  0  0  0  0
    1.9643    2.1867    1.4748 O   0  0  0  0  0  0  0  0  0  0  0  0
    4.0436    1.2314    0.7297 C   0  0  0  0  0  0  0  0  0  0  0  0
    4.4465    0.1752   -0.1384 O   0  0  0  0  0  0  0  0  0  0  0  0
    5.7849    0.0637   -0.3961 C   0  0  0  0  0  0  0  0  0  0  0  0
    6.7902    0.8897    0.1058 C   0  0  0  0  0  0  0  0  0  0  0  0
    8.1270    0.6609   -0.2408 C   0  0  0  0  0  0  0  0  0  0  0  0
    8.4732   -0.3876   -1.1001 C   0  0  0  0  0  0  0  0  0  0  0  0
    9.9099   -0.6494   -1.4422 C   0  0  0  0  0  0  0  0  0  0  0  0
    7.4637   -1.2215   -1.5894 C   0  0  0  0  0  0  0  0  0  0  0  0
    6.1300   -0.9919   -1.2428 C   0  0  0  0  0  0  0  0  0  0  0  0
   -2.4394    0.7730    2.2516 C   0  0  0  0  0  0  0  0  0  0  0  0
   -3.8265    0.6505    2.2192 C   0  0  0  0  0  0  0  0  0  0  0  0
   -4.4248   -0.0067    1.1433 C   0  0  0  0  0  0  0  0  0  0  0  0
   -5.8175   -0.1440    1.1526 O   0  0  0  0  0  0  0  0  0  0  0  0
   -6.4619    0.7621    0.3112 C   0  0  0  0  0  0  0  0  0  0  0  0
   -5.9180    1.6996   -0.2646 O   0  0  0  0  0  0  0  0  0  0  0  0
   -7.8774    0.4325    0.2606 C   0  0  0  0  0  0  0  0  0  0  0  0
   -8.5640   -0.6136    0.8543 C   0  0  0  0  0  0  0  0  0  0  0  0
   -9.9593   -0.5910    0.5619 C   0  0  0  0  0  0  0  0  0  0  0  0
  -10.2974    0.4698   -0.2465 C   0  0  0  0  0  0  0  0  0  0  0  0
   -8.9402    1.4274   -0.6486 S   0  0  0  0  0  0  0  0  0  0  0  0
   -3.1814   -0.7413   -2.5063 H   0  0  0  0  0  0  0  0  0  0  0  0
   -2.9392   -2.3932   -1.8138 H   0  0  0  0  0  0  0  0  0  0  0  0
   -4.3867   -2.0110   -2.7531 H   0  0  0  0  0  0  0  0  0  0  0  0
   -1.6516   -0.8715   -0.6273 H   0  0  0  0  0  0  0  0  0  0  0  0
    0.1911    0.8807    2.1748 H   0  0  0  0  0  0  0  0  0  0  0  0
    2.4792   -0.4882   -0.1652 H   0  0  0  0  0  0  0  0  0  0  0  0
    4.4995    1.1083    1.7189 H   0  0  0  0  0  0  0  0  0  0  0  0
    4.3098    2.1992    0.2890 H   0  0  0  0  0  0  0  0  0  0  0  0
    6.5764    1.7206    0.7698 H   0  0  0  0  0  0  0  0  0  0  0  0
    8.8986    1.3116    0.1659 H   0  0  0  0  0  0  0  0  0  0  0  0
   10.4843    0.2829   -1.4550 H   0  0  0  0  0  0  0  0  0  0  0  0
   10.3521   -1.3278   -0.7062 H   0  0  0  0  0  0  0  0  0  0  0  0
    9.9990   -1.0989   -2.4368 H   0  0  0  0  0  0  0  0  0  0  0  0
    7.7066   -2.0548   -2.2448 H   0  0  0  0  0  0  0  0  0  0  0  0
    5.3562   -1.6458   -1.6371 H   0  0  0  0  0  0  0  0  0  0  0  0
   -1.9673    1.2961    3.0795 H   0  0  0  0  0  0  0  0  0  0  0  0
   -4.4338    1.0694    3.0158 H   0  0  0  0  0  0  0  0  0  0  0  0
   -8.0884   -1.3681    1.4707 H   0  0  0  0  0  0  0  0  0  0  0  0
  -10.6768   -1.3170    0.9249 H   0  0  0  0  0  0  0  0  0  0  0  0
  -11.2768    0.7305   -0.6241 H   0  0  0  0  0  0  0  0  0  0  0  0
  1  2  1  0
  2  3  1  0
  3  4  2  0
  4  5  1  0
  5  6  1  0
  6  7  2  3
  7  8  1  0
  8  9  1  0
  9 10  2  0
  9 11  1  0
 11 12  1  0
 12 13  1  0
 13 14  2  0
 14 15  1  0
 15 16  2  0
 16 17  1  0
 16 18  1  0
 18 19  2  0
  5 20  2  0
 20 21  1  0
 21 22  2  0
 22 23  1  0
 23 24  1  0
 24 25  2  0
 24 26  1  0
 26 27  2  0
 27 28  1  0
 28 29  2  0
 29 30  1  0
 22  3  1  0
 30 26  1  0
 19 13  1  0
  1 31  1  0
  1 32  1  0
  1 33  1  0
  4 34  1  0
  6 35  1  0
  8 36  1  0
 11 37  1  0
 11 38  1  0
 14 39  1  0
 15 40  1  0
 17 41  1  0
 17 42  1  0
 17 43  1  0
 18 44  1  0
 19 45  1  0
 20 46  1  0
 21 47  1  0
 27 48  1  0
 28 49  1  0
 29 50  1  0
M  END
$$$$
