
     RDKit          3D

 60 62  0  0  0  0  0  0  0  0999 V2000
   -8.0023    2.2069   -2.1040 C   0  0  0  0  0  0  0  0  0  0  0  0
   -7.8910    1.4131   -0.8104 C   0  0  0  0  0  0  0  0  0  0  0  0
   -6.4752    0.9672   -0.5471 C   0  0  0  0  0  0  0  0  0  0  0  0
   -6.0624   -0.3272   -0.8782 C   0  0  0  0  0  0  0  0  0  0  0  0
   -4.7441   -0.7392   -0.6497 C   0  0  0  0  0  0  0  0  0  0  0  0
   -3.8155    0.1401   -0.0941 C   0  0  0  0  0  0  0  0  0  0  0  0
   -2.4684   -0.1890    0.1582 N   0  0  0  0  0  0  0  0  0  0  0  0
   -1.8352   -1.4113   -0.0201 C   0  0  0  0  0  0  0  0  0  0  0  0
   -2.3738   -2.4409   -0.4117 O   0  0  0  0  0  0  0  0  0  0  0  0
   -0.3271   -1.3413    0.3183 C   0  0  0  0  0  0  0  0  0  0  0  0
   -0.1554   -0.9854    1.7404 N   0  0  0  0  0  0  0  0  0  0  0  0
    0.2588    0.5601    2.1934 S   0  0  0  0  0  6  0  0  0  0  0  0
    0.1949    0.6059    3.6346 O   0  0  0  0  0  0  0  0  0  0  0  0
   -0.5228    1.4532    1.3637 O   0  0  0  0  0  0  0  0  0  0  0  0
    1.9590    0.6446    1.7049 C   0  0  0  0  0  0  0  0  0  0  0  0
    2.9298    0.0004    2.4907 C   0  0  0  0  0  0  0  0  0  0  0  0
    4.2743    0.0245    2.1005 C   0  0  0  0  0  0  0  0  0  0  0  0
    4.6190    0.6913    0.9319 C   0  0  0  0  0  0  0  0  0  0  0  0
    3.6470    1.3422    0.1674 C   0  0  0  0  0  0  0  0  0  0  0  0
    2.3105    1.3389    0.5417 C   0  0  0  0  0  0  0  0  0  0  0  0
    4.2469    1.9993   -1.0322 C   0  0  0  0  0  0  0  0  0  0  0  0
    5.7178    1.5752   -0.9317 C   0  0  0  0  0  0  0  0  0  0  0  0
    5.8824    0.8259    0.3254 N   0  0  0  0  0  0  0  0  0  0  0  0
    7.0687    0.2930    0.8001 C   0  0  0  0  0  0  0  0  0  0  0  0
    8.2807    0.5390   -0.0630 C   0  0  0  0  0  0  0  0  0  0  0  0
    7.1910   -0.3463    1.8455 O   0  0  0  0  0  0  0  0  0  0  0  0
    0.5069   -2.6116    0.0230 C   0  0  0  0  0  0  0  0  0  0  0  0
    0.0607   -3.8662    0.7815 C   0  0  0  0  0  0  0  0  0  0  0  0
    0.5888   -2.8952   -1.4809 C   0  0  0  0  0  0  0  0  0  0  0  0
   -4.2258    1.4364    0.2342 C   0  0  0  0  0  0  0  0  0  0  0  0
   -5.5432    1.8499    0.0107 C   0  0  0  0  0  0  0  0  0  0  0  0
   -7.6567    1.6165   -2.9624 H   0  0  0  0  0  0  0  0  0  0  0  0
   -7.4030    3.1223   -2.0625 H   0  0  0  0  0  0  0  0  0  0  0  0
   -9.0435    2.4957   -2.2839 H   0  0  0  0  0  0  0  0  0  0  0  0
   -8.2459    2.0193    0.0295 H   0  0  0  0  0  0  0  0  0  0  0  0
   -8.5532    0.5440   -0.8579 H   0  0  0  0  0  0  0  0  0  0  0  0
   -6.7645   -1.0349   -1.3195 H   0  0  0  0  0  0  0  0  0  0  0  0
   -4.4776   -1.7527   -0.9263 H   0  0  0  0  0  0  0  0  0  0  0  0
   -1.9028    0.5635    0.5564 H   0  0  0  0  0  0  0  0  0  0  0  0
    0.0846   -0.5412   -0.3116 H   0  0  0  0  0  0  0  0  0  0  0  0
   -0.5524   -1.5807    2.4653 H   0  0  0  0  0  0  0  0  0  0  0  0
    2.6434   -0.5304    3.4016 H   0  0  0  0  0  0  0  0  0  0  0  0
    5.0146   -0.4858    2.7104 H   0  0  0  0  0  0  0  0  0  0  0  0
    1.5638    1.8497   -0.0599 H   0  0  0  0  0  0  0  0  0  0  0  0
    4.1468    3.0859   -0.9736 H   0  0  0  0  0  0  0  0  0  0  0  0
    3.7914    1.6378   -1.9575 H   0  0  0  0  0  0  0  0  0  0  0  0
    5.9984    0.9226   -1.7649 H   0  0  0  0  0  0  0  0  0  0  0  0
    6.3876    2.4411   -0.9358 H   0  0  0  0  0  0  0  0  0  0  0  0
    8.1276    0.1218   -1.0572 H   0  0  0  0  0  0  0  0  0  0  0  0
    9.1508    0.0468    0.3793 H   0  0  0  0  0  0  0  0  0  0  0  0
    8.4915    1.6059   -0.1262 H   0  0  0  0  0  0  0  0  0  0  0  0
    1.5351   -2.4020    0.3531 H   0  0  0  0  0  0  0  0  0  0  0  0
    0.7919   -4.6708    0.6370 H   0  0  0  0  0  0  0  0  0  0  0  0
   -0.0113   -3.6841    1.8587 H   0  0  0  0  0  0  0  0  0  0  0  0
   -0.9054   -4.2417    0.4312 H   0  0  0  0  0  0  0  0  0  0  0  0
    1.2933   -3.7120   -1.6792 H   0  0  0  0  0  0  0  0  0  0  0  0
   -0.3827   -3.1844   -1.8947 H   0  0  0  0  0  0  0  0  0  0  0  0
    0.9430   -2.0119   -2.0281 H   0  0  0  0  0  0  0  0  0  0  0  0
   -3.5250    2.1439    0.6691 H   0  0  0  0  0  0  0  0  0  0  0  0
   -5.8348    2.8623    0.2760 H   0  0  0  0  0  0  0  0  0  0  0  0
  1  2  1  0
  2  3  1  0
  3  4  2  0
  4  5  1  0
  5  6  2  0
  6  7  1  0
  7  8  1  0
  8  9  2  0
  8 10  1  0
 10 11  1  0
 11 12  1  0
 12 13  2  0
 12 14  2  0
 12 15  1  0
 15 16  2  0
 16 17  1  0
 17 18  2  0
 18 19  1  0
 19 20  2  0
 19 21  1  0
 21 22  1  0
 22 23  1  0
 23 24  1  0
 24 25  1  0
 24 26  2  0
 10 27  1  0
 27 28  1  0
 27 29  1  0
  6 30  1  0
 30 31  2  0
 31  3  1  0
 20 15  1  0
 23 18  1  0
  1 32  1  0
  1 33  1  0
  1 34  1  0
  2 35  1  0
  2 36  1  0
  4 37  1  0
  5 38  1  0
  7 39  1  0
 10 40  1  0
 11 41  1  0
 16 42  1  0
 17 43  1  0
 20 44  1  0
 21 45  1  0
 21 46  1  0
 22 47  1  0
 22 48  1  0
 25 49  1  0
 25 50  1  0
 25 51  1  0
 27 52  1  0
 28 53  1  0
 28 54  1  0
 28 55  1  0
 29 56  1  0
 29 57  1  0
 29 58  1  0
 30 59  1  0
 31 60  1  0
M  END
$$$$
