
     RDKit          3D

 63 67  0  0  0  0  0  0  0  0999 V2000
    3.9242    1.4745   -4.8982 C   0  0  0  0  0  0  0  0  0  0  0  0
    4.9921    1.2643   -3.8424 C   0  0  0  0  0  0  0  0  0  0  0  0
    4.3535    0.7985   -2.6496 O   0  0  0  0  0  0  0  0  0  0  0  0
    5.2114    0.5591   -1.6148 C   0  0  0  0  0  0  0  0  0  0  0  0
    6.4247    0.7215   -1.6687 O   0  0  0  0  0  0  0  0  0  0  0  0
    4.5165    0.0881   -0.4241 C   0  0  0  0  0  0  0  0  0  0  0  0
    3.1239   -0.1445   -0.2332 C   0  0  0  0  0  0  0  0  0  0  0  0
    2.9238   -0.5679    1.0701 C   0  0  0  0  0  0  0  0  0  0  0  0
    1.7208   -0.9380    1.8064 C   0  0  0  0  0  0  0  0  0  0  0  0
    0.4303   -0.8068    1.3016 N   0  0  0  0  0  0  0  0  0  0  0  0
    0.0287    0.3447    0.4809 C   0  0  0  0  0  0  0  0  0  0  0  0
   -1.3592    0.8953    0.8836 C   0  0  0  0  0  0  0  0  0  0  0  0
   -2.4632   -0.0878    0.8798 N   0  0  0  0  0  0  0  0  0  0  0  0
   -3.2920   -0.0394   -0.3342 C   0  0  0  0  0  0  0  0  0  0  0  0
   -4.2471    1.1686   -0.3403 C   0  0  0  0  0  0  0  0  0  0  0  0
   -5.1456    1.1694   -1.5630 C   0  0  0  0  0  0  0  0  0  0  0  0
   -4.6265    1.6826   -2.7664 C   0  0  0  0  0  0  0  0  0  0  0  0
   -5.3941    1.6992   -3.9299 C   0  0  0  0  0  0  0  0  0  0  0  0
   -6.6917    1.2016   -3.9125 C   0  0  0  0  0  0  0  0  0  0  0  0
   -7.2222    0.6865   -2.7303 C   0  0  0  0  0  0  0  0  0  0  0  0
   -6.4641    0.6577   -1.5426 C   0  0  0  0  0  0  0  0  0  0  0  0
   -7.0955    0.0957   -0.2856 C   0  0  0  0  0  0  0  0  0  0  0  0
   -6.3502   -0.8900    0.2867 F   0  0  0  0  0  0  0  0  0  0  0  0
   -7.2798    1.0410    0.6767 F   0  0  0  0  0  0  0  0  0  0  0  0
   -8.3257   -0.4565   -0.4954 F   0  0  0  0  0  0  0  0  0  0  0  0
   -1.9514   -1.4598    1.1046 C   0  0  0  0  0  0  0  0  0  0  0  0
   -0.6796   -1.5080    1.9735 C   0  0  0  0  0  0  0  0  0  0  0  0
    1.8628   -1.4364    3.0109 N   0  0  0  0  0  0  0  0  0  0  0  0
    3.1342   -1.5580    3.6012 C   0  0  0  0  0  0  0  0  0  0  0  0
    3.2180   -2.0790    4.8936 C   0  0  0  0  0  0  0  0  0  0  0  0
    4.4542   -2.2083    5.5315 C   0  0  0  0  0  0  0  0  0  0  0  0
    5.6231   -1.8152    4.8789 C   0  0  0  0  0  0  0  0  0  0  0  0
    5.5629   -1.2929    3.5868 C   0  0  0  0  0  0  0  0  0  0  0  0
    4.3182   -1.1690    2.9620 C   0  0  0  0  0  0  0  0  0  0  0  0
    4.1661   -0.6686    1.6589 N   0  0  0  0  0  0  0  0  0  0  0  0
    5.1256   -0.2371    0.7771 C   0  0  0  0  0  0  0  0  0  0  0  0
    4.3641    1.8370   -5.8314 H   0  0  0  0  0  0  0  0  0  0  0  0
    3.3906    0.5390   -5.0980 H   0  0  0  0  0  0  0  0  0  0  0  0
    3.1784    2.1989   -4.5540 H   0  0  0  0  0  0  0  0  0  0  0  0
    5.7149    0.5188   -4.1917 H   0  0  0  0  0  0  0  0  0  0  0  0
    5.5050    2.2119   -3.6418 H   0  0  0  0  0  0  0  0  0  0  0  0
    2.3559   -0.0129   -0.9837 H   0  0  0  0  0  0  0  0  0  0  0  0
    0.7485    1.1646    0.5830 H   0  0  0  0  0  0  0  0  0  0  0  0
    0.0078    0.0406   -0.5719 H   0  0  0  0  0  0  0  0  0  0  0  0
   -1.2834    1.2816    1.9087 H   0  0  0  0  0  0  0  0  0  0  0  0
   -1.5885    1.7668    0.2609 H   0  0  0  0  0  0  0  0  0  0  0  0
   -2.6620   -0.0449   -1.2336 H   0  0  0  0  0  0  0  0  0  0  0  0
   -3.9091   -0.9466   -0.3859 H   0  0  0  0  0  0  0  0  0  0  0  0
   -4.8461    1.1780    0.5771 H   0  0  0  0  0  0  0  0  0  0  0  0
   -3.6873    2.1119   -0.3265 H   0  0  0  0  0  0  0  0  0  0  0  0
   -3.6129    2.0787   -2.8016 H   0  0  0  0  0  0  0  0  0  0  0  0
   -4.9785    2.1026   -4.8500 H   0  0  0  0  0  0  0  0  0  0  0  0
   -7.2926    1.2145   -4.8188 H   0  0  0  0  0  0  0  0  0  0  0  0
   -8.2425    0.3034   -2.7390 H   0  0  0  0  0  0  0  0  0  0  0  0
   -2.7389   -2.0515    1.5854 H   0  0  0  0  0  0  0  0  0  0  0  0
   -1.7201   -1.9420    0.1442 H   0  0  0  0  0  0  0  0  0  0  0  0
   -0.4097   -2.5590    2.1323 H   0  0  0  0  0  0  0  0  0  0  0  0
   -0.8737   -1.0566    2.9546 H   0  0  0  0  0  0  0  0  0  0  0  0
    2.3085   -2.3832    5.4048 H   0  0  0  0  0  0  0  0  0  0  0  0
    4.5024   -2.6155    6.5378 H   0  0  0  0  0  0  0  0  0  0  0  0
    6.5827   -1.9174    5.3794 H   0  0  0  0  0  0  0  0  0  0  0  0
    6.4860   -0.9979    3.0989 H   0  0  0  0  0  0  0  0  0  0  0  0
    6.1735   -0.2059    1.0430 H   0  0  0  0  0  0  0  0  0  0  0  0
  1  2  1  0
  2  3  1  0
  3  4  1  0
  4  5  2  0
  4  6  1  0
  6  7  1  0
  7  8  2  0
  8  9  1  0
  9 10  1  0
 10 11  1  0
 11 12  1  0
 12 13  1  0
 13 14  1  0
 14 15  1  0
 15 16  1  0
 16 17  2  0
 17 18  1  0
 18 19  2  0
 19 20  1  0
 20 21  2  0
 21 22  1  0
 22 23  1  0
 22 24  1  0
 22 25  1  0
 13 26  1  0
 26 27  1  0
  9 28  2  0
 28 29  1  0
 29 30  2  0
 30 31  1  0
 31 32  2  0
 32 33  1  0
 33 34  2  0
 34 35  1  0
 35 36  1  0
 36  6  2  0
 35  8  1  0
 27 10  1  0
 34 29  1  0
 21 16  1  0
  1 37  1  0
  1 38  1  0
  1 39  1  0
  2 40  1  0
  2 41  1  0
  7 42  1  0
 11 43  1  0
 11 44  1  0
 12 45  1  0
 12 46  1  0
 14 47  1  0
 14 48  1  0
 15 49  1  0
 15 50  1  0
 17 51  1  0
 18 52  1  0
 19 53  1  0
 20 54  1  0
 26 55  1  0
 26 56  1  0
 27 57  1  0
 27 58  1  0
 30 59  1  0
 31 60  1  0
 32 61  1  0
 33 62  1  0
 36 63  1  0
M  END
$$$$
