
     RDKit          3D

 32 33  0  0  0  0  0  0  0  0999 V2000
    4.0166   -1.6836    0.0599 C   0  0  0  0  0  0  0  0  0  0  0  0
    4.2732   -0.3284   -0.5769 C   0  0  0  0  0  0  0  0  0  0  0  0
    3.1436    0.9427    0.0664 S   0  0  0  0  0  0  0  0  0  0  0  0
    1.6304    0.5034   -0.6599 C   0  0  0  0  0  0  0  0  0  0  0  0
    1.3218    0.0266   -1.9107 C   0  0  0  0  0  0  0  0  0  0  0  0
   -0.0258   -0.1622   -2.0433 N   0  0  0  0  0  0  0  0  0  0  0  0
   -0.5614    0.1926   -0.8889 C   0  0  0  0  0  0  0  0  0  0  0  0
   -1.9952    0.1763   -0.6072 C   0  0  0  0  0  0  0  0  0  0  0  0
   -2.5449   -0.7428    0.2939 C   0  0  0  0  0  0  0  0  0  0  0  0
   -3.9173   -0.7401    0.5548 C   0  0  0  0  0  0  0  0  0  0  0  0
   -4.7490    0.1738   -0.0920 C   0  0  0  0  0  0  0  0  0  0  0  0
   -4.2126    1.0788   -1.0060 C   0  0  0  0  0  0  0  0  0  0  0  0
   -2.8407    1.0770   -1.2665 C   0  0  0  0  0  0  0  0  0  0  0  0
    0.4220    0.6273   -0.0127 N   0  0  0  0  0  0  0  0  0  0  0  0
    0.1919    1.1865    1.3089 C   0  0  0  0  0  0  0  0  0  0  0  0
    0.4122    0.1805    2.4273 C   0  0  0  0  0  0  0  0  0  0  0  0
    4.7466   -2.4112   -0.3106 H   0  0  0  0  0  0  0  0  0  0  0  0
    4.1175   -1.6400    1.1502 H   0  0  0  0  0  0  0  0  0  0  0  0
    3.0200   -2.0660   -0.1817 H   0  0  0  0  0  0  0  0  0  0  0  0
    5.2944   -0.0096   -0.3433 H   0  0  0  0  0  0  0  0  0  0  0  0
    4.1962   -0.3880   -1.6669 H   0  0  0  0  0  0  0  0  0  0  0  0
    1.9930   -0.1818   -2.7324 H   0  0  0  0  0  0  0  0  0  0  0  0
   -1.9117   -1.4794    0.7813 H   0  0  0  0  0  0  0  0  0  0  0  0
   -4.3389   -1.4591    1.2521 H   0  0  0  0  0  0  0  0  0  0  0  0
   -5.8179    0.1714    0.1054 H   0  0  0  0  0  0  0  0  0  0  0  0
   -4.8614    1.7803   -1.5239 H   0  0  0  0  0  0  0  0  0  0  0  0
   -2.4294    1.7766   -1.9917 H   0  0  0  0  0  0  0  0  0  0  0  0
   -0.8297    1.5776    1.3492 H   0  0  0  0  0  0  0  0  0  0  0  0
    0.8520    2.0517    1.4317 H   0  0  0  0  0  0  0  0  0  0  0  0
    1.4406   -0.1931    2.4369 H   0  0  0  0  0  0  0  0  0  0  0  0
   -0.2497   -0.6840    2.3245 H   0  0  0  0  0  0  0  0  0  0  0  0
    0.2135    0.6461    3.3982 H   0  0  0  0  0  0  0  0  0  0  0  0
  1  2  1  0
  2  3  1  0
  3  4  1  0
  4  5  2  0
  5  6  1  0
  6  7  2  0
  7  8  1  0
  8  9  2  0
  9 10  1  0
 10 11  2  0
 11 12  1  0
 12 13  2  0
  7 14  1  0
 14 15  1  0
 15 16  1  0
 14  4  1  0
 13  8  1  0
  1 17  1  0
  1 18  1  0
  1 19  1  0
  2 20  1  0
  2 21  1  0
  5 22  1  0
  9 23  1  0
 10 24  1  0
 11 25  1  0
 12 26  1  0
 13 27  1  0
 15 28  1  0
 15 29  1  0
 16 30  1  0
 16 31  1  0
 16 32  1  0
M  END
$$$$
