
     RDKit          3D

 40 42  0  0  0  0  0  0  0  0999 V2000
   -2.2032   -1.0963   -2.5129 O   0  0  0  0  0  0  0  0  0  0  0  0
   -1.8958   -0.6099   -1.4309 C   0  0  0  0  0  0  0  0  0  0  0  0
   -2.7602   -0.2266   -0.4242 N   0  0  0  0  0  0  0  0  0  0  0  0
   -4.1800   -0.2353   -0.4261 C   0  0  0  0  0  0  0  0  0  0  0  0
   -4.9209   -0.6331   -1.5452 C   0  0  0  0  0  0  0  0  0  0  0  0
   -6.3195   -0.6306   -1.5230 C   0  0  0  0  0  0  0  0  0  0  0  0
   -7.0034   -0.2263   -0.3818 C   0  0  0  0  0  0  0  0  0  0  0  0
   -6.2889    0.1808    0.7417 C   0  0  0  0  0  0  0  0  0  0  0  0
   -4.8822    0.1825    0.7307 C   0  0  0  0  0  0  0  0  0  0  0  0
   -4.1408    0.6388    1.9387 C   0  0  0  0  0  0  0  0  0  0  0  0
   -2.9269    0.7035    2.0426 O   0  0  0  0  0  0  0  0  0  0  0  0
   -4.9400    1.0018    2.9567 O   0  0  0  0  0  0  0  0  0  0  0  0
   -0.4443   -0.4307   -1.1265 C   0  0  0  0  0  0  0  0  0  0  0  0
    0.0284    0.5913   -0.2958 C   0  0  0  0  0  0  0  0  0  0  0  0
    1.4015    0.7214   -0.0453 C   0  0  0  0  0  0  0  0  0  0  0  0
    2.3179   -0.1580   -0.6255 C   0  0  0  0  0  0  0  0  0  0  0  0
    3.7088   -0.0945   -0.4238 N   0  0  0  0  0  0  0  0  0  0  0  0
    4.4252    0.8018    0.3498 C   0  0  0  0  0  0  0  0  0  0  0  0
    3.9457    1.7179    1.0106 O   0  0  0  0  0  0  0  0  0  0  0  0
    5.8561    0.5534    0.3083 C   0  0  0  0  0  0  0  0  0  0  0  0
    6.9104    1.2077    0.9170 C   0  0  0  0  0  0  0  0  0  0  0  0
    8.0921    0.5366    0.5186 C   0  0  0  0  0  0  0  0  0  0  0  0
    7.6911   -0.4906   -0.3040 C   0  0  0  0  0  0  0  0  0  0  0  0
    8.8505   -1.7324   -1.1584 Br  0  0  0  0  0  0  0  0  0  0  0  0
    6.3379   -0.4921   -0.4385 O   0  0  0  0  0  0  0  0  0  0  0  0
    1.8424   -1.1691   -1.4692 C   0  0  0  0  0  0  0  0  0  0  0  0
    0.4731   -1.3027   -1.7227 C   0  0  0  0  0  0  0  0  0  0  0  0
   -2.3407    0.0617    0.4612 H   0  0  0  0  0  0  0  0  0  0  0  0
   -4.4384   -0.9532   -2.4630 H   0  0  0  0  0  0  0  0  0  0  0  0
   -6.8708   -0.9408   -2.4080 H   0  0  0  0  0  0  0  0  0  0  0  0
   -8.0906   -0.2223   -0.3692 H   0  0  0  0  0  0  0  0  0  0  0  0
   -6.8403    0.5022    1.6222 H   0  0  0  0  0  0  0  0  0  0  0  0
   -4.3259    1.2938    3.6627 H   0  0  0  0  0  0  0  0  0  0  0  0
   -0.6460    1.3168    0.1526 H   0  0  0  0  0  0  0  0  0  0  0  0
    1.7193    1.5302    0.6057 H   0  0  0  0  0  0  0  0  0  0  0  0
    4.2760   -0.7838   -0.9061 H   0  0  0  0  0  0  0  0  0  0  0  0
    6.8225    2.0711    1.5643 H   0  0  0  0  0  0  0  0  0  0  0  0
    9.1090    0.7753    0.7975 H   0  0  0  0  0  0  0  0  0  0  0  0
    2.5271   -1.8678   -1.9444 H   0  0  0  0  0  0  0  0  0  0  0  0
    0.1239   -2.0926   -2.3858 H   0  0  0  0  0  0  0  0  0  0  0  0
  1  2  2  0
  2  3  1  0
  3  4  1  0
  4  5  2  0
  5  6  1  0
  6  7  2  0
  7  8  1  0
  8  9  2  0
  9 10  1  0
 10 11  2  0
 10 12  1  0
  2 13  1  0
 13 14  2  0
 14 15  1  0
 15 16  2  0
 16 17  1  0
 17 18  1  0
 18 19  2  0
 18 20  1  0
 20 21  2  0
 21 22  1  0
 22 23  2  0
 23 24  1  0
 23 25  1  0
 16 26  1  0
 26 27  2  0
  9  4  1  0
 27 13  1  0
 25 20  1  0
  3 28  1  0
  5 29  1  0
  6 30  1  0
  7 31  1  0
  8 32  1  0
 12 33  1  0
 14 34  1  0
 15 35  1  0
 17 36  1  0
 21 37  1  0
 22 38  1  0
 26 39  1  0
 27 40  1  0
M  END
$$$$
