
     RDKit          3D

 26 27  0  0  0  0  0  0  0  0999 V2000
   -2.5928   -1.8236   -1.7701 C   0  0  0  0  0  0  0  0  0  0  0  0
   -2.2316   -1.8304   -0.3873 O   0  0  0  0  0  0  0  0  0  0  0  0
   -0.9926   -1.2778   -0.2038 C   0  0  0  0  0  0  0  0  0  0  0  0
    0.1181   -2.0980   -0.4154 C   0  0  0  0  0  0  0  0  0  0  0  0
    1.3948   -1.6196   -0.1405 C   0  0  0  0  0  0  0  0  0  0  0  0
    1.5610   -0.3209    0.3461 C   0  0  0  0  0  0  0  0  0  0  0  0
    2.8256    0.0648    0.7017 O   0  0  0  0  0  0  0  0  0  0  0  0
    3.5706    0.4862   -0.4428 C   0  0  0  0  0  0  0  0  0  0  0  0
    0.4478    0.5013    0.5870 C   0  0  0  0  0  0  0  0  0  0  0  0
   -0.8364    0.0200    0.3104 C   0  0  0  0  0  0  0  0  0  0  0  0
   -2.0037    0.8964    0.5618 C   0  0  0  0  0  0  0  0  0  0  0  0
   -3.0725    0.7223   -0.0096 O   0  0  0  0  0  0  0  0  0  0  0  0
   -1.8101    2.0151    1.5192 C   0  0  0  0  0  0  0  0  0  0  0  0
   -3.2478    2.6950    2.1995 Cl  0  0  0  0  0  0  0  0  0  0  0  0
   -0.5837    2.4747    1.7833 C   0  0  0  0  0  0  0  0  0  0  0  0
   -0.2748    3.8091    2.8397 Cl  0  0  0  0  0  0  0  0  0  0  0  0
    0.6029    1.8732    1.1231 C   0  0  0  0  0  0  0  0  0  0  0  0
    1.6525    2.4930    1.0079 O   0  0  0  0  0  0  0  0  0  0  0  0
   -3.6542   -2.0793   -1.8406 H   0  0  0  0  0  0  0  0  0  0  0  0
   -2.0232   -2.5798   -2.3203 H   0  0  0  0  0  0  0  0  0  0  0  0
   -2.4483   -0.8369   -2.2244 H   0  0  0  0  0  0  0  0  0  0  0  0
   -0.0143   -3.1204   -0.7619 H   0  0  0  0  0  0  0  0  0  0  0  0
    2.2569   -2.2692   -0.2728 H   0  0  0  0  0  0  0  0  0  0  0  0
    3.0133    1.2099   -1.0483 H   0  0  0  0  0  0  0  0  0  0  0  0
    4.4849    0.9708   -0.0879 H   0  0  0  0  0  0  0  0  0  0  0  0
    3.8575   -0.3760   -1.0540 H   0  0  0  0  0  0  0  0  0  0  0  0
  1  2  1  0
  2  3  1  0
  3  4  2  0
  4  5  1  0
  5  6  2  0
  6  7  1  0
  7  8  1  0
  6  9  1  0
  9 10  2  0
 10 11  1  0
 11 12  2  0
 11 13  1  0
 13 14  1  0
 13 15  2  0
 15 16  1  0
 15 17  1  0
 17 18  2  0
 10  3  1  0
 17  9  1  0
  1 19  1  0
  1 20  1  0
  1 21  1  0
  4 22  1  0
  5 23  1  0
  8 24  1  0
  8 25  1  0
  8 26  1  0
M  END
$$$$
