
     RDKit          3D

 61 64  0  0  0  0  0  0  0  0999 V2000
    7.6171    3.5891   -0.2111 C   0  0  0  0  0  0  0  0  0  0  0  0
    6.7659    3.1102    0.8314 O   0  0  0  0  0  0  0  0  0  0  0  0
    5.8525    2.2211    0.3179 C   0  0  0  0  0  0  0  0  0  0  0  0
    4.5672    2.6958    0.0567 C   0  0  0  0  0  0  0  0  0  0  0  0
    3.6019    1.8289   -0.4530 C   0  0  0  0  0  0  0  0  0  0  0  0
    3.9063    0.4807   -0.6804 C   0  0  0  0  0  0  0  0  0  0  0  0
    2.8712   -0.3232   -1.1988 N   0  0  0  0  0  0  0  0  0  0  0  0
    2.8764   -1.6893   -1.4182 C   0  0  0  0  0  0  0  0  0  0  0  0
    3.8117   -2.4561   -1.1907 O   0  0  0  0  0  0  0  0  0  0  0  0
    1.5812   -2.2127   -2.0269 C   0  0  0  0  0  0  0  0  0  0  0  0
    0.2667   -2.3557   -0.7756 S   0  0  0  0  0  0  0  0  0  0  0  0
   -0.4800   -0.7962   -0.9020 C   0  0  0  0  0  0  0  0  0  0  0  0
    0.1427    0.2786   -1.3339 N   0  0  0  0  0  0  0  0  0  0  0  0
   -0.7683    1.2920   -1.3972 N   0  0  0  0  0  0  0  0  0  0  0  0
   -1.9429    0.8245   -1.0026 C   0  0  0  0  0  0  0  0  0  0  0  0
   -3.1637    1.6671   -0.7748 C   0  0  0  0  0  0  0  0  0  0  0  0
   -3.6109    1.6964    0.6621 C   0  0  0  0  0  0  0  0  0  0  0  0
   -2.8508    1.7742    1.8224 C   0  0  0  0  0  0  0  0  0  0  0  0
   -3.7307    1.7446    2.9280 C   0  0  0  0  0  0  0  0  0  0  0  0
   -5.0095    1.6749    2.4253 C   0  0  0  0  0  0  0  0  0  0  0  0
   -4.9351    1.6608    1.0515 N   0  0  0  0  0  0  0  0  0  0  0  0
   -6.0877    1.6292    0.1726 C   0  0  0  0  0  0  0  0  0  0  0  0
   -1.8271   -0.5304   -0.7075 N   0  0  0  0  0  0  0  0  0  0  0  0
   -2.8622   -1.4277   -0.3365 C   0  0  0  0  0  0  0  0  0  0  0  0
   -4.0422   -1.4813   -1.0926 C   0  0  0  0  0  0  0  0  0  0  0  0
   -5.0598   -2.3723   -0.7337 C   0  0  0  0  0  0  0  0  0  0  0  0
   -4.9086   -3.2128    0.3785 C   0  0  0  0  0  0  0  0  0  0  0  0
   -6.0205   -4.1387    0.7773 C   0  0  0  0  0  0  0  0  0  0  0  0
   -3.7284   -3.1424    1.1362 C   0  0  0  0  0  0  0  0  0  0  0  0
   -2.7031   -2.2610    0.7769 C   0  0  0  0  0  0  0  0  0  0  0  0
    5.1946    0.0097   -0.3924 C   0  0  0  0  0  0  0  0  0  0  0  0
    6.1764    0.8706    0.1152 C   0  0  0  0  0  0  0  0  0  0  0  0
    7.4575    0.4970    0.4448 O   0  0  0  0  0  0  0  0  0  0  0  0
    7.8451   -0.8317    0.1143 C   0  0  0  0  0  0  0  0  0  0  0  0
    8.4142    4.1845    0.2464 H   0  0  0  0  0  0  0  0  0  0  0  0
    8.0892    2.7747   -0.7754 H   0  0  0  0  0  0  0  0  0  0  0  0
    7.0522    4.2363   -0.8963 H   0  0  0  0  0  0  0  0  0  0  0  0
    4.3211    3.7369    0.2457 H   0  0  0  0  0  0  0  0  0  0  0  0
    2.6063    2.2188   -0.6609 H   0  0  0  0  0  0  0  0  0  0  0  0
    1.9751    0.1524   -1.3419 H   0  0  0  0  0  0  0  0  0  0  0  0
    1.7766   -3.2142   -2.4252 H   0  0  0  0  0  0  0  0  0  0  0  0
    1.2795   -1.5921   -2.8772 H   0  0  0  0  0  0  0  0  0  0  0  0
   -3.9616    1.3389   -1.4481 H   0  0  0  0  0  0  0  0  0  0  0  0
   -2.9357    2.7021   -1.0666 H   0  0  0  0  0  0  0  0  0  0  0  0
   -1.7678    1.8334    1.8654 H   0  0  0  0  0  0  0  0  0  0  0  0
   -3.4600    1.7757    3.9784 H   0  0  0  0  0  0  0  0  0  0  0  0
   -5.9624    1.6368    2.9383 H   0  0  0  0  0  0  0  0  0  0  0  0
   -6.0996    0.6686   -0.3520 H   0  0  0  0  0  0  0  0  0  0  0  0
   -7.0016    1.7459    0.7609 H   0  0  0  0  0  0  0  0  0  0  0  0
   -6.0081    2.4559   -0.5389 H   0  0  0  0  0  0  0  0  0  0  0  0
   -4.1769   -0.8760   -1.9877 H   0  0  0  0  0  0  0  0  0  0  0  0
   -5.9705   -2.4162   -1.3340 H   0  0  0  0  0  0  0  0  0  0  0  0
   -5.6672   -4.9178    1.4599 H   0  0  0  0  0  0  0  0  0  0  0  0
   -6.8142   -3.5752    1.2762 H   0  0  0  0  0  0  0  0  0  0  0  0
   -6.4365   -4.6422   -0.1020 H   0  0  0  0  0  0  0  0  0  0  0  0
   -3.5988   -3.7704    2.0188 H   0  0  0  0  0  0  0  0  0  0  0  0
   -1.8178   -2.2108    1.4074 H   0  0  0  0  0  0  0  0  0  0  0  0
    5.4294   -1.0334   -0.5573 H   0  0  0  0  0  0  0  0  0  0  0  0
    8.8991   -0.9455    0.3870 H   0  0  0  0  0  0  0  0  0  0  0  0
    7.2740   -1.5675    0.6932 H   0  0  0  0  0  0  0  0  0  0  0  0
    7.7595   -1.0137   -0.9611 H   0  0  0  0  0  0  0  0  0  0  0  0
  1  2  1  0
  2  3  1  0
  3  4  2  0
  4  5  1  0
  5  6  2  0
  6  7  1  0
  7  8  1  0
  8  9  2  0
  8 10  1  0
 10 11  1  0
 11 12  1  0
 12 13  2  0
 13 14  1  0
 14 15  2  0
 15 16  1  0
 16 17  1  0
 17 18  2  0
 18 19  1  0
 19 20  2  0
 20 21  1  0
 21 22  1  0
 15 23  1  0
 23 24  1  0
 24 25  2  0
 25 26  1  0
 26 27  2  0
 27 28  1  0
 27 29  1  0
 29 30  2  0
  6 31  1  0
 31 32  2  0
 32 33  1  0
 33 34  1  0
 32  3  1  0
 23 12  1  0
 30 24  1  0
 21 17  1  0
  1 35  1  0
  1 36  1  0
  1 37  1  0
  4 38  1  0
  5 39  1  0
  7 40  1  0
 10 41  1  0
 10 42  1  0
 16 43  1  0
 16 44  1  0
 18 45  1  0
 19 46  1  0
 20 47  1  0
 22 48  1  0
 22 49  1  0
 22 50  1  0
 25 51  1  0
 26 52  1  0
 28 53  1  0
 28 54  1  0
 28 55  1  0
 29 56  1  0
 30 57  1  0
 31 58  1  0
 34 59  1  0
 34 60  1  0
 34 61  1  0
M  END
$$$$
