
     RDKit          3D

 59 62  0  0  0  0  0  0  0  0999 V2000
   -9.3185    2.3333    0.4371 C   0  0  0  0  0  0  0  0  0  0  0  0
   -8.1227    1.4410    0.2722 C   0  0  0  0  0  0  0  0  0  0  0  0
   -7.1995    1.3108    1.3203 C   0  0  0  0  0  0  0  0  0  0  0  0
   -6.0868    0.4766    1.1825 C   0  0  0  0  0  0  0  0  0  0  0  0
   -5.8821   -0.2178   -0.0168 C   0  0  0  0  0  0  0  0  0  0  0  0
   -4.7372   -1.1455   -0.1796 C   0  0  0  0  0  0  0  0  0  0  0  0
   -4.9646   -2.2773   -0.6070 O   0  0  0  0  0  0  0  0  0  0  0  0
   -3.4603   -0.7128    0.1578 N   0  0  0  0  0  0  0  0  0  0  0  0
   -3.0494    0.6953    0.2507 C   0  0  0  0  0  0  0  0  0  0  0  0
   -1.6475    0.9414   -0.3442 C   0  0  0  0  0  0  0  0  0  0  0  0
   -0.6337    0.0887    0.2996 N   0  0  0  0  0  0  0  0  0  0  0  0
    0.7212    0.3253    0.1136 C   0  0  0  0  0  0  0  0  0  0  0  0
    1.2090    1.1492   -0.9150 C   0  0  0  0  0  0  0  0  0  0  0  0
    2.5807    1.3879   -1.0943 C   0  0  0  0  0  0  0  0  0  0  0  0
    3.5157    0.8176   -0.2351 C   0  0  0  0  0  0  0  0  0  0  0  0
    4.9077    1.0059   -0.3416 N   0  0  0  0  0  0  0  0  0  0  0  0
    5.5950    1.6946   -1.3309 C   0  0  0  0  0  0  0  0  0  0  0  0
    5.0968    2.2890   -2.2855 O   0  0  0  0  0  0  0  0  0  0  0  0
    7.1054    1.6645   -1.1352 C   0  0  0  0  0  0  0  0  0  0  0  0
    7.8474    0.2201   -1.9676 S   0  0  0  0  0  0  0  0  0  0  0  0
    7.3035   -1.0836   -0.8885 C   0  0  0  0  0  0  0  0  0  0  0  0
    7.8610   -1.2363    0.3847 C   0  0  0  0  0  0  0  0  0  0  0  0
    7.4049   -2.2487    1.2361 C   0  0  0  0  0  0  0  0  0  0  0  0
    6.3971   -3.1103    0.8097 C   0  0  0  0  0  0  0  0  0  0  0  0
    5.8348   -4.3534    1.8619 Cl  0  0  0  0  0  0  0  0  0  0  0  0
    5.8430   -2.9711   -0.4620 C   0  0  0  0  0  0  0  0  0  0  0  0
    6.3019   -1.9629   -1.3124 C   0  0  0  0  0  0  0  0  0  0  0  0
    3.0560   -0.0036    0.7982 C   0  0  0  0  0  0  0  0  0  0  0  0
    1.6835   -0.2403    0.9654 C   0  0  0  0  0  0  0  0  0  0  0  0
   -1.0887   -1.2300    0.7911 C   0  0  0  0  0  0  0  0  0  0  0  0
   -2.3708   -1.6890    0.0777 C   0  0  0  0  0  0  0  0  0  0  0  0
   -6.8059   -0.1050   -1.0617 C   0  0  0  0  0  0  0  0  0  0  0  0
   -7.9156    0.7303   -0.9205 C   0  0  0  0  0  0  0  0  0  0  0  0
   -9.0036    3.3816    0.5031 H   0  0  0  0  0  0  0  0  0  0  0  0
  -10.0066    2.2392   -0.4107 H   0  0  0  0  0  0  0  0  0  0  0  0
   -9.8698    2.0652    1.3445 H   0  0  0  0  0  0  0  0  0  0  0  0
   -7.3565    1.8439    2.2570 H   0  0  0  0  0  0  0  0  0  0  0  0
   -5.3999    0.3566    2.0115 H   0  0  0  0  0  0  0  0  0  0  0  0
   -3.0456    0.9502    1.3153 H   0  0  0  0  0  0  0  0  0  0  0  0
   -3.7715    1.3406   -0.2575 H   0  0  0  0  0  0  0  0  0  0  0  0
   -1.3984    1.9997   -0.2016 H   0  0  0  0  0  0  0  0  0  0  0  0
   -1.6713    0.7353   -1.4203 H   0  0  0  0  0  0  0  0  0  0  0  0
    0.5325    1.6157   -1.6225 H   0  0  0  0  0  0  0  0  0  0  0  0
    2.8759    2.0254   -1.9231 H   0  0  0  0  0  0  0  0  0  0  0  0
    5.4657    0.5181    0.3478 H   0  0  0  0  0  0  0  0  0  0  0  0
    7.5248    2.5722   -1.5856 H   0  0  0  0  0  0  0  0  0  0  0  0
    7.3614    1.6900   -0.0726 H   0  0  0  0  0  0  0  0  0  0  0  0
    8.6603   -0.5800    0.7215 H   0  0  0  0  0  0  0  0  0  0  0  0
    7.8464   -2.3665    2.2222 H   0  0  0  0  0  0  0  0  0  0  0  0
    5.0599   -3.6438   -0.8007 H   0  0  0  0  0  0  0  0  0  0  0  0
    5.8644   -1.8630   -2.3057 H   0  0  0  0  0  0  0  0  0  0  0  0
    3.7474   -0.4791    1.4887 H   0  0  0  0  0  0  0  0  0  0  0  0
    1.3761   -0.8659    1.8017 H   0  0  0  0  0  0  0  0  0  0  0  0
   -0.3293   -2.0080    0.6356 H   0  0  0  0  0  0  0  0  0  0  0  0
   -1.2770   -1.1481    1.8706 H   0  0  0  0  0  0  0  0  0  0  0  0
   -2.1657   -1.8503   -0.9860 H   0  0  0  0  0  0  0  0  0  0  0  0
   -2.7111   -2.6421    0.4949 H   0  0  0  0  0  0  0  0  0  0  0  0
   -6.6642   -0.6767   -1.9814 H   0  0  0  0  0  0  0  0  0  0  0  0
   -8.6261    0.8060   -1.7429 H   0  0  0  0  0  0  0  0  0  0  0  0
  1  2  1  0
  2  3  2  0
  3  4  1  0
  4  5  2  0
  5  6  1  0
  6  7  2  0
  6  8  1  0
  8  9  1  0
  9 10  1  0
 10 11  1  0
 11 12  1  0
 12 13  2  0
 13 14  1  0
 14 15  2  0
 15 16  1  0
 16 17  1  0
 17 18  2  0
 17 19  1  0
 19 20  1  0
 20 21  1  0
 21 22  2  0
 22 23  1  0
 23 24  2  0
 24 25  1  0
 24 26  1  0
 26 27  2  0
 15 28  1  0
 28 29  2  0
 11 30  1  0
 30 31  1  0
  5 32  1  0
 32 33  2  0
 33  2  1  0
 31  8  1  0
 29 12  1  0
 27 21  1  0
  1 34  1  0
  1 35  1  0
  1 36  1  0
  3 37  1  0
  4 38  1  0
  9 39  1  0
  9 40  1  0
 10 41  1  0
 10 42  1  0
 13 43  1  0
 14 44  1  0
 16 45  1  0
 19 46  1  0
 19 47  1  0
 22 48  1  0
 23 49  1  0
 26 50  1  0
 27 51  1  0
 28 52  1  0
 29 53  1  0
 30 54  1  0
 30 55  1  0
 31 56  1  0
 31 57  1  0
 32 58  1  0
 33 59  1  0
M  END
$$$$
