
     RDKit          3D

 37 39  0  0  0  0  0  0  0  0999 V2000
   -0.3576   -1.5647    1.8768 C   0  0  0  0  0  0  0  0  0  0  0  0
   -0.8276   -0.6247    0.8800 N   0  0  0  0  0  0  0  0  0  0  0  0
   -0.1008    0.0467   -0.1125 C   0  0  0  0  0  0  0  0  0  0  0  0
    1.2268    0.1840   -0.3079 C   0  0  0  0  0  0  0  0  0  0  0  0
    2.3083   -0.2738    0.5403 C   0  0  0  0  0  0  0  0  0  0  0  0
    3.6151   -0.2569    0.2440 C   0  0  0  0  0  0  0  0  0  0  0  0
    4.3817    0.2677   -1.2115 S   0  0  0  0  0  0  0  0  0  0  0  0
    5.9784   -0.1088   -0.6058 C   0  0  0  0  0  0  0  0  0  0  0  0
    7.4106    0.0983   -1.4091 S   0  0  0  0  0  0  0  0  0  0  0  0
    5.8857   -0.6116    0.6553 N   0  0  0  0  0  0  0  0  0  0  0  0
    4.6425   -0.7375    1.2085 C   0  0  0  0  0  0  0  0  0  0  0  0
    4.4199   -1.1817    2.3230 O   0  0  0  0  0  0  0  0  0  0  0  0
   -1.1249    0.7361   -1.0802 C   0  0  0  0  0  0  0  0  0  0  0  0
   -0.9172    2.2565   -1.1594 C   0  0  0  0  0  0  0  0  0  0  0  0
   -1.0891    0.1021   -2.4780 C   0  0  0  0  0  0  0  0  0  0  0  0
   -2.4446    0.4230   -0.3945 C   0  0  0  0  0  0  0  0  0  0  0  0
   -3.7305    0.8084   -0.7550 C   0  0  0  0  0  0  0  0  0  0  0  0
   -4.7932    0.3976    0.0474 C   0  0  0  0  0  0  0  0  0  0  0  0
   -4.5590   -0.3818    1.1879 C   0  0  0  0  0  0  0  0  0  0  0  0
   -3.2589   -0.7659    1.5386 C   0  0  0  0  0  0  0  0  0  0  0  0
   -2.1978   -0.3684    0.7403 C   0  0  0  0  0  0  0  0  0  0  0  0
   -0.0046   -1.0329    2.7661 H   0  0  0  0  0  0  0  0  0  0  0  0
    0.4563   -2.1814    1.4817 H   0  0  0  0  0  0  0  0  0  0  0  0
   -1.1271   -2.2780    2.1895 H   0  0  0  0  0  0  0  0  0  0  0  0
    1.5402    0.7411   -1.1895 H   0  0  0  0  0  0  0  0  0  0  0  0
    2.0307   -0.6302    1.5275 H   0  0  0  0  0  0  0  0  0  0  0  0
    6.7021   -0.8938    1.1760 H   0  0  0  0  0  0  0  0  0  0  0  0
    0.0367    2.5102   -1.6346 H   0  0  0  0  0  0  0  0  0  0  0  0
   -0.9258    2.7160   -0.1635 H   0  0  0  0  0  0  0  0  0  0  0  0
   -1.7077    2.7380   -1.7470 H   0  0  0  0  0  0  0  0  0  0  0  0
   -0.1308    0.2856   -2.9766 H   0  0  0  0  0  0  0  0  0  0  0  0
   -1.8764    0.5114   -3.1219 H   0  0  0  0  0  0  0  0  0  0  0  0
   -1.2372   -0.9837   -2.4330 H   0  0  0  0  0  0  0  0  0  0  0  0
   -3.9093    1.4149   -1.6365 H   0  0  0  0  0  0  0  0  0  0  0  0
   -5.8095    0.6859   -0.2095 H   0  0  0  0  0  0  0  0  0  0  0  0
   -5.3964   -0.6898    1.8094 H   0  0  0  0  0  0  0  0  0  0  0  0
   -3.1087   -1.3577    2.4337 H   0  0  0  0  0  0  0  0  0  0  0  0
  1  2  1  0
  2  3  1  0
  3  4  2  3
  4  5  1  0
  5  6  2  3
  6  7  1  0
  7  8  1  0
  8  9  2  0
  8 10  1  0
 10 11  1  0
 11 12  2  0
  3 13  1  0
 13 14  1  0
 13 15  1  0
 13 16  1  0
 16 17  2  0
 17 18  1  0
 18 19  2  0
 19 20  1  0
 20 21  2  0
 21  2  1  0
 11  6  1  0
 21 16  1  0
  1 22  1  0
  1 23  1  0
  1 24  1  0
  4 25  1  0
  5 26  1  0
 10 27  1  0
 14 28  1  0
 14 29  1  0
 14 30  1  0
 15 31  1  0
 15 32  1  0
 15 33  1  0
 17 34  1  0
 18 35  1  0
 19 36  1  0
 20 37  1  0
M  END
$$$$
