
     RDKit          3D

 59 62  0  0  0  0  0  0  0  0999 V2000
    8.6299    0.2810   -1.2055 C   0  0  0  0  0  0  0  0  0  0  0  0
    7.2875    0.1922   -0.5426 C   0  0  0  0  0  0  0  0  0  0  0  0
    7.1815   -0.1532    0.8083 C   0  0  0  0  0  0  0  0  0  0  0  0
    5.9317   -0.2069    1.4394 C   0  0  0  0  0  0  0  0  0  0  0  0
    4.7651    0.0854    0.7253 C   0  0  0  0  0  0  0  0  0  0  0  0
    3.4670    0.0486    1.3238 N   0  0  0  0  0  0  0  0  0  0  0  0
    2.4471    0.7040    0.7018 N   0  0  0  0  0  0  0  0  0  0  0  0
    1.4301    0.6618    1.5631 C   0  0  0  0  0  0  0  0  0  0  0  0
    0.1210    1.2703    1.3805 C   0  0  0  0  0  0  0  0  0  0  0  0
   -0.2015    1.9389    0.3977 O   0  0  0  0  0  0  0  0  0  0  0  0
   -0.7623    0.9931    2.4408 N   0  0  0  0  0  0  0  0  0  0  0  0
   -2.1145    1.5308    2.3763 C   0  0  0  0  0  0  0  0  0  0  0  0
   -2.9650    0.6893    1.4259 C   0  0  0  0  0  0  0  0  0  0  0  0
   -3.6615   -0.2480    1.8082 O   0  0  0  0  0  0  0  0  0  0  0  0
   -2.8489    1.0507    0.0952 N   0  0  0  0  0  0  0  0  0  0  0  0
   -3.4609    0.2644   -0.9593 C   0  0  0  0  0  0  0  0  0  0  0  0
   -4.9741    0.4804   -1.0521 C   0  0  0  0  0  0  0  0  0  0  0  0
   -5.5763   -0.2986   -2.2016 C   0  0  0  0  0  0  0  0  0  0  0  0
   -5.9568   -1.6337   -1.9719 C   0  0  0  0  0  0  0  0  0  0  0  0
   -6.4941   -2.4118   -2.9959 C   0  0  0  0  0  0  0  0  0  0  0  0
   -6.6541   -1.8683   -4.2668 C   0  0  0  0  0  0  0  0  0  0  0  0
   -6.2777   -0.5469   -4.5127 C   0  0  0  0  0  0  0  0  0  0  0  0
   -5.7340    0.2506   -3.4918 C   0  0  0  0  0  0  0  0  0  0  0  0
   -5.3571    1.6735   -3.8027 C   0  0  0  0  0  0  0  0  0  0  0  0
   -0.4389    0.2568    3.5856 N   0  0  0  0  0  0  0  0  0  0  0  0
    0.7438   -0.2718    3.7351 C   0  0  0  0  0  0  0  0  0  0  0  0
    1.0245   -1.0480    4.9904 C   0  0  0  0  0  0  0  0  0  0  0  0
    1.7336   -0.0955    2.6992 C   0  0  0  0  0  0  0  0  0  0  0  0
    3.0195   -0.5701    2.4988 C   0  0  0  0  0  0  0  0  0  0  0  0
    3.7936   -1.5753    3.2732 C   0  0  0  0  0  0  0  0  0  0  0  0
    4.8792    0.4735   -0.6201 C   0  0  0  0  0  0  0  0  0  0  0  0
    6.1279    0.5229   -1.2473 C   0  0  0  0  0  0  0  0  0  0  0  0
    9.0262    1.2972   -1.1147 H   0  0  0  0  0  0  0  0  0  0  0  0
    9.3390   -0.4166   -0.7486 H   0  0  0  0  0  0  0  0  0  0  0  0
    8.5581    0.0211   -2.2670 H   0  0  0  0  0  0  0  0  0  0  0  0
    8.0775   -0.3731    1.3861 H   0  0  0  0  0  0  0  0  0  0  0  0
    5.9251   -0.4326    2.4985 H   0  0  0  0  0  0  0  0  0  0  0  0
   -2.5721    1.5218    3.3714 H   0  0  0  0  0  0  0  0  0  0  0  0
   -2.0852    2.5690    2.0267 H   0  0  0  0  0  0  0  0  0  0  0  0
   -2.0351    1.6151   -0.1573 H   0  0  0  0  0  0  0  0  0  0  0  0
   -2.9725    0.5581   -1.8954 H   0  0  0  0  0  0  0  0  0  0  0  0
   -3.2258   -0.7927   -0.7826 H   0  0  0  0  0  0  0  0  0  0  0  0
   -5.1989    1.5492   -1.1504 H   0  0  0  0  0  0  0  0  0  0  0  0
   -5.4635    0.1774   -0.1172 H   0  0  0  0  0  0  0  0  0  0  0  0
   -5.8325   -2.0748   -0.9830 H   0  0  0  0  0  0  0  0  0  0  0  0
   -6.7854   -3.4412   -2.8006 H   0  0  0  0  0  0  0  0  0  0  0  0
   -7.0724   -2.4719   -5.0678 H   0  0  0  0  0  0  0  0  0  0  0  0
   -6.4127   -0.1411   -5.5139 H   0  0  0  0  0  0  0  0  0  0  0  0
   -5.4802    1.8992   -4.8685 H   0  0  0  0  0  0  0  0  0  0  0  0
   -5.9989    2.3634   -3.2450 H   0  0  0  0  0  0  0  0  0  0  0  0
   -4.3093    1.8591   -3.5478 H   0  0  0  0  0  0  0  0  0  0  0  0
    1.0349   -2.1174    4.7635 H   0  0  0  0  0  0  0  0  0  0  0  0
    0.2473   -0.8579    5.7365 H   0  0  0  0  0  0  0  0  0  0  0  0
    1.9879   -0.7511    5.4123 H   0  0  0  0  0  0  0  0  0  0  0  0
    4.4411   -2.1786    2.6295 H   0  0  0  0  0  0  0  0  0  0  0  0
    4.3931   -1.0896    4.0490 H   0  0  0  0  0  0  0  0  0  0  0  0
    3.1271   -2.2881    3.7661 H   0  0  0  0  0  0  0  0  0  0  0  0
    3.9977    0.7332   -1.2047 H   0  0  0  0  0  0  0  0  0  0  0  0
    6.1842    0.8229   -2.2919 H   0  0  0  0  0  0  0  0  0  0  0  0
  1  2  1  0
  2  3  2  0
  3  4  1  0
  4  5  2  0
  5  6  1  0
  6  7  1  0
  7  8  2  0
  8  9  1  0
  9 10  2  0
  9 11  1  0
 11 12  1  0
 12 13  1  0
 13 14  2  0
 13 15  1  0
 15 16  1  0
 16 17  1  0
 17 18  1  0
 18 19  2  0
 19 20  1  0
 20 21  2  0
 21 22  1  0
 22 23  2  0
 23 24  1  0
 11 25  1  0
 25 26  2  0
 26 27  1  0
 26 28  1  0
 28 29  2  0
 29 30  1  0
  5 31  1  0
 31 32  2  0
 32  2  1  0
 29  6  1  0
 28  8  1  0
 23 18  1  0
  1 33  1  0
  1 34  1  0
  1 35  1  0
  3 36  1  0
  4 37  1  0
 12 38  1  0
 12 39  1  0
 15 40  1  0
 16 41  1  0
 16 42  1  0
 17 43  1  0
 17 44  1  0
 19 45  1  0
 20 46  1  0
 21 47  1  0
 22 48  1  0
 24 49  1  0
 24 50  1  0
 24 51  1  0
 27 52  1  0
 27 53  1  0
 27 54  1  0
 30 55  1  0
 30 56  1  0
 30 57  1  0
 31 58  1  0
 32 59  1  0
M  END
$$$$
