
     RDKit          3D

 22 22  0  0  0  0  0  0  0  0999 V2000
    2.5906    1.5517   -0.6672 N   0  0  0  0  0  0  0  0  0  0  0  0
    2.5691    0.2921   -0.9037 C   0  0  0  0  0  0  0  0  0  0  0  0
    2.8518   -0.2249   -2.1163 N   0  0  0  0  0  0  0  0  0  0  0  0
    2.2047   -0.8045    0.3819 S   0  0  0  0  0  0  0  0  0  0  0  0
    0.5899   -1.4027   -0.1808 C   0  0  0  0  0  0  0  0  0  0  0  0
   -0.5208   -0.6144    0.4454 C   0  0  0  0  0  0  0  0  0  0  0  0
   -1.2668   -1.0381    1.4802 C   0  0  0  0  0  0  0  0  0  0  0  0
   -2.3726   -0.1444    1.9465 C   0  0  0  0  0  0  0  0  0  0  0  0
   -2.3419    1.2174    0.7881 S   0  0  0  0  0  6  0  0  0  0  0  0
   -2.0388    2.4369    1.5128 O   0  0  0  0  0  0  0  0  0  0  0  0
   -3.5074    1.1172   -0.0711 O   0  0  0  0  0  0  0  0  0  0  0  0
   -0.8971    0.7185   -0.1458 C   0  0  0  0  0  0  0  0  0  0  0  0
    2.3778    1.6818    0.3291 H   0  0  0  0  0  0  0  0  0  0  0  0
    3.3204    0.4584   -2.7031 H   0  0  0  0  0  0  0  0  0  0  0  0
    3.3403   -1.1112   -2.0833 H   0  0  0  0  0  0  0  0  0  0  0  0
    0.5168   -2.4541    0.1201 H   0  0  0  0  0  0  0  0  0  0  0  0
    0.5046   -1.3911   -1.2724 H   0  0  0  0  0  0  0  0  0  0  0  0
   -1.0991   -1.9884    1.9763 H   0  0  0  0  0  0  0  0  0  0  0  0
   -2.1840    0.2333    2.9535 H   0  0  0  0  0  0  0  0  0  0  0  0
   -3.3437   -0.6400    1.8882 H   0  0  0  0  0  0  0  0  0  0  0  0
   -0.1208    1.4706    0.0016 H   0  0  0  0  0  0  0  0  0  0  0  0
   -1.1729    0.6358   -1.1995 H   0  0  0  0  0  0  0  0  0  0  0  0
  1  2  2  3
  2  3  1  0
  2  4  1  0
  4  5  1  0
  5  6  1  0
  6  7  2  0
  7  8  1  0
  8  9  1  0
  9 10  2  0
  9 11  2  0
  9 12  1  0
 12  6  1  0
  1 13  1  0
  3 14  1  0
  3 15  1  0
  5 16  1  0
  5 17  1  0
  7 18  1  0
  8 19  1  0
  8 20  1  0
 12 21  1  0
 12 22  1  0
M  END
$$$$
