
     RDKit          3D

 54 57  0  0  0  0  0  0  0  0999 V2000
    7.5866    2.7620    1.3655 C   0  0  0  0  0  0  0  0  0  0  0  0
    7.3532    1.7911    0.2975 N   0  0  0  0  0  0  0  0  0  0  0  0
    8.5366    1.0699   -0.1685 C   0  0  0  0  0  0  0  0  0  0  0  0
    6.0985    1.1779    0.2002 C   0  0  0  0  0  0  0  0  0  0  0  0
    5.8878    0.0220   -0.5757 C   0  0  0  0  0  0  0  0  0  0  0  0
    4.6296   -0.5871   -0.6903 C   0  0  0  0  0  0  0  0  0  0  0  0
    3.5328   -0.0425   -0.0312 C   0  0  0  0  0  0  0  0  0  0  0  0
    2.1930   -0.6575   -0.1293 C   0  0  0  0  0  0  0  0  0  0  0  0
    1.9880   -1.7294   -0.8276 N   0  0  0  0  0  0  0  0  0  0  0  0
    0.7110   -2.2240   -0.9119 N   0  0  0  0  0  0  0  0  0  0  0  0
   -0.4665   -1.4833   -0.9300 C   0  0  0  0  0  0  0  0  0  0  0  0
   -0.5601   -0.2754   -0.7354 O   0  0  0  0  0  0  0  0  0  0  0  0
   -1.6343   -2.3085   -1.2379 C   0  0  0  0  0  0  0  0  0  0  0  0
   -1.5271   -3.6362   -1.5309 N   0  0  0  0  0  0  0  0  0  0  0  0
   -2.7333   -4.0937   -1.8084 N   0  0  0  0  0  0  0  0  0  0  0  0
   -3.6594   -3.1063   -1.6018 N   0  0  0  0  0  0  0  0  0  0  0  0
   -5.0519   -3.3903   -1.6991 C   0  0  0  0  0  0  0  0  0  0  0  0
   -5.4004   -4.5419   -2.2870 N   0  0  0  0  0  0  0  0  0  0  0  0
   -6.7862   -4.5350   -2.2950 O   0  0  0  0  0  0  0  0  0  0  0  0
   -7.2800   -3.3967   -1.6798 N   0  0  0  0  0  0  0  0  0  0  0  0
   -6.2111   -2.7068   -1.2826 C   0  0  0  0  0  0  0  0  0  0  0  0
   -6.3256   -1.5757   -0.5589 N   0  0  0  0  0  0  0  0  0  0  0  0
   -2.9664   -1.9271   -1.3292 C   0  0  0  0  0  0  0  0  0  0  0  0
   -3.5487   -0.5701   -1.2249 C   0  0  0  0  0  0  0  0  0  0  0  0
   -3.8645   -0.3979    0.1551 O   0  0  0  0  0  0  0  0  0  0  0  0
   -4.1572    0.8759    0.5636 C   0  0  0  0  0  0  0  0  0  0  0  0
   -4.5041    1.9399   -0.2730 C   0  0  0  0  0  0  0  0  0  0  0  0
   -4.8051    3.1893    0.2772 C   0  0  0  0  0  0  0  0  0  0  0  0
   -4.7643    3.3651    1.6554 C   0  0  0  0  0  0  0  0  0  0  0  0
   -5.0553    4.5635    2.1772 F   0  0  0  0  0  0  0  0  0  0  0  0
   -4.4309    2.3133    2.4982 C   0  0  0  0  0  0  0  0  0  0  0  0
   -4.1306    1.0658    1.9497 C   0  0  0  0  0  0  0  0  0  0  0  0
    3.6937    1.1093    0.7317 C   0  0  0  0  0  0  0  0  0  0  0  0
    4.9588    1.7065    0.8365 C   0  0  0  0  0  0  0  0  0  0  0  0
    8.6147    3.1409    1.3423 H   0  0  0  0  0  0  0  0  0  0  0  0
    7.4242    2.3107    2.3506 H   0  0  0  0  0  0  0  0  0  0  0  0
    6.9417    3.6398    1.2510 H   0  0  0  0  0  0  0  0  0  0  0  0
    8.4706    0.8492   -1.2394 H   0  0  0  0  0  0  0  0  0  0  0  0
    9.4437    1.6718   -0.0430 H   0  0  0  0  0  0  0  0  0  0  0  0
    8.6769    0.1393    0.3925 H   0  0  0  0  0  0  0  0  0  0  0  0
    6.7035   -0.4429   -1.1212 H   0  0  0  0  0  0  0  0  0  0  0  0
    4.5221   -1.4810   -1.2997 H   0  0  0  0  0  0  0  0  0  0  0  0
    1.3994   -0.1615    0.4540 H   0  0  0  0  0  0  0  0  0  0  0  0
    0.6558   -3.1718   -1.2818 H   0  0  0  0  0  0  0  0  0  0  0  0
   -5.6164   -1.3379    0.1342 H   0  0  0  0  0  0  0  0  0  0  0  0
   -7.2573   -1.3796   -0.1983 H   0  0  0  0  0  0  0  0  0  0  0  0
   -2.8218    0.1793   -1.5582 H   0  0  0  0  0  0  0  0  0  0  0  0
   -4.4356   -0.4656   -1.8576 H   0  0  0  0  0  0  0  0  0  0  0  0
   -4.5589    1.8319   -1.3513 H   0  0  0  0  0  0  0  0  0  0  0  0
   -5.0734    4.0258   -0.3609 H   0  0  0  0  0  0  0  0  0  0  0  0
   -4.4047    2.4697    3.5717 H   0  0  0  0  0  0  0  0  0  0  0  0
   -3.8641    0.2410    2.6063 H   0  0  0  0  0  0  0  0  0  0  0  0
    2.8497    1.5623    1.2449 H   0  0  0  0  0  0  0  0  0  0  0  0
    5.0228    2.6122    1.4322 H   0  0  0  0  0  0  0  0  0  0  0  0
  1  2  1  0
  2  3  1  0
  2  4  1  0
  4  5  2  0
  5  6  1  0
  6  7  2  0
  7  8  1  0
  8  9  2  3
  9 10  1  0
 10 11  1  0
 11 12  2  0
 11 13  1  0
 13 14  1  0
 14 15  2  0
 15 16  1  0
 16 17  1  0
 17 18  2  0
 18 19  1  0
 19 20  1  0
 20 21  2  0
 21 22  1  0
 16 23  1  0
 23 24  1  0
 24 25  1  0
 25 26  1  0
 26 27  2  0
 27 28  1  0
 28 29  2  0
 29 30  1  0
 29 31  1  0
 31 32  2  0
  7 33  1  0
 33 34  2  0
 34  4  1  0
 23 13  2  0
 32 26  1  0
 21 17  1  0
  1 35  1  0
  1 36  1  0
  1 37  1  0
  3 38  1  0
  3 39  1  0
  3 40  1  0
  5 41  1  0
  6 42  1  0
  8 43  1  0
 10 44  1  0
 22 45  1  0
 22 46  1  0
 24 47  1  0
 24 48  1  0
 27 49  1  0
 28 50  1  0
 31 51  1  0
 32 52  1  0
 33 53  1  0
 34 54  1  0
M  END
$$$$
