
     RDKit          3D

 34 35  0  0  0  0  0  0  0  0999 V2000
    2.0678   -1.8928   -1.6781 C   0  0  0  0  0  0  0  0  0  0  0  0
    0.6799   -1.5052   -1.4952 N   0  0  0  0  0  0  0  0  0  0  0  0
    0.3409   -0.5750   -0.6662 C   0  0  0  0  0  0  0  0  0  0  0  0
    1.2741    0.2873    0.1152 C   0  0  0  0  0  0  0  0  0  0  0  0
    1.1278    0.3960    1.5023 C   0  0  0  0  0  0  0  0  0  0  0  0
    1.9883    1.2201    2.2296 C   0  0  0  0  0  0  0  0  0  0  0  0
    2.9880    1.9393    1.5738 C   0  0  0  0  0  0  0  0  0  0  0  0
    3.1291    1.8400    0.1896 C   0  0  0  0  0  0  0  0  0  0  0  0
    2.2716    1.0170   -0.5415 C   0  0  0  0  0  0  0  0  0  0  0  0
   -1.1236   -0.3496   -0.4499 C   0  0  0  0  0  0  0  0  0  0  0  0
   -1.8852   -1.3624    0.1763 C   0  0  0  0  0  0  0  0  0  0  0  0
   -1.2857   -2.6815    0.5817 C   0  0  0  0  0  0  0  0  0  0  0  0
   -3.2530   -1.1437    0.3957 C   0  0  0  0  0  0  0  0  0  0  0  0
   -3.8504    0.0565    0.0172 C   0  0  0  0  0  0  0  0  0  0  0  0
   -3.0957    1.0473   -0.6076 C   0  0  0  0  0  0  0  0  0  0  0  0
   -1.7304    0.8539   -0.8687 C   0  0  0  0  0  0  0  0  0  0  0  0
   -0.9737    1.9433   -1.5753 C   0  0  0  0  0  0  0  0  0  0  0  0
    2.5491   -1.2748   -2.4414 H   0  0  0  0  0  0  0  0  0  0  0  0
    2.0988   -2.9285   -2.0319 H   0  0  0  0  0  0  0  0  0  0  0  0
    2.6483   -1.8632   -0.7507 H   0  0  0  0  0  0  0  0  0  0  0  0
    0.3548   -0.1601    2.0257 H   0  0  0  0  0  0  0  0  0  0  0  0
    1.8788    1.3018    3.3081 H   0  0  0  0  0  0  0  0  0  0  0  0
    3.6566    2.5810    2.1428 H   0  0  0  0  0  0  0  0  0  0  0  0
    3.9039    2.4070   -0.3203 H   0  0  0  0  0  0  0  0  0  0  0  0
    2.3726    0.9606   -1.6219 H   0  0  0  0  0  0  0  0  0  0  0  0
   -0.3429   -2.5389    1.1185 H   0  0  0  0  0  0  0  0  0  0  0  0
   -1.1161   -3.3070   -0.3000 H   0  0  0  0  0  0  0  0  0  0  0  0
   -1.9524   -3.2281    1.2578 H   0  0  0  0  0  0  0  0  0  0  0  0
   -3.8643   -1.9119    0.8648 H   0  0  0  0  0  0  0  0  0  0  0  0
   -4.9106    0.2153    0.1983 H   0  0  0  0  0  0  0  0  0  0  0  0
   -3.5863    1.9716   -0.9062 H   0  0  0  0  0  0  0  0  0  0  0  0
   -1.6552    2.6069   -2.1193 H   0  0  0  0  0  0  0  0  0  0  0  0
   -0.2866    1.5281   -2.3191 H   0  0  0  0  0  0  0  0  0  0  0  0
   -0.4185    2.5496   -0.8536 H   0  0  0  0  0  0  0  0  0  0  0  0
  1  2  1  0
  2  3  2  3
  3  4  1  0
  4  5  2  0
  5  6  1  0
  6  7  2  0
  7  8  1  0
  8  9  2  0
  3 10  1  0
 10 11  2  0
 11 12  1  0
 11 13  1  0
 13 14  2  0
 14 15  1  0
 15 16  2  0
 16 17  1  0
  9  4  1  0
 16 10  1  0
  1 18  1  0
  1 19  1  0
  1 20  1  0
  5 21  1  0
  6 22  1  0
  7 23  1  0
  8 24  1  0
  9 25  1  0
 12 26  1  0
 12 27  1  0
 12 28  1  0
 13 29  1  0
 14 30  1  0
 15 31  1  0
 17 32  1  0
 17 33  1  0
 17 34  1  0
M  END
$$$$
