
     RDKit          3D

 40 41  0  0  0  0  0  0  0  0999 V2000
    5.6286   -1.1825   -4.6285 C   0  0  0  0  0  0  0  0  0  0  0  0
    4.5189   -0.3807   -5.2943 C   0  0  0  0  0  0  0  0  0  0  0  0
    3.8896    0.6437   -4.3521 C   0  0  0  0  0  0  0  0  0  0  0  0
    2.9762    0.0313   -3.2974 C   0  0  0  0  0  0  0  0  0  0  0  0
    2.6679   -1.1541   -3.3046 O   0  0  0  0  0  0  0  0  0  0  0  0
    2.5499    0.9860   -2.3861 N   0  0  0  0  0  0  0  0  0  0  0  0
    1.6990    0.7974   -1.2781 C   0  0  0  0  0  0  0  0  0  0  0  0
    1.1489   -0.4332   -0.9141 C   0  0  0  0  0  0  0  0  0  0  0  0
    0.3098   -0.5407    0.2038 C   0  0  0  0  0  0  0  0  0  0  0  0
    0.0066    0.5903    0.9685 C   0  0  0  0  0  0  0  0  0  0  0  0
   -0.8752    0.5322    2.1665 C   0  0  0  0  0  0  0  0  0  0  0  0
   -0.8400    1.4150    3.0216 O   0  0  0  0  0  0  0  0  0  0  0  0
   -1.7491   -0.5366    2.2467 N   0  0  0  0  0  0  0  0  0  0  0  0
   -2.7463   -0.4577    3.2430 N   0  0  0  0  0  0  0  0  0  0  0  0
   -4.0365   -0.8273    2.8848 C   0  0  0  0  0  0  0  0  0  0  0  0
   -4.2349   -1.3994    1.8100 O   0  0  0  0  0  0  0  0  0  0  0  0
   -5.0719   -0.4750    3.8474 C   0  0  0  0  0  0  0  0  0  0  0  0
   -4.9660    0.0205    5.1368 C   0  0  0  0  0  0  0  0  0  0  0  0
   -6.2366    0.2375    5.7488 C   0  0  0  0  0  0  0  0  0  0  0  0
   -7.2751   -0.1023    4.9135 C   0  0  0  0  0  0  0  0  0  0  0  0
   -6.7201   -0.6820    3.4061 S   0  0  0  0  0  0  0  0  0  0  0  0
    0.5671    1.8223    0.6158 C   0  0  0  0  0  0  0  0  0  0  0  0
    1.4032    1.9242   -0.5011 C   0  0  0  0  0  0  0  0  0  0  0  0
    5.2525   -1.7664   -3.7833 H   0  0  0  0  0  0  0  0  0  0  0  0
    6.4225   -0.5232   -4.2631 H   0  0  0  0  0  0  0  0  0  0  0  0
    6.0726   -1.8789   -5.3470 H   0  0  0  0  0  0  0  0  0  0  0  0
    4.9451    0.1489   -6.1546 H   0  0  0  0  0  0  0  0  0  0  0  0
    3.7573   -1.0651   -5.6854 H   0  0  0  0  0  0  0  0  0  0  0  0
    4.6723    1.2291   -3.8556 H   0  0  0  0  0  0  0  0  0  0  0  0
    3.2769    1.3346   -4.9442 H   0  0  0  0  0  0  0  0  0  0  0  0
    2.8833    1.9306   -2.5329 H   0  0  0  0  0  0  0  0  0  0  0  0
    1.3580   -1.3391   -1.4758 H   0  0  0  0  0  0  0  0  0  0  0  0
   -0.0718   -1.5241    0.4647 H   0  0  0  0  0  0  0  0  0  0  0  0
   -2.0227   -1.0577    1.4128 H   0  0  0  0  0  0  0  0  0  0  0  0
   -2.5886    0.2672    3.9405 H   0  0  0  0  0  0  0  0  0  0  0  0
   -4.0269    0.2166    5.6396 H   0  0  0  0  0  0  0  0  0  0  0  0
   -6.3799    0.6199    6.7525 H   0  0  0  0  0  0  0  0  0  0  0  0
   -8.3360   -0.0428    5.1154 H   0  0  0  0  0  0  0  0  0  0  0  0
    0.3534    2.7106    1.2077 H   0  0  0  0  0  0  0  0  0  0  0  0
    1.8179    2.8983   -0.7484 H   0  0  0  0  0  0  0  0  0  0  0  0
  1  2  1  0
  2  3  1  0
  3  4  1  0
  4  5  2  0
  4  6  1  0
  6  7  1  0
  7  8  2  0
  8  9  1  0
  9 10  2  0
 10 11  1  0
 11 12  2  0
 11 13  1  0
 13 14  1  0
 14 15  1  0
 15 16  2  0
 15 17  1  0
 17 18  2  0
 18 19  1  0
 19 20  2  0
 20 21  1  0
 10 22  1  0
 22 23  2  0
 23  7  1  0
 21 17  1  0
  1 24  1  0
  1 25  1  0
  1 26  1  0
  2 27  1  0
  2 28  1  0
  3 29  1  0
  3 30  1  0
  6 31  1  0
  8 32  1  0
  9 33  1  0
 13 34  1  0
 14 35  1  0
 18 36  1  0
 19 37  1  0
 20 38  1  0
 22 39  1  0
 23 40  1  0
M  END
$$$$
