
     RDKit          3D

 60 63  0  0  0  0  0  0  0  0999 V2000
   -7.1556   -1.1957   -3.0038 C   0  0  0  0  0  0  0  0  0  0  0  0
   -7.5694   -0.1654   -2.2548 C   0  0  0  0  0  0  0  0  0  0  0  0
   -6.9105    1.1842   -2.2254 C   0  0  0  0  0  0  0  0  0  0  0  0
   -6.2159    1.3489   -0.9566 N   0  0  0  0  0  0  0  0  0  0  0  0
   -6.8981    1.8735    0.1330 C   0  0  0  0  0  0  0  0  0  0  0  0
   -8.0709    2.2392    0.0809 O   0  0  0  0  0  0  0  0  0  0  0  0
   -6.1641    1.9904    1.4261 C   0  0  0  0  0  0  0  0  0  0  0  0
   -6.8482    2.5170    2.5320 C   0  0  0  0  0  0  0  0  0  0  0  0
   -6.2073    2.6380    3.7614 C   0  0  0  0  0  0  0  0  0  0  0  0
   -4.8827    2.2343    3.8897 C   0  0  0  0  0  0  0  0  0  0  0  0
   -4.1907    1.7081    2.7938 C   0  0  0  0  0  0  0  0  0  0  0  0
   -4.8257    1.5832    1.5540 C   0  0  0  0  0  0  0  0  0  0  0  0
   -4.2090    1.0609    0.3942 N   0  0  0  0  0  0  0  0  0  0  0  0
   -2.9537    0.5630    0.0942 C   0  0  0  0  0  0  0  0  0  0  0  0
   -1.5906    0.4404    1.1512 S   0  0  0  0  0  0  0  0  0  0  0  0
   -0.6312   -0.8466    0.3001 C   0  0  0  0  0  0  0  0  0  0  0  0
    0.6070   -1.1845    1.1207 C   0  0  0  0  0  0  0  0  0  0  0  0
    0.4982   -1.6872    2.2358 O   0  0  0  0  0  0  0  0  0  0  0  0
    1.7831   -0.8713    0.4558 N   0  0  0  0  0  0  0  0  0  0  0  0
    3.0879   -1.0563    0.8991 C   0  0  0  0  0  0  0  0  0  0  0  0
    3.4131   -1.6362    2.4517 S   0  0  0  0  0  0  0  0  0  0  0  0
    5.0961   -1.5782    2.2160 C   0  0  0  0  0  0  0  0  0  0  0  0
    6.0004   -2.0099    3.3256 C   0  0  0  0  0  0  0  0  0  0  0  0
    5.4373   -1.1037    0.9552 C   0  0  0  0  0  0  0  0  0  0  0  0
    6.8690   -0.9446    0.5025 C   0  0  0  0  0  0  0  0  0  0  0  0
    7.3724   -2.1553   -0.2721 C   0  0  0  0  0  0  0  0  0  0  0  0
    4.2441   -0.7976    0.1675 C   0  0  0  0  0  0  0  0  0  0  0  0
    4.1584   -0.2951   -1.2125 C   0  0  0  0  0  0  0  0  0  0  0  0
    3.0865   -0.0337   -1.7546 O   0  0  0  0  0  0  0  0  0  0  0  0
    5.3634   -0.1641   -1.8306 O   0  0  0  0  0  0  0  0  0  0  0  0
    5.2992    0.2934   -3.1863 C   0  0  0  0  0  0  0  0  0  0  0  0
    6.7166    0.3884   -3.7159 C   0  0  0  0  0  0  0  0  0  0  0  0
   -2.9048    0.1889   -1.1661 N   0  0  0  0  0  0  0  0  0  0  0  0
   -4.1229    0.4341   -1.7286 N   0  0  0  0  0  0  0  0  0  0  0  0
   -4.8987    0.9525   -0.8019 C   0  0  0  0  0  0  0  0  0  0  0  0
   -6.2784   -1.1193   -3.6395 H   0  0  0  0  0  0  0  0  0  0  0  0
   -7.6798   -2.1457   -2.9828 H   0  0  0  0  0  0  0  0  0  0  0  0
   -8.4497   -0.2847   -1.6269 H   0  0  0  0  0  0  0  0  0  0  0  0
   -7.6760    1.9601   -2.3386 H   0  0  0  0  0  0  0  0  0  0  0  0
   -6.2021    1.3133   -3.0515 H   0  0  0  0  0  0  0  0  0  0  0  0
   -7.8863    2.8327    2.4396 H   0  0  0  0  0  0  0  0  0  0  0  0
   -6.7410    3.0438    4.6173 H   0  0  0  0  0  0  0  0  0  0  0  0
   -4.3805    2.3264    4.8513 H   0  0  0  0  0  0  0  0  0  0  0  0
   -3.1656    1.4128    2.9745 H   0  0  0  0  0  0  0  0  0  0  0  0
   -1.2244   -1.7607    0.1961 H   0  0  0  0  0  0  0  0  0  0  0  0
   -0.3572   -0.5019   -0.7022 H   0  0  0  0  0  0  0  0  0  0  0  0
    1.7138   -0.4877   -0.4867 H   0  0  0  0  0  0  0  0  0  0  0  0
    6.7589   -2.7048    2.9518 H   0  0  0  0  0  0  0  0  0  0  0  0
    5.4606   -2.5167    4.1320 H   0  0  0  0  0  0  0  0  0  0  0  0
    6.5095   -1.1406    3.7543 H   0  0  0  0  0  0  0  0  0  0  0  0
    6.9858   -0.0344   -0.0948 H   0  0  0  0  0  0  0  0  0  0  0  0
    7.5179   -0.7938    1.3741 H   0  0  0  0  0  0  0  0  0  0  0  0
    7.3298   -3.0615    0.3431 H   0  0  0  0  0  0  0  0  0  0  0  0
    6.7759   -2.3369   -1.1724 H   0  0  0  0  0  0  0  0  0  0  0  0
    8.4125   -2.0022   -0.5788 H   0  0  0  0  0  0  0  0  0  0  0  0
    4.7260   -0.4190   -3.7892 H   0  0  0  0  0  0  0  0  0  0  0  0
    4.8215    1.2791   -3.2235 H   0  0  0  0  0  0  0  0  0  0  0  0
    6.7234    0.7275   -4.7558 H   0  0  0  0  0  0  0  0  0  0  0  0
    7.3063    1.0854   -3.1123 H   0  0  0  0  0  0  0  0  0  0  0  0
    7.2164   -0.5844   -3.6559 H   0  0  0  0  0  0  0  0  0  0  0  0
  1  2  2  0
  2  3  1  0
  3  4  1  0
  4  5  1  0
  5  6  2  0
  5  7  1  0
  7  8  2  0
  8  9  1  0
  9 10  2  0
 10 11  1  0
 11 12  2  0
 12 13  1  0
 13 14  1  0
 14 15  1  0
 15 16  1  0
 16 17  1  0
 17 18  2  0
 17 19  1  0
 19 20  1  0
 20 21  1  0
 21 22  1  0
 22 23  1  0
 22 24  2  0
 24 25  1  0
 25 26  1  0
 24 27  1  0
 27 28  1  0
 28 29  2  0
 28 30  1  0
 30 31  1  0
 31 32  1  0
 14 33  2  0
 33 34  1  0
 34 35  2  0
 35  4  1  0
 12  7  1  0
 35 13  1  0
 27 20  2  0
  1 36  1  0
  1 37  1  0
  2 38  1  0
  3 39  1  0
  3 40  1  0
  8 41  1  0
  9 42  1  0
 10 43  1  0
 11 44  1  0
 16 45  1  0
 16 46  1  0
 19 47  1  0
 23 48  1  0
 23 49  1  0
 23 50  1  0
 25 51  1  0
 25 52  1  0
 26 53  1  0
 26 54  1  0
 26 55  1  0
 31 56  1  0
 31 57  1  0
 32 58  1  0
 32 59  1  0
 32 60  1  0
M  END
$$$$
