
     RDKit          3D

 40 41  0  0  0  0  0  0  0  0999 V2000
   -1.7251   -3.6703   -4.6789 C   0  0  0  0  0  0  0  0  0  0  0  0
   -0.8502   -2.4971   -4.2709 C   0  0  0  0  0  0  0  0  0  0  0  0
   -0.9743   -2.2346   -2.8724 O   0  0  0  0  0  0  0  0  0  0  0  0
   -1.9721   -1.3505   -2.5180 C   0  0  0  0  0  0  0  0  0  0  0  0
   -2.8370   -0.9293   -3.4749 N   0  0  0  0  0  0  0  0  0  0  0  0
   -3.8498   -0.1234   -3.0851 C   0  0  0  0  0  0  0  0  0  0  0  0
   -4.0542    0.2800   -1.7766 C   0  0  0  0  0  0  0  0  0  0  0  0
   -3.1599   -0.1622   -0.8074 C   0  0  0  0  0  0  0  0  0  0  0  0
   -2.0898   -0.9815   -1.1822 C   0  0  0  0  0  0  0  0  0  0  0  0
   -1.1629   -1.4381   -0.1362 C   0  0  0  0  0  0  0  0  0  0  0  0
   -1.5372   -1.7986    0.9688 O   0  0  0  0  0  0  0  0  0  0  0  0
    0.1152   -1.2920   -0.5534 O   0  0  0  0  0  0  0  0  0  0  0  0
    1.1216   -1.6377    0.4033 C   0  0  0  0  0  0  0  0  0  0  0  0
    1.5784   -0.3944    1.1236 C   0  0  0  0  0  0  0  0  0  0  0  0
    2.4766    0.4906    0.5127 C   0  0  0  0  0  0  0  0  0  0  0  0
    2.8833    1.6535    1.1721 C   0  0  0  0  0  0  0  0  0  0  0  0
    2.3912    1.9530    2.4491 C   0  0  0  0  0  0  0  0  0  0  0  0
    2.8562    3.2055    3.1053 C   0  0  0  0  0  0  0  0  0  0  0  0
    3.6409    3.9862    2.5895 O   0  0  0  0  0  0  0  0  0  0  0  0
    2.2915    3.3441    4.3311 O   0  0  0  0  0  0  0  0  0  0  0  0
    2.6935    4.5264    5.0241 C   0  0  0  0  0  0  0  0  0  0  0  0
    1.4833    1.0768    3.0572 C   0  0  0  0  0  0  0  0  0  0  0  0
    1.0779   -0.0863    2.3958 C   0  0  0  0  0  0  0  0  0  0  0  0
   -2.7862   -3.4477   -4.5322 H   0  0  0  0  0  0  0  0  0  0  0  0
   -1.4973   -4.5494   -4.0669 H   0  0  0  0  0  0  0  0  0  0  0  0
   -1.5657   -3.9233   -5.7310 H   0  0  0  0  0  0  0  0  0  0  0  0
    0.1971   -2.7724   -4.4402 H   0  0  0  0  0  0  0  0  0  0  0  0
   -1.0308   -1.6098   -4.8895 H   0  0  0  0  0  0  0  0  0  0  0  0
   -4.5196    0.1948   -3.8797 H   0  0  0  0  0  0  0  0  0  0  0  0
   -4.8900    0.9209   -1.5172 H   0  0  0  0  0  0  0  0  0  0  0  0
   -3.2916    0.1293    0.2320 H   0  0  0  0  0  0  0  0  0  0  0  0
    1.9638   -2.0736   -0.1466 H   0  0  0  0  0  0  0  0  0  0  0  0
    0.7860   -2.4128    1.1035 H   0  0  0  0  0  0  0  0  0  0  0  0
    2.8605    0.2811   -0.4840 H   0  0  0  0  0  0  0  0  0  0  0  0
    3.5836    2.3278    0.6822 H   0  0  0  0  0  0  0  0  0  0  0  0
    2.1857    4.5404    5.9924 H   0  0  0  0  0  0  0  0  0  0  0  0
    3.7738    4.5195    5.1997 H   0  0  0  0  0  0  0  0  0  0  0  0
    2.3964    5.4188    4.4643 H   0  0  0  0  0  0  0  0  0  0  0  0
    1.0774    1.2864    4.0438 H   0  0  0  0  0  0  0  0  0  0  0  0
    0.3599   -0.7499    2.8765 H   0  0  0  0  0  0  0  0  0  0  0  0
  1  2  1  0
  2  3  1  0
  3  4  1  0
  4  5  2  0
  5  6  1  0
  6  7  2  0
  7  8  1  0
  8  9  2  0
  9 10  1  0
 10 11  2  0
 10 12  1  0
 12 13  1  0
 13 14  1  0
 14 15  2  0
 15 16  1  0
 16 17  2  0
 17 18  1  0
 18 19  2  0
 18 20  1  0
 20 21  1  0
 17 22  1  0
 22 23  2  0
  9  4  1  0
 23 14  1  0
  1 24  1  0
  1 25  1  0
  1 26  1  0
  2 27  1  0
  2 28  1  0
  6 29  1  0
  7 30  1  0
  8 31  1  0
 13 32  1  0
 13 33  1  0
 15 34  1  0
 16 35  1  0
 21 36  1  0
 21 37  1  0
 21 38  1  0
 22 39  1  0
 23 40  1  0
M  END
$$$$
