
     RDKit          3D

 65 69  0  0  0  0  0  0  0  0999 V2000
    6.0781   -1.1920    1.7307 O   0  0  0  0  0  0  0  0  0  0  0  0
    6.0433   -1.1273    0.4959 C   0  0  0  0  0  0  0  0  0  0  0  0
    7.0393   -1.9359   -0.3863 C   0  0  0  0  0  0  0  0  0  0  0  0
    8.3057   -1.1898   -0.8941 C   0  0  0  0  0  0  0  0  0  0  0  0
    9.0810   -2.5073   -0.7102 C   0  0  0  0  0  0  0  0  0  0  0  0
    8.0261   -2.9005    0.3383 C   0  0  0  0  0  0  0  0  0  0  0  0
    5.1235   -0.3439   -0.1956 N   0  0  0  0  0  0  0  0  0  0  0  0
    5.0135   -0.2471   -1.6605 C   0  0  0  0  0  0  0  0  0  0  0  0
    3.8525    0.7030   -1.9799 C   0  0  0  0  0  0  0  0  0  0  0  0
    3.4149    1.1349   -0.6183 C   0  0  0  0  0  0  0  0  0  0  0  0
    2.4016    2.0321   -0.3108 C   0  0  0  0  0  0  0  0  0  0  0  0
    2.1503    2.2951    1.0391 C   0  0  0  0  0  0  0  0  0  0  0  0
    0.8667    3.4357    1.4970 S   0  0  0  0  0  6  0  0  0  0  0  0
    0.3825    4.0820    0.2970 O   0  0  0  0  0  0  0  0  0  0  0  0
    1.3329    4.1903    2.6383 O   0  0  0  0  0  0  0  0  0  0  0  0
   -0.3420    2.4163    2.0575 N   0  0  0  0  0  0  0  0  0  0  0  0
   -0.8975    1.3961    1.1582 C   0  0  0  0  0  0  0  0  0  0  0  0
   -2.3352    1.0557    1.5979 C   0  0  0  0  0  0  0  0  0  0  0  0
   -2.9493   -0.0024    0.7789 N   0  0  0  0  0  0  0  0  0  0  0  0
   -3.3780    0.4845   -0.5565 C   0  0  0  0  0  0  0  0  0  0  0  0
   -4.8961    0.7422   -0.7283 C   0  0  0  0  0  0  0  0  0  0  0  0
   -5.6711   -0.4678   -0.4119 N   0  0  0  0  0  0  0  0  0  0  0  0
   -7.0038   -0.5891   -0.7914 C   0  0  0  0  0  0  0  0  0  0  0  0
   -7.6429   -1.8429   -0.7696 C   0  0  0  0  0  0  0  0  0  0  0  0
   -8.9823   -2.0074   -1.1492 C   0  0  0  0  0  0  0  0  0  0  0  0
   -9.7295   -0.9132   -1.5708 C   0  0  0  0  0  0  0  0  0  0  0  0
   -9.1307    0.3384   -1.6179 C   0  0  0  0  0  0  0  0  0  0  0  0
   -7.7933    0.4906   -1.2405 C   0  0  0  0  0  0  0  0  0  0  0  0
   -7.2890    1.7340   -1.2974 F   0  0  0  0  0  0  0  0  0  0  0  0
   -5.0885   -1.3685    0.5963 C   0  0  0  0  0  0  0  0  0  0  0  0
   -4.0898   -0.6109    1.5024 C   0  0  0  0  0  0  0  0  0  0  0  0
    2.9121    1.6876    2.0514 C   0  0  0  0  0  0  0  0  0  0  0  0
    3.9253    0.7820    1.7197 C   0  0  0  0  0  0  0  0  0  0  0  0
    4.1655    0.5112    0.3814 C   0  0  0  0  0  0  0  0  0  0  0  0
    6.5235   -2.4720   -1.1954 H   0  0  0  0  0  0  0  0  0  0  0  0
    8.6434   -0.3799   -0.2366 H   0  0  0  0  0  0  0  0  0  0  0  0
    8.2616   -0.8170   -1.9208 H   0  0  0  0  0  0  0  0  0  0  0  0
   10.1065   -2.4074   -0.3435 H   0  0  0  0  0  0  0  0  0  0  0  0
    9.0781   -3.1500   -1.5986 H   0  0  0  0  0  0  0  0  0  0  0  0
    8.2948   -2.6041    1.3589 H   0  0  0  0  0  0  0  0  0  0  0  0
    7.7392   -3.9558    0.3408 H   0  0  0  0  0  0  0  0  0  0  0  0
    5.9586    0.1316   -2.0642 H   0  0  0  0  0  0  0  0  0  0  0  0
    4.8355   -1.2435   -2.0801 H   0  0  0  0  0  0  0  0  0  0  0  0
    4.1904    1.5528   -2.5807 H   0  0  0  0  0  0  0  0  0  0  0  0
    3.0483    0.1778   -2.5039 H   0  0  0  0  0  0  0  0  0  0  0  0
    1.8262    2.5131   -1.0967 H   0  0  0  0  0  0  0  0  0  0  0  0
   -0.2665    2.1987    3.0497 H   0  0  0  0  0  0  0  0  0  0  0  0
   -0.8932    1.7583    0.1260 H   0  0  0  0  0  0  0  0  0  0  0  0
   -0.2728    0.4969    1.2138 H   0  0  0  0  0  0  0  0  0  0  0  0
   -2.9582    1.9612    1.6036 H   0  0  0  0  0  0  0  0  0  0  0  0
   -2.2761    0.7162    2.6421 H   0  0  0  0  0  0  0  0  0  0  0  0
   -3.0856   -0.2902   -1.2778 H   0  0  0  0  0  0  0  0  0  0  0  0
   -2.8335    1.3860   -0.8578 H   0  0  0  0  0  0  0  0  0  0  0  0
   -5.2021    1.5693   -0.0757 H   0  0  0  0  0  0  0  0  0  0  0  0
   -5.0634    1.0368   -1.7720 H   0  0  0  0  0  0  0  0  0  0  0  0
   -7.0919   -2.7328   -0.4762 H   0  0  0  0  0  0  0  0  0  0  0  0
   -9.4342   -2.9954   -1.1169 H   0  0  0  0  0  0  0  0  0  0  0  0
  -10.7688   -1.0349   -1.8656 H   0  0  0  0  0  0  0  0  0  0  0  0
   -9.6939    1.2095   -1.9386 H   0  0  0  0  0  0  0  0  0  0  0  0
   -4.5829   -2.1978    0.0885 H   0  0  0  0  0  0  0  0  0  0  0  0
   -5.8622   -1.7919    1.2481 H   0  0  0  0  0  0  0  0  0  0  0  0
   -4.6506    0.1650    2.0424 H   0  0  0  0  0  0  0  0  0  0  0  0
   -3.6975   -1.3054    2.2548 H   0  0  0  0  0  0  0  0  0  0  0  0
    2.7261    1.9190    3.0982 H   0  0  0  0  0  0  0  0  0  0  0  0
    4.5056    0.3203    2.5116 H   0  0  0  0  0  0  0  0  0  0  0  0
  1  2  2  0
  2  3  1  0
  3  4  1  0
  4  5  1  0
  5  6  1  0
  2  7  1  0
  7  8  1  0
  8  9  1  0
  9 10  1  0
 10 11  2  0
 11 12  1  0
 12 13  1  0
 13 14  2  0
 13 15  2  0
 13 16  1  0
 16 17  1  0
 17 18  1  0
 18 19  1  0
 19 20  1  0
 20 21  1  0
 21 22  1  0
 22 23  1  0
 23 24  2  0
 24 25  1  0
 25 26  2  0
 26 27  1  0
 27 28  2  0
 28 29  1  0
 22 30  1  0
 30 31  1  0
 12 32  2  0
 32 33  1  0
 33 34  2  0
  6  3  1  0
 34  7  1  0
 34 10  1  0
 31 19  1  0
 28 23  1  0
  3 35  1  0
  4 36  1  0
  4 37  1  0
  5 38  1  0
  5 39  1  0
  6 40  1  0
  6 41  1  0
  8 42  1  0
  8 43  1  0
  9 44  1  0
  9 45  1  0
 11 46  1  0
 16 47  1  0
 17 48  1  0
 17 49  1  0
 18 50  1  0
 18 51  1  0
 20 52  1  0
 20 53  1  0
 21 54  1  0
 21 55  1  0
 24 56  1  0
 25 57  1  0
 26 58  1  0
 27 59  1  0
 30 60  1  0
 30 61  1  0
 31 62  1  0
 31 63  1  0
 32 64  1  0
 33 65  1  0
M  END
$$$$
