
     RDKit          3D

 43 45  0  0  0  0  0  0  0  0999 V2000
   -2.7260   -1.2154   -2.8836 C   0  0  0  0  0  0  0  0  0  0  0  0
   -2.8173    0.1904   -2.3680 C   0  0  0  0  0  0  0  0  0  0  0  0
   -2.4727    1.1787   -3.0033 O   0  0  0  0  0  0  0  0  0  0  0  0
   -3.3601    0.1584   -1.0889 O   0  0  0  0  0  0  0  0  0  0  0  0
   -3.3787    1.4147   -0.4740 C   0  0  0  0  0  0  0  0  0  0  0  0
   -4.5696    2.1420   -0.5043 C   0  0  0  0  0  0  0  0  0  0  0  0
   -4.6294    3.3806    0.1328 C   0  0  0  0  0  0  0  0  0  0  0  0
   -3.5092    3.8769    0.8028 C   0  0  0  0  0  0  0  0  0  0  0  0
   -2.3251    3.1338    0.8438 C   0  0  0  0  0  0  0  0  0  0  0  0
   -2.2503    1.8874    0.2114 C   0  0  0  0  0  0  0  0  0  0  0  0
   -1.0081    1.1141    0.2665 C   0  0  0  0  0  0  0  0  0  0  0  0
    0.0205    1.3901   -0.5506 C   0  0  0  0  0  0  0  0  0  0  0  0
    1.2734    0.6249   -0.5761 C   0  0  0  0  0  0  0  0  0  0  0  0
    2.2940    0.9918   -1.4409 C   0  0  0  0  0  0  0  0  0  0  0  0
    3.4642    0.2394   -1.4479 C   0  0  0  0  0  0  0  0  0  0  0  0
    3.5925   -0.8596   -0.5915 C   0  0  0  0  0  0  0  0  0  0  0  0
    4.7588   -1.6496   -0.5784 C   0  0  0  0  0  0  0  0  0  0  0  0
    4.8653   -2.7505    0.2724 C   0  0  0  0  0  0  0  0  0  0  0  0
    3.8136   -3.0643    1.1224 C   0  0  0  0  0  0  0  0  0  0  0  0
    2.6712   -2.2593    1.1148 C   0  0  0  0  0  0  0  0  0  0  0  0
    1.6181   -2.6186    1.9693 O   0  0  0  0  0  0  0  0  0  0  0  0
    1.5708   -1.8070    3.0946 C   0  0  0  0  0  0  0  0  0  0  0  0
    0.2905   -2.0755    3.8285 C   0  0  0  0  0  0  0  0  0  0  0  0
    2.4351   -1.0315    3.4829 O   0  0  0  0  0  0  0  0  0  0  0  0
    2.5128   -1.1620    0.2618 C   0  0  0  0  0  0  0  0  0  0  0  0
    1.3712   -0.4361    0.2576 N   0  0  0  0  0  0  0  0  0  0  0  0
   -2.2668   -1.2082   -3.8765 H   0  0  0  0  0  0  0  0  0  0  0  0
   -2.0986   -1.8133   -2.2168 H   0  0  0  0  0  0  0  0  0  0  0  0
   -3.7269   -1.6474   -2.9620 H   0  0  0  0  0  0  0  0  0  0  0  0
   -5.4390    1.7521   -1.0237 H   0  0  0  0  0  0  0  0  0  0  0  0
   -5.5479    3.9615    0.1072 H   0  0  0  0  0  0  0  0  0  0  0  0
   -3.5570    4.8447    1.2962 H   0  0  0  0  0  0  0  0  0  0  0  0
   -1.4635    3.5317    1.3752 H   0  0  0  0  0  0  0  0  0  0  0  0
   -0.9797    0.2920    0.9755 H   0  0  0  0  0  0  0  0  0  0  0  0
   -0.0582    2.2096   -1.2608 H   0  0  0  0  0  0  0  0  0  0  0  0
    2.1915    1.8449   -2.1038 H   0  0  0  0  0  0  0  0  0  0  0  0
    4.2697    0.5157   -2.1241 H   0  0  0  0  0  0  0  0  0  0  0  0
    5.5913   -1.4110   -1.2378 H   0  0  0  0  0  0  0  0  0  0  0  0
    5.7677   -3.3564    0.2716 H   0  0  0  0  0  0  0  0  0  0  0  0
    3.8807   -3.9166    1.7920 H   0  0  0  0  0  0  0  0  0  0  0  0
    0.1809   -1.3522    4.6412 H   0  0  0  0  0  0  0  0  0  0  0  0
   -0.5597   -1.9579    3.1508 H   0  0  0  0  0  0  0  0  0  0  0  0
    0.3102   -3.0832    4.2496 H   0  0  0  0  0  0  0  0  0  0  0  0
  1  2  1  0
  2  3  2  0
  2  4  1  0
  4  5  1  0
  5  6  2  0
  6  7  1  0
  7  8  2  0
  8  9  1  0
  9 10  2  0
 10 11  1  0
 11 12  2  0
 12 13  1  0
 13 14  2  0
 14 15  1  0
 15 16  2  0
 16 17  1  0
 17 18  2  0
 18 19  1  0
 19 20  2  0
 20 21  1  0
 21 22  1  0
 22 23  1  0
 22 24  2  0
 20 25  1  0
 25 26  2  0
 10  5  1  0
 26 13  1  0
 25 16  1  0
  1 27  1  0
  1 28  1  0
  1 29  1  0
  6 30  1  0
  7 31  1  0
  8 32  1  0
  9 33  1  0
 11 34  1  0
 12 35  1  0
 14 36  1  0
 15 37  1  0
 17 38  1  0
 18 39  1  0
 19 40  1  0
 23 41  1  0
 23 42  1  0
 23 43  1  0
M  END
$$$$
