
     RDKit          3D

 40 41  0  0  0  0  0  0  0  0999 V2000
    7.4705    0.8821    2.0235 C   0  0  0  0  0  0  0  0  0  0  0  0
    6.7616   -0.3431    1.8876 O   0  0  0  0  0  0  0  0  0  0  0  0
    5.4607   -0.2635    1.4761 C   0  0  0  0  0  0  0  0  0  0  0  0
    4.8090   -1.4921    1.3579 C   0  0  0  0  0  0  0  0  0  0  0  0
    3.4740   -1.5581    0.9464 C   0  0  0  0  0  0  0  0  0  0  0  0
    2.7633   -0.3887    0.6562 C   0  0  0  0  0  0  0  0  0  0  0  0
    1.3683   -0.4064    0.1936 C   0  0  0  0  0  0  0  0  0  0  0  0
    0.4488   -1.2793    0.6354 C   0  0  0  0  0  0  0  0  0  0  0  0
   -0.9522   -1.3122    0.1369 C   0  0  0  0  0  0  0  0  0  0  0  0
   -1.5222   -2.3922    0.0612 O   0  0  0  0  0  0  0  0  0  0  0  0
   -1.4984   -0.0660   -0.0835 N   0  0  0  0  0  0  0  0  0  0  0  0
   -2.7761    0.2431   -0.5177 C   0  0  0  0  0  0  0  0  0  0  0  0
   -3.3048    1.3717   -0.0291 C   0  0  0  0  0  0  0  0  0  0  0  0
   -4.6670    1.7824   -0.3807 C   0  0  0  0  0  0  0  0  0  0  0  0
   -5.0657    2.8806   -0.0010 O   0  0  0  0  0  0  0  0  0  0  0  0
   -5.3982    0.8812   -1.1131 N   0  0  0  0  0  0  0  0  0  0  0  0
   -6.7711    1.2167   -1.4358 C   0  0  0  0  0  0  0  0  0  0  0  0
   -4.8369   -0.2155   -1.7506 C   0  0  0  0  0  0  0  0  0  0  0  0
   -5.4794   -0.8812   -2.5666 O   0  0  0  0  0  0  0  0  0  0  0  0
   -3.4996   -0.4953   -1.4420 N   0  0  0  0  0  0  0  0  0  0  0  0
   -2.8950   -1.5617   -2.2302 C   0  0  0  0  0  0  0  0  0  0  0  0
    3.4268    0.8406    0.7592 C   0  0  0  0  0  0  0  0  0  0  0  0
    4.7644    0.9047    1.1719 C   0  0  0  0  0  0  0  0  0  0  0  0
    7.0091    1.5231    2.7820 H   0  0  0  0  0  0  0  0  0  0  0  0
    7.5503    1.4005    1.0623 H   0  0  0  0  0  0  0  0  0  0  0  0
    8.4848    0.6460    2.3596 H   0  0  0  0  0  0  0  0  0  0  0  0
    5.3477   -2.4099    1.5824 H   0  0  0  0  0  0  0  0  0  0  0  0
    3.0110   -2.5368    0.8463 H   0  0  0  0  0  0  0  0  0  0  0  0
    1.1176    0.3431   -0.5534 H   0  0  0  0  0  0  0  0  0  0  0  0
    0.6827   -2.0678    1.3433 H   0  0  0  0  0  0  0  0  0  0  0  0
   -1.0003    0.6832    0.3829 H   0  0  0  0  0  0  0  0  0  0  0  0
   -2.7946    2.0235    0.6687 H   0  0  0  0  0  0  0  0  0  0  0  0
   -7.3802    0.3096   -1.5000 H   0  0  0  0  0  0  0  0  0  0  0  0
   -6.7855    1.7212   -2.4073 H   0  0  0  0  0  0  0  0  0  0  0  0
   -7.2051    1.8808   -0.6827 H   0  0  0  0  0  0  0  0  0  0  0  0
   -3.1327   -2.5254   -1.7716 H   0  0  0  0  0  0  0  0  0  0  0  0
   -3.3086   -1.5671   -3.2450 H   0  0  0  0  0  0  0  0  0  0  0  0
   -1.8167   -1.4229   -2.3413 H   0  0  0  0  0  0  0  0  0  0  0  0
    2.9098    1.7689    0.5259 H   0  0  0  0  0  0  0  0  0  0  0  0
    5.2299    1.8821    1.2422 H   0  0  0  0  0  0  0  0  0  0  0  0
  1  2  1  0
  2  3  1  0
  3  4  2  0
  4  5  1  0
  5  6  2  0
  6  7  1  0
  7  8  2  3
  8  9  1  0
  9 10  2  0
  9 11  1  0
 11 12  1  0
 12 13  2  0
 13 14  1  0
 14 15  2  0
 14 16  1  0
 16 17  1  0
 16 18  1  0
 18 19  2  0
 18 20  1  0
 20 21  1  0
  6 22  1  0
 22 23  2  0
 23  3  1  0
 20 12  1  0
  1 24  1  0
  1 25  1  0
  1 26  1  0
  4 27  1  0
  5 28  1  0
  7 29  1  0
  8 30  1  0
 11 31  1  0
 13 32  1  0
 17 33  1  0
 17 34  1  0
 17 35  1  0
 21 36  1  0
 21 37  1  0
 21 38  1  0
 22 39  1  0
 23 40  1  0
M  END
$$$$
