
     RDKit          3D

 46 48  0  0  0  0  0  0  0  0999 V2000
   -5.2559   -1.8072   -2.5587 C   0  0  0  0  0  0  0  0  0  0  0  0
   -5.8676   -0.7226   -1.8678 O   0  0  0  0  0  0  0  0  0  0  0  0
   -5.2675   -0.3205   -0.7014 C   0  0  0  0  0  0  0  0  0  0  0  0
   -4.0887   -0.8357   -0.1606 C   0  0  0  0  0  0  0  0  0  0  0  0
   -3.5843   -0.3252    1.0475 C   0  0  0  0  0  0  0  0  0  0  0  0
   -2.3495   -0.8575    1.6263 C   0  0  0  0  0  0  0  0  0  0  0  0
   -1.1428   -0.7012    1.0653 C   0  0  0  0  0  0  0  0  0  0  0  0
   -0.7456    0.0248   -0.1828 C   0  0  0  0  0  0  0  0  0  0  0  0
    0.7429    0.3245   -0.0103 C   0  0  0  0  0  0  0  0  0  0  0  0
    1.2386   -0.7076    0.9554 C   0  0  0  0  0  0  0  0  0  0  0  0
    2.4775   -1.1736    1.1655 C   0  0  0  0  0  0  0  0  0  0  0  0
    3.6636   -0.6984    0.4488 C   0  0  0  0  0  0  0  0  0  0  0  0
    4.4102   -1.6071   -0.3089 C   0  0  0  0  0  0  0  0  0  0  0  0
    5.5454   -1.1805   -0.9984 C   0  0  0  0  0  0  0  0  0  0  0  0
    5.9359    0.1567   -0.9210 C   0  0  0  0  0  0  0  0  0  0  0  0
    7.0487    0.5782   -1.5993 O   0  0  0  0  0  0  0  0  0  0  0  0
    5.2118    1.0811   -0.1538 C   0  0  0  0  0  0  0  0  0  0  0  0
    5.6919    2.3647   -0.1406 O   0  0  0  0  0  0  0  0  0  0  0  0
    5.0070    3.3145    0.6640 C   0  0  0  0  0  0  0  0  0  0  0  0
    4.0750    0.6417    0.5323 C   0  0  0  0  0  0  0  0  0  0  0  0
    0.0780   -1.2543    1.7021 C   0  0  0  0  0  0  0  0  0  0  0  0
    0.1191   -2.0143    2.6503 O   0  0  0  0  0  0  0  0  0  0  0  0
   -4.2713    0.6949    1.7174 C   0  0  0  0  0  0  0  0  0  0  0  0
   -5.4477    1.2160    1.1805 C   0  0  0  0  0  0  0  0  0  0  0  0
   -5.9302    0.7069   -0.0187 C   0  0  0  0  0  0  0  0  0  0  0  0
   -7.0866    1.2355   -0.5251 O   0  0  0  0  0  0  0  0  0  0  0  0
   -5.8637   -2.0259   -3.4423 H   0  0  0  0  0  0  0  0  0  0  0  0
   -5.2335   -2.7097   -1.9381 H   0  0  0  0  0  0  0  0  0  0  0  0
   -4.2519   -1.5370   -2.9032 H   0  0  0  0  0  0  0  0  0  0  0  0
   -3.5456   -1.6365   -0.6521 H   0  0  0  0  0  0  0  0  0  0  0  0
   -2.4584   -1.3927    2.5683 H   0  0  0  0  0  0  0  0  0  0  0  0
   -1.3112    0.9490   -0.3377 H   0  0  0  0  0  0  0  0  0  0  0  0
   -0.8988   -0.6262   -1.0517 H   0  0  0  0  0  0  0  0  0  0  0  0
    0.8761    1.3244    0.4197 H   0  0  0  0  0  0  0  0  0  0  0  0
    1.2590    0.2890   -0.9747 H   0  0  0  0  0  0  0  0  0  0  0  0
    2.6506   -1.9666    1.8918 H   0  0  0  0  0  0  0  0  0  0  0  0
    4.1096   -2.6506   -0.3714 H   0  0  0  0  0  0  0  0  0  0  0  0
    6.1088   -1.8983   -1.5860 H   0  0  0  0  0  0  0  0  0  0  0  0
    7.4442   -0.1756   -2.0632 H   0  0  0  0  0  0  0  0  0  0  0  0
    5.0246    3.0251    1.7204 H   0  0  0  0  0  0  0  0  0  0  0  0
    5.5321    4.2704    0.5728 H   0  0  0  0  0  0  0  0  0  0  0  0
    3.9818    3.4631    0.3106 H   0  0  0  0  0  0  0  0  0  0  0  0
    3.4973    1.3232    1.1484 H   0  0  0  0  0  0  0  0  0  0  0  0
   -3.8934    1.0928    2.6569 H   0  0  0  0  0  0  0  0  0  0  0  0
   -5.9843    2.0101    1.6916 H   0  0  0  0  0  0  0  0  0  0  0  0
   -7.2514    0.7383   -1.3503 H   0  0  0  0  0  0  0  0  0  0  0  0
  1  2  1  0
  2  3  1  0
  3  4  2  0
  4  5  1  0
  5  6  1  0
  6  7  2  3
  7  8  1  0
  8  9  1  0
  9 10  1  0
 10 11  2  3
 11 12  1  0
 12 13  2  0
 13 14  1  0
 14 15  2  0
 15 16  1  0
 15 17  1  0
 17 18  1  0
 18 19  1  0
 17 20  2  0
 10 21  1  0
 21 22  2  0
  5 23  2  0
 23 24  1  0
 24 25  2  0
 25 26  1  0
 25  3  1  0
 21  7  1  0
 20 12  1  0
  1 27  1  0
  1 28  1  0
  1 29  1  0
  4 30  1  0
  6 31  1  0
  8 32  1  0
  8 33  1  0
  9 34  1  0
  9 35  1  0
 11 36  1  0
 13 37  1  0
 14 38  1  0
 16 39  1  0
 19 40  1  0
 19 41  1  0
 19 42  1  0
 20 43  1  0
 23 44  1  0
 24 45  1  0
 26 46  1  0
M  END
$$$$
