
     RDKit          3D

 40 42  0  0  0  0  0  0  0  0999 V2000
   -4.8318    0.9384   -1.5705 C   0  0  0  0  0  0  0  0  0  0  0  0
   -5.3469    0.2481   -0.5430 C   0  0  0  0  0  0  0  0  0  0  0  0
   -4.6490   -0.2214    0.7055 C   0  0  0  0  0  0  0  0  0  0  0  0
   -3.2237    0.0902    0.7850 N   0  0  0  0  0  0  0  0  0  0  0  0
   -2.2240   -0.7705    0.4014 C   0  0  0  0  0  0  0  0  0  0  0  0
   -1.0149   -0.1555    0.6394 C   0  0  0  0  0  0  0  0  0  0  0  0
    0.2325   -0.7778    0.3281 C   0  0  0  0  0  0  0  0  0  0  0  0
    1.3338   -0.1352   -0.0955 C   0  0  0  0  0  0  0  0  0  0  0  0
    2.6006   -0.7984   -0.4219 C   0  0  0  0  0  0  0  0  0  0  0  0
    3.7992   -0.1805   -0.0697 C   0  0  0  0  0  0  0  0  0  0  0  0
    5.0090   -0.7836   -0.3951 C   0  0  0  0  0  0  0  0  0  0  0  0
    5.0348   -1.9561   -1.0667 N   0  0  0  0  0  4  0  0  0  0  0  0
    6.3279   -2.5817   -1.3918 C   0  0  0  0  0  0  0  0  0  0  0  0
    3.8858   -2.5698   -1.4274 C   0  0  0  0  0  0  0  0  0  0  0  0
    2.6535   -2.0036   -1.1204 C   0  0  0  0  0  0  0  0  0  0  0  0
   -1.2856    1.1161    1.2353 C   0  0  0  0  0  0  0  0  0  0  0  0
   -0.4902    2.1681    1.7440 C   0  0  0  0  0  0  0  0  0  0  0  0
   -1.0961    3.3156    2.2673 C   0  0  0  0  0  0  0  0  0  0  0  0
   -2.4805    3.4308    2.2973 C   0  0  0  0  0  0  0  0  0  0  0  0
   -3.2950    2.4024    1.8185 C   0  0  0  0  0  0  0  0  0  0  0  0
   -2.6789    1.2502    1.3012 C   0  0  0  0  0  0  0  0  0  0  0  0
   -3.7919    1.2500   -1.6018 H   0  0  0  0  0  0  0  0  0  0  0  0
   -5.4543    1.2194   -2.4155 H   0  0  0  0  0  0  0  0  0  0  0  0
   -6.4026   -0.0157   -0.5936 H   0  0  0  0  0  0  0  0  0  0  0  0
   -4.7439   -1.3109    0.7847 H   0  0  0  0  0  0  0  0  0  0  0  0
   -5.1321    0.2074    1.5901 H   0  0  0  0  0  0  0  0  0  0  0  0
   -2.4641   -1.7355   -0.0260 H   0  0  0  0  0  0  0  0  0  0  0  0
    0.2490   -1.8609    0.4297 H   0  0  0  0  0  0  0  0  0  0  0  0
    1.3172    0.9458   -0.2188 H   0  0  0  0  0  0  0  0  0  0  0  0
    3.7995    0.7659    0.4687 H   0  0  0  0  0  0  0  0  0  0  0  0
    5.9605   -0.3354   -0.1227 H   0  0  0  0  0  0  0  0  0  0  0  0
    7.0801   -1.8004   -1.5282 H   0  0  0  0  0  0  0  0  0  0  0  0
    6.2271   -3.1518   -2.3189 H   0  0  0  0  0  0  0  0  0  0  0  0
    6.5929   -3.2366   -0.5581 H   0  0  0  0  0  0  0  0  0  0  0  0
    3.9621   -3.5113   -1.9642 H   0  0  0  0  0  0  0  0  0  0  0  0
    1.7421   -2.5053   -1.4402 H   0  0  0  0  0  0  0  0  0  0  0  0
    0.5917    2.0939    1.7448 H   0  0  0  0  0  0  0  0  0  0  0  0
   -0.4798    4.1224    2.6560 H   0  0  0  0  0  0  0  0  0  0  0  0
   -2.9385    4.3299    2.7039 H   0  0  0  0  0  0  0  0  0  0  0  0
   -4.3756    2.5034    1.8497 H   0  0  0  0  0  0  0  0  0  0  0  0
  1  2  2  0
  2  3  1  0
  3  4  1  0
  4  5  1  0
  5  6  2  0
  6  7  1  0
  7  8  2  3
  8  9  1  0
  9 10  2  0
 10 11  1  0
 11 12  2  0
 12 13  1  0
 12 14  1  0
 14 15  2  0
  6 16  1  0
 16 17  2  0
 17 18  1  0
 18 19  2  0
 19 20  1  0
 20 21  2  0
 21  4  1  0
 15  9  1  0
 21 16  1  0
  1 22  1  0
  1 23  1  0
  2 24  1  0
  3 25  1  0
  3 26  1  0
  5 27  1  0
  7 28  1  0
  8 29  1  0
 10 30  1  0
 11 31  1  0
 13 32  1  0
 13 33  1  0
 13 34  1  0
 14 35  1  0
 15 36  1  0
 17 37  1  0
 18 38  1  0
 19 39  1  0
 20 40  1  0
M  CHG  1  12   1
M  END
$$$$
