
     RDKit          3D

 61 65  0  0  0  0  0  0  0  0999 V2000
   -5.2674   -3.4406   -1.2100 C   0  0  0  0  0  0  0  0  0  0  0  0
   -5.6503   -2.2240   -0.5858 O   0  0  0  0  0  0  0  0  0  0  0  0
   -4.6511   -1.3735   -0.1815 C   0  0  0  0  0  0  0  0  0  0  0  0
   -3.2876   -1.6716   -0.2458 C   0  0  0  0  0  0  0  0  0  0  0  0
   -2.3417   -0.7421    0.1969 C   0  0  0  0  0  0  0  0  0  0  0  0
   -2.7368    0.5016    0.7067 C   0  0  0  0  0  0  0  0  0  0  0  0
   -1.7180    1.4471    1.1541 C   0  0  0  0  0  0  0  0  0  0  0  0
   -0.4110    1.2878    1.2256 N   0  0  0  0  0  0  0  0  0  0  0  0
    0.0654    2.4950    1.6912 C   0  0  0  0  0  0  0  0  0  0  0  0
    1.5200    2.7103    1.9068 C   0  0  0  0  0  0  0  0  0  0  0  0
    2.2171    2.8460    0.6378 N   0  0  0  0  0  0  0  0  0  0  0  0
    2.8280    1.8566   -0.0935 C   0  0  0  0  0  0  0  0  0  0  0  0
    2.8768    0.1969    0.3990 S   0  0  0  0  0  0  0  0  0  0  0  0
    3.4270   -0.5881   -1.1450 C   0  0  0  0  0  0  0  0  0  0  0  0
    3.4667   -2.0917   -1.0113 C   0  0  0  0  0  0  0  0  0  0  0  0
    4.6290   -2.7382   -0.5670 C   0  0  0  0  0  0  0  0  0  0  0  0
    4.6596   -4.1287   -0.4294 C   0  0  0  0  0  0  0  0  0  0  0  0
    3.5319   -4.8991   -0.7379 C   0  0  0  0  0  0  0  0  0  0  0  0
    3.5544   -6.3885   -0.5567 C   0  0  0  0  0  0  0  0  0  0  0  0
    2.3637   -4.2539   -1.1612 C   0  0  0  0  0  0  0  0  0  0  0  0
    2.3316   -2.8633   -1.2988 C   0  0  0  0  0  0  0  0  0  0  0  0
    3.3783    2.3237   -1.1905 N   0  0  0  0  0  0  0  0  0  0  0  0
    3.1262    3.6710   -1.1769 C   0  0  0  0  0  0  0  0  0  0  0  0
    3.4880    4.6468   -2.1047 C   0  0  0  0  0  0  0  0  0  0  0  0
    3.0912    5.9387   -1.8033 C   0  0  0  0  0  0  0  0  0  0  0  0
    2.3987    6.2974   -0.6969 N   0  0  0  0  0  0  0  0  0  0  0  0
    2.0468    5.3487    0.2006 C   0  0  0  0  0  0  0  0  0  0  0  0
    2.4102    4.0323   -0.0410 C   0  0  0  0  0  0  0  0  0  0  0  0
   -0.9996    3.3465    1.9054 C   0  0  0  0  0  0  0  0  0  0  0  0
   -1.1581    4.7288    2.3878 C   0  0  0  0  0  0  0  0  0  0  0  0
   -2.1449    2.6836    1.5609 O   0  0  0  0  0  0  0  0  0  0  0  0
   -4.1075    0.7969    0.7717 C   0  0  0  0  0  0  0  0  0  0  0  0
   -5.0656   -0.1303    0.3385 C   0  0  0  0  0  0  0  0  0  0  0  0
   -6.4217    0.0849    0.3711 O   0  0  0  0  0  0  0  0  0  0  0  0
   -6.8878    1.2717    0.9982 C   0  0  0  0  0  0  0  0  0  0  0  0
   -4.6911   -3.2523   -2.1205 H   0  0  0  0  0  0  0  0  0  0  0  0
   -6.1795   -3.9716   -1.4983 H   0  0  0  0  0  0  0  0  0  0  0  0
   -4.7162   -4.0826   -0.5168 H   0  0  0  0  0  0  0  0  0  0  0  0
   -2.9242   -2.6191   -0.6303 H   0  0  0  0  0  0  0  0  0  0  0  0
   -1.2828   -0.9946    0.1404 H   0  0  0  0  0  0  0  0  0  0  0  0
    1.7073    3.6191    2.4891 H   0  0  0  0  0  0  0  0  0  0  0  0
    1.9590    1.8834    2.4731 H   0  0  0  0  0  0  0  0  0  0  0  0
    2.7497   -0.3132   -1.9629 H   0  0  0  0  0  0  0  0  0  0  0  0
    4.4233   -0.2164   -1.4140 H   0  0  0  0  0  0  0  0  0  0  0  0
    5.5179   -2.1594   -0.3203 H   0  0  0  0  0  0  0  0  0  0  0  0
    5.5710   -4.6063   -0.0760 H   0  0  0  0  0  0  0  0  0  0  0  0
    3.2378   -6.6492    0.4591 H   0  0  0  0  0  0  0  0  0  0  0  0
    2.8852   -6.8777   -1.2736 H   0  0  0  0  0  0  0  0  0  0  0  0
    4.5607   -6.7870   -0.7275 H   0  0  0  0  0  0  0  0  0  0  0  0
    1.4684   -4.8304   -1.3850 H   0  0  0  0  0  0  0  0  0  0  0  0
    1.4124   -2.3824   -1.6275 H   0  0  0  0  0  0  0  0  0  0  0  0
    4.0435    4.4047   -2.9998 H   0  0  0  0  0  0  0  0  0  0  0  0
    3.3328    6.7583   -2.4753 H   0  0  0  0  0  0  0  0  0  0  0  0
    1.4953    5.6818    1.0692 H   0  0  0  0  0  0  0  0  0  0  0  0
   -2.0698    4.8306    2.9833 H   0  0  0  0  0  0  0  0  0  0  0  0
   -1.2206    5.4203    1.5433 H   0  0  0  0  0  0  0  0  0  0  0  0
   -0.3126    5.0279    3.0146 H   0  0  0  0  0  0  0  0  0  0  0  0
   -4.4098    1.7625    1.1641 H   0  0  0  0  0  0  0  0  0  0  0  0
   -6.5599    1.3264    2.0420 H   0  0  0  0  0  0  0  0  0  0  0  0
   -7.9812    1.2427    0.9960 H   0  0  0  0  0  0  0  0  0  0  0  0
   -6.5779    2.1599    0.4387 H   0  0  0  0  0  0  0  0  0  0  0  0
  1  2  1  0
  2  3  1  0
  3  4  2  0
  4  5  1  0
  5  6  2  0
  6  7  1  0
  7  8  2  0
  8  9  1  0
  9 10  1  0
 10 11  1  0
 11 12  1  0
 12 13  1  0
 13 14  1  0
 14 15  1  0
 15 16  2  0
 16 17  1  0
 17 18  2  0
 18 19  1  0
 18 20  1  0
 20 21  2  0
 12 22  2  0
 22 23  1  0
 23 24  2  0
 24 25  1  0
 25 26  2  0
 26 27  1  0
 27 28  2  0
  9 29  2  0
 29 30  1  0
 29 31  1  0
  6 32  1  0
 32 33  2  0
 33 34  1  0
 34 35  1  0
 33  3  1  0
 31  7  1  0
 28 11  1  0
 21 15  1  0
 28 23  1  0
  1 36  1  0
  1 37  1  0
  1 38  1  0
  4 39  1  0
  5 40  1  0
 10 41  1  0
 10 42  1  0
 14 43  1  0
 14 44  1  0
 16 45  1  0
 17 46  1  0
 19 47  1  0
 19 48  1  0
 19 49  1  0
 20 50  1  0
 21 51  1  0
 24 52  1  0
 25 53  1  0
 27 54  1  0
 30 55  1  0
 30 56  1  0
 30 57  1  0
 32 58  1  0
 35 59  1  0
 35 60  1  0
 35 61  1  0
M  END
$$$$
