
     RDKit          3D

 58 61  0  0  0  0  0  0  0  0999 V2000
    5.4127   -2.5041   -4.6967 C   0  0  0  0  0  0  0  0  0  0  0  0
    5.3280   -2.5833   -3.1948 C   0  0  0  0  0  0  0  0  0  0  0  0
    6.0954   -3.5591   -2.5438 C   0  0  0  0  0  0  0  0  0  0  0  0
    6.0578   -3.6844   -1.1612 C   0  0  0  0  0  0  0  0  0  0  0  0
    5.2524   -2.8358   -0.4048 C   0  0  0  0  0  0  0  0  0  0  0  0
    4.4762   -1.8458   -1.0160 C   0  0  0  0  0  0  0  0  0  0  0  0
    3.6441   -0.9771   -0.2636 N   0  0  0  0  0  0  0  0  0  0  0  0
    3.5106   -0.9076    1.1135 C   0  0  0  0  0  0  0  0  0  0  0  0
    4.1090   -1.5608    1.9580 O   0  0  0  0  0  0  0  0  0  0  0  0
    2.5226    0.1192    1.5443 C   0  0  0  0  0  0  0  0  0  0  0  0
    2.9722    1.1304    2.4347 C   0  0  0  0  0  0  0  0  0  0  0  0
    3.3444    1.9763    3.1375 N   0  0  0  0  0  0  0  0  0  0  0  0
    1.2497   -0.0293    1.1314 C   0  0  0  0  0  0  0  0  0  0  0  0
    0.1502    0.8251    1.4358 C   0  0  0  0  0  0  0  0  0  0  0  0
   -1.0021    0.3775    2.0403 C   0  0  0  0  0  0  0  0  0  0  0  0
   -1.8436    1.4532    2.1817 N   0  0  0  0  0  0  0  0  0  0  0  0
   -3.1463    1.4014    2.8292 C   0  0  0  0  0  0  0  0  0  0  0  0
   -4.2902    1.5497    1.8471 C   0  0  0  0  0  0  0  0  0  0  0  0
   -5.1127    2.4595    1.9392 O   0  0  0  0  0  0  0  0  0  0  0  0
   -4.3591    0.5707    0.8810 N   0  0  0  0  0  0  0  0  0  0  0  0
   -5.4701    0.4841   -0.0388 C   0  0  0  0  0  0  0  0  0  0  0  0
   -6.4725   -0.4446    0.5352 C   0  0  0  0  0  0  0  0  0  0  0  0
   -7.6258   -0.2573    1.2664 C   0  0  0  0  0  0  0  0  0  0  0  0
   -8.1426   -1.5473    1.5356 C   0  0  0  0  0  0  0  0  0  0  0  0
   -7.2717   -2.4378    0.9560 C   0  0  0  0  0  0  0  0  0  0  0  0
   -6.2503   -1.7785    0.3496 O   0  0  0  0  0  0  0  0  0  0  0  0
   -1.2643    2.5875    1.6489 C   0  0  0  0  0  0  0  0  0  0  0  0
   -1.7455    3.9033    1.5495 C   0  0  0  0  0  0  0  0  0  0  0  0
   -0.9270    4.8603    0.9457 C   0  0  0  0  0  0  0  0  0  0  0  0
    0.3282    4.5192    0.4549 C   0  0  0  0  0  0  0  0  0  0  0  0
    0.7993    3.2058    0.5560 C   0  0  0  0  0  0  0  0  0  0  0  0
   -0.0030    2.2179    1.1678 C   0  0  0  0  0  0  0  0  0  0  0  0
    4.5133   -1.7084   -2.4310 C   0  0  0  0  0  0  0  0  0  0  0  0
    3.6891   -0.6426   -3.1161 C   0  0  0  0  0  0  0  0  0  0  0  0
    6.0672   -3.2814   -5.1063 H   0  0  0  0  0  0  0  0  0  0  0  0
    4.4234   -2.6483   -5.1426 H   0  0  0  0  0  0  0  0  0  0  0  0
    5.8225   -1.5365   -5.0034 H   0  0  0  0  0  0  0  0  0  0  0  0
    6.7329   -4.2333   -3.1123 H   0  0  0  0  0  0  0  0  0  0  0  0
    6.6565   -4.4438   -0.6660 H   0  0  0  0  0  0  0  0  0  0  0  0
    5.2562   -2.9822    0.6704 H   0  0  0  0  0  0  0  0  0  0  0  0
    3.1136   -0.3053   -0.8007 H   0  0  0  0  0  0  0  0  0  0  0  0
    0.9966   -0.9078    0.5376 H   0  0  0  0  0  0  0  0  0  0  0  0
   -1.2813   -0.6047    2.4020 H   0  0  0  0  0  0  0  0  0  0  0  0
   -3.2414    0.4481    3.3586 H   0  0  0  0  0  0  0  0  0  0  0  0
   -3.1802    2.2076    3.5695 H   0  0  0  0  0  0  0  0  0  0  0  0
   -3.7503   -0.2351    0.9386 H   0  0  0  0  0  0  0  0  0  0  0  0
   -5.0841    0.0963   -0.9873 H   0  0  0  0  0  0  0  0  0  0  0  0
   -5.9004    1.4743   -0.2176 H   0  0  0  0  0  0  0  0  0  0  0  0
   -8.0346    0.6959    1.5698 H   0  0  0  0  0  0  0  0  0  0  0  0
   -9.0387   -1.7960    2.0871 H   0  0  0  0  0  0  0  0  0  0  0  0
   -7.2367   -3.5163    0.8905 H   0  0  0  0  0  0  0  0  0  0  0  0
   -2.7259    4.1835    1.9252 H   0  0  0  0  0  0  0  0  0  0  0  0
   -1.2787    5.8864    0.8608 H   0  0  0  0  0  0  0  0  0  0  0  0
    0.9520    5.2801   -0.0071 H   0  0  0  0  0  0  0  0  0  0  0  0
    1.7841    2.9635    0.1692 H   0  0  0  0  0  0  0  0  0  0  0  0
    3.9536    0.3465   -2.7274 H   0  0  0  0  0  0  0  0  0  0  0  0
    2.6246   -0.8299   -2.9492 H   0  0  0  0  0  0  0  0  0  0  0  0
    3.8409   -0.5990   -4.1958 H   0  0  0  0  0  0  0  0  0  0  0  0
  1  2  1  0
  2  3  2  0
  3  4  1  0
  4  5  2  0
  5  6  1  0
  6  7  1  0
  7  8  1  0
  8  9  2  0
  8 10  1  0
 10 11  1  0
 11 12  3  0
 10 13  2  3
 13 14  1  0
 14 15  2  0
 15 16  1  0
 16 17  1  0
 17 18  1  0
 18 19  2  0
 18 20  1  0
 20 21  1  0
 21 22  1  0
 22 23  2  0
 23 24  1  0
 24 25  2  0
 25 26  1  0
 16 27  1  0
 27 28  2  0
 28 29  1  0
 29 30  2  0
 30 31  1  0
 31 32  2  0
  6 33  2  0
 33 34  1  0
 33  2  1  0
 32 14  1  0
 26 22  1  0
 32 27  1  0
  1 35  1  0
  1 36  1  0
  1 37  1  0
  3 38  1  0
  4 39  1  0
  5 40  1  0
  7 41  1  0
 13 42  1  0
 15 43  1  0
 17 44  1  0
 17 45  1  0
 20 46  1  0
 21 47  1  0
 21 48  1  0
 23 49  1  0
 24 50  1  0
 25 51  1  0
 28 52  1  0
 29 53  1  0
 30 54  1  0
 31 55  1  0
 34 56  1  0
 34 57  1  0
 34 58  1  0
M  END
$$$$
