
     RDKit          3D

 29 29  0  0  0  0  0  0  0  0999 V2000
   -0.9971   -2.2910   -1.7077 C   0  0  0  0  0  0  0  0  0  0  0  0
   -1.9189   -2.2094   -0.9414 C   0  0  0  0  0  0  0  0  0  0  0  0
   -3.0427   -2.1096    0.0004 C   0  0  0  0  0  0  0  0  0  0  0  0
   -2.6782   -1.3701    1.2098 N   0  0  0  0  0  0  0  0  0  0  0  0
   -2.8974    0.0722    1.1304 C   0  0  0  0  0  0  0  0  0  0  0  0
   -1.9731    0.8736    0.2126 C   0  0  0  0  0  0  0  0  0  0  0  0
   -0.4975    0.7863    0.5968 C   0  0  0  0  0  0  0  0  0  0  0  0
    0.2375    1.6360   -0.2961 O   0  0  0  0  0  0  0  0  0  0  0  0
    1.5512    1.2573   -0.4002 C   0  0  0  0  0  0  0  0  0  0  0  0
    2.3921    1.2942    0.7167 C   0  0  0  0  0  0  0  0  0  0  0  0
    3.7352    0.9288    0.5866 C   0  0  0  0  0  0  0  0  0  0  0  0
    4.2342    0.5457   -0.6597 C   0  0  0  0  0  0  0  0  0  0  0  0
    5.8899    0.0913   -0.8102 Cl  0  0  0  0  0  0  0  0  0  0  0  0
    3.4086    0.5361   -1.7838 C   0  0  0  0  0  0  0  0  0  0  0  0
    2.0662    0.8978   -1.6531 C   0  0  0  0  0  0  0  0  0  0  0  0
    1.0644    0.8665   -3.0592 Cl  0  0  0  0  0  0  0  0  0  0  0  0
   -0.1804   -2.3534   -2.3895 H   0  0  0  0  0  0  0  0  0  0  0  0
   -3.3256   -3.1248    0.3038 H   0  0  0  0  0  0  0  0  0  0  0  0
   -3.9293   -1.6790   -0.4851 H   0  0  0  0  0  0  0  0  0  0  0  0
   -1.7232   -1.6023    1.4789 H   0  0  0  0  0  0  0  0  0  0  0  0
   -2.8014    0.4713    2.1467 H   0  0  0  0  0  0  0  0  0  0  0  0
   -3.9379    0.2653    0.8438 H   0  0  0  0  0  0  0  0  0  0  0  0
   -2.1051    0.5774   -0.8358 H   0  0  0  0  0  0  0  0  0  0  0  0
   -2.2798    1.9283    0.2470 H   0  0  0  0  0  0  0  0  0  0  0  0
   -0.1458   -0.2490    0.5226 H   0  0  0  0  0  0  0  0  0  0  0  0
   -0.3567    1.1408    1.6246 H   0  0  0  0  0  0  0  0  0  0  0  0
    2.0146    1.6195    1.6827 H   0  0  0  0  0  0  0  0  0  0  0  0
    4.3887    0.9495    1.4575 H   0  0  0  0  0  0  0  0  0  0  0  0
    3.8073    0.2504   -2.7542 H   0  0  0  0  0  0  0  0  0  0  0  0
  1  2  3  0
  2  3  1  0
  3  4  1  0
  4  5  1  0
  5  6  1  0
  6  7  1  0
  7  8  1  0
  8  9  1  0
  9 10  2  0
 10 11  1  0
 11 12  2  0
 12 13  1  0
 12 14  1  0
 14 15  2  0
 15 16  1  0
 15  9  1  0
  1 17  1  0
  3 18  1  0
  3 19  1  0
  4 20  1  0
  5 21  1  0
  5 22  1  0
  6 23  1  0
  6 24  1  0
  7 25  1  0
  7 26  1  0
 10 27  1  0
 11 28  1  0
 14 29  1  0
M  END
$$$$
