
     RDKit          3D

 47 50  0  0  0  0  0  0  0  0999 V2000
   -6.0813    1.3042    1.8323 C   0  0  0  0  0  0  0  0  0  0  0  0
   -6.1224    0.9284    0.3594 C   0  0  0  0  0  0  0  0  0  0  0  0
   -4.8133    0.3045   -0.1190 C   0  0  0  0  0  0  0  0  0  0  0  0
   -4.5963   -0.9159    0.5997 O   0  0  0  0  0  0  0  0  0  0  0  0
   -3.2631   -1.1978    0.7706 C   0  0  0  0  0  0  0  0  0  0  0  0
   -2.8495   -1.3534    2.0954 C   0  0  0  0  0  0  0  0  0  0  0  0
   -1.5196   -1.6546    2.3821 C   0  0  0  0  0  0  0  0  0  0  0  0
   -0.5965   -1.8090    1.3450 C   0  0  0  0  0  0  0  0  0  0  0  0
    0.7855   -2.1730    1.6810 C   0  0  0  0  0  0  0  0  0  0  0  0
    1.9082   -1.5323    1.3201 C   0  0  0  0  0  0  0  0  0  0  0  0
    3.4968   -2.1319    1.8143 S   0  0  0  0  0  0  0  0  0  0  0  0
    4.2433   -0.8412    0.9731 C   0  0  0  0  0  0  0  0  0  0  0  0
    5.4686   -0.4642    0.7543 N   0  0  0  0  0  0  0  0  0  0  0  0
    5.2755    0.6672   -0.0246 C   0  0  0  0  0  0  0  0  0  0  0  0
    6.4704    1.5119   -0.5776 C   0  0  0  0  0  0  0  0  0  0  0  0
    6.3649    2.6463   -1.3607 C   0  0  0  0  0  0  0  0  0  0  0  0
    7.6857    3.0790   -1.6330 C   0  0  0  0  0  0  0  0  0  0  0  0
    8.5161    2.1817   -1.0033 C   0  0  0  0  0  0  0  0  0  0  0  0
    7.7918    1.2307   -0.3606 O   0  0  0  0  0  0  0  0  0  0  0  0
    3.9861    0.9791   -0.2752 N   0  0  0  0  0  0  0  0  0  0  0  0
    3.3608   -0.0138    0.3823 N   0  0  0  0  0  0  0  0  0  0  0  0
    2.0123   -0.2782    0.5012 C   0  0  0  0  0  0  0  0  0  0  0  0
    1.1514    0.4181   -0.0013 O   0  0  0  0  0  0  0  0  0  0  0  0
   -1.0301   -1.6970    0.0142 C   0  0  0  0  0  0  0  0  0  0  0  0
   -2.3624   -1.3904   -0.2886 C   0  0  0  0  0  0  0  0  0  0  0  0
   -2.8748   -1.2815   -1.5521 O   0  0  0  0  0  0  0  0  0  0  0  0
   -2.0252   -1.4503   -2.6852 C   0  0  0  0  0  0  0  0  0  0  0  0
   -1.3184   -0.1526   -3.0327 C   0  0  0  0  0  0  0  0  0  0  0  0
   -7.0204    1.7857    2.1237 H   0  0  0  0  0  0  0  0  0  0  0  0
   -5.2625    1.9997    2.0388 H   0  0  0  0  0  0  0  0  0  0  0  0
   -5.9494    0.4186    2.4628 H   0  0  0  0  0  0  0  0  0  0  0  0
   -6.9422    0.2192    0.2068 H   0  0  0  0  0  0  0  0  0  0  0  0
   -6.3416    1.8226   -0.2349 H   0  0  0  0  0  0  0  0  0  0  0  0
   -4.9081    0.0755   -1.1842 H   0  0  0  0  0  0  0  0  0  0  0  0
   -3.9933    1.0181    0.0290 H   0  0  0  0  0  0  0  0  0  0  0  0
   -3.5677   -1.2350    2.9008 H   0  0  0  0  0  0  0  0  0  0  0  0
   -1.2162   -1.7621    3.4214 H   0  0  0  0  0  0  0  0  0  0  0  0
    0.8555   -3.0638    2.3059 H   0  0  0  0  0  0  0  0  0  0  0  0
    5.4402    3.0994   -1.6916 H   0  0  0  0  0  0  0  0  0  0  0  0
    7.9939    3.9355   -2.2168 H   0  0  0  0  0  0  0  0  0  0  0  0
    9.5902    2.0840   -0.9211 H   0  0  0  0  0  0  0  0  0  0  0  0
   -0.3061   -1.8531   -0.7766 H   0  0  0  0  0  0  0  0  0  0  0  0
   -2.6798   -1.7183   -3.5224 H   0  0  0  0  0  0  0  0  0  0  0  0
   -1.3338   -2.2909   -2.5713 H   0  0  0  0  0  0  0  0  0  0  0  0
   -2.0447    0.6532   -3.1763 H   0  0  0  0  0  0  0  0  0  0  0  0
   -0.6460    0.1648   -2.2309 H   0  0  0  0  0  0  0  0  0  0  0  0
   -0.7326   -0.2674   -3.9497 H   0  0  0  0  0  0  0  0  0  0  0  0
  1  2  1  0
  2  3  1  0
  3  4  1  0
  4  5  1  0
  5  6  2  0
  6  7  1  0
  7  8  2  0
  8  9  1  0
  9 10  2  3
 10 11  1  0
 11 12  1  0
 12 13  2  0
 13 14  1  0
 14 15  1  0
 15 16  2  0
 16 17  1  0
 17 18  2  0
 18 19  1  0
 14 20  2  0
 20 21  1  0
 21 22  1  0
 22 23  2  0
  8 24  1  0
 24 25  2  0
 25 26  1  0
 26 27  1  0
 27 28  1  0
 25  5  1  0
 22 10  1  0
 21 12  1  0
 19 15  1  0
  1 29  1  0
  1 30  1  0
  1 31  1  0
  2 32  1  0
  2 33  1  0
  3 34  1  0
  3 35  1  0
  6 36  1  0
  7 37  1  0
  9 38  1  0
 16 39  1  0
 17 40  1  0
 18 41  1  0
 24 42  1  0
 27 43  1  0
 27 44  1  0
 28 45  1  0
 28 46  1  0
 28 47  1  0
M  END
$$$$
