
     RDKit          3D

 43 45  0  0  0  0  0  0  0  0999 V2000
    7.4437   -2.0447   -1.6201 O   0  0  0  0  0  0  0  0  0  0  0  0
    8.0078   -1.4652   -0.7079 C   0  0  0  0  0  0  0  0  0  0  0  0
    9.3581   -1.4137   -0.6797 O   0  0  0  0  0  0  0  0  0  0  0  0
    7.3976   -0.7825    0.4917 C   0  0  0  0  0  0  0  0  0  0  0  0
    5.9031   -0.5902    0.3969 C   0  0  0  0  0  0  0  0  0  0  0  0
    5.0291   -1.6531    0.6495 C   0  0  0  0  0  0  0  0  0  0  0  0
    3.6458   -1.4716    0.5524 C   0  0  0  0  0  0  0  0  0  0  0  0
    3.1086   -0.2279    0.1992 C   0  0  0  0  0  0  0  0  0  0  0  0
    1.7028   -0.1294    0.1293 N   0  0  0  0  0  0  0  0  0  0  0  0
    0.9558    0.9694   -0.2542 C   0  0  0  0  0  0  0  0  0  0  0  0
    1.3792    2.0445   -0.6616 O   0  0  0  0  0  0  0  0  0  0  0  0
   -0.5215    0.7774   -0.1911 C   0  0  0  0  0  0  0  0  0  0  0  0
   -1.3201    1.4179   -1.1428 C   0  0  0  0  0  0  0  0  0  0  0  0
   -2.7097    1.2616   -1.1157 C   0  0  0  0  0  0  0  0  0  0  0  0
   -3.3231    0.4707   -0.1348 C   0  0  0  0  0  0  0  0  0  0  0  0
   -4.7295    0.3678   -0.1837 N   0  0  0  0  0  0  0  0  0  0  0  0
   -5.5600   -0.3827    0.6405 C   0  0  0  0  0  0  0  0  0  0  0  0
   -5.1555   -1.1077    1.5449 O   0  0  0  0  0  0  0  0  0  0  0  0
   -6.9800   -0.2471    0.3335 C   0  0  0  0  0  0  0  0  0  0  0  0
   -7.7007    0.5231   -0.5671 C   0  0  0  0  0  0  0  0  0  0  0  0
   -9.0702    0.2050   -0.3841 C   0  0  0  0  0  0  0  0  0  0  0  0
   -9.1122   -0.7361    0.6140 C   0  0  0  0  0  0  0  0  0  0  0  0
   -7.8612   -1.0150    1.0538 O   0  0  0  0  0  0  0  0  0  0  0  0
   -2.5212   -0.1491    0.8265 C   0  0  0  0  0  0  0  0  0  0  0  0
   -1.1284    0.0054    0.8045 C   0  0  0  0  0  0  0  0  0  0  0  0
    3.9795    0.8314   -0.0533 C   0  0  0  0  0  0  0  0  0  0  0  0
    5.3649    0.6517    0.0402 C   0  0  0  0  0  0  0  0  0  0  0  0
    9.6243   -1.8896   -1.4948 H   0  0  0  0  0  0  0  0  0  0  0  0
    7.8814    0.1940    0.6151 H   0  0  0  0  0  0  0  0  0  0  0  0
    7.6288   -1.3782    1.3826 H   0  0  0  0  0  0  0  0  0  0  0  0
    5.4174   -2.6342    0.9145 H   0  0  0  0  0  0  0  0  0  0  0  0
    2.9986   -2.3215    0.7520 H   0  0  0  0  0  0  0  0  0  0  0  0
    1.1989   -0.9850    0.3211 H   0  0  0  0  0  0  0  0  0  0  0  0
   -0.8611    2.0394   -1.9098 H   0  0  0  0  0  0  0  0  0  0  0  0
   -3.2988    1.7705   -1.8746 H   0  0  0  0  0  0  0  0  0  0  0  0
   -5.1767    0.8901   -0.9221 H   0  0  0  0  0  0  0  0  0  0  0  0
   -7.3049    1.2373   -1.2742 H   0  0  0  0  0  0  0  0  0  0  0  0
   -9.9213    0.6126   -0.9118 H   0  0  0  0  0  0  0  0  0  0  0  0
   -9.9101   -1.2783    1.1028 H   0  0  0  0  0  0  0  0  0  0  0  0
   -2.9457   -0.7523    1.6236 H   0  0  0  0  0  0  0  0  0  0  0  0
   -0.5431   -0.4604    1.5930 H   0  0  0  0  0  0  0  0  0  0  0  0
    3.6144    1.8160   -0.3278 H   0  0  0  0  0  0  0  0  0  0  0  0
    6.0153    1.4982   -0.1704 H   0  0  0  0  0  0  0  0  0  0  0  0
  1  2  2  0
  2  3  1  0
  2  4  1  0
  4  5  1  0
  5  6  2  0
  6  7  1  0
  7  8  2  0
  8  9  1  0
  9 10  1  0
 10 11  2  0
 10 12  1  0
 12 13  2  0
 13 14  1  0
 14 15  2  0
 15 16  1  0
 16 17  1  0
 17 18  2  0
 17 19  1  0
 19 20  2  0
 20 21  1  0
 21 22  2  0
 22 23  1  0
 15 24  1  0
 24 25  2  0
  8 26  1  0
 26 27  2  0
 27  5  1  0
 25 12  1  0
 23 19  1  0
  3 28  1  0
  4 29  1  0
  4 30  1  0
  6 31  1  0
  7 32  1  0
  9 33  1  0
 13 34  1  0
 14 35  1  0
 16 36  1  0
 20 37  1  0
 21 38  1  0
 22 39  1  0
 24 40  1  0
 25 41  1  0
 26 42  1  0
 27 43  1  0
M  END
$$$$
