
     RDKit          3D

 33 34  0  0  0  0  0  0  0  0999 V2000
   -1.1857    2.4098    1.0646 C   0  0  0  0  0  0  0  0  0  0  0  0
   -1.8620    1.8071   -0.1597 C   0  0  0  0  0  0  0  0  0  0  0  0
   -1.6161    0.3619   -0.3334 N   0  0  0  0  0  0  0  0  0  0  0  0
   -2.2576   -0.5560    0.6219 C   0  0  0  0  0  0  0  0  0  0  0  0
   -3.7521   -0.6596    0.3404 C   0  0  0  0  0  0  0  0  0  0  0  0
   -0.2723    0.0605   -0.6944 C   0  0  0  0  0  0  0  0  0  0  0  0
    0.0514    0.2907   -2.0488 C   0  0  0  0  0  0  0  0  0  0  0  0
    1.3198    0.0307   -2.5380 C   0  0  0  0  0  0  0  0  0  0  0  0
    2.2801   -0.4590   -1.6550 C   0  0  0  0  0  0  0  0  0  0  0  0
    3.5985   -0.7053   -2.2087 N   0  0  0  0  0  4  0  0  0  0  0  0
    3.6841   -1.5671   -3.0933 O   0  0  0  0  0  0  0  0  0  0  0  0
    4.5353   -0.0236   -1.7720 O   0  0  0  0  0  1  0  0  0  0  0  0
    2.0157   -0.7088   -0.2846 C   0  0  0  0  0  0  0  0  0  0  0  0
    2.9704   -1.2179    0.6330 C   0  0  0  0  0  0  0  0  0  0  0  0
    2.6447   -1.4217    1.9654 C   0  0  0  0  0  0  0  0  0  0  0  0
    1.3659   -1.1136    2.3576 C   0  0  0  0  0  0  0  0  0  0  0  0
    0.4251   -0.6382    1.5170 N   0  0  0  0  0  0  0  0  0  0  0  0
    0.7143   -0.4396    0.2064 C   0  0  0  0  0  0  0  0  0  0  0  0
   -0.0957    2.3403    1.0008 H   0  0  0  0  0  0  0  0  0  0  0  0
   -1.4433    3.4709    1.1462 H   0  0  0  0  0  0  0  0  0  0  0  0
   -1.5047    1.9191    1.9885 H   0  0  0  0  0  0  0  0  0  0  0  0
   -1.5402    2.3558   -1.0539 H   0  0  0  0  0  0  0  0  0  0  0  0
   -2.9407    1.9842   -0.0879 H   0  0  0  0  0  0  0  0  0  0  0  0
   -1.8501   -1.5694    0.5146 H   0  0  0  0  0  0  0  0  0  0  0  0
   -2.1063   -0.2377    1.6585 H   0  0  0  0  0  0  0  0  0  0  0  0
   -4.2672    0.2854    0.5367 H   0  0  0  0  0  0  0  0  0  0  0  0
   -4.2041   -1.4228    0.9820 H   0  0  0  0  0  0  0  0  0  0  0  0
   -3.9372   -0.9358   -0.7030 H   0  0  0  0  0  0  0  0  0  0  0  0
   -0.7187    0.6577   -2.7251 H   0  0  0  0  0  0  0  0  0  0  0  0
    1.5461    0.2046   -3.5871 H   0  0  0  0  0  0  0  0  0  0  0  0
    3.9861   -1.4560    0.3219 H   0  0  0  0  0  0  0  0  0  0  0  0
    3.3715   -1.8041    2.6727 H   0  0  0  0  0  0  0  0  0  0  0  0
    1.0450   -1.2428    3.3871 H   0  0  0  0  0  0  0  0  0  0  0  0
  1  2  1  0
  2  3  1  0
  3  4  1  0
  4  5  1  0
  3  6  1  0
  6  7  2  0
  7  8  1  0
  8  9  2  0
  9 10  1  0
 10 11  2  0
 10 12  1  0
  9 13  1  0
 13 14  2  0
 14 15  1  0
 15 16  2  0
 16 17  1  0
 17 18  2  0
 18  6  1  0
 18 13  1  0
  1 19  1  0
  1 20  1  0
  1 21  1  0
  2 22  1  0
  2 23  1  0
  4 24  1  0
  4 25  1  0
  5 26  1  0
  5 27  1  0
  5 28  1  0
  7 29  1  0
  8 30  1  0
 14 31  1  0
 15 32  1  0
 16 33  1  0
M  CHG  2  10   1  12  -1
M  END
$$$$
