
     RDKit          3D

 36 37  0  0  0  0  0  0  0  0999 V2000
   -2.8974   -0.0568    2.6144 C   0  0  0  0  0  0  0  0  0  0  0  0
   -2.2870   -1.4999    1.6816 S   0  0  0  0  0  0  0  0  0  0  0  0
   -3.1113   -1.1878    0.1099 C   0  0  0  0  0  0  0  0  0  0  0  0
   -4.4536   -1.6153    0.0522 C   0  0  0  0  0  0  0  0  0  0  0  0
   -5.2325   -1.4079   -1.0835 C   0  0  0  0  0  0  0  0  0  0  0  0
   -4.6836   -0.7658   -2.1830 C   0  0  0  0  0  0  0  0  0  0  0  0
   -3.3512   -0.3499   -2.1432 C   0  0  0  0  0  0  0  0  0  0  0  0
   -2.5373   -0.5632   -1.0121 C   0  0  0  0  0  0  0  0  0  0  0  0
   -1.1237   -0.0489   -1.1341 C   0  0  0  0  0  0  0  0  0  0  0  0
   -0.8642    0.7117   -2.0622 O   0  0  0  0  0  0  0  0  0  0  0  0
   -0.2173   -0.4784   -0.1914 N   0  0  0  0  0  0  0  0  0  0  0  0
    1.1454   -0.1346   -0.0659 C   0  0  0  0  0  0  0  0  0  0  0  0
    1.8356   -0.6536    1.0363 C   0  0  0  0  0  0  0  0  0  0  0  0
    3.1833   -0.3479    1.2454 C   0  0  0  0  0  0  0  0  0  0  0  0
    3.8704    0.4927    0.3646 C   0  0  0  0  0  0  0  0  0  0  0  0
    5.3218    0.7958    0.6204 C   0  0  0  0  0  0  0  0  0  0  0  0
    3.1899    1.0062   -0.7587 C   0  0  0  0  0  0  0  0  0  0  0  0
    3.8702    1.9198   -1.7434 C   0  0  0  0  0  0  0  0  0  0  0  0
    1.8338    0.6825   -0.9603 C   0  0  0  0  0  0  0  0  0  0  0  0
   -2.6090   -0.1437    3.6668 H   0  0  0  0  0  0  0  0  0  0  0  0
   -2.4712    0.8704    2.2102 H   0  0  0  0  0  0  0  0  0  0  0  0
   -3.9862    0.0009    2.5684 H   0  0  0  0  0  0  0  0  0  0  0  0
   -4.9125   -2.1078    0.9059 H   0  0  0  0  0  0  0  0  0  0  0  0
   -6.2688   -1.7372   -1.1073 H   0  0  0  0  0  0  0  0  0  0  0  0
   -5.2884   -0.5834   -3.0755 H   0  0  0  0  0  0  0  0  0  0  0  0
   -2.9429    0.1521   -3.0181 H   0  0  0  0  0  0  0  0  0  0  0  0
   -0.5842   -1.0765    0.5374 H   0  0  0  0  0  0  0  0  0  0  0  0
    1.3324   -1.2952    1.7557 H   0  0  0  0  0  0  0  0  0  0  0  0
    3.6912   -0.7667    2.1121 H   0  0  0  0  0  0  0  0  0  0  0  0
    5.9451    0.2735   -0.1083 H   0  0  0  0  0  0  0  0  0  0  0  0
    5.6319    0.4775    1.6210 H   0  0  0  0  0  0  0  0  0  0  0  0
    5.5116    1.8726    0.5610 H   0  0  0  0  0  0  0  0  0  0  0  0
    3.2122    2.1805   -2.5888 H   0  0  0  0  0  0  0  0  0  0  0  0
    4.7630    1.4371   -2.1650 H   0  0  0  0  0  0  0  0  0  0  0  0
    4.1528    2.8603   -1.2449 H   0  0  0  0  0  0  0  0  0  0  0  0
    1.3317    1.0868   -1.8360 H   0  0  0  0  0  0  0  0  0  0  0  0
  1  2  1  0
  2  3  1  0
  3  4  2  0
  4  5  1  0
  5  6  2  0
  6  7  1  0
  7  8  2  0
  8  9  1  0
  9 10  2  0
  9 11  1  0
 11 12  1  0
 12 13  2  0
 13 14  1  0
 14 15  2  0
 15 16  1  0
 15 17  1  0
 17 18  1  0
 17 19  2  0
  8  3  1  0
 19 12  1  0
  1 20  1  0
  1 21  1  0
  1 22  1  0
  4 23  1  0
  5 24  1  0
  6 25  1  0
  7 26  1  0
 11 27  1  0
 13 28  1  0
 14 29  1  0
 16 30  1  0
 16 31  1  0
 16 32  1  0
 18 33  1  0
 18 34  1  0
 18 35  1  0
 19 36  1  0
M  END
$$$$
