
     RDKit          3D

 46 48  0  0  0  0  0  0  0  0999 V2000
   -0.5336    2.0787   -1.6524 C   0  0  0  0  0  0  0  0  0  0  0  0
    0.6059    1.4872   -0.8480 C   0  0  0  0  0  0  0  0  0  0  0  0
    1.9242    1.2267   -1.4987 C   0  0  0  0  0  0  0  0  0  0  0  0
    2.1631    1.2825   -2.8175 C   0  0  0  0  0  0  0  0  0  0  0  0
    3.4794    0.9841   -3.3968 C   0  0  0  0  0  0  0  0  0  0  0  0
    4.1956   -0.1687   -3.0441 C   0  0  0  0  0  0  0  0  0  0  0  0
    5.4252   -0.4482   -3.6449 C   0  0  0  0  0  0  0  0  0  0  0  0
    5.9466    0.4191   -4.6051 C   0  0  0  0  0  0  0  0  0  0  0  0
    5.2389    1.5651   -4.9669 C   0  0  0  0  0  0  0  0  0  0  0  0
    4.0069    1.8433   -4.3700 C   0  0  0  0  0  0  0  0  0  0  0  0
    0.5159    1.1673    0.4134 N   0  0  0  0  0  0  0  0  0  0  0  0
   -0.6784    1.2957    1.0531 N   0  0  0  0  0  0  0  0  0  0  0  0
   -0.7773    1.0157    2.4034 C   0  0  0  0  0  0  0  0  0  0  0  0
    0.1426    0.7621    3.1694 O   0  0  0  0  0  0  0  0  0  0  0  0
   -2.1835    1.0875    2.8965 C   0  0  0  0  0  0  0  0  0  0  0  0
   -2.5542    0.4597    4.2143 C   0  0  0  0  0  0  0  0  0  0  0  0
   -3.0997   -0.1357    2.9292 C   0  0  0  0  0  0  0  0  0  0  0  0
   -4.5648    0.0920    2.6306 C   0  0  0  0  0  0  0  0  0  0  0  0
   -2.5883   -1.5069    2.4968 C   0  0  0  0  0  0  0  0  0  0  0  0
   -2.2352   -1.7747    1.1627 C   0  0  0  0  0  0  0  0  0  0  0  0
   -1.7779   -3.0341    0.7629 C   0  0  0  0  0  0  0  0  0  0  0  0
   -1.6776   -4.0654    1.6912 C   0  0  0  0  0  0  0  0  0  0  0  0
   -2.0396   -3.8372    3.0143 C   0  0  0  0  0  0  0  0  0  0  0  0
   -2.4929   -2.5747    3.4072 C   0  0  0  0  0  0  0  0  0  0  0  0
   -0.1879    2.5840   -2.5543 H   0  0  0  0  0  0  0  0  0  0  0  0
   -1.2309    1.2833   -1.9315 H   0  0  0  0  0  0  0  0  0  0  0  0
   -1.0611    2.8320   -1.0601 H   0  0  0  0  0  0  0  0  0  0  0  0
    2.7101    0.9550   -0.7990 H   0  0  0  0  0  0  0  0  0  0  0  0
    1.3975    1.5433   -3.5404 H   0  0  0  0  0  0  0  0  0  0  0  0
    3.7994   -0.8659   -2.3074 H   0  0  0  0  0  0  0  0  0  0  0  0
    5.9729   -1.3462   -3.3657 H   0  0  0  0  0  0  0  0  0  0  0  0
    6.9031    0.2004   -5.0724 H   0  0  0  0  0  0  0  0  0  0  0  0
    5.6448    2.2424   -5.7152 H   0  0  0  0  0  0  0  0  0  0  0  0
    3.4687    2.7419   -4.6653 H   0  0  0  0  0  0  0  0  0  0  0  0
   -1.5208    1.4569    0.5220 H   0  0  0  0  0  0  0  0  0  0  0  0
   -2.6458    2.0525    2.7021 H   0  0  0  0  0  0  0  0  0  0  0  0
   -1.7726   -0.0652    4.7593 H   0  0  0  0  0  0  0  0  0  0  0  0
   -3.2250    1.0102    4.8632 H   0  0  0  0  0  0  0  0  0  0  0  0
   -4.7425    0.0846    1.5494 H   0  0  0  0  0  0  0  0  0  0  0  0
   -5.1776   -0.6930    3.0877 H   0  0  0  0  0  0  0  0  0  0  0  0
   -4.9148    1.0551    3.0186 H   0  0  0  0  0  0  0  0  0  0  0  0
   -2.3093   -0.9873    0.4159 H   0  0  0  0  0  0  0  0  0  0  0  0
   -1.4936   -3.2025   -0.2727 H   0  0  0  0  0  0  0  0  0  0  0  0
   -1.3155   -5.0443    1.3842 H   0  0  0  0  0  0  0  0  0  0  0  0
   -1.9673   -4.6365    3.7444 H   0  0  0  0  0  0  0  0  0  0  0  0
   -2.7730   -2.4217    4.4461 H   0  0  0  0  0  0  0  0  0  0  0  0
  1  2  1  0
  2  3  1  0
  3  4  2  3
  4  5  1  0
  5  6  2  0
  6  7  1  0
  7  8  2  0
  8  9  1  0
  9 10  2  0
  2 11  2  3
 11 12  1  0
 12 13  1  0
 13 14  2  0
 13 15  1  0
 15 16  1  0
 16 17  1  0
 17 18  1  0
 17 19  1  0
 19 20  2  0
 20 21  1  0
 21 22  2  0
 22 23  1  0
 23 24  2  0
 10  5  1  0
 17 15  1  0
 24 19  1  0
  1 25  1  0
  1 26  1  0
  1 27  1  0
  3 28  1  0
  4 29  1  0
  6 30  1  0
  7 31  1  0
  8 32  1  0
  9 33  1  0
 10 34  1  0
 12 35  1  0
 15 36  1  0
 16 37  1  0
 16 38  1  0
 18 39  1  0
 18 40  1  0
 18 41  1  0
 20 42  1  0
 21 43  1  0
 22 44  1  0
 23 45  1  0
 24 46  1  0
M  END
$$$$
