
     RDKit          3D

 47 48  0  0  0  0  0  0  0  0999 V2000
    8.4333    0.0993   -0.4947 C   0  0  0  0  0  0  0  0  0  0  0  0
    7.9156    0.9843   -1.4773 O   0  0  0  0  0  0  0  0  0  0  0  0
    6.5663    0.9476   -1.7139 C   0  0  0  0  0  0  0  0  0  0  0  0
    5.6645    0.0755   -1.0936 C   0  0  0  0  0  0  0  0  0  0  0  0
    4.2930    0.1182   -1.3962 C   0  0  0  0  0  0  0  0  0  0  0  0
    3.3964   -0.8412   -0.7355 C   0  0  0  0  0  0  0  0  0  0  0  0
    2.1391   -0.5614   -0.3606 C   0  0  0  0  0  0  0  0  0  0  0  0
    1.3145   -1.5998    0.3249 C   0  0  0  0  0  0  0  0  0  0  0  0
    1.7919   -2.6949    0.6235 O   0  0  0  0  0  0  0  0  0  0  0  0
   -0.1472   -1.3058    0.5556 C   0  0  0  0  0  0  0  0  0  0  0  0
   -0.4321   -0.1293    1.4537 C   0  0  0  0  0  0  0  0  0  0  0  0
    0.4360    0.6696    1.8017 O   0  0  0  0  0  0  0  0  0  0  0  0
   -1.8258    0.1170    1.9234 C   0  0  0  0  0  0  0  0  0  0  0  0
   -2.8942   -0.6106    1.5648 C   0  0  0  0  0  0  0  0  0  0  0  0
   -4.2557   -0.3270    2.0463 C   0  0  0  0  0  0  0  0  0  0  0  0
   -4.5100    0.0246    3.3804 C   0  0  0  0  0  0  0  0  0  0  0  0
   -5.8149    0.2598    3.8127 C   0  0  0  0  0  0  0  0  0  0  0  0
   -6.8623    0.1319    2.9116 C   0  0  0  0  0  0  0  0  0  0  0  0
   -8.1327    0.3677    3.3614 O   0  0  0  0  0  0  0  0  0  0  0  0
   -6.6422   -0.2323    1.5793 C   0  0  0  0  0  0  0  0  0  0  0  0
   -7.7747   -0.3240    0.8114 O   0  0  0  0  0  0  0  0  0  0  0  0
   -7.5965   -0.6923   -0.5513 C   0  0  0  0  0  0  0  0  0  0  0  0
   -5.3331   -0.4669    1.1529 C   0  0  0  0  0  0  0  0  0  0  0  0
    3.8345    1.0323   -2.3530 C   0  0  0  0  0  0  0  0  0  0  0  0
    4.7237    1.9068   -2.9803 C   0  0  0  0  0  0  0  0  0  0  0  0
    6.0788    1.8613   -2.6574 C   0  0  0  0  0  0  0  0  0  0  0  0
    6.9522    2.7184   -3.2726 O   0  0  0  0  0  0  0  0  0  0  0  0
    7.9955    0.2995    0.4889 H   0  0  0  0  0  0  0  0  0  0  0  0
    8.2875   -0.9454   -0.7885 H   0  0  0  0  0  0  0  0  0  0  0  0
    9.5108    0.2754   -0.4202 H   0  0  0  0  0  0  0  0  0  0  0  0
    6.0078   -0.6466   -0.3591 H   0  0  0  0  0  0  0  0  0  0  0  0
    3.8227   -1.8219   -0.5277 H   0  0  0  0  0  0  0  0  0  0  0  0
    1.6856    0.4095   -0.5179 H   0  0  0  0  0  0  0  0  0  0  0  0
   -0.6203   -1.1431   -0.4188 H   0  0  0  0  0  0  0  0  0  0  0  0
   -0.5838   -2.2033    1.0095 H   0  0  0  0  0  0  0  0  0  0  0  0
   -1.9138    0.9717    2.5892 H   0  0  0  0  0  0  0  0  0  0  0  0
   -2.8162   -1.4475    0.8768 H   0  0  0  0  0  0  0  0  0  0  0  0
   -3.7006    0.1094    4.1018 H   0  0  0  0  0  0  0  0  0  0  0  0
   -6.0143    0.5347    4.8443 H   0  0  0  0  0  0  0  0  0  0  0  0
   -8.7075    0.2238    2.5846 H   0  0  0  0  0  0  0  0  0  0  0  0
   -8.5842   -0.7202   -1.0214 H   0  0  0  0  0  0  0  0  0  0  0  0
   -6.9943    0.0503   -1.0850 H   0  0  0  0  0  0  0  0  0  0  0  0
   -7.1591   -1.6926   -0.6355 H   0  0  0  0  0  0  0  0  0  0  0  0
   -5.1254   -0.7515    0.1266 H   0  0  0  0  0  0  0  0  0  0  0  0
    2.7844    1.0682   -2.6309 H   0  0  0  0  0  0  0  0  0  0  0  0
    4.3455    2.6078   -3.7175 H   0  0  0  0  0  0  0  0  0  0  0  0
    6.4609    3.2932   -3.8788 H   0  0  0  0  0  0  0  0  0  0  0  0
  1  2  1  0
  2  3  1  0
  3  4  2  0
  4  5  1  0
  5  6  1  0
  6  7  2  3
  7  8  1  0
  8  9  2  0
  8 10  1  0
 10 11  1  0
 11 12  2  0
 11 13  1  0
 13 14  2  3
 14 15  1  0
 15 16  2  0
 16 17  1  0
 17 18  2  0
 18 19  1  0
 18 20  1  0
 20 21  1  0
 21 22  1  0
 20 23  2  0
  5 24  2  0
 24 25  1  0
 25 26  2  0
 26 27  1  0
 26  3  1  0
 23 15  1  0
  1 28  1  0
  1 29  1  0
  1 30  1  0
  4 31  1  0
  6 32  1  0
  7 33  1  0
 10 34  1  0
 10 35  1  0
 13 36  1  0
 14 37  1  0
 16 38  1  0
 17 39  1  0
 19 40  1  0
 22 41  1  0
 22 42  1  0
 22 43  1  0
 23 44  1  0
 24 45  1  0
 25 46  1  0
 27 47  1  0
M  END
$$$$
