
     RDKit          3D

 37 39  0  0  0  0  0  0  0  0999 V2000
    5.0018   -0.3430   -1.4710 N   0  0  0  0  0  0  0  0  0  0  0  0
    3.6723   -0.5933   -0.9297 C   0  0  0  0  0  0  0  0  0  0  0  0
    3.0516    0.6931   -0.3853 C   0  0  0  0  0  0  0  0  0  0  0  0
    1.6904    0.4688    0.2807 C   0  0  0  0  0  0  0  0  0  0  0  0
    0.6011    0.0188   -0.7064 C   0  0  0  0  0  0  0  0  0  0  0  0
   -0.7307   -0.0318   -0.0590 N   0  0  0  0  0  0  0  0  0  0  0  0
   -1.1367   -1.2812    0.4968 C   0  0  0  0  0  0  0  0  0  0  0  0
   -0.2198   -2.3268    0.7540 C   0  0  0  0  0  0  0  0  0  0  0  0
   -0.6066   -3.5524    1.3110 C   0  0  0  0  0  0  0  0  0  0  0  0
   -1.9327   -3.7767    1.6363 C   0  0  0  0  0  0  0  0  0  0  0  0
   -2.8638   -2.7718    1.4045 C   0  0  0  0  0  0  0  0  0  0  0  0
   -2.4787   -1.5360    0.8461 C   0  0  0  0  0  0  0  0  0  0  0  0
   -3.7989   -0.3754    0.5899 S   0  0  0  0  0  0  0  0  0  0  0  0
   -2.9230    1.1043    0.1471 C   0  0  0  0  0  0  0  0  0  0  0  0
   -3.7131    2.2697    0.0705 C   0  0  0  0  0  0  0  0  0  0  0  0
   -3.1556    3.4922   -0.2854 C   0  0  0  0  0  0  0  0  0  0  0  0
   -1.8018    3.5511   -0.5651 C   0  0  0  0  0  0  0  0  0  0  0  0
   -1.0847    5.0551   -0.9990 Cl  0  0  0  0  0  0  0  0  0  0  0  0
   -1.0101    2.4001   -0.4944 C   0  0  0  0  0  0  0  0  0  0  0  0
   -1.5426    1.1382   -0.1432 C   0  0  0  0  0  0  0  0  0  0  0  0
    5.6054    0.0406   -0.7439 H   0  0  0  0  0  0  0  0  0  0  0  0
    4.9542    0.3697   -2.1987 H   0  0  0  0  0  0  0  0  0  0  0  0
    3.7465   -1.3447   -0.1363 H   0  0  0  0  0  0  0  0  0  0  0  0
    3.0522   -1.0174   -1.7252 H   0  0  0  0  0  0  0  0  0  0  0  0
    3.7261    1.1331    0.3606 H   0  0  0  0  0  0  0  0  0  0  0  0
    2.9480    1.4317   -1.1901 H   0  0  0  0  0  0  0  0  0  0  0  0
    1.3928    1.4055    0.7661 H   0  0  0  0  0  0  0  0  0  0  0  0
    1.8002   -0.2572    1.0939 H   0  0  0  0  0  0  0  0  0  0  0  0
    0.5864    0.6787   -1.5835 H   0  0  0  0  0  0  0  0  0  0  0  0
    0.8533   -0.9510   -1.1513 H   0  0  0  0  0  0  0  0  0  0  0  0
    0.8390   -2.2213    0.5441 H   0  0  0  0  0  0  0  0  0  0  0  0
    0.1371   -4.3248    1.4910 H   0  0  0  0  0  0  0  0  0  0  0  0
   -2.2433   -4.7237    2.0684 H   0  0  0  0  0  0  0  0  0  0  0  0
   -3.9052   -2.9562    1.6617 H   0  0  0  0  0  0  0  0  0  0  0  0
   -4.7786    2.2255    0.2899 H   0  0  0  0  0  0  0  0  0  0  0  0
   -3.7779    4.3806   -0.3384 H   0  0  0  0  0  0  0  0  0  0  0  0
    0.0456    2.5279   -0.7065 H   0  0  0  0  0  0  0  0  0  0  0  0
  1  2  1  0
  2  3  1  0
  3  4  1  0
  4  5  1  0
  5  6  1  0
  6  7  1  0
  7  8  2  0
  8  9  1  0
  9 10  2  0
 10 11  1  0
 11 12  2  0
 12 13  1  0
 13 14  1  0
 14 15  2  0
 15 16  1  0
 16 17  2  0
 17 18  1  0
 17 19  1  0
 19 20  2  0
 20  6  1  0
 12  7  1  0
 20 14  1  0
  1 21  1  0
  1 22  1  0
  2 23  1  0
  2 24  1  0
  3 25  1  0
  3 26  1  0
  4 27  1  0
  4 28  1  0
  5 29  1  0
  5 30  1  0
  8 31  1  0
  9 32  1  0
 10 33  1  0
 11 34  1  0
 15 35  1  0
 16 36  1  0
 19 37  1  0
M  END
$$$$
