
     RDKit          3D

 51 55  0  0  0  0  0  0  0  0999 V2000
   -3.2994    2.5297   -2.0440 O   0  0  0  0  0  0  0  0  0  0  0  0
   -3.6754    1.6484   -1.2623 C   0  0  0  0  0  0  0  0  0  0  0  0
   -5.1130    1.6575   -0.6502 C   0  0  0  0  0  0  0  0  0  0  0  0
   -6.0210    2.8834   -0.9544 C   0  0  0  0  0  0  0  0  0  0  0  0
   -6.6412    2.0731   -2.1052 C   0  0  0  0  0  0  0  0  0  0  0  0
   -6.1908    0.7993   -1.3695 C   0  0  0  0  0  0  0  0  0  0  0  0
   -2.8622    0.5899   -0.8656 N   0  0  0  0  0  0  0  0  0  0  0  0
   -3.2421   -0.4689    0.0842 C   0  0  0  0  0  0  0  0  0  0  0  0
   -2.0718   -1.4549    0.1791 C   0  0  0  0  0  0  0  0  0  0  0  0
   -1.0418   -0.8013   -0.6835 C   0  0  0  0  0  0  0  0  0  0  0  0
    0.2492   -1.2475   -0.9264 C   0  0  0  0  0  0  0  0  0  0  0  0
    1.0507   -0.4896   -1.7856 C   0  0  0  0  0  0  0  0  0  0  0  0
    2.7115   -1.0147   -2.1296 S   0  0  0  0  0  6  0  0  0  0  0  0
    2.9634   -0.7562   -3.5318 O   0  0  0  0  0  0  0  0  0  0  0  0
    2.9112   -2.3332   -1.5679 O   0  0  0  0  0  0  0  0  0  0  0  0
    3.6405    0.1093   -1.2710 N   0  0  0  0  0  0  0  0  0  0  0  0
    3.8089   -0.0959    0.1257 C   0  0  0  0  0  0  0  0  0  0  0  0
    2.8632    0.4148    1.0165 C   0  0  0  0  0  0  0  0  0  0  0  0
    2.9971    0.1774    2.3856 C   0  0  0  0  0  0  0  0  0  0  0  0
    4.0700   -0.5770    2.8560 C   0  0  0  0  0  0  0  0  0  0  0  0
    5.0269   -1.0697    1.9617 C   0  0  0  0  0  0  0  0  0  0  0  0
    4.8873   -0.8465    0.5929 C   0  0  0  0  0  0  0  0  0  0  0  0
    6.1239   -1.7913    2.3590 O   0  0  0  0  0  0  0  0  0  0  0  0
    6.3438   -1.6763    3.7695 C   0  0  0  0  0  0  0  0  0  0  0  0
    5.0402   -1.8454    4.5320 C   0  0  0  0  0  0  0  0  0  0  0  0
    4.1255   -0.7912    4.2091 O   0  0  0  0  0  0  0  0  0  0  0  0
    0.5581    0.6724   -2.4031 C   0  0  0  0  0  0  0  0  0  0  0  0
   -0.7475    1.1044   -2.1451 C   0  0  0  0  0  0  0  0  0  0  0  0
   -1.5366    0.3615   -1.2802 C   0  0  0  0  0  0  0  0  0  0  0  0
   -5.0803    1.4750    0.4320 H   0  0  0  0  0  0  0  0  0  0  0  0
   -6.7269    3.1143   -0.1475 H   0  0  0  0  0  0  0  0  0  0  0  0
   -5.5173    3.8079   -1.2490 H   0  0  0  0  0  0  0  0  0  0  0  0
   -7.7195    2.1879   -2.2403 H   0  0  0  0  0  0  0  0  0  0  0  0
   -6.1433    2.2243   -3.0697 H   0  0  0  0  0  0  0  0  0  0  0  0
   -5.8227   -0.0027   -2.0151 H   0  0  0  0  0  0  0  0  0  0  0  0
   -6.9461    0.3869   -0.6904 H   0  0  0  0  0  0  0  0  0  0  0  0
   -4.1567   -0.9633   -0.2591 H   0  0  0  0  0  0  0  0  0  0  0  0
   -3.4457   -0.0091    1.0580 H   0  0  0  0  0  0  0  0  0  0  0  0
   -2.3509   -2.4347   -0.2210 H   0  0  0  0  0  0  0  0  0  0  0  0
   -1.7264   -1.5631    1.2116 H   0  0  0  0  0  0  0  0  0  0  0  0
    0.6225   -2.1554   -0.4607 H   0  0  0  0  0  0  0  0  0  0  0  0
    4.4642    0.3756   -1.8099 H   0  0  0  0  0  0  0  0  0  0  0  0
    2.0256    1.0064    0.6569 H   0  0  0  0  0  0  0  0  0  0  0  0
    2.2622    0.5714    3.0820 H   0  0  0  0  0  0  0  0  0  0  0  0
    5.6165   -1.2633   -0.0951 H   0  0  0  0  0  0  0  0  0  0  0  0
    6.8036   -0.7010    3.9719 H   0  0  0  0  0  0  0  0  0  0  0  0
    7.0555   -2.4558    4.0588 H   0  0  0  0  0  0  0  0  0  0  0  0
    4.5614   -2.8054    4.3019 H   0  0  0  0  0  0  0  0  0  0  0  0
    5.2243   -1.8057    5.6102 H   0  0  0  0  0  0  0  0  0  0  0  0
    1.1858    1.2435   -3.0843 H   0  0  0  0  0  0  0  0  0  0  0  0
   -1.1143    2.0047   -2.6268 H   0  0  0  0  0  0  0  0  0  0  0  0
  1  2  2  0
  2  3  1  0
  3  4  1  0
  4  5  1  0
  5  6  1  0
  2  7  1  0
  7  8  1  0
  8  9  1  0
  9 10  1  0
 10 11  2  0
 11 12  1  0
 12 13  1  0
 13 14  2  0
 13 15  2  0
 13 16  1  0
 16 17  1  0
 17 18  2  0
 18 19  1  0
 19 20  2  0
 20 21  1  0
 21 22  2  0
 21 23  1  0
 23 24  1  0
 24 25  1  0
 25 26  1  0
 12 27  2  0
 27 28  1  0
 28 29  2  0
  6  3  1  0
 29  7  1  0
 29 10  1  0
 22 17  1  0
 26 20  1  0
  3 30  1  0
  4 31  1  0
  4 32  1  0
  5 33  1  0
  5 34  1  0
  6 35  1  0
  6 36  1  0
  8 37  1  0
  8 38  1  0
  9 39  1  0
  9 40  1  0
 11 41  1  0
 16 42  1  0
 18 43  1  0
 19 44  1  0
 22 45  1  0
 24 46  1  0
 24 47  1  0
 25 48  1  0
 25 49  1  0
 27 50  1  0
 28 51  1  0
M  END
$$$$
