
     RDKit          3D

 50 52  0  0  0  0  0  0  0  0999 V2000
    7.1638   -1.7009    0.9572 C   0  0  0  0  0  0  0  0  0  0  0  0
    7.5966   -0.3147    0.9899 N   0  0  0  0  0  0  0  0  0  0  0  0
    7.2006    0.6736    2.2791 S   0  0  0  0  0  6  0  0  0  0  0  0
    7.6180    0.0164    3.4973 O   0  0  0  0  0  0  0  0  0  0  0  0
    7.6491    2.0036    1.9335 O   0  0  0  0  0  0  0  0  0  0  0  0
    5.4234    0.6715    2.2288 C   0  0  0  0  0  0  0  0  0  0  0  0
    4.7653    1.4791    1.2972 C   0  0  0  0  0  0  0  0  0  0  0  0
    3.3691    1.4886    1.2622 C   0  0  0  0  0  0  0  0  0  0  0  0
    2.6311    0.6969    2.1548 C   0  0  0  0  0  0  0  0  0  0  0  0
    1.1431    0.7434    2.0753 C   0  0  0  0  0  0  0  0  0  0  0  0
    0.5798    1.6942    1.5442 O   0  0  0  0  0  0  0  0  0  0  0  0
    0.4635   -0.3452    2.5826 N   0  0  0  0  0  0  0  0  0  0  0  0
   -0.9601   -0.4780    2.3335 C   0  0  0  0  0  0  0  0  0  0  0  0
   -1.1649   -1.2678    1.0385 C   0  0  0  0  0  0  0  0  0  0  0  0
   -0.4552   -2.2271    0.7375 O   0  0  0  0  0  0  0  0  0  0  0  0
   -2.2298   -0.8436    0.2720 N   0  0  0  0  0  0  0  0  0  0  0  0
   -2.4512   -1.4068   -1.0514 C   0  0  0  0  0  0  0  0  0  0  0  0
   -3.8428   -1.0642   -1.5870 C   0  0  0  0  0  0  0  0  0  0  0  0
   -4.0765   -1.7269   -2.9413 C   0  0  0  0  0  0  0  0  0  0  0  0
   -5.4071   -1.4691   -3.4059 O   0  0  0  0  0  0  0  0  0  0  0  0
   -5.7392   -0.1465   -3.2630 C   0  0  0  0  0  0  0  0  0  0  0  0
   -6.8606    0.2972   -3.9612 C   0  0  0  0  0  0  0  0  0  0  0  0
   -7.2443    1.6369   -3.8813 C   0  0  0  0  0  0  0  0  0  0  0  0
   -6.5074    2.5301   -3.1017 C   0  0  0  0  0  0  0  0  0  0  0  0
   -5.3922    2.0829   -2.3911 C   0  0  0  0  0  0  0  0  0  0  0  0
   -5.0180    0.7422   -2.4595 C   0  0  0  0  0  0  0  0  0  0  0  0
   -3.9269    0.3683   -1.7182 O   0  0  0  0  0  0  0  0  0  0  0  0
    3.3022   -0.0865    3.1053 C   0  0  0  0  0  0  0  0  0  0  0  0
    4.6998   -0.1001    3.1432 C   0  0  0  0  0  0  0  0  0  0  0  0
    6.1954   -1.7808    0.4564 H   0  0  0  0  0  0  0  0  0  0  0  0
    7.0937   -2.1328    1.9586 H   0  0  0  0  0  0  0  0  0  0  0  0
    7.8918   -2.2884    0.3905 H   0  0  0  0  0  0  0  0  0  0  0  0
    7.8183    0.1692    0.1223 H   0  0  0  0  0  0  0  0  0  0  0  0
    5.3270    2.1049    0.6068 H   0  0  0  0  0  0  0  0  0  0  0  0
    2.8543    2.1189    0.5384 H   0  0  0  0  0  0  0  0  0  0  0  0
    0.9693   -1.2203    2.6488 H   0  0  0  0  0  0  0  0  0  0  0  0
   -1.3949   -1.0516    3.1573 H   0  0  0  0  0  0  0  0  0  0  0  0
   -1.4386    0.5041    2.2831 H   0  0  0  0  0  0  0  0  0  0  0  0
   -2.5172    0.1236    0.3908 H   0  0  0  0  0  0  0  0  0  0  0  0
   -2.3121   -2.4923   -0.9982 H   0  0  0  0  0  0  0  0  0  0  0  0
   -1.6711   -0.9917   -1.7005 H   0  0  0  0  0  0  0  0  0  0  0  0
   -4.6084   -1.3783   -0.8640 H   0  0  0  0  0  0  0  0  0  0  0  0
   -3.9640   -2.8134   -2.8646 H   0  0  0  0  0  0  0  0  0  0  0  0
   -3.3695   -1.3656   -3.6993 H   0  0  0  0  0  0  0  0  0  0  0  0
   -7.4280   -0.3966   -4.5752 H   0  0  0  0  0  0  0  0  0  0  0  0
   -8.1151    1.9852   -4.4311 H   0  0  0  0  0  0  0  0  0  0  0  0
   -6.8039    3.5744   -3.0445 H   0  0  0  0  0  0  0  0  0  0  0  0
   -4.8232    2.7768   -1.7788 H   0  0  0  0  0  0  0  0  0  0  0  0
    2.7544   -0.6686    3.8417 H   0  0  0  0  0  0  0  0  0  0  0  0
    5.2127   -0.7019    3.8912 H   0  0  0  0  0  0  0  0  0  0  0  0
  1  2  1  0
  2  3  1  0
  3  4  2  0
  3  5  2  0
  3  6  1  0
  6  7  2  0
  7  8  1  0
  8  9  2  0
  9 10  1  0
 10 11  2  0
 10 12  1  0
 12 13  1  0
 13 14  1  0
 14 15  2  0
 14 16  1  0
 16 17  1  0
 17 18  1  0
 18 19  1  0
 19 20  1  0
 20 21  1  0
 21 22  2  0
 22 23  1  0
 23 24  2  0
 24 25  1  0
 25 26  2  0
 26 27  1  0
  9 28  1  0
 28 29  2  0
 29  6  1  0
 27 18  1  0
 26 21  1  0
  1 30  1  0
  1 31  1  0
  1 32  1  0
  2 33  1  0
  7 34  1  0
  8 35  1  0
 12 36  1  0
 13 37  1  0
 13 38  1  0
 16 39  1  0
 17 40  1  0
 17 41  1  0
 18 42  1  0
 19 43  1  0
 19 44  1  0
 22 45  1  0
 23 46  1  0
 24 47  1  0
 25 48  1  0
 28 49  1  0
 29 50  1  0
M  END
$$$$
