
     RDKit          3D

 38 39  0  0  0  0  0  0  0  0999 V2000
    2.1844   -1.8023   -1.6467 C   0  0  0  0  0  0  0  0  0  0  0  0
    1.1472   -0.7116   -1.5153 C   0  0  0  0  0  0  0  0  0  0  0  0
    1.4155    0.5628   -2.2411 C   0  0  0  0  0  0  0  0  0  0  0  0
    2.3345    1.4567   -1.8475 C   0  0  0  0  0  0  0  0  0  0  0  0
    3.2064    1.3534   -0.6719 C   0  0  0  0  0  0  0  0  0  0  0  0
    2.6928    1.1358    0.6124 C   0  0  0  0  0  0  0  0  0  0  0  0
    3.5490    1.0600    1.7130 C   0  0  0  0  0  0  0  0  0  0  0  0
    4.9239    1.2120    1.5406 C   0  0  0  0  0  0  0  0  0  0  0  0
    5.4433    1.4452    0.2689 C   0  0  0  0  0  0  0  0  0  0  0  0
    4.5876    1.5204   -0.8329 C   0  0  0  0  0  0  0  0  0  0  0  0
    0.1000   -0.9677   -0.7931 N   0  0  0  0  0  0  0  0  0  0  0  0
   -0.8280    0.0205   -0.6580 N   0  0  0  0  0  0  0  0  0  0  0  0
   -2.0731   -0.2718   -0.0796 C   0  0  0  0  0  0  0  0  0  0  0  0
   -2.2345   -1.3358    0.7250 N   0  0  0  0  0  0  0  0  0  0  0  0
   -3.4624   -1.5657    1.2265 C   0  0  0  0  0  0  0  0  0  0  0  0
   -3.6334   -2.7757    2.0940 C   0  0  0  0  0  0  0  0  0  0  0  0
   -4.5356   -0.7458    0.9515 C   0  0  0  0  0  0  0  0  0  0  0  0
   -4.2859    0.3347    0.1317 C   0  0  0  0  0  0  0  0  0  0  0  0
   -5.3943    1.2722   -0.2405 C   0  0  0  0  0  0  0  0  0  0  0  0
   -3.0684    0.5780   -0.3942 N   0  0  0  0  0  0  0  0  0  0  0  0
    2.9662   -1.5271   -2.3598 H   0  0  0  0  0  0  0  0  0  0  0  0
    1.7020   -2.7207   -1.9937 H   0  0  0  0  0  0  0  0  0  0  0  0
    2.6406   -1.9861   -0.6689 H   0  0  0  0  0  0  0  0  0  0  0  0
    0.8120    0.7299   -3.1260 H   0  0  0  0  0  0  0  0  0  0  0  0
    2.4836    2.3520   -2.4473 H   0  0  0  0  0  0  0  0  0  0  0  0
    1.6218    1.0201    0.7710 H   0  0  0  0  0  0  0  0  0  0  0  0
    3.1381    0.8809    2.7029 H   0  0  0  0  0  0  0  0  0  0  0  0
    5.5886    1.1509    2.3984 H   0  0  0  0  0  0  0  0  0  0  0  0
    6.5151    1.5677    0.1341 H   0  0  0  0  0  0  0  0  0  0  0  0
    5.0101    1.7013   -1.8187 H   0  0  0  0  0  0  0  0  0  0  0  0
   -0.9729    0.7179   -1.3776 H   0  0  0  0  0  0  0  0  0  0  0  0
   -4.3327   -3.4771    1.6280 H   0  0  0  0  0  0  0  0  0  0  0  0
   -4.0149   -2.4869    3.0787 H   0  0  0  0  0  0  0  0  0  0  0  0
   -2.6786   -3.2920    2.2364 H   0  0  0  0  0  0  0  0  0  0  0  0
   -5.5214   -0.9438    1.3532 H   0  0  0  0  0  0  0  0  0  0  0  0
   -5.9331    1.6047    0.6534 H   0  0  0  0  0  0  0  0  0  0  0  0
   -4.9992    2.1594   -0.7458 H   0  0  0  0  0  0  0  0  0  0  0  0
   -6.0943    0.7738   -0.9183 H   0  0  0  0  0  0  0  0  0  0  0  0
  1  2  1  0
  2  3  1  0
  3  4  2  3
  4  5  1  0
  5  6  2  0
  6  7  1  0
  7  8  2  0
  8  9  1  0
  9 10  2  0
  2 11  2  3
 11 12  1  0
 12 13  1  0
 13 14  2  0
 14 15  1  0
 15 16  1  0
 15 17  2  0
 17 18  1  0
 18 19  1  0
 18 20  2  0
 10  5  1  0
 20 13  1  0
  1 21  1  0
  1 22  1  0
  1 23  1  0
  3 24  1  0
  4 25  1  0
  6 26  1  0
  7 27  1  0
  8 28  1  0
  9 29  1  0
 10 30  1  0
 12 31  1  0
 16 32  1  0
 16 33  1  0
 16 34  1  0
 17 35  1  0
 19 36  1  0
 19 37  1  0
 19 38  1  0
M  END
$$$$
