
     RDKit          3D

 32 32  0  0  0  0  0  0  0  0999 V2000
    1.7917    2.4973   -2.9034 C   0  0  0  0  0  0  0  0  0  0  0  0
    0.9608    1.6706   -3.1668 C   0  0  0  0  0  0  0  0  0  0  0  0
   -0.0517    0.6521   -3.4933 C   0  0  0  0  0  0  0  0  0  0  0  0
   -1.3601    0.8735   -2.8652 N   0  0  0  0  0  0  0  0  0  0  0  0
   -2.0225    2.0571   -3.4191 C   0  0  0  0  0  0  0  0  0  0  0  0
   -1.3615    0.9172   -1.3958 C   0  0  0  0  0  0  0  0  0  0  0  0
   -0.9396   -0.3824   -0.6971 C   0  0  0  0  0  0  0  0  0  0  0  0
    0.5337   -0.4199   -0.2962 C   0  0  0  0  0  0  0  0  0  0  0  0
    0.8103   -1.6134    0.4419 O   0  0  0  0  0  0  0  0  0  0  0  0
    0.8207   -1.5676    1.8106 C   0  0  0  0  0  0  0  0  0  0  0  0
    0.2471   -0.5457    2.5740 C   0  0  0  0  0  0  0  0  0  0  0  0
    0.2962   -0.6001    3.9697 C   0  0  0  0  0  0  0  0  0  0  0  0
   -0.4122    0.6672    4.8950 Cl  0  0  0  0  0  0  0  0  0  0  0  0
    0.9064   -1.6684    4.6220 C   0  0  0  0  0  0  0  0  0  0  0  0
    1.4705   -2.6986    3.8715 C   0  0  0  0  0  0  0  0  0  0  0  0
    1.4245   -2.6503    2.4746 C   0  0  0  0  0  0  0  0  0  0  0  0
    2.1417   -3.9583    1.5990 Cl  0  0  0  0  0  0  0  0  0  0  0  0
    2.5293    3.2313   -2.6734 H   0  0  0  0  0  0  0  0  0  0  0  0
    0.3186   -0.3436   -3.2275 H   0  0  0  0  0  0  0  0  0  0  0  0
   -0.1791    0.6107   -4.5830 H   0  0  0  0  0  0  0  0  0  0  0  0
   -1.5148    2.9890   -3.1469 H   0  0  0  0  0  0  0  0  0  0  0  0
   -3.0573    2.1183   -3.0633 H   0  0  0  0  0  0  0  0  0  0  0  0
   -2.0776    1.9979   -4.5120 H   0  0  0  0  0  0  0  0  0  0  0  0
   -0.7837    1.7680   -1.0131 H   0  0  0  0  0  0  0  0  0  0  0  0
   -2.3985    1.0980   -1.0807 H   0  0  0  0  0  0  0  0  0  0  0  0
   -1.5511   -0.5002    0.2066 H   0  0  0  0  0  0  0  0  0  0  0  0
   -1.1848   -1.2592   -1.3100 H   0  0  0  0  0  0  0  0  0  0  0  0
    1.1643   -0.4742   -1.1870 H   0  0  0  0  0  0  0  0  0  0  0  0
    0.8509    0.4830    0.2380 H   0  0  0  0  0  0  0  0  0  0  0  0
   -0.2570    0.2952    2.1108 H   0  0  0  0  0  0  0  0  0  0  0  0
    0.9416   -1.7074    5.7077 H   0  0  0  0  0  0  0  0  0  0  0  0
    1.9433   -3.5369    4.3772 H   0  0  0  0  0  0  0  0  0  0  0  0
  1  2  3  0
  2  3  1  0
  3  4  1  0
  4  5  1  0
  4  6  1  0
  6  7  1  0
  7  8  1  0
  8  9  1  0
  9 10  1  0
 10 11  2  0
 11 12  1  0
 12 13  1  0
 12 14  2  0
 14 15  1  0
 15 16  2  0
 16 17  1  0
 16 10  1  0
  1 18  1  0
  3 19  1  0
  3 20  1  0
  5 21  1  0
  5 22  1  0
  5 23  1  0
  6 24  1  0
  6 25  1  0
  7 26  1  0
  7 27  1  0
  8 28  1  0
  8 29  1  0
 11 30  1  0
 14 31  1  0
 15 32  1  0
M  END
$$$$
