
     RDKit          3D

 57 60  0  0  0  0  0  0  0  0999 V2000
   -2.3974    2.2828    3.2910 C   0  0  0  0  0  0  0  0  0  0  0  0
   -1.6774    1.0592    2.7362 C   0  0  0  0  0  0  0  0  0  0  0  0
   -1.3958    1.1929    1.2344 C   0  0  0  0  0  0  0  0  0  0  0  0
   -0.7640   -0.3976    0.5630 S   0  0  0  0  0  0  0  0  0  0  0  0
   -2.2212   -0.9341   -0.2628 C   0  0  0  0  0  0  0  0  0  0  0  0
   -3.2718   -1.0334    0.4947 N   0  0  0  0  0  0  0  0  0  0  0  0
   -4.4250   -1.4573   -0.1614 C   0  0  0  0  0  0  0  0  0  0  0  0
   -5.6707   -1.6453    0.4744 C   0  0  0  0  0  0  0  0  0  0  0  0
   -6.6272   -2.0553   -0.4335 C   0  0  0  0  0  0  0  0  0  0  0  0
   -5.9879   -2.2036   -2.0246 S   0  0  0  0  0  0  0  0  0  0  0  0
   -4.4517   -1.7182   -1.4962 C   0  0  0  0  0  0  0  0  0  0  0  0
   -3.2965   -1.5964   -2.3336 C   0  0  0  0  0  0  0  0  0  0  0  0
   -3.3046   -1.8097   -3.5440 O   0  0  0  0  0  0  0  0  0  0  0  0
   -2.1476   -1.2064   -1.6312 N   0  0  0  0  0  0  0  0  0  0  0  0
   -0.9213   -1.0817   -2.4266 C   0  0  0  0  0  0  0  0  0  0  0  0
   -0.0459   -2.3196   -2.3643 C   0  0  0  0  0  0  0  0  0  0  0  0
    1.2276   -2.2662   -1.7780 C   0  0  0  0  0  0  0  0  0  0  0  0
    2.0363   -3.4057   -1.7182 C   0  0  0  0  0  0  0  0  0  0  0  0
    1.5863   -4.6153   -2.2562 C   0  0  0  0  0  0  0  0  0  0  0  0
    2.4076   -5.8492   -2.2207 C   0  0  0  0  0  0  0  0  0  0  0  0
    2.1142   -6.9180   -2.7229 O   0  0  0  0  0  0  0  0  0  0  0  0
    3.5603   -5.6903   -1.5450 O   0  0  0  0  0  0  0  0  0  0  0  0
    0.3262   -4.6741   -2.8588 C   0  0  0  0  0  0  0  0  0  0  0  0
   -0.4814   -3.5350   -2.9142 C   0  0  0  0  0  0  0  0  0  0  0  0
   -0.3600    2.2826    0.9248 C   0  0  0  0  0  0  0  0  0  0  0  0
   -0.6808    3.2648    0.2589 O   0  0  0  0  0  0  0  0  0  0  0  0
    0.8934    2.0415    1.4646 N   0  0  0  0  0  0  0  0  0  0  0  0
    2.0359    2.8635    1.4027 C   0  0  0  0  0  0  0  0  0  0  0  0
    3.2089    2.3617    1.9764 C   0  0  0  0  0  0  0  0  0  0  0  0
    4.3871    3.1143    1.9731 C   0  0  0  0  0  0  0  0  0  0  0  0
    4.4194    4.3864    1.3892 C   0  0  0  0  0  0  0  0  0  0  0  0
    5.6972    5.1783    1.4053 C   0  0  0  0  0  0  0  0  0  0  0  0
    3.2422    4.8826    0.8098 C   0  0  0  0  0  0  0  0  0  0  0  0
    3.1996    6.4442    0.0683 Cl  0  0  0  0  0  0  0  0  0  0  0  0
    2.0610    4.1295    0.8182 C   0  0  0  0  0  0  0  0  0  0  0  0
   -3.3581    2.4287    2.7846 H   0  0  0  0  0  0  0  0  0  0  0  0
   -2.5940    2.1529    4.3584 H   0  0  0  0  0  0  0  0  0  0  0  0
   -1.8010    3.1911    3.1676 H   0  0  0  0  0  0  0  0  0  0  0  0
   -2.3117    0.1873    2.9289 H   0  0  0  0  0  0  0  0  0  0  0  0
   -0.7522    0.9113    3.3039 H   0  0  0  0  0  0  0  0  0  0  0  0
   -2.3150    1.4680    0.7044 H   0  0  0  0  0  0  0  0  0  0  0  0
   -5.8639   -1.4915    1.5272 H   0  0  0  0  0  0  0  0  0  0  0  0
   -7.6684   -2.2784   -0.2474 H   0  0  0  0  0  0  0  0  0  0  0  0
   -0.3617   -0.1987   -2.1023 H   0  0  0  0  0  0  0  0  0  0  0  0
   -1.1619   -0.8892   -3.4789 H   0  0  0  0  0  0  0  0  0  0  0  0
    1.6069   -1.3354   -1.3616 H   0  0  0  0  0  0  0  0  0  0  0  0
    3.0170   -3.3361   -1.2547 H   0  0  0  0  0  0  0  0  0  0  0  0
    3.9831   -6.5728   -1.6028 H   0  0  0  0  0  0  0  0  0  0  0  0
   -0.0323   -5.6058   -3.2932 H   0  0  0  0  0  0  0  0  0  0  0  0
   -1.4505   -3.6087   -3.4045 H   0  0  0  0  0  0  0  0  0  0  0  0
    1.0175    1.1347    1.9018 H   0  0  0  0  0  0  0  0  0  0  0  0
    3.2257    1.3790    2.4422 H   0  0  0  0  0  0  0  0  0  0  0  0
    5.2818    2.6951    2.4287 H   0  0  0  0  0  0  0  0  0  0  0  0
    6.5028    4.6289    1.8994 H   0  0  0  0  0  0  0  0  0  0  0  0
    5.5596    6.1130    1.9512 H   0  0  0  0  0  0  0  0  0  0  0  0
    6.0275    5.3923    0.3859 H   0  0  0  0  0  0  0  0  0  0  0  0
    1.1738    4.5622    0.3687 H   0  0  0  0  0  0  0  0  0  0  0  0
  1  2  1  0
  2  3  1  0
  3  4  1  0
  4  5  1  0
  5  6  2  0
  6  7  1  0
  7  8  1  0
  8  9  2  0
  9 10  1  0
 10 11  1  0
 11 12  1  0
 12 13  2  0
 12 14  1  0
 14 15  1  0
 15 16  1  0
 16 17  2  0
 17 18  1  0
 18 19  2  0
 19 20  1  0
 20 21  2  0
 20 22  1  0
 19 23  1  0
 23 24  2  0
  3 25  1  0
 25 26  2  0
 25 27  1  0
 27 28  1  0
 28 29  2  0
 29 30  1  0
 30 31  2  0
 31 32  1  0
 31 33  1  0
 33 34  1  0
 33 35  2  0
 14  5  1  0
 24 16  1  0
 35 28  1  0
 11  7  2  0
  1 36  1  0
  1 37  1  0
  1 38  1  0
  2 39  1  0
  2 40  1  0
  3 41  1  0
  8 42  1  0
  9 43  1  0
 15 44  1  0
 15 45  1  0
 17 46  1  0
 18 47  1  0
 22 48  1  0
 23 49  1  0
 24 50  1  0
 27 51  1  0
 29 52  1  0
 30 53  1  0
 32 54  1  0
 32 55  1  0
 32 56  1  0
 35 57  1  0
M  END
$$$$
