
     RDKit          3D

 51 55  0  0  0  0  0  0  0  0999 V2000
   -5.4731    3.1398   -2.6184 C   0  0  0  0  0  0  0  0  0  0  0  0
   -6.0569    2.1125   -1.6914 C   0  0  0  0  0  0  0  0  0  0  0  0
   -7.4418    1.9027   -1.6469 C   0  0  0  0  0  0  0  0  0  0  0  0
   -7.9864    0.9440   -0.7906 C   0  0  0  0  0  0  0  0  0  0  0  0
   -7.1493    0.1698    0.0143 C   0  0  0  0  0  0  0  0  0  0  0  0
   -5.7610    0.3445   -0.0432 C   0  0  0  0  0  0  0  0  0  0  0  0
   -4.9016   -0.5108    0.8269 C   0  0  0  0  0  0  0  0  0  0  0  0
   -5.3486   -0.8723    1.9079 O   0  0  0  0  0  0  0  0  0  0  0  0
   -3.6830   -0.8465    0.2806 N   0  0  0  0  0  0  0  0  0  0  0  0
   -2.7024   -1.6012    0.8752 C   0  0  0  0  0  0  0  0  0  0  0  0
   -1.6286   -1.9895    0.2203 N   0  0  0  0  0  0  0  0  0  0  0  0
   -0.7897   -2.7479    1.0105 N   0  0  0  0  0  0  0  0  0  0  0  0
   -1.2383   -2.8539    2.2442 C   0  0  0  0  0  0  0  0  0  0  0  0
   -0.3704   -3.7148    3.4914 S   0  0  0  0  0  0  0  0  0  0  0  0
    1.0496   -4.3656    2.5698 C   0  0  0  0  0  0  0  0  0  0  0  0
    2.1285   -3.3056    2.3992 C   0  0  0  0  0  0  0  0  0  0  0  0
    3.0283   -3.1886    3.2277 O   0  0  0  0  0  0  0  0  0  0  0  0
    1.9730   -2.5473    1.2508 N   0  0  0  0  0  0  0  0  0  0  0  0
    2.8284   -1.5392    0.7587 C   0  0  0  0  0  0  0  0  0  0  0  0
    2.3744   -0.8286   -0.3639 C   0  0  0  0  0  0  0  0  0  0  0  0
    3.1419    0.1889   -0.9541 C   0  0  0  0  0  0  0  0  0  0  0  0
    4.3972    0.4931   -0.4006 C   0  0  0  0  0  0  0  0  0  0  0  0
    4.8186   -0.2298    0.7086 C   0  0  0  0  0  0  0  0  0  0  0  0
    4.0762   -1.2441    1.3176 C   0  0  0  0  0  0  0  0  0  0  0  0
    6.0517    0.1885    1.1083 O   0  0  0  0  0  0  0  0  0  0  0  0
    6.4311    1.1827    0.2601 C   0  0  0  0  0  0  0  0  0  0  0  0
    7.6368    1.8796    0.3242 C   0  0  0  0  0  0  0  0  0  0  0  0
    7.8372    2.8709   -0.6421 C   0  0  0  0  0  0  0  0  0  0  0  0
    6.8710    3.1369   -1.6159 C   0  0  0  0  0  0  0  0  0  0  0  0
    5.6680    2.4177   -1.6552 C   0  0  0  0  0  0  0  0  0  0  0  0
    5.4452    1.4153   -0.6916 C   0  0  0  0  0  0  0  0  0  0  0  0
   -2.7361   -2.0743    2.5121 S   0  0  0  0  0  0  0  0  0  0  0  0
   -5.2174    1.3232   -0.8895 C   0  0  0  0  0  0  0  0  0  0  0  0
   -6.2059    3.9179   -2.8571 H   0  0  0  0  0  0  0  0  0  0  0  0
   -4.6122    3.6341   -2.1557 H   0  0  0  0  0  0  0  0  0  0  0  0
   -5.1528    2.6626   -3.5497 H   0  0  0  0  0  0  0  0  0  0  0  0
   -8.1096    2.4970   -2.2704 H   0  0  0  0  0  0  0  0  0  0  0  0
   -9.0647    0.8030   -0.7484 H   0  0  0  0  0  0  0  0  0  0  0  0
   -7.5818   -0.5713    0.6846 H   0  0  0  0  0  0  0  0  0  0  0  0
   -3.4929   -0.6315   -0.6883 H   0  0  0  0  0  0  0  0  0  0  0  0
    0.7503   -4.7828    1.6023 H   0  0  0  0  0  0  0  0  0  0  0  0
    1.4830   -5.1921    3.1438 H   0  0  0  0  0  0  0  0  0  0  0  0
    1.0890   -2.6575    0.7552 H   0  0  0  0  0  0  0  0  0  0  0  0
    1.4035   -1.0555   -0.7994 H   0  0  0  0  0  0  0  0  0  0  0  0
    2.7704    0.7246   -1.8209 H   0  0  0  0  0  0  0  0  0  0  0  0
    4.4855   -1.7626    2.1739 H   0  0  0  0  0  0  0  0  0  0  0  0
    8.3745    1.6609    1.0879 H   0  0  0  0  0  0  0  0  0  0  0  0
    8.7593    3.4472   -0.6292 H   0  0  0  0  0  0  0  0  0  0  0  0
    7.0524    3.9154   -2.3549 H   0  0  0  0  0  0  0  0  0  0  0  0
    4.9233    2.6367   -2.4136 H   0  0  0  0  0  0  0  0  0  0  0  0
   -4.1438    1.5037   -0.9123 H   0  0  0  0  0  0  0  0  0  0  0  0
  1  2  1  0
  2  3  2  0
  3  4  1  0
  4  5  2  0
  5  6  1  0
  6  7  1  0
  7  8  2  0
  7  9  1  0
  9 10  1  0
 10 11  2  0
 11 12  1  0
 12 13  2  0
 13 14  1  0
 14 15  1  0
 15 16  1  0
 16 17  2  0
 16 18  1  0
 18 19  1  0
 19 20  2  0
 20 21  1  0
 21 22  2  0
 22 23  1  0
 23 24  2  0
 23 25  1  0
 25 26  1  0
 26 27  2  0
 27 28  1  0
 28 29  2  0
 29 30  1  0
 30 31  2  0
 13 32  1  0
  6 33  2  0
 33  2  1  0
 32 10  1  0
 24 19  1  0
 31 26  1  0
 31 22  1  0
  1 34  1  0
  1 35  1  0
  1 36  1  0
  3 37  1  0
  4 38  1  0
  5 39  1  0
  9 40  1  0
 15 41  1  0
 15 42  1  0
 18 43  1  0
 20 44  1  0
 21 45  1  0
 24 46  1  0
 27 47  1  0
 28 48  1  0
 29 49  1  0
 30 50  1  0
 33 51  1  0
M  END
$$$$
