
     RDKit          3D

 49 52  0  0  0  0  0  0  0  0999 V2000
   -3.1827   -0.3561    2.4769 O   0  0  0  0  0  0  0  0  0  0  0  0
   -2.5071    0.6533    2.4937 C   0  0  0  0  0  0  0  0  0  0  0  0
   -1.9568    1.0938    3.6427 O   0  0  0  0  0  0  0  0  0  0  0  0
   -2.1381    1.5231    1.3476 C   0  0  0  0  0  0  0  0  0  0  0  0
   -2.0818    2.9113    1.5927 C   0  0  0  0  0  0  0  0  0  0  0  0
   -1.8918    3.8135    0.5505 C   0  0  0  0  0  0  0  0  0  0  0  0
   -1.7952    3.3389   -0.7504 C   0  0  0  0  0  0  0  0  0  0  0  0
   -1.8526    1.9595   -1.0016 C   0  0  0  0  0  0  0  0  0  0  0  0
   -1.8097    1.4992   -2.4086 C   0  0  0  0  0  0  0  0  0  0  0  0
   -1.5972    2.2945   -3.3188 O   0  0  0  0  0  0  0  0  0  0  0  0
   -2.0657    0.0746   -2.6922 C   0  0  0  0  0  0  0  0  0  0  0  0
   -2.2417   -0.3497   -4.0160 C   0  0  0  0  0  0  0  0  0  0  0  0
   -2.5006   -1.6913   -4.2833 C   0  0  0  0  0  0  0  0  0  0  0  0
   -2.5885   -2.5993   -3.2312 C   0  0  0  0  0  0  0  0  0  0  0  0
   -2.4040   -2.1701   -1.9121 C   0  0  0  0  0  0  0  0  0  0  0  0
   -2.1183   -0.8271   -1.6196 C   0  0  0  0  0  0  0  0  0  0  0  0
   -1.9271   -0.3748   -0.2837 N   0  0  0  0  0  0  0  0  0  0  0  0
   -0.8646   -1.1486    0.4397 C   0  0  0  0  0  0  0  0  0  0  0  0
    0.5652   -0.8654   -0.0845 C   0  0  0  0  0  0  0  0  0  0  0  0
    0.8586   -1.6864   -1.2247 O   0  0  0  0  0  0  0  0  0  0  0  0
    1.6154   -1.1780    1.0076 C   0  0  0  0  0  0  0  0  0  0  0  0
    2.9927   -1.0799    0.4666 N   0  0  0  0  0  0  0  0  0  0  0  0
    3.4428    0.3165    0.3224 C   0  0  0  0  0  0  0  0  0  0  0  0
    3.9749    0.7363    1.6859 C   0  0  0  0  0  0  0  0  0  0  0  0
    4.2845   -0.5653    2.4110 C   0  0  0  0  0  0  0  0  0  0  0  0
    3.9731   -1.6592    1.4021 C   0  0  0  0  0  0  0  0  0  0  0  0
   -1.9666    1.0128    0.0395 C   0  0  0  0  0  0  0  0  0  0  0  0
   -2.2822    0.4565    4.3138 H   0  0  0  0  0  0  0  0  0  0  0  0
   -2.2176    3.2988    2.6012 H   0  0  0  0  0  0  0  0  0  0  0  0
   -1.8574    4.8823    0.7468 H   0  0  0  0  0  0  0  0  0  0  0  0
   -1.6890    4.0415   -1.5753 H   0  0  0  0  0  0  0  0  0  0  0  0
   -2.1804    0.3650   -4.8333 H   0  0  0  0  0  0  0  0  0  0  0  0
   -2.6391   -2.0260   -5.3079 H   0  0  0  0  0  0  0  0  0  0  0  0
   -2.8019   -3.6459   -3.4330 H   0  0  0  0  0  0  0  0  0  0  0  0
   -2.5038   -2.8996   -1.1134 H   0  0  0  0  0  0  0  0  0  0  0  0
   -1.0725   -2.2238    0.3882 H   0  0  0  0  0  0  0  0  0  0  0  0
   -0.8904   -0.9128    1.5059 H   0  0  0  0  0  0  0  0  0  0  0  0
    0.6574    0.1774   -0.4026 H   0  0  0  0  0  0  0  0  0  0  0  0
    1.8369   -1.6867   -1.2832 H   0  0  0  0  0  0  0  0  0  0  0  0
    1.4635   -0.5353    1.8830 H   0  0  0  0  0  0  0  0  0  0  0  0
    1.4512   -2.2157    1.3272 H   0  0  0  0  0  0  0  0  0  0  0  0
    2.6756    1.0018   -0.0499 H   0  0  0  0  0  0  0  0  0  0  0  0
    4.2602    0.3394   -0.4095 H   0  0  0  0  0  0  0  0  0  0  0  0
    3.2210    1.3041    2.2431 H   0  0  0  0  0  0  0  0  0  0  0  0
    4.8656    1.3654    1.5888 H   0  0  0  0  0  0  0  0  0  0  0  0
    5.3263   -0.6076    2.7439 H   0  0  0  0  0  0  0  0  0  0  0  0
    3.6446   -0.6596    3.2960 H   0  0  0  0  0  0  0  0  0  0  0  0
    3.6329   -2.5855    1.8776 H   0  0  0  0  0  0  0  0  0  0  0  0
    4.8819   -1.9100    0.8404 H   0  0  0  0  0  0  0  0  0  0  0  0
  1  2  2  0
  2  3  1  0
  2  4  1  0
  4  5  2  0
  5  6  1  0
  6  7  2  0
  7  8  1  0
  8  9  1  0
  9 10  2  0
  9 11  1  0
 11 12  2  0
 12 13  1  0
 13 14  2  0
 14 15  1  0
 15 16  2  0
 16 17  1  0
 17 18  1  0
 18 19  1  0
 19 20  1  0
 19 21  1  0
 21 22  1  0
 22 23  1  0
 23 24  1  0
 24 25  1  0
 25 26  1  0
 17 27  1  0
 27  4  1  0
 27  8  2  0
 16 11  1  0
 26 22  1  0
  3 28  1  0
  5 29  1  0
  6 30  1  0
  7 31  1  0
 12 32  1  0
 13 33  1  0
 14 34  1  0
 15 35  1  0
 18 36  1  0
 18 37  1  0
 19 38  1  0
 20 39  1  0
 21 40  1  0
 21 41  1  0
 23 42  1  0
 23 43  1  0
 24 44  1  0
 24 45  1  0
 25 46  1  0
 25 47  1  0
 26 48  1  0
 26 49  1  0
M  END
$$$$
