
     RDKit          3D

 23 23  0  0  0  0  0  0  0  0999 V2000
   -1.6666    2.4274   -1.9769 O   0  0  0  0  0  0  0  0  0  0  0  0
   -0.8847    1.6776   -1.4213 C   0  0  0  0  0  0  0  0  0  0  0  0
    0.3792    2.0517   -1.1565 O   0  0  0  0  0  0  0  0  0  0  0  0
   -1.2236    0.3618   -0.8435 C   0  0  0  0  0  0  0  0  0  0  0  0
   -2.4916    0.2470   -0.2502 C   0  0  0  0  0  0  0  0  0  0  0  0
   -2.8971   -0.9598    0.3188 C   0  0  0  0  0  0  0  0  0  0  0  0
   -2.0467   -2.0611    0.2831 C   0  0  0  0  0  0  0  0  0  0  0  0
   -0.7921   -1.9548   -0.3218 C   0  0  0  0  0  0  0  0  0  0  0  0
   -0.3565   -0.7443   -0.8818 C   0  0  0  0  0  0  0  0  0  0  0  0
    0.8900   -0.7364   -1.5302 N   0  0  0  0  0  0  0  0  0  0  0  0
    1.9665   -0.4253   -0.8662 C   0  0  0  0  0  0  0  0  0  0  0  0
    2.0787   -0.0860    0.5911 C   0  0  0  0  0  0  0  0  0  0  0  0
    2.9517    1.1191    0.6948 N   0  0  0  0  0  4  0  0  0  0  0  0
    2.4519    2.1482    1.1662 O   0  0  0  0  0  0  0  0  0  0  0  0
    4.1324    0.9928    0.3417 O   0  0  0  0  0  1  0  0  0  0  0  0
    0.4422    2.9562   -1.5312 H   0  0  0  0  0  0  0  0  0  0  0  0
   -3.1663    1.1015   -0.2343 H   0  0  0  0  0  0  0  0  0  0  0  0
   -3.8805   -1.0428    0.7758 H   0  0  0  0  0  0  0  0  0  0  0  0
   -2.3666   -3.0100    0.7075 H   0  0  0  0  0  0  0  0  0  0  0  0
   -0.1521   -2.8325   -0.3785 H   0  0  0  0  0  0  0  0  0  0  0  0
    2.9113   -0.4743   -1.4369 H   0  0  0  0  0  0  0  0  0  0  0  0
    1.1261    0.1354    1.0732 H   0  0  0  0  0  0  0  0  0  0  0  0
    2.5943   -0.8915    1.1208 H   0  0  0  0  0  0  0  0  0  0  0  0
  1  2  2  0
  2  3  1  0
  2  4  1  0
  4  5  2  0
  5  6  1  0
  6  7  2  0
  7  8  1  0
  8  9  2  0
  9 10  1  0
 10 11  2  3
 11 12  1  0
 12 13  1  0
 13 14  2  0
 13 15  1  0
  9  4  1  0
  3 16  1  0
  5 17  1  0
  6 18  1  0
  7 19  1  0
  8 20  1  0
 11 21  1  0
 12 22  1  0
 12 23  1  0
M  CHG  2  13   1  15  -1
M  END
$$$$
