
     RDKit          3D

 45 48  0  0  0  0  0  0  0  0999 V2000
    4.9929    0.6624   -1.4447 C   0  0  0  0  0  0  0  0  0  0  0  0
    4.6714    0.1412   -0.0554 C   0  0  0  0  0  0  0  0  0  0  0  0
    3.2666   -0.0914    0.0075 O   0  0  0  0  0  0  0  0  0  0  0  0
    2.7400   -0.6017    1.1686 C   0  0  0  0  0  0  0  0  0  0  0  0
    3.5062   -0.8615    2.3155 C   0  0  0  0  0  0  0  0  0  0  0  0
    2.9078   -1.3445    3.4806 C   0  0  0  0  0  0  0  0  0  0  0  0
    1.5385   -1.5690    3.5167 C   0  0  0  0  0  0  0  0  0  0  0  0
    0.7676   -1.3155    2.3823 C   0  0  0  0  0  0  0  0  0  0  0  0
    1.3443   -0.8369    1.1842 C   0  0  0  0  0  0  0  0  0  0  0  0
    0.4761   -0.6005    0.0156 C   0  0  0  0  0  0  0  0  0  0  0  0
    0.9416   -0.9402   -1.2062 N   0  0  0  0  0  0  0  0  0  0  0  0
    0.1095   -0.7291   -2.2536 C   0  0  0  0  0  0  0  0  0  0  0  0
    0.6315   -1.0809   -3.6025 C   0  0  0  0  0  0  0  0  0  0  0  0
    1.9180   -1.5476   -3.6289 N   0  0  0  0  0  0  0  0  0  0  0  0
   -0.0378   -0.9585   -4.6207 O   0  0  0  0  0  0  0  0  0  0  0  0
   -1.1434   -0.2220   -2.0882 C   0  0  0  0  0  0  0  0  0  0  0  0
   -2.1687    0.0575   -2.9766 N   0  0  0  0  0  0  0  0  0  0  0  0
   -3.2634    0.5516   -2.2547 C   0  0  0  0  0  0  0  0  0  0  0  0
   -4.3121    0.8840   -2.7824 O   0  0  0  0  0  0  0  0  0  0  0  0
   -2.8680    0.5750   -0.8814 N   0  0  0  0  0  0  0  0  0  0  0  0
   -3.6510    0.9971    0.2277 C   0  0  0  0  0  0  0  0  0  0  0  0
   -5.0209    1.2693    0.0694 C   0  0  0  0  0  0  0  0  0  0  0  0
   -5.8209    1.6862    1.1415 C   0  0  0  0  0  0  0  0  0  0  0  0
   -5.2679    1.8461    2.4047 C   0  0  0  0  0  0  0  0  0  0  0  0
   -3.9158    1.5912    2.5914 C   0  0  0  0  0  0  0  0  0  0  0  0
   -3.1197    1.1736    1.5156 C   0  0  0  0  0  0  0  0  0  0  0  0
   -1.5389    0.0832   -0.8085 C   0  0  0  0  0  0  0  0  0  0  0  0
   -0.7599   -0.1074    0.2614 N   0  0  0  0  0  0  0  0  0  0  0  0
    6.0635    0.8597   -1.5493 H   0  0  0  0  0  0  0  0  0  0  0  0
    4.6905   -0.0625   -2.2078 H   0  0  0  0  0  0  0  0  0  0  0  0
    4.4411    1.5864   -1.6472 H   0  0  0  0  0  0  0  0  0  0  0  0
    5.2210   -0.7923    0.1109 H   0  0  0  0  0  0  0  0  0  0  0  0
    4.9658    0.8926    0.6860 H   0  0  0  0  0  0  0  0  0  0  0  0
    4.5775   -0.6904    2.3392 H   0  0  0  0  0  0  0  0  0  0  0  0
    3.5139   -1.5393    4.3620 H   0  0  0  0  0  0  0  0  0  0  0  0
    1.0675   -1.9406    4.4232 H   0  0  0  0  0  0  0  0  0  0  0  0
   -0.3052   -1.5011    2.4305 H   0  0  0  0  0  0  0  0  0  0  0  0
    2.4509   -1.6073   -2.7666 H   0  0  0  0  0  0  0  0  0  0  0  0
    2.3477   -1.7864   -4.5108 H   0  0  0  0  0  0  0  0  0  0  0  0
   -2.1400   -0.0796   -3.9801 H   0  0  0  0  0  0  0  0  0  0  0  0
   -5.5174    1.1530   -0.8896 H   0  0  0  0  0  0  0  0  0  0  0  0
   -6.8777    1.8833    0.9792 H   0  0  0  0  0  0  0  0  0  0  0  0
   -5.8859    2.1711    3.2369 H   0  0  0  0  0  0  0  0  0  0  0  0
   -3.4684    1.7217    3.5736 H   0  0  0  0  0  0  0  0  0  0  0  0
   -2.0686    1.0199    1.7308 H   0  0  0  0  0  0  0  0  0  0  0  0
  1  2  1  0
  2  3  1  0
  3  4  1  0
  4  5  2  0
  5  6  1  0
  6  7  2  0
  7  8  1  0
  8  9  2  0
  9 10  1  0
 10 11  2  0
 11 12  1  0
 12 13  1  0
 13 14  1  0
 13 15  2  0
 12 16  2  0
 16 17  1  0
 17 18  1  0
 18 19  2  0
 18 20  1  0
 20 21  1  0
 21 22  2  0
 22 23  1  0
 23 24  2  0
 24 25  1  0
 25 26  2  0
 20 27  1  0
 27 28  2  0
  9  4  1  0
 28 10  1  0
 27 16  1  0
 26 21  1  0
  1 29  1  0
  1 30  1  0
  1 31  1  0
  2 32  1  0
  2 33  1  0
  5 34  1  0
  6 35  1  0
  7 36  1  0
  8 37  1  0
 14 38  1  0
 14 39  1  0
 17 40  1  0
 22 41  1  0
 23 42  1  0
 24 43  1  0
 25 44  1  0
 26 45  1  0
M  END
$$$$
