
     RDKit          3D

 39 40  0  0  0  0  0  0  0  0999 V2000
   -3.2285    0.9334    2.4822 C   0  0  0  0  0  0  0  0  0  0  0  0
   -1.9975    0.3422    1.8109 C   0  0  0  0  0  0  0  0  0  0  0  0
   -1.8462    0.8379    0.4822 O   0  0  0  0  0  0  0  0  0  0  0  0
   -2.5447    0.2524   -0.5411 C   0  0  0  0  0  0  0  0  0  0  0  0
   -3.3977   -0.8461   -0.4209 C   0  0  0  0  0  0  0  0  0  0  0  0
   -4.0527   -1.3513   -1.5493 C   0  0  0  0  0  0  0  0  0  0  0  0
   -3.8720   -0.7539   -2.7986 C   0  0  0  0  0  0  0  0  0  0  0  0
   -3.0261    0.3457   -2.9286 C   0  0  0  0  0  0  0  0  0  0  0  0
   -2.3426    0.8266   -1.8124 C   0  0  0  0  0  0  0  0  0  0  0  0
   -1.5208    1.9258   -1.8971 O   0  0  0  0  0  0  0  0  0  0  0  0
   -0.4177    1.7492   -2.7806 C   0  0  0  0  0  0  0  0  0  0  0  0
    0.7425    0.9036   -2.2385 C   0  0  0  0  0  0  0  0  0  0  0  0
    1.5523    0.3955   -3.0093 O   0  0  0  0  0  0  0  0  0  0  0  0
    0.7617    0.8414   -0.8660 N   0  0  0  0  0  0  0  0  0  0  0  0
    1.6496    0.1573   -0.0775 C   0  0  0  0  0  0  0  0  0  0  0  0
    1.4911    0.0436    1.2238 N   0  0  0  0  0  0  0  0  0  0  0  0
    2.4999   -0.6916    1.8128 N   0  0  0  0  0  0  0  0  0  0  0  0
    3.3959   -1.0890    0.9305 C   0  0  0  0  0  0  0  0  0  0  0  0
    4.6077   -1.9014    1.2531 C   0  0  0  0  0  0  0  0  0  0  0  0
    5.7613   -1.0508    1.2979 O   0  0  0  0  0  0  0  0  0  0  0  0
    5.8632   -0.3279    2.5207 C   0  0  0  0  0  0  0  0  0  0  0  0
    3.0532   -0.5962   -0.6786 S   0  0  0  0  0  0  0  0  0  0  0  0
   -3.1862    2.0277    2.4600 H   0  0  0  0  0  0  0  0  0  0  0  0
   -4.1484    0.6399    1.9687 H   0  0  0  0  0  0  0  0  0  0  0  0
   -3.2898    0.6032    3.5254 H   0  0  0  0  0  0  0  0  0  0  0  0
   -1.1149    0.6766    2.3610 H   0  0  0  0  0  0  0  0  0  0  0  0
   -1.9783   -0.7533    1.8522 H   0  0  0  0  0  0  0  0  0  0  0  0
   -3.5802   -1.3322    0.5311 H   0  0  0  0  0  0  0  0  0  0  0  0
   -4.7194   -2.2070   -1.4498 H   0  0  0  0  0  0  0  0  0  0  0  0
   -4.4035   -1.1365   -3.6711 H   0  0  0  0  0  0  0  0  0  0  0  0
   -2.9295    0.8307   -3.8950 H   0  0  0  0  0  0  0  0  0  0  0  0
   -0.7301    1.3486   -3.7477 H   0  0  0  0  0  0  0  0  0  0  0  0
   -0.0060    2.7430   -2.9761 H   0  0  0  0  0  0  0  0  0  0  0  0
   -0.0385    1.2138   -0.3597 H   0  0  0  0  0  0  0  0  0  0  0  0
    4.4886   -2.4408    2.2015 H   0  0  0  0  0  0  0  0  0  0  0  0
    4.7819   -2.6514    0.4729 H   0  0  0  0  0  0  0  0  0  0  0  0
    5.0404    0.3867    2.6246 H   0  0  0  0  0  0  0  0  0  0  0  0
    6.8015    0.2328    2.5116 H   0  0  0  0  0  0  0  0  0  0  0  0
    5.8805   -1.0149    3.3746 H   0  0  0  0  0  0  0  0  0  0  0  0
  1  2  1  0
  2  3  1  0
  3  4  1  0
  4  5  2  0
  5  6  1  0
  6  7  2  0
  7  8  1  0
  8  9  2  0
  9 10  1  0
 10 11  1  0
 11 12  1  0
 12 13  2  0
 12 14  1  0
 14 15  1  0
 15 16  2  0
 16 17  1  0
 17 18  2  0
 18 19  1  0
 19 20  1  0
 20 21  1  0
 18 22  1  0
  9  4  1  0
 22 15  1  0
  1 23  1  0
  1 24  1  0
  1 25  1  0
  2 26  1  0
  2 27  1  0
  5 28  1  0
  6 29  1  0
  7 30  1  0
  8 31  1  0
 11 32  1  0
 11 33  1  0
 14 34  1  0
 19 35  1  0
 19 36  1  0
 21 37  1  0
 21 38  1  0
 21 39  1  0
M  END
$$$$
