
     RDKit          3D

 45 47  0  0  0  0  0  0  0  0999 V2000
   -7.9947    0.0454    0.9517 C   0  0  0  0  0  0  0  0  0  0  0  0
   -6.8066   -0.2474    0.0374 C   0  0  0  0  0  0  0  0  0  0  0  0
   -5.8378   -0.9942    0.7970 O   0  0  0  0  0  0  0  0  0  0  0  0
   -4.5711   -0.5245    0.5669 C   0  0  0  0  0  0  0  0  0  0  0  0
   -4.1260    0.5786    1.2998 C   0  0  0  0  0  0  0  0  0  0  0  0
   -2.8265    1.0492    1.1195 C   0  0  0  0  0  0  0  0  0  0  0  0
   -1.9669    0.4089    0.2172 C   0  0  0  0  0  0  0  0  0  0  0  0
   -0.6046    0.9236    0.0471 C   0  0  0  0  0  0  0  0  0  0  0  0
    0.5111    0.3228    0.4813 C   0  0  0  0  0  0  0  0  0  0  0  0
    0.6476   -1.1752    1.3277 S   0  0  0  0  0  0  0  0  0  0  0  0
    2.4001   -1.0565    1.4723 C   0  0  0  0  0  0  0  0  0  0  0  0
    3.3385   -2.1872    2.2715 S   0  0  0  0  0  0  0  0  0  0  0  0
    2.8072    0.1161    0.8693 N   0  0  0  0  0  0  0  0  0  0  0  0
    4.1622    0.4856    0.7802 N   0  0  0  0  0  0  0  0  0  0  0  0
    4.8148    0.1375   -0.3914 C   0  0  0  0  0  0  0  0  0  0  0  0
    4.3341   -0.5904   -1.2534 O   0  0  0  0  0  0  0  0  0  0  0  0
    6.1570    0.7426   -0.5852 C   0  0  0  0  0  0  0  0  0  0  0  0
    6.5938    0.9928   -1.8856 C   0  0  0  0  0  0  0  0  0  0  0  0
    7.8465    1.5524   -2.0508 C   0  0  0  0  0  0  0  0  0  0  0  0
    8.6679    1.8598   -1.0245 N   0  0  0  0  0  0  0  0  0  0  0  0
    8.2261    1.5902    0.2232 C   0  0  0  0  0  0  0  0  0  0  0  0
    6.9886    1.0362    0.4961 C   0  0  0  0  0  0  0  0  0  0  0  0
    1.8507    0.9501    0.3118 C   0  0  0  0  0  0  0  0  0  0  0  0
    2.0487    2.0498   -0.1893 O   0  0  0  0  0  0  0  0  0  0  0  0
   -2.4189   -0.7074   -0.5070 C   0  0  0  0  0  0  0  0  0  0  0  0
   -3.7170   -1.1941   -0.3150 C   0  0  0  0  0  0  0  0  0  0  0  0
   -4.2257   -2.2781   -0.9856 O   0  0  0  0  0  0  0  0  0  0  0  0
   -3.3048   -3.3498   -1.1598 C   0  0  0  0  0  0  0  0  0  0  0  0
   -8.7614    0.6336    0.4309 H   0  0  0  0  0  0  0  0  0  0  0  0
   -7.6629    0.5971    1.8370 H   0  0  0  0  0  0  0  0  0  0  0  0
   -8.4416   -0.8904    1.3156 H   0  0  0  0  0  0  0  0  0  0  0  0
   -6.4103    0.6953   -0.3618 H   0  0  0  0  0  0  0  0  0  0  0  0
   -7.1266   -0.8652   -0.8109 H   0  0  0  0  0  0  0  0  0  0  0  0
   -4.7881    1.0634    2.0113 H   0  0  0  0  0  0  0  0  0  0  0  0
   -2.4888    1.9110    1.6935 H   0  0  0  0  0  0  0  0  0  0  0  0
   -0.5411    1.8897   -0.4552 H   0  0  0  0  0  0  0  0  0  0  0  0
    4.3910    1.3712    1.2173 H   0  0  0  0  0  0  0  0  0  0  0  0
    5.9760    0.7621   -2.7455 H   0  0  0  0  0  0  0  0  0  0  0  0
    8.2367    1.7718   -3.0396 H   0  0  0  0  0  0  0  0  0  0  0  0
    8.9201    1.8337    1.0231 H   0  0  0  0  0  0  0  0  0  0  0  0
    6.7109    0.8186    1.5218 H   0  0  0  0  0  0  0  0  0  0  0  0
   -1.7565   -1.1833   -1.2251 H   0  0  0  0  0  0  0  0  0  0  0  0
   -2.6739   -3.1689   -2.0334 H   0  0  0  0  0  0  0  0  0  0  0  0
   -2.6955   -3.5136   -0.2634 H   0  0  0  0  0  0  0  0  0  0  0  0
   -3.8824   -4.2630   -1.3393 H   0  0  0  0  0  0  0  0  0  0  0  0
  1  2  1  0
  2  3  1  0
  3  4  1  0
  4  5  2  0
  5  6  1  0
  6  7  2  0
  7  8  1  0
  8  9  2  3
  9 10  1  0
 10 11  1  0
 11 12  2  0
 11 13  1  0
 13 14  1  0
 14 15  1  0
 15 16  2  0
 15 17  1  0
 17 18  2  0
 18 19  1  0
 19 20  2  0
 20 21  1  0
 21 22  2  0
 13 23  1  0
 23 24  2  0
  7 25  1  0
 25 26  2  0
 26 27  1  0
 27 28  1  0
 26  4  1  0
 23  9  1  0
 22 17  1  0
  1 29  1  0
  1 30  1  0
  1 31  1  0
  2 32  1  0
  2 33  1  0
  5 34  1  0
  6 35  1  0
  8 36  1  0
 14 37  1  0
 18 38  1  0
 19 39  1  0
 21 40  1  0
 22 41  1  0
 25 42  1  0
 28 43  1  0
 28 44  1  0
 28 45  1  0
M  END
$$$$
