
     RDKit          3D

 41 43  0  0  0  0  0  0  0  0999 V2000
   -3.3045   -1.5344    0.2639 C   0  0  0  0  0  0  0  0  0  0  0  0
   -3.0809   -0.1120    0.3027 N   0  0  0  0  0  0  0  0  0  0  0  0
   -1.8834    0.5337    0.4376 C   0  0  0  0  0  0  0  0  0  0  0  0
   -0.3484   -0.2578    0.4402 S   0  0  0  0  0  0  0  0  0  0  0  0
    0.7278    1.1457    0.8598 C   0  0  0  0  0  0  0  0  0  0  0  0
    2.1729    0.6856    0.8589 C   0  0  0  0  0  0  0  0  0  0  0  0
    2.7713    0.4144    1.8976 O   0  0  0  0  0  0  0  0  0  0  0  0
    2.7149    0.6212   -0.4264 N   0  0  0  0  0  0  0  0  0  0  0  0
    3.9447    0.0836   -0.7222 N   0  0  0  0  0  0  0  0  0  0  0  0
    4.9261    0.3060    0.0959 C   0  0  0  0  0  0  0  0  0  0  0  0
    6.2421   -0.2610   -0.1108 C   0  0  0  0  0  0  0  0  0  0  0  0
    7.3557   -0.1006    0.6930 C   0  0  0  0  0  0  0  0  0  0  0  0
    8.4926   -0.8073    0.1956 C   0  0  0  0  0  0  0  0  0  0  0  0
    8.1935   -1.4831   -0.9681 C   0  0  0  0  0  0  0  0  0  0  0  0
    9.0924   -2.3029   -1.7388 N   0  0  0  0  0  4  0  0  0  0  0  0
    8.6560   -2.8714   -2.7484 O   0  0  0  0  0  0  0  0  0  0  0  0
   10.2561   -2.3799   -1.3202 O   0  0  0  0  0  1  0  0  0  0  0  0
    6.5838   -1.2630   -1.4588 S   0  0  0  0  0  0  0  0  0  0  0  0
   -2.0819    1.8248    0.5391 N   0  0  0  0  0  0  0  0  0  0  0  0
   -3.4344    2.0422    0.4591 N   0  0  0  0  0  0  0  0  0  0  0  0
   -4.0382    0.8811    0.2717 C   0  0  0  0  0  0  0  0  0  0  0  0
   -5.4770    0.6991    0.1028 C   0  0  0  0  0  0  0  0  0  0  0  0
   -6.0021   -0.0283   -0.9749 C   0  0  0  0  0  0  0  0  0  0  0  0
   -7.3844   -0.1796   -1.1202 C   0  0  0  0  0  0  0  0  0  0  0  0
   -8.2472    0.4042   -0.1946 C   0  0  0  0  0  0  0  0  0  0  0  0
   -9.9473    0.2197   -0.3765 Cl  0  0  0  0  0  0  0  0  0  0  0  0
   -7.7408    1.1454    0.8706 C   0  0  0  0  0  0  0  0  0  0  0  0
   -6.3590    1.2969    1.0136 C   0  0  0  0  0  0  0  0  0  0  0  0
   -4.3145   -1.7631    0.6113 H   0  0  0  0  0  0  0  0  0  0  0  0
   -3.1693   -1.8761   -0.7657 H   0  0  0  0  0  0  0  0  0  0  0  0
   -2.5994   -2.0377    0.9292 H   0  0  0  0  0  0  0  0  0  0  0  0
    0.6074    1.9564    0.1331 H   0  0  0  0  0  0  0  0  0  0  0  0
    0.4817    1.5331    1.8534 H   0  0  0  0  0  0  0  0  0  0  0  0
    2.0503    0.5280   -1.1929 H   0  0  0  0  0  0  0  0  0  0  0  0
    4.8244    0.9614    0.9783 H   0  0  0  0  0  0  0  0  0  0  0  0
    7.3573    0.4918    1.6017 H   0  0  0  0  0  0  0  0  0  0  0  0
    9.4670   -0.8193    0.6705 H   0  0  0  0  0  0  0  0  0  0  0  0
   -5.3441   -0.4631   -1.7243 H   0  0  0  0  0  0  0  0  0  0  0  0
   -7.7807   -0.7389   -1.9637 H   0  0  0  0  0  0  0  0  0  0  0  0
   -8.4107    1.6150    1.5855 H   0  0  0  0  0  0  0  0  0  0  0  0
   -5.9699    1.8901    1.8395 H   0  0  0  0  0  0  0  0  0  0  0  0
  1  2  1  0
  2  3  1  0
  3  4  1  0
  4  5  1  0
  5  6  1  0
  6  7  2  0
  6  8  1  0
  8  9  1  0
  9 10  2  3
 10 11  1  0
 11 12  2  0
 12 13  1  0
 13 14  2  0
 14 15  1  0
 15 16  2  0
 15 17  1  0
 14 18  1  0
  3 19  2  0
 19 20  1  0
 20 21  2  0
 21 22  1  0
 22 23  2  0
 23 24  1  0
 24 25  2  0
 25 26  1  0
 25 27  1  0
 27 28  2  0
 21  2  1  0
 28 22  1  0
 18 11  1  0
  1 29  1  0
  1 30  1  0
  1 31  1  0
  5 32  1  0
  5 33  1  0
  8 34  1  0
 10 35  1  0
 12 36  1  0
 13 37  1  0
 23 38  1  0
 24 39  1  0
 27 40  1  0
 28 41  1  0
M  CHG  2  15   1  17  -1
M  END
$$$$
