
     RDKit          3D

 37 40  0  0  0  0  0  0  0  0999 V2000
   -2.2463    2.2830    0.8301 C   0  0  0  0  0  0  0  0  0  0  0  0
   -3.2297    1.1697    1.1487 C   0  0  0  0  0  0  0  0  0  0  0  0
   -2.8419   -0.0565    0.5317 O   0  0  0  0  0  0  0  0  0  0  0  0
   -3.1239   -0.2607   -0.7955 C   0  0  0  0  0  0  0  0  0  0  0  0
   -3.9555    0.5480   -1.5752 C   0  0  0  0  0  0  0  0  0  0  0  0
   -4.1901    0.2370   -2.9183 C   0  0  0  0  0  0  0  0  0  0  0  0
   -3.6002   -0.8847   -3.4942 C   0  0  0  0  0  0  0  0  0  0  0  0
   -2.7691   -1.7003   -2.7291 C   0  0  0  0  0  0  0  0  0  0  0  0
   -2.5225   -1.3926   -1.3840 C   0  0  0  0  0  0  0  0  0  0  0  0
   -1.6406   -2.2841   -0.6192 C   0  0  0  0  0  0  0  0  0  0  0  0
   -0.4091   -1.9682   -0.1934 C   0  0  0  0  0  0  0  0  0  0  0  0
    0.5353   -3.0821    0.7969 S   0  0  0  0  0  0  0  0  0  0  0  0
    1.7781   -1.9102    0.9181 C   0  0  0  0  0  0  0  0  0  0  0  0
    2.9382   -1.8500    1.5037 N   0  0  0  0  0  0  0  0  0  0  0  0
    3.3724   -0.5882    1.1275 C   0  0  0  0  0  0  0  0  0  0  0  0
    4.7535   -0.0124    1.5835 C   0  0  0  0  0  0  0  0  0  0  0  0
    5.2604    1.2302    1.2527 C   0  0  0  0  0  0  0  0  0  0  0  0
    6.5276    1.3336    1.8762 C   0  0  0  0  0  0  0  0  0  0  0  0
    6.7175    0.1503    2.5489 C   0  0  0  0  0  0  0  0  0  0  0  0
    5.6505   -0.6712    2.3786 O   0  0  0  0  0  0  0  0  0  0  0  0
    2.5208    0.1030    0.3404 N   0  0  0  0  0  0  0  0  0  0  0  0
    1.5108   -0.7805    0.2356 N   0  0  0  0  0  0  0  0  0  0  0  0
    0.3220   -0.6823   -0.4564 C   0  0  0  0  0  0  0  0  0  0  0  0
    0.0292    0.2824   -1.1371 O   0  0  0  0  0  0  0  0  0  0  0  0
   -2.5049    3.1941    1.3772 H   0  0  0  0  0  0  0  0  0  0  0  0
   -1.2288    1.9852    1.1043 H   0  0  0  0  0  0  0  0  0  0  0  0
   -2.2329    2.5133   -0.2392 H   0  0  0  0  0  0  0  0  0  0  0  0
   -3.2020    0.9892    2.2295 H   0  0  0  0  0  0  0  0  0  0  0  0
   -4.2653    1.4430    0.9221 H   0  0  0  0  0  0  0  0  0  0  0  0
   -4.4386    1.4321   -1.1753 H   0  0  0  0  0  0  0  0  0  0  0  0
   -4.8351    0.8766   -3.5161 H   0  0  0  0  0  0  0  0  0  0  0  0
   -3.7838   -1.1209   -4.5391 H   0  0  0  0  0  0  0  0  0  0  0  0
   -2.3103   -2.5711   -3.1913 H   0  0  0  0  0  0  0  0  0  0  0  0
   -2.0832   -3.2480   -0.3787 H   0  0  0  0  0  0  0  0  0  0  0  0
    4.7661    1.9668    0.6337 H   0  0  0  0  0  0  0  0  0  0  0  0
    7.2160    2.1661    1.8397 H   0  0  0  0  0  0  0  0  0  0  0  0
    7.5153   -0.2437    3.1631 H   0  0  0  0  0  0  0  0  0  0  0  0
  1  2  1  0
  2  3  1  0
  3  4  1  0
  4  5  2  0
  5  6  1  0
  6  7  2  0
  7  8  1  0
  8  9  2  0
  9 10  1  0
 10 11  2  3
 11 12  1  0
 12 13  1  0
 13 14  2  0
 14 15  1  0
 15 16  1  0
 16 17  2  0
 17 18  1  0
 18 19  2  0
 19 20  1  0
 15 21  2  0
 21 22  1  0
 22 23  1  0
 23 24  2  0
  9  4  1  0
 23 11  1  0
 22 13  1  0
 20 16  1  0
  1 25  1  0
  1 26  1  0
  1 27  1  0
  2 28  1  0
  2 29  1  0
  5 30  1  0
  6 31  1  0
  7 32  1  0
  8 33  1  0
 10 34  1  0
 17 35  1  0
 18 36  1  0
 19 37  1  0
M  END
$$$$
