
     RDKit          3D

 71 73  0  0  0  0  0  0  0  0999 V2000
   -6.0836    2.6512    2.9697 C   0  0  0  0  0  0  0  0  0  0  0  0
   -6.3287    1.6198    2.0239 O   0  0  0  0  0  0  0  0  0  0  0  0
   -5.2739    0.8208    1.6563 C   0  0  0  0  0  0  0  0  0  0  0  0
   -3.9695    0.9613    2.1460 C   0  0  0  0  0  0  0  0  0  0  0  0
   -2.9582    0.1020    1.7078 C   0  0  0  0  0  0  0  0  0  0  0  0
   -1.5822    0.2363    2.1859 C   0  0  0  0  0  0  0  0  0  0  0  0
   -0.6059   -0.5716    1.7337 C   0  0  0  0  0  0  0  0  0  0  0  0
    0.8233   -0.4628    2.1800 C   0  0  0  0  0  0  0  0  0  0  0  0
    1.6604    0.1943    1.1587 N   0  0  0  0  0  0  0  0  0  0  0  0
    1.4398    1.6477    0.9771 C   0  0  0  0  0  0  0  0  0  0  0  0
    0.7737    1.9686   -0.3690 C   0  0  0  0  0  0  0  0  0  0  0  0
    0.6472    3.4596   -0.5997 C   0  0  0  0  0  0  0  0  0  0  0  0
    1.7678    4.1461   -1.1030 C   0  0  0  0  0  0  0  0  0  0  0  0
    1.7269    5.5209   -1.3281 C   0  0  0  0  0  0  0  0  0  0  0  0
    0.5652    6.2320   -1.0530 C   0  0  0  0  0  0  0  0  0  0  0  0
   -0.5539    5.5682   -0.5507 C   0  0  0  0  0  0  0  0  0  0  0  0
   -0.5292    4.1828   -0.3170 C   0  0  0  0  0  0  0  0  0  0  0  0
   -1.7618    3.5205    0.2327 C   0  0  0  0  0  0  0  0  0  0  0  0
    2.7347   -0.4720    0.5306 C   0  0  0  0  0  0  0  0  0  0  0  0
    4.0653    0.3110   -0.1399 S   0  0  0  0  0  0  0  0  0  0  0  0
    2.5985   -1.8463    0.5353 N   0  0  0  0  0  0  0  0  0  0  0  0
    3.5213   -2.8404   -0.0141 C   0  0  0  0  0  0  0  0  0  0  0  0
    3.2759   -3.0773   -1.5038 C   0  0  0  0  0  0  0  0  0  0  0  0
    4.0735   -4.2659   -2.0560 C   0  0  0  0  0  0  0  0  0  0  0  0
    5.5284   -4.1846   -1.8510 N   0  0  0  0  0  0  0  0  0  0  0  0
    6.1260   -3.0704   -2.5914 C   0  0  0  0  0  0  0  0  0  0  0  0
    6.1654   -5.4414   -2.2517 C   0  0  0  0  0  0  0  0  0  0  0  0
   -0.9434   -1.6809    0.7937 C   0  0  0  0  0  0  0  0  0  0  0  0
   -0.1019   -2.4981    0.4299 O   0  0  0  0  0  0  0  0  0  0  0  0
   -2.2383   -1.7595    0.3561 N   0  0  0  0  0  0  0  0  0  0  0  0
   -3.2573   -0.8993    0.7814 C   0  0  0  0  0  0  0  0  0  0  0  0
   -4.5516   -1.0540    0.2861 C   0  0  0  0  0  0  0  0  0  0  0  0
   -5.5668   -0.1940    0.7189 C   0  0  0  0  0  0  0  0  0  0  0  0
   -6.8714   -0.2594    0.2943 O   0  0  0  0  0  0  0  0  0  0  0  0
   -7.2058   -1.2429   -0.6741 C   0  0  0  0  0  0  0  0  0  0  0  0
   -5.7483    2.2383    3.9269 H   0  0  0  0  0  0  0  0  0  0  0  0
   -7.0286    3.1742    3.1469 H   0  0  0  0  0  0  0  0  0  0  0  0
   -5.3670    3.3817    2.5798 H   0  0  0  0  0  0  0  0  0  0  0  0
   -3.7214    1.7351    2.8644 H   0  0  0  0  0  0  0  0  0  0  0  0
   -1.3665    1.0287    2.8958 H   0  0  0  0  0  0  0  0  0  0  0  0
    0.9023    0.1430    3.0922 H   0  0  0  0  0  0  0  0  0  0  0  0
    1.2171   -1.4434    2.4661 H   0  0  0  0  0  0  0  0  0  0  0  0
    2.3951    2.1742    1.0759 H   0  0  0  0  0  0  0  0  0  0  0  0
    0.8192    2.0235    1.7997 H   0  0  0  0  0  0  0  0  0  0  0  0
   -0.2051    1.4815   -0.4326 H   0  0  0  0  0  0  0  0  0  0  0  0
    1.3466    1.5353   -1.1983 H   0  0  0  0  0  0  0  0  0  0  0  0
    2.6867    3.6046   -1.3237 H   0  0  0  0  0  0  0  0  0  0  0  0
    2.6021    6.0333   -1.7185 H   0  0  0  0  0  0  0  0  0  0  0  0
    0.5285    7.3037   -1.2290 H   0  0  0  0  0  0  0  0  0  0  0  0
   -1.4530    6.1444   -0.3428 H   0  0  0  0  0  0  0  0  0  0  0  0
   -1.5416    3.0753    1.2071 H   0  0  0  0  0  0  0  0  0  0  0  0
   -2.5758    4.2388    0.3787 H   0  0  0  0  0  0  0  0  0  0  0  0
   -2.1260    2.7527   -0.4567 H   0  0  0  0  0  0  0  0  0  0  0  0
    1.6339   -2.1739    0.5500 H   0  0  0  0  0  0  0  0  0  0  0  0
    4.5525   -2.5337    0.1835 H   0  0  0  0  0  0  0  0  0  0  0  0
    3.3358   -3.7637    0.5459 H   0  0  0  0  0  0  0  0  0  0  0  0
    2.2086   -3.2818   -1.6624 H   0  0  0  0  0  0  0  0  0  0  0  0
    3.4889   -2.1705   -2.0801 H   0  0  0  0  0  0  0  0  0  0  0  0
    3.6959   -5.1675   -1.5550 H   0  0  0  0  0  0  0  0  0  0  0  0
    3.8413   -4.3833   -3.1228 H   0  0  0  0  0  0  0  0  0  0  0  0
    5.9336   -3.1404   -3.6681 H   0  0  0  0  0  0  0  0  0  0  0  0
    5.7512   -2.1072   -2.2328 H   0  0  0  0  0  0  0  0  0  0  0  0
    7.2113   -3.0467   -2.4379 H   0  0  0  0  0  0  0  0  0  0  0  0
    6.0164   -5.6603   -3.3154 H   0  0  0  0  0  0  0  0  0  0  0  0
    5.7681   -6.2793   -1.6679 H   0  0  0  0  0  0  0  0  0  0  0  0
    7.2426   -5.4078   -2.0531 H   0  0  0  0  0  0  0  0  0  0  0  0
   -2.4387   -2.5089   -0.2925 H   0  0  0  0  0  0  0  0  0  0  0  0
   -4.7487   -1.8429   -0.4300 H   0  0  0  0  0  0  0  0  0  0  0  0
   -8.2718   -1.1416   -0.8989 H   0  0  0  0  0  0  0  0  0  0  0  0
   -6.6521   -1.0845   -1.6055 H   0  0  0  0  0  0  0  0  0  0  0  0
   -7.0429   -2.2532   -0.2841 H   0  0  0  0  0  0  0  0  0  0  0  0
  1  2  1  0
  2  3  1  0
  3  4  2  0
  4  5  1  0
  5  6  1  0
  6  7  2  0
  7  8  1  0
  8  9  1  0
  9 10  1  0
 10 11  1  0
 11 12  1  0
 12 13  2  0
 13 14  1  0
 14 15  2  0
 15 16  1  0
 16 17  2  0
 17 18  1  0
  9 19  1  0
 19 20  2  0
 19 21  1  0
 21 22  1  0
 22 23  1  0
 23 24  1  0
 24 25  1  0
 25 26  1  0
 25 27  1  0
  7 28  1  0
 28 29  2  0
 28 30  1  0
 30 31  1  0
 31 32  1  0
 32 33  2  0
 33 34  1  0
 34 35  1  0
 33  3  1  0
 31  5  2  0
 17 12  1  0
  1 36  1  0
  1 37  1  0
  1 38  1  0
  4 39  1  0
  6 40  1  0
  8 41  1  0
  8 42  1  0
 10 43  1  0
 10 44  1  0
 11 45  1  0
 11 46  1  0
 13 47  1  0
 14 48  1  0
 15 49  1  0
 16 50  1  0
 18 51  1  0
 18 52  1  0
 18 53  1  0
 21 54  1  0
 22 55  1  0
 22 56  1  0
 23 57  1  0
 23 58  1  0
 24 59  1  0
 24 60  1  0
 26 61  1  0
 26 62  1  0
 26 63  1  0
 27 64  1  0
 27 65  1  0
 27 66  1  0
 30 67  1  0
 32 68  1  0
 35 69  1  0
 35 70  1  0
 35 71  1  0
M  END
$$$$
