
     RDKit          3D

 46 48  0  0  0  0  0  0  0  0999 V2000
    4.5280   -0.0197   -3.1518 C   0  0  0  0  0  0  0  0  0  0  0  0
    3.5603    0.6292   -2.1748 C   0  0  0  0  0  0  0  0  0  0  0  0
    2.1188    0.0580   -2.2202 N   0  0  0  0  0  4  0  0  0  0  0  0
    2.1360   -1.4409   -1.9186 C   0  0  0  0  0  0  0  0  0  0  0  0
    1.4941    0.3001   -3.5905 C   0  0  0  0  0  0  0  0  0  0  0  0
    1.3250    0.8186   -1.1157 C   0  0  0  0  0  0  0  0  0  0  0  0
   -0.1816    0.5252   -1.0891 C   0  0  0  0  0  0  0  0  0  0  0  0
   -0.8454    1.1277    0.1252 C   0  0  0  0  0  0  0  0  0  0  0  0
   -1.3856    0.4937    1.1927 C   0  0  0  0  0  0  0  0  0  0  0  0
   -2.2189    1.3020    2.1260 C   0  0  0  0  0  0  0  0  0  0  0  0
   -1.7736    2.5190    2.6648 C   0  0  0  0  0  0  0  0  0  0  0  0
   -2.5873    3.2451    3.5368 C   0  0  0  0  0  0  0  0  0  0  0  0
   -3.8469    2.7614    3.8837 C   0  0  0  0  0  0  0  0  0  0  0  0
   -4.2943    1.5439    3.3695 C   0  0  0  0  0  0  0  0  0  0  0  0
   -3.4838    0.8034    2.5010 C   0  0  0  0  0  0  0  0  0  0  0  0
   -4.1039   -0.7660    1.8865 S   0  0  0  0  0  0  0  0  0  0  0  0
   -2.5706   -1.6557    1.6296 C   0  0  0  0  0  0  0  0  0  0  0  0
   -2.5796   -3.0522    1.7453 C   0  0  0  0  0  0  0  0  0  0  0  0
   -1.3961   -3.7804    1.6031 C   0  0  0  0  0  0  0  0  0  0  0  0
   -0.2002   -3.1088    1.3708 C   0  0  0  0  0  0  0  0  0  0  0  0
    1.2674   -3.9886    1.1946 Cl  0  0  0  0  0  0  0  0  0  0  0  0
   -0.1766   -1.7195    1.2600 C   0  0  0  0  0  0  0  0  0  0  0  0
   -1.3672   -0.9846    1.3373 C   0  0  0  0  0  0  0  0  0  0  0  0
    5.5102    0.4562   -3.0553 H   0  0  0  0  0  0  0  0  0  0  0  0
    4.2157    0.1034   -4.1917 H   0  0  0  0  0  0  0  0  0  0  0  0
    4.6705   -1.0842   -2.9486 H   0  0  0  0  0  0  0  0  0  0  0  0
    3.9223    0.4968   -1.1485 H   0  0  0  0  0  0  0  0  0  0  0  0
    3.4837    1.7027   -2.3831 H   0  0  0  0  0  0  0  0  0  0  0  0
    2.6215   -1.5927   -0.9509 H   0  0  0  0  0  0  0  0  0  0  0  0
    1.1106   -1.8149   -1.9011 H   0  0  0  0  0  0  0  0  0  0  0  0
    2.6814   -1.9555   -2.7133 H   0  0  0  0  0  0  0  0  0  0  0  0
    0.4799   -0.1074   -3.5937 H   0  0  0  0  0  0  0  0  0  0  0  0
    1.4825    1.3769   -3.7796 H   0  0  0  0  0  0  0  0  0  0  0  0
    2.0822   -0.2226   -4.3482 H   0  0  0  0  0  0  0  0  0  0  0  0
    1.7972    0.5552   -0.1617 H   0  0  0  0  0  0  0  0  0  0  0  0
    1.4876    1.8891   -1.2939 H   0  0  0  0  0  0  0  0  0  0  0  0
   -0.3917   -0.5431   -1.1588 H   0  0  0  0  0  0  0  0  0  0  0  0
   -0.6580    0.9756   -1.9686 H   0  0  0  0  0  0  0  0  0  0  0  0
   -0.9789    2.2090    0.0469 H   0  0  0  0  0  0  0  0  0  0  0  0
   -0.7890    2.9097    2.4231 H   0  0  0  0  0  0  0  0  0  0  0  0
   -2.2383    4.1884    3.9512 H   0  0  0  0  0  0  0  0  0  0  0  0
   -4.4801    3.3281    4.5629 H   0  0  0  0  0  0  0  0  0  0  0  0
   -5.2765    1.1757    3.6587 H   0  0  0  0  0  0  0  0  0  0  0  0
   -3.5065   -3.5815    1.9599 H   0  0  0  0  0  0  0  0  0  0  0  0
   -1.4167   -4.8637    1.6962 H   0  0  0  0  0  0  0  0  0  0  0  0
    0.7727   -1.2122    1.1319 H   0  0  0  0  0  0  0  0  0  0  0  0
  1  2  1  0
  2  3  1  0
  3  4  1  0
  3  5  1  0
  3  6  1  0
  6  7  1  0
  7  8  1  0
  8  9  2  3
  9 10  1  0
 10 11  2  0
 11 12  1  0
 12 13  2  0
 13 14  1  0
 14 15  2  0
 15 16  1  0
 16 17  1  0
 17 18  2  0
 18 19  1  0
 19 20  2  0
 20 21  1  0
 20 22  1  0
 22 23  2  0
 23  9  1  0
 15 10  1  0
 23 17  1  0
  1 24  1  0
  1 25  1  0
  1 26  1  0
  2 27  1  0
  2 28  1  0
  4 29  1  0
  4 30  1  0
  4 31  1  0
  5 32  1  0
  5 33  1  0
  5 34  1  0
  6 35  1  0
  6 36  1  0
  7 37  1  0
  7 38  1  0
  8 39  1  0
 11 40  1  0
 12 41  1  0
 13 42  1  0
 14 43  1  0
 18 44  1  0
 19 45  1  0
 22 46  1  0
M  CHG  1   3   1
M  END
$$$$
