
     RDKit          3D

 47 49  0  0  0  0  0  0  0  0999 V2000
    8.5000    0.3162   -0.0685 C   0  0  0  0  0  0  0  0  0  0  0  0
    7.2840    0.1320   -0.9634 C   0  0  0  0  0  0  0  0  0  0  0  0
    5.9973    0.1894   -0.1802 C   0  0  0  0  0  0  0  0  0  0  0  0
    5.3475    1.4121    0.0305 C   0  0  0  0  0  0  0  0  0  0  0  0
    4.1642    1.4654    0.7715 C   0  0  0  0  0  0  0  0  0  0  0  0
    3.6088    0.3002    1.3041 C   0  0  0  0  0  0  0  0  0  0  0  0
    2.4330    0.3592    2.0638 N   0  0  0  0  0  0  0  0  0  0  0  0
    1.2938    0.2245    1.4788 C   0  0  0  0  0  0  0  0  0  0  0  0
    0.1524    0.2807    2.2057 N   0  0  0  0  0  0  0  0  0  0  0  0
   -1.0392    0.1265    1.5572 C   0  0  0  0  0  0  0  0  0  0  0  0
   -2.1213    0.1377    2.1195 O   0  0  0  0  0  0  0  0  0  0  0  0
   -0.7952   -0.0666    0.0966 C   0  0  0  0  0  0  0  0  0  0  0  0
   -1.6858   -0.2189   -0.8944 C   0  0  0  0  0  0  0  0  0  0  0  0
   -3.1506   -0.2403   -0.7858 C   0  0  0  0  0  0  0  0  0  0  0  0
   -3.8137   -1.1764    0.0194 C   0  0  0  0  0  0  0  0  0  0  0  0
   -5.2067   -1.1925    0.0731 C   0  0  0  0  0  0  0  0  0  0  0  0
   -5.9708   -2.0435    0.8332 O   0  0  0  0  0  0  0  0  0  0  0  0
   -5.2827   -2.7734    1.8437 C   0  0  0  0  0  0  0  0  0  0  0  0
   -5.9310   -0.2885   -0.7166 C   0  0  0  0  0  0  0  0  0  0  0  0
   -7.3047   -0.3260   -0.6691 O   0  0  0  0  0  0  0  0  0  0  0  0
   -5.2918    0.6443   -1.5403 C   0  0  0  0  0  0  0  0  0  0  0  0
   -6.1044    1.4739   -2.2659 O   0  0  0  0  0  0  0  0  0  0  0  0
   -5.4836    2.4807   -3.0510 C   0  0  0  0  0  0  0  0  0  0  0  0
   -3.8948    0.6582   -1.5692 C   0  0  0  0  0  0  0  0  0  0  0  0
    0.9171   -0.0386   -0.2016 S   0  0  0  0  0  0  0  0  0  0  0  0
    4.2694   -0.9159    1.1187 C   0  0  0  0  0  0  0  0  0  0  0  0
    5.4529   -0.9740    0.3783 C   0  0  0  0  0  0  0  0  0  0  0  0
    9.4179    0.2701   -0.6631 H   0  0  0  0  0  0  0  0  0  0  0  0
    8.5520   -0.4654    0.6971 H   0  0  0  0  0  0  0  0  0  0  0  0
    8.4747    1.2850    0.4419 H   0  0  0  0  0  0  0  0  0  0  0  0
    7.2763    0.9045   -1.7421 H   0  0  0  0  0  0  0  0  0  0  0  0
    7.3529   -0.8279   -1.4896 H   0  0  0  0  0  0  0  0  0  0  0  0
    5.7615    2.3321   -0.3757 H   0  0  0  0  0  0  0  0  0  0  0  0
    3.6749    2.4210    0.9368 H   0  0  0  0  0  0  0  0  0  0  0  0
    0.1866    0.4241    3.2017 H   0  0  0  0  0  0  0  0  0  0  0  0
   -1.3268   -0.3184   -1.9184 H   0  0  0  0  0  0  0  0  0  0  0  0
   -3.2259   -1.8808    0.5982 H   0  0  0  0  0  0  0  0  0  0  0  0
   -4.6255   -3.5284    1.4003 H   0  0  0  0  0  0  0  0  0  0  0  0
   -6.0321   -3.2973    2.4448 H   0  0  0  0  0  0  0  0  0  0  0  0
   -4.7270   -2.1062    2.5113 H   0  0  0  0  0  0  0  0  0  0  0  0
   -7.5173   -1.0354   -0.0342 H   0  0  0  0  0  0  0  0  0  0  0  0
   -6.2739    3.0691   -3.5272 H   0  0  0  0  0  0  0  0  0  0  0  0
   -4.8732    2.0398   -3.8459 H   0  0  0  0  0  0  0  0  0  0  0  0
   -4.8921    3.1605   -2.4288 H   0  0  0  0  0  0  0  0  0  0  0  0
   -3.3602    1.3627   -2.1985 H   0  0  0  0  0  0  0  0  0  0  0  0
    3.8625   -1.8233    1.5556 H   0  0  0  0  0  0  0  0  0  0  0  0
    5.9499   -1.9323    0.2459 H   0  0  0  0  0  0  0  0  0  0  0  0
  1  2  1  0
  2  3  1  0
  3  4  2  0
  4  5  1  0
  5  6  2  0
  6  7  1  0
  7  8  2  3
  8  9  1  0
  9 10  1  0
 10 11  2  0
 10 12  1  0
 12 13  2  3
 13 14  1  0
 14 15  2  0
 15 16  1  0
 16 17  1  0
 17 18  1  0
 16 19  2  0
 19 20  1  0
 19 21  1  0
 21 22  1  0
 22 23  1  0
 21 24  2  0
 12 25  1  0
  6 26  1  0
 26 27  2  0
 27  3  1  0
 25  8  1  0
 24 14  1  0
  1 28  1  0
  1 29  1  0
  1 30  1  0
  2 31  1  0
  2 32  1  0
  4 33  1  0
  5 34  1  0
  9 35  1  0
 13 36  1  0
 15 37  1  0
 18 38  1  0
 18 39  1  0
 18 40  1  0
 20 41  1  0
 23 42  1  0
 23 43  1  0
 23 44  1  0
 24 45  1  0
 26 46  1  0
 27 47  1  0
M  END
$$$$
