
     RDKit          3D

 27 27  0  0  0  0  0  0  0  0999 V2000
   -0.9302    0.4154   -1.6829 C   0  0  0  0  0  0  0  0  0  0  0  0
   -1.4941    0.2033   -0.2760 C   0  0  0  0  0  0  0  0  0  0  0  0
   -1.8993   -1.2680   -0.1039 C   0  0  0  0  0  0  0  0  0  0  0  0
   -2.7446    1.0851   -0.1051 C   0  0  0  0  0  0  0  0  0  0  0  0
   -0.2977    0.6940    1.0056 S   0  0  0  0  0  6  0  0  0  0  0  0
   -0.8307    0.3347    2.3068 O   0  0  0  0  0  0  0  0  0  0  0  0
    0.2055    2.0289    0.7621 O   0  0  0  0  0  0  0  0  0  0  0  0
    1.0941   -0.3419    0.8492 C   0  0  0  0  0  0  0  0  0  0  0  0
    1.1814   -1.6082    1.5166 C   0  0  0  0  0  0  0  0  0  0  0  0
    2.3914   -2.2268    1.3047 C   0  0  0  0  0  0  0  0  0  0  0  0
    3.4253   -1.2842    0.3277 S   0  0  0  0  0  0  0  0  0  0  0  0
    2.2598   -0.0296    0.1717 C   0  0  0  0  0  0  0  0  0  0  0  0
    2.5767    1.1226   -0.6333 C   0  0  0  0  0  0  0  0  0  0  0  0
    1.9032    1.6157   -1.5247 O   0  0  0  0  0  0  0  0  0  0  0  0
    3.7806    1.6479   -0.3183 O   0  0  0  0  0  0  0  0  0  0  0  0
   -0.0458   -0.2040   -1.8606 H   0  0  0  0  0  0  0  0  0  0  0  0
   -1.6699    0.1493   -2.4469 H   0  0  0  0  0  0  0  0  0  0  0  0
   -0.6549    1.4619   -1.8480 H   0  0  0  0  0  0  0  0  0  0  0  0
   -2.2763   -1.4673    0.9050 H   0  0  0  0  0  0  0  0  0  0  0  0
   -1.0565   -1.9426   -0.2833 H   0  0  0  0  0  0  0  0  0  0  0  0
   -2.6893   -1.5432   -0.8122 H   0  0  0  0  0  0  0  0  0  0  0  0
   -3.1922    0.9533    0.8864 H   0  0  0  0  0  0  0  0  0  0  0  0
   -3.5089    0.8404   -0.8512 H   0  0  0  0  0  0  0  0  0  0  0  0
   -2.4989    2.1474   -0.2142 H   0  0  0  0  0  0  0  0  0  0  0  0
    0.4001   -2.0328    2.1381 H   0  0  0  0  0  0  0  0  0  0  0  0
    2.7252   -3.1812    1.6903 H   0  0  0  0  0  0  0  0  0  0  0  0
    3.8461    2.4299   -0.9034 H   0  0  0  0  0  0  0  0  0  0  0  0
  1  2  1  0
  2  3  1  0
  2  4  1  0
  2  5  1  0
  5  6  2  0
  5  7  2  0
  5  8  1  0
  8  9  1  0
  9 10  2  0
 10 11  1  0
 11 12  1  0
 12 13  1  0
 13 14  2  0
 13 15  1  0
 12  8  2  0
  1 16  1  0
  1 17  1  0
  1 18  1  0
  3 19  1  0
  3 20  1  0
  3 21  1  0
  4 22  1  0
  4 23  1  0
  4 24  1  0
  9 25  1  0
 10 26  1  0
 15 27  1  0
M  END
$$$$
