
     RDKit          3D

 39 41  0  0  0  0  0  0  0  0999 V2000
   -1.3147    1.5406   -0.8399 O   0  0  0  0  0  0  0  0  0  0  0  0
   -1.6589    0.8559    0.1168 C   0  0  0  0  0  0  0  0  0  0  0  0
   -3.1001    0.3576    0.3002 C   0  0  0  0  0  0  0  0  0  0  0  0
   -3.9470    0.8141   -0.7415 O   0  0  0  0  0  0  0  0  0  0  0  0
   -5.2532    0.4128   -0.7083 C   0  0  0  0  0  0  0  0  0  0  0  0
   -5.8474   -0.3795    0.2751 C   0  0  0  0  0  0  0  0  0  0  0  0
   -7.2023   -0.7147    0.1817 C   0  0  0  0  0  0  0  0  0  0  0  0
   -7.9670   -0.2600   -0.8913 C   0  0  0  0  0  0  0  0  0  0  0  0
   -7.3789    0.5318   -1.8740 C   0  0  0  0  0  0  0  0  0  0  0  0
   -6.0270    0.8656   -1.7803 C   0  0  0  0  0  0  0  0  0  0  0  0
   -0.8472    0.4331    1.1532 N   0  0  0  0  0  0  0  0  0  0  0  0
    0.4955    0.6748    1.3013 C   0  0  0  0  0  0  0  0  0  0  0  0
    1.1602    0.2521    2.3542 N   0  0  0  0  0  0  0  0  0  0  0  0
    2.4949    0.5968    2.3013 N   0  0  0  0  0  0  0  0  0  0  0  0
    2.7910    1.2535    1.1964 C   0  0  0  0  0  0  0  0  0  0  0  0
    4.1500    1.7639    0.8471 C   0  0  0  0  0  0  0  0  0  0  0  0
    4.6114    1.1309   -0.3501 O   0  0  0  0  0  0  0  0  0  0  0  0
    5.3036   -0.0434   -0.2459 C   0  0  0  0  0  0  0  0  0  0  0  0
    5.9209   -0.4574   -1.4301 C   0  0  0  0  0  0  0  0  0  0  0  0
    6.6582   -1.6419   -1.4744 C   0  0  0  0  0  0  0  0  0  0  0  0
    6.7776   -2.4266   -0.3308 C   0  0  0  0  0  0  0  0  0  0  0  0
    6.1563   -2.0265    0.8507 C   0  0  0  0  0  0  0  0  0  0  0  0
    5.4181   -0.8389    0.8943 C   0  0  0  0  0  0  0  0  0  0  0  0
    1.4401    1.5216    0.1678 S   0  0  0  0  0  0  0  0  0  0  0  0
   -3.4571    0.7363    1.2658 H   0  0  0  0  0  0  0  0  0  0  0  0
   -3.0652   -0.7389    0.3040 H   0  0  0  0  0  0  0  0  0  0  0  0
   -5.2920   -0.7525    1.1282 H   0  0  0  0  0  0  0  0  0  0  0  0
   -7.6625   -1.3322    0.9491 H   0  0  0  0  0  0  0  0  0  0  0  0
   -9.0195   -0.5219   -0.9612 H   0  0  0  0  0  0  0  0  0  0  0  0
   -7.9687    0.8900   -2.7135 H   0  0  0  0  0  0  0  0  0  0  0  0
   -5.5702    1.4842   -2.5496 H   0  0  0  0  0  0  0  0  0  0  0  0
   -1.2375   -0.1021    1.9165 H   0  0  0  0  0  0  0  0  0  0  0  0
    4.0897    2.8387    0.6386 H   0  0  0  0  0  0  0  0  0  0  0  0
    4.8619    1.6566    1.6737 H   0  0  0  0  0  0  0  0  0  0  0  0
    5.8280    0.1503   -2.3271 H   0  0  0  0  0  0  0  0  0  0  0  0
    7.1348   -1.9501   -2.4009 H   0  0  0  0  0  0  0  0  0  0  0  0
    7.3483   -3.3508   -0.3606 H   0  0  0  0  0  0  0  0  0  0  0  0
    6.2395   -2.6426    1.7425 H   0  0  0  0  0  0  0  0  0  0  0  0
    4.9368   -0.5811    1.8321 H   0  0  0  0  0  0  0  0  0  0  0  0
  1  2  2  0
  2  3  1  0
  3  4  1  0
  4  5  1  0
  5  6  2  0
  6  7  1  0
  7  8  2  0
  8  9  1  0
  9 10  2  0
  2 11  1  0
 11 12  1  0
 12 13  2  0
 13 14  1  0
 14 15  2  0
 15 16  1  0
 16 17  1  0
 17 18  1  0
 18 19  2  0
 19 20  1  0
 20 21  2  0
 21 22  1  0
 22 23  2  0
 15 24  1  0
 10  5  1  0
 24 12  1  0
 23 18  1  0
  3 25  1  0
  3 26  1  0
  6 27  1  0
  7 28  1  0
  8 29  1  0
  9 30  1  0
 10 31  1  0
 11 32  1  0
 16 33  1  0
 16 34  1  0
 19 35  1  0
 20 36  1  0
 21 37  1  0
 22 38  1  0
 23 39  1  0
M  END
$$$$
