
     RDKit          3D

 48 50  0  0  0  0  0  0  0  0999 V2000
   -3.7986    0.1708    3.9749 C   0  0  0  0  0  0  0  0  0  0  0  0
   -3.3155   -0.2885    2.7130 O   0  0  0  0  0  0  0  0  0  0  0  0
   -2.7028    0.6714    1.9669 C   0  0  0  0  0  0  0  0  0  0  0  0
   -2.5357    1.8356    2.3157 O   0  0  0  0  0  0  0  0  0  0  0  0
   -2.2489    0.1101    0.6204 C   0  0  0  0  0  0  0  0  0  0  0  0
   -3.2922    0.4281   -0.4599 C   0  0  0  0  0  0  0  0  0  0  0  0
   -4.5679   -0.3656   -0.3120 C   0  0  0  0  0  0  0  0  0  0  0  0
   -5.7244    0.2315    0.2075 C   0  0  0  0  0  0  0  0  0  0  0  0
   -6.8953   -0.5128    0.3591 C   0  0  0  0  0  0  0  0  0  0  0  0
   -6.9209   -1.8574   -0.0068 C   0  0  0  0  0  0  0  0  0  0  0  0
   -5.7762   -2.4596   -0.5256 C   0  0  0  0  0  0  0  0  0  0  0  0
   -4.6041   -1.7181   -0.6780 C   0  0  0  0  0  0  0  0  0  0  0  0
   -0.9600    0.7217    0.2985 N   0  0  0  0  0  0  0  0  0  0  0  0
   -0.0794    0.1658   -0.5992 C   0  0  0  0  0  0  0  0  0  0  0  0
   -0.2909   -0.9045   -1.1626 O   0  0  0  0  0  0  0  0  0  0  0  0
    1.1267    0.9588   -0.8373 C   0  0  0  0  0  0  0  0  0  0  0  0
    2.2081    0.6412   -1.6961 C   0  0  0  0  0  0  0  0  0  0  0  0
    3.0816    1.6921   -1.5626 C   0  0  0  0  0  0  0  0  0  0  0  0
    4.3948    2.0333   -2.1549 C   0  0  0  0  0  0  0  0  0  0  0  0
    5.4131    1.8308   -1.1762 O   0  0  0  0  0  0  0  0  0  0  0  0
    5.9731    0.5959   -1.0046 C   0  0  0  0  0  0  0  0  0  0  0  0
    5.7159   -0.5679   -1.7297 C   0  0  0  0  0  0  0  0  0  0  0  0
    4.8401   -0.5890   -2.7438 F   0  0  0  0  0  0  0  0  0  0  0  0
    6.3687   -1.7681   -1.4322 C   0  0  0  0  0  0  0  0  0  0  0  0
    7.2998   -1.8245   -0.3975 C   0  0  0  0  0  0  0  0  0  0  0  0
    7.5751   -0.6741    0.3346 C   0  0  0  0  0  0  0  0  0  0  0  0
    6.9154    0.5161    0.0271 C   0  0  0  0  0  0  0  0  0  0  0  0
    7.2069    1.6064    0.7536 F   0  0  0  0  0  0  0  0  0  0  0  0
    2.5584    2.5932   -0.6874 O   0  0  0  0  0  0  0  0  0  0  0  0
    1.3324    2.1423   -0.2322 N   0  0  0  0  0  0  0  0  0  0  0  0
   -4.5340    0.9696    3.8370 H   0  0  0  0  0  0  0  0  0  0  0  0
   -4.2896   -0.6682    4.4755 H   0  0  0  0  0  0  0  0  0  0  0  0
   -2.9684    0.5111    4.6013 H   0  0  0  0  0  0  0  0  0  0  0  0
   -2.0818   -0.9695    0.7156 H   0  0  0  0  0  0  0  0  0  0  0  0
   -2.8819    0.2245   -1.4579 H   0  0  0  0  0  0  0  0  0  0  0  0
   -3.5230    1.5021   -0.4581 H   0  0  0  0  0  0  0  0  0  0  0  0
   -5.7232    1.2798    0.4992 H   0  0  0  0  0  0  0  0  0  0  0  0
   -7.7888   -0.0430    0.7620 H   0  0  0  0  0  0  0  0  0  0  0  0
   -7.8334   -2.4358    0.1108 H   0  0  0  0  0  0  0  0  0  0  0  0
   -5.7960   -3.5078   -0.8129 H   0  0  0  0  0  0  0  0  0  0  0  0
   -3.7185   -2.2021   -1.0864 H   0  0  0  0  0  0  0  0  0  0  0  0
   -0.7323    1.6369    0.6859 H   0  0  0  0  0  0  0  0  0  0  0  0
    2.3214   -0.2372   -2.3148 H   0  0  0  0  0  0  0  0  0  0  0  0
    4.4029    3.1033   -2.3951 H   0  0  0  0  0  0  0  0  0  0  0  0
    4.6006    1.5232   -3.0996 H   0  0  0  0  0  0  0  0  0  0  0  0
    6.1430   -2.6553   -2.0178 H   0  0  0  0  0  0  0  0  0  0  0  0
    7.8076   -2.7573   -0.1655 H   0  0  0  0  0  0  0  0  0  0  0  0
    8.2981   -0.6891    1.1445 H   0  0  0  0  0  0  0  0  0  0  0  0
  1  2  1  0
  2  3  1  0
  3  4  2  0
  3  5  1  0
  5  6  1  0
  6  7  1  0
  7  8  2  0
  8  9  1  0
  9 10  2  0
 10 11  1  0
 11 12  2  0
  5 13  1  0
 13 14  1  0
 14 15  2  0
 14 16  1  0
 16 17  1  0
 17 18  2  0
 18 19  1  0
 19 20  1  0
 20 21  1  0
 21 22  2  0
 22 23  1  0
 22 24  1  0
 24 25  2  0
 25 26  1  0
 26 27  2  0
 27 28  1  0
 18 29  1  0
 29 30  1  0
 12  7  1  0
 30 16  2  0
 27 21  1  0
  1 31  1  0
  1 32  1  0
  1 33  1  0
  5 34  1  0
  6 35  1  0
  6 36  1  0
  8 37  1  0
  9 38  1  0
 10 39  1  0
 11 40  1  0
 12 41  1  0
 13 42  1  0
 17 43  1  0
 19 44  1  0
 19 45  1  0
 24 46  1  0
 25 47  1  0
 26 48  1  0
M  END
$$$$
