
     RDKit          3D

 64 69  0  0  0  0  0  0  0  0999 V2000
   -3.3939   -4.0405   -3.7614 C   0  0  0  0  0  0  0  0  0  0  0  0
   -2.8907   -3.5117   -2.5428 O   0  0  0  0  0  0  0  0  0  0  0  0
   -1.6775   -3.9749   -2.1047 C   0  0  0  0  0  0  0  0  0  0  0  0
   -0.8986   -4.9186   -2.7844 C   0  0  0  0  0  0  0  0  0  0  0  0
    0.3274   -5.3401   -2.2620 C   0  0  0  0  0  0  0  0  0  0  0  0
    0.7875   -4.8242   -1.0564 C   0  0  0  0  0  0  0  0  0  0  0  0
    0.0219   -3.8840   -0.3719 C   0  0  0  0  0  0  0  0  0  0  0  0
   -1.2125   -3.4429   -0.8876 C   0  0  0  0  0  0  0  0  0  0  0  0
   -2.0254   -2.4403   -0.0873 C   0  0  0  0  0  0  0  0  0  0  0  0
   -1.2574   -1.2288    0.2776 N   0  0  0  0  0  0  0  0  0  0  0  0
   -1.0763   -0.3634   -0.9116 C   0  0  0  0  0  0  0  0  0  0  0  0
    0.1223    0.5460   -0.8319 C   0  0  0  0  0  0  0  0  0  0  0  0
    1.3806    0.0861   -0.7120 C   0  0  0  0  0  0  0  0  0  0  0  0
    2.5174    1.0008   -0.6419 C   0  0  0  0  0  0  0  0  0  0  0  0
    3.8239    0.5317   -0.4843 C   0  0  0  0  0  0  0  0  0  0  0  0
    4.8793    1.4415   -0.4045 C   0  0  0  0  0  0  0  0  0  0  0  0
    4.6389    2.8174   -0.5178 C   0  0  0  0  0  0  0  0  0  0  0  0
    3.3368    3.2911   -0.6643 C   0  0  0  0  0  0  0  0  0  0  0  0
    2.2834    2.3792   -0.7256 C   0  0  0  0  0  0  0  0  0  0  0  0
    0.9703    2.8400   -0.8700 N   0  0  0  0  0  0  0  0  0  0  0  0
   -0.1222    2.0161   -0.9036 C   0  0  0  0  0  0  0  0  0  0  0  0
   -1.2582    2.4773   -0.9720 O   0  0  0  0  0  0  0  0  0  0  0  0
    5.6342    3.7623   -0.4805 O   0  0  0  0  0  0  0  0  0  0  0  0
    6.9283    3.1671   -0.6359 C   0  0  0  0  0  0  0  0  0  0  0  0
    7.0541    1.9192    0.2221 C   0  0  0  0  0  0  0  0  0  0  0  0
    6.1325    0.9142   -0.2180 O   0  0  0  0  0  0  0  0  0  0  0  0
   -1.9640   -0.5242    1.3712 C   0  0  0  0  0  0  0  0  0  0  0  0
   -1.1381    0.5110    2.0560 C   0  0  0  0  0  0  0  0  0  0  0  0
    0.0346    0.3459    2.6411 N   0  0  0  0  0  0  0  0  0  0  0  0
    0.3956    1.5687    3.1444 N   0  0  0  0  0  0  0  0  0  0  0  0
   -0.5363    2.4768    2.9006 N   0  0  0  0  0  0  0  0  0  0  0  0
   -1.5024    1.8206    2.2291 N   0  0  0  0  0  0  0  0  0  0  0  0
   -2.7020    2.5136    1.8145 C   0  0  0  0  0  0  0  0  0  0  0  0
   -3.7855    2.3127    2.8084 C   0  0  0  0  0  0  0  0  0  0  0  0
   -3.9252    2.6322    4.1438 C   0  0  0  0  0  0  0  0  0  0  0  0
   -5.2132    2.1867    4.5280 C   0  0  0  0  0  0  0  0  0  0  0  0
   -5.7782    1.6347    3.4071 C   0  0  0  0  0  0  0  0  0  0  0  0
   -4.9188    1.7017    2.3580 O   0  0  0  0  0  0  0  0  0  0  0  0
   -2.7323   -3.7998   -4.5978 H   0  0  0  0  0  0  0  0  0  0  0  0
   -4.3622   -3.5677   -3.9582 H   0  0  0  0  0  0  0  0  0  0  0  0
   -3.5610   -5.1184   -3.6845 H   0  0  0  0  0  0  0  0  0  0  0  0
   -1.2163   -5.3522   -3.7267 H   0  0  0  0  0  0  0  0  0  0  0  0
    0.9208   -6.0759   -2.7984 H   0  0  0  0  0  0  0  0  0  0  0  0
    1.7387   -5.1531   -0.6460 H   0  0  0  0  0  0  0  0  0  0  0  0
    0.3879   -3.4840    0.5728 H   0  0  0  0  0  0  0  0  0  0  0  0
   -2.3344   -2.9792    0.8192 H   0  0  0  0  0  0  0  0  0  0  0  0
   -2.9527   -2.1538   -0.5971 H   0  0  0  0  0  0  0  0  0  0  0  0
   -0.9099   -0.9772   -1.8074 H   0  0  0  0  0  0  0  0  0  0  0  0
   -2.0016    0.1849   -1.1269 H   0  0  0  0  0  0  0  0  0  0  0  0
    1.5738   -0.9780   -0.6463 H   0  0  0  0  0  0  0  0  0  0  0  0
    4.0274   -0.5326   -0.4023 H   0  0  0  0  0  0  0  0  0  0  0  0
    3.1610    4.3600   -0.7321 H   0  0  0  0  0  0  0  0  0  0  0  0
    0.7856    3.8309   -0.8992 H   0  0  0  0  0  0  0  0  0  0  0  0
    7.6726    3.9104   -0.3354 H   0  0  0  0  0  0  0  0  0  0  0  0
    7.0806    2.9384   -1.6977 H   0  0  0  0  0  0  0  0  0  0  0  0
    6.8591    2.1355    1.2815 H   0  0  0  0  0  0  0  0  0  0  0  0
    8.0631    1.5018    0.1387 H   0  0  0  0  0  0  0  0  0  0  0  0
   -2.9176   -0.1210    1.0112 H   0  0  0  0  0  0  0  0  0  0  0  0
   -2.2221   -1.2479    2.1565 H   0  0  0  0  0  0  0  0  0  0  0  0
   -2.9963    2.1369    0.8314 H   0  0  0  0  0  0  0  0  0  0  0  0
   -2.4642    3.5778    1.7080 H   0  0  0  0  0  0  0  0  0  0  0  0
   -3.1855    3.1232    4.7635 H   0  0  0  0  0  0  0  0  0  0  0  0
   -5.6735    2.2651    5.5024 H   0  0  0  0  0  0  0  0  0  0  0  0
   -6.7337    1.1748    3.2012 H   0  0  0  0  0  0  0  0  0  0  0  0
  1  2  1  0
  2  3  1  0
  3  4  2  0
  4  5  1  0
  5  6  2  0
  6  7  1  0
  7  8  2  0
  8  9  1  0
  9 10  1  0
 10 11  1  0
 11 12  1  0
 12 13  2  0
 13 14  1  0
 14 15  2  0
 15 16  1  0
 16 17  2  0
 17 18  1  0
 18 19  2  0
 19 20  1  0
 20 21  1  0
 21 22  2  0
 17 23  1  0
 23 24  1  0
 24 25  1  0
 25 26  1  0
 10 27  1  0
 27 28  1  0
 28 29  2  0
 29 30  1  0
 30 31  2  0
 31 32  1  0
 32 33  1  0
 33 34  1  0
 34 35  2  0
 35 36  1  0
 36 37  2  0
 37 38  1  0
  8  3  1  0
 21 12  1  0
 32 28  1  0
 38 34  1  0
 19 14  1  0
 26 16  1  0
  1 39  1  0
  1 40  1  0
  1 41  1  0
  4 42  1  0
  5 43  1  0
  6 44  1  0
  7 45  1  0
  9 46  1  0
  9 47  1  0
 11 48  1  0
 11 49  1  0
 13 50  1  0
 15 51  1  0
 18 52  1  0
 20 53  1  0
 24 54  1  0
 24 55  1  0
 25 56  1  0
 25 57  1  0
 27 58  1  0
 27 59  1  0
 33 60  1  0
 33 61  1  0
 35 62  1  0
 36 63  1  0
 37 64  1  0
M  END
$$$$
