
     RDKit          3D

 74 75  0  0  0  0  0  0  0  0999 V2000
   -2.7155    5.2268    3.7365 C   0  0  0  0  0  0  0  0  0  0  0  0
   -1.6247    4.4678    3.2295 O   0  0  0  0  0  0  0  0  0  0  0  0
   -1.7797    3.1074    3.1739 C   0  0  0  0  0  0  0  0  0  0  0  0
   -2.7227    2.4161    3.9407 C   0  0  0  0  0  0  0  0  0  0  0  0
   -2.8597    1.0353    3.8186 C   0  0  0  0  0  0  0  0  0  0  0  0
   -2.0648    0.3298    2.9190 C   0  0  0  0  0  0  0  0  0  0  0  0
   -1.1047    0.9898    2.1294 C   0  0  0  0  0  0  0  0  0  0  0  0
   -0.2204    0.2271    1.1353 C   0  0  0  0  0  0  0  0  0  0  0  0
   -0.1371   -1.3156    1.3425 C   0  0  0  0  0  0  0  0  0  0  0  0
   -0.5222   -2.1323    0.5106 O   0  0  0  0  0  0  0  0  0  0  0  0
    0.4322   -1.6893    2.5533 N   0  0  0  0  0  0  0  0  0  0  0  0
    0.6039   -3.0769    3.0124 C   0  0  0  0  0  0  0  0  0  0  0  0
   -0.7590   -3.7645    3.1834 C   0  0  0  0  0  0  0  0  0  0  0  0
    1.3054   -3.0391    4.3829 C   0  0  0  0  0  0  0  0  0  0  0  0
    1.4869   -3.8787    2.0430 C   0  0  0  0  0  0  0  0  0  0  0  0
   -0.3731    0.6107   -0.3057 N   0  0  0  0  0  0  0  0  0  0  0  0
    0.7579    0.9689   -1.0614 C   0  0  0  0  0  0  0  0  0  0  0  0
    0.6905    1.3428   -2.2378 O   0  0  0  0  0  0  0  0  0  0  0  0
    2.1403    0.8538   -0.4220 C   0  0  0  0  0  0  0  0  0  0  0  0
    3.2742    1.1654   -1.3990 C   0  0  0  0  0  0  0  0  0  0  0  0
    3.5561   -0.0092   -2.3210 C   0  0  0  0  0  0  0  0  0  0  0  0
    4.5078   -0.7502   -2.0975 O   0  0  0  0  0  0  0  0  0  0  0  0
    2.6369   -0.1111   -3.3404 N   0  0  0  0  0  0  0  0  0  0  0  0
    2.6316   -1.0817   -4.3193 C   0  0  0  0  0  0  0  0  0  0  0  0
    1.6095   -1.1871   -5.2935 C   0  0  0  0  0  0  0  0  0  0  0  0
    1.9751   -2.2574   -6.0688 C   0  0  0  0  0  0  0  0  0  0  0  0
    1.3944   -2.9284   -7.2433 C   0  0  0  0  0  0  0  0  0  0  0  0
    3.1402   -2.7687   -5.5935 O   0  0  0  0  0  0  0  0  0  0  0  0
    3.5531   -2.0317   -4.5012 N   0  0  0  0  0  0  0  0  0  0  0  0
   -1.7065    0.5204   -1.0266 C   0  0  0  0  0  0  0  0  0  0  0  0
   -2.9015    0.0160   -0.1848 C   0  0  0  0  0  0  0  0  0  0  0  0
   -2.1259    1.9211   -1.5361 C   0  0  0  0  0  0  0  0  0  0  0  0
   -1.6110   -0.4558   -2.2287 C   0  0  0  0  0  0  0  0  0  0  0  0
   -0.9369    2.3848    2.3030 C   0  0  0  0  0  0  0  0  0  0  0  0
    0.0458    2.9593    1.5303 O   0  0  0  0  0  0  0  0  0  0  0  0
    0.8420    3.9501    2.1745 C   0  0  0  0  0  0  0  0  0  0  0  0
   -2.5117    6.2826    3.5297 H   0  0  0  0  0  0  0  0  0  0  0  0
   -2.7966    5.1131    4.8218 H   0  0  0  0  0  0  0  0  0  0  0  0
   -3.6549    4.9647    3.2383 H   0  0  0  0  0  0  0  0  0  0  0  0
   -3.3674    2.9270    4.6486 H   0  0  0  0  0  0  0  0  0  0  0  0
   -3.6015    0.5093    4.4153 H   0  0  0  0  0  0  0  0  0  0  0  0
   -2.2294   -0.7426    2.8270 H   0  0  0  0  0  0  0  0  0  0  0  0
    0.7807    0.5349    1.4522 H   0  0  0  0  0  0  0  0  0  0  0  0
    0.6216   -0.9550    3.2256 H   0  0  0  0  0  0  0  0  0  0  0  0
   -0.6456   -4.7715    3.5997 H   0  0  0  0  0  0  0  0  0  0  0  0
   -1.4049   -3.1931    3.8597 H   0  0  0  0  0  0  0  0  0  0  0  0
   -1.2908   -3.8617    2.2317 H   0  0  0  0  0  0  0  0  0  0  0  0
    2.2833   -2.5486    4.3112 H   0  0  0  0  0  0  0  0  0  0  0  0
    0.7128   -2.4781    5.1151 H   0  0  0  0  0  0  0  0  0  0  0  0
    1.4627   -4.0477    4.7808 H   0  0  0  0  0  0  0  0  0  0  0  0
    1.0110   -4.0124    1.0666 H   0  0  0  0  0  0  0  0  0  0  0  0
    1.6993   -4.8788    2.4381 H   0  0  0  0  0  0  0  0  0  0  0  0
    2.4442   -3.3732    1.8737 H   0  0  0  0  0  0  0  0  0  0  0  0
    2.2015    1.5873    0.3876 H   0  0  0  0  0  0  0  0  0  0  0  0
    2.2700   -0.1570   -0.0211 H   0  0  0  0  0  0  0  0  0  0  0  0
    4.1951    1.3644   -0.8360 H   0  0  0  0  0  0  0  0  0  0  0  0
    3.0752    2.0631   -1.9962 H   0  0  0  0  0  0  0  0  0  0  0  0
    1.8423    0.5270   -3.3340 H   0  0  0  0  0  0  0  0  0  0  0  0
    0.7327   -0.5678   -5.4116 H   0  0  0  0  0  0  0  0  0  0  0  0
    1.1165   -3.9579   -6.9986 H   0  0  0  0  0  0  0  0  0  0  0  0
    0.4970   -2.4064   -7.5890 H   0  0  0  0  0  0  0  0  0  0  0  0
    2.1133   -2.9506   -8.0680 H   0  0  0  0  0  0  0  0  0  0  0  0
   -3.7855   -0.1419   -0.8166 H   0  0  0  0  0  0  0  0  0  0  0  0
   -2.7025   -0.9379    0.3075 H   0  0  0  0  0  0  0  0  0  0  0  0
   -3.2122    0.7515    0.5605 H   0  0  0  0  0  0  0  0  0  0  0  0
   -2.1667    2.6379   -0.7081 H   0  0  0  0  0  0  0  0  0  0  0  0
   -1.4428    2.3281   -2.2857 H   0  0  0  0  0  0  0  0  0  0  0  0
   -3.1176    1.8924   -2.0024 H   0  0  0  0  0  0  0  0  0  0  0  0
   -2.5896   -0.6015   -2.7016 H   0  0  0  0  0  0  0  0  0  0  0  0
   -0.9447   -0.1025   -3.0191 H   0  0  0  0  0  0  0  0  0  0  0  0
   -1.2476   -1.4379   -1.9095 H   0  0  0  0  0  0  0  0  0  0  0  0
    0.9588    3.7672    3.2486 H   0  0  0  0  0  0  0  0  0  0  0  0
    1.8398    3.9111    1.7275 H   0  0  0  0  0  0  0  0  0  0  0  0
    0.4358    4.9470    1.9815 H   0  0  0  0  0  0  0  0  0  0  0  0
  1  2  1  0
  2  3  1  0
  3  4  2  0
  4  5  1  0
  5  6  2  0
  6  7  1  0
  7  8  1  0
  8  9  1  0
  9 10  2  0
  9 11  1  0
 11 12  1  0
 12 13  1  0
 12 14  1  0
 12 15  1  0
  8 16  1  0
 16 17  1  0
 17 18  2  0
 17 19  1  0
 19 20  1  0
 20 21  1  0
 21 22  2  0
 21 23  1  0
 23 24  1  0
 24 25  1  0
 25 26  2  0
 26 27  1  0
 26 28  1  0
 28 29  1  0
 16 30  1  0
 30 31  1  0
 30 32  1  0
 30 33  1  0
  7 34  2  0
 34 35  1  0
 35 36  1  0
 34  3  1  0
 29 24  2  0
  1 37  1  0
  1 38  1  0
  1 39  1  0
  4 40  1  0
  5 41  1  0
  6 42  1  0
  8 43  1  0
 11 44  1  0
 13 45  1  0
 13 46  1  0
 13 47  1  0
 14 48  1  0
 14 49  1  0
 14 50  1  0
 15 51  1  0
 15 52  1  0
 15 53  1  0
 19 54  1  0
 19 55  1  0
 20 56  1  0
 20 57  1  0
 23 58  1  0
 25 59  1  0
 27 60  1  0
 27 61  1  0
 27 62  1  0
 31 63  1  0
 31 64  1  0
 31 65  1  0
 32 66  1  0
 32 67  1  0
 32 68  1  0
 33 69  1  0
 33 70  1  0
 33 71  1  0
 36 72  1  0
 36 73  1  0
 36 74  1  0
M  END
$$$$
