
     RDKit          3D

 59 62  0  0  0  0  0  0  0  0999 V2000
   -2.3318    1.3715   -3.0915 C   0  0  0  0  0  0  0  0  0  0  0  0
   -2.4530    0.3608   -2.0835 O   0  0  0  0  0  0  0  0  0  0  0  0
   -3.7462    0.3031   -1.6215 C   0  0  0  0  0  0  0  0  0  0  0  0
   -4.5989   -0.6692   -2.1791 C   0  0  0  0  0  0  0  0  0  0  0  0
   -4.1275   -1.6042   -3.2580 C   0  0  0  0  0  0  0  0  0  0  0  0
   -5.9326   -0.7276   -1.7502 C   0  0  0  0  0  0  0  0  0  0  0  0
   -6.3922    0.1413   -0.7618 C   0  0  0  0  0  0  0  0  0  0  0  0
   -8.1943    0.0431   -0.1947 Br  0  0  0  0  0  0  0  0  0  0  0  0
   -5.5348    1.0701   -0.1790 C   0  0  0  0  0  0  0  0  0  0  0  0
   -4.1953    1.1484   -0.5900 C   0  0  0  0  0  0  0  0  0  0  0  0
   -3.3277    2.1386    0.1215 C   0  0  0  0  0  0  0  0  0  0  0  0
   -3.8630    3.1166    0.6340 O   0  0  0  0  0  0  0  0  0  0  0  0
   -1.9882    1.8307    0.1641 N   0  0  0  0  0  0  0  0  0  0  0  0
   -0.9314    2.5446    0.7665 C   0  0  0  0  0  0  0  0  0  0  0  0
   -1.0921    3.7567    1.4384 C   0  0  0  0  0  0  0  0  0  0  0  0
    0.0149    4.3955    2.0013 C   0  0  0  0  0  0  0  0  0  0  0  0
    1.2818    3.8251    1.8991 C   0  0  0  0  0  0  0  0  0  0  0  0
    1.4508    2.6112    1.2308 C   0  0  0  0  0  0  0  0  0  0  0  0
    0.3546    1.9578    0.6495 C   0  0  0  0  0  0  0  0  0  0  0  0
    0.4723    0.7077   -0.0035 N   0  0  0  0  0  0  0  0  0  0  0  0
    1.4679    0.6613   -1.1015 C   0  0  0  0  0  0  0  0  0  0  0  0
    1.9347   -0.7798   -1.3664 C   0  0  0  0  0  0  0  0  0  0  0  0
    2.5589   -1.3608   -0.1707 N   0  0  0  0  0  0  0  0  0  0  0  0
    3.8712   -1.8271   -0.2602 C   0  0  0  0  0  0  0  0  0  0  0  0
    4.5422   -1.7995   -1.2899 O   0  0  0  0  0  0  0  0  0  0  0  0
    4.5062   -2.3780    0.9556 C   0  0  0  0  0  0  0  0  0  0  0  0
    4.0028   -3.5393    1.5511 C   0  0  0  0  0  0  0  0  0  0  0  0
    4.6253   -4.0558    2.6876 C   0  0  0  0  0  0  0  0  0  0  0  0
    5.7519   -3.4211    3.2148 C   0  0  0  0  0  0  0  0  0  0  0  0
    6.2660   -2.2756    2.6032 C   0  0  0  0  0  0  0  0  0  0  0  0
    5.6484   -1.7551    1.4658 C   0  0  0  0  0  0  0  0  0  0  0  0
    1.9032   -1.0404    1.1096 C   0  0  0  0  0  0  0  0  0  0  0  0
    0.4983   -0.4323    0.9456 C   0  0  0  0  0  0  0  0  0  0  0  0
   -2.3973    2.3720   -2.6549 H   0  0  0  0  0  0  0  0  0  0  0  0
   -1.3447    1.2655   -3.5509 H   0  0  0  0  0  0  0  0  0  0  0  0
   -3.0858    1.2528   -3.8783 H   0  0  0  0  0  0  0  0  0  0  0  0
   -4.1478   -1.0968   -4.2277 H   0  0  0  0  0  0  0  0  0  0  0  0
   -3.1107   -1.9581   -3.0566 H   0  0  0  0  0  0  0  0  0  0  0  0
   -4.7672   -2.4915   -3.3187 H   0  0  0  0  0  0  0  0  0  0  0  0
   -6.6123   -1.4548   -2.1894 H   0  0  0  0  0  0  0  0  0  0  0  0
   -5.8994    1.7310    0.6054 H   0  0  0  0  0  0  0  0  0  0  0  0
   -1.6657    0.9881   -0.3121 H   0  0  0  0  0  0  0  0  0  0  0  0
   -2.0650    4.2270    1.5367 H   0  0  0  0  0  0  0  0  0  0  0  0
   -0.1175    5.3399    2.5235 H   0  0  0  0  0  0  0  0  0  0  0  0
    2.1388    4.3234    2.3458 H   0  0  0  0  0  0  0  0  0  0  0  0
    2.4451    2.1768    1.1833 H   0  0  0  0  0  0  0  0  0  0  0  0
    1.0024    1.0648   -2.0087 H   0  0  0  0  0  0  0  0  0  0  0  0
    2.3518    1.2733   -0.8832 H   0  0  0  0  0  0  0  0  0  0  0  0
    1.0777   -1.4153   -1.6199 H   0  0  0  0  0  0  0  0  0  0  0  0
    2.6184   -0.7984   -2.2203 H   0  0  0  0  0  0  0  0  0  0  0  0
    3.1391   -4.0453    1.1260 H   0  0  0  0  0  0  0  0  0  0  0  0
    4.2406   -4.9580    3.1569 H   0  0  0  0  0  0  0  0  0  0  0  0
    6.2406   -3.8286    4.0972 H   0  0  0  0  0  0  0  0  0  0  0  0
    7.1533   -1.7946    3.0077 H   0  0  0  0  0  0  0  0  0  0  0  0
    6.0574   -0.8750    0.9764 H   0  0  0  0  0  0  0  0  0  0  0  0
    1.8299   -1.9508    1.7111 H   0  0  0  0  0  0  0  0  0  0  0  0
    2.5561   -0.3387    1.6436 H   0  0  0  0  0  0  0  0  0  0  0  0
    0.0924   -0.1611    1.9290 H   0  0  0  0  0  0  0  0  0  0  0  0
   -0.1725   -1.2016    0.5413 H   0  0  0  0  0  0  0  0  0  0  0  0
  1  2  1  0
  2  3  1  0
  3  4  2  0
  4  5  1  0
  4  6  1  0
  6  7  2  0
  7  8  1  0
  7  9  1  0
  9 10  2  0
 10 11  1  0
 11 12  2  0
 11 13  1  0
 13 14  1  0
 14 15  2  0
 15 16  1  0
 16 17  2  0
 17 18  1  0
 18 19  2  0
 19 20  1  0
 20 21  1  0
 21 22  1  0
 22 23  1  0
 23 24  1  0
 24 25  2  0
 24 26  1  0
 26 27  2  0
 27 28  1  0
 28 29  2  0
 29 30  1  0
 30 31  2  0
 23 32  1  0
 32 33  1  0
 10  3  1  0
 19 14  1  0
 33 20  1  0
 31 26  1  0
  1 34  1  0
  1 35  1  0
  1 36  1  0
  5 37  1  0
  5 38  1  0
  5 39  1  0
  6 40  1  0
  9 41  1  0
 13 42  1  0
 15 43  1  0
 16 44  1  0
 17 45  1  0
 18 46  1  0
 21 47  1  0
 21 48  1  0
 22 49  1  0
 22 50  1  0
 27 51  1  0
 28 52  1  0
 29 53  1  0
 30 54  1  0
 31 55  1  0
 32 56  1  0
 32 57  1  0
 33 58  1  0
 33 59  1  0
M  END
$$$$
