
     RDKit          3D

 56 61  0  0  0  0  0  0  0  0999 V2000
    8.2267    0.0892    0.4433 C   0  0  0  0  0  0  0  0  0  0  0  0
    6.7538   -0.1255    0.2494 C   0  0  0  0  0  0  0  0  0  0  0  0
    5.8307    0.4770    1.1095 C   0  0  0  0  0  0  0  0  0  0  0  0
    4.4599    0.2531    0.9501 C   0  0  0  0  0  0  0  0  0  0  0  0
    3.9962   -0.5840   -0.0713 C   0  0  0  0  0  0  0  0  0  0  0  0
    2.4541   -0.8330   -0.2399 C   0  0  0  0  0  0  0  0  0  0  0  0
    1.4450   -0.3478    0.5846 C   0  0  0  0  0  0  0  0  0  0  0  0
    0.2165   -0.8188    0.1234 N   0  0  0  0  0  4  0  0  0  0  0  0
   -1.1148   -0.5166    0.6757 C   0  0  0  0  0  0  0  0  0  0  0  0
   -1.9190    0.4122   -0.2597 C   0  0  0  0  0  0  0  0  0  0  0  0
   -1.5401    0.6245   -1.4125 O   0  0  0  0  0  0  0  0  0  0  0  0
   -3.1310    0.8401    0.2997 N   0  0  0  0  0  0  0  0  0  0  0  0
   -3.1194    1.6325    1.5038 C   0  0  0  0  0  0  0  0  0  0  0  0
   -1.9597    2.3718    1.8290 C   0  0  0  0  0  0  0  0  0  0  0  0
   -1.8892    3.1549    2.9842 C   0  0  0  0  0  0  0  0  0  0  0  0
   -2.9810    3.2262    3.8369 C   0  0  0  0  0  0  0  0  0  0  0  0
   -4.1451    2.5300    3.5215 C   0  0  0  0  0  0  0  0  0  0  0  0
   -4.2254    1.7482    2.3573 C   0  0  0  0  0  0  0  0  0  0  0  0
   -5.7460    0.8988    2.0618 S   0  0  0  0  0  0  0  0  0  0  0  0
   -5.6205    0.6556    0.3076 C   0  0  0  0  0  0  0  0  0  0  0  0
   -6.8270    0.4077   -0.3715 C   0  0  0  0  0  0  0  0  0  0  0  0
   -6.8330    0.1084   -1.7293 C   0  0  0  0  0  0  0  0  0  0  0  0
   -5.6302    0.0421   -2.4148 C   0  0  0  0  0  0  0  0  0  0  0  0
   -4.4259    0.2823   -1.7431 C   0  0  0  0  0  0  0  0  0  0  0  0
   -4.3883    0.6113   -0.3724 C   0  0  0  0  0  0  0  0  0  0  0  0
    0.4525   -1.5457   -0.9651 C   0  0  0  0  0  0  0  0  0  0  0  0
    1.7630   -1.5596   -1.1930 N   0  0  0  0  0  0  0  0  0  0  0  0
    2.0970   -2.3172   -2.3909 C   0  0  0  0  0  0  0  0  0  0  0  0
    0.7205   -2.5480   -3.0723 C   0  0  0  0  0  0  0  0  0  0  0  0
   -0.3186   -2.3344   -1.9548 C   0  0  0  0  0  0  0  0  0  0  0  0
    4.9154   -1.1992   -0.9217 C   0  0  0  0  0  0  0  0  0  0  0  0
    6.2861   -0.9736   -0.7585 C   0  0  0  0  0  0  0  0  0  0  0  0
    8.4268    1.0951    0.8270 H   0  0  0  0  0  0  0  0  0  0  0  0
    8.7650   -0.0094   -0.5050 H   0  0  0  0  0  0  0  0  0  0  0  0
    8.6213   -0.6453    1.1521 H   0  0  0  0  0  0  0  0  0  0  0  0
    6.1777    1.1306    1.9093 H   0  0  0  0  0  0  0  0  0  0  0  0
    3.7857    0.7534    1.6387 H   0  0  0  0  0  0  0  0  0  0  0  0
    1.4490    0.2738    1.4640 H   0  0  0  0  0  0  0  0  0  0  0  0
   -1.6572   -1.4632    0.7730 H   0  0  0  0  0  0  0  0  0  0  0  0
   -0.9847   -0.0907    1.6724 H   0  0  0  0  0  0  0  0  0  0  0  0
   -1.1012    2.4030    1.1612 H   0  0  0  0  0  0  0  0  0  0  0  0
   -0.9917    3.7286    3.2063 H   0  0  0  0  0  0  0  0  0  0  0  0
   -2.9397    3.8389    4.7352 H   0  0  0  0  0  0  0  0  0  0  0  0
   -5.0002    2.6096    4.1923 H   0  0  0  0  0  0  0  0  0  0  0  0
   -7.7770    0.4375    0.1611 H   0  0  0  0  0  0  0  0  0  0  0  0
   -7.7721   -0.0763   -2.2454 H   0  0  0  0  0  0  0  0  0  0  0  0
   -5.6238   -0.1854   -3.4791 H   0  0  0  0  0  0  0  0  0  0  0  0
   -3.5293    0.2414   -2.3535 H   0  0  0  0  0  0  0  0  0  0  0  0
    2.7658   -1.7492   -3.0417 H   0  0  0  0  0  0  0  0  0  0  0  0
    2.5532   -3.2654   -2.0913 H   0  0  0  0  0  0  0  0  0  0  0  0
    0.6409   -3.5287   -3.5488 H   0  0  0  0  0  0  0  0  0  0  0  0
    0.5759   -1.7843   -3.8458 H   0  0  0  0  0  0  0  0  0  0  0  0
   -1.1942   -1.7749   -2.2802 H   0  0  0  0  0  0  0  0  0  0  0  0
   -0.5946   -3.2673   -1.4581 H   0  0  0  0  0  0  0  0  0  0  0  0
    4.6097   -1.8684   -1.7143 H   0  0  0  0  0  0  0  0  0  0  0  0
    6.9914   -1.4658   -1.4261 H   0  0  0  0  0  0  0  0  0  0  0  0
  1  2  1  0
  2  3  2  0
  3  4  1  0
  4  5  2  0
  5  6  1  0
  6  7  2  0
  7  8  1  0
  8  9  1  0
  9 10  1  0
 10 11  2  0
 10 12  1  0
 12 13  1  0
 13 14  2  0
 14 15  1  0
 15 16  2  0
 16 17  1  0
 17 18  2  0
 18 19  1  0
 19 20  1  0
 20 21  2  0
 21 22  1  0
 22 23  2  0
 23 24  1  0
 24 25  2  0
  8 26  2  0
 26 27  1  0
 27 28  1  0
 28 29  1  0
 29 30  1  0
  5 31  1  0
 31 32  2  0
 32  2  1  0
 27  6  1  0
 25 12  1  0
 30 26  1  0
 18 13  1  0
 25 20  1  0
  1 33  1  0
  1 34  1  0
  1 35  1  0
  3 36  1  0
  4 37  1  0
  7 38  1  0
  9 39  1  0
  9 40  1  0
 14 41  1  0
 15 42  1  0
 16 43  1  0
 17 44  1  0
 21 45  1  0
 22 46  1  0
 23 47  1  0
 24 48  1  0
 28 49  1  0
 28 50  1  0
 29 51  1  0
 29 52  1  0
 30 53  1  0
 30 54  1  0
 31 55  1  0
 32 56  1  0
M  CHG  1   8   1
M  END
$$$$
