
     RDKit          3D

 29 29  0  0  0  0  0  0  0  0999 V2000
   -5.6243   -2.4955    1.0134 C   0  0  0  0  0  0  0  0  0  0  0  0
   -4.6682   -2.4509    0.2874 C   0  0  0  0  0  0  0  0  0  0  0  0
   -3.4991   -2.3958   -0.5990 C   0  0  0  0  0  0  0  0  0  0  0  0
   -2.7444   -1.1727   -0.3342 N   0  0  0  0  0  0  0  0  0  0  0  0
   -1.5370   -1.1085   -1.1528 C   0  0  0  0  0  0  0  0  0  0  0  0
   -0.7981    0.2202   -0.9854 C   0  0  0  0  0  0  0  0  0  0  0  0
   -0.2350    0.4335    0.4175 C   0  0  0  0  0  0  0  0  0  0  0  0
    0.5313    1.6384    0.4661 O   0  0  0  0  0  0  0  0  0  0  0  0
    1.8901    1.5761    0.3131 C   0  0  0  0  0  0  0  0  0  0  0  0
    2.5800    0.4801   -0.2150 C   0  0  0  0  0  0  0  0  0  0  0  0
    3.9725    0.5169   -0.3473 C   0  0  0  0  0  0  0  0  0  0  0  0
    4.6809    1.6515    0.0409 C   0  0  0  0  0  0  0  0  0  0  0  0
    6.3924    1.6869   -0.1262 Cl  0  0  0  0  0  0  0  0  0  0  0  0
    4.0126    2.7555    0.5576 C   0  0  0  0  0  0  0  0  0  0  0  0
    2.6221    2.7170    0.6888 C   0  0  0  0  0  0  0  0  0  0  0  0
    1.8365    4.1161    1.3370 Cl  0  0  0  0  0  0  0  0  0  0  0  0
   -6.4744   -2.5262    1.6551 H   0  0  0  0  0  0  0  0  0  0  0  0
   -3.8333   -2.4160   -1.6424 H   0  0  0  0  0  0  0  0  0  0  0  0
   -2.8724   -3.2788   -0.4269 H   0  0  0  0  0  0  0  0  0  0  0  0
   -2.5123   -1.1490    0.6573 H   0  0  0  0  0  0  0  0  0  0  0  0
   -0.8621   -1.9364   -0.9036 H   0  0  0  0  0  0  0  0  0  0  0  0
   -1.8060   -1.2102   -2.2113 H   0  0  0  0  0  0  0  0  0  0  0  0
    0.0153    0.2632   -1.7196 H   0  0  0  0  0  0  0  0  0  0  0  0
   -1.4592    1.0586   -1.2413 H   0  0  0  0  0  0  0  0  0  0  0  0
    0.3263   -0.4331    0.7857 H   0  0  0  0  0  0  0  0  0  0  0  0
   -1.0623    0.5751    1.1221 H   0  0  0  0  0  0  0  0  0  0  0  0
    2.0654   -0.4148   -0.5485 H   0  0  0  0  0  0  0  0  0  0  0  0
    4.4965   -0.3423   -0.7597 H   0  0  0  0  0  0  0  0  0  0  0  0
    4.5664    3.6412    0.8559 H   0  0  0  0  0  0  0  0  0  0  0  0
  1  2  3  0
  2  3  1  0
  3  4  1  0
  4  5  1  0
  5  6  1  0
  6  7  1  0
  7  8  1  0
  8  9  1  0
  9 10  2  0
 10 11  1  0
 11 12  2  0
 12 13  1  0
 12 14  1  0
 14 15  2  0
 15 16  1  0
 15  9  1  0
  1 17  1  0
  3 18  1  0
  3 19  1  0
  4 20  1  0
  5 21  1  0
  5 22  1  0
  6 23  1  0
  6 24  1  0
  7 25  1  0
  7 26  1  0
 10 27  1  0
 11 28  1  0
 14 29  1  0
M  END
$$$$
