
     RDKit          3D

 50 52  0  0  0  0  0  0  0  0999 V2000
    6.9116    3.5820   -1.3042 C   0  0  0  0  0  0  0  0  0  0  0  0
    5.5539    3.9253   -1.0571 O   0  0  0  0  0  0  0  0  0  0  0  0
    4.6754    2.8895   -0.9006 C   0  0  0  0  0  0  0  0  0  0  0  0
    4.9889    1.5320   -0.9385 C   0  0  0  0  0  0  0  0  0  0  0  0
    3.9865    0.5666   -0.7627 C   0  0  0  0  0  0  0  0  0  0  0  0
    2.6619    0.9473   -0.5502 C   0  0  0  0  0  0  0  0  0  0  0  0
    1.5990    0.0451   -0.3622 N   0  0  0  0  0  0  0  0  0  0  0  0
    1.6185   -1.3330   -0.4388 C   0  0  0  0  0  0  0  0  0  0  0  0
    2.5940   -2.0069   -0.7763 O   0  0  0  0  0  0  0  0  0  0  0  0
    0.2486   -2.0320   -0.1728 C   0  0  0  0  0  0  0  0  0  0  0  0
   -0.6602   -1.4854    0.8458 N   0  0  0  0  0  0  0  0  0  0  0  0
   -1.3095   -0.2778    0.7346 C   0  0  0  0  0  0  0  0  0  0  0  0
   -0.9892    0.5870   -0.0733 O   0  0  0  0  0  0  0  0  0  0  0  0
   -2.4460   -0.0479    1.6654 C   0  0  0  0  0  0  0  0  0  0  0  0
   -3.4959    0.7735    1.2420 C   0  0  0  0  0  0  0  0  0  0  0  0
   -4.5822    1.0144    2.0861 C   0  0  0  0  0  0  0  0  0  0  0  0
   -4.6307    0.4375    3.3611 C   0  0  0  0  0  0  0  0  0  0  0  0
   -5.7814    0.7287    4.2796 C   0  0  0  0  0  0  0  0  0  0  0  0
   -3.5626   -0.3597    3.7920 C   0  0  0  0  0  0  0  0  0  0  0  0
   -2.4743   -0.6044    2.9495 C   0  0  0  0  0  0  0  0  0  0  0  0
   -0.5041   -2.4157   -1.4395 C   0  0  0  0  0  0  0  0  0  0  0  0
   -1.0657   -3.6994   -1.5566 C   0  0  0  0  0  0  0  0  0  0  0  0
   -1.7832   -4.0650   -2.6973 C   0  0  0  0  0  0  0  0  0  0  0  0
   -1.9563   -3.1521   -3.7343 C   0  0  0  0  0  0  0  0  0  0  0  0
   -1.4150   -1.8735   -3.6303 C   0  0  0  0  0  0  0  0  0  0  0  0
   -0.6968   -1.5059   -2.4905 C   0  0  0  0  0  0  0  0  0  0  0  0
    2.3523    2.3105   -0.5082 C   0  0  0  0  0  0  0  0  0  0  0  0
    3.3518    3.2721   -0.6828 C   0  0  0  0  0  0  0  0  0  0  0  0
    7.3395    3.0328   -0.4590 H   0  0  0  0  0  0  0  0  0  0  0  0
    7.4763    4.5126   -1.4160 H   0  0  0  0  0  0  0  0  0  0  0  0
    7.0135    3.0169   -2.2365 H   0  0  0  0  0  0  0  0  0  0  0  0
    6.0024    1.1818   -1.1024 H   0  0  0  0  0  0  0  0  0  0  0  0
    4.2789   -0.4781   -0.7968 H   0  0  0  0  0  0  0  0  0  0  0  0
    0.6774    0.4657   -0.2330 H   0  0  0  0  0  0  0  0  0  0  0  0
    0.5711   -2.9751    0.2959 H   0  0  0  0  0  0  0  0  0  0  0  0
   -1.1508   -2.1963    1.3700 H   0  0  0  0  0  0  0  0  0  0  0  0
   -3.4725    1.2270    0.2529 H   0  0  0  0  0  0  0  0  0  0  0  0
   -5.3891    1.6586    1.7423 H   0  0  0  0  0  0  0  0  0  0  0  0
   -5.9392   -0.0957    4.9829 H   0  0  0  0  0  0  0  0  0  0  0  0
   -5.5850    1.6440    4.8462 H   0  0  0  0  0  0  0  0  0  0  0  0
   -6.7098    0.8537    3.7128 H   0  0  0  0  0  0  0  0  0  0  0  0
   -3.5681   -0.7871    4.7930 H   0  0  0  0  0  0  0  0  0  0  0  0
   -1.6472   -1.2017    3.3224 H   0  0  0  0  0  0  0  0  0  0  0  0
   -0.9433   -4.4306   -0.7606 H   0  0  0  0  0  0  0  0  0  0  0  0
   -2.2059   -5.0630   -2.7778 H   0  0  0  0  0  0  0  0  0  0  0  0
   -2.5134   -3.4355   -4.6232 H   0  0  0  0  0  0  0  0  0  0  0  0
   -1.5520   -1.1573   -4.4367 H   0  0  0  0  0  0  0  0  0  0  0  0
   -0.2957   -0.4958   -2.4348 H   0  0  0  0  0  0  0  0  0  0  0  0
    1.3299    2.6427   -0.3430 H   0  0  0  0  0  0  0  0  0  0  0  0
    3.0939    4.3276   -0.6502 H   0  0  0  0  0  0  0  0  0  0  0  0
  1  2  1  0
  2  3  1  0
  3  4  2  0
  4  5  1  0
  5  6  2  0
  6  7  1  0
  7  8  1  0
  8  9  2  0
  8 10  1  0
 10 11  1  0
 11 12  1  0
 12 13  2  0
 12 14  1  0
 14 15  2  0
 15 16  1  0
 16 17  2  0
 17 18  1  0
 17 19  1  0
 19 20  2  0
 10 21  1  0
 21 22  2  0
 22 23  1  0
 23 24  2  0
 24 25  1  0
 25 26  2  0
  6 27  1  0
 27 28  2  0
 28  3  1  0
 20 14  1  0
 26 21  1  0
  1 29  1  0
  1 30  1  0
  1 31  1  0
  4 32  1  0
  5 33  1  0
  7 34  1  0
 10 35  1  0
 11 36  1  0
 15 37  1  0
 16 38  1  0
 18 39  1  0
 18 40  1  0
 18 41  1  0
 19 42  1  0
 20 43  1  0
 22 44  1  0
 23 45  1  0
 24 46  1  0
 25 47  1  0
 26 48  1  0
 27 49  1  0
 28 50  1  0
M  END
$$$$
