
     RDKit          3D

 46 48  0  0  0  0  0  0  0  0999 V2000
   -4.7874   -2.8017   -2.0929 C   0  0  0  0  0  0  0  0  0  0  0  0
   -5.5889   -2.3789   -0.9990 O   0  0  0  0  0  0  0  0  0  0  0  0
   -5.2530   -1.1981   -0.3899 C   0  0  0  0  0  0  0  0  0  0  0  0
   -4.0954   -0.4596   -0.6564 C   0  0  0  0  0  0  0  0  0  0  0  0
   -3.8382    0.7367    0.0301 C   0  0  0  0  0  0  0  0  0  0  0  0
   -2.6310    1.5209   -0.2405 C   0  0  0  0  0  0  0  0  0  0  0  0
   -1.3858    1.0712   -0.0310 C   0  0  0  0  0  0  0  0  0  0  0  0
   -0.9101   -0.2400    0.5145 C   0  0  0  0  0  0  0  0  0  0  0  0
    0.5073    0.0283    1.0191 C   0  0  0  0  0  0  0  0  0  0  0  0
    0.9778    1.2238    0.2491 C   0  0  0  0  0  0  0  0  0  0  0  0
    2.2199    1.6582   -0.0061 C   0  0  0  0  0  0  0  0  0  0  0  0
    3.4404    1.0050    0.4757 C   0  0  0  0  0  0  0  0  0  0  0  0
    3.6723    0.8170    1.8449 C   0  0  0  0  0  0  0  0  0  0  0  0
    4.8447    0.2015    2.2807 C   0  0  0  0  0  0  0  0  0  0  0  0
    5.7823   -0.2123    1.3441 C   0  0  0  0  0  0  0  0  0  0  0  0
    6.9246   -0.8149    1.7970 O   0  0  0  0  0  0  0  0  0  0  0  0
    5.5834   -0.0215   -0.0278 C   0  0  0  0  0  0  0  0  0  0  0  0
    6.6002   -0.4762   -0.8283 O   0  0  0  0  0  0  0  0  0  0  0  0
    6.4529   -0.2632   -2.2276 C   0  0  0  0  0  0  0  0  0  0  0  0
    4.4063    0.5937   -0.4574 C   0  0  0  0  0  0  0  0  0  0  0  0
   -0.2058    1.9290   -0.3032 C   0  0  0  0  0  0  0  0  0  0  0  0
   -0.2078    3.0031   -0.8734 O   0  0  0  0  0  0  0  0  0  0  0  0
   -4.7543    1.2023    0.9787 C   0  0  0  0  0  0  0  0  0  0  0  0
   -5.9095    0.4717    1.2568 C   0  0  0  0  0  0  0  0  0  0  0  0
   -6.1503   -0.7214    0.5759 C   0  0  0  0  0  0  0  0  0  0  0  0
   -7.2840   -1.4406    0.8475 O   0  0  0  0  0  0  0  0  0  0  0  0
   -5.2373   -3.7094   -2.5071 H   0  0  0  0  0  0  0  0  0  0  0  0
   -4.7687   -2.0474   -2.8871 H   0  0  0  0  0  0  0  0  0  0  0  0
   -3.7744   -3.0540   -1.7625 H   0  0  0  0  0  0  0  0  0  0  0  0
   -3.3785   -0.7942   -1.3985 H   0  0  0  0  0  0  0  0  0  0  0  0
   -2.7968    2.5305   -0.6154 H   0  0  0  0  0  0  0  0  0  0  0  0
   -1.5426   -0.6200    1.3230 H   0  0  0  0  0  0  0  0  0  0  0  0
   -0.8860   -0.9862   -0.2885 H   0  0  0  0  0  0  0  0  0  0  0  0
    1.1427   -0.8505    0.8713 H   0  0  0  0  0  0  0  0  0  0  0  0
    0.4835    0.2650    2.0895 H   0  0  0  0  0  0  0  0  0  0  0  0
    2.3726    2.5407   -0.6261 H   0  0  0  0  0  0  0  0  0  0  0  0
    2.9483    1.1559    2.5821 H   0  0  0  0  0  0  0  0  0  0  0  0
    5.0297    0.0503    3.3398 H   0  0  0  0  0  0  0  0  0  0  0  0
    7.4407   -1.0138    0.9918 H   0  0  0  0  0  0  0  0  0  0  0  0
    6.3925    0.8050   -2.4604 H   0  0  0  0  0  0  0  0  0  0  0  0
    5.5855   -0.8044   -2.6191 H   0  0  0  0  0  0  0  0  0  0  0  0
    7.3445   -0.6617   -2.7215 H   0  0  0  0  0  0  0  0  0  0  0  0
    4.2110    0.7598   -1.5119 H   0  0  0  0  0  0  0  0  0  0  0  0
   -4.5718    2.1333    1.5109 H   0  0  0  0  0  0  0  0  0  0  0  0
   -6.6060    0.8454    2.0008 H   0  0  0  0  0  0  0  0  0  0  0  0
   -7.7991   -0.9782    1.5261 H   0  0  0  0  0  0  0  0  0  0  0  0
  1  2  1  0
  2  3  1  0
  3  4  2  0
  4  5  1  0
  5  6  1  0
  6  7  2  3
  7  8  1  0
  8  9  1  0
  9 10  1  0
 10 11  2  3
 11 12  1  0
 12 13  2  0
 13 14  1  0
 14 15  2  0
 15 16  1  0
 15 17  1  0
 17 18  1  0
 18 19  1  0
 17 20  2  0
 10 21  1  0
 21 22  2  0
  5 23  2  0
 23 24  1  0
 24 25  2  0
 25 26  1  0
 25  3  1  0
 21  7  1  0
 20 12  1  0
  1 27  1  0
  1 28  1  0
  1 29  1  0
  4 30  1  0
  6 31  1  0
  8 32  1  0
  8 33  1  0
  9 34  1  0
  9 35  1  0
 11 36  1  0
 13 37  1  0
 14 38  1  0
 16 39  1  0
 19 40  1  0
 19 41  1  0
 19 42  1  0
 20 43  1  0
 23 44  1  0
 24 45  1  0
 26 46  1  0
M  END
$$$$
