
     RDKit          3D

 61 65  0  0  0  0  0  0  0  0999 V2000
   -7.3996    3.0902   -3.5485 C   0  0  0  0  0  0  0  0  0  0  0  0
   -6.6565    2.1328   -2.6665 C   0  0  0  0  0  0  0  0  0  0  0  0
   -7.0295    0.7869   -2.6181 C   0  0  0  0  0  0  0  0  0  0  0  0
   -6.3248   -0.1153   -1.8136 C   0  0  0  0  0  0  0  0  0  0  0  0
   -5.2197    0.2901   -1.0447 C   0  0  0  0  0  0  0  0  0  0  0  0
   -4.4867   -0.6835   -0.2076 C   0  0  0  0  0  0  0  0  0  0  0  0
   -3.1320   -0.5799    0.0596 C   0  0  0  0  0  0  0  0  0  0  0  0
   -2.5357   -1.5520    0.8662 C   0  0  0  0  0  0  0  0  0  0  0  0
   -1.0860   -1.4137    1.1387 C   0  0  0  0  0  0  0  0  0  0  0  0
   -0.7222   -1.2575    2.2966 O   0  0  0  0  0  0  0  0  0  0  0  0
   -0.3037   -1.4667    0.0008 N   0  0  0  0  0  0  0  0  0  0  0  0
    1.0981   -1.3349   -0.0764 C   0  0  0  0  0  0  0  0  0  0  0  0
    1.6788   -1.4307   -1.3495 C   0  0  0  0  0  0  0  0  0  0  0  0
    3.0603   -1.3012   -1.5169 C   0  0  0  0  0  0  0  0  0  0  0  0
    3.8696   -1.0708   -0.4040 C   0  0  0  0  0  0  0  0  0  0  0  0
    5.6275   -0.9424   -0.6022 S   0  0  0  0  0  6  0  0  0  0  0  0
    6.2752   -1.3877    0.6103 O   0  0  0  0  0  0  0  0  0  0  0  0
    5.9658   -1.5388   -1.8794 O   0  0  0  0  0  0  0  0  0  0  0  0
    5.8413    0.7107   -0.8231 N   0  0  0  0  0  0  0  0  0  0  0  0
    6.1831    1.4671    0.3653 C   0  0  0  0  0  0  0  0  0  0  0  0
    5.5585    1.3533    1.5650 O   0  0  0  0  0  0  0  0  0  0  0  0
    6.1006    2.2515    2.4617 N   0  0  0  0  0  0  0  0  0  0  0  0
    7.0526    2.9051    1.7869 C   0  0  0  0  0  0  0  0  0  0  0  0
    7.8516    3.9533    2.4651 C   0  0  0  0  0  0  0  0  0  0  0  0
    7.1439    2.4530    0.4396 C   0  0  0  0  0  0  0  0  0  0  0  0
    8.0655    2.9238   -0.6194 C   0  0  0  0  0  0  0  0  0  0  0  0
    3.3084   -0.9956    0.8712 C   0  0  0  0  0  0  0  0  0  0  0  0
    1.9238   -1.1176    1.0300 C   0  0  0  0  0  0  0  0  0  0  0  0
   -3.2871   -2.6115    1.4145 C   0  0  0  0  0  0  0  0  0  0  0  0
   -2.7661   -3.6300    2.2517 C   0  0  0  0  0  0  0  0  0  0  0  0
   -3.5864   -4.6419    2.7445 C   0  0  0  0  0  0  0  0  0  0  0  0
   -4.9318   -4.6541    2.4074 C   0  0  0  0  0  0  0  0  0  0  0  0
   -5.4468   -3.6576    1.5771 C   0  0  0  0  0  0  0  0  0  0  0  0
   -4.6506   -2.6363    1.0751 C   0  0  0  0  0  0  0  0  0  0  0  0
   -5.2220   -1.7134    0.2818 N   0  0  0  0  0  0  0  0  0  0  0  0
   -4.8578    1.6498   -1.1085 C   0  0  0  0  0  0  0  0  0  0  0  0
   -5.5590    2.5567   -1.9131 C   0  0  0  0  0  0  0  0  0  0  0  0
   -8.4744    2.8970   -3.5038 H   0  0  0  0  0  0  0  0  0  0  0  0
   -7.2398    4.1258   -3.2355 H   0  0  0  0  0  0  0  0  0  0  0  0
   -7.0622    2.9862   -4.5834 H   0  0  0  0  0  0  0  0  0  0  0  0
   -7.8754    0.4283   -3.2012 H   0  0  0  0  0  0  0  0  0  0  0  0
   -6.6464   -1.1569   -1.7900 H   0  0  0  0  0  0  0  0  0  0  0  0
   -2.5407    0.2369   -0.3394 H   0  0  0  0  0  0  0  0  0  0  0  0
   -0.7800   -1.6501   -0.8765 H   0  0  0  0  0  0  0  0  0  0  0  0
    1.0653   -1.6085   -2.2295 H   0  0  0  0  0  0  0  0  0  0  0  0
    3.4906   -1.3865   -2.5119 H   0  0  0  0  0  0  0  0  0  0  0  0
    6.3469    0.9125   -1.6810 H   0  0  0  0  0  0  0  0  0  0  0  0
    8.9057    3.6597    2.5110 H   0  0  0  0  0  0  0  0  0  0  0  0
    7.7784    4.9016    1.9221 H   0  0  0  0  0  0  0  0  0  0  0  0
    7.5042    4.1251    3.4897 H   0  0  0  0  0  0  0  0  0  0  0  0
    8.5617    3.8560   -0.3376 H   0  0  0  0  0  0  0  0  0  0  0  0
    8.8422    2.1749   -0.8093 H   0  0  0  0  0  0  0  0  0  0  0  0
    7.5245    3.1049   -1.5537 H   0  0  0  0  0  0  0  0  0  0  0  0
    3.9326   -0.8419    1.7491 H   0  0  0  0  0  0  0  0  0  0  0  0
    1.5229   -1.0422    2.0373 H   0  0  0  0  0  0  0  0  0  0  0  0
   -1.7152   -3.6308    2.5377 H   0  0  0  0  0  0  0  0  0  0  0  0
   -3.1751   -5.4093    3.3947 H   0  0  0  0  0  0  0  0  0  0  0  0
   -5.5854   -5.4311    2.7909 H   0  0  0  0  0  0  0  0  0  0  0  0
   -6.5036   -3.6748    1.3177 H   0  0  0  0  0  0  0  0  0  0  0  0
   -4.0322    2.0330   -0.5135 H   0  0  0  0  0  0  0  0  0  0  0  0
   -5.2455    3.5990   -1.9381 H   0  0  0  0  0  0  0  0  0  0  0  0
  1  2  1  0
  2  3  2  0
  3  4  1  0
  4  5  2  0
  5  6  1  0
  6  7  2  0
  7  8  1  0
  8  9  1  0
  9 10  2  0
  9 11  1  0
 11 12  1  0
 12 13  2  0
 13 14  1  0
 14 15  2  0
 15 16  1  0
 16 17  2  0
 16 18  2  0
 16 19  1  0
 19 20  1  0
 20 21  1  0
 21 22  1  0
 22 23  2  0
 23 24  1  0
 23 25  1  0
 25 26  1  0
 15 27  1  0
 27 28  2  0
  8 29  2  0
 29 30  1  0
 30 31  2  0
 31 32  1  0
 32 33  2  0
 33 34  1  0
 34 35  2  0
  5 36  1  0
 36 37  2  0
 37  2  1  0
 35  6  1  0
 28 12  1  0
 34 29  1  0
 25 20  2  0
  1 38  1  0
  1 39  1  0
  1 40  1  0
  3 41  1  0
  4 42  1  0
  7 43  1  0
 11 44  1  0
 13 45  1  0
 14 46  1  0
 19 47  1  0
 24 48  1  0
 24 49  1  0
 24 50  1  0
 26 51  1  0
 26 52  1  0
 26 53  1  0
 27 54  1  0
 28 55  1  0
 30 56  1  0
 31 57  1  0
 32 58  1  0
 33 59  1  0
 36 60  1  0
 37 61  1  0
M  END
$$$$
