
     RDKit          3D

 51 55  0  0  0  0  0  0  0  0999 V2000
  -10.5874    2.5047   -0.2629 C   0  0  0  0  0  0  0  0  0  0  0  0
   -9.7165    1.3258   -0.5831 C   0  0  0  0  0  0  0  0  0  0  0  0
  -10.1892    0.2727   -1.3746 C   0  0  0  0  0  0  0  0  0  0  0  0
   -9.3764   -0.8293   -1.6492 C   0  0  0  0  0  0  0  0  0  0  0  0
   -8.0781   -0.8873   -1.1417 C   0  0  0  0  0  0  0  0  0  0  0  0
   -7.5879    0.1677   -0.3614 C   0  0  0  0  0  0  0  0  0  0  0  0
   -6.2068    0.1531    0.1977 C   0  0  0  0  0  0  0  0  0  0  0  0
   -6.0129    0.6650    1.2928 O   0  0  0  0  0  0  0  0  0  0  0  0
   -5.2606   -0.4088   -0.6285 N   0  0  0  0  0  0  0  0  0  0  0  0
   -3.9503   -0.5214   -0.2514 C   0  0  0  0  0  0  0  0  0  0  0  0
   -3.3641   -0.2567    0.8899 N   0  0  0  0  0  0  0  0  0  0  0  0
   -2.0066   -0.5187    0.8417 N   0  0  0  0  0  0  0  0  0  0  0  0
   -1.6392   -0.9789   -0.3334 C   0  0  0  0  0  0  0  0  0  0  0  0
    0.0162   -1.3932   -0.7025 S   0  0  0  0  0  0  0  0  0  0  0  0
    0.6791   -1.5455    0.9817 C   0  0  0  0  0  0  0  0  0  0  0  0
    2.1586   -1.8826    0.9120 C   0  0  0  0  0  0  0  0  0  0  0  0
    2.5467   -3.0405    1.0394 O   0  0  0  0  0  0  0  0  0  0  0  0
    2.9540   -0.7653    0.7027 N   0  0  0  0  0  0  0  0  0  0  0  0
    4.3627   -0.7082    0.6257 C   0  0  0  0  0  0  0  0  0  0  0  0
    5.1943   -1.8217    0.7915 C   0  0  0  0  0  0  0  0  0  0  0  0
    6.5945   -1.7125    0.7178 C   0  0  0  0  0  0  0  0  0  0  0  0
    7.1667   -0.4528    0.4740 C   0  0  0  0  0  0  0  0  0  0  0  0
    6.3155    0.6324    0.3113 C   0  0  0  0  0  0  0  0  0  0  0  0
    4.9244    0.5541    0.3770 C   0  0  0  0  0  0  0  0  0  0  0  0
    7.0279    1.7708    0.0847 O   0  0  0  0  0  0  0  0  0  0  0  0
    8.3449    1.4246    0.1039 C   0  0  0  0  0  0  0  0  0  0  0  0
    9.4111    2.3022   -0.0823 C   0  0  0  0  0  0  0  0  0  0  0  0
   10.6946    1.7487   -0.0227 C   0  0  0  0  0  0  0  0  0  0  0  0
   10.8827    0.3842    0.2115 C   0  0  0  0  0  0  0  0  0  0  0  0
    9.7894   -0.4750    0.3946 C   0  0  0  0  0  0  0  0  0  0  0  0
    8.4889    0.0614    0.3397 C   0  0  0  0  0  0  0  0  0  0  0  0
   -2.9160   -1.1233   -1.4701 S   0  0  0  0  0  0  0  0  0  0  0  0
   -8.4132    1.2626   -0.0726 C   0  0  0  0  0  0  0  0  0  0  0  0
  -11.5573    2.4365   -0.7662 H   0  0  0  0  0  0  0  0  0  0  0  0
  -10.7708    2.5555    0.8154 H   0  0  0  0  0  0  0  0  0  0  0  0
  -10.1054    3.4316   -0.5907 H   0  0  0  0  0  0  0  0  0  0  0  0
  -11.2017    0.2978   -1.7740 H   0  0  0  0  0  0  0  0  0  0  0  0
   -9.7648   -1.6495   -2.2494 H   0  0  0  0  0  0  0  0  0  0  0  0
   -7.4791   -1.7726   -1.3353 H   0  0  0  0  0  0  0  0  0  0  0  0
   -5.4879   -0.6761   -1.5736 H   0  0  0  0  0  0  0  0  0  0  0  0
    0.5469   -0.6134    1.5423 H   0  0  0  0  0  0  0  0  0  0  0  0
    0.1629   -2.3433    1.5248 H   0  0  0  0  0  0  0  0  0  0  0  0
    2.4695    0.1140    0.5629 H   0  0  0  0  0  0  0  0  0  0  0  0
    4.7868   -2.8098    0.9869 H   0  0  0  0  0  0  0  0  0  0  0  0
    7.2169   -2.5921    0.8526 H   0  0  0  0  0  0  0  0  0  0  0  0
    4.3259    1.4462    0.2418 H   0  0  0  0  0  0  0  0  0  0  0  0
    9.2473    3.3573   -0.2625 H   0  0  0  0  0  0  0  0  0  0  0  0
   11.5602    2.3934   -0.1602 H   0  0  0  0  0  0  0  0  0  0  0  0
   11.8923   -0.0199    0.2536 H   0  0  0  0  0  0  0  0  0  0  0  0
    9.9468   -1.5338    0.5774 H   0  0  0  0  0  0  0  0  0  0  0  0
   -8.0356    2.0699    0.5543 H   0  0  0  0  0  0  0  0  0  0  0  0
  1  2  1  0
  2  3  2  0
  3  4  1  0
  4  5  2  0
  5  6  1  0
  6  7  1  0
  7  8  2  0
  7  9  1  0
  9 10  1  0
 10 11  2  0
 11 12  1  0
 12 13  2  0
 13 14  1  0
 14 15  1  0
 15 16  1  0
 16 17  2  0
 16 18  1  0
 18 19  1  0
 19 20  2  0
 20 21  1  0
 21 22  2  0
 22 23  1  0
 23 24  2  0
 23 25  1  0
 25 26  1  0
 26 27  2  0
 27 28  1  0
 28 29  2  0
 29 30  1  0
 30 31  2  0
 13 32  1  0
  6 33  2  0
 33  2  1  0
 32 10  1  0
 24 19  1  0
 31 26  1  0
 31 22  1  0
  1 34  1  0
  1 35  1  0
  1 36  1  0
  3 37  1  0
  4 38  1  0
  5 39  1  0
  9 40  1  0
 15 41  1  0
 15 42  1  0
 18 43  1  0
 20 44  1  0
 21 45  1  0
 24 46  1  0
 27 47  1  0
 28 48  1  0
 29 49  1  0
 30 50  1  0
 33 51  1  0
M  END
$$$$
