
     RDKit          3D

 43 45  0  0  0  0  0  0  0  0999 V2000
   -1.4340   -1.8377    3.3253 C   0  0  0  0  0  0  0  0  0  0  0  0
   -1.3928   -1.0458    2.0562 C   0  0  0  0  0  0  0  0  0  0  0  0
   -0.1850   -0.7168    1.4815 C   0  0  0  0  0  0  0  0  0  0  0  0
   -0.2186   -0.0511    0.2752 C   0  0  0  0  0  0  0  0  0  0  0  0
    0.9482    0.3378   -0.3876 N   0  0  0  0  0  0  0  0  0  0  0  0
    2.1644   -0.0489    0.0488 N   0  0  0  0  0  0  0  0  0  0  0  0
    3.1552    0.2834   -0.7178 C   0  0  0  0  0  0  0  0  0  0  0  0
    4.5511   -0.0227   -0.3178 C   0  0  0  0  0  0  0  0  0  0  0  0
    4.7945   -0.4113    1.0052 C   0  0  0  0  0  0  0  0  0  0  0  0
    6.0956   -0.6493    1.4440 C   0  0  0  0  0  0  0  0  0  0  0  0
    7.1773   -0.4803    0.5806 C   0  0  0  0  0  0  0  0  0  0  0  0
    6.9605   -0.0812   -0.7311 C   0  0  0  0  0  0  0  0  0  0  0  0
    5.6471    0.1322   -1.1755 C   0  0  0  0  0  0  0  0  0  0  0  0
    5.4651    0.4879   -2.5658 N   0  0  0  0  0  4  0  0  0  0  0  0
    6.1291    1.4375   -3.0003 O   0  0  0  0  0  0  0  0  0  0  0  0
    4.7080   -0.2266   -3.2334 O   0  0  0  0  0  1  0  0  0  0  0  0
   -1.3739    0.2809   -0.3075 N   0  0  0  0  0  0  0  0  0  0  0  0
   -2.5223   -0.0452    0.3239 C   0  0  0  0  0  0  0  0  0  0  0  0
   -3.7605    0.3709   -0.2715 N   0  0  0  0  0  0  0  0  0  0  0  0
   -3.7649    1.0910   -1.4328 N   0  0  0  0  0  0  0  0  0  0  0  0
   -5.0426    1.4289   -1.6363 C   0  0  0  0  0  0  0  0  0  0  0  0
   -5.4189    2.2686   -2.8007 C   0  0  0  0  0  0  0  0  0  0  0  0
   -5.8901    0.8585   -0.6699 C   0  0  0  0  0  0  0  0  0  0  0  0
   -5.0597    0.1446    0.1753 C   0  0  0  0  0  0  0  0  0  0  0  0
   -5.4212   -0.7064    1.3394 C   0  0  0  0  0  0  0  0  0  0  0  0
   -2.5709   -0.7152    1.4891 N   0  0  0  0  0  0  0  0  0  0  0  0
   -2.4327   -1.8073    3.7722 H   0  0  0  0  0  0  0  0  0  0  0  0
   -0.7309   -1.4385    4.0534 H   0  0  0  0  0  0  0  0  0  0  0  0
   -1.1931   -2.8813    3.1025 H   0  0  0  0  0  0  0  0  0  0  0  0
    0.7528   -0.9923    1.9316 H   0  0  0  0  0  0  0  0  0  0  0  0
    0.7656    0.6797   -1.3299 H   0  0  0  0  0  0  0  0  0  0  0  0
    2.9821    0.8207   -1.6665 H   0  0  0  0  0  0  0  0  0  0  0  0
    3.9711   -0.5240    1.7052 H   0  0  0  0  0  0  0  0  0  0  0  0
    6.2629   -0.9550    2.4694 H   0  0  0  0  0  0  0  0  0  0  0  0
    8.1902   -0.6423    0.9403 H   0  0  0  0  0  0  0  0  0  0  0  0
    7.8103    0.0505   -1.4015 H   0  0  0  0  0  0  0  0  0  0  0  0
   -4.5536    2.5069   -3.4311 H   0  0  0  0  0  0  0  0  0  0  0  0
   -6.1565    1.7526   -3.4250 H   0  0  0  0  0  0  0  0  0  0  0  0
   -5.8550    3.2152   -2.4648 H   0  0  0  0  0  0  0  0  0  0  0  0
   -6.9698    0.9342   -0.6060 H   0  0  0  0  0  0  0  0  0  0  0  0
   -6.5065   -0.7936    1.4372 H   0  0  0  0  0  0  0  0  0  0  0  0
   -5.0427   -0.2885    2.2728 H   0  0  0  0  0  0  0  0  0  0  0  0
   -5.0349   -1.7210    1.2110 H   0  0  0  0  0  0  0  0  0  0  0  0
  1  2  1  0
  2  3  2  0
  3  4  1  0
  4  5  1  0
  5  6  1  0
  6  7  2  3
  7  8  1  0
  8  9  2  0
  9 10  1  0
 10 11  2  0
 11 12  1  0
 12 13  2  0
 13 14  1  0
 14 15  2  0
 14 16  1  0
  4 17  2  0
 17 18  1  0
 18 19  1  0
 19 20  1  0
 20 21  2  0
 21 22  1  0
 21 23  1  0
 23 24  2  0
 24 25  1  0
 18 26  2  0
 26  2  1  0
 13  8  1  0
 24 19  1  0
  1 27  1  0
  1 28  1  0
  1 29  1  0
  3 30  1  0
  5 31  1  0
  7 32  1  0
  9 33  1  0
 10 34  1  0
 11 35  1  0
 12 36  1  0
 22 37  1  0
 22 38  1  0
 22 39  1  0
 23 40  1  0
 25 41  1  0
 25 42  1  0
 25 43  1  0
M  CHG  2  14   1  16  -1
M  END
$$$$
