
     RDKit          3D

 53 54  0  0  0  0  0  0  0  0999 V2000
   -6.1528   -0.8485    2.1861 C   0  0  0  0  0  0  0  0  0  0  0  0
   -5.0496   -1.1553    1.1828 C   0  0  0  0  0  0  0  0  0  0  0  0
   -5.4321   -0.6988   -0.1777 N   0  0  0  0  0  0  0  0  0  0  0  0
   -5.3656    0.7711   -0.3803 C   0  0  0  0  0  0  0  0  0  0  0  0
   -6.7625    1.3028   -0.6552 C   0  0  0  0  0  0  0  0  0  0  0  0
   -4.9307   -1.6721   -1.4884 S   0  0  0  0  0  6  0  0  0  0  0  0
   -5.4053   -1.0589   -2.7119 O   0  0  0  0  0  0  0  0  0  0  0  0
   -5.2314   -3.0537   -1.1788 O   0  0  0  0  0  0  0  0  0  0  0  0
   -3.1529   -1.5085   -1.4521 C   0  0  0  0  0  0  0  0  0  0  0  0
   -2.5152   -0.5979   -2.2987 C   0  0  0  0  0  0  0  0  0  0  0  0
   -1.1213   -0.4907   -2.2705 C   0  0  0  0  0  0  0  0  0  0  0  0
   -0.3657   -1.2971   -1.4037 C   0  0  0  0  0  0  0  0  0  0  0  0
    1.1181   -1.1663   -1.4236 C   0  0  0  0  0  0  0  0  0  0  0  0
    1.7334   -0.4859   -2.2223 O   0  0  0  0  0  0  0  0  0  0  0  0
    1.6618   -1.9384   -0.4568 O   0  0  0  0  0  0  0  0  0  0  0  0
    3.0861   -2.0002   -0.4662 C   0  0  0  0  0  0  0  0  0  0  0  0
    3.8059   -0.8122    0.1945 C   0  0  0  0  0  0  0  0  0  0  0  0
    3.2518    0.1955    0.6353 O   0  0  0  0  0  0  0  0  0  0  0  0
    5.1813   -0.9812    0.2621 N   0  0  0  0  0  0  0  0  0  0  0  0
    6.0174    0.0112    0.9080 C   0  0  0  0  0  0  0  0  0  0  0  0
    6.0862    1.3210    0.1252 C   0  0  0  0  0  0  0  0  0  0  0  0
    6.1728    2.4697    1.0006 N   0  0  0  0  0  0  0  0  0  0  0  0
    5.1096    3.2511    1.3911 C   0  0  0  0  0  0  0  0  0  0  0  0
    3.8299    2.9583    1.0353 O   0  0  0  0  0  0  0  0  0  0  0  0
    5.4512    4.2986    2.1503 C   0  0  0  0  0  0  0  0  0  0  0  0
    7.1546    4.3425    2.4585 S   0  0  0  0  0  0  0  0  0  0  0  0
    7.3892    2.8497    1.5374 C   0  0  0  0  0  0  0  0  0  0  0  0
    8.4623    2.2625    1.4357 O   0  0  0  0  0  0  0  0  0  0  0  0
   -1.0167   -2.2290   -0.5810 C   0  0  0  0  0  0  0  0  0  0  0  0
   -2.4071   -2.3447   -0.6142 C   0  0  0  0  0  0  0  0  0  0  0  0
   -6.3978    0.2235    2.2219 H   0  0  0  0  0  0  0  0  0  0  0  0
   -7.0722   -1.3916    1.9388 H   0  0  0  0  0  0  0  0  0  0  0  0
   -5.8451   -1.1538    3.1894 H   0  0  0  0  0  0  0  0  0  0  0  0
   -4.8752   -2.2368    1.1998 H   0  0  0  0  0  0  0  0  0  0  0  0
   -4.1169   -0.6712    1.4837 H   0  0  0  0  0  0  0  0  0  0  0  0
   -4.9420    1.2690    0.5036 H   0  0  0  0  0  0  0  0  0  0  0  0
   -4.7050    1.0256   -1.2132 H   0  0  0  0  0  0  0  0  0  0  0  0
   -6.7347    2.3854   -0.7852 H   0  0  0  0  0  0  0  0  0  0  0  0
   -7.1928    0.8548   -1.5599 H   0  0  0  0  0  0  0  0  0  0  0  0
   -7.4388    1.0861    0.1724 H   0  0  0  0  0  0  0  0  0  0  0  0
   -3.0890    0.0230   -2.9850 H   0  0  0  0  0  0  0  0  0  0  0  0
   -0.6247    0.2174   -2.9348 H   0  0  0  0  0  0  0  0  0  0  0  0
    3.4747   -2.1263   -1.4956 H   0  0  0  0  0  0  0  0  0  0  0  0
    3.3587   -2.9160    0.0923 H   0  0  0  0  0  0  0  0  0  0  0  0
    5.6125   -1.8303   -0.0946 H   0  0  0  0  0  0  0  0  0  0  0  0
    7.0175   -0.4201    1.0094 H   0  0  0  0  0  0  0  0  0  0  0  0
    5.6178    0.1674    1.9122 H   0  0  0  0  0  0  0  0  0  0  0  0
    5.2424    1.4526   -0.5609 H   0  0  0  0  0  0  0  0  0  0  0  0
    6.9771    1.3012   -0.5069 H   0  0  0  0  0  0  0  0  0  0  0  0
    3.7196    1.9876    0.8792 H   0  0  0  0  0  0  0  0  0  0  0  0
    4.7645    5.0283    2.5478 H   0  0  0  0  0  0  0  0  0  0  0  0
   -0.4536   -2.8819    0.0832 H   0  0  0  0  0  0  0  0  0  0  0  0
   -2.8991   -3.0883    0.0096 H   0  0  0  0  0  0  0  0  0  0  0  0
  1  2  1  0
  2  3  1  0
  3  4  1  0
  4  5  1  0
  3  6  1  0
  6  7  2  0
  6  8  2  0
  6  9  1  0
  9 10  2  0
 10 11  1  0
 11 12  2  0
 12 13  1  0
 13 14  2  0
 13 15  1  0
 15 16  1  0
 16 17  1  0
 17 18  2  0
 17 19  1  0
 19 20  1  0
 20 21  1  0
 21 22  1  0
 22 23  1  0
 23 24  1  0
 23 25  2  0
 25 26  1  0
 26 27  1  0
 27 28  2  0
 12 29  1  0
 29 30  2  0
 30  9  1  0
 27 22  1  0
  1 31  1  0
  1 32  1  0
  1 33  1  0
  2 34  1  0
  2 35  1  0
  4 36  1  0
  4 37  1  0
  5 38  1  0
  5 39  1  0
  5 40  1  0
 10 41  1  0
 11 42  1  0
 16 43  1  0
 16 44  1  0
 19 45  1  0
 20 46  1  0
 20 47  1  0
 21 48  1  0
 21 49  1  0
 24 50  1  0
 25 51  1  0
 29 52  1  0
 30 53  1  0
M  END
$$$$
