
     RDKit          3D

 56 58  0  0  0  0  0  0  0  0999 V2000
    9.0236   -0.0287   -0.6527 C   0  0  0  0  0  0  0  0  0  0  0  0
    8.3525    1.3304   -0.7528 C   0  0  0  0  0  0  0  0  0  0  0  0
    7.7216    1.6727    0.4800 O   0  0  0  0  0  0  0  0  0  0  0  0
    6.4025    1.3609    0.6483 C   0  0  0  0  0  0  0  0  0  0  0  0
    5.6419    0.5229   -0.1625 C   0  0  0  0  0  0  0  0  0  0  0  0
    4.2927    0.2912    0.1346 C   0  0  0  0  0  0  0  0  0  0  0  0
    3.6865    0.8896    1.2455 C   0  0  0  0  0  0  0  0  0  0  0  0
    2.3245    0.6063    1.4612 N   0  0  0  0  0  0  0  0  0  0  0  0
    1.4956    1.1204    2.4374 C   0  0  0  0  0  0  0  0  0  0  0  0
    1.7934    1.9298    3.3109 O   0  0  0  0  0  0  0  0  0  0  0  0
    0.0762    0.6012    2.3392 C   0  0  0  0  0  0  0  0  0  0  0  0
   -0.7855    1.4956    1.4651 C   0  0  0  0  0  0  0  0  0  0  0  0
   -0.4378    1.5082    0.0376 N   0  0  0  0  0  0  0  0  0  0  0  0
   -0.3840    0.1483   -0.9284 S   0  0  0  0  0  6  0  0  0  0  0  0
    0.6095   -0.7408   -0.3628 O   0  0  0  0  0  0  0  0  0  0  0  0
   -0.2905    0.6088   -2.2930 O   0  0  0  0  0  0  0  0  0  0  0  0
   -1.9850   -0.5760   -0.7115 C   0  0  0  0  0  0  0  0  0  0  0  0
   -2.1233   -1.8018   -0.0623 C   0  0  0  0  0  0  0  0  0  0  0  0
   -3.3962   -2.3654    0.0871 C   0  0  0  0  0  0  0  0  0  0  0  0
   -4.5400   -1.7166   -0.4102 C   0  0  0  0  0  0  0  0  0  0  0  0
   -4.3740   -0.4928   -1.0585 C   0  0  0  0  0  0  0  0  0  0  0  0
   -3.1037    0.0820   -1.2196 C   0  0  0  0  0  0  0  0  0  0  0  0
   -5.5536    0.2121   -1.5793 C   0  0  0  0  0  0  0  0  0  0  0  0
   -5.4055    1.3265   -2.0757 O   0  0  0  0  0  0  0  0  0  0  0  0
   -6.7716   -0.4350   -1.4573 N   0  0  0  0  0  0  0  0  0  0  0  0
   -7.9502    0.2331   -1.9793 C   0  0  0  0  0  0  0  0  0  0  0  0
   -6.9756   -1.6287   -0.7751 C   0  0  0  0  0  0  0  0  0  0  0  0
   -8.1069   -2.0950   -0.6230 O   0  0  0  0  0  0  0  0  0  0  0  0
   -5.8433   -2.2625   -0.2690 N   0  0  0  0  0  0  0  0  0  0  0  0
   -6.0238   -3.5290    0.4303 C   0  0  0  0  0  0  0  0  0  0  0  0
    4.4535    1.7169    2.0628 C   0  0  0  0  0  0  0  0  0  0  0  0
    5.8022    1.9460    1.7650 C   0  0  0  0  0  0  0  0  0  0  0  0
    8.2981   -0.8197   -0.4439 H   0  0  0  0  0  0  0  0  0  0  0  0
    9.7477   -0.0381    0.1686 H   0  0  0  0  0  0  0  0  0  0  0  0
    9.5451   -0.2707   -1.5832 H   0  0  0  0  0  0  0  0  0  0  0  0
    7.6721    1.3970   -1.6083 H   0  0  0  0  0  0  0  0  0  0  0  0
    9.1265    2.0873   -0.9259 H   0  0  0  0  0  0  0  0  0  0  0  0
    6.0623    0.0239   -1.0281 H   0  0  0  0  0  0  0  0  0  0  0  0
    3.7221   -0.3651   -0.5183 H   0  0  0  0  0  0  0  0  0  0  0  0
    1.8914   -0.0202    0.7813 H   0  0  0  0  0  0  0  0  0  0  0  0
   -0.3315    0.5942    3.3581 H   0  0  0  0  0  0  0  0  0  0  0  0
    0.0686   -0.4433    2.0167 H   0  0  0  0  0  0  0  0  0  0  0  0
   -0.7070    2.5302    1.8209 H   0  0  0  0  0  0  0  0  0  0  0  0
   -1.8405    1.2195    1.5681 H   0  0  0  0  0  0  0  0  0  0  0  0
   -0.5967    2.3747   -0.4808 H   0  0  0  0  0  0  0  0  0  0  0  0
   -1.2542   -2.3311    0.3240 H   0  0  0  0  0  0  0  0  0  0  0  0
   -3.4611   -3.3231    0.5963 H   0  0  0  0  0  0  0  0  0  0  0  0
   -2.9941    1.0318   -1.7410 H   0  0  0  0  0  0  0  0  0  0  0  0
   -8.4871    0.6908   -1.1420 H   0  0  0  0  0  0  0  0  0  0  0  0
   -7.6930    1.0089   -2.7057 H   0  0  0  0  0  0  0  0  0  0  0  0
   -8.6110   -0.4938   -2.4629 H   0  0  0  0  0  0  0  0  0  0  0  0
   -7.0732   -3.8350    0.4736 H   0  0  0  0  0  0  0  0  0  0  0  0
   -5.6626   -3.4299    1.4593 H   0  0  0  0  0  0  0  0  0  0  0  0
   -5.4717   -4.3145   -0.0949 H   0  0  0  0  0  0  0  0  0  0  0  0
    4.0375    2.1997    2.9409 H   0  0  0  0  0  0  0  0  0  0  0  0
    6.3868    2.5960    2.4116 H   0  0  0  0  0  0  0  0  0  0  0  0
  1  2  1  0
  2  3  1  0
  3  4  1  0
  4  5  2  0
  5  6  1  0
  6  7  2  0
  7  8  1  0
  8  9  1  0
  9 10  2  0
  9 11  1  0
 11 12  1  0
 12 13  1  0
 13 14  1  0
 14 15  2  0
 14 16  2  0
 14 17  1  0
 17 18  2  0
 18 19  1  0
 19 20  2  0
 20 21  1  0
 21 22  2  0
 21 23  1  0
 23 24  2  0
 23 25  1  0
 25 26  1  0
 25 27  1  0
 27 28  2  0
 27 29  1  0
 29 30  1  0
  7 31  1  0
 31 32  2  0
 32  4  1  0
 22 17  1  0
 29 20  1  0
  1 33  1  0
  1 34  1  0
  1 35  1  0
  2 36  1  0
  2 37  1  0
  5 38  1  0
  6 39  1  0
  8 40  1  0
 11 41  1  0
 11 42  1  0
 12 43  1  0
 12 44  1  0
 13 45  1  0
 18 46  1  0
 19 47  1  0
 22 48  1  0
 26 49  1  0
 26 50  1  0
 26 51  1  0
 30 52  1  0
 30 53  1  0
 30 54  1  0
 31 55  1  0
 32 56  1  0
M  END
$$$$
