
     RDKit          3D

 34 36  0  0  0  0  0  0  0  0999 V2000
    0.7551    1.6012   -2.1988 O   0  0  0  0  0  0  0  0  0  0  0  0
    0.5884    0.8446   -1.2464 C   0  0  0  0  0  0  0  0  0  0  0  0
    1.5978   -0.1997   -1.0485 C   0  0  0  0  0  0  0  0  0  0  0  0
    2.7642    0.0930   -0.3375 C   0  0  0  0  0  0  0  0  0  0  0  0
    3.7534   -0.8845   -0.2117 C   0  0  0  0  0  0  0  0  0  0  0  0
    3.5799   -2.1301   -0.8183 C   0  0  0  0  0  0  0  0  0  0  0  0
    4.8019   -3.3313   -0.6622 Cl  0  0  0  0  0  0  0  0  0  0  0  0
    2.4305   -2.4058   -1.5612 C   0  0  0  0  0  0  0  0  0  0  0  0
    1.4375   -1.4325   -1.6888 C   0  0  0  0  0  0  0  0  0  0  0  0
   -0.4899    0.9336   -0.3971 N   0  0  0  0  0  0  0  0  0  0  0  0
   -1.5457    1.9120   -0.6861 C   0  0  0  0  0  0  0  0  0  0  0  0
   -2.7382    1.0951   -1.1241 C   0  0  0  0  0  0  0  0  0  0  0  0
   -3.2334    0.4756   -0.0394 C   0  0  0  0  0  0  0  0  0  0  0  0
   -2.3039    0.8247    1.1113 C   0  0  0  0  0  0  0  0  0  0  0  0
   -2.0432    2.2873    0.7072 C   0  0  0  0  0  0  0  0  0  0  0  0
   -0.8906    0.1592    0.8700 C   0  0  0  0  0  0  0  0  0  0  0  0
   -0.0063    0.3774    2.0958 C   0  0  0  0  0  0  0  0  0  0  0  0
    1.1915   -0.2337    2.0083 F   0  0  0  0  0  0  0  0  0  0  0  0
   -0.6032   -0.0776    3.2220 F   0  0  0  0  0  0  0  0  0  0  0  0
    0.2595    1.6876    2.3088 F   0  0  0  0  0  0  0  0  0  0  0  0
   -1.0298   -1.3573    0.7585 C   0  0  0  0  0  0  0  0  0  0  0  0
   -1.7885   -1.8524    1.7666 F   0  0  0  0  0  0  0  0  0  0  0  0
   -1.6224   -1.7429   -0.3964 F   0  0  0  0  0  0  0  0  0  0  0  0
    0.1506   -2.0074    0.8103 F   0  0  0  0  0  0  0  0  0  0  0  0
    2.9066    1.0719    0.1133 H   0  0  0  0  0  0  0  0  0  0  0  0
    4.6575   -0.6682    0.3516 H   0  0  0  0  0  0  0  0  0  0  0  0
    2.3066   -3.3707   -2.0460 H   0  0  0  0  0  0  0  0  0  0  0  0
    0.5506   -1.6348   -2.2847 H   0  0  0  0  0  0  0  0  0  0  0  0
   -1.2731    2.7412   -1.3400 H   0  0  0  0  0  0  0  0  0  0  0  0
   -3.1067    1.0283   -2.1369 H   0  0  0  0  0  0  0  0  0  0  0  0
   -4.0709   -0.2065   -0.0087 H   0  0  0  0  0  0  0  0  0  0  0  0
   -2.7451    0.6953    2.1012 H   0  0  0  0  0  0  0  0  0  0  0  0
   -2.9494    2.9082    0.6978 H   0  0  0  0  0  0  0  0  0  0  0  0
   -1.2910    2.7992    1.3101 H   0  0  0  0  0  0  0  0  0  0  0  0
  1  2  2  0
  2  3  1  0
  3  4  2  0
  4  5  1  0
  5  6  2  0
  6  7  1  0
  6  8  1  0
  8  9  2  0
  2 10  1  0
 10 11  1  0
 11 12  1  0
 12 13  2  0
 13 14  1  0
 14 15  1  0
 14 16  1  0
 16 17  1  0
 17 18  1  0
 17 19  1  0
 17 20  1  0
 16 21  1  0
 21 22  1  0
 21 23  1  0
 21 24  1  0
  9  3  1  0
 16 10  1  0
 15 11  1  0
  4 25  1  0
  5 26  1  0
  8 27  1  0
  9 28  1  0
 11 29  1  0
 12 30  1  0
 13 31  1  0
 14 32  1  0
 15 33  1  0
 15 34  1  0
M  END
$$$$
