
     RDKit          3D

 41 42  0  0  0  0  0  0  0  0999 V2000
    1.0900    4.6816    0.1055 C   0  0  0  0  0  0  0  0  0  0  0  0
    1.8874    4.0090    1.2071 C   0  0  0  0  0  0  0  0  0  0  0  0
    1.8035    2.5813    1.0789 O   0  0  0  0  0  0  0  0  0  0  0  0
    0.6985    1.9973    1.6511 C   0  0  0  0  0  0  0  0  0  0  0  0
   -0.1379    2.6084    2.3076 O   0  0  0  0  0  0  0  0  0  0  0  0
    0.6912    0.4666    1.3850 C   0  0  0  0  0  0  0  0  0  0  0  0
   -0.6514   -0.0199    1.0416 N   0  0  0  0  0  0  0  0  0  0  0  0
   -1.3375    0.5377   -0.0159 C   0  0  0  0  0  0  0  0  0  0  0  0
   -1.0004    1.5812   -0.5627 O   0  0  0  0  0  0  0  0  0  0  0  0
   -2.5201   -0.2193   -0.5109 C   0  0  0  0  0  0  0  0  0  0  0  0
   -3.2367   -1.0995    0.3125 C   0  0  0  0  0  0  0  0  0  0  0  0
   -4.3407   -1.7891   -0.1944 C   0  0  0  0  0  0  0  0  0  0  0  0
   -4.7350   -1.5973   -1.5189 C   0  0  0  0  0  0  0  0  0  0  0  0
   -4.0291   -0.7112   -2.3318 C   0  0  0  0  0  0  0  0  0  0  0  0
   -4.5241   -0.4740   -3.9628 Cl  0  0  0  0  0  0  0  0  0  0  0  0
   -2.9277   -0.0182   -1.8353 C   0  0  0  0  0  0  0  0  0  0  0  0
    1.5803    0.1136    0.2524 N   0  0  0  0  0  0  0  0  0  0  0  0
    1.7811   -1.1674   -0.1160 C   0  0  0  0  0  0  0  0  0  0  0  0
    1.0236   -2.1908    0.2179 N   0  0  0  0  0  0  0  0  0  0  0  0
    1.4609   -3.3807   -0.3214 N   0  0  0  0  0  0  0  0  0  0  0  0
    2.5400   -3.2199   -1.0560 C   0  0  0  0  0  0  0  0  0  0  0  0
    3.2508   -4.3064   -1.7743 C   0  0  0  0  0  0  0  0  0  0  0  0
    3.0989   -1.5989   -1.1347 S   0  0  0  0  0  0  0  0  0  0  0  0
    1.2093   -0.0563    2.7656 C   0  0  0  0  0  0  0  0  0  0  0  0
    1.2253   -1.4120    2.8218 F   0  0  0  0  0  0  0  0  0  0  0  0
    2.4788    0.3566    3.0138 F   0  0  0  0  0  0  0  0  0  0  0  0
    0.4446    0.3476    3.8075 F   0  0  0  0  0  0  0  0  0  0  0  0
    1.2025    5.7684    0.1536 H   0  0  0  0  0  0  0  0  0  0  0  0
    1.4241    4.3344   -0.8777 H   0  0  0  0  0  0  0  0  0  0  0  0
    0.0260    4.4374    0.1845 H   0  0  0  0  0  0  0  0  0  0  0  0
    1.5632    4.3399    2.2003 H   0  0  0  0  0  0  0  0  0  0  0  0
    2.9449    4.2754    1.1099 H   0  0  0  0  0  0  0  0  0  0  0  0
   -0.7394   -1.0266    1.1297 H   0  0  0  0  0  0  0  0  0  0  0  0
   -2.9648   -1.2437    1.3548 H   0  0  0  0  0  0  0  0  0  0  0  0
   -4.8974   -2.4710    0.4444 H   0  0  0  0  0  0  0  0  0  0  0  0
   -5.5951   -2.1356   -1.9092 H   0  0  0  0  0  0  0  0  0  0  0  0
   -2.3835    0.6735   -2.4744 H   0  0  0  0  0  0  0  0  0  0  0  0
    2.2974    0.8092    0.0619 H   0  0  0  0  0  0  0  0  0  0  0  0
    4.2825   -4.3979   -1.4202 H   0  0  0  0  0  0  0  0  0  0  0  0
    2.7516   -5.2663   -1.6079 H   0  0  0  0  0  0  0  0  0  0  0  0
    3.2648   -4.1169   -2.8523 H   0  0  0  0  0  0  0  0  0  0  0  0
  1  2  1  0
  2  3  1  0
  3  4  1  0
  4  5  2  0
  4  6  1  0
  6  7  1  0
  7  8  1  0
  8  9  2  0
  8 10  1  0
 10 11  2  0
 11 12  1  0
 12 13  2  0
 13 14  1  0
 14 15  1  0
 14 16  2  0
  6 17  1  0
 17 18  1  0
 18 19  2  0
 19 20  1  0
 20 21  2  0
 21 22  1  0
 21 23  1  0
  6 24  1  0
 24 25  1  0
 24 26  1  0
 24 27  1  0
 16 10  1  0
 23 18  1  0
  1 28  1  0
  1 29  1  0
  1 30  1  0
  2 31  1  0
  2 32  1  0
  7 33  1  0
 11 34  1  0
 12 35  1  0
 13 36  1  0
 16 37  1  0
 17 38  1  0
 22 39  1  0
 22 40  1  0
 22 41  1  0
M  END
$$$$
