
     RDKit          3D

 71 77  0  0  0  0  0  0  0  0999 V2000
    3.0964    0.1306    3.7860 C   0  0  0  0  0  0  0  0  0  0  0  0
    3.1358    0.8724    2.5740 O   0  0  0  0  0  0  0  0  0  0  0  0
    4.2309    0.4793    1.7364 C   0  0  0  0  0  0  0  0  0  0  0  0
    3.9932   -0.9009    1.0563 C   0  0  0  0  0  0  0  0  0  0  0  0
    4.8774   -1.7654    1.1113 O   0  0  0  0  0  0  0  0  0  0  0  0
    2.7864   -1.1537    0.4181 N   0  0  0  0  0  0  0  0  0  0  0  0
    2.5442   -2.4954   -0.1261 C   0  0  0  0  0  0  0  0  0  0  0  0
    1.0426   -2.8376   -0.1718 C   0  0  0  0  0  0  0  0  0  0  0  0
    0.2963   -1.8987   -1.0000 N   0  0  0  0  0  0  0  0  0  0  0  0
    0.8362   -0.4986   -1.0146 C   0  0  2  0  0  0  0  0  0  0  0  0
    1.7182   -0.1591    0.2035 C   0  0  0  0  0  0  0  0  0  0  0  0
   -0.3965    0.3059   -1.1275 C   0  0  0  0  0  0  0  0  0  0  0  0
   -1.5453   -0.4859   -1.1221 C   0  0  0  0  0  0  0  0  0  0  0  0
   -2.6367    0.3282   -1.3007 C   0  0  0  0  0  0  0  0  0  0  0  0
   -3.9337    0.0295   -1.3290 O   0  0  0  0  0  0  0  0  0  0  0  0
   -2.1600    1.6528   -1.3775 N   0  0  0  0  0  0  0  0  0  0  0  0
   -2.9582    2.8369   -1.4632 C   0  0  0  0  0  0  0  0  0  0  0  0
   -4.1841    2.8235   -2.1405 C   0  0  0  0  0  0  0  0  0  0  0  0
   -4.9521    3.9871   -2.2297 C   0  0  0  0  0  0  0  0  0  0  0  0
   -4.5096    5.1665   -1.6340 C   0  0  0  0  0  0  0  0  0  0  0  0
   -3.2991    5.1848   -0.9442 C   0  0  0  0  0  0  0  0  0  0  0  0
   -2.5242    4.0257   -0.8563 C   0  0  0  0  0  0  0  0  0  0  0  0
   -0.7520    1.6088   -1.3314 C   0  0  0  0  0  0  0  0  0  0  0  0
    0.0523    2.6517   -1.5291 O   0  0  0  0  0  0  0  0  0  0  0  0
   -1.1908   -1.9099   -0.9290 C   0  0  1  0  0  0  0  0  0  0  0  0
   -1.7991   -2.8696   -1.9842 C   0  0  0  0  0  0  0  0  0  0  0  0
   -1.6132   -2.9131   -3.1908 O   0  0  0  0  0  0  0  0  0  0  0  0
   -2.6607   -3.7274   -1.2968 N   0  0  0  0  0  0  0  0  0  0  0  0
   -2.7110   -3.4405    0.0646 C   0  0  0  0  0  0  0  0  0  0  0  0
   -1.8654   -2.3562    0.3475 C   0  0  0  0  0  0  0  0  0  0  0  0
   -1.7679   -1.8605    1.6391 C   0  0  0  0  0  0  0  0  0  0  0  0
   -2.5138   -2.4815    2.6405 C   0  0  0  0  0  0  0  0  0  0  0  0
   -3.3475   -3.5776    2.3458 C   0  0  0  0  0  0  0  0  0  0  0  0
   -4.2162   -4.2839    3.6645 Cl  0  0  0  0  0  0  0  0  0  0  0  0
   -3.4726   -4.0789    1.0365 C   0  0  0  0  0  0  0  0  0  0  0  0
   -4.3569   -5.2492    0.7250 C   0  0  0  0  0  0  0  0  0  0  0  0
    4.5938    1.5817    0.7419 C   0  0  0  0  0  0  0  0  0  0  0  0
    5.4924    1.3301   -0.3091 C   0  0  0  0  0  0  0  0  0  0  0  0
    5.8366    2.3368   -1.2140 C   0  0  0  0  0  0  0  0  0  0  0  0
    5.3048    3.6160   -1.0725 C   0  0  0  0  0  0  0  0  0  0  0  0
    4.4327    3.8913   -0.0235 C   0  0  0  0  0  0  0  0  0  0  0  0
    4.0886    2.8864    0.8818 C   0  0  0  0  0  0  0  0  0  0  0  0
    2.2511    0.4908    4.3788 H   0  0  0  0  0  0  0  0  0  0  0  0
    2.9482   -0.9351    3.5871 H   0  0  0  0  0  0  0  0  0  0  0  0
    4.0136    0.2836    4.3618 H   0  0  0  0  0  0  0  0  0  0  0  0
    5.1183    0.3692    2.3763 H   0  0  0  0  0  0  0  0  0  0  0  0
    3.0708   -3.2426    0.4776 H   0  0  0  0  0  0  0  0  0  0  0  0
    2.9778   -2.5219   -1.1334 H   0  0  0  0  0  0  0  0  0  0  0  0
    0.9132   -3.8526   -0.5630 H   0  0  0  0  0  0  0  0  0  0  0  0
    0.6850   -2.8331    0.8629 H   0  0  0  0  0  0  0  0  0  0  0  0
    1.4336   -0.3898   -1.9289 H   0  0  0  0  0  0  0  0  0  0  0  0
    1.1179   -0.1421    1.1216 H   0  0  0  0  0  0  0  0  0  0  0  0
    2.1430    0.8377    0.0757 H   0  0  0  0  0  0  0  0  0  0  0  0
   -4.0295   -0.9319   -1.2213 H   0  0  0  0  0  0  0  0  0  0  0  0
   -4.5479    1.9280   -2.6377 H   0  0  0  0  0  0  0  0  0  0  0  0
   -5.8971    3.9707   -2.7679 H   0  0  0  0  0  0  0  0  0  0  0  0
   -5.1127    6.0683   -1.7012 H   0  0  0  0  0  0  0  0  0  0  0  0
   -2.9636    6.0997   -0.4614 H   0  0  0  0  0  0  0  0  0  0  0  0
   -1.6120    4.0619   -0.2640 H   0  0  0  0  0  0  0  0  0  0  0  0
   -0.4338    3.3228   -2.0425 H   0  0  0  0  0  0  0  0  0  0  0  0
   -3.1651   -4.4577   -1.7771 H   0  0  0  0  0  0  0  0  0  0  0  0
   -1.1325   -1.0109    1.8711 H   0  0  0  0  0  0  0  0  0  0  0  0
   -2.4477   -2.1077    3.6606 H   0  0  0  0  0  0  0  0  0  0  0  0
   -3.9523   -6.1580    1.1826 H   0  0  0  0  0  0  0  0  0  0  0  0
   -5.3722   -5.0752    1.0971 H   0  0  0  0  0  0  0  0  0  0  0  0
   -4.4464   -5.4317   -0.3496 H   0  0  0  0  0  0  0  0  0  0  0  0
    5.9328    0.3421   -0.4398 H   0  0  0  0  0  0  0  0  0  0  0  0
    6.5220    2.1211   -2.0293 H   0  0  0  0  0  0  0  0  0  0  0  0
    5.5686    4.3963   -1.7797 H   0  0  0  0  0  0  0  0  0  0  0  0
    4.0180    4.8894    0.0933 H   0  0  0  0  0  0  0  0  0  0  0  0
    3.4066    3.1262    1.6953 H   0  0  0  0  0  0  0  0  0  0  0  0
  1  2  1  0
  2  3  1  0
  3  4  1  0
  4  5  2  0
  4  6  1  0
  6  7  1  0
  7  8  1  0
  8  9  1  0
  9 10  1  0
 10 11  1  0
 10 12  1  0
 12 13  1  0
 13 14  2  0
 14 15  1  0
 14 16  1  0
 16 17  1  0
 17 18  2  0
 18 19  1  0
 19 20  2  0
 20 21  1  0
 21 22  2  0
 16 23  1  0
 23 24  1  0
 13 25  1  0
 25 26  1  0
 26 27  2  0
 26 28  1  0
 28 29  1  0
 29 30  2  0
 30 31  1  0
 31 32  2  0
 32 33  1  0
 33 34  1  0
 33 35  2  0
 35 36  1  0
  3 37  1  0
 37 38  2  0
 38 39  1  0
 39 40  2  0
 40 41  1  0
 41 42  2  0
 11  6  1  0
 23 12  2  0
 30 25  1  0
 42 37  1  0
 25  9  1  1
 35 29  1  0
 22 17  1  0
  1 43  1  0
  1 44  1  0
  1 45  1  0
  3 46  1  0
  7 47  1  0
  7 48  1  0
  8 49  1  0
  8 50  1  0
 10 51  1  6
 11 52  1  0
 11 53  1  0
 15 54  1  0
 18 55  1  0
 19 56  1  0
 20 57  1  0
 21 58  1  0
 22 59  1  0
 24 60  1  0
 28 61  1  0
 31 62  1  0
 32 63  1  0
 36 64  1  0
 36 65  1  0
 36 66  1  0
 38 67  1  0
 39 68  1  0
 40 69  1  0
 41 70  1  0
 42 71  1  0
M  END
$$$$
