
     RDKit          3D

 56 59  0  0  0  0  0  0  0  0999 V2000
    4.7426    5.3494    1.0979 C   0  0  0  0  0  0  0  0  0  0  0  0
    4.1917    3.9687    1.4070 C   0  0  0  0  0  0  0  0  0  0  0  0
    3.9504    3.3043    0.1684 O   0  0  0  0  0  0  0  0  0  0  0  0
    3.4378    2.0379    0.2322 C   0  0  0  0  0  0  0  0  0  0  0  0
    3.1473    1.3262    1.3962 C   0  0  0  0  0  0  0  0  0  0  0  0
    2.6239    0.0300    1.3173 C   0  0  0  0  0  0  0  0  0  0  0  0
    2.3924   -0.5669    0.0733 C   0  0  0  0  0  0  0  0  0  0  0  0
    1.8425   -1.9132   -0.0080 C   0  0  0  0  0  0  0  0  0  0  0  0
    0.5247   -2.3311   -0.1384 C   0  0  0  0  0  0  0  0  0  0  0  0
   -0.6883   -1.5194   -0.2145 C   0  0  0  0  0  0  0  0  0  0  0  0
   -0.6783   -0.2991   -0.0889 O   0  0  0  0  0  0  0  0  0  0  0  0
   -1.8309   -2.2951   -0.4296 N   0  0  0  0  0  0  0  0  0  0  0  0
   -3.0822   -1.7958   -0.1762 N   0  0  0  0  0  0  0  0  0  0  0  0
   -3.5594   -0.8828   -0.9792 C   0  0  0  0  0  0  0  0  0  0  0  0
   -2.8942   -0.4450   -2.2698 C   0  0  0  0  0  0  0  0  0  0  0  0
   -4.8891   -0.2838   -0.6477 C   0  0  0  0  0  0  0  0  0  0  0  0
   -5.8750   -1.1469   -0.1423 C   0  0  0  0  0  0  0  0  0  0  0  0
   -7.1392   -0.6599    0.1832 C   0  0  0  0  0  0  0  0  0  0  0  0
   -7.4230    0.6909    0.0097 C   0  0  0  0  0  0  0  0  0  0  0  0
   -6.4421    1.5599   -0.4793 C   0  0  0  0  0  0  0  0  0  0  0  0
   -5.1630    1.0872   -0.8011 C   0  0  0  0  0  0  0  0  0  0  0  0
   -4.1494    1.8864   -1.2571 O   0  0  0  0  0  0  0  0  0  0  0  0
   -4.3049    3.2931   -1.1178 C   0  0  0  0  0  0  0  0  0  0  0  0
    0.4854   -3.7008   -0.1836 N   0  0  0  0  0  0  0  0  0  0  0  0
    1.7203   -4.1558   -0.0803 N   0  0  0  0  0  0  0  0  0  0  0  0
    2.5811   -3.0990    0.0287 N   0  0  0  0  0  0  0  0  0  0  0  0
    3.9813   -3.2979    0.1383 C   0  0  0  0  0  0  0  0  0  0  0  0
    4.8273   -2.2689    0.1899 N   0  0  0  0  0  0  0  0  0  0  0  0
    6.0841   -2.8635    0.2753 O   0  0  0  0  0  0  0  0  0  0  0  0
    5.9869   -4.2511    0.2725 N   0  0  0  0  0  0  0  0  0  0  0  0
    4.6837   -4.5168    0.1953 C   0  0  0  0  0  0  0  0  0  0  0  0
    4.1634   -5.7588    0.1794 N   0  0  0  0  0  0  0  0  0  0  0  0
    2.6753    0.1503   -1.0925 C   0  0  0  0  0  0  0  0  0  0  0  0
    3.1977    1.4434   -1.0089 C   0  0  0  0  0  0  0  0  0  0  0  0
    4.0356    5.9188    0.4853 H   0  0  0  0  0  0  0  0  0  0  0  0
    4.9403    5.9053    2.0185 H   0  0  0  0  0  0  0  0  0  0  0  0
    5.6722    5.2738    0.5235 H   0  0  0  0  0  0  0  0  0  0  0  0
    3.2575    4.0748    1.9708 H   0  0  0  0  0  0  0  0  0  0  0  0
    4.9290    3.4141    1.9990 H   0  0  0  0  0  0  0  0  0  0  0  0
    3.3122    1.7484    2.3816 H   0  0  0  0  0  0  0  0  0  0  0  0
    2.3986   -0.5043    2.2376 H   0  0  0  0  0  0  0  0  0  0  0  0
   -1.7197   -3.2707   -0.1605 H   0  0  0  0  0  0  0  0  0  0  0  0
   -2.4124   -1.2977   -2.7569 H   0  0  0  0  0  0  0  0  0  0  0  0
   -2.1469    0.3258   -2.0706 H   0  0  0  0  0  0  0  0  0  0  0  0
   -3.6325   -0.0511   -2.9745 H   0  0  0  0  0  0  0  0  0  0  0  0
   -5.6586   -2.2040   -0.0046 H   0  0  0  0  0  0  0  0  0  0  0  0
   -7.8987   -1.3335    0.5728 H   0  0  0  0  0  0  0  0  0  0  0  0
   -8.4097    1.0737    0.2599 H   0  0  0  0  0  0  0  0  0  0  0  0
   -6.7099    2.6049   -0.5978 H   0  0  0  0  0  0  0  0  0  0  0  0
   -3.3548    3.7630   -1.3902 H   0  0  0  0  0  0  0  0  0  0  0  0
   -4.5286    3.5699   -0.0819 H   0  0  0  0  0  0  0  0  0  0  0  0
   -5.0709    3.6697   -1.8033 H   0  0  0  0  0  0  0  0  0  0  0  0
    4.7802   -6.5484    0.0178 H   0  0  0  0  0  0  0  0  0  0  0  0
    3.1905   -5.9218   -0.0753 H   0  0  0  0  0  0  0  0  0  0  0  0
    2.4915   -0.2822   -2.0725 H   0  0  0  0  0  0  0  0  0  0  0  0
    3.4146    1.9960   -1.9201 H   0  0  0  0  0  0  0  0  0  0  0  0
  1  2  1  0
  2  3  1  0
  3  4  1  0
  4  5  2  0
  5  6  1  0
  6  7  2  0
  7  8  1  0
  8  9  2  0
  9 10  1  0
 10 11  2  0
 10 12  1  0
 12 13  1  0
 13 14  2  3
 14 15  1  0
 14 16  1  0
 16 17  2  0
 17 18  1  0
 18 19  2  0
 19 20  1  0
 20 21  2  0
 21 22  1  0
 22 23  1  0
  9 24  1  0
 24 25  2  0
 25 26  1  0
 26 27  1  0
 27 28  2  0
 28 29  1  0
 29 30  1  0
 30 31  2  0
 31 32  1  0
  7 33  1  0
 33 34  2  0
 34  4  1  0
 26  8  1  0
 31 27  1  0
 21 16  1  0
  1 35  1  0
  1 36  1  0
  1 37  1  0
  2 38  1  0
  2 39  1  0
  5 40  1  0
  6 41  1  0
 12 42  1  0
 15 43  1  0
 15 44  1  0
 15 45  1  0
 17 46  1  0
 18 47  1  0
 19 48  1  0
 20 49  1  0
 23 50  1  0
 23 51  1  0
 23 52  1  0
 32 53  1  0
 32 54  1  0
 33 55  1  0
 34 56  1  0
M  END
$$$$
