
     RDKit          3D

 50 53  0  0  0  0  0  0  0  0999 V2000
    6.9164    1.2678   -0.0171 C   0  0  0  0  0  0  0  0  0  0  0  0
    5.6032    0.5497    0.0884 C   0  0  0  0  0  0  0  0  0  0  0  0
    5.1877   -0.3197   -0.9185 C   0  0  0  0  0  0  0  0  0  0  0  0
    3.9516   -0.9685   -0.8340 C   0  0  0  0  0  0  0  0  0  0  0  0
    3.0970   -0.7544    0.2528 C   0  0  0  0  0  0  0  0  0  0  0  0
    1.8383   -1.3945    0.3688 N   0  0  0  0  0  0  0  0  0  0  0  0
    1.2373   -2.2526   -0.5382 C   0  0  0  0  0  0  0  0  0  0  0  0
    1.6709   -2.5960   -1.6336 O   0  0  0  0  0  0  0  0  0  0  0  0
   -0.1517   -2.7130   -0.0963 C   0  0  0  0  0  0  0  0  0  0  0  0
   -1.1348   -1.6239   -0.2097 N   0  0  0  0  0  4  0  0  0  0  0  0
   -2.0642   -1.2349    0.7545 C   0  0  0  0  0  0  0  0  0  0  0  0
   -2.8567   -0.2177    0.2364 C   0  0  0  0  0  0  0  0  0  0  0  0
   -4.0467    0.5004    0.9707 C   0  0  0  0  0  0  0  0  0  0  0  0
   -4.8046    1.4756    0.3197 C   0  0  0  0  0  0  0  0  0  0  0  0
   -5.8597    2.1060    0.9855 C   0  0  0  0  0  0  0  0  0  0  0  0
   -6.1622    1.7653    2.3011 C   0  0  0  0  0  0  0  0  0  0  0  0
   -5.4125    0.7915    2.9547 C   0  0  0  0  0  0  0  0  0  0  0  0
   -4.3575    0.1576    2.2932 C   0  0  0  0  0  0  0  0  0  0  0  0
   -2.3439   -0.0347   -1.0354 N   0  0  0  0  0  0  0  0  0  0  0  0
   -1.3471   -0.8776   -1.2937 C   0  0  0  0  0  0  0  0  0  0  0  0
   -0.8131   -0.7453   -2.6705 C   0  0  0  0  0  0  0  0  0  0  0  0
   -1.4837    0.5519   -3.1637 C   0  0  0  0  0  0  0  0  0  0  0  0
   -2.6561    0.8093   -2.1813 C   0  0  0  0  0  0  0  0  0  0  0  0
    3.5031    0.1346    1.2724 C   0  0  0  0  0  0  0  0  0  0  0  0
    2.6540    0.4321    2.4799 C   0  0  0  0  0  0  0  0  0  0  0  0
    4.7510    0.7796    1.1721 C   0  0  0  0  0  0  0  0  0  0  0  0
    6.7797    2.2226   -0.5339 H   0  0  0  0  0  0  0  0  0  0  0  0
    7.6471    0.6676   -0.5695 H   0  0  0  0  0  0  0  0  0  0  0  0
    7.3376    1.4588    0.9756 H   0  0  0  0  0  0  0  0  0  0  0  0
    5.8267   -0.5073   -1.7798 H   0  0  0  0  0  0  0  0  0  0  0  0
    3.7000   -1.6442   -1.6449 H   0  0  0  0  0  0  0  0  0  0  0  0
    1.3193   -1.1769    1.2089 H   0  0  0  0  0  0  0  0  0  0  0  0
   -0.1079   -3.0664    0.9392 H   0  0  0  0  0  0  0  0  0  0  0  0
   -0.4825   -3.5422   -0.7302 H   0  0  0  0  0  0  0  0  0  0  0  0
   -2.0578   -1.7522    1.6991 H   0  0  0  0  0  0  0  0  0  0  0  0
   -4.6153    1.7672   -0.7047 H   0  0  0  0  0  0  0  0  0  0  0  0
   -6.4517    2.8648    0.4769 H   0  0  0  0  0  0  0  0  0  0  0  0
   -6.9842    2.2582    2.8166 H   0  0  0  0  0  0  0  0  0  0  0  0
   -5.6518    0.5281    3.9836 H   0  0  0  0  0  0  0  0  0  0  0  0
   -3.8011   -0.5950    2.8430 H   0  0  0  0  0  0  0  0  0  0  0  0
    0.2718   -0.6597   -2.6343 H   0  0  0  0  0  0  0  0  0  0  0  0
   -1.1413   -1.6281   -3.2226 H   0  0  0  0  0  0  0  0  0  0  0  0
   -1.8127    0.4888   -4.2050 H   0  0  0  0  0  0  0  0  0  0  0  0
   -0.7671    1.3788   -3.0904 H   0  0  0  0  0  0  0  0  0  0  0  0
   -3.6086    0.4845   -2.6101 H   0  0  0  0  0  0  0  0  0  0  0  0
   -2.6971    1.8613   -1.8900 H   0  0  0  0  0  0  0  0  0  0  0  0
    3.1373    1.1509    3.1503 H   0  0  0  0  0  0  0  0  0  0  0  0
    1.6964    0.8648    2.1731 H   0  0  0  0  0  0  0  0  0  0  0  0
    2.4780   -0.4827    3.0546 H   0  0  0  0  0  0  0  0  0  0  0  0
    5.0690    1.4700    1.9531 H   0  0  0  0  0  0  0  0  0  0  0  0
  1  2  1  0
  2  3  2  0
  3  4  1  0
  4  5  2  0
  5  6  1  0
  6  7  1  0
  7  8  2  0
  7  9  1  0
  9 10  1  0
 10 11  1  0
 11 12  2  0
 12 13  1  0
 13 14  2  0
 14 15  1  0
 15 16  2  0
 16 17  1  0
 17 18  2  0
 12 19  1  0
 19 20  1  0
 20 21  1  0
 21 22  1  0
 22 23  1  0
  5 24  1  0
 24 25  1  0
 24 26  2  0
 26  2  1  0
 20 10  2  0
 18 13  1  0
 23 19  1  0
  1 27  1  0
  1 28  1  0
  1 29  1  0
  3 30  1  0
  4 31  1  0
  6 32  1  0
  9 33  1  0
  9 34  1  0
 11 35  1  0
 14 36  1  0
 15 37  1  0
 16 38  1  0
 17 39  1  0
 18 40  1  0
 21 41  1  0
 21 42  1  0
 22 43  1  0
 22 44  1  0
 23 45  1  0
 23 46  1  0
 25 47  1  0
 25 48  1  0
 25 49  1  0
 26 50  1  0
M  CHG  1  10   1
M  END
$$$$
