
     RDKit          3D

 48 50  0  0  0  0  0  0  0  0999 V2000
    8.2775   -1.6708    1.1591 C   0  0  0  0  0  0  0  0  0  0  0  0
    7.2466   -0.7903    1.7654 C   0  0  0  0  0  0  0  0  0  0  0  0
    7.2936   -0.1881    3.0100 C   0  0  0  0  0  0  0  0  0  0  0  0
    5.8733    0.7397    3.2636 S   0  0  0  0  0  0  0  0  0  0  0  0
    5.3164    0.2683    1.7202 C   0  0  0  0  0  0  0  0  0  0  0  0
    4.0946    0.7848    1.3908 N   0  0  0  0  0  0  0  0  0  0  0  0
    3.4769    0.5167    0.1877 C   0  0  0  0  0  0  0  0  0  0  0  0
    3.8900   -0.2075   -0.7111 O   0  0  0  0  0  0  0  0  0  0  0  0
    2.1345    1.2197    0.0870 C   0  0  0  0  0  0  0  0  0  0  0  0
    1.5182    1.1102   -1.3029 C   0  0  0  0  0  0  0  0  0  0  0  0
    1.1330   -0.2844   -1.5799 N   0  0  0  0  0  0  0  0  0  0  0  0
    0.0328   -0.5702   -2.8178 S   0  0  0  0  0  6  0  0  0  0  0  0
    0.3070   -1.8985   -3.3178 O   0  0  0  0  0  0  0  0  0  0  0  0
   -0.0176    0.5825   -3.6869 O   0  0  0  0  0  0  0  0  0  0  0  0
   -1.4937   -0.6498   -1.9123 C   0  0  0  0  0  0  0  0  0  0  0  0
   -2.0189   -1.8854   -1.5363 C   0  0  0  0  0  0  0  0  0  0  0  0
   -3.2373   -1.9416   -0.8492 C   0  0  0  0  0  0  0  0  0  0  0  0
   -3.9434   -0.7690   -0.5311 C   0  0  0  0  0  0  0  0  0  0  0  0
   -3.3975    0.4549   -0.9185 C   0  0  0  0  0  0  0  0  0  0  0  0
   -2.1841    0.5244   -1.6192 C   0  0  0  0  0  0  0  0  0  0  0  0
   -4.1038    1.6984   -0.5770 C   0  0  0  0  0  0  0  0  0  0  0  0
   -3.5655    2.7743   -0.8273 O   0  0  0  0  0  0  0  0  0  0  0  0
   -5.3405    1.5656    0.0325 N   0  0  0  0  0  0  0  0  0  0  0  0
   -6.0815    2.7728    0.3505 C   0  0  0  0  0  0  0  0  0  0  0  0
   -5.8959    0.3635    0.4558 C   0  0  0  0  0  0  0  0  0  0  0  0
   -6.9673    0.3340    1.0663 O   0  0  0  0  0  0  0  0  0  0  0  0
   -5.1804   -0.7951    0.1658 N   0  0  0  0  0  0  0  0  0  0  0  0
   -5.7450   -2.0727    0.5842 C   0  0  0  0  0  0  0  0  0  0  0  0
    6.1029   -0.5172    1.0344 N   0  0  0  0  0  0  0  0  0  0  0  0
    8.6681   -1.2213    0.2412 H   0  0  0  0  0  0  0  0  0  0  0  0
    7.8451   -2.6449    0.9111 H   0  0  0  0  0  0  0  0  0  0  0  0
    9.1150   -1.8334    1.8443 H   0  0  0  0  0  0  0  0  0  0  0  0
    8.0709   -0.2460    3.7584 H   0  0  0  0  0  0  0  0  0  0  0  0
    3.6605    1.3802    2.0792 H   0  0  0  0  0  0  0  0  0  0  0  0
    1.4627    0.7867    0.8374 H   0  0  0  0  0  0  0  0  0  0  0  0
    2.2828    2.2798    0.3266 H   0  0  0  0  0  0  0  0  0  0  0  0
    0.6345    1.7556   -1.3341 H   0  0  0  0  0  0  0  0  0  0  0  0
    2.2276    1.4468   -2.0673 H   0  0  0  0  0  0  0  0  0  0  0  0
    1.9260   -0.9384   -1.6297 H   0  0  0  0  0  0  0  0  0  0  0  0
   -1.4924   -2.8083   -1.7750 H   0  0  0  0  0  0  0  0  0  0  0  0
   -3.6104   -2.9254   -0.5779 H   0  0  0  0  0  0  0  0  0  0  0  0
   -1.7879    1.4886   -1.9323 H   0  0  0  0  0  0  0  0  0  0  0  0
   -6.1017    2.8966    1.4387 H   0  0  0  0  0  0  0  0  0  0  0  0
   -7.1115    2.6707   -0.0059 H   0  0  0  0  0  0  0  0  0  0  0  0
   -5.6404    3.6643   -0.1017 H   0  0  0  0  0  0  0  0  0  0  0  0
   -5.9392   -2.6900   -0.2990 H   0  0  0  0  0  0  0  0  0  0  0  0
   -5.0438   -2.5774    1.2571 H   0  0  0  0  0  0  0  0  0  0  0  0
   -6.6906   -1.9534    1.1206 H   0  0  0  0  0  0  0  0  0  0  0  0
  1  2  1  0
  2  3  2  0
  3  4  1  0
  4  5  1  0
  5  6  1  0
  6  7  1  0
  7  8  2  0
  7  9  1  0
  9 10  1  0
 10 11  1  0
 11 12  1  0
 12 13  2  0
 12 14  2  0
 12 15  1  0
 15 16  2  0
 16 17  1  0
 17 18  2  0
 18 19  1  0
 19 20  2  0
 19 21  1  0
 21 22  2  0
 21 23  1  0
 23 24  1  0
 23 25  1  0
 25 26  2  0
 25 27  1  0
 27 28  1  0
  5 29  2  0
 29  2  1  0
 20 15  1  0
 27 18  1  0
  1 30  1  0
  1 31  1  0
  1 32  1  0
  3 33  1  0
  6 34  1  0
  9 35  1  0
  9 36  1  0
 10 37  1  0
 10 38  1  0
 11 39  1  0
 16 40  1  0
 17 41  1  0
 20 42  1  0
 24 43  1  0
 24 44  1  0
 24 45  1  0
 28 46  1  0
 28 47  1  0
 28 48  1  0
M  END
$$$$
