
     RDKit          3D

 61 66  0  0  0  0  0  0  0  0999 V2000
   -5.5148    0.9035   -3.7282 F   0  0  0  0  0  0  0  0  0  0  0  0
   -6.0766    0.4740   -2.5902 C   0  0  0  0  0  0  0  0  0  0  0  0
   -7.3755    0.8596   -2.2819 C   0  0  0  0  0  0  0  0  0  0  0  0
   -7.9584    0.4167   -1.0963 C   0  0  0  0  0  0  0  0  0  0  0  0
   -7.2369   -0.4100   -0.2301 C   0  0  0  0  0  0  0  0  0  0  0  0
   -5.9268   -0.8052   -0.5434 C   0  0  0  0  0  0  0  0  0  0  0  0
   -5.1450   -1.6899    0.3998 C   0  0  0  0  0  0  0  0  0  0  0  0
   -4.2523   -0.9074    1.3824 C   0  0  0  0  0  0  0  0  0  0  0  0
   -3.0975   -0.2325    0.7604 N   0  0  0  0  0  0  0  0  0  0  0  0
   -2.5027    0.7421    1.7065 C   0  0  0  0  0  0  0  0  0  0  0  0
   -1.2656    1.4638    1.1262 C   0  0  0  0  0  0  0  0  0  0  0  0
   -0.2341    0.4772    0.7308 N   0  0  0  0  0  0  0  0  0  0  0  0
    1.0091    0.9619    0.4057 C   0  0  0  0  0  0  0  0  0  0  0  0
    1.3556    2.1753   -0.1606 C   0  0  0  0  0  0  0  0  0  0  0  0
    2.7353    2.1445   -0.4557 C   0  0  0  0  0  0  0  0  0  0  0  0
    3.2190    0.9135   -0.0564 C   0  0  0  0  0  0  0  0  0  0  0  0
    4.5315    0.3103   -0.1469 C   0  0  0  0  0  0  0  0  0  0  0  0
    5.6116    0.9500   -0.9431 C   0  0  0  0  0  0  0  0  0  0  0  0
    6.8943    1.0402   -0.3899 C   0  0  0  0  0  0  0  0  0  0  0  0
    7.9303    1.6217   -1.1222 C   0  0  0  0  0  0  0  0  0  0  0  0
    7.6901    2.1007   -2.4104 C   0  0  0  0  0  0  0  0  0  0  0  0
    6.4175    1.9923   -2.9728 C   0  0  0  0  0  0  0  0  0  0  0  0
    5.3779    1.4117   -2.2437 C   0  0  0  0  0  0  0  0  0  0  0  0
    4.7951   -0.8047    0.4685 N   0  0  0  0  0  0  0  0  0  0  0  0
    3.7831   -1.4319    1.2214 C   0  0  0  0  0  0  0  0  0  0  0  0
    4.1189   -2.6006    1.9114 C   0  0  0  0  0  0  0  0  0  0  0  0
    3.1752   -3.2626    2.6982 C   0  0  0  0  0  0  0  0  0  0  0  0
    1.8843   -2.7513    2.8107 C   0  0  0  0  0  0  0  0  0  0  0  0
    1.5293   -1.5867    2.1269 C   0  0  0  0  0  0  0  0  0  0  0  0
    2.4692   -0.9418    1.3169 C   0  0  0  0  0  0  0  0  0  0  0  0
    2.1937    0.2476    0.5967 N   0  0  0  0  0  0  0  0  0  0  0  0
   -0.7917   -0.5037   -0.2387 C   0  0  0  0  0  0  0  0  0  0  0  0
   -2.0493   -1.1931    0.3419 C   0  0  0  0  0  0  0  0  0  0  0  0
   -5.3503   -0.3496   -1.7360 C   0  0  0  0  0  0  0  0  0  0  0  0
   -7.9213    1.5029   -2.9641 H   0  0  0  0  0  0  0  0  0  0  0  0
   -8.9726    0.7155   -0.8444 H   0  0  0  0  0  0  0  0  0  0  0  0
   -7.7051   -0.7441    0.6936 H   0  0  0  0  0  0  0  0  0  0  0  0
   -5.8555   -2.2897    0.9844 H   0  0  0  0  0  0  0  0  0  0  0  0
   -4.5667   -2.4216   -0.1761 H   0  0  0  0  0  0  0  0  0  0  0  0
   -3.9074   -1.5901    2.1703 H   0  0  0  0  0  0  0  0  0  0  0  0
   -4.8848   -0.1578    1.8772 H   0  0  0  0  0  0  0  0  0  0  0  0
   -2.2161    0.2360    2.6383 H   0  0  0  0  0  0  0  0  0  0  0  0
   -3.2489    1.5044    1.9609 H   0  0  0  0  0  0  0  0  0  0  0  0
   -1.5660    2.0725    0.2632 H   0  0  0  0  0  0  0  0  0  0  0  0
   -0.8642    2.1369    1.8939 H   0  0  0  0  0  0  0  0  0  0  0  0
    0.6716    2.9784   -0.3988 H   0  0  0  0  0  0  0  0  0  0  0  0
    3.3020    2.9334   -0.9329 H   0  0  0  0  0  0  0  0  0  0  0  0
    7.0860    0.6582    0.6103 H   0  0  0  0  0  0  0  0  0  0  0  0
    8.9251    1.6953   -0.6900 H   0  0  0  0  0  0  0  0  0  0  0  0
    8.4994    2.5495   -2.9813 H   0  0  0  0  0  0  0  0  0  0  0  0
    6.2382    2.3513   -3.9832 H   0  0  0  0  0  0  0  0  0  0  0  0
    4.3986    1.3060   -2.7031 H   0  0  0  0  0  0  0  0  0  0  0  0
    5.1307   -2.9904    1.8355 H   0  0  0  0  0  0  0  0  0  0  0  0
    3.4536   -4.1675    3.2317 H   0  0  0  0  0  0  0  0  0  0  0  0
    1.1543   -3.2532    3.4407 H   0  0  0  0  0  0  0  0  0  0  0  0
    0.5291   -1.1932    2.2666 H   0  0  0  0  0  0  0  0  0  0  0  0
   -0.0512   -1.2766   -0.4780 H   0  0  0  0  0  0  0  0  0  0  0  0
   -1.0494    0.0075   -1.1761 H   0  0  0  0  0  0  0  0  0  0  0  0
   -2.4406   -1.8629   -0.4309 H   0  0  0  0  0  0  0  0  0  0  0  0
   -1.7483   -1.8159    1.1946 H   0  0  0  0  0  0  0  0  0  0  0  0
   -4.3338   -0.6205   -2.0038 H   0  0  0  0  0  0  0  0  0  0  0  0
  1  2  1  0
  2  3  2  0
  3  4  1  0
  4  5  2  0
  5  6  1  0
  6  7  1  0
  7  8  1  0
  8  9  1  0
  9 10  1  0
 10 11  1  0
 11 12  1  0
 12 13  1  0
 13 14  2  0
 14 15  1  0
 15 16  2  0
 16 17  1  0
 17 18  1  0
 18 19  2  0
 19 20  1  0
 20 21  2  0
 21 22  1  0
 22 23  2  0
 17 24  2  0
 24 25  1  0
 25 26  2  0
 26 27  1  0
 27 28  2  0
 28 29  1  0
 29 30  2  0
 30 31  1  0
 12 32  1  0
 32 33  1  0
  6 34  2  0
 34  2  1  0
 33  9  1  0
 31 13  1  0
 31 16  1  0
 23 18  1  0
 30 25  1  0
  3 35  1  0
  4 36  1  0
  5 37  1  0
  7 38  1  0
  7 39  1  0
  8 40  1  0
  8 41  1  0
 10 42  1  0
 10 43  1  0
 11 44  1  0
 11 45  1  0
 14 46  1  0
 15 47  1  0
 19 48  1  0
 20 49  1  0
 21 50  1  0
 22 51  1  0
 23 52  1  0
 26 53  1  0
 27 54  1  0
 28 55  1  0
 29 56  1  0
 32 57  1  0
 32 58  1  0
 33 59  1  0
 33 60  1  0
 34 61  1  0
M  END
$$$$
