
     RDKit          3D

 52 55  0  0  0  0  0  0  0  0999 V2000
    6.2217    2.7585    2.6572 C   0  0  0  0  0  0  0  0  0  0  0  0
    5.9151    1.7100    1.7471 O   0  0  0  0  0  0  0  0  0  0  0  0
    4.6792    1.1371    1.8561 C   0  0  0  0  0  0  0  0  0  0  0  0
    3.6805    1.5021    2.7557 C   0  0  0  0  0  0  0  0  0  0  0  0
    2.4530    0.8270    2.7541 C   0  0  0  0  0  0  0  0  0  0  0  0
    2.2059   -0.2172    1.8546 C   0  0  0  0  0  0  0  0  0  0  0  0
    0.9381   -0.8291    1.9131 N   0  0  0  0  0  0  0  0  0  0  0  0
    0.4099   -1.7552    1.0308 C   0  0  0  0  0  0  0  0  0  0  0  0
    0.9751   -2.2460    0.0573 O   0  0  0  0  0  0  0  0  0  0  0  0
   -1.0199   -2.1526    1.3635 C   0  0  0  0  0  0  0  0  0  0  0  0
   -2.1771   -0.7569    1.2550 S   0  0  0  0  0  0  0  0  0  0  0  0
   -1.5151    0.0564   -0.1652 C   0  0  0  0  0  0  0  0  0  0  0  0
   -0.8000    1.1035    0.1160 N   0  0  0  0  0  0  0  0  0  0  0  0
   -0.1266    1.6678   -0.9255 C   0  0  0  0  0  0  0  0  0  0  0  0
   -0.1455    1.2257   -2.1811 C   0  0  0  0  0  0  0  0  0  0  0  0
   -0.9801    0.0574   -2.5290 C   0  0  0  0  0  0  0  0  0  0  0  0
   -1.0455   -0.3455   -3.6898 O   0  0  0  0  0  0  0  0  0  0  0  0
   -1.6788   -0.4839   -1.4419 N   0  0  0  0  0  0  0  0  0  0  0  0
   -2.5954   -1.5453   -1.7219 C   0  0  0  0  0  0  0  0  0  0  0  0
   -2.1071   -2.7323   -2.2914 C   0  0  0  0  0  0  0  0  0  0  0  0
   -2.9688   -3.7950   -2.5545 C   0  0  0  0  0  0  0  0  0  0  0  0
   -4.3250   -3.6744   -2.2658 C   0  0  0  0  0  0  0  0  0  0  0  0
   -4.8292   -2.4860   -1.7291 C   0  0  0  0  0  0  0  0  0  0  0  0
   -3.9759   -1.4095   -1.4632 C   0  0  0  0  0  0  0  0  0  0  0  0
   -4.3918   -0.1818   -1.0125 O   0  0  0  0  0  0  0  0  0  0  0  0
   -5.7680   -0.0323   -0.6897 C   0  0  0  0  0  0  0  0  0  0  0  0
    0.8389    2.0920   -3.2886 S   0  0  0  0  0  0  0  0  0  0  0  0
    1.1732    3.4024   -2.0597 C   0  0  0  0  0  0  0  0  0  0  0  0
    0.7829    2.8357   -0.6909 C   0  0  0  0  0  0  0  0  0  0  0  0
    3.2102   -0.5824    0.9606 C   0  0  0  0  0  0  0  0  0  0  0  0
    4.4359    0.0937    0.9621 C   0  0  0  0  0  0  0  0  0  0  0  0
    7.2415    3.0955    2.4478 H   0  0  0  0  0  0  0  0  0  0  0  0
    6.1941    2.4035    3.6926 H   0  0  0  0  0  0  0  0  0  0  0  0
    5.5526    3.6133    2.5137 H   0  0  0  0  0  0  0  0  0  0  0  0
    3.8193    2.3065    3.4699 H   0  0  0  0  0  0  0  0  0  0  0  0
    1.6905    1.1392    3.4634 H   0  0  0  0  0  0  0  0  0  0  0  0
    0.2808   -0.4198    2.5687 H   0  0  0  0  0  0  0  0  0  0  0  0
   -1.0477   -2.5659    2.3769 H   0  0  0  0  0  0  0  0  0  0  0  0
   -1.3381   -2.9440    0.6784 H   0  0  0  0  0  0  0  0  0  0  0  0
   -1.0480   -2.8386   -2.5206 H   0  0  0  0  0  0  0  0  0  0  0  0
   -2.5807   -4.7123   -2.9906 H   0  0  0  0  0  0  0  0  0  0  0  0
   -4.9983   -4.5019   -2.4776 H   0  0  0  0  0  0  0  0  0  0  0  0
   -5.8977   -2.4283   -1.5496 H   0  0  0  0  0  0  0  0  0  0  0  0
   -6.3953   -0.1439   -1.5800 H   0  0  0  0  0  0  0  0  0  0  0  0
   -5.9124    0.9824   -0.3066 H   0  0  0  0  0  0  0  0  0  0  0  0
   -6.0682   -0.7309    0.0982 H   0  0  0  0  0  0  0  0  0  0  0  0
    2.2242    3.7042   -2.0887 H   0  0  0  0  0  0  0  0  0  0  0  0
    0.5554    4.2727   -2.3053 H   0  0  0  0  0  0  0  0  0  0  0  0
    0.2957    3.6099   -0.0882 H   0  0  0  0  0  0  0  0  0  0  0  0
    1.6757    2.5050   -0.1471 H   0  0  0  0  0  0  0  0  0  0  0  0
    3.0788   -1.3886    0.2462 H   0  0  0  0  0  0  0  0  0  0  0  0
    5.2081   -0.2020    0.2555 H   0  0  0  0  0  0  0  0  0  0  0  0
  1  2  1  0
  2  3  1  0
  3  4  2  0
  4  5  1  0
  5  6  2  0
  6  7  1  0
  7  8  1  0
  8  9  2  0
  8 10  1  0
 10 11  1  0
 11 12  1  0
 12 13  2  0
 13 14  1  0
 14 15  2  0
 15 16  1  0
 16 17  2  0
 16 18  1  0
 18 19  1  0
 19 20  2  0
 20 21  1  0
 21 22  2  0
 22 23  1  0
 23 24  2  0
 24 25  1  0
 25 26  1  0
 15 27  1  0
 27 28  1  0
 28 29  1  0
  6 30  1  0
 30 31  2  0
 31  3  1  0
 18 12  1  0
 24 19  1  0
 29 14  1  0
  1 32  1  0
  1 33  1  0
  1 34  1  0
  4 35  1  0
  5 36  1  0
  7 37  1  0
 10 38  1  0
 10 39  1  0
 20 40  1  0
 21 41  1  0
 22 42  1  0
 23 43  1  0
 26 44  1  0
 26 45  1  0
 26 46  1  0
 28 47  1  0
 28 48  1  0
 29 49  1  0
 29 50  1  0
 30 51  1  0
 31 52  1  0
M  END
$$$$
