
     RDKit          3D

 48 51  0  0  0  0  0  0  0  0999 V2000
    3.4453    2.8694    0.6878 C   0  0  0  0  0  0  0  0  0  0  0  0
    3.5606    1.5709    1.4720 C   0  0  0  0  0  0  0  0  0  0  0  0
    3.1065    0.4383    0.6701 N   0  0  0  0  0  0  0  0  0  0  0  0
    1.8109   -0.0789    0.5829 C   0  0  0  0  0  0  0  0  0  0  0  0
    0.7162    0.4032    1.2025 C   0  0  0  0  0  0  0  0  0  0  0  0
   -0.6367   -0.1608    1.1036 C   0  0  0  0  0  0  0  0  0  0  0  0
   -0.9795   -1.1713    2.0016 C   0  0  0  0  0  0  0  0  0  0  0  0
   -2.2416   -1.7314    1.9648 C   0  0  0  0  0  0  0  0  0  0  0  0
   -3.1668   -1.2688    1.0377 C   0  0  0  0  0  0  0  0  0  0  0  0
   -4.4537   -1.8294    1.0084 C   0  0  0  0  0  0  0  0  0  0  0  0
   -5.4186   -1.3753    0.1057 C   0  0  0  0  0  0  0  0  0  0  0  0
   -6.7808   -2.0072    0.0642 C   0  0  0  0  0  0  0  0  0  0  0  0
   -5.0789   -0.3641   -0.7901 C   0  0  0  0  0  0  0  0  0  0  0  0
   -3.7982    0.2020   -0.7733 C   0  0  0  0  0  0  0  0  0  0  0  0
   -2.8092   -0.2341    0.1301 C   0  0  0  0  0  0  0  0  0  0  0  0
   -1.5366    0.2919    0.1784 N   0  0  0  0  0  4  0  0  0  0  0  0
   -1.1158    1.3432   -0.7968 C   0  0  0  0  0  0  0  0  0  0  0  0
   -1.4736    2.7158   -0.2581 C   0  0  0  0  0  0  0  0  0  0  0  0
    1.6684   -1.4842   -0.5137 S   0  0  0  0  0  0  0  0  0  0  0  0
    3.4097   -1.3215   -0.8825 C   0  0  0  0  0  0  0  0  0  0  0  0
    4.1282   -2.1219   -1.7599 C   0  0  0  0  0  0  0  0  0  0  0  0
    5.4825   -1.8518   -1.9435 C   0  0  0  0  0  0  0  0  0  0  0  0
    6.0904   -0.7948   -1.2556 C   0  0  0  0  0  0  0  0  0  0  0  0
    5.3545    0.0059   -0.3720 C   0  0  0  0  0  0  0  0  0  0  0  0
    4.0023   -0.2523   -0.1733 C   0  0  0  0  0  0  0  0  0  0  0  0
    4.0654    2.8479   -0.2141 H   0  0  0  0  0  0  0  0  0  0  0  0
    2.4113    3.0535    0.3776 H   0  0  0  0  0  0  0  0  0  0  0  0
    3.7706    3.7137    1.3035 H   0  0  0  0  0  0  0  0  0  0  0  0
    2.9608    1.6507    2.3864 H   0  0  0  0  0  0  0  0  0  0  0  0
    4.5886    1.4308    1.8249 H   0  0  0  0  0  0  0  0  0  0  0  0
    0.7909    1.2654    1.8575 H   0  0  0  0  0  0  0  0  0  0  0  0
   -0.2560   -1.5350    2.7306 H   0  0  0  0  0  0  0  0  0  0  0  0
   -2.4935   -2.5257    2.6671 H   0  0  0  0  0  0  0  0  0  0  0  0
   -4.7183   -2.6315    1.6990 H   0  0  0  0  0  0  0  0  0  0  0  0
   -7.0870   -2.3390    1.0619 H   0  0  0  0  0  0  0  0  0  0  0  0
   -7.5330   -1.2921   -0.2851 H   0  0  0  0  0  0  0  0  0  0  0  0
   -6.7721   -2.8693   -0.6097 H   0  0  0  0  0  0  0  0  0  0  0  0
   -5.8141   -0.0053   -1.5108 H   0  0  0  0  0  0  0  0  0  0  0  0
   -3.6255    0.9963   -1.4926 H   0  0  0  0  0  0  0  0  0  0  0  0
   -0.0430    1.2716   -0.9864 H   0  0  0  0  0  0  0  0  0  0  0  0
   -1.5820    1.1420   -1.7647 H   0  0  0  0  0  0  0  0  0  0  0  0
   -2.5496    2.8139   -0.0864 H   0  0  0  0  0  0  0  0  0  0  0  0
   -1.1708    3.4911   -0.9684 H   0  0  0  0  0  0  0  0  0  0  0  0
   -0.9695    2.9113    0.6934 H   0  0  0  0  0  0  0  0  0  0  0  0
    3.6541   -2.9402   -2.2921 H   0  0  0  0  0  0  0  0  0  0  0  0
    6.0717   -2.4637   -2.6235 H   0  0  0  0  0  0  0  0  0  0  0  0
    7.1493   -0.5944   -1.4092 H   0  0  0  0  0  0  0  0  0  0  0  0
    5.8663    0.8155    0.1365 H   0  0  0  0  0  0  0  0  0  0  0  0
  1  2  1  0
  2  3  1  0
  3  4  1  0
  4  5  2  3
  5  6  1  0
  6  7  2  0
  7  8  1  0
  8  9  2  0
  9 10  1  0
 10 11  2  0
 11 12  1  0
 11 13  1  0
 13 14  2  0
 14 15  1  0
 15 16  2  0
 16 17  1  0
 17 18  1  0
  4 19  1  0
 19 20  1  0
 20 21  2  0
 21 22  1  0
 22 23  2  0
 23 24  1  0
 24 25  2  0
 25  3  1  0
 16  6  1  0
 25 20  1  0
 15  9  1  0
  1 26  1  0
  1 27  1  0
  1 28  1  0
  2 29  1  0
  2 30  1  0
  5 31  1  0
  7 32  1  0
  8 33  1  0
 10 34  1  0
 12 35  1  0
 12 36  1  0
 12 37  1  0
 13 38  1  0
 14 39  1  0
 17 40  1  0
 17 41  1  0
 18 42  1  0
 18 43  1  0
 18 44  1  0
 21 45  1  0
 22 46  1  0
 23 47  1  0
 24 48  1  0
M  CHG  1  16   1
M  END
$$$$
