
     RDKit          3D

 53 56  0  0  0  0  0  0  0  0999 V2000
   -9.5553    0.7029    0.3098 C   0  0  0  0  0  0  0  0  0  0  0  0
   -9.1283   -0.6512    0.2138 O   0  0  0  0  0  0  0  0  0  0  0  0
   -7.7849   -0.8687    0.0799 C   0  0  0  0  0  0  0  0  0  0  0  0
   -7.4184   -2.2129   -0.0074 C   0  0  0  0  0  0  0  0  0  0  0  0
   -6.0797   -2.5780   -0.1466 C   0  0  0  0  0  0  0  0  0  0  0  0
   -5.0899   -1.5959   -0.2002 C   0  0  0  0  0  0  0  0  0  0  0  0
   -5.4419   -0.2430   -0.1140 C   0  0  0  0  0  0  0  0  0  0  0  0
   -4.4251    0.8547   -0.1660 C   0  0  0  0  0  0  0  0  0  0  0  0
   -4.8079    2.0213   -0.0836 O   0  0  0  0  0  0  0  0  0  0  0  0
   -2.9552    0.4710   -0.3198 C   0  0  0  0  0  0  0  0  0  0  0  0
   -2.1365    1.6345   -0.3507 O   0  0  0  0  0  0  0  0  0  0  0  0
   -0.7901    1.4486   -0.4799 C   0  0  0  0  0  0  0  0  0  0  0  0
   -0.0365    2.6224   -0.4936 C   0  0  0  0  0  0  0  0  0  0  0  0
    1.3589    2.5823   -0.6197 C   0  0  0  0  0  0  0  0  0  0  0  0
    2.0366    1.3621   -0.7374 C   0  0  0  0  0  0  0  0  0  0  0  0
    3.5044    1.2396   -0.8597 C   0  0  0  0  0  0  0  0  0  0  0  0
    4.2930    2.5251   -0.8471 C   0  0  0  0  0  0  0  0  0  0  0  0
    4.0566    0.0076   -0.9565 C   0  0  0  0  0  0  0  0  0  0  0  0
    5.5400   -0.2858   -1.0692 C   0  0  0  0  0  0  0  0  0  0  0  0
    6.1868   -0.6194    0.2599 C   0  0  0  0  0  0  0  0  0  0  0  0
    6.2789   -1.9511    0.6909 C   0  0  0  0  0  0  0  0  0  0  0  0
    6.8585   -2.2634    1.9218 C   0  0  0  0  0  0  0  0  0  0  0  0
    7.3527   -1.2489    2.7378 C   0  0  0  0  0  0  0  0  0  0  0  0
    7.2675    0.0782    2.3234 C   0  0  0  0  0  0  0  0  0  0  0  0
    6.6873    0.3921    1.0925 C   0  0  0  0  0  0  0  0  0  0  0  0
    3.2070   -1.2182   -1.0158 C   0  0  0  0  0  0  0  0  0  0  0  0
    3.6775   -2.3329   -1.2205 O   0  0  0  0  0  0  0  0  0  0  0  0
    1.8433   -1.0607   -0.8453 O   0  0  0  0  0  0  0  0  0  0  0  0
    1.2601    0.2082   -0.7223 C   0  0  0  0  0  0  0  0  0  0  0  0
   -0.1341    0.2292   -0.5958 C   0  0  0  0  0  0  0  0  0  0  0  0
   -6.7949    0.1132    0.0263 C   0  0  0  0  0  0  0  0  0  0  0  0
  -10.6447    0.7028    0.4121 H   0  0  0  0  0  0  0  0  0  0  0  0
   -9.1373    1.1863    1.1990 H   0  0  0  0  0  0  0  0  0  0  0  0
   -9.3063    1.2604   -0.5992 H   0  0  0  0  0  0  0  0  0  0  0  0
   -8.1862   -2.9826    0.0338 H   0  0  0  0  0  0  0  0  0  0  0  0
   -5.8120   -3.6300   -0.2131 H   0  0  0  0  0  0  0  0  0  0  0  0
   -4.0596   -1.9199   -0.3089 H   0  0  0  0  0  0  0  0  0  0  0  0
   -2.6774   -0.1466    0.5420 H   0  0  0  0  0  0  0  0  0  0  0  0
   -2.8479   -0.0743   -1.2646 H   0  0  0  0  0  0  0  0  0  0  0  0
   -0.5404    3.5831   -0.4030 H   0  0  0  0  0  0  0  0  0  0  0  0
    1.8885    3.5311   -0.6192 H   0  0  0  0  0  0  0  0  0  0  0  0
    3.9811    3.1753   -1.6722 H   0  0  0  0  0  0  0  0  0  0  0  0
    4.1459    3.0571    0.0994 H   0  0  0  0  0  0  0  0  0  0  0  0
    5.3689    2.3878   -0.9618 H   0  0  0  0  0  0  0  0  0  0  0  0
    6.0833    0.5472   -1.5288 H   0  0  0  0  0  0  0  0  0  0  0  0
    5.7181   -1.1073   -1.7762 H   0  0  0  0  0  0  0  0  0  0  0  0
    5.8958   -2.7588    0.0690 H   0  0  0  0  0  0  0  0  0  0  0  0
    6.9212   -3.3000    2.2424 H   0  0  0  0  0  0  0  0  0  0  0  0
    7.8033   -1.4928    3.6961 H   0  0  0  0  0  0  0  0  0  0  0  0
    7.6530    0.8705    2.9598 H   0  0  0  0  0  0  0  0  0  0  0  0
    6.6350    1.4344    0.7910 H   0  0  0  0  0  0  0  0  0  0  0  0
   -0.6628   -0.7168   -0.5942 H   0  0  0  0  0  0  0  0  0  0  0  0
   -7.0498    1.1673    0.0916 H   0  0  0  0  0  0  0  0  0  0  0  0
  1  2  1  0
  2  3  1  0
  3  4  2  0
  4  5  1  0
  5  6  2  0
  6  7  1  0
  7  8  1  0
  8  9  2  0
  8 10  1  0
 10 11  1  0
 11 12  1  0
 12 13  2  0
 13 14  1  0
 14 15  2  0
 15 16  1  0
 16 17  1  0
 16 18  2  0
 18 19  1  0
 19 20  1  0
 20 21  2  0
 21 22  1  0
 22 23  2  0
 23 24  1  0
 24 25  2  0
 18 26  1  0
 26 27  2  0
 26 28  1  0
 28 29  1  0
 29 30  2  0
  7 31  2  0
 31  3  1  0
 30 12  1  0
 29 15  1  0
 25 20  1  0
  1 32  1  0
  1 33  1  0
  1 34  1  0
  4 35  1  0
  5 36  1  0
  6 37  1  0
 10 38  1  0
 10 39  1  0
 13 40  1  0
 14 41  1  0
 17 42  1  0
 17 43  1  0
 17 44  1  0
 19 45  1  0
 19 46  1  0
 21 47  1  0
 22 48  1  0
 23 49  1  0
 24 50  1  0
 25 51  1  0
 30 52  1  0
 31 53  1  0
M  END
$$$$
