
     RDKit          3D

 64 69  0  0  0  0  0  0  0  0999 V2000
   -9.6044    1.2546   -0.1121 C   0  0  0  0  0  0  0  0  0  0  0  0
   -8.7107    1.6187    0.9308 O   0  0  0  0  0  0  0  0  0  0  0  0
   -7.3980    1.2860    0.7439 C   0  0  0  0  0  0  0  0  0  0  0  0
   -6.9200    0.3429   -0.1628 C   0  0  0  0  0  0  0  0  0  0  0  0
   -5.5437    0.0972   -0.2694 C   0  0  0  0  0  0  0  0  0  0  0  0
   -4.6271    0.8004    0.5257 C   0  0  0  0  0  0  0  0  0  0  0  0
   -3.2181    0.5750    0.3807 N   0  0  0  0  0  0  0  0  0  0  0  0
   -2.1853    1.5075    0.5854 C   0  0  0  0  0  0  0  0  0  0  0  0
   -2.4020    2.8225    0.8762 N   0  0  0  0  0  0  0  0  0  0  0  0
   -0.9598    0.8880    0.3676 C   0  0  0  0  0  0  0  0  0  0  0  0
    0.3602    1.5213    0.4405 C   0  0  0  0  0  0  0  0  0  0  0  0
    0.4840    2.7231    0.6651 O   0  0  0  0  0  0  0  0  0  0  0  0
    1.3994    0.6683    0.1501 N   0  0  0  0  0  0  0  0  0  0  0  0
    2.7444    0.9053    0.1005 C   0  0  0  0  0  0  0  0  0  0  0  0
    3.5638    1.8621    0.5671 C   0  0  0  0  0  0  0  0  0  0  0  0
    3.2209    3.0318    1.4342 C   0  0  0  0  0  0  0  0  0  0  0  0
    4.9119    1.6382    0.2182 N   0  0  0  0  0  0  0  0  0  0  0  0
    5.6095    2.7137   -0.5109 C   0  0  0  0  0  0  0  0  0  0  0  0
    4.9362    0.3862   -0.4649 N   0  0  0  0  0  0  0  0  0  0  0  0
    6.1049   -0.4173   -0.5122 C   0  0  0  0  0  0  0  0  0  0  0  0
    6.1355   -1.5899   -1.2808 C   0  0  0  0  0  0  0  0  0  0  0  0
    7.2745   -2.3982   -1.3206 C   0  0  0  0  0  0  0  0  0  0  0  0
    8.4061   -2.0454   -0.5907 C   0  0  0  0  0  0  0  0  0  0  0  0
    8.3968   -0.8853    0.1802 C   0  0  0  0  0  0  0  0  0  0  0  0
    7.2566   -0.0768    0.2148 C   0  0  0  0  0  0  0  0  0  0  0  0
    3.6304   -0.0954   -0.5787 C   0  0  0  0  0  0  0  0  0  0  0  0
    3.1954   -1.1353   -1.0558 O   0  0  0  0  0  0  0  0  0  0  0  0
   -1.2527   -0.4461    0.0077 C   0  0  0  0  0  0  0  0  0  0  0  0
   -0.3907   -1.4475   -0.3065 N   0  0  0  0  0  0  0  0  0  0  0  0
   -0.9727   -2.6155   -0.6109 C   0  0  0  0  0  0  0  0  0  0  0  0
   -0.1575   -3.6934   -0.9282 C   0  0  0  0  0  0  0  0  0  0  0  0
   -0.6932   -4.9392   -1.2568 C   0  0  0  0  0  0  0  0  0  0  0  0
   -2.0706   -5.1116   -1.2639 C   0  0  0  0  0  0  0  0  0  0  0  0
   -2.8998   -4.0337   -0.9459 C   0  0  0  0  0  0  0  0  0  0  0  0
   -2.3801   -2.7874   -0.6178 C   0  0  0  0  0  0  0  0  0  0  0  0
   -3.2346   -1.7958   -0.3167 N   0  0  0  0  0  0  0  0  0  0  0  0
   -2.6268   -0.6236   -0.0118 C   0  0  0  0  0  0  0  0  0  0  0  0
   -5.1171    1.7210    1.4615 C   0  0  0  0  0  0  0  0  0  0  0  0
   -6.4936    1.9545    1.5686 C   0  0  0  0  0  0  0  0  0  0  0  0
   -9.7553    0.1720   -0.1369 H   0  0  0  0  0  0  0  0  0  0  0  0
   -9.2536    1.6186   -1.0854 H   0  0  0  0  0  0  0  0  0  0  0  0
  -10.5710    1.7224    0.0964 H   0  0  0  0  0  0  0  0  0  0  0  0
   -7.5882   -0.2206   -0.8042 H   0  0  0  0  0  0  0  0  0  0  0  0
   -5.2170   -0.6229   -1.0163 H   0  0  0  0  0  0  0  0  0  0  0  0
   -3.2220    3.2869    0.4837 H   0  0  0  0  0  0  0  0  0  0  0  0
   -1.5844    3.4407    0.8308 H   0  0  0  0  0  0  0  0  0  0  0  0
    1.1386   -0.2581   -0.2022 H   0  0  0  0  0  0  0  0  0  0  0  0
    2.4258    2.7896    2.1476 H   0  0  0  0  0  0  0  0  0  0  0  0
    4.0822    3.3296    2.0404 H   0  0  0  0  0  0  0  0  0  0  0  0
    2.9233    3.8951    0.8294 H   0  0  0  0  0  0  0  0  0  0  0  0
    5.6487    3.6231    0.0969 H   0  0  0  0  0  0  0  0  0  0  0  0
    6.6409    2.4403   -0.7514 H   0  0  0  0  0  0  0  0  0  0  0  0
    5.0882    2.9507   -1.4468 H   0  0  0  0  0  0  0  0  0  0  0  0
    5.2767   -1.8904   -1.8753 H   0  0  0  0  0  0  0  0  0  0  0  0
    7.2726   -3.3050   -1.9215 H   0  0  0  0  0  0  0  0  0  0  0  0
    9.2899   -2.6779   -0.6147 H   0  0  0  0  0  0  0  0  0  0  0  0
    9.2715   -0.6122    0.7652 H   0  0  0  0  0  0  0  0  0  0  0  0
    7.2699    0.8057    0.8466 H   0  0  0  0  0  0  0  0  0  0  0  0
    0.9234   -3.5572   -0.9192 H   0  0  0  0  0  0  0  0  0  0  0  0
   -0.0326   -5.7708   -1.4962 H   0  0  0  0  0  0  0  0  0  0  0  0
   -2.5033   -6.0750   -1.5201 H   0  0  0  0  0  0  0  0  0  0  0  0
   -3.9788   -4.1716   -0.9501 H   0  0  0  0  0  0  0  0  0  0  0  0
   -4.4550    2.2352    2.1534 H   0  0  0  0  0  0  0  0  0  0  0  0
   -6.8629    2.6710    2.3003 H   0  0  0  0  0  0  0  0  0  0  0  0
  1  2  1  0
  2  3  1  0
  3  4  2  0
  4  5  1  0
  5  6  2  0
  6  7  1  0
  7  8  1  0
  8  9  1  0
  8 10  2  0
 10 11  1  0
 11 12  2  0
 11 13  1  0
 13 14  1  0
 14 15  2  0
 15 16  1  0
 15 17  1  0
 17 18  1  0
 17 19  1  0
 19 20  1  0
 20 21  2  0
 21 22  1  0
 22 23  2  0
 23 24  1  0
 24 25  2  0
 19 26  1  0
 26 27  2  0
 10 28  1  0
 28 29  2  0
 29 30  1  0
 30 31  2  0
 31 32  1  0
 32 33  2  0
 33 34  1  0
 34 35  2  0
 35 36  1  0
 36 37  2  0
  6 38  1  0
 38 39  2  0
 39  3  1  0
 37  7  1  0
 26 14  1  0
 37 28  1  0
 25 20  1  0
 35 30  1  0
  1 40  1  0
  1 41  1  0
  1 42  1  0
  4 43  1  0
  5 44  1  0
  9 45  1  0
  9 46  1  0
 13 47  1  0
 16 48  1  0
 16 49  1  0
 16 50  1  0
 18 51  1  0
 18 52  1  0
 18 53  1  0
 21 54  1  0
 22 55  1  0
 23 56  1  0
 24 57  1  0
 25 58  1  0
 31 59  1  0
 32 60  1  0
 33 61  1  0
 34 62  1  0
 38 63  1  0
 39 64  1  0
M  END
$$$$
