
     RDKit          3D

 44 46  0  0  0  0  0  0  0  0999 V2000
   -4.2001    1.5081    2.4699 C   0  0  0  0  0  0  0  0  0  0  0  0
   -3.3298    0.4219    1.8972 C   0  0  0  0  0  0  0  0  0  0  0  0
   -3.1820    0.3248    0.5025 C   0  0  0  0  0  0  0  0  0  0  0  0
   -2.3869   -0.6678   -0.1007 C   0  0  0  0  0  0  0  0  0  0  0  0
   -2.3202   -0.6970   -1.6011 C   0  0  0  0  0  0  0  0  0  0  0  0
   -1.7218   -1.5753    0.7381 C   0  0  0  0  0  0  0  0  0  0  0  0
   -0.6567   -2.8878    0.1446 S   0  0  0  0  0  6  0  0  0  0  0  0
   -0.8607   -4.0270    1.0175 O   0  0  0  0  0  0  0  0  0  0  0  0
   -0.7815   -3.0291   -1.2884 O   0  0  0  0  0  0  0  0  0  0  0  0
    0.8928   -2.3073    0.5086 N   0  0  0  0  0  0  0  0  0  0  0  0
    1.2979   -1.0451   -0.0059 C   0  0  0  0  0  0  0  0  0  0  0  0
    1.4122    0.0380    0.8638 C   0  0  0  0  0  0  0  0  0  0  0  0
    1.7693    1.2889    0.3644 C   0  0  0  0  0  0  0  0  0  0  0  0
    2.0184    1.4508   -0.9980 C   0  0  0  0  0  0  0  0  0  0  0  0
    2.3696    2.7131   -1.3905 O   0  0  0  0  0  0  0  0  0  0  0  0
    1.9018    0.3723   -1.8867 C   0  0  0  0  0  0  0  0  0  0  0  0
    2.0889    0.5126   -3.6579 S   0  0  0  0  0  0  0  0  0  0  0  0
    3.7615    0.9569   -3.8236 C   0  0  0  0  0  0  0  0  0  0  0  0
    4.2790    2.0912   -3.2498 N   0  0  0  0  0  0  0  0  0  0  0  0
    5.5334    2.0673   -3.6378 C   0  0  0  0  0  0  0  0  0  0  0  0
    5.7476    0.9745   -4.4177 N   0  0  0  0  0  0  0  0  0  0  0  0
    4.6253    0.2535   -4.5592 N   0  0  0  0  0  0  0  0  0  0  0  0
    1.5348   -0.8798   -1.3720 C   0  0  0  0  0  0  0  0  0  0  0  0
   -1.8837   -1.5002    2.1348 C   0  0  0  0  0  0  0  0  0  0  0  0
   -2.6801   -0.5087    2.7242 C   0  0  0  0  0  0  0  0  0  0  0  0
   -2.8214   -0.4653    4.2211 C   0  0  0  0  0  0  0  0  0  0  0  0
   -5.0648    1.0712    2.9792 H   0  0  0  0  0  0  0  0  0  0  0  0
   -3.6308    2.1212    3.1756 H   0  0  0  0  0  0  0  0  0  0  0  0
   -4.5772    2.1763    1.6884 H   0  0  0  0  0  0  0  0  0  0  0  0
   -3.7045    1.0418   -0.1313 H   0  0  0  0  0  0  0  0  0  0  0  0
   -2.7744   -1.6150   -1.9858 H   0  0  0  0  0  0  0  0  0  0  0  0
   -1.2897   -0.6041   -1.9502 H   0  0  0  0  0  0  0  0  0  0  0  0
   -2.8733    0.1394   -2.0432 H   0  0  0  0  0  0  0  0  0  0  0  0
    1.1648   -2.5411    1.4616 H   0  0  0  0  0  0  0  0  0  0  0  0
    1.2129   -0.0712    1.9257 H   0  0  0  0  0  0  0  0  0  0  0  0
    1.8542    2.1414    1.0333 H   0  0  0  0  0  0  0  0  0  0  0  0
    2.9009    2.6356   -2.2114 H   0  0  0  0  0  0  0  0  0  0  0  0
    6.3032    2.7872   -3.3977 H   0  0  0  0  0  0  0  0  0  0  0  0
    6.5989    0.6674   -4.8758 H   0  0  0  0  0  0  0  0  0  0  0  0
    1.4258   -1.7326   -2.0398 H   0  0  0  0  0  0  0  0  0  0  0  0
   -1.3861   -2.2298    2.7728 H   0  0  0  0  0  0  0  0  0  0  0  0
   -2.2751   -1.2843    4.7008 H   0  0  0  0  0  0  0  0  0  0  0  0
   -3.8734   -0.5609    4.5077 H   0  0  0  0  0  0  0  0  0  0  0  0
   -2.4190    0.4741    4.6131 H   0  0  0  0  0  0  0  0  0  0  0  0
  1  2  1  0
  2  3  2  0
  3  4  1  0
  4  5  1  0
  4  6  2  0
  6  7  1  0
  7  8  2  0
  7  9  2  0
  7 10  1  0
 10 11  1  0
 11 12  2  0
 12 13  1  0
 13 14  2  0
 14 15  1  0
 14 16  1  0
 16 17  1  0
 17 18  1  0
 18 19  1  0
 19 20  2  0
 20 21  1  0
 21 22  1  0
 16 23  2  0
  6 24  1  0
 24 25  2  0
 25 26  1  0
 25  2  1  0
 23 11  1  0
 22 18  2  0
  1 27  1  0
  1 28  1  0
  1 29  1  0
  3 30  1  0
  5 31  1  0
  5 32  1  0
  5 33  1  0
 10 34  1  0
 12 35  1  0
 13 36  1  0
 15 37  1  0
 20 38  1  0
 21 39  1  0
 23 40  1  0
 24 41  1  0
 26 42  1  0
 26 43  1  0
 26 44  1  0
M  END
$$$$
