
     RDKit          3D

 36 37  0  0  0  0  0  0  0  0999 V2000
    7.6696   -0.1269   -0.2146 C   0  0  0  0  0  0  0  0  0  0  0  0
    6.3698    0.5763    0.0890 C   0  0  0  0  0  0  0  0  0  0  0  0
    6.3450    1.7822    0.3040 O   0  0  0  0  0  0  0  0  0  0  0  0
    5.2964   -0.2969    0.1072 N   0  0  0  0  0  0  0  0  0  0  0  0
    3.9461    0.0090    0.3747 C   0  0  0  0  0  0  0  0  0  0  0  0
    3.0276   -1.0488    0.3160 C   0  0  0  0  0  0  0  0  0  0  0  0
    1.6671   -0.8336    0.5660 C   0  0  0  0  0  0  0  0  0  0  0  0
    1.2104    0.4515    0.8752 C   0  0  0  0  0  0  0  0  0  0  0  0
   -0.2246    0.7288    1.1537 C   0  0  0  0  0  0  0  0  0  0  0  0
   -0.5190    1.5697    1.9964 O   0  0  0  0  0  0  0  0  0  0  0  0
   -1.1214    0.0045    0.3814 N   0  0  0  0  0  0  0  0  0  0  0  0
   -2.4602    0.1953    0.5486 N   0  0  0  0  0  0  0  0  0  0  0  0
   -3.2295   -0.4525   -0.2649 C   0  0  0  0  0  0  0  0  0  0  0  0
   -4.7000   -0.3353   -0.1947 C   0  0  0  0  0  0  0  0  0  0  0  0
   -5.3066    0.4907    0.7598 C   0  0  0  0  0  0  0  0  0  0  0  0
   -6.6981    0.5869    0.8089 C   0  0  0  0  0  0  0  0  0  0  0  0
   -7.4675   -0.1404   -0.0930 C   0  0  0  0  0  0  0  0  0  0  0  0
   -8.8027   -0.0485   -0.0460 F   0  0  0  0  0  0  0  0  0  0  0  0
   -6.8727   -0.9635   -1.0452 C   0  0  0  0  0  0  0  0  0  0  0  0
   -5.4809   -1.0639   -1.0994 C   0  0  0  0  0  0  0  0  0  0  0  0
    2.1246    1.5054    0.9561 C   0  0  0  0  0  0  0  0  0  0  0  0
    3.4835    1.2856    0.6995 C   0  0  0  0  0  0  0  0  0  0  0  0
    7.5307   -0.8815   -0.9942 H   0  0  0  0  0  0  0  0  0  0  0  0
    8.4022    0.6014   -0.5740 H   0  0  0  0  0  0  0  0  0  0  0  0
    8.0467   -0.6010    0.6953 H   0  0  0  0  0  0  0  0  0  0  0  0
    5.5014   -1.2678   -0.0916 H   0  0  0  0  0  0  0  0  0  0  0  0
    3.3588   -2.0585    0.0853 H   0  0  0  0  0  0  0  0  0  0  0  0
    0.9879   -1.6814    0.5498 H   0  0  0  0  0  0  0  0  0  0  0  0
   -0.7960   -0.5660   -0.3889 H   0  0  0  0  0  0  0  0  0  0  0  0
   -2.8208   -1.1197   -1.0449 H   0  0  0  0  0  0  0  0  0  0  0  0
   -4.7013    1.0594    1.4640 H   0  0  0  0  0  0  0  0  0  0  0  0
   -7.1830    1.2231    1.5428 H   0  0  0  0  0  0  0  0  0  0  0  0
   -7.4986   -1.5191   -1.7367 H   0  0  0  0  0  0  0  0  0  0  0  0
   -5.0223   -1.7075   -1.8450 H   0  0  0  0  0  0  0  0  0  0  0  0
    1.7839    2.5057    1.2190 H   0  0  0  0  0  0  0  0  0  0  0  0
    4.1535    2.1372    0.7720 H   0  0  0  0  0  0  0  0  0  0  0  0
  1  2  1  0
  2  3  2  0
  2  4  1  0
  4  5  1  0
  5  6  2  0
  6  7  1  0
  7  8  2  0
  8  9  1  0
  9 10  2  0
  9 11  1  0
 11 12  1  0
 12 13  2  3
 13 14  1  0
 14 15  2  0
 15 16  1  0
 16 17  2  0
 17 18  1  0
 17 19  1  0
 19 20  2  0
  8 21  1  0
 21 22  2  0
 22  5  1  0
 20 14  1  0
  1 23  1  0
  1 24  1  0
  1 25  1  0
  4 26  1  0
  6 27  1  0
  7 28  1  0
 11 29  1  0
 13 30  1  0
 15 31  1  0
 16 32  1  0
 19 33  1  0
 20 34  1  0
 21 35  1  0
 22 36  1  0
M  END
$$$$
