
     RDKit          3D

 49 53  0  0  0  0  0  0  0  0999 V2000
   -6.6025   -1.1912    1.0223 C   0  0  0  0  0  0  0  0  0  0  0  0
   -5.3876   -0.7470    0.2606 C   0  0  0  0  0  0  0  0  0  0  0  0
   -5.4558    0.3610   -0.5975 C   0  0  0  0  0  0  0  0  0  0  0  0
   -4.3443    0.7552   -1.3464 C   0  0  0  0  0  0  0  0  0  0  0  0
   -3.1494    0.0434   -1.2510 C   0  0  0  0  0  0  0  0  0  0  0  0
   -3.0751   -1.0573   -0.3920 C   0  0  0  0  0  0  0  0  0  0  0  0
   -1.5744   -1.9879   -0.2854 S   0  0  0  0  0  6  0  0  0  0  0  0
   -0.7154   -1.6581   -1.4049 O   0  0  0  0  0  0  0  0  0  0  0  0
   -1.9221   -3.3681   -0.0227 O   0  0  0  0  0  0  0  0  0  0  0  0
   -0.8453   -1.4157    1.1137 N   0  0  0  0  0  0  0  0  0  0  0  0
   -0.2851   -0.1149    1.0146 C   0  0  0  0  0  0  0  0  0  0  0  0
   -1.0797    0.8405    1.5316 N   0  0  0  0  0  0  0  0  0  0  0  0
   -0.5844    2.0891    1.5036 C   0  0  0  0  0  0  0  0  0  0  0  0
   -1.3347    3.1300    2.0332 C   0  0  0  0  0  0  0  0  0  0  0  0
   -0.8529    4.4396    2.0461 C   0  0  0  0  0  0  0  0  0  0  0  0
    0.4020    4.7139    1.5158 C   0  0  0  0  0  0  0  0  0  0  0  0
    1.1606    3.6775    0.9713 C   0  0  0  0  0  0  0  0  0  0  0  0
    0.6923    2.3691    0.9553 C   0  0  0  0  0  0  0  0  0  0  0  0
    1.4606    1.3980    0.4247 N   0  0  0  0  0  0  0  0  0  0  0  0
    0.9747    0.1382    0.4341 C   0  0  0  0  0  0  0  0  0  0  0  0
    1.7023   -0.9384   -0.1396 N   0  0  0  0  0  0  0  0  0  0  0  0
    3.0649   -0.9711   -0.5198 C   0  0  0  0  0  0  0  0  0  0  0  0
    4.0535   -0.2030    0.1388 C   0  0  0  0  0  0  0  0  0  0  0  0
    5.4109   -0.3197   -0.1838 C   0  0  0  0  0  0  0  0  0  0  0  0
    5.7602   -1.2308   -1.1517 C   0  0  0  0  0  0  0  0  0  0  0  0
    4.8174   -2.0045   -1.7841 C   0  0  0  0  0  0  0  0  0  0  0  0
    3.4726   -1.9078   -1.4840 C   0  0  0  0  0  0  0  0  0  0  0  0
    5.3708   -2.8505   -2.6949 O   0  0  0  0  0  0  0  0  0  0  0  0
    6.7690   -2.5322   -2.5471 C   0  0  0  0  0  0  0  0  0  0  0  0
    7.0245   -1.4919   -1.5809 O   0  0  0  0  0  0  0  0  0  0  0  0
   -4.1893   -1.4656    0.3499 C   0  0  0  0  0  0  0  0  0  0  0  0
   -6.3232   -1.7987    1.8874 H   0  0  0  0  0  0  0  0  0  0  0  0
   -7.2496   -1.7860    0.3692 H   0  0  0  0  0  0  0  0  0  0  0  0
   -7.1639   -0.3284    1.3954 H   0  0  0  0  0  0  0  0  0  0  0  0
   -6.3850    0.9230   -0.6916 H   0  0  0  0  0  0  0  0  0  0  0  0
   -4.4147    1.6144   -2.0085 H   0  0  0  0  0  0  0  0  0  0  0  0
   -2.2924    0.3539   -1.8421 H   0  0  0  0  0  0  0  0  0  0  0  0
   -0.2144   -2.1148    1.4995 H   0  0  0  0  0  0  0  0  0  0  0  0
   -2.3140    2.9134    2.4528 H   0  0  0  0  0  0  0  0  0  0  0  0
   -1.4529    5.2369    2.4736 H   0  0  0  0  0  0  0  0  0  0  0  0
    0.7936    5.7284    1.5272 H   0  0  0  0  0  0  0  0  0  0  0  0
    2.1450    3.8909    0.5594 H   0  0  0  0  0  0  0  0  0  0  0  0
    1.1047   -1.3667   -0.8564 H   0  0  0  0  0  0  0  0  0  0  0  0
    3.7716    0.4942    0.9235 H   0  0  0  0  0  0  0  0  0  0  0  0
    6.1609    0.2780    0.3222 H   0  0  0  0  0  0  0  0  0  0  0  0
    2.7583   -2.5494   -1.9906 H   0  0  0  0  0  0  0  0  0  0  0  0
    7.1627   -2.2127   -3.5165 H   0  0  0  0  0  0  0  0  0  0  0  0
    7.2985   -3.4377   -2.2333 H   0  0  0  0  0  0  0  0  0  0  0  0
   -4.1235   -2.3388    0.9984 H   0  0  0  0  0  0  0  0  0  0  0  0
  1  2  1  0
  2  3  2  0
  3  4  1  0
  4  5  2  0
  5  6  1  0
  6  7  1  0
  7  8  2  0
  7  9  2  0
  7 10  1  0
 10 11  1  0
 11 12  2  0
 12 13  1  0
 13 14  2  0
 14 15  1  0
 15 16  2  0
 16 17  1  0
 17 18  2  0
 18 19  1  0
 19 20  2  0
 20 21  1  0
 21 22  1  0
 22 23  2  0
 23 24  1  0
 24 25  2  0
 25 26  1  0
 26 27  2  0
 26 28  1  0
 28 29  1  0
 29 30  1  0
  6 31  2  0
 31  2  1  0
 20 11  1  0
 27 22  1  0
 18 13  1  0
 30 25  1  0
  1 32  1  0
  1 33  1  0
  1 34  1  0
  3 35  1  0
  4 36  1  0
  5 37  1  0
 10 38  1  0
 14 39  1  0
 15 40  1  0
 16 41  1  0
 17 42  1  0
 21 43  1  0
 23 44  1  0
 24 45  1  0
 27 46  1  0
 29 47  1  0
 29 48  1  0
 31 49  1  0
M  END
$$$$
