
     RDKit          3D

 56 61  0  0  0  0  0  0  0  0999 V2000
   -4.9099   -3.3914    0.5512 C   0  0  0  0  0  0  0  0  0  0  0  0
   -3.8884   -2.4163    1.0552 C   0  0  0  0  0  0  0  0  0  0  0  0
   -4.0680   -1.7229    2.2672 C   0  0  0  0  0  0  0  0  0  0  0  0
   -5.4846   -1.9577    3.2329 Cl  0  0  0  0  0  0  0  0  0  0  0  0
   -3.1083   -0.8084    2.7444 C   0  0  0  0  0  0  0  0  0  0  0  0
   -1.9367   -0.5606    2.0286 C   0  0  0  0  0  0  0  0  0  0  0  0
   -1.7487   -1.2376    0.8341 C   0  0  0  0  0  0  0  0  0  0  0  0
   -2.7121   -2.1451    0.3667 C   0  0  0  0  0  0  0  0  0  0  0  0
   -2.2951   -2.6820   -0.8487 N   0  0  0  0  0  0  0  0  0  0  0  0
   -1.0527   -2.1803   -1.2459 C   0  0  0  0  0  0  0  0  0  0  0  0
   -0.4849   -2.4868   -2.2832 O   0  0  0  0  0  0  0  0  0  0  0  0
   -0.6032   -1.1895   -0.1387 C   0  0  0  0  0  0  0  0  0  0  0  0
    0.7259   -1.5655    0.4376 N   0  0  0  0  0  0  0  0  0  0  0  0
    1.7710   -0.6507   -0.1619 C   0  0  2  0  0  0  0  0  0  0  0  0
    2.8692   -0.2475    0.8395 C   0  0  0  0  0  0  0  0  0  0  0  0
    3.6689   -1.4070    1.3892 C   0  0  0  0  0  0  0  0  0  0  0  0
    3.6342   -1.7091    2.7578 C   0  0  0  0  0  0  0  0  0  0  0  0
    4.3770   -2.7757    3.2672 C   0  0  0  0  0  0  0  0  0  0  0  0
    5.1640   -3.5482    2.4159 C   0  0  0  0  0  0  0  0  0  0  0  0
    5.2113   -3.2534    1.0551 C   0  0  0  0  0  0  0  0  0  0  0  0
    4.4703   -2.1867    0.5439 C   0  0  0  0  0  0  0  0  0  0  0  0
    0.9482    0.4970   -0.6130 C   0  0  0  0  0  0  0  0  0  0  0  0
   -0.4102    0.1896   -0.6142 C   0  0  0  0  0  0  0  0  0  0  0  0
   -1.1068    1.2762   -1.0809 C   0  0  0  0  0  0  0  0  0  0  0  0
   -2.4173    1.4567   -1.2269 O   0  0  0  0  0  0  0  0  0  0  0  0
   -0.1650    2.2948   -1.3343 N   0  0  0  0  0  0  0  0  0  0  0  0
   -0.4543    3.6432   -1.7185 C   0  0  0  0  0  0  0  0  0  0  0  0
    0.3784    4.6910   -1.2948 C   0  0  0  0  0  0  0  0  0  0  0  0
    0.1023    6.0083   -1.6696 C   0  0  0  0  0  0  0  0  0  0  0  0
   -1.0060    6.2910   -2.4640 C   0  0  0  0  0  0  0  0  0  0  0  0
   -1.8446    5.2585   -2.8782 C   0  0  0  0  0  0  0  0  0  0  0  0
   -1.5750    3.9392   -2.5039 C   0  0  0  0  0  0  0  0  0  0  0  0
    1.1196    1.7578   -1.1112 C   0  0  0  0  0  0  0  0  0  0  0  0
    2.2645    2.3724   -1.4044 O   0  0  0  0  0  0  0  0  0  0  0  0
   -5.8731   -2.8916    0.4043 H   0  0  0  0  0  0  0  0  0  0  0  0
   -4.6298   -3.8334   -0.4089 H   0  0  0  0  0  0  0  0  0  0  0  0
   -5.0313   -4.2150    1.2625 H   0  0  0  0  0  0  0  0  0  0  0  0
   -3.2773   -0.2856    3.6839 H   0  0  0  0  0  0  0  0  0  0  0  0
   -1.2021    0.1486    2.3987 H   0  0  0  0  0  0  0  0  0  0  0  0
   -2.7858   -3.3666   -1.4039 H   0  0  0  0  0  0  0  0  0  0  0  0
    0.6990   -1.3675    1.4344 H   0  0  0  0  0  0  0  0  0  0  0  0
    2.2032   -1.1572   -1.0331 H   0  0  0  0  0  0  0  0  0  0  0  0
    2.4247    0.3192    1.6696 H   0  0  0  0  0  0  0  0  0  0  0  0
    3.5714    0.4474    0.3597 H   0  0  0  0  0  0  0  0  0  0  0  0
    3.0298   -1.1156    3.4391 H   0  0  0  0  0  0  0  0  0  0  0  0
    4.3421   -3.0036    4.3291 H   0  0  0  0  0  0  0  0  0  0  0  0
    5.7412   -4.3792    2.8123 H   0  0  0  0  0  0  0  0  0  0  0  0
    5.8253   -3.8544    0.3896 H   0  0  0  0  0  0  0  0  0  0  0  0
    4.5229   -1.9698   -0.5208 H   0  0  0  0  0  0  0  0  0  0  0  0
   -2.8730    0.6499   -0.9294 H   0  0  0  0  0  0  0  0  0  0  0  0
    1.2186    4.5152   -0.6263 H   0  0  0  0  0  0  0  0  0  0  0  0
    0.7445    6.8163   -1.3277 H   0  0  0  0  0  0  0  0  0  0  0  0
   -1.2223    7.3162   -2.7531 H   0  0  0  0  0  0  0  0  0  0  0  0
   -2.7119    5.4776   -3.4960 H   0  0  0  0  0  0  0  0  0  0  0  0
   -2.2374    3.1581   -2.8671 H   0  0  0  0  0  0  0  0  0  0  0  0
    2.0880    3.0379   -2.0947 H   0  0  0  0  0  0  0  0  0  0  0  0
  1  2  1  0
  2  3  2  0
  3  4  1  0
  3  5  1  0
  5  6  2  0
  6  7  1  0
  7  8  2  0
  8  9  1  0
  9 10  1  0
 10 11  2  0
 10 12  1  0
 12 13  1  0
 13 14  1  0
 14 15  1  0
 15 16  1  0
 16 17  2  0
 17 18  1  0
 18 19  2  0
 19 20  1  0
 20 21  2  0
 14 22  1  0
 22 23  1  0
 23 24  2  0
 24 25  1  0
 24 26  1  0
 26 27  1  0
 27 28  2  0
 28 29  1  0
 29 30  2  0
 30 31  1  0
 31 32  2  0
 26 33  1  0
 33 34  1  0
  8  2  1  0
 23 12  1  0
 32 27  1  0
 12  7  1  0
 21 16  1  0
 33 22  2  0
  1 35  1  0
  1 36  1  0
  1 37  1  0
  5 38  1  0
  6 39  1  0
  9 40  1  0
 13 41  1  0
 14 42  1  6
 15 43  1  0
 15 44  1  0
 17 45  1  0
 18 46  1  0
 19 47  1  0
 20 48  1  0
 21 49  1  0
 25 50  1  0
 28 51  1  0
 29 52  1  0
 30 53  1  0
 31 54  1  0
 32 55  1  0
 34 56  1  0
M  END
$$$$
