
     RDKit          3D

 63 66  0  0  0  0  0  0  0  0999 V2000
   -6.0634    3.6067    0.0049 C   0  0  0  0  0  0  0  0  0  0  0  0
   -4.7730    3.2112   -0.7170 C   0  0  0  0  0  0  0  0  0  0  0  0
   -3.5792    3.1537    0.2417 C   0  0  0  0  0  0  0  0  0  0  0  0
   -3.6077    1.9208    1.1481 C   0  0  0  0  0  0  0  0  0  0  0  0
   -3.6982    0.6780    0.3655 N   0  0  0  0  0  0  0  0  0  0  0  0
   -3.6411   -0.4884    1.2600 C   0  0  0  0  0  0  0  0  0  0  0  0
   -3.0805   -1.6609    0.5365 C   0  0  0  0  0  0  0  0  0  0  0  0
   -1.7604   -1.9198    0.1929 C   0  0  0  0  0  0  0  0  0  0  0  0
   -0.5643   -1.1355    0.4993 C   0  0  0  0  0  0  0  0  0  0  0  0
   -0.5653   -0.1931    1.2859 O   0  0  0  0  0  0  0  0  0  0  0  0
    0.5532   -1.6084   -0.1763 N   0  0  0  0  0  0  0  0  0  0  0  0
    1.7718   -1.0204   -0.0107 N   0  0  0  0  0  0  0  0  0  0  0  0
    2.7391   -1.5450   -0.6925 C   0  0  0  0  0  0  0  0  0  0  0  0
    4.1146   -1.0147   -0.6188 C   0  0  0  0  0  0  0  0  0  0  0  0
    5.1149   -1.6179   -1.3812 C   0  0  0  0  0  0  0  0  0  0  0  0
    6.4198   -1.1220   -1.3189 C   0  0  0  0  0  0  0  0  0  0  0  0
    6.7352   -0.0277   -0.5056 C   0  0  0  0  0  0  0  0  0  0  0  0
    8.0498    0.3410   -0.5455 O   0  0  0  0  0  0  0  0  0  0  0  0
    8.4637    1.5330    0.1306 C   0  0  0  0  0  0  0  0  0  0  0  0
    9.6802    2.0645   -0.6244 C   0  0  0  0  0  0  0  0  0  0  0  0
    8.8468    1.2072    1.5714 C   0  0  0  0  0  0  0  0  0  0  0  0
    5.7296    0.5655    0.2577 C   0  0  0  0  0  0  0  0  0  0  0  0
    4.4200    0.0748    0.2008 C   0  0  0  0  0  0  0  0  0  0  0  0
   -1.7015   -3.0868   -0.5223 N   0  0  0  0  0  0  0  0  0  0  0  0
   -2.9233   -3.5779   -0.6121 N   0  0  0  0  0  0  0  0  0  0  0  0
   -3.7939   -2.7492    0.0429 N   0  0  0  0  0  0  0  0  0  0  0  0
   -5.1759   -3.0655    0.1171 C   0  0  0  0  0  0  0  0  0  0  0  0
   -6.0447   -2.2647    0.7344 N   0  0  0  0  0  0  0  0  0  0  0  0
   -7.2725   -2.9038    0.5775 O   0  0  0  0  0  0  0  0  0  0  0  0
   -7.1366   -4.0889   -0.1355 N   0  0  0  0  0  0  0  0  0  0  0  0
   -5.8372   -4.1932   -0.4099 C   0  0  0  0  0  0  0  0  0  0  0  0
   -5.2858   -5.2210   -1.0817 N   0  0  0  0  0  0  0  0  0  0  0  0
   -4.9005    0.6741   -0.4792 C   0  0  0  0  0  0  0  0  0  0  0  0
   -4.9135    1.8672   -1.4393 C   0  0  0  0  0  0  0  0  0  0  0  0
   -6.8939    3.6779   -0.7055 H   0  0  0  0  0  0  0  0  0  0  0  0
   -5.9512    4.5857    0.4830 H   0  0  0  0  0  0  0  0  0  0  0  0
   -6.3471    2.8879    0.7791 H   0  0  0  0  0  0  0  0  0  0  0  0
   -4.5747    3.9868   -1.4678 H   0  0  0  0  0  0  0  0  0  0  0  0
   -2.6531    3.1357   -0.3483 H   0  0  0  0  0  0  0  0  0  0  0  0
   -3.5385    4.0616    0.8552 H   0  0  0  0  0  0  0  0  0  0  0  0
   -4.4381    1.9937    1.8616 H   0  0  0  0  0  0  0  0  0  0  0  0
   -2.6803    1.9231    1.7342 H   0  0  0  0  0  0  0  0  0  0  0  0
   -4.6013   -0.6719    1.7469 H   0  0  0  0  0  0  0  0  0  0  0  0
   -2.9599   -0.2870    2.0979 H   0  0  0  0  0  0  0  0  0  0  0  0
    0.4480   -2.4092   -0.7916 H   0  0  0  0  0  0  0  0  0  0  0  0
    2.5767   -2.4111   -1.3595 H   0  0  0  0  0  0  0  0  0  0  0  0
    4.8990   -2.4665   -2.0237 H   0  0  0  0  0  0  0  0  0  0  0  0
    7.2025   -1.5903   -1.9117 H   0  0  0  0  0  0  0  0  0  0  0  0
    7.6937    2.3120    0.0917 H   0  0  0  0  0  0  0  0  0  0  0  0
    9.4164    2.2820   -1.6651 H   0  0  0  0  0  0  0  0  0  0  0  0
   10.4835    1.3197   -0.6533 H   0  0  0  0  0  0  0  0  0  0  0  0
   10.0653    2.9796   -0.1645 H   0  0  0  0  0  0  0  0  0  0  0  0
    9.2177    2.0955    2.0921 H   0  0  0  0  0  0  0  0  0  0  0  0
    9.6217    0.4330    1.6042 H   0  0  0  0  0  0  0  0  0  0  0  0
    7.9920    0.8144    2.1303 H   0  0  0  0  0  0  0  0  0  0  0  0
    5.9237    1.4048    0.9165 H   0  0  0  0  0  0  0  0  0  0  0  0
    3.6440    0.5469    0.8010 H   0  0  0  0  0  0  0  0  0  0  0  0
   -4.3279   -5.1769   -1.4253 H   0  0  0  0  0  0  0  0  0  0  0  0
   -5.8864   -5.8719   -1.5759 H   0  0  0  0  0  0  0  0  0  0  0  0
   -4.9262   -0.2329   -1.0932 H   0  0  0  0  0  0  0  0  0  0  0  0
   -5.8106    0.6765    0.1329 H   0  0  0  0  0  0  0  0  0  0  0  0
   -4.0815    1.7587   -2.1480 H   0  0  0  0  0  0  0  0  0  0  0  0
   -5.8332    1.8495   -2.0361 H   0  0  0  0  0  0  0  0  0  0  0  0
  1  2  1  0
  2  3  1  0
  3  4  1  0
  4  5  1  0
  5  6  1  0
  6  7  1  0
  7  8  2  0
  8  9  1  0
  9 10  2  0
  9 11  1  0
 11 12  1  0
 12 13  2  3
 13 14  1  0
 14 15  2  0
 15 16  1  0
 16 17  2  0
 17 18  1  0
 18 19  1  0
 19 20  1  0
 19 21  1  0
 17 22  1  0
 22 23  2  0
  8 24  1  0
 24 25  2  0
 25 26  1  0
 26 27  1  0
 27 28  2  0
 28 29  1  0
 29 30  1  0
 30 31  2  0
 31 32  1  0
  5 33  1  0
 33 34  1  0
 34  2  1  0
 26  7  1  0
 31 27  1  0
 23 14  1  0
  1 35  1  0
  1 36  1  0
  1 37  1  0
  2 38  1  0
  3 39  1  0
  3 40  1  0
  4 41  1  0
  4 42  1  0
  6 43  1  0
  6 44  1  0
 11 45  1  0
 13 46  1  0
 15 47  1  0
 16 48  1  0
 19 49  1  0
 20 50  1  0
 20 51  1  0
 20 52  1  0
 21 53  1  0
 21 54  1  0
 21 55  1  0
 22 56  1  0
 23 57  1  0
 32 58  1  0
 32 59  1  0
 33 60  1  0
 33 61  1  0
 34 62  1  0
 34 63  1  0
M  END
$$$$
