
     RDKit          3D

 62 67  0  0  0  0  0  0  0  0999 V2000
   -2.6169   -0.2298    5.1195 C   0  0  0  0  0  0  0  0  0  0  0  0
   -2.8036   -0.3434    3.7155 O   0  0  0  0  0  0  0  0  0  0  0  0
   -2.9017   -1.6074    3.1894 C   0  0  0  0  0  0  0  0  0  0  0  0
   -2.6901   -2.7844    3.9169 C   0  0  0  0  0  0  0  0  0  0  0  0
   -2.7927   -4.0322    3.2948 C   0  0  0  0  0  0  0  0  0  0  0  0
   -3.1032   -4.1181    1.9413 C   0  0  0  0  0  0  0  0  0  0  0  0
   -3.3147   -2.9542    1.2052 C   0  0  0  0  0  0  0  0  0  0  0  0
   -3.2202   -1.6943    1.8185 C   0  0  0  0  0  0  0  0  0  0  0  0
   -3.4451   -0.4948    1.0015 C   0  0  0  0  0  0  0  0  0  0  0  0
   -5.0097    0.1908    0.9820 S   0  0  0  0  0  0  0  0  0  0  0  0
   -4.5457    1.4438   -0.1017 C   0  0  0  0  0  0  0  0  0  0  0  0
   -5.3783    2.4711   -0.5981 C   0  0  0  0  0  0  0  0  0  0  0  0
   -4.7946    3.3785   -1.4578 C   0  0  0  0  0  0  0  0  0  0  0  0
   -3.4782    3.2987   -1.8205 C   0  0  0  0  0  0  0  0  0  0  0  0
   -2.6467    2.3016   -1.3497 C   0  0  0  0  0  0  0  0  0  0  0  0
   -3.1922    1.3354   -0.4594 C   0  0  0  0  0  0  0  0  0  0  0  0
   -2.5696    0.1997    0.1851 C   0  0  0  0  0  0  0  0  0  0  0  0
   -1.1808   -0.2132    0.0279 C   0  0  0  0  0  0  0  0  0  0  0  0
   -0.7671   -0.8400   -1.1503 C   0  0  0  0  0  0  0  0  0  0  0  0
    0.5681   -1.2192   -1.3045 C   0  0  0  0  0  0  0  0  0  0  0  0
    1.5014   -0.9705   -0.2942 C   0  0  0  0  0  0  0  0  0  0  0  0
    2.7723   -1.3854   -0.5795 O   0  0  0  0  0  0  0  0  0  0  0  0
    3.8006   -1.0171    0.3402 C   0  0  0  0  0  0  0  0  0  0  0  0
    5.1765   -1.4682   -0.1954 C   0  0  0  0  0  0  0  0  0  0  0  0
    5.7537   -0.7649   -1.3518 N   0  0  0  0  0  0  0  0  0  0  0  0
    6.1136    0.6363   -1.0800 C   0  0  0  0  0  0  0  0  0  0  0  0
    6.3474    1.4134   -2.3850 C   0  0  0  0  0  0  0  0  0  0  0  0
    5.1661    1.5080   -3.1936 O   0  0  0  0  0  0  0  0  0  0  0  0
    4.2671    0.4025   -3.0130 C   0  0  0  0  0  0  0  0  0  0  0  0
    4.9795   -0.8953   -2.5990 C   0  0  0  0  0  0  0  0  0  0  0  0
    1.0860   -0.3481    0.8838 C   0  0  0  0  0  0  0  0  0  0  0  0
   -0.2510    0.0321    1.0433 C   0  0  0  0  0  0  0  0  0  0  0  0
   -3.1105    4.2937   -2.6725 O   0  0  0  0  0  0  0  0  0  0  0  0
   -4.3538    5.0129   -2.8016 C   0  0  0  0  0  0  0  0  0  0  0  0
   -5.4299    4.4349   -2.0358 O   0  0  0  0  0  0  0  0  0  0  0  0
   -3.4291   -0.7163    5.6706 H   0  0  0  0  0  0  0  0  0  0  0  0
   -1.6405   -0.6262    5.4187 H   0  0  0  0  0  0  0  0  0  0  0  0
   -2.6350    0.8341    5.3728 H   0  0  0  0  0  0  0  0  0  0  0  0
   -2.4370   -2.7667    4.9711 H   0  0  0  0  0  0  0  0  0  0  0  0
   -2.6252   -4.9393    3.8700 H   0  0  0  0  0  0  0  0  0  0  0  0
   -3.1790   -5.0887    1.4585 H   0  0  0  0  0  0  0  0  0  0  0  0
   -3.5543   -3.0285    0.1472 H   0  0  0  0  0  0  0  0  0  0  0  0
   -6.4218    2.5445   -0.3158 H   0  0  0  0  0  0  0  0  0  0  0  0
   -1.6047    2.2639   -1.6501 H   0  0  0  0  0  0  0  0  0  0  0  0
   -1.4771   -1.0384   -1.9496 H   0  0  0  0  0  0  0  0  0  0  0  0
    0.8842   -1.7092   -2.2221 H   0  0  0  0  0  0  0  0  0  0  0  0
    3.6267   -1.5359    1.2907 H   0  0  0  0  0  0  0  0  0  0  0  0
    3.7931    0.0623    0.5213 H   0  0  0  0  0  0  0  0  0  0  0  0
    5.8985   -1.3993    0.6283 H   0  0  0  0  0  0  0  0  0  0  0  0
    5.1174   -2.5343   -0.4494 H   0  0  0  0  0  0  0  0  0  0  0  0
    5.3200    1.1487   -0.5261 H   0  0  0  0  0  0  0  0  0  0  0  0
    7.0223    0.6636   -0.4684 H   0  0  0  0  0  0  0  0  0  0  0  0
    7.1352    0.9454   -2.9856 H   0  0  0  0  0  0  0  0  0  0  0  0
    6.6727    2.4344   -2.1620 H   0  0  0  0  0  0  0  0  0  0  0  0
    3.5197    0.6960   -2.2679 H   0  0  0  0  0  0  0  0  0  0  0  0
    3.7393    0.2545   -3.9605 H   0  0  0  0  0  0  0  0  0  0  0  0
    5.7003   -1.1487   -3.3869 H   0  0  0  0  0  0  0  0  0  0  0  0
    4.2743   -1.7325   -2.5664 H   0  0  0  0  0  0  0  0  0  0  0  0
    1.7711   -0.1458    1.6997 H   0  0  0  0  0  0  0  0  0  0  0  0
   -0.5644    0.5185    1.9651 H   0  0  0  0  0  0  0  0  0  0  0  0
   -4.6435    5.0267   -3.8585 H   0  0  0  0  0  0  0  0  0  0  0  0
   -4.1990    6.0445   -2.4659 H   0  0  0  0  0  0  0  0  0  0  0  0
  1  2  1  0
  2  3  1  0
  3  4  2  0
  4  5  1  0
  5  6  2  0
  6  7  1  0
  7  8  2  0
  8  9  1  0
  9 10  1  0
 10 11  1  0
 11 12  2  0
 12 13  1  0
 13 14  2  0
 14 15  1  0
 15 16  2  0
 16 17  1  0
 17 18  1  0
 18 19  2  0
 19 20  1  0
 20 21  2  0
 21 22  1  0
 22 23  1  0
 23 24  1  0
 24 25  1  0
 25 26  1  0
 26 27  1  0
 27 28  1  0
 28 29  1  0
 29 30  1  0
 21 31  1  0
 31 32  2  0
 14 33  1  0
 33 34  1  0
 34 35  1  0
  8  3  1  0
 17  9  2  0
 32 18  1  0
 16 11  1  0
 30 25  1  0
 35 13  1  0
  1 36  1  0
  1 37  1  0
  1 38  1  0
  4 39  1  0
  5 40  1  0
  6 41  1  0
  7 42  1  0
 12 43  1  0
 15 44  1  0
 19 45  1  0
 20 46  1  0
 23 47  1  0
 23 48  1  0
 24 49  1  0
 24 50  1  0
 26 51  1  0
 26 52  1  0
 27 53  1  0
 27 54  1  0
 29 55  1  0
 29 56  1  0
 30 57  1  0
 30 58  1  0
 31 59  1  0
 32 60  1  0
 34 61  1  0
 34 62  1  0
M  END
$$$$
