
     RDKit          3D

 84 89  0  0  0  0  0  0  0  0999 V2000
    8.7450    4.8090    1.8123 C   0  0  0  0  0  0  0  0  0  0  0  0
    8.8191    3.6283    1.0097 O   0  0  0  0  0  0  0  0  0  0  0  0
    7.6768    3.3549    0.3186 C   0  0  0  0  0  0  0  0  0  0  0  0
    6.6463    4.0107    0.3734 O   0  0  0  0  0  0  0  0  0  0  0  0
    7.8781    2.1061   -0.5106 C   0  0  0  0  0  0  0  0  0  0  0  0
    6.8122    1.9795   -1.5976 C   0  0  0  0  0  0  0  0  0  0  0  0
    7.1078    0.8732   -2.6088 C   0  0  0  0  0  0  0  0  0  0  0  0
    7.1774   -0.5537   -2.0548 C   0  0  0  0  0  0  0  0  0  0  0  0
    5.8423   -1.0983   -1.5346 C   0  0  0  0  0  0  0  0  0  0  0  0
    5.6778   -0.9624   -0.0178 C   0  0  0  0  0  0  0  0  0  0  0  0
    4.4100   -1.6491    0.4976 C   0  0  0  0  0  0  0  0  0  0  0  0
    3.1259   -0.8915    0.1466 C   0  0  0  0  0  0  0  0  0  0  0  0
    1.8818   -1.6649    0.5601 C   0  0  0  0  0  0  0  0  0  0  0  0
    1.9565   -2.7968    1.0357 O   0  0  0  0  0  0  0  0  0  0  0  0
    0.6627   -1.0385    0.3513 N   0  0  0  0  0  0  0  0  0  0  0  0
    0.5012    0.3274   -0.1605 C   0  0  0  0  0  0  0  0  0  0  0  0
   -0.9717    0.6910   -0.4549 C   0  0  0  0  0  0  0  0  0  0  0  0
   -1.8172    0.4971    0.7230 N   0  0  0  0  0  0  0  0  0  0  0  0
   -1.6156   -0.8548    1.3719 C   0  0  2  0  0  0  0  0  0  0  0  0
   -0.5711   -1.7554    0.6801 C   0  0  0  0  0  0  0  0  0  0  0  0
   -2.9736   -1.4433    1.3510 C   0  0  0  0  0  0  0  0  0  0  0  0
   -3.9149   -0.5386    0.8672 C   0  0  0  0  0  0  0  0  0  0  0  0
   -5.1492   -1.1300    0.9131 C   0  0  0  0  0  0  0  0  0  0  0  0
   -6.3385   -0.5721    0.6916 O   0  0  0  0  0  0  0  0  0  0  0  0
   -4.9558   -2.4699    1.3088 N   0  0  0  0  0  0  0  0  0  0  0  0
   -5.9539   -3.4964    1.3067 C   0  0  0  0  0  0  0  0  0  0  0  0
   -6.9822   -3.4719    0.3516 C   0  0  0  0  0  0  0  0  0  0  0  0
   -7.9572   -4.4729    0.3381 C   0  0  0  0  0  0  0  0  0  0  0  0
   -7.9147   -5.5039    1.2733 C   0  0  0  0  0  0  0  0  0  0  0  0
   -6.8890   -5.5428    2.2152 C   0  0  0  0  0  0  0  0  0  0  0  0
   -5.9086   -4.5466    2.2323 C   0  0  0  0  0  0  0  0  0  0  0  0
   -3.6059   -2.6122    1.6831 C   0  0  0  0  0  0  0  0  0  0  0  0
   -3.1079   -3.7366    2.1882 O   0  0  0  0  0  0  0  0  0  0  0  0
   -3.2897    0.7657    0.5724 C   0  0  1  0  0  0  0  0  0  0  0  0
   -3.7047    1.8751    1.5896 C   0  0  0  0  0  0  0  0  0  0  0  0
   -3.5257    1.9133    2.7995 O   0  0  0  0  0  0  0  0  0  0  0  0
   -4.3300    2.8835    0.8582 N   0  0  0  0  0  0  0  0  0  0  0  0
   -4.4310    2.5578   -0.4925 C   0  0  0  0  0  0  0  0  0  0  0  0
   -3.8428    1.3020   -0.7237 C   0  0  0  0  0  0  0  0  0  0  0  0
   -3.8801    0.7415   -1.9925 C   0  0  0  0  0  0  0  0  0  0  0  0
   -4.4775    1.4710   -3.0231 C   0  0  0  0  0  0  0  0  0  0  0  0
   -5.0412    2.7388   -2.7784 C   0  0  0  0  0  0  0  0  0  0  0  0
   -5.7441    3.5661   -4.1263 Cl  0  0  0  0  0  0  0  0  0  0  0  0
   -5.0423    3.3083   -1.4921 C   0  0  0  0  0  0  0  0  0  0  0  0
   -5.6649    4.6469   -1.2238 C   0  0  0  0  0  0  0  0  0  0  0  0
    7.9249    4.7382    2.5373 H   0  0  0  0  0  0  0  0  0  0  0  0
    8.6244    5.6909    1.1734 H   0  0  0  0  0  0  0  0  0  0  0  0
    9.6835    4.9040    2.3639 H   0  0  0  0  0  0  0  0  0  0  0  0
    7.8566    1.2450    0.1655 H   0  0  0  0  0  0  0  0  0  0  0  0
    8.8673    2.1662   -0.9818 H   0  0  0  0  0  0  0  0  0  0  0  0
    6.7477    2.9285   -2.1472 H   0  0  0  0  0  0  0  0  0  0  0  0
    5.8234    1.8319   -1.1480 H   0  0  0  0  0  0  0  0  0  0  0  0
    8.0625    1.0961   -3.1025 H   0  0  0  0  0  0  0  0  0  0  0  0
    6.3449    0.9099   -3.3960 H   0  0  0  0  0  0  0  0  0  0  0  0
    7.9648   -0.6447   -1.2982 H   0  0  0  0  0  0  0  0  0  0  0  0
    7.4895   -1.1968   -2.8895 H   0  0  0  0  0  0  0  0  0  0  0  0
    5.0112   -0.6208   -2.0643 H   0  0  0  0  0  0  0  0  0  0  0  0
    5.7979   -2.1681   -1.7818 H   0  0  0  0  0  0  0  0  0  0  0  0
    5.6724    0.0891    0.2847 H   0  0  0  0  0  0  0  0  0  0  0  0
    6.5402   -1.4310    0.4722 H   0  0  0  0  0  0  0  0  0  0  0  0
    4.3670   -2.6750    0.1113 H   0  0  0  0  0  0  0  0  0  0  0  0
    4.4774   -1.7367    1.5902 H   0  0  0  0  0  0  0  0  0  0  0  0
    3.0691   -0.7264   -0.9329 H   0  0  0  0  0  0  0  0  0  0  0  0
    3.1321    0.0796    0.6526 H   0  0  0  0  0  0  0  0  0  0  0  0
    1.0952    0.4363   -1.0735 H   0  0  0  0  0  0  0  0  0  0  0  0
    0.9115    1.0078    0.5931 H   0  0  0  0  0  0  0  0  0  0  0  0
   -1.0089    1.7383   -0.7775 H   0  0  0  0  0  0  0  0  0  0  0  0
   -1.3090    0.0655   -1.2892 H   0  0  0  0  0  0  0  0  0  0  0  0
   -1.3066   -0.6687    2.4087 H   0  0  0  0  0  0  0  0  0  0  0  0
   -0.3619   -2.6236    1.3162 H   0  0  0  0  0  0  0  0  0  0  0  0
   -0.9615   -2.1521   -0.2684 H   0  0  0  0  0  0  0  0  0  0  0  0
   -7.0108   -1.0869    1.1719 H   0  0  0  0  0  0  0  0  0  0  0  0
   -7.0160   -2.7144   -0.4296 H   0  0  0  0  0  0  0  0  0  0  0  0
   -8.7458   -4.4521   -0.4094 H   0  0  0  0  0  0  0  0  0  0  0  0
   -8.6732   -6.2814    1.2620 H   0  0  0  0  0  0  0  0  0  0  0  0
   -6.8527   -6.3480    2.9463 H   0  0  0  0  0  0  0  0  0  0  0  0
   -5.1417   -4.5987    3.0007 H   0  0  0  0  0  0  0  0  0  0  0  0
   -2.2186   -3.5437    2.5318 H   0  0  0  0  0  0  0  0  0  0  0  0
   -4.6970    3.7080    1.3055 H   0  0  0  0  0  0  0  0  0  0  0  0
   -3.4761   -0.2474   -2.1839 H   0  0  0  0  0  0  0  0  0  0  0  0
   -4.5110    1.0432   -4.0228 H   0  0  0  0  0  0  0  0  0  0  0  0
   -5.0927    5.4395   -1.7190 H   0  0  0  0  0  0  0  0  0  0  0  0
   -6.7002    4.6687   -1.5798 H   0  0  0  0  0  0  0  0  0  0  0  0
   -5.6996    4.8854   -0.1569 H   0  0  0  0  0  0  0  0  0  0  0  0
  1  2  1  0
  2  3  1  0
  3  4  2  0
  3  5  1  0
  5  6  1  0
  6  7  1  0
  7  8  1  0
  8  9  1  0
  9 10  1  0
 10 11  1  0
 11 12  1  0
 12 13  1  0
 13 14  2  0
 13 15  1  0
 15 16  1  0
 16 17  1  0
 17 18  1  0
 18 19  1  0
 19 20  1  0
 19 21  1  0
 21 22  1  0
 22 23  2  0
 23 24  1  0
 23 25  1  0
 25 26  1  0
 26 27  2  0
 27 28  1  0
 28 29  2  0
 29 30  1  0
 30 31  2  0
 25 32  1  0
 32 33  1  0
 22 34  1  0
 34 35  1  0
 35 36  2  0
 35 37  1  0
 37 38  1  0
 38 39  2  0
 39 40  1  0
 40 41  2  0
 41 42  1  0
 42 43  1  0
 42 44  2  0
 44 45  1  0
 20 15  1  0
 32 21  2  0
 39 34  1  0
 34 18  1  6
 44 38  1  0
 31 26  1  0
  1 46  1  0
  1 47  1  0
  1 48  1  0
  5 49  1  0
  5 50  1  0
  6 51  1  0
  6 52  1  0
  7 53  1  0
  7 54  1  0
  8 55  1  0
  8 56  1  0
  9 57  1  0
  9 58  1  0
 10 59  1  0
 10 60  1  0
 11 61  1  0
 11 62  1  0
 12 63  1  0
 12 64  1  0
 16 65  1  0
 16 66  1  0
 17 67  1  0
 17 68  1  0
 19 69  1  1
 20 70  1  0
 20 71  1  0
 24 72  1  0
 27 73  1  0
 28 74  1  0
 29 75  1  0
 30 76  1  0
 31 77  1  0
 33 78  1  0
 37 79  1  0
 40 80  1  0
 41 81  1  0
 45 82  1  0
 45 83  1  0
 45 84  1  0
M  END
$$$$
