
     RDKit          3D

 40 41  0  0  0  0  0  0  0  0999 V2000
   -6.5338    2.6420   -1.4883 C   0  0  0  0  0  0  0  0  0  0  0  0
   -5.2738    3.2324   -1.1933 O   0  0  0  0  0  0  0  0  0  0  0  0
   -4.4018    2.4906   -0.4466 C   0  0  0  0  0  0  0  0  0  0  0  0
   -3.1789    3.1156   -0.1872 C   0  0  0  0  0  0  0  0  0  0  0  0
   -2.1905    2.4733    0.5650 C   0  0  0  0  0  0  0  0  0  0  0  0
   -2.4206    1.1877    1.0671 C   0  0  0  0  0  0  0  0  0  0  0  0
   -1.4100    0.4483    1.8705 C   0  0  0  0  0  0  0  0  0  0  0  0
   -1.6151   -0.6452    2.3700 O   0  0  0  0  0  0  0  0  0  0  0  0
   -0.2491    1.1471    1.9390 O   0  0  0  0  0  0  0  0  0  0  0  0
    0.7820    0.5144    2.7027 C   0  0  0  0  0  0  0  0  0  0  0  0
    1.5750   -0.5435    1.9314 C   0  0  0  0  0  0  0  0  0  0  0  0
    2.2914   -1.3665    2.4943 O   0  0  0  0  0  0  0  0  0  0  0  0
    1.4744   -0.4469    0.5604 N   0  0  0  0  0  0  0  0  0  0  0  0
    2.1656   -1.3564   -0.3332 C   0  0  0  0  0  0  0  0  0  0  0  0
    3.6586   -1.0384   -0.4709 C   0  0  0  0  0  0  0  0  0  0  0  0
    4.2826   -1.8030   -1.5362 N   0  0  0  0  0  0  0  0  0  0  0  0
    4.8386   -3.0448   -1.3573 C   0  0  0  0  0  0  0  0  0  0  0  0
    4.8546   -3.5844   -0.1085 O   0  0  0  0  0  0  0  0  0  0  0  0
    5.3121   -3.6083   -2.4744 C   0  0  0  0  0  0  0  0  0  0  0  0
    5.0609   -2.5794   -3.8529 S   0  0  0  0  0  0  0  0  0  0  0  0
    4.2622   -1.3555   -2.8467 C   0  0  0  0  0  0  0  0  0  0  0  0
    3.7789   -0.3247   -3.2849 O   0  0  0  0  0  0  0  0  0  0  0  0
   -3.6473    0.5620    0.8092 C   0  0  0  0  0  0  0  0  0  0  0  0
   -4.6334    1.2101    0.0554 C   0  0  0  0  0  0  0  0  0  0  0  0
   -6.4129    1.7304   -2.0828 H   0  0  0  0  0  0  0  0  0  0  0  0
   -7.1014    2.4454   -0.5728 H   0  0  0  0  0  0  0  0  0  0  0  0
   -7.1058    3.3569   -2.0876 H   0  0  0  0  0  0  0  0  0  0  0  0
   -2.9954    4.1156   -0.5750 H   0  0  0  0  0  0  0  0  0  0  0  0
   -1.2546    2.9936    0.7502 H   0  0  0  0  0  0  0  0  0  0  0  0
    1.4881    1.2969    3.0001 H   0  0  0  0  0  0  0  0  0  0  0  0
    0.3757    0.0693    3.6183 H   0  0  0  0  0  0  0  0  0  0  0  0
    0.9079    0.2959    0.1677 H   0  0  0  0  0  0  0  0  0  0  0  0
    1.6643   -1.2843   -1.3046 H   0  0  0  0  0  0  0  0  0  0  0  0
    2.0302   -2.3803    0.0340 H   0  0  0  0  0  0  0  0  0  0  0  0
    3.7764    0.0275   -0.7047 H   0  0  0  0  0  0  0  0  0  0  0  0
    4.1914   -1.2085    0.4717 H   0  0  0  0  0  0  0  0  0  0  0  0
    5.2803   -4.4570   -0.1485 H   0  0  0  0  0  0  0  0  0  0  0  0
    5.7846   -4.5762   -2.5525 H   0  0  0  0  0  0  0  0  0  0  0  0
   -3.8439   -0.4376    1.1945 H   0  0  0  0  0  0  0  0  0  0  0  0
   -5.5676    0.6861   -0.1189 H   0  0  0  0  0  0  0  0  0  0  0  0
  1  2  1  0
  2  3  1  0
  3  4  2  0
  4  5  1  0
  5  6  2  0
  6  7  1  0
  7  8  2  0
  7  9  1  0
  9 10  1  0
 10 11  1  0
 11 12  2  0
 11 13  1  0
 13 14  1  0
 14 15  1  0
 15 16  1  0
 16 17  1  0
 17 18  1  0
 17 19  2  0
 19 20  1  0
 20 21  1  0
 21 22  2  0
  6 23  1  0
 23 24  2  0
 24  3  1  0
 21 16  1  0
  1 25  1  0
  1 26  1  0
  1 27  1  0
  4 28  1  0
  5 29  1  0
 10 30  1  0
 10 31  1  0
 13 32  1  0
 14 33  1  0
 14 34  1  0
 15 35  1  0
 15 36  1  0
 18 37  1  0
 19 38  1  0
 23 39  1  0
 24 40  1  0
M  END
$$$$
