
     RDKit          3D

 37 38  0  0  0  0  0  0  0  0999 V2000
    0.7670   -0.4693    0.3276 O   0  0  0  0  0  0  0  0  0  0  0  0
    0.6748   -0.4668   -0.8932 C   0  0  0  0  0  0  0  0  0  0  0  0
   -0.6290   -0.7829   -1.6138 C   0  0  0  0  0  0  0  0  0  0  0  0
   -1.8162   -0.9837   -0.6729 C   0  0  0  0  0  0  0  0  0  0  0  0
   -2.3075    0.3340   -0.0646 C   0  0  0  0  0  0  0  0  0  0  0  0
   -3.4902    0.1147    0.8456 C   0  0  0  0  0  0  0  0  0  0  0  0
   -3.2907   -0.2379    2.1872 C   0  0  0  0  0  0  0  0  0  0  0  0
   -4.3807   -0.4581    3.0301 C   0  0  0  0  0  0  0  0  0  0  0  0
   -5.6789   -0.3323    2.5392 C   0  0  0  0  0  0  0  0  0  0  0  0
   -5.8881    0.0120    1.2049 C   0  0  0  0  0  0  0  0  0  0  0  0
   -4.7990    0.2326    0.3600 C   0  0  0  0  0  0  0  0  0  0  0  0
    1.6975   -0.2025   -1.7913 N   0  0  0  0  0  0  0  0  0  0  0  0
    3.0363    0.1318   -1.4977 C   0  0  0  0  0  0  0  0  0  0  0  0
    3.8916    0.3349   -2.5917 C   0  0  0  0  0  0  0  0  0  0  0  0
    5.2355    0.6690   -2.4043 C   0  0  0  0  0  0  0  0  0  0  0  0
    5.7440    0.8060   -1.1157 C   0  0  0  0  0  0  0  0  0  0  0  0
    4.8955    0.6066   -0.0190 C   0  0  0  0  0  0  0  0  0  0  0  0
    5.4320    0.7532    1.3407 N   0  0  0  0  0  4  0  0  0  0  0  0
    4.6448    0.6550    2.2915 O   0  0  0  0  0  0  0  0  0  0  0  0
    6.6474    0.9700    1.4573 O   0  0  0  0  0  1  0  0  0  0  0  0
    3.5448    0.2706   -0.2038 C   0  0  0  0  0  0  0  0  0  0  0  0
   -0.4695   -1.7090   -2.1795 H   0  0  0  0  0  0  0  0  0  0  0  0
   -0.8465    0.0172   -2.3309 H   0  0  0  0  0  0  0  0  0  0  0  0
   -2.6350   -1.4430   -1.2417 H   0  0  0  0  0  0  0  0  0  0  0  0
   -1.5526   -1.6941    0.1208 H   0  0  0  0  0  0  0  0  0  0  0  0
   -2.5864    1.0340   -0.8624 H   0  0  0  0  0  0  0  0  0  0  0  0
   -1.5095    0.8290    0.5013 H   0  0  0  0  0  0  0  0  0  0  0  0
   -2.2812   -0.3432    2.5806 H   0  0  0  0  0  0  0  0  0  0  0  0
   -4.2152   -0.7289    4.0695 H   0  0  0  0  0  0  0  0  0  0  0  0
   -6.5270   -0.5039    3.1965 H   0  0  0  0  0  0  0  0  0  0  0  0
   -6.9005    0.1081    0.8218 H   0  0  0  0  0  0  0  0  0  0  0  0
   -4.9782    0.4974   -0.6791 H   0  0  0  0  0  0  0  0  0  0  0  0
    1.4600   -0.2660   -2.7738 H   0  0  0  0  0  0  0  0  0  0  0  0
    3.5237    0.2344   -3.6107 H   0  0  0  0  0  0  0  0  0  0  0  0
    5.8839    0.8216   -3.2644 H   0  0  0  0  0  0  0  0  0  0  0  0
    6.7920    1.0668   -0.9820 H   0  0  0  0  0  0  0  0  0  0  0  0
    2.9112    0.1226    0.6656 H   0  0  0  0  0  0  0  0  0  0  0  0
  1  2  2  0
  2  3  1  0
  3  4  1  0
  4  5  1  0
  5  6  1  0
  6  7  2  0
  7  8  1  0
  8  9  2  0
  9 10  1  0
 10 11  2  0
  2 12  1  0
 12 13  1  0
 13 14  2  0
 14 15  1  0
 15 16  2  0
 16 17  1  0
 17 18  1  0
 18 19  2  0
 18 20  1  0
 17 21  2  0
 11  6  1  0
 21 13  1  0
  3 22  1  0
  3 23  1  0
  4 24  1  0
  4 25  1  0
  5 26  1  0
  5 27  1  0
  7 28  1  0
  8 29  1  0
  9 30  1  0
 10 31  1  0
 11 32  1  0
 12 33  1  0
 14 34  1  0
 15 35  1  0
 16 36  1  0
 21 37  1  0
M  CHG  2  18   1  20  -1
M  END
$$$$
