
     RDKit          3D

 70 75  0  0  0  0  0  0  0  0999 V2000
   -4.8404   -3.8156    2.1510 C   0  0  0  0  0  0  0  0  0  0  0  0
   -3.8566   -3.0291    1.3235 C   0  0  0  0  0  0  0  0  0  0  0  0
   -3.1663   -1.9549    1.9351 C   0  0  0  0  0  0  0  0  0  0  0  0
   -2.2331   -1.1922    1.2298 C   0  0  0  0  0  0  0  0  0  0  0  0
   -1.9838   -1.5171   -0.0944 C   0  0  0  0  0  0  0  0  0  0  0  0
   -2.6864   -2.5652   -0.7067 C   0  0  0  0  0  0  0  0  0  0  0  0
   -3.6373   -3.3316   -0.0402 C   0  0  0  0  0  0  0  0  0  0  0  0
   -4.3496   -4.4637   -0.7229 C   0  0  0  0  0  0  0  0  0  0  0  0
   -2.2950   -2.6825   -2.0381 N   0  0  0  0  0  0  0  0  0  0  0  0
   -1.3513   -1.7165   -2.3896 C   0  0  0  0  0  0  0  0  0  0  0  0
   -0.8727   -1.5951   -3.5095 O   0  0  0  0  0  0  0  0  0  0  0  0
   -1.0426   -0.9033   -1.1022 C   0  0  1  0  0  0  0  0  0  0  0  0
   -1.3623    0.5367   -1.2069 C   0  0  0  0  0  0  0  0  0  0  0  0
   -0.2439    1.3262   -0.9414 C   0  0  0  0  0  0  0  0  0  0  0  0
   -0.6007    2.6468   -1.0282 C   0  0  0  0  0  0  0  0  0  0  0  0
    0.1411    3.7437   -0.8958 O   0  0  0  0  0  0  0  0  0  0  0  0
   -1.9598    2.6857   -1.3979 N   0  0  0  0  0  0  0  0  0  0  0  0
   -2.7201    3.8576   -1.7137 C   0  0  0  0  0  0  0  0  0  0  0  0
   -2.4465    5.0801   -1.0870 C   0  0  0  0  0  0  0  0  0  0  0  0
   -3.2007    6.2157   -1.3972 C   0  0  0  0  0  0  0  0  0  0  0  0
   -4.2227    6.1431   -2.3407 C   0  0  0  0  0  0  0  0  0  0  0  0
   -4.4891    4.9365   -2.9834 C   0  0  0  0  0  0  0  0  0  0  0  0
   -3.7415    3.7969   -2.6748 C   0  0  0  0  0  0  0  0  0  0  0  0
   -2.4348    1.3582   -1.4322 C   0  0  0  0  0  0  0  0  0  0  0  0
   -3.7102    1.0102   -1.5951 O   0  0  0  0  0  0  0  0  0  0  0  0
    0.9524    0.4989   -0.6864 C   0  0  1  0  0  0  0  0  0  0  0  0
    1.6385    0.7559    0.6649 C   0  0  0  0  0  0  0  0  0  0  0  0
    2.7062   -0.2186    0.8963 N   0  0  0  0  0  0  0  0  0  0  0  0
    3.9562    0.2092    1.2947 C   0  0  0  0  0  0  0  0  0  0  0  0
    4.2187    1.3799    1.5422 O   0  0  0  0  0  0  0  0  0  0  0  0
    4.8453   -0.8150    1.3645 O   0  0  0  0  0  0  0  0  0  0  0  0
    6.2328   -0.5700    1.7074 C   0  0  0  0  0  0  0  0  0  0  0  0
    6.3764    0.0668    3.0968 C   0  0  0  0  0  0  0  0  0  0  0  0
    6.9209    0.2653    0.6202 C   0  0  0  0  0  0  0  0  0  0  0  0
    6.8793   -1.9649    1.7436 C   0  0  0  0  0  0  0  0  0  0  0  0
    2.4361   -1.6012    0.4769 C   0  0  0  0  0  0  0  0  0  0  0  0
    0.9437   -1.8460    0.1666 C   0  0  0  0  0  0  0  0  0  0  0  0
    0.4312   -0.9029   -0.8260 N   0  0  0  0  0  0  0  0  0  0  0  0
   -4.7926   -3.5354    3.2088 H   0  0  0  0  0  0  0  0  0  0  0  0
   -4.6190   -4.8868    2.0889 H   0  0  0  0  0  0  0  0  0  0  0  0
   -5.8617   -3.6291    1.8022 H   0  0  0  0  0  0  0  0  0  0  0  0
   -3.3596   -1.7104    2.9791 H   0  0  0  0  0  0  0  0  0  0  0  0
   -1.7184   -0.3664    1.7125 H   0  0  0  0  0  0  0  0  0  0  0  0
   -5.3834   -4.5529   -0.3730 H   0  0  0  0  0  0  0  0  0  0  0  0
   -4.4093   -4.3147   -1.8057 H   0  0  0  0  0  0  0  0  0  0  0  0
   -3.8257   -5.4053   -0.5283 H   0  0  0  0  0  0  0  0  0  0  0  0
   -2.6699   -3.3296   -2.7127 H   0  0  0  0  0  0  0  0  0  0  0  0
    1.0681    3.4751   -0.7697 H   0  0  0  0  0  0  0  0  0  0  0  0
   -1.6705    5.1724   -0.3319 H   0  0  0  0  0  0  0  0  0  0  0  0
   -2.9861    7.1591   -0.9008 H   0  0  0  0  0  0  0  0  0  0  0  0
   -4.8022    7.0302   -2.5838 H   0  0  0  0  0  0  0  0  0  0  0  0
   -5.2689    4.8853   -3.7394 H   0  0  0  0  0  0  0  0  0  0  0  0
   -3.9374    2.8873   -3.2398 H   0  0  0  0  0  0  0  0  0  0  0  0
   -4.2752    1.7573   -1.3273 H   0  0  0  0  0  0  0  0  0  0  0  0
    1.6801    0.6554   -1.4927 H   0  0  0  0  0  0  0  0  0  0  0  0
    0.9253    0.6542    1.4932 H   0  0  0  0  0  0  0  0  0  0  0  0
    2.0270    1.7794    0.7078 H   0  0  0  0  0  0  0  0  0  0  0  0
    5.7763   -0.4743    3.8370 H   0  0  0  0  0  0  0  0  0  0  0  0
    6.0342    1.1063    3.1085 H   0  0  0  0  0  0  0  0  0  0  0  0
    7.4198    0.0686    3.4301 H   0  0  0  0  0  0  0  0  0  0  0  0
    7.9961    0.3540    0.8066 H   0  0  0  0  0  0  0  0  0  0  0  0
    6.5109    1.2787    0.5683 H   0  0  0  0  0  0  0  0  0  0  0  0
    6.7730   -0.1830   -0.3686 H   0  0  0  0  0  0  0  0  0  0  0  0
    6.7473   -2.4841    0.7858 H   0  0  0  0  0  0  0  0  0  0  0  0
    7.9496   -1.9104    1.9642 H   0  0  0  0  0  0  0  0  0  0  0  0
    6.4011   -2.5942    2.5044 H   0  0  0  0  0  0  0  0  0  0  0  0
    2.7752   -2.2835    1.2648 H   0  0  0  0  0  0  0  0  0  0  0  0
    3.0443   -1.7992   -0.4157 H   0  0  0  0  0  0  0  0  0  0  0  0
    0.4048   -1.7578    1.1160 H   0  0  0  0  0  0  0  0  0  0  0  0
    0.8155   -2.8741   -0.1921 H   0  0  0  0  0  0  0  0  0  0  0  0
  1  2  1  0
  2  3  2  0
  3  4  1  0
  4  5  2  0
  5  6  1  0
  6  7  2  0
  7  8  1  0
  6  9  1  0
  9 10  1  0
 10 11  2  0
 10 12  1  0
 12 13  1  0
 13 14  1  0
 14 15  2  0
 15 16  1  0
 15 17  1  0
 17 18  1  0
 18 19  2  0
 19 20  1  0
 20 21  2  0
 21 22  1  0
 22 23  2  0
 17 24  1  0
 24 25  1  0
 14 26  1  0
 26 27  1  0
 27 28  1  0
 28 29  1  0
 29 30  2  0
 29 31  1  0
 31 32  1  0
 32 33  1  0
 32 34  1  0
 32 35  1  0
 28 36  1  0
 36 37  1  0
 37 38  1  0
  7  2  1  0
 12 38  1  1
 12  5  1  0
 24 13  2  0
 38 26  1  0
 23 18  1  0
  1 39  1  0
  1 40  1  0
  1 41  1  0
  3 42  1  0
  4 43  1  0
  8 44  1  0
  8 45  1  0
  8 46  1  0
  9 47  1  0
 16 48  1  0
 19 49  1  0
 20 50  1  0
 21 51  1  0
 22 52  1  0
 23 53  1  0
 25 54  1  0
 26 55  1  6
 27 56  1  0
 27 57  1  0
 33 58  1  0
 33 59  1  0
 33 60  1  0
 34 61  1  0
 34 62  1  0
 34 63  1  0
 35 64  1  0
 35 65  1  0
 35 66  1  0
 36 67  1  0
 36 68  1  0
 37 69  1  0
 37 70  1  0
M  END
$$$$
