
     RDKit          3D

 60 65  0  0  0  0  0  0  0  0999 V2000
   -3.3090   -2.7104   -2.2876 O   0  0  0  0  0  0  0  0  0  0  0  0
   -3.2960   -2.0997   -1.2238 C   0  0  0  0  0  0  0  0  0  0  0  0
   -2.1137   -1.8416   -0.5362 N   0  0  0  0  0  0  0  0  0  0  0  0
   -2.0421   -1.1370    0.6605 C   0  0  0  0  0  0  0  0  0  0  0  0
   -0.6607   -0.9518    1.2779 C   0  0  0  0  0  0  0  0  0  0  0  0
    0.2878   -0.1881    0.3498 C   0  0  0  0  0  0  0  0  0  0  0  0
    1.7267   -0.6444    0.5458 C   0  0  0  0  0  0  0  0  0  0  0  0
    1.8387   -2.0704    0.1419 N   0  0  0  0  0  0  0  0  0  0  0  0
    3.4328   -2.7179    0.1847 S   0  0  0  0  0  6  0  0  0  0  0  0
    3.9553   -2.4740    1.5142 O   0  0  0  0  0  0  0  0  0  0  0  0
    3.3794   -4.0550   -0.3689 O   0  0  0  0  0  0  0  0  0  0  0  0
    4.3138   -1.7011   -0.9711 C   0  0  0  0  0  0  0  0  0  0  0  0
    4.1364   -1.9153   -2.3434 C   0  0  0  0  0  0  0  0  0  0  0  0
    4.8316   -1.1219   -3.2581 C   0  0  0  0  0  0  0  0  0  0  0  0
    5.6921   -0.1241   -2.7985 C   0  0  0  0  0  0  0  0  0  0  0  0
    5.8889    0.0604   -1.4237 C   0  0  0  0  0  0  0  0  0  0  0  0
    5.1980   -0.7247   -0.5040 C   0  0  0  0  0  0  0  0  0  0  0  0
    6.7363    1.0067   -0.9067 O   0  0  0  0  0  0  0  0  0  0  0  0
    7.6280    1.5155   -1.9046 C   0  0  0  0  0  0  0  0  0  0  0  0
    6.8769    1.8274   -3.1889 C   0  0  0  0  0  0  0  0  0  0  0  0
    6.3188    0.6345   -3.7543 O   0  0  0  0  0  0  0  0  0  0  0  0
    0.8259   -2.9800    0.7564 C   0  0  0  0  0  0  0  0  0  0  0  0
   -0.0776   -2.2832    1.7670 C   0  0  0  0  0  0  0  0  0  0  0  0
   -3.0809   -0.6494    1.2819 N   0  0  0  0  0  0  0  0  0  0  0  0
   -4.2469   -0.8869    0.6340 C   0  0  0  0  0  0  0  0  0  0  0  0
   -4.4452   -1.5648   -0.5447 C   0  0  0  0  0  0  0  0  0  0  0  0
   -5.7683   -1.5933   -0.8651 N   0  0  0  0  0  0  0  0  0  0  0  0
   -6.4223   -0.9358    0.0944 N   0  0  0  0  0  0  0  0  0  0  0  0
   -5.5038   -0.4900    0.9901 N   0  0  0  0  0  0  0  0  0  0  0  0
   -5.9066    0.2864    2.1460 C   0  0  0  0  0  0  0  0  0  0  0  0
   -5.7674    1.7622    1.8871 C   0  0  0  0  0  0  0  0  0  0  0  0
   -6.6474    2.4331    1.0217 C   0  0  0  0  0  0  0  0  0  0  0  0
   -6.4916    3.7995    0.7741 C   0  0  0  0  0  0  0  0  0  0  0  0
   -5.4576    4.5099    1.3862 C   0  0  0  0  0  0  0  0  0  0  0  0
   -4.5786    3.8542    2.2478 C   0  0  0  0  0  0  0  0  0  0  0  0
   -4.7387    2.4926    2.4900 C   0  0  0  0  0  0  0  0  0  0  0  0
   -3.8844    1.8836    3.3264 F   0  0  0  0  0  0  0  0  0  0  0  0
   -1.2829   -2.1690   -1.0069 H   0  0  0  0  0  0  0  0  0  0  0  0
   -0.8115   -0.3331    2.1758 H   0  0  0  0  0  0  0  0  0  0  0  0
    0.2120    0.8878    0.5608 H   0  0  0  0  0  0  0  0  0  0  0  0
    0.0084   -0.3072   -0.7059 H   0  0  0  0  0  0  0  0  0  0  0  0
    2.3619   -0.0241   -0.0929 H   0  0  0  0  0  0  0  0  0  0  0  0
    2.0450   -0.5040    1.5854 H   0  0  0  0  0  0  0  0  0  0  0  0
    3.4628   -2.6924   -2.7000 H   0  0  0  0  0  0  0  0  0  0  0  0
    4.6970   -1.2733   -4.3269 H   0  0  0  0  0  0  0  0  0  0  0  0
    5.3556   -0.5748    0.5610 H   0  0  0  0  0  0  0  0  0  0  0  0
    8.4221    0.7772   -2.0716 H   0  0  0  0  0  0  0  0  0  0  0  0
    8.0850    2.4265   -1.5042 H   0  0  0  0  0  0  0  0  0  0  0  0
    7.5562    2.2600   -3.9301 H   0  0  0  0  0  0  0  0  0  0  0  0
    6.0632    2.5431   -3.0142 H   0  0  0  0  0  0  0  0  0  0  0  0
    1.3062   -3.8262    1.2620 H   0  0  0  0  0  0  0  0  0  0  0  0
    0.2310   -3.4054   -0.0593 H   0  0  0  0  0  0  0  0  0  0  0  0
    0.5177   -2.0832    2.6685 H   0  0  0  0  0  0  0  0  0  0  0  0
   -0.8747   -2.9688    2.0789 H   0  0  0  0  0  0  0  0  0  0  0  0
   -5.2982   -0.0440    2.9970 H   0  0  0  0  0  0  0  0  0  0  0  0
   -6.9494    0.0379    2.3821 H   0  0  0  0  0  0  0  0  0  0  0  0
   -7.4551    1.8933    0.5258 H   0  0  0  0  0  0  0  0  0  0  0  0
   -7.1754    4.3084    0.0966 H   0  0  0  0  0  0  0  0  0  0  0  0
   -5.3378    5.5723    1.1894 H   0  0  0  0  0  0  0  0  0  0  0  0
   -3.7676    4.3930    2.7301 H   0  0  0  0  0  0  0  0  0  0  0  0
  1  2  2  0
  2  3  1  0
  3  4  1  0
  4  5  1  0
  5  6  1  0
  6  7  1  0
  7  8  1  0
  8  9  1  0
  9 10  2  0
  9 11  2  0
  9 12  1  0
 12 13  2  0
 13 14  1  0
 14 15  2  0
 15 16  1  0
 16 17  2  0
 16 18  1  0
 18 19  1  0
 19 20  1  0
 20 21  1  0
  8 22  1  0
 22 23  1  0
  4 24  2  0
 24 25  1  0
 25 26  2  0
 26 27  1  0
 27 28  2  0
 28 29  1  0
 29 30  1  0
 30 31  1  0
 31 32  2  0
 32 33  1  0
 33 34  2  0
 34 35  1  0
 35 36  2  0
 36 37  1  0
 26  2  1  0
 36 31  1  0
 23  5  1  0
 29 25  1  0
 17 12  1  0
 21 15  1  0
  3 38  1  0
  5 39  1  0
  6 40  1  0
  6 41  1  0
  7 42  1  0
  7 43  1  0
 13 44  1  0
 14 45  1  0
 17 46  1  0
 19 47  1  0
 19 48  1  0
 20 49  1  0
 20 50  1  0
 22 51  1  0
 22 52  1  0
 23 53  1  0
 23 54  1  0
 30 55  1  0
 30 56  1  0
 32 57  1  0
 33 58  1  0
 34 59  1  0
 35 60  1  0
M  END
$$$$
