
     RDKit          3D

 54 57  0  0  0  0  0  0  0  0999 V2000
    8.0772   -0.6856    1.6747 C   0  0  0  0  0  0  0  0  0  0  0  0
    7.0303    0.4264    1.7770 C   0  0  0  0  0  0  0  0  0  0  0  0
    6.5831    0.6224    3.2279 C   0  0  0  0  0  0  0  0  0  0  0  0
    5.8499    0.1658    0.8589 C   0  0  0  0  0  0  0  0  0  0  0  0
    5.5671    1.0571   -0.1845 C   0  0  0  0  0  0  0  0  0  0  0  0
    4.4845    0.8401   -1.0462 C   0  0  0  0  0  0  0  0  0  0  0  0
    3.6622   -0.2725   -0.8813 C   0  0  0  0  0  0  0  0  0  0  0  0
    2.5559   -0.5668   -1.7010 N   0  0  0  0  0  0  0  0  0  0  0  0
    2.0493    0.1806   -2.7495 C   0  0  0  0  0  0  0  0  0  0  0  0
    2.4798    1.2560   -3.1568 O   0  0  0  0  0  0  0  0  0  0  0  0
    0.8382   -0.4802   -3.4205 C   0  0  0  0  0  0  0  0  0  0  0  0
   -0.3749   -0.3737   -2.6721 O   0  0  0  0  0  0  0  0  0  0  0  0
   -0.5123   -1.2559   -1.6561 C   0  0  0  0  0  0  0  0  0  0  0  0
    0.3173   -2.0910   -1.3280 O   0  0  0  0  0  0  0  0  0  0  0  0
   -1.8158   -1.0689   -0.9637 C   0  0  0  0  0  0  0  0  0  0  0  0
   -2.1061   -1.8848    0.1360 C   0  0  0  0  0  0  0  0  0  0  0  0
   -3.3203   -1.7468    0.8197 C   0  0  0  0  0  0  0  0  0  0  0  0
   -4.2693   -0.7929    0.4185 C   0  0  0  0  0  0  0  0  0  0  0  0
   -3.9696    0.0080   -0.6740 C   0  0  0  0  0  0  0  0  0  0  0  0
   -2.7552   -0.1157   -1.3696 C   0  0  0  0  0  0  0  0  0  0  0  0
   -5.1125    1.2088   -1.2316 S   0  0  0  0  0  6  0  0  0  0  0  0
   -5.5618    0.7605   -2.5341 O   0  0  0  0  0  0  0  0  0  0  0  0
   -4.4709    2.4939   -1.0423 O   0  0  0  0  0  0  0  0  0  0  0  0
   -6.5118    1.1904   -0.1860 C   0  0  0  0  0  0  0  0  0  0  0  0
   -7.5399    2.1076   -0.4444 C   0  0  0  0  0  0  0  0  0  0  0  0
   -8.6717    2.1218    0.3668 C   0  0  0  0  0  0  0  0  0  0  0  0
   -8.7725    1.2249    1.4274 C   0  0  0  0  0  0  0  0  0  0  0  0
   -7.7407    0.3149    1.6761 C   0  0  0  0  0  0  0  0  0  0  0  0
   -6.5929    0.2896    0.8669 C   0  0  0  0  0  0  0  0  0  0  0  0
   -5.5348   -0.6979    1.1840 C   0  0  0  0  0  0  0  0  0  0  0  0
   -5.7096   -1.4710    2.1223 O   0  0  0  0  0  0  0  0  0  0  0  0
    3.9404   -1.1675    0.1575 C   0  0  0  0  0  0  0  0  0  0  0  0
    5.0215   -0.9519    1.0186 C   0  0  0  0  0  0  0  0  0  0  0  0
    7.6886   -1.6479    2.0255 H   0  0  0  0  0  0  0  0  0  0  0  0
    8.9574   -0.4423    2.2796 H   0  0  0  0  0  0  0  0  0  0  0  0
    8.4085   -0.8172    0.6386 H   0  0  0  0  0  0  0  0  0  0  0  0
    7.5183    1.3585    1.4624 H   0  0  0  0  0  0  0  0  0  0  0  0
    5.8414    1.4254    3.3037 H   0  0  0  0  0  0  0  0  0  0  0  0
    7.4358    0.8930    3.8600 H   0  0  0  0  0  0  0  0  0  0  0  0
    6.1355   -0.2861    3.6454 H   0  0  0  0  0  0  0  0  0  0  0  0
    6.1881    1.9367   -0.3424 H   0  0  0  0  0  0  0  0  0  0  0  0
    4.3152    1.5630   -1.8377 H   0  0  0  0  0  0  0  0  0  0  0  0
    2.0313   -1.4078   -1.4562 H   0  0  0  0  0  0  0  0  0  0  0  0
    0.6712    0.0231   -4.3794 H   0  0  0  0  0  0  0  0  0  0  0  0
    1.0661   -1.5266   -3.6596 H   0  0  0  0  0  0  0  0  0  0  0  0
   -1.3906   -2.6348    0.4716 H   0  0  0  0  0  0  0  0  0  0  0  0
   -3.5183   -2.3958    1.6734 H   0  0  0  0  0  0  0  0  0  0  0  0
   -2.5590    0.5348   -2.2214 H   0  0  0  0  0  0  0  0  0  0  0  0
   -7.4606    2.8087   -1.2740 H   0  0  0  0  0  0  0  0  0  0  0  0
   -9.4743    2.8303    0.1733 H   0  0  0  0  0  0  0  0  0  0  0  0
   -9.6546    1.2312    2.0645 H   0  0  0  0  0  0  0  0  0  0  0  0
   -7.8414   -0.3771    2.5119 H   0  0  0  0  0  0  0  0  0  0  0  0
    3.3193   -2.0463    0.3135 H   0  0  0  0  0  0  0  0  0  0  0  0
    5.2080   -1.6684    1.8151 H   0  0  0  0  0  0  0  0  0  0  0  0
  1  2  1  0
  2  3  1  0
  2  4  1  0
  4  5  2  0
  5  6  1  0
  6  7  2  0
  7  8  1  0
  8  9  1  0
  9 10  2  0
  9 11  1  0
 11 12  1  0
 12 13  1  0
 13 14  2  0
 13 15  1  0
 15 16  2  0
 16 17  1  0
 17 18  2  0
 18 19  1  0
 19 20  2  0
 19 21  1  0
 21 22  2  0
 21 23  2  0
 21 24  1  0
 24 25  2  0
 25 26  1  0
 26 27  2  0
 27 28  1  0
 28 29  2  0
 29 30  1  0
 30 31  2  0
  7 32  1  0
 32 33  2  0
 33  4  1  0
 20 15  1  0
 29 24  1  0
 30 18  1  0
  1 34  1  0
  1 35  1  0
  1 36  1  0
  2 37  1  0
  3 38  1  0
  3 39  1  0
  3 40  1  0
  5 41  1  0
  6 42  1  0
  8 43  1  0
 11 44  1  0
 11 45  1  0
 16 46  1  0
 17 47  1  0
 20 48  1  0
 25 49  1  0
 26 50  1  0
 27 51  1  0
 28 52  1  0
 32 53  1  0
 33 54  1  0
M  END
$$$$
