
     RDKit          3D

 67 72  0  0  0  0  0  0  0  0999 V2000
   -4.2653   -4.9474    0.6475 C   0  0  0  0  0  0  0  0  0  0  0  0
   -3.5090   -3.7722    1.1896 C   0  0  0  0  0  0  0  0  0  0  0  0
   -3.4843   -3.4835    2.5679 C   0  0  0  0  0  0  0  0  0  0  0  0
   -4.3311   -4.4755    3.7064 Cl  0  0  0  0  0  0  0  0  0  0  0  0
   -2.7664   -2.3849    3.0820 C   0  0  0  0  0  0  0  0  0  0  0  0
   -2.0522   -1.5384    2.2345 C   0  0  0  0  0  0  0  0  0  0  0  0
   -2.0746   -1.8089    0.8763 C   0  0  0  0  0  0  0  0  0  0  0  0
   -2.7830   -2.9121    0.3745 C   0  0  0  0  0  0  0  0  0  0  0  0
   -2.6161   -2.9857   -1.0089 N   0  0  0  0  0  0  0  0  0  0  0  0
   -1.8088   -1.9528   -1.4909 C   0  0  0  0  0  0  0  0  0  0  0  0
   -1.4832   -1.8094   -2.6604 O   0  0  0  0  0  0  0  0  0  0  0  0
   -1.4097   -1.0968   -0.2646 C   0  0  1  0  0  0  0  0  0  0  0  0
   -1.8951    0.3057   -0.3456 C   0  0  0  0  0  0  0  0  0  0  0  0
   -0.8264    1.1750   -0.6238 C   0  0  0  0  0  0  0  0  0  0  0  0
   -1.2987    2.4590   -0.6651 C   0  0  0  0  0  0  0  0  0  0  0  0
   -0.6688    3.5980   -0.9400 O   0  0  0  0  0  0  0  0  0  0  0  0
   -2.6916    2.3936   -0.4499 N   0  0  0  0  0  0  0  0  0  0  0  0
   -3.6077    3.4925   -0.5236 C   0  0  0  0  0  0  0  0  0  0  0  0
   -3.2076    4.7819   -0.1427 C   0  0  0  0  0  0  0  0  0  0  0  0
   -4.1086    5.8478   -0.2149 C   0  0  0  0  0  0  0  0  0  0  0  0
   -5.4001    5.6276   -0.6760 C   0  0  0  0  0  0  0  0  0  0  0  0
   -6.2606    6.6514   -0.7458 F   0  0  0  0  0  0  0  0  0  0  0  0
   -5.8099    4.3608   -1.0719 C   0  0  0  0  0  0  0  0  0  0  0  0
   -4.9146    3.2906   -0.9997 C   0  0  0  0  0  0  0  0  0  0  0  0
   -3.0335    1.0490   -0.1902 C   0  0  0  0  0  0  0  0  0  0  0  0
   -4.2392    0.6305    0.1923 O   0  0  0  0  0  0  0  0  0  0  0  0
    0.4124    0.3917   -0.8172 C   0  0  1  0  0  0  0  0  0  0  0  0
    1.7215    0.9119   -0.2375 C   0  0  0  0  0  0  0  0  0  0  0  0
    2.7778   -0.1095   -0.3401 N   0  0  0  0  0  0  0  0  0  0  0  0
    4.0930    0.3239   -0.3263 C   0  0  0  0  0  0  0  0  0  0  0  0
    4.4135    1.5010   -0.4305 O   0  0  0  0  0  0  0  0  0  0  0  0
    4.9686   -0.7035   -0.1870 O   0  0  0  0  0  0  0  0  0  0  0  0
    6.3998   -0.4698   -0.1524 C   0  0  0  0  0  0  0  0  0  0  0  0
    7.0163   -1.8675    0.0126 C   0  0  0  0  0  0  0  0  0  0  0  0
    6.7963    0.3846    1.0566 C   0  0  0  0  0  0  0  0  0  0  0  0
    6.8994    0.1318   -1.4704 C   0  0  0  0  0  0  0  0  0  0  0  0
    2.4120   -1.4847    0.0536 C   0  0  0  0  0  0  0  0  0  0  0  0
    0.9970   -1.9223   -0.4086 C   0  0  0  0  0  0  0  0  0  0  0  0
    0.0458   -0.8685   -0.0979 N   0  0  0  0  0  0  0  0  0  0  0  0
   -4.2359   -4.9971   -0.4443 H   0  0  0  0  0  0  0  0  0  0  0  0
   -5.3208   -4.8871    0.9328 H   0  0  0  0  0  0  0  0  0  0  0  0
   -3.8379   -5.8808    1.0281 H   0  0  0  0  0  0  0  0  0  0  0  0
   -2.7656   -2.1884    4.1521 H   0  0  0  0  0  0  0  0  0  0  0  0
   -1.4987   -0.6902    2.6258 H   0  0  0  0  0  0  0  0  0  0  0  0
   -3.0148   -3.6804   -1.6211 H   0  0  0  0  0  0  0  0  0  0  0  0
    0.2557    3.3938   -1.1642 H   0  0  0  0  0  0  0  0  0  0  0  0
   -2.2098    4.9777    0.2416 H   0  0  0  0  0  0  0  0  0  0  0  0
   -3.8081    6.8464    0.0862 H   0  0  0  0  0  0  0  0  0  0  0  0
   -6.8172    4.2172   -1.4503 H   0  0  0  0  0  0  0  0  0  0  0  0
   -5.2413    2.3220   -1.3735 H   0  0  0  0  0  0  0  0  0  0  0  0
   -4.7137    1.3763    0.6015 H   0  0  0  0  0  0  0  0  0  0  0  0
    0.5345    0.1916   -1.8917 H   0  0  0  0  0  0  0  0  0  0  0  0
    2.0313    1.8230   -0.7617 H   0  0  0  0  0  0  0  0  0  0  0  0
    1.6187    1.1716    0.8242 H   0  0  0  0  0  0  0  0  0  0  0  0
    6.7239   -2.5226   -0.8164 H   0  0  0  0  0  0  0  0  0  0  0  0
    6.6528   -2.3481    0.9285 H   0  0  0  0  0  0  0  0  0  0  0  0
    8.1099   -1.8282    0.0533 H   0  0  0  0  0  0  0  0  0  0  0  0
    6.4449    1.4163    0.9620 H   0  0  0  0  0  0  0  0  0  0  0  0
    6.3543   -0.0147    1.9764 H   0  0  0  0  0  0  0  0  0  0  0  0
    7.8842    0.4200    1.1796 H   0  0  0  0  0  0  0  0  0  0  0  0
    6.5305   -0.4455   -2.3256 H   0  0  0  0  0  0  0  0  0  0  0  0
    6.5492    1.1588   -1.6108 H   0  0  0  0  0  0  0  0  0  0  0  0
    7.9939    0.1517   -1.5094 H   0  0  0  0  0  0  0  0  0  0  0  0
    3.1497   -2.1937   -0.3368 H   0  0  0  0  0  0  0  0  0  0  0  0
    2.4697   -1.5196    1.1489 H   0  0  0  0  0  0  0  0  0  0  0  0
    1.0186   -2.1323   -1.4847 H   0  0  0  0  0  0  0  0  0  0  0  0
    0.7346   -2.8528    0.1068 H   0  0  0  0  0  0  0  0  0  0  0  0
  1  2  1  0
  2  3  2  0
  3  4  1  0
  3  5  1  0
  5  6  2  0
  6  7  1  0
  7  8  2  0
  8  9  1  0
  9 10  1  0
 10 11  2  0
 10 12  1  0
 12 13  1  0
 13 14  1  0
 14 15  2  0
 15 16  1  0
 15 17  1  0
 17 18  1  0
 18 19  2  0
 19 20  1  0
 20 21  2  0
 21 22  1  0
 21 23  1  0
 23 24  2  0
 17 25  1  0
 25 26  1  0
 14 27  1  0
 27 28  1  0
 28 29  1  0
 29 30  1  0
 30 31  2  0
 30 32  1  0
 32 33  1  0
 33 34  1  0
 33 35  1  0
 33 36  1  0
 29 37  1  0
 37 38  1  0
 38 39  1  0
  8  2  1  0
 12 39  1  1
 12  7  1  0
 25 13  2  0
 39 27  1  0
 24 18  1  0
  1 40  1  0
  1 41  1  0
  1 42  1  0
  5 43  1  0
  6 44  1  0
  9 45  1  0
 16 46  1  0
 19 47  1  0
 20 48  1  0
 23 49  1  0
 24 50  1  0
 26 51  1  0
 27 52  1  6
 28 53  1  0
 28 54  1  0
 34 55  1  0
 34 56  1  0
 34 57  1  0
 35 58  1  0
 35 59  1  0
 35 60  1  0
 36 61  1  0
 36 62  1  0
 36 63  1  0
 37 64  1  0
 37 65  1  0
 38 66  1  0
 38 67  1  0
M  END
$$$$
