
     RDKit          3D

 51 55  0  0  0  0  0  0  0  0999 V2000
    0.3947    1.6397   -2.6152 O   0  0  0  0  0  0  0  0  0  0  0  0
    0.0492    0.9324   -1.6691 C   0  0  0  0  0  0  0  0  0  0  0  0
   -0.7378    1.5150   -0.4891 C   0  0  0  0  0  0  0  0  0  0  0  0
   -1.1545    0.5646    0.5545 N   0  0  0  0  0  0  0  0  0  0  0  0
   -2.3046   -0.1837    0.3119 C   0  0  0  0  0  0  0  0  0  0  0  0
   -2.8838   -0.1457   -0.7715 O   0  0  0  0  0  0  0  0  0  0  0  0
   -2.7485   -1.1677    1.3705 C   0  0  0  0  0  0  0  0  0  0  0  0
   -3.5615   -0.5314    2.4873 C   0  0  0  0  0  0  0  0  0  0  0  0
   -4.9629   -0.2316    2.0527 C   0  0  0  0  0  0  0  0  0  0  0  0
   -6.1866   -0.7940    2.3675 C   0  0  0  0  0  0  0  0  0  0  0  0
   -7.1547   -0.1062    1.5933 C   0  0  0  0  0  0  0  0  0  0  0  0
   -6.4619    0.8326    0.8581 C   0  0  0  0  0  0  0  0  0  0  0  0
   -5.1362    0.7690    1.1366 O   0  0  0  0  0  0  0  0  0  0  0  0
   -2.8201    0.9574    3.2508 S   0  0  0  0  0  0  0  0  0  0  0  0
   -1.0761    0.6314    3.0481 C   0  0  0  0  0  0  0  0  0  0  0  0
   -0.3056    0.6146    4.2212 C   0  0  0  0  0  0  0  0  0  0  0  0
    1.0841    0.5388    4.1620 C   0  0  0  0  0  0  0  0  0  0  0  0
    1.7185    0.5088    2.9294 C   0  0  0  0  0  0  0  0  0  0  0  0
    0.9666    0.5410    1.7527 C   0  0  0  0  0  0  0  0  0  0  0  0
   -0.4372    0.5747    1.7914 C   0  0  0  0  0  0  0  0  0  0  0  0
    0.3832   -0.4000   -1.5714 N   0  0  0  0  0  0  0  0  0  0  0  0
    1.0639   -1.0856   -2.6448 C   0  0  0  0  0  0  0  0  0  0  0  0
    2.5560   -0.8738   -2.5946 C   0  0  0  0  0  0  0  0  0  0  0  0
    3.2983   -1.2302   -1.4418 C   0  0  0  0  0  0  0  0  0  0  0  0
    4.6860   -1.0586   -1.3938 C   0  0  0  0  0  0  0  0  0  0  0  0
    5.3044   -0.5362   -2.5100 C   0  0  0  0  0  0  0  0  0  0  0  0
    4.5961   -0.1882   -3.6354 C   0  0  0  0  0  0  0  0  0  0  0  0
    3.2293   -0.3431   -3.7087 C   0  0  0  0  0  0  0  0  0  0  0  0
    5.3968    0.2885   -4.6269 O   0  0  0  0  0  0  0  0  0  0  0  0
    6.6908    0.2089   -3.9926 C   0  0  0  0  0  0  0  0  0  0  0  0
    6.6383   -0.3128   -2.6487 O   0  0  0  0  0  0  0  0  0  0  0  0
   -1.6369    1.9830   -0.9081 H   0  0  0  0  0  0  0  0  0  0  0  0
   -0.1350    2.3143   -0.0429 H   0  0  0  0  0  0  0  0  0  0  0  0
   -1.8694   -1.6855    1.7703 H   0  0  0  0  0  0  0  0  0  0  0  0
   -3.3300   -1.9540    0.8744 H   0  0  0  0  0  0  0  0  0  0  0  0
   -3.6280   -1.2712    3.2989 H   0  0  0  0  0  0  0  0  0  0  0  0
   -6.3617   -1.6093    3.0578 H   0  0  0  0  0  0  0  0  0  0  0  0
   -8.2232   -0.2870    1.5667 H   0  0  0  0  0  0  0  0  0  0  0  0
   -6.7494    1.5800    0.1298 H   0  0  0  0  0  0  0  0  0  0  0  0
   -0.7830    0.6927    5.1951 H   0  0  0  0  0  0  0  0  0  0  0  0
    1.6674    0.5312    5.0801 H   0  0  0  0  0  0  0  0  0  0  0  0
    2.8002    0.4648    2.8780 H   0  0  0  0  0  0  0  0  0  0  0  0
    1.5007    0.5073    0.8083 H   0  0  0  0  0  0  0  0  0  0  0  0
   -0.0883   -0.9501   -0.8709 H   0  0  0  0  0  0  0  0  0  0  0  0
    0.8496   -2.1532   -2.5555 H   0  0  0  0  0  0  0  0  0  0  0  0
    0.6510   -0.7312   -3.5951 H   0  0  0  0  0  0  0  0  0  0  0  0
    2.7888   -1.6544   -0.5791 H   0  0  0  0  0  0  0  0  0  0  0  0
    5.2577   -1.3288   -0.5146 H   0  0  0  0  0  0  0  0  0  0  0  0
    2.6970   -0.0616   -4.6072 H   0  0  0  0  0  0  0  0  0  0  0  0
    7.1277    1.2103   -3.9675 H   0  0  0  0  0  0  0  0  0  0  0  0
    7.3406   -0.4411   -4.5931 H   0  0  0  0  0  0  0  0  0  0  0  0
  1  2  2  0
  2  3  1  0
  3  4  1  0
  4  5  1  0
  5  6  2  0
  5  7  1  0
  7  8  1  0
  8  9  1  0
  9 10  2  0
 10 11  1  0
 11 12  2  0
 12 13  1  0
  8 14  1  0
 14 15  1  0
 15 16  2  0
 16 17  1  0
 17 18  2  0
 18 19  1  0
 19 20  2  0
  2 21  1  0
 21 22  1  0
 22 23  1  0
 23 24  2  0
 24 25  1  0
 25 26  2  0
 26 27  1  0
 27 28  2  0
 27 29  1  0
 29 30  1  0
 30 31  1  0
 20  4  1  0
 28 23  1  0
 13  9  1  0
 20 15  1  0
 31 26  1  0
  3 32  1  0
  3 33  1  0
  7 34  1  0
  7 35  1  0
  8 36  1  0
 10 37  1  0
 11 38  1  0
 12 39  1  0
 16 40  1  0
 17 41  1  0
 18 42  1  0
 19 43  1  0
 21 44  1  0
 22 45  1  0
 22 46  1  0
 24 47  1  0
 25 48  1  0
 28 49  1  0
 30 50  1  0
 30 51  1  0
M  END
$$$$
