
     RDKit          3D

 32 34  0  0  0  0  0  0  0  0999 V2000
    5.0218   -2.2999    2.0054 C   0  0  0  0  0  0  0  0  0  0  0  0
    4.6316   -1.2283    1.0554 C   0  0  0  0  0  0  0  0  0  0  0  0
    5.4802   -0.4106    0.3346 C   0  0  0  0  0  0  0  0  0  0  0  0
    4.5665    0.6741   -0.6250 S   0  0  0  0  0  0  0  0  0  0  0  0
    3.1310   -0.0116   -0.0214 C   0  0  0  0  0  0  0  0  0  0  0  0
    1.8842    0.4074   -0.3933 N   0  0  0  0  0  0  0  0  0  0  0  0
    1.5542    1.4050   -1.2793 C   0  0  0  0  0  0  0  0  0  0  0  0
    2.3376    2.1066   -1.9086 O   0  0  0  0  0  0  0  0  0  0  0  0
    0.1157    1.5644   -1.4114 C   0  0  0  0  0  0  0  0  0  0  0  0
   -0.6365    2.4158   -2.1955 C   0  0  0  0  0  0  0  0  0  0  0  0
   -1.9955    2.1325   -1.9169 C   0  0  0  0  0  0  0  0  0  0  0  0
   -2.0074    1.1197   -0.9793 C   0  0  0  0  0  0  0  0  0  0  0  0
   -3.0459    0.3761   -0.2711 C   0  0  0  0  0  0  0  0  0  0  0  0
   -2.8565    0.0967    1.0962 C   0  0  0  0  0  0  0  0  0  0  0  0
   -3.8188   -0.5983    1.8338 C   0  0  0  0  0  0  0  0  0  0  0  0
   -4.9862   -1.0262    1.2115 C   0  0  0  0  0  0  0  0  0  0  0  0
   -6.1726   -1.8815    2.1163 Cl  0  0  0  0  0  0  0  0  0  0  0  0
   -5.1980   -0.7692   -0.1394 C   0  0  0  0  0  0  0  0  0  0  0  0
   -4.2333   -0.0728   -0.8792 C   0  0  0  0  0  0  0  0  0  0  0  0
   -4.5695    0.1565   -2.5622 Cl  0  0  0  0  0  0  0  0  0  0  0  0
   -0.7213    0.7778   -0.6623 O   0  0  0  0  0  0  0  0  0  0  0  0
    3.2828   -0.9873    0.8441 N   0  0  0  0  0  0  0  0  0  0  0  0
    4.7751   -2.0036    3.0295 H   0  0  0  0  0  0  0  0  0  0  0  0
    6.0956   -2.5059    1.9562 H   0  0  0  0  0  0  0  0  0  0  0  0
    4.4869   -3.2264    1.7743 H   0  0  0  0  0  0  0  0  0  0  0  0
    6.5606   -0.3975    0.3246 H   0  0  0  0  0  0  0  0  0  0  0  0
    1.1291   -0.0996    0.0488 H   0  0  0  0  0  0  0  0  0  0  0  0
   -0.2398    3.1510   -2.8833 H   0  0  0  0  0  0  0  0  0  0  0  0
   -2.8608    2.6177   -2.3478 H   0  0  0  0  0  0  0  0  0  0  0  0
   -1.9518    0.4310    1.6027 H   0  0  0  0  0  0  0  0  0  0  0  0
   -3.6492   -0.7983    2.8890 H   0  0  0  0  0  0  0  0  0  0  0  0
   -6.1099   -1.1155   -0.6197 H   0  0  0  0  0  0  0  0  0  0  0  0
  1  2  1  0
  2  3  2  0
  3  4  1  0
  4  5  1  0
  5  6  1  0
  6  7  1  0
  7  8  2  0
  7  9  1  0
  9 10  2  0
 10 11  1  0
 11 12  2  0
 12 13  1  0
 13 14  2  0
 14 15  1  0
 15 16  2  0
 16 17  1  0
 16 18  1  0
 18 19  2  0
 19 20  1  0
 12 21  1  0
  5 22  2  0
 22  2  1  0
 21  9  1  0
 19 13  1  0
  1 23  1  0
  1 24  1  0
  1 25  1  0
  3 26  1  0
  6 27  1  0
 10 28  1  0
 11 29  1  0
 14 30  1  0
 15 31  1  0
 18 32  1  0
M  END
$$$$
