
     RDKit          3D

 49 51  0  0  0  0  0  0  0  0999 V2000
    1.1466    4.5608   -1.9772 C   0  0  0  0  0  0  0  0  0  0  0  0
    2.2602    3.7876   -1.5528 O   0  0  0  0  0  0  0  0  0  0  0  0
    2.1478    2.4228   -1.6331 C   0  0  0  0  0  0  0  0  0  0  0  0
    1.0453    1.7449   -2.1653 C   0  0  0  0  0  0  0  0  0  0  0  0
    1.0245    0.3483   -2.2032 C   0  0  0  0  0  0  0  0  0  0  0  0
    2.0991   -0.3733   -1.6849 C   0  0  0  0  0  0  0  0  0  0  0  0
    2.0765   -2.1481   -1.7089 S   0  0  0  0  0  6  0  0  0  0  0  0
    3.4347   -2.5845   -1.9666 O   0  0  0  0  0  0  0  0  0  0  0  0
    0.9873   -2.5961   -2.5470 O   0  0  0  0  0  0  0  0  0  0  0  0
    1.7683   -2.5564   -0.1088 N   0  0  0  0  0  0  0  0  0  0  0  0
    0.6821   -2.0190    0.6422 C   0  0  0  0  0  0  0  0  0  0  0  0
    0.9037   -1.7898    1.9983 C   0  0  0  0  0  0  0  0  0  0  0  0
   -0.1346   -1.3468    2.8124 C   0  0  0  0  0  0  0  0  0  0  0  0
   -1.4156   -1.1378    2.2807 C   0  0  0  0  0  0  0  0  0  0  0  0
   -1.6551   -1.3305    0.9049 C   0  0  0  0  0  0  0  0  0  0  0  0
   -0.5974   -1.8183    0.1138 C   0  0  0  0  0  0  0  0  0  0  0  0
   -2.9670   -1.0791    0.3539 N   0  0  0  0  0  0  0  0  0  0  0  0
   -3.1499   -0.8122   -1.0168 C   0  0  0  0  0  0  0  0  0  0  0  0
   -4.5821   -0.7223   -1.4962 C   0  0  0  0  0  0  0  0  0  0  0  0
   -2.2482   -0.6240   -1.8340 O   0  0  0  0  0  0  0  0  0  0  0  0
   -4.0640   -0.7956    1.2883 C   0  0  0  0  0  0  0  0  0  0  0  0
   -3.8279   -1.2481    2.7175 C   0  0  0  0  0  0  0  0  0  0  0  0
   -2.5106   -0.6843    3.2049 C   0  0  0  0  0  0  0  0  0  0  0  0
    3.2184    0.2850   -1.1698 C   0  0  0  0  0  0  0  0  0  0  0  0
    3.2469    1.6821   -1.1566 C   0  0  0  0  0  0  0  0  0  0  0  0
    4.3037    2.3822   -0.6262 O   0  0  0  0  0  0  0  0  0  0  0  0
    5.5815    1.8991   -1.0308 C   0  0  0  0  0  0  0  0  0  0  0  0
    1.3905    5.6151   -1.8150 H   0  0  0  0  0  0  0  0  0  0  0  0
    0.2552    4.3312   -1.3840 H   0  0  0  0  0  0  0  0  0  0  0  0
    0.9572    4.4249   -3.0470 H   0  0  0  0  0  0  0  0  0  0  0  0
    0.1814    2.2700   -2.5600 H   0  0  0  0  0  0  0  0  0  0  0  0
    0.1588   -0.1625   -2.6221 H   0  0  0  0  0  0  0  0  0  0  0  0
    2.6180   -2.8155    0.3874 H   0  0  0  0  0  0  0  0  0  0  0  0
    1.8816   -1.9585    2.4407 H   0  0  0  0  0  0  0  0  0  0  0  0
    0.0567   -1.1780    3.8702 H   0  0  0  0  0  0  0  0  0  0  0  0
   -0.7816   -2.0880   -0.9206 H   0  0  0  0  0  0  0  0  0  0  0  0
   -5.0788    0.1490   -1.0624 H   0  0  0  0  0  0  0  0  0  0  0  0
   -5.1226   -1.6411   -1.2547 H   0  0  0  0  0  0  0  0  0  0  0  0
   -4.5906   -0.6106   -2.5853 H   0  0  0  0  0  0  0  0  0  0  0  0
   -4.2424    0.2871    1.2586 H   0  0  0  0  0  0  0  0  0  0  0  0
   -4.9769   -1.2818    0.9296 H   0  0  0  0  0  0  0  0  0  0  0  0
   -3.8113   -2.3449    2.7619 H   0  0  0  0  0  0  0  0  0  0  0  0
   -4.6479   -0.9091    3.3600 H   0  0  0  0  0  0  0  0  0  0  0  0
   -2.5343    0.4116    3.2280 H   0  0  0  0  0  0  0  0  0  0  0  0
   -2.3278   -1.0388    4.2261 H   0  0  0  0  0  0  0  0  0  0  0  0
    4.0459   -0.2917   -0.7697 H   0  0  0  0  0  0  0  0  0  0  0  0
    5.6056    1.6481   -2.0973 H   0  0  0  0  0  0  0  0  0  0  0  0
    6.3100    2.6971   -0.8578 H   0  0  0  0  0  0  0  0  0  0  0  0
    5.8786    1.0393   -0.4224 H   0  0  0  0  0  0  0  0  0  0  0  0
  1  2  1  0
  2  3  1  0
  3  4  2  0
  4  5  1  0
  5  6  2  0
  6  7  1  0
  7  8  2  0
  7  9  2  0
  7 10  1  0
 10 11  1  0
 11 12  2  0
 12 13  1  0
 13 14  2  0
 14 15  1  0
 15 16  2  0
 15 17  1  0
 17 18  1  0
 18 19  1  0
 18 20  2  0
 17 21  1  0
 21 22  1  0
 22 23  1  0
  6 24  1  0
 24 25  2  0
 25 26  1  0
 26 27  1  0
 25  3  1  0
 16 11  1  0
 23 14  1  0
  1 28  1  0
  1 29  1  0
  1 30  1  0
  4 31  1  0
  5 32  1  0
 10 33  1  0
 12 34  1  0
 13 35  1  0
 16 36  1  0
 19 37  1  0
 19 38  1  0
 19 39  1  0
 21 40  1  0
 21 41  1  0
 22 42  1  0
 22 43  1  0
 23 44  1  0
 23 45  1  0
 24 46  1  0
 27 47  1  0
 27 48  1  0
 27 49  1  0
M  END
$$$$
