
     RDKit          3D

 42 44  0  0  0  0  0  0  0  0999 V2000
   -3.6117   -0.2753   -2.5670 C   0  0  0  0  0  0  0  0  0  0  0  0
   -3.7473   -0.3753   -1.0708 C   0  0  0  0  0  0  0  0  0  0  0  0
   -4.9842   -0.7536   -0.5208 C   0  0  0  0  0  0  0  0  0  0  0  0
   -5.1487   -0.8516    0.8600 C   0  0  0  0  0  0  0  0  0  0  0  0
   -4.0753   -0.5761    1.6973 C   0  0  0  0  0  0  0  0  0  0  0  0
   -4.2627   -0.7017    3.4034 Cl  0  0  0  0  0  0  0  0  0  0  0  0
   -2.8392   -0.2057    1.1678 C   0  0  0  0  0  0  0  0  0  0  0  0
   -2.6552   -0.0998   -0.2202 C   0  0  0  0  0  0  0  0  0  0  0  0
   -1.4089    0.2431   -0.7776 N   0  0  0  0  0  0  0  0  0  0  0  0
   -0.5027   -0.9212   -0.8669 C   0  0  0  0  0  0  0  0  0  0  0  0
    0.9119   -0.4830   -1.3040 C   0  0  0  0  0  0  0  0  0  0  0  0
    1.5154    0.5472   -0.4042 N   0  0  0  0  0  0  0  0  0  0  0  0
    2.6393    0.1012    0.2945 C   0  0  0  0  0  0  0  0  0  0  0  0
    2.5788   -0.9117    1.2663 C   0  0  0  0  0  0  0  0  0  0  0  0
    3.7273   -1.3220    1.9323 C   0  0  0  0  0  0  0  0  0  0  0  0
    4.9358   -0.7208    1.6244 C   0  0  0  0  0  0  0  0  0  0  0  0
    4.9701    0.2745    0.6580 C   0  0  0  0  0  0  0  0  0  0  0  0
    3.8453    0.6645    0.0170 N   0  0  0  0  0  4  0  0  0  0  0  0
    3.9283    1.7201   -1.0087 C   0  0  0  0  0  0  0  0  0  0  0  0
    0.5258    1.2472    0.4648 C   0  0  0  0  0  0  0  0  0  0  0  0
   -0.8035    1.4982   -0.2795 C   0  0  0  0  0  0  0  0  0  0  0  0
   -2.9672   -1.0757   -2.9431 H   0  0  0  0  0  0  0  0  0  0  0  0
   -4.5836   -0.3653   -3.0640 H   0  0  0  0  0  0  0  0  0  0  0  0
   -3.1927    0.6955   -2.8510 H   0  0  0  0  0  0  0  0  0  0  0  0
   -5.8313   -0.9703   -1.1693 H   0  0  0  0  0  0  0  0  0  0  0  0
   -6.1123   -1.1420    1.2705 H   0  0  0  0  0  0  0  0  0  0  0  0
   -2.0170   -0.0111    1.8476 H   0  0  0  0  0  0  0  0  0  0  0  0
   -0.8924   -1.6388   -1.5986 H   0  0  0  0  0  0  0  0  0  0  0  0
   -0.4344   -1.4356    0.1003 H   0  0  0  0  0  0  0  0  0  0  0  0
    0.8482   -0.0325   -2.3026 H   0  0  0  0  0  0  0  0  0  0  0  0
    1.5577   -1.3648   -1.4033 H   0  0  0  0  0  0  0  0  0  0  0  0
    1.6318   -1.3869    1.5107 H   0  0  0  0  0  0  0  0  0  0  0  0
    3.6767   -2.1061    2.6864 H   0  0  0  0  0  0  0  0  0  0  0  0
    5.8477   -1.0261    2.1334 H   0  0  0  0  0  0  0  0  0  0  0  0
    5.9012    0.7660    0.3901 H   0  0  0  0  0  0  0  0  0  0  0  0
    4.9617    2.0604   -1.1124 H   0  0  0  0  0  0  0  0  0  0  0  0
    3.5892    1.3019   -1.9602 H   0  0  0  0  0  0  0  0  0  0  0  0
    3.3027    2.5583   -0.6903 H   0  0  0  0  0  0  0  0  0  0  0  0
    0.9480    2.2105    0.7752 H   0  0  0  0  0  0  0  0  0  0  0  0
    0.3193    0.6676    1.3732 H   0  0  0  0  0  0  0  0  0  0  0  0
   -1.4883    2.0668    0.3616 H   0  0  0  0  0  0  0  0  0  0  0  0
   -0.6035    2.1301   -1.1539 H   0  0  0  0  0  0  0  0  0  0  0  0
  1  2  1  0
  2  3  2  0
  3  4  1  0
  4  5  2  0
  5  6  1  0
  5  7  1  0
  7  8  2  0
  8  9  1  0
  9 10  1  0
 10 11  1  0
 11 12  1  0
 12 13  1  0
 13 14  2  0
 14 15  1  0
 15 16  2  0
 16 17  1  0
 17 18  2  0
 18 19  1  0
 12 20  1  0
 20 21  1  0
  8  2  1  0
 21  9  1  0
 18 13  1  0
  1 22  1  0
  1 23  1  0
  1 24  1  0
  3 25  1  0
  4 26  1  0
  7 27  1  0
 10 28  1  0
 10 29  1  0
 11 30  1  0
 11 31  1  0
 14 32  1  0
 15 33  1  0
 16 34  1  0
 17 35  1  0
 19 36  1  0
 19 37  1  0
 19 38  1  0
 20 39  1  0
 20 40  1  0
 21 41  1  0
 21 42  1  0
M  CHG  1  18   1
M  END
$$$$
