
     RDKit          3D

 49 52  0  0  0  0  0  0  0  0999 V2000
   -4.9538    2.7065    3.0293 C   0  0  0  0  0  0  0  0  0  0  0  0
   -3.8862    1.9825    2.2615 C   0  0  0  0  0  0  0  0  0  0  0  0
   -4.2143    1.1412    1.1923 C   0  0  0  0  0  0  0  0  0  0  0  0
   -3.2137    0.4557    0.4984 C   0  0  0  0  0  0  0  0  0  0  0  0
   -1.8766    0.6003    0.8712 C   0  0  0  0  0  0  0  0  0  0  0  0
   -0.8641   -0.0790    0.1504 N   0  0  0  0  0  0  0  0  0  0  0  0
   -0.6847   -0.1097   -1.2308 C   0  0  0  0  0  0  0  0  0  0  0  0
   -1.4440    0.6987   -2.2377 C   0  0  0  0  0  0  0  0  0  0  0  0
   -2.5942   -0.0159   -2.8963 C   0  0  0  0  0  0  0  0  0  0  0  0
   -3.8944    0.4320   -3.0446 C   0  0  0  0  0  0  0  0  0  0  0  0
   -4.7203   -0.5007   -3.7376 C   0  0  0  0  0  0  0  0  0  0  0  0
   -4.0246   -1.6287   -4.1043 C   0  0  0  0  0  0  0  0  0  0  0  0
   -2.3793   -1.5455   -3.6446 S   0  0  0  0  0  0  0  0  0  0  0  0
    0.3917   -0.8293   -1.5149 N   0  0  0  0  0  0  0  0  0  0  0  0
    0.9290   -1.2758   -0.3512 N   0  0  0  0  0  0  0  0  0  0  0  0
    0.2001   -0.8194    0.6397 C   0  0  0  0  0  0  0  0  0  0  0  0
    0.4756   -1.2154    2.3057 S   0  0  0  0  0  0  0  0  0  0  0  0
    1.7913   -2.4613    2.1734 C   0  0  0  0  0  0  0  0  0  0  0  0
    3.1614   -1.8120    2.0290 C   0  0  0  0  0  0  0  0  0  0  0  0
    3.8904   -1.6643    3.0078 O   0  0  0  0  0  0  0  0  0  0  0  0
    3.4664   -1.4575    0.7259 N   0  0  0  0  0  0  0  0  0  0  0  0
    4.6696   -0.9211    0.2310 C   0  0  0  0  0  0  0  0  0  0  0  0
    5.8240   -0.7476    1.0029 C   0  0  0  0  0  0  0  0  0  0  0  0
    6.9918   -0.2331    0.4286 C   0  0  0  0  0  0  0  0  0  0  0  0
    7.0031    0.1111   -0.9165 C   0  0  0  0  0  0  0  0  0  0  0  0
    8.1245    0.5989   -1.4630 F   0  0  0  0  0  0  0  0  0  0  0  0
    5.8613   -0.0532   -1.6871 C   0  0  0  0  0  0  0  0  0  0  0  0
    5.8724    0.2780   -2.9854 F   0  0  0  0  0  0  0  0  0  0  0  0
    4.6956   -0.5650   -1.1238 C   0  0  0  0  0  0  0  0  0  0  0  0
   -1.5419    1.4213    1.9531 C   0  0  0  0  0  0  0  0  0  0  0  0
   -2.5440    2.1096    2.6415 C   0  0  0  0  0  0  0  0  0  0  0  0
   -5.0996    2.2363    4.0065 H   0  0  0  0  0  0  0  0  0  0  0  0
   -4.6727    3.7550    3.1731 H   0  0  0  0  0  0  0  0  0  0  0  0
   -5.9095    2.6920    2.4949 H   0  0  0  0  0  0  0  0  0  0  0  0
   -5.2551    0.9996    0.9037 H   0  0  0  0  0  0  0  0  0  0  0  0
   -3.5152   -0.2281   -0.2926 H   0  0  0  0  0  0  0  0  0  0  0  0
   -1.7960    1.6324   -1.7825 H   0  0  0  0  0  0  0  0  0  0  0  0
   -0.7442    1.0099   -3.0254 H   0  0  0  0  0  0  0  0  0  0  0  0
   -4.2454    1.3878   -2.6653 H   0  0  0  0  0  0  0  0  0  0  0  0
   -5.7685   -0.3567   -3.9516 H   0  0  0  0  0  0  0  0  0  0  0  0
   -4.3949   -2.4942   -4.6340 H   0  0  0  0  0  0  0  0  0  0  0  0
    1.7966   -3.0512    3.0969 H   0  0  0  0  0  0  0  0  0  0  0  0
    1.6073   -3.1655    1.3549 H   0  0  0  0  0  0  0  0  0  0  0  0
    2.7054   -1.5394    0.0502 H   0  0  0  0  0  0  0  0  0  0  0  0
    5.8512   -1.0141    2.0554 H   0  0  0  0  0  0  0  0  0  0  0  0
    7.8868   -0.1033    1.0258 H   0  0  0  0  0  0  0  0  0  0  0  0
    3.8206   -0.6819   -1.7569 H   0  0  0  0  0  0  0  0  0  0  0  0
   -0.5073    1.5707    2.2636 H   0  0  0  0  0  0  0  0  0  0  0  0
   -2.2714    2.7495    3.4794 H   0  0  0  0  0  0  0  0  0  0  0  0
  1  2  1  0
  2  3  2  0
  3  4  1  0
  4  5  2  0
  5  6  1  0
  6  7  1  0
  7  8  1  0
  8  9  1  0
  9 10  2  0
 10 11  1  0
 11 12  2  0
 12 13  1  0
  7 14  2  0
 14 15  1  0
 15 16  2  0
 16 17  1  0
 17 18  1  0
 18 19  1  0
 19 20  2  0
 19 21  1  0
 21 22  1  0
 22 23  2  0
 23 24  1  0
 24 25  2  0
 25 26  1  0
 25 27  1  0
 27 28  1  0
 27 29  2  0
  5 30  1  0
 30 31  2  0
 31  2  1  0
 16  6  1  0
 29 22  1  0
 13  9  1  0
  1 32  1  0
  1 33  1  0
  1 34  1  0
  3 35  1  0
  4 36  1  0
  8 37  1  0
  8 38  1  0
 10 39  1  0
 11 40  1  0
 12 41  1  0
 18 42  1  0
 18 43  1  0
 21 44  1  0
 23 45  1  0
 24 46  1  0
 29 47  1  0
 30 48  1  0
 31 49  1  0
M  END
$$$$
