
     RDKit          3D

 39 42  0  0  0  0  0  0  0  0999 V2000
   -8.1141   -1.1599    0.4038 O   0  0  0  0  0  0  0  0  0  0  0  0
   -7.4703   -1.0491   -0.6248 C   0  0  0  0  0  0  0  0  0  0  0  0
   -8.0743   -1.1122   -1.8268 O   0  0  0  0  0  0  0  0  0  0  0  0
   -5.9904   -0.8423   -0.7505 C   0  0  0  0  0  0  0  0  0  0  0  0
   -5.3485   -0.7540    0.6306 C   0  0  0  0  0  0  0  0  0  0  0  0
   -3.8988   -0.5521    0.5447 N   0  0  0  0  0  0  0  0  0  0  0  0
   -3.4173    0.7379    0.4061 C   0  0  0  0  0  0  0  0  0  0  0  0
   -4.1001    1.7515    0.3371 O   0  0  0  0  0  0  0  0  0  0  0  0
   -1.9315    0.7373    0.3240 C   0  0  0  0  0  0  0  0  0  0  0  0
   -1.2657    1.8945    0.2116 C   0  0  0  0  0  0  0  0  0  0  0  0
    0.1481    2.0356    0.1211 C   0  0  0  0  0  0  0  0  0  0  0  0
    0.8795    3.2112    0.0073 C   0  0  0  0  0  0  0  0  0  0  0  0
    2.2500    2.8670   -0.0515 C   0  0  0  0  0  0  0  0  0  0  0  0
    2.3248    1.4898    0.0277 C   0  0  0  0  0  0  0  0  0  0  0  0
    3.4998    0.6622    0.0096 C   0  0  0  0  0  0  0  0  0  0  0  0
    4.7118    1.1665   -0.0923 N   0  0  0  0  0  0  0  0  0  0  0  0
    5.6465    0.1444   -0.0841 C   0  0  0  0  0  0  0  0  0  0  0  0
    7.0444    0.3027   -0.1756 C   0  0  0  0  0  0  0  0  0  0  0  0
    7.8754   -0.8223   -0.1550 C   0  0  0  0  0  0  0  0  0  0  0  0
    7.3314   -2.0981   -0.0448 C   0  0  0  0  0  0  0  0  0  0  0  0
    5.9483   -2.2824    0.0474 C   0  0  0  0  0  0  0  0  0  0  0  0
    5.1233   -1.1455    0.0257 C   0  0  0  0  0  0  0  0  0  0  0  0
    3.4078   -1.0461    0.1198 S   0  0  0  0  0  0  0  0  0  0  0  0
    1.0504    1.0003    0.1312 O   0  0  0  0  0  0  0  0  0  0  0  0
   -1.3502   -0.8759    0.3911 S   0  0  0  0  0  0  0  0  0  0  0  0
   -2.9616   -1.5634    0.5235 C   0  0  0  0  0  0  0  0  0  0  0  0
   -3.2224   -3.2091    0.5979 S   0  0  0  0  0  0  0  0  0  0  0  0
   -9.0233   -1.2474   -1.6195 H   0  0  0  0  0  0  0  0  0  0  0  0
   -5.5678   -1.6794   -1.3159 H   0  0  0  0  0  0  0  0  0  0  0  0
   -5.8135    0.0826   -1.3103 H   0  0  0  0  0  0  0  0  0  0  0  0
   -5.5624   -1.6562    1.2134 H   0  0  0  0  0  0  0  0  0  0  0  0
   -5.7834    0.0856    1.1877 H   0  0  0  0  0  0  0  0  0  0  0  0
   -1.8384    2.8203    0.1857 H   0  0  0  0  0  0  0  0  0  0  0  0
    0.4643    4.2096   -0.0291 H   0  0  0  0  0  0  0  0  0  0  0  0
    3.0959    3.5356   -0.1411 H   0  0  0  0  0  0  0  0  0  0  0  0
    7.4651    1.2997   -0.2614 H   0  0  0  0  0  0  0  0  0  0  0  0
    8.9533   -0.6955   -0.2257 H   0  0  0  0  0  0  0  0  0  0  0  0
    7.9890   -2.9650   -0.0298 H   0  0  0  0  0  0  0  0  0  0  0  0
    5.5246   -3.2785    0.1334 H   0  0  0  0  0  0  0  0  0  0  0  0
  1  2  2  0
  2  3  1  0
  2  4  1  0
  4  5  1  0
  5  6  1  0
  6  7  1  0
  7  8  2  0
  7  9  1  0
  9 10  2  3
 10 11  1  0
 11 12  2  0
 12 13  1  0
 13 14  2  0
 14 15  1  0
 15 16  2  0
 16 17  1  0
 17 18  2  0
 18 19  1  0
 19 20  2  0
 20 21  1  0
 21 22  2  0
 22 23  1  0
 14 24  1  0
  9 25  1  0
 25 26  1  0
 26 27  2  0
 26  6  1  0
 24 11  1  0
 23 15  1  0
 22 17  1  0
  3 28  1  0
  4 29  1  0
  4 30  1  0
  5 31  1  0
  5 32  1  0
 10 33  1  0
 12 34  1  0
 13 35  1  0
 18 36  1  0
 19 37  1  0
 20 38  1  0
 21 39  1  0
M  END
$$$$
