
     RDKit          3D

 39 42  0  0  0  0  0  0  0  0999 V2000
    5.9866   -0.1788   -1.2386 C   0  0  0  0  0  0  0  0  0  0  0  0
    5.7310   -1.2045   -0.3123 C   0  0  0  0  0  0  0  0  0  0  0  0
    4.4784   -1.3245    0.2986 C   0  0  0  0  0  0  0  0  0  0  0  0
    3.4946   -0.4076   -0.0311 C   0  0  0  0  0  0  0  0  0  0  0  0
    3.7582    0.6204   -0.9626 C   0  0  0  0  0  0  0  0  0  0  0  0
    4.9955    0.7464   -1.5720 C   0  0  0  0  0  0  0  0  0  0  0  0
    2.5291    1.4858   -1.1508 C   0  0  0  0  0  0  0  0  0  0  0  0
    1.5346    0.8278   -0.2154 C   0  0  0  0  0  0  0  0  0  0  0  0
    0.2202    1.1939    0.0299 C   0  0  0  0  0  0  0  0  0  0  0  0
   -0.5262    0.4324    0.9427 C   0  0  0  0  0  0  0  0  0  0  0  0
   -1.9656    0.7972    1.2491 C   0  0  0  0  0  0  0  0  0  0  0  0
   -2.9207   -0.2727    0.9212 N   0  0  0  0  0  0  0  0  0  0  0  0
   -2.9366   -0.5625   -0.5317 C   0  0  0  0  0  0  0  0  0  0  0  0
   -4.2650   -1.1925   -0.9755 C   0  0  0  0  0  0  0  0  0  0  0  0
   -5.3817   -0.3102   -0.7910 O   0  0  0  0  0  0  0  0  0  0  0  0
   -5.2080    0.5936    0.3083 C   0  0  0  0  0  0  0  0  0  0  0  0
   -4.2817    0.0434    1.4038 C   0  0  0  0  0  0  0  0  0  0  0  0
    0.0743   -0.6751    1.5858 C   0  0  0  0  0  0  0  0  0  0  0  0
    1.4020   -1.0361    1.3308 C   0  0  0  0  0  0  0  0  0  0  0  0
    2.1274   -0.2794    0.4281 C   0  0  0  0  0  0  0  0  0  0  0  0
    6.9688   -0.1067   -1.7001 H   0  0  0  0  0  0  0  0  0  0  0  0
    6.5181   -1.9141   -0.0678 H   0  0  0  0  0  0  0  0  0  0  0  0
    4.2910   -2.1195    1.0120 H   0  0  0  0  0  0  0  0  0  0  0  0
    5.1933    1.5377   -2.2871 H   0  0  0  0  0  0  0  0  0  0  0  0
    2.7295    2.5153   -0.8399 H   0  0  0  0  0  0  0  0  0  0  0  0
    2.1769    1.4379   -2.1853 H   0  0  0  0  0  0  0  0  0  0  0  0
   -0.2158    2.0485   -0.4775 H   0  0  0  0  0  0  0  0  0  0  0  0
   -2.0062    1.0129    2.3253 H   0  0  0  0  0  0  0  0  0  0  0  0
   -2.2401    1.7304    0.7396 H   0  0  0  0  0  0  0  0  0  0  0  0
   -2.1153   -1.2451   -0.7753 H   0  0  0  0  0  0  0  0  0  0  0  0
   -2.7949    0.3610   -1.1087 H   0  0  0  0  0  0  0  0  0  0  0  0
   -4.2236   -1.4481   -2.0392 H   0  0  0  0  0  0  0  0  0  0  0  0
   -4.4635   -2.1202   -0.4259 H   0  0  0  0  0  0  0  0  0  0  0  0
   -4.8216    1.5403   -0.0867 H   0  0  0  0  0  0  0  0  0  0  0  0
   -6.2005    0.7966    0.7232 H   0  0  0  0  0  0  0  0  0  0  0  0
   -4.2608    0.7293    2.2589 H   0  0  0  0  0  0  0  0  0  0  0  0
   -4.7116   -0.8948    1.7771 H   0  0  0  0  0  0  0  0  0  0  0  0
   -0.5113   -1.2667    2.2879 H   0  0  0  0  0  0  0  0  0  0  0  0
    1.8409   -1.8918    1.8320 H   0  0  0  0  0  0  0  0  0  0  0  0
  1  2  2  0
  2  3  1  0
  3  4  2  0
  4  5  1  0
  5  6  2  0
  5  7  1  0
  7  8  1  0
  8  9  2  0
  9 10  1  0
 10 11  1  0
 11 12  1  0
 12 13  1  0
 13 14  1  0
 14 15  1  0
 15 16  1  0
 16 17  1  0
 10 18  2  0
 18 19  1  0
 19 20  2  0
  6  1  1  0
 20  8  1  0
 20  4  1  0
 17 12  1  0
  1 21  1  0
  2 22  1  0
  3 23  1  0
  6 24  1  0
  7 25  1  0
  7 26  1  0
  9 27  1  0
 11 28  1  0
 11 29  1  0
 13 30  1  0
 13 31  1  0
 14 32  1  0
 14 33  1  0
 16 34  1  0
 16 35  1  0
 17 36  1  0
 17 37  1  0
 18 38  1  0
 19 39  1  0
M  END
$$$$
