
     RDKit          3D

 36 37  0  0  0  0  0  0  0  0999 V2000
    4.8728    0.8924    0.5712 C   0  0  0  0  0  0  0  0  0  0  0  0
    4.5947   -0.2847   -0.2686 N   0  0  0  0  0  0  0  0  0  0  0  0
    4.2855    0.0559   -1.6669 C   0  0  0  0  0  0  0  0  0  0  0  0
    3.6996   -1.5467    0.4371 S   0  0  0  0  0  6  0  0  0  0  0  0
    4.2010   -1.7706    1.7762 O   0  0  0  0  0  0  0  0  0  0  0  0
    3.6097   -2.6298   -0.5194 O   0  0  0  0  0  0  0  0  0  0  0  0
    2.0663   -0.8451    0.5937 C   0  0  0  0  0  0  0  0  0  0  0  0
    1.1258   -1.0477   -0.4216 C   0  0  0  0  0  0  0  0  0  0  0  0
   -0.1636   -0.5244   -0.2857 C   0  0  0  0  0  0  0  0  0  0  0  0
   -0.5173    0.1901    0.8691 C   0  0  0  0  0  0  0  0  0  0  0  0
   -1.8726    0.7738    1.0639 C   0  0  0  0  0  0  0  0  0  0  0  0
   -2.1623    1.5006    1.9990 O   0  0  0  0  0  0  0  0  0  0  0  0
   -2.7066    0.3943    0.0642 O   0  0  0  0  0  0  0  0  0  0  0  0
   -4.0617    0.8149    0.2277 C   0  0  0  0  0  0  0  0  0  0  0  0
   -4.7383    0.8437   -1.1256 C   0  0  0  0  0  0  0  0  0  0  0  0
   -5.2432   -0.5687   -1.2665 C   0  0  0  0  0  0  0  0  0  0  0  0
   -5.5992   -0.9745    0.0527 O   0  0  0  0  0  0  0  0  0  0  0  0
   -4.8758   -0.2399    0.9544 C   0  0  0  0  0  0  0  0  0  0  0  0
   -4.8797   -0.4535    2.1556 O   0  0  0  0  0  0  0  0  0  0  0  0
    0.4298    0.3679    1.8895 C   0  0  0  0  0  0  0  0  0  0  0  0
    1.7181   -0.1567    1.7591 C   0  0  0  0  0  0  0  0  0  0  0  0
    5.6983    1.4661    0.1369 H   0  0  0  0  0  0  0  0  0  0  0  0
    5.1871    0.5985    1.5763 H   0  0  0  0  0  0  0  0  0  0  0  0
    3.9970    1.5437    0.6381 H   0  0  0  0  0  0  0  0  0  0  0  0
    5.1046    0.6458   -2.0915 H   0  0  0  0  0  0  0  0  0  0  0  0
    4.1910   -0.8426   -2.2826 H   0  0  0  0  0  0  0  0  0  0  0  0
    3.3656    0.6432   -1.7343 H   0  0  0  0  0  0  0  0  0  0  0  0
    1.3853   -1.6163   -1.3128 H   0  0  0  0  0  0  0  0  0  0  0  0
   -0.8820   -0.6888   -1.0851 H   0  0  0  0  0  0  0  0  0  0  0  0
   -4.1552    1.7952    0.7070 H   0  0  0  0  0  0  0  0  0  0  0  0
   -5.5923    1.5312   -1.0950 H   0  0  0  0  0  0  0  0  0  0  0  0
   -4.0823    1.1330   -1.9514 H   0  0  0  0  0  0  0  0  0  0  0  0
   -6.1203   -0.6238   -1.9178 H   0  0  0  0  0  0  0  0  0  0  0  0
   -4.4759   -1.2505   -1.6490 H   0  0  0  0  0  0  0  0  0  0  0  0
    0.1613    0.9058    2.7984 H   0  0  0  0  0  0  0  0  0  0  0  0
    2.4350   -0.0318    2.5684 H   0  0  0  0  0  0  0  0  0  0  0  0
  1  2  1  0
  2  3  1  0
  2  4  1  0
  4  5  2  0
  4  6  2  0
  4  7  1  0
  7  8  2  0
  8  9  1  0
  9 10  2  0
 10 11  1  0
 11 12  2  0
 11 13  1  0
 13 14  1  0
 14 15  1  0
 15 16  1  0
 16 17  1  0
 17 18  1  0
 18 19  2  0
 10 20  1  0
 20 21  2  0
 21  7  1  0
 18 14  1  0
  1 22  1  0
  1 23  1  0
  1 24  1  0
  3 25  1  0
  3 26  1  0
  3 27  1  0
  8 28  1  0
  9 29  1  0
 14 30  1  0
 15 31  1  0
 15 32  1  0
 16 33  1  0
 16 34  1  0
 20 35  1  0
 21 36  1  0
M  END
$$$$
