
     RDKit          3D

 56 61  0  0  0  0  0  0  0  0999 V2000
    5.8680   -0.8967    0.5703 C   0  0  0  0  0  0  0  0  0  0  0  0
    4.6044   -0.6418   -0.1958 C   0  0  0  0  0  0  0  0  0  0  0  0
    4.6284   -0.2802   -1.5563 C   0  0  0  0  0  0  0  0  0  0  0  0
    6.1225   -0.1091   -2.4124 Cl  0  0  0  0  0  0  0  0  0  0  0  0
    3.4424   -0.0367   -2.2773 C   0  0  0  0  0  0  0  0  0  0  0  0
    2.1947   -0.1468   -1.6627 C   0  0  0  0  0  0  0  0  0  0  0  0
    2.1586   -0.4970   -0.3223 C   0  0  0  0  0  0  0  0  0  0  0  0
    3.3464   -0.7366    0.3871 C   0  0  0  0  0  0  0  0  0  0  0  0
    3.0435   -1.0580    1.7082 N   0  0  0  0  0  0  0  0  0  0  0  0
    1.6664   -1.0641    1.9442 C   0  0  0  0  0  0  0  0  0  0  0  0
    1.1497   -1.3093    3.0237 O   0  0  0  0  0  0  0  0  0  0  0  0
    0.9870   -0.6937    0.5985 C   0  0  0  0  0  0  0  0  0  0  0  0
    0.0123   -1.7402    0.1658 N   0  0  0  0  0  0  0  0  0  0  0  0
   -1.3787   -1.2465    0.4789 C   0  0  2  0  0  0  0  0  0  0  0  0
   -2.3972   -1.6245   -0.6146 C   0  0  0  0  0  0  0  0  0  0  0  0
   -2.5494   -3.1090   -0.8578 C   0  0  0  0  0  0  0  0  0  0  0  0
   -2.9377   -3.9737    0.1751 C   0  0  0  0  0  0  0  0  0  0  0  0
   -3.0882   -5.3410   -0.0636 C   0  0  0  0  0  0  0  0  0  0  0  0
   -2.8607   -5.8576   -1.3370 C   0  0  0  0  0  0  0  0  0  0  0  0
   -2.4844   -5.0073   -2.3741 C   0  0  0  0  0  0  0  0  0  0  0  0
   -2.3320   -3.6399   -2.1375 C   0  0  0  0  0  0  0  0  0  0  0  0
   -1.1737    0.2207    0.6080 C   0  0  0  0  0  0  0  0  0  0  0  0
    0.1823    0.5368    0.6567 C   0  0  0  0  0  0  0  0  0  0  0  0
    0.3175    1.8965    0.7706 C   0  0  0  0  0  0  0  0  0  0  0  0
    1.4191    2.6322    0.9029 O   0  0  0  0  0  0  0  0  0  0  0  0
   -0.9818    2.4516    0.7888 N   0  0  0  0  0  0  0  0  0  0  0  0
   -1.3071    3.8517    0.8746 C   0  0  0  0  0  0  0  0  0  0  0  0
   -0.3934    4.8279    0.4422 C   0  0  0  0  0  0  0  0  0  0  0  0
   -0.7099    6.1882    0.5217 C   0  0  0  0  0  0  0  0  0  0  0  0
   -1.9381    6.5792    1.0340 C   0  0  0  0  0  0  0  0  0  0  0  0
   -2.2397    7.8820    1.1099 F   0  0  0  0  0  0  0  0  0  0  0  0
   -2.8573    5.6356    1.4684 C   0  0  0  0  0  0  0  0  0  0  0  0
   -2.5442    4.2744    1.3887 C   0  0  0  0  0  0  0  0  0  0  0  0
   -1.8998    1.3788    0.7120 C   0  0  0  0  0  0  0  0  0  0  0  0
   -3.2181    1.5575    0.6969 O   0  0  0  0  0  0  0  0  0  0  0  0
    6.4692    0.0169    0.6235 H   0  0  0  0  0  0  0  0  0  0  0  0
    5.6774   -1.2211    1.5969 H   0  0  0  0  0  0  0  0  0  0  0  0
    6.4517   -1.6896    0.0909 H   0  0  0  0  0  0  0  0  0  0  0  0
    3.4943    0.2431   -3.3280 H   0  0  0  0  0  0  0  0  0  0  0  0
    1.2843    0.0488   -2.2218 H   0  0  0  0  0  0  0  0  0  0  0  0
    3.7023   -1.2886    2.4369 H   0  0  0  0  0  0  0  0  0  0  0  0
    0.0824   -1.8306   -0.8448 H   0  0  0  0  0  0  0  0  0  0  0  0
   -1.6755   -1.6582    1.4508 H   0  0  0  0  0  0  0  0  0  0  0  0
   -3.3879   -1.2319   -0.3520 H   0  0  0  0  0  0  0  0  0  0  0  0
   -2.1261   -1.1241   -1.5549 H   0  0  0  0  0  0  0  0  0  0  0  0
   -3.1241   -3.5945    1.1771 H   0  0  0  0  0  0  0  0  0  0  0  0
   -3.3827   -6.0035    0.7463 H   0  0  0  0  0  0  0  0  0  0  0  0
   -2.9778   -6.9223   -1.5209 H   0  0  0  0  0  0  0  0  0  0  0  0
   -2.3105   -5.4094   -3.3688 H   0  0  0  0  0  0  0  0  0  0  0  0
   -2.0427   -2.9941   -2.9633 H   0  0  0  0  0  0  0  0  0  0  0  0
    2.1892    2.0379    0.9172 H   0  0  0  0  0  0  0  0  0  0  0  0
    0.5636    4.5619    0.0038 H   0  0  0  0  0  0  0  0  0  0  0  0
   -0.0051    6.9397    0.1812 H   0  0  0  0  0  0  0  0  0  0  0  0
   -3.8103    5.9597    1.8738 H   0  0  0  0  0  0  0  0  0  0  0  0
   -3.2756    3.5704    1.7731 H   0  0  0  0  0  0  0  0  0  0  0  0
   -3.6478    0.6862    0.7226 H   0  0  0  0  0  0  0  0  0  0  0  0
  1  2  1  0
  2  3  2  0
  3  4  1  0
  3  5  1  0
  5  6  2  0
  6  7  1  0
  7  8  2  0
  8  9  1  0
  9 10  1  0
 10 11  2  0
 10 12  1  0
 12 13  1  0
 13 14  1  0
 14 15  1  0
 15 16  1  0
 16 17  2  0
 17 18  1  0
 18 19  2  0
 19 20  1  0
 20 21  2  0
 14 22  1  0
 22 23  1  0
 23 24  2  0
 24 25  1  0
 24 26  1  0
 26 27  1  0
 27 28  2  0
 28 29  1  0
 29 30  2  0
 30 31  1  0
 30 32  1  0
 32 33  2  0
 26 34  1  0
 34 35  1  0
  8  2  1  0
 23 12  1  0
 33 27  1  0
 12  7  1  0
 21 16  1  0
 34 22  2  0
  1 36  1  0
  1 37  1  0
  1 38  1  0
  5 39  1  0
  6 40  1  0
  9 41  1  0
 13 42  1  0
 14 43  1  1
 15 44  1  0
 15 45  1  0
 17 46  1  0
 18 47  1  0
 19 48  1  0
 20 49  1  0
 21 50  1  0
 25 51  1  0
 28 52  1  0
 29 53  1  0
 32 54  1  0
 33 55  1  0
 35 56  1  0
M  END
$$$$
