
     RDKit          3D

 34 35  0  0  0  0  0  0  0  0999 V2000
    6.8089    0.0075    0.7672 C   0  0  0  0  0  0  0  0  0  0  0  0
    6.1663   -0.2583   -0.4732 O   0  0  0  0  0  0  0  0  0  0  0  0
    4.8077   -0.4110   -0.4445 C   0  0  0  0  0  0  0  0  0  0  0  0
    3.9947   -0.3209    0.6857 C   0  0  0  0  0  0  0  0  0  0  0  0
    2.6109   -0.4989    0.5699 C   0  0  0  0  0  0  0  0  0  0  0  0
    2.0264   -0.7574   -0.6726 C   0  0  0  0  0  0  0  0  0  0  0  0
    0.6433   -0.9492   -0.7920 N   0  0  0  0  0  0  0  0  0  0  0  0
   -0.0778    0.1255   -0.7645 C   0  0  0  0  0  0  0  0  0  0  0  0
   -1.5711    0.0381   -0.8887 C   0  0  0  0  0  0  0  0  0  0  0  0
   -2.2917    0.7385    0.2377 C   0  0  0  0  0  0  0  0  0  0  0  0
   -1.7061    1.4838    1.0214 O   0  0  0  0  0  0  0  0  0  0  0  0
   -3.7662    0.5396    0.3843 C   0  0  0  0  0  0  0  0  0  0  0  0
   -4.4029    1.0823    1.5110 C   0  0  0  0  0  0  0  0  0  0  0  0
   -5.7801    0.9264    1.6922 C   0  0  0  0  0  0  0  0  0  0  0  0
   -6.5263    0.2290    0.7459 C   0  0  0  0  0  0  0  0  0  0  0  0
   -8.2209    0.0356    0.9645 Cl  0  0  0  0  0  0  0  0  0  0  0  0
   -5.9068   -0.3119   -0.3797 C   0  0  0  0  0  0  0  0  0  0  0  0
   -4.5278   -0.1570   -0.5634 C   0  0  0  0  0  0  0  0  0  0  0  0
    2.8432   -0.8628   -1.7975 C   0  0  0  0  0  0  0  0  0  0  0  0
    4.2246   -0.6851   -1.6843 C   0  0  0  0  0  0  0  0  0  0  0  0
    6.4661    0.9558    1.1941 H   0  0  0  0  0  0  0  0  0  0  0  0
    6.6656   -0.8187    1.4713 H   0  0  0  0  0  0  0  0  0  0  0  0
    7.8823    0.0982    0.5748 H   0  0  0  0  0  0  0  0  0  0  0  0
    4.4004   -0.1186    1.6708 H   0  0  0  0  0  0  0  0  0  0  0  0
    1.9840   -0.4386    1.4557 H   0  0  0  0  0  0  0  0  0  0  0  0
    0.3627    1.1370   -0.6785 H   0  0  0  0  0  0  0  0  0  0  0  0
   -1.8482    0.5229   -1.8303 H   0  0  0  0  0  0  0  0  0  0  0  0
   -1.8558   -1.0186   -0.9133 H   0  0  0  0  0  0  0  0  0  0  0  0
   -3.8285    1.6300    2.2570 H   0  0  0  0  0  0  0  0  0  0  0  0
   -6.2593    1.3510    2.5707 H   0  0  0  0  0  0  0  0  0  0  0  0
   -6.4918   -0.8545   -1.1188 H   0  0  0  0  0  0  0  0  0  0  0  0
   -4.0804   -0.5863   -1.4554 H   0  0  0  0  0  0  0  0  0  0  0  0
    2.4034   -1.0870   -2.7648 H   0  0  0  0  0  0  0  0  0  0  0  0
    4.8513   -0.7664   -2.5688 H   0  0  0  0  0  0  0  0  0  0  0  0
  1  2  1  0
  2  3  1  0
  3  4  2  0
  4  5  1  0
  5  6  2  0
  6  7  1  0
  7  8  2  3
  8  9  1  0
  9 10  1  0
 10 11  2  0
 10 12  1  0
 12 13  2  0
 13 14  1  0
 14 15  2  0
 15 16  1  0
 15 17  1  0
 17 18  2  0
  6 19  1  0
 19 20  2  0
 20  3  1  0
 18 12  1  0
  1 21  1  0
  1 22  1  0
  1 23  1  0
  4 24  1  0
  5 25  1  0
  8 26  1  0
  9 27  1  0
  9 28  1  0
 13 29  1  0
 14 30  1  0
 17 31  1  0
 18 32  1  0
 19 33  1  0
 20 34  1  0
M  END
$$$$
