
     RDKit          3D

 69 73  0  0  0  0  0  0  0  0999 V2000
    3.7078   -3.0798   -4.3144 C   0  0  0  0  0  0  0  0  0  0  0  0
    3.3313   -1.9244   -3.5769 O   0  0  0  0  0  0  0  0  0  0  0  0
    3.8860   -1.7678   -2.3350 C   0  0  0  0  0  0  0  0  0  0  0  0
    4.8326   -2.6111   -1.7459 C   0  0  0  0  0  0  0  0  0  0  0  0
    5.3193   -2.3336   -0.4651 C   0  0  0  0  0  0  0  0  0  0  0  0
    6.2400   -3.0768    0.2239 O   0  0  0  0  0  0  0  0  0  0  0  0
    6.7462   -4.2400   -0.4177 C   0  0  0  0  0  0  0  0  0  0  0  0
    4.8561   -1.2083    0.2222 C   0  0  0  0  0  0  0  0  0  0  0  0
    3.9099   -0.3546   -0.3556 C   0  0  0  0  0  0  0  0  0  0  0  0
    3.4059    0.8136    0.3752 C   0  0  0  0  0  0  0  0  0  0  0  0
    4.4883    2.0961    0.7065 S   0  0  0  0  0  0  0  0  0  0  0  0
    3.2799    3.0361    1.4836 C   0  0  0  0  0  0  0  0  0  0  0  0
    3.4409    4.3121    2.0569 C   0  0  0  0  0  0  0  0  0  0  0  0
    2.3419    4.9369    2.6576 C   0  0  0  0  0  0  0  0  0  0  0  0
    1.1043    4.3095    2.6937 C   0  0  0  0  0  0  0  0  0  0  0  0
   -0.0387    4.8148    3.2508 O   0  0  0  0  0  0  0  0  0  0  0  0
    0.0561    6.0908    3.8712 C   0  0  0  0  0  0  0  0  0  0  0  0
    0.9582    3.0409    2.1196 C   0  0  0  0  0  0  0  0  0  0  0  0
    2.0493    2.3794    1.4965 C   0  0  0  0  0  0  0  0  0  0  0  0
    2.1318    1.0886    0.8482 C   0  0  0  0  0  0  0  0  0  0  0  0
    1.0309    0.1449    0.6829 C   0  0  0  0  0  0  0  0  0  0  0  0
   -0.0322    0.4533   -0.1721 C   0  0  0  0  0  0  0  0  0  0  0  0
   -1.0916   -0.4463   -0.3389 C   0  0  0  0  0  0  0  0  0  0  0  0
   -1.0984   -1.6593    0.3499 C   0  0  0  0  0  0  0  0  0  0  0  0
   -2.0644   -2.6241    0.2870 O   0  0  0  0  0  0  0  0  0  0  0  0
   -3.1689   -2.4346   -0.6043 C   0  0  0  0  0  0  0  0  0  0  0  0
   -4.2851   -1.6213    0.0753 C   0  0  0  0  0  0  0  0  0  0  0  0
   -5.5033   -1.4839   -0.7442 N   0  0  0  0  0  0  0  0  0  0  0  0
   -5.3349   -0.6064   -1.9128 C   0  0  0  0  0  0  0  0  0  0  0  0
   -5.2243    0.8820   -1.5704 C   0  0  0  0  0  0  0  0  0  0  0  0
   -6.3986    1.3421   -0.7134 C   0  0  0  0  0  0  0  0  0  0  0  0
   -6.5881    0.4256    0.4903 C   0  0  0  0  0  0  0  0  0  0  0  0
   -6.6531   -1.0431    0.0637 C   0  0  0  0  0  0  0  0  0  0  0  0
   -0.0377   -1.9606    1.2090 C   0  0  0  0  0  0  0  0  0  0  0  0
    1.0224   -1.0667    1.3784 C   0  0  0  0  0  0  0  0  0  0  0  0
    3.4315   -0.6456   -1.6376 C   0  0  0  0  0  0  0  0  0  0  0  0
    3.1592   -3.0657   -5.2611 H   0  0  0  0  0  0  0  0  0  0  0  0
    3.4308   -3.9962   -3.7829 H   0  0  0  0  0  0  0  0  0  0  0  0
    4.7772   -3.0658   -4.5493 H   0  0  0  0  0  0  0  0  0  0  0  0
    5.1894   -3.4797   -2.2827 H   0  0  0  0  0  0  0  0  0  0  0  0
    7.2831   -3.9818   -1.3364 H   0  0  0  0  0  0  0  0  0  0  0  0
    7.4603   -4.7133    0.2631 H   0  0  0  0  0  0  0  0  0  0  0  0
    5.9466   -4.9615   -0.6153 H   0  0  0  0  0  0  0  0  0  0  0  0
    5.2359   -1.0062    1.2215 H   0  0  0  0  0  0  0  0  0  0  0  0
    4.4077    4.8078    2.0351 H   0  0  0  0  0  0  0  0  0  0  0  0
    2.4973    5.9200    3.0900 H   0  0  0  0  0  0  0  0  0  0  0  0
    0.3267    6.8636    3.1442 H   0  0  0  0  0  0  0  0  0  0  0  0
    0.7606    6.0714    4.7093 H   0  0  0  0  0  0  0  0  0  0  0  0
   -0.9308    6.3419    4.2717 H   0  0  0  0  0  0  0  0  0  0  0  0
   -0.0135    2.5531    2.1576 H   0  0  0  0  0  0  0  0  0  0  0  0
   -0.0404    1.3934   -0.7194 H   0  0  0  0  0  0  0  0  0  0  0  0
   -1.8917   -0.1615   -1.0127 H   0  0  0  0  0  0  0  0  0  0  0  0
   -2.8403   -2.0232   -1.5639 H   0  0  0  0  0  0  0  0  0  0  0  0
   -3.5542   -3.4370   -0.8275 H   0  0  0  0  0  0  0  0  0  0  0  0
   -4.5324   -2.1556    1.0032 H   0  0  0  0  0  0  0  0  0  0  0  0
   -3.9018   -0.6493    0.4037 H   0  0  0  0  0  0  0  0  0  0  0  0
   -6.2010   -0.7504   -2.5726 H   0  0  0  0  0  0  0  0  0  0  0  0
   -4.4711   -0.9102   -2.5131 H   0  0  0  0  0  0  0  0  0  0  0  0
   -4.2835    1.0815   -1.0446 H   0  0  0  0  0  0  0  0  0  0  0  0
   -5.1961    1.4692   -2.4956 H   0  0  0  0  0  0  0  0  0  0  0  0
   -6.2403    2.3736   -0.3802 H   0  0  0  0  0  0  0  0  0  0  0  0
   -7.3130    1.3381   -1.3195 H   0  0  0  0  0  0  0  0  0  0  0  0
   -7.5120    0.6965    1.0141 H   0  0  0  0  0  0  0  0  0  0  0  0
   -5.7675    0.5766    1.2017 H   0  0  0  0  0  0  0  0  0  0  0  0
   -6.7647   -1.6818    0.9485 H   0  0  0  0  0  0  0  0  0  0  0  0
   -7.5670   -1.2020   -0.5238 H   0  0  0  0  0  0  0  0  0  0  0  0
   -0.0352   -2.9031    1.7512 H   0  0  0  0  0  0  0  0  0  0  0  0
    1.8356   -1.3249    2.0523 H   0  0  0  0  0  0  0  0  0  0  0  0
    2.6943    0.0039   -2.1047 H   0  0  0  0  0  0  0  0  0  0  0  0
  1  2  1  0
  2  3  1  0
  3  4  2  0
  4  5  1  0
  5  6  1  0
  6  7  1  0
  5  8  2  0
  8  9  1  0
  9 10  1  0
 10 11  1  0
 11 12  1  0
 12 13  2  0
 13 14  1  0
 14 15  2  0
 15 16  1  0
 16 17  1  0
 15 18  1  0
 18 19  2  0
 19 20  1  0
 20 21  1  0
 21 22  2  0
 22 23  1  0
 23 24  2  0
 24 25  1  0
 25 26  1  0
 26 27  1  0
 27 28  1  0
 28 29  1  0
 29 30  1  0
 30 31  1  0
 31 32  1  0
 32 33  1  0
 24 34  1  0
 34 35  2  0
  9 36  2  0
 36  3  1  0
 20 10  2  0
 35 21  1  0
 19 12  1  0
 33 28  1  0
  1 37  1  0
  1 38  1  0
  1 39  1  0
  4 40  1  0
  7 41  1  0
  7 42  1  0
  7 43  1  0
  8 44  1  0
 13 45  1  0
 14 46  1  0
 17 47  1  0
 17 48  1  0
 17 49  1  0
 18 50  1  0
 22 51  1  0
 23 52  1  0
 26 53  1  0
 26 54  1  0
 27 55  1  0
 27 56  1  0
 29 57  1  0
 29 58  1  0
 30 59  1  0
 30 60  1  0
 31 61  1  0
 31 62  1  0
 32 63  1  0
 32 64  1  0
 33 65  1  0
 33 66  1  0
 34 67  1  0
 35 68  1  0
 36 69  1  0
M  END
$$$$
