
     RDKit          3D

 38 39  0  0  0  0  0  0  0  0999 V2000
   -3.3305   -1.3803    1.9120 C   0  0  0  0  0  0  0  0  0  0  0  0
   -2.7562   -0.1585    1.4571 O   0  0  0  0  0  0  0  0  0  0  0  0
   -3.5764    0.6633    0.7210 C   0  0  0  0  0  0  0  0  0  0  0  0
   -4.9631    0.7103    0.9241 C   0  0  0  0  0  0  0  0  0  0  0  0
   -5.7707    1.5385    0.1346 C   0  0  0  0  0  0  0  0  0  0  0  0
   -5.2007    2.3261   -0.8665 C   0  0  0  0  0  0  0  0  0  0  0  0
   -3.8226    2.2901   -1.0757 C   0  0  0  0  0  0  0  0  0  0  0  0
   -2.9961    1.4764   -0.2695 C   0  0  0  0  0  0  0  0  0  0  0  0
   -1.5281    1.5318   -0.5562 C   0  0  0  0  0  0  0  0  0  0  0  0
   -1.1588    1.8582   -1.6880 O   0  0  0  0  0  0  0  0  0  0  0  0
   -0.5334    1.3032    0.5911 C   0  0  0  0  0  0  0  0  0  0  0  0
    0.7882    1.7219    0.2267 O   0  0  0  0  0  0  0  0  0  0  0  0
    1.5039    0.7795   -0.4524 C   0  0  0  0  0  0  0  0  0  0  0  0
    1.1473   -0.3570   -0.7168 O   0  0  0  0  0  0  0  0  0  0  0  0
    2.8029    1.4004   -0.8084 C   0  0  0  0  0  0  0  0  0  0  0  0
    3.9796    0.7653   -0.9763 C   0  0  0  0  0  0  0  0  0  0  0  0
    4.2623   -0.6700   -0.8616 C   0  0  0  0  0  0  0  0  0  0  0  0
    3.6652   -1.6122   -1.7121 C   0  0  0  0  0  0  0  0  0  0  0  0
    3.9815   -2.9683   -1.5951 C   0  0  0  0  0  0  0  0  0  0  0  0
    4.9062   -3.3950   -0.6387 C   0  0  0  0  0  0  0  0  0  0  0  0
    5.5112   -2.4671    0.2053 C   0  0  0  0  0  0  0  0  0  0  0  0
    5.1863   -1.1095    0.0939 C   0  0  0  0  0  0  0  0  0  0  0  0
   -2.5082   -2.0682    2.1403 H   0  0  0  0  0  0  0  0  0  0  0  0
   -3.9569   -1.8569    1.1515 H   0  0  0  0  0  0  0  0  0  0  0  0
   -3.8837   -1.2237    2.8431 H   0  0  0  0  0  0  0  0  0  0  0  0
   -5.4398    0.1067    1.6919 H   0  0  0  0  0  0  0  0  0  0  0  0
   -6.8476    1.5537    0.2956 H   0  0  0  0  0  0  0  0  0  0  0  0
   -5.8256    2.9491   -1.5042 H   0  0  0  0  0  0  0  0  0  0  0  0
   -3.3922    2.8964   -1.8714 H   0  0  0  0  0  0  0  0  0  0  0  0
   -0.8353    1.9259    1.4472 H   0  0  0  0  0  0  0  0  0  0  0  0
   -0.5117    0.2551    0.9144 H   0  0  0  0  0  0  0  0  0  0  0  0
    2.7703    2.4849   -0.8991 H   0  0  0  0  0  0  0  0  0  0  0  0
    4.8577    1.3665   -1.2006 H   0  0  0  0  0  0  0  0  0  0  0  0
    2.9474   -1.2947   -2.4671 H   0  0  0  0  0  0  0  0  0  0  0  0
    3.4995   -3.6920   -2.2462 H   0  0  0  0  0  0  0  0  0  0  0  0
    5.1491   -4.4484   -0.5462 H   0  0  0  0  0  0  0  0  0  0  0  0
    6.2287   -2.7982    0.9519 H   0  0  0  0  0  0  0  0  0  0  0  0
    5.6504   -0.4034    0.7791 H   0  0  0  0  0  0  0  0  0  0  0  0
  1  2  1  0
  2  3  1  0
  3  4  2  0
  4  5  1  0
  5  6  2  0
  6  7  1  0
  7  8  2  0
  8  9  1  0
  9 10  2  0
  9 11  1  0
 11 12  1  0
 12 13  1  0
 13 14  2  0
 13 15  1  0
 15 16  2  3
 16 17  1  0
 17 18  2  0
 18 19  1  0
 19 20  2  0
 20 21  1  0
 21 22  2  0
  8  3  1  0
 22 17  1  0
  1 23  1  0
  1 24  1  0
  1 25  1  0
  4 26  1  0
  5 27  1  0
  6 28  1  0
  7 29  1  0
 11 30  1  0
 11 31  1  0
 15 32  1  0
 16 33  1  0
 18 34  1  0
 19 35  1  0
 20 36  1  0
 21 37  1  0
 22 38  1  0
M  END
$$$$
