
     RDKit          3D

 61 63  0  0  0  0  0  0  0  0999 V2000
   -7.5849    3.1297    1.8760 C   0  0  0  0  0  0  0  0  0  0  0  0
   -7.3667    1.9570    2.6498 O   0  0  0  0  0  0  0  0  0  0  0  0
   -6.9432    0.8442    1.9761 C   0  0  0  0  0  0  0  0  0  0  0  0
   -6.6938    0.7592    0.6068 C   0  0  0  0  0  0  0  0  0  0  0  0
   -6.2673   -0.4486    0.0433 C   0  0  0  0  0  0  0  0  0  0  0  0
   -6.0897   -1.5885    0.8387 C   0  0  0  0  0  0  0  0  0  0  0  0
   -5.6113   -2.8777    0.2243 C   0  0  0  0  0  0  0  0  0  0  0  0
   -4.1746   -2.9164    0.1637 N   0  0  0  0  0  0  0  0  0  0  0  0
   -3.4736   -2.5170   -0.9487 C   0  0  0  0  0  0  0  0  0  0  0  0
   -3.9436   -2.2149   -2.0371 O   0  0  0  0  0  0  0  0  0  0  0  0
   -1.9462   -2.4512   -0.7189 C   0  0  0  0  0  0  0  0  0  0  0  0
   -1.4760   -2.6977    0.3830 O   0  0  0  0  0  0  0  0  0  0  0  0
   -1.2327   -2.0764   -1.8334 N   0  0  0  0  0  0  0  0  0  0  0  0
    0.1906   -1.7859   -1.7639 C   0  0  0  0  0  0  0  0  0  0  0  0
    0.5139   -0.4907   -0.9708 C   0  0  0  0  0  0  0  0  0  0  0  0
   -0.2545    0.6006   -1.5292 O   0  0  0  0  0  0  0  0  0  0  0  0
    0.5819    1.2067   -2.5158 C   0  0  0  0  0  0  0  0  0  0  0  0
    1.9728    1.1300   -1.9290 C   0  0  0  0  0  0  0  0  0  0  0  0
    1.9173   -0.0311   -1.0277 N   0  0  0  0  0  0  0  0  0  0  0  0
    3.1339   -1.1751   -1.0973 S   0  0  0  0  0  6  0  0  0  0  0  0
    3.2605   -1.5795   -2.4806 O   0  0  0  0  0  0  0  0  0  0  0  0
    2.9095   -2.1427   -0.0489 O   0  0  0  0  0  0  0  0  0  0  0  0
    4.5687   -0.2332   -0.6491 C   0  0  0  0  0  0  0  0  0  0  0  0
    5.5709    0.0105   -1.5875 C   0  0  0  0  0  0  0  0  0  0  0  0
    6.6910    0.7551   -1.2142 C   0  0  0  0  0  0  0  0  0  0  0  0
    6.8129    1.2465    0.0926 C   0  0  0  0  0  0  0  0  0  0  0  0
    7.8758    1.9906    0.5416 O   0  0  0  0  0  0  0  0  0  0  0  0
    8.9724    2.1758   -0.3406 C   0  0  0  0  0  0  0  0  0  0  0  0
    5.7960    0.9867    1.0383 C   0  0  0  0  0  0  0  0  0  0  0  0
    5.9963    1.5011    2.2954 O   0  0  0  0  0  0  0  0  0  0  0  0
    5.0127    1.2309    3.2850 C   0  0  0  0  0  0  0  0  0  0  0  0
    4.6754    0.2426    0.6616 C   0  0  0  0  0  0  0  0  0  0  0  0
   -6.3280   -1.4936    2.2146 C   0  0  0  0  0  0  0  0  0  0  0  0
   -6.7553   -0.2866    2.7741 C   0  0  0  0  0  0  0  0  0  0  0  0
   -6.6546    3.4729    1.4118 H   0  0  0  0  0  0  0  0  0  0  0  0
   -7.9305    3.9184    2.5517 H   0  0  0  0  0  0  0  0  0  0  0  0
   -8.3670    2.9688    1.1262 H   0  0  0  0  0  0  0  0  0  0  0  0
   -6.8185    1.6108   -0.0535 H   0  0  0  0  0  0  0  0  0  0  0  0
   -6.0696   -0.4952   -1.0269 H   0  0  0  0  0  0  0  0  0  0  0  0
   -6.0371   -3.0017   -0.7782 H   0  0  0  0  0  0  0  0  0  0  0  0
   -5.9402   -3.7328    0.8258 H   0  0  0  0  0  0  0  0  0  0  0  0
   -3.6387   -3.0054    1.0225 H   0  0  0  0  0  0  0  0  0  0  0  0
   -1.7815   -1.7397   -2.6203 H   0  0  0  0  0  0  0  0  0  0  0  0
    0.5294   -1.7050   -2.8023 H   0  0  0  0  0  0  0  0  0  0  0  0
    0.6794   -2.6528   -1.3079 H   0  0  0  0  0  0  0  0  0  0  0  0
    0.2089   -0.5945    0.0751 H   0  0  0  0  0  0  0  0  0  0  0  0
    0.5018    0.6362   -3.4473 H   0  0  0  0  0  0  0  0  0  0  0  0
    0.2590    2.2341   -2.7055 H   0  0  0  0  0  0  0  0  0  0  0  0
    2.7295    1.0580   -2.7137 H   0  0  0  0  0  0  0  0  0  0  0  0
    2.1864    2.0181   -1.3235 H   0  0  0  0  0  0  0  0  0  0  0  0
    5.4929   -0.3720   -2.6024 H   0  0  0  0  0  0  0  0  0  0  0  0
    7.4532    0.9363   -1.9651 H   0  0  0  0  0  0  0  0  0  0  0  0
    8.6796    2.7716   -1.2116 H   0  0  0  0  0  0  0  0  0  0  0  0
    9.4050    1.2165   -0.6435 H   0  0  0  0  0  0  0  0  0  0  0  0
    9.7450    2.7333    0.1979 H   0  0  0  0  0  0  0  0  0  0  0  0
    4.0477    1.6728    3.0127 H   0  0  0  0  0  0  0  0  0  0  0  0
    5.3406    1.6987    4.2191 H   0  0  0  0  0  0  0  0  0  0  0  0
    4.9201    0.1550    3.4672 H   0  0  0  0  0  0  0  0  0  0  0  0
    3.8765    0.0182    1.3626 H   0  0  0  0  0  0  0  0  0  0  0  0
   -6.1858   -2.3555    2.8615 H   0  0  0  0  0  0  0  0  0  0  0  0
   -6.9428   -0.2254    3.8431 H   0  0  0  0  0  0  0  0  0  0  0  0
  1  2  1  0
  2  3  1  0
  3  4  2  0
  4  5  1  0
  5  6  2  0
  6  7  1  0
  7  8  1  0
  8  9  1  0
  9 10  2  0
  9 11  1  0
 11 12  2  0
 11 13  1  0
 13 14  1  0
 14 15  1  0
 15 16  1  0
 16 17  1  0
 17 18  1  0
 18 19  1  0
 19 20  1  0
 20 21  2  0
 20 22  2  0
 20 23  1  0
 23 24  2  0
 24 25  1  0
 25 26  2  0
 26 27  1  0
 27 28  1  0
 26 29  1  0
 29 30  1  0
 30 31  1  0
 29 32  2  0
  6 33  1  0
 33 34  2  0
 34  3  1  0
 19 15  1  0
 32 23  1  0
  1 35  1  0
  1 36  1  0
  1 37  1  0
  4 38  1  0
  5 39  1  0
  7 40  1  0
  7 41  1  0
  8 42  1  0
 13 43  1  0
 14 44  1  0
 14 45  1  0
 15 46  1  0
 17 47  1  0
 17 48  1  0
 18 49  1  0
 18 50  1  0
 24 51  1  0
 25 52  1  0
 28 53  1  0
 28 54  1  0
 28 55  1  0
 31 56  1  0
 31 57  1  0
 31 58  1  0
 32 59  1  0
 33 60  1  0
 34 61  1  0
M  END
$$$$
