
     RDKit          3D

 49 52  0  0  0  0  0  0  0  0999 V2000
    2.5284    1.7553    1.5963 C   0  0  0  0  0  0  0  0  0  0  0  0
    3.7622    0.8940    1.6706 C   0  0  0  0  0  0  0  0  0  0  0  0
    4.6247    1.0704    2.7711 C   0  0  0  0  0  0  0  0  0  0  0  0
    5.7686    0.2897    2.9099 C   0  0  0  0  0  0  0  0  0  0  0  0
    6.8176    0.5306    4.2537 Cl  0  0  0  0  0  0  0  0  0  0  0  0
    6.0685   -0.6793    1.9636 C   0  0  0  0  0  0  0  0  0  0  0  0
    5.2200   -0.8653    0.8671 C   0  0  0  0  0  0  0  0  0  0  0  0
    4.0625   -0.0909    0.7030 C   0  0  0  0  0  0  0  0  0  0  0  0
    3.2022   -0.2476   -0.4108 N   0  0  0  0  0  0  0  0  0  0  0  0
    3.2386   -1.2408   -1.3778 C   0  0  0  0  0  0  0  0  0  0  0  0
    3.9697   -2.2295   -1.3732 O   0  0  0  0  0  0  0  0  0  0  0  0
    2.2616   -1.0124   -2.5232 C   0  0  0  0  0  0  0  0  0  0  0  0
    0.6338   -1.7241   -2.1446 S   0  0  0  0  0  0  0  0  0  0  0  0
   -0.1080   -0.4153   -1.2958 C   0  0  0  0  0  0  0  0  0  0  0  0
    0.5192    0.6435   -0.8400 N   0  0  0  0  0  0  0  0  0  0  0  0
   -0.3986    1.4315   -0.2036 N   0  0  0  0  0  0  0  0  0  0  0  0
   -1.5815    0.8492   -0.2967 C   0  0  0  0  0  0  0  0  0  0  0  0
   -2.8596    1.3988    0.2511 C   0  0  0  0  0  0  0  0  0  0  0  0
   -3.3687    0.6397    1.4455 C   0  0  0  0  0  0  0  0  0  0  0  0
   -2.6710    0.2041    2.5571 C   0  0  0  0  0  0  0  0  0  0  0  0
   -3.5020   -0.4895    3.4836 C   0  0  0  0  0  0  0  0  0  0  0  0
   -4.8120   -0.5372    3.0659 C   0  0  0  0  0  0  0  0  0  0  0  0
   -5.0336    0.2405    1.5591 S   0  0  0  0  0  0  0  0  0  0  0  0
   -1.4398   -0.3377   -0.9884 N   0  0  0  0  0  0  0  0  0  0  0  0
   -2.4779   -1.3057   -1.2899 C   0  0  0  0  0  0  0  0  0  0  0  0
   -3.3014   -0.8682   -2.4441 C   0  0  0  0  0  0  0  0  0  0  0  0
   -4.6401   -0.5640   -2.5949 C   0  0  0  0  0  0  0  0  0  0  0  0
   -4.8187   -0.2114   -3.9549 C   0  0  0  0  0  0  0  0  0  0  0  0
   -3.5850   -0.3342   -4.5485 C   0  0  0  0  0  0  0  0  0  0  0  0
   -2.6599   -0.7361   -3.6406 O   0  0  0  0  0  0  0  0  0  0  0  0
    1.6341    1.1315    1.6968 H   0  0  0  0  0  0  0  0  0  0  0  0
    2.5022    2.4952    2.4050 H   0  0  0  0  0  0  0  0  0  0  0  0
    2.4983    2.3115    0.6537 H   0  0  0  0  0  0  0  0  0  0  0  0
    4.4013    1.8220    3.5252 H   0  0  0  0  0  0  0  0  0  0  0  0
    6.9621   -1.2896    2.0580 H   0  0  0  0  0  0  0  0  0  0  0  0
    5.5057   -1.6237    0.1430 H   0  0  0  0  0  0  0  0  0  0  0  0
    2.3947    0.3748   -0.4527 H   0  0  0  0  0  0  0  0  0  0  0  0
    2.6594   -1.5219   -3.4082 H   0  0  0  0  0  0  0  0  0  0  0  0
    2.1986    0.0507   -2.7787 H   0  0  0  0  0  0  0  0  0  0  0  0
   -3.6082    1.4401   -0.5477 H   0  0  0  0  0  0  0  0  0  0  0  0
   -2.6912    2.4393    0.5602 H   0  0  0  0  0  0  0  0  0  0  0  0
   -1.6076    0.3684    2.6979 H   0  0  0  0  0  0  0  0  0  0  0  0
   -3.1551   -0.9230    4.4140 H   0  0  0  0  0  0  0  0  0  0  0  0
   -5.6532   -0.9890    3.5738 H   0  0  0  0  0  0  0  0  0  0  0  0
   -2.0238   -2.2798   -1.4951 H   0  0  0  0  0  0  0  0  0  0  0  0
   -3.0879   -1.4378   -0.3934 H   0  0  0  0  0  0  0  0  0  0  0  0
   -5.3959   -0.5903   -1.8207 H   0  0  0  0  0  0  0  0  0  0  0  0
   -5.7337    0.0908   -4.4469 H   0  0  0  0  0  0  0  0  0  0  0  0
   -3.2195   -0.1803   -5.5547 H   0  0  0  0  0  0  0  0  0  0  0  0
  1  2  1  0
  2  3  2  0
  3  4  1  0
  4  5  1  0
  4  6  2  0
  6  7  1  0
  7  8  2  0
  8  9  1  0
  9 10  1  0
 10 11  2  0
 10 12  1  0
 12 13  1  0
 13 14  1  0
 14 15  2  0
 15 16  1  0
 16 17  2  0
 17 18  1  0
 18 19  1  0
 19 20  2  0
 20 21  1  0
 21 22  2  0
 22 23  1  0
 17 24  1  0
 24 25  1  0
 25 26  1  0
 26 27  2  0
 27 28  1  0
 28 29  2  0
 29 30  1  0
  8  2  1  0
 24 14  1  0
 30 26  1  0
 23 19  1  0
  1 31  1  0
  1 32  1  0
  1 33  1  0
  3 34  1  0
  6 35  1  0
  7 36  1  0
  9 37  1  0
 12 38  1  0
 12 39  1  0
 18 40  1  0
 18 41  1  0
 20 42  1  0
 21 43  1  0
 22 44  1  0
 25 45  1  0
 25 46  1  0
 27 47  1  0
 28 48  1  0
 29 49  1  0
M  END
$$$$
