
     RDKit          3D

 58 63  0  0  0  0  0  0  0  0999 V2000
    8.3735    0.5555    0.9576 C   0  0  0  0  0  0  0  0  0  0  0  0
    7.0099    0.5354    0.3571 C   0  0  0  0  0  0  0  0  0  0  0  0
    6.4667   -0.3868   -0.5126 C   0  0  0  0  0  0  0  0  0  0  0  0
    5.1263   -0.0620   -0.8726 C   0  0  0  0  0  0  0  0  0  0  0  0
    4.6775    1.0887   -0.2521 C   0  0  0  0  0  0  0  0  0  0  0  0
    3.3886    1.7586   -0.3562 C   0  0  0  0  0  0  0  0  0  0  0  0
    3.2976    2.9716   -0.5511 O   0  0  0  0  0  0  0  0  0  0  0  0
    2.2326    0.9684   -0.2540 N   0  0  0  0  0  0  0  0  0  0  0  0
    2.2065   -0.3800    0.3100 C   0  0  0  0  0  0  0  0  0  0  0  0
    0.9090   -0.6451    1.0698 C   0  0  0  0  0  0  0  0  0  0  0  0
   -0.3514   -0.5159    0.1563 C   0  0  0  0  0  0  0  0  0  0  0  0
   -0.0898    0.5741   -0.9258 C   0  0  0  0  0  0  0  0  0  0  0  0
    0.9425    1.6064   -0.4935 C   0  0  0  0  0  0  0  0  0  0  0  0
   -0.5159   -1.7433   -0.6065 O   0  0  0  0  0  0  0  0  0  0  0  0
   -0.9991   -2.8246    0.0758 C   0  0  0  0  0  0  0  0  0  0  0  0
   -0.8342   -4.0639   -0.5411 C   0  0  0  0  0  0  0  0  0  0  0  0
   -1.2735   -5.2259    0.0979 C   0  0  0  0  0  0  0  0  0  0  0  0
   -1.8802   -5.1442    1.3517 C   0  0  0  0  0  0  0  0  0  0  0  0
   -2.4154   -6.5790    2.1336 Cl  0  0  0  0  0  0  0  0  0  0  0  0
   -2.0628   -3.9096    1.9690 C   0  0  0  0  0  0  0  0  0  0  0  0
   -1.6286   -2.7509    1.3180 C   0  0  0  0  0  0  0  0  0  0  0  0
   -1.8511   -1.4243    1.9234 C   0  0  0  0  0  0  0  0  0  0  0  0
   -2.2322   -1.3437    3.0856 O   0  0  0  0  0  0  0  0  0  0  0  0
   -1.6371   -0.2374    0.9898 C   0  0  0  0  0  0  0  0  0  0  0  0
   -2.9281   -0.0478    0.1979 C   0  0  0  0  0  0  0  0  0  0  0  0
   -3.1053    1.4210    0.3631 C   0  0  0  0  0  0  0  0  0  0  0  0
   -4.1325    2.1796   -0.3889 C   0  0  0  0  0  0  0  0  0  0  0  0
   -5.0482    1.5365   -1.2301 C   0  0  0  0  0  0  0  0  0  0  0  0
   -6.0014    2.2852   -1.9287 C   0  0  0  0  0  0  0  0  0  0  0  0
   -6.0411    3.6715   -1.7859 C   0  0  0  0  0  0  0  0  0  0  0  0
   -7.2152    4.5853   -2.6481 Cl  0  0  0  0  0  0  0  0  0  0  0  0
   -5.1364    4.3188   -0.9484 C   0  0  0  0  0  0  0  0  0  0  0  0
   -4.1830    3.5734   -0.2494 C   0  0  0  0  0  0  0  0  0  0  0  0
   -2.2910    1.9757    1.2005 N   0  0  0  0  0  0  0  0  0  0  0  0
   -1.4839    0.9594    1.7559 O   0  0  0  0  0  0  0  0  0  0  0  0
    5.9004    1.7851    0.7233 S   0  0  0  0  0  0  0  0  0  0  0  0
    8.8625    1.5198    0.7894 H   0  0  0  0  0  0  0  0  0  0  0  0
    8.3212    0.3731    2.0358 H   0  0  0  0  0  0  0  0  0  0  0  0
    9.0077   -0.2205    0.5147 H   0  0  0  0  0  0  0  0  0  0  0  0
    7.0082   -1.2489   -0.8840 H   0  0  0  0  0  0  0  0  0  0  0  0
    4.5261   -0.6388   -1.5657 H   0  0  0  0  0  0  0  0  0  0  0  0
    2.3129   -1.0894   -0.5183 H   0  0  0  0  0  0  0  0  0  0  0  0
    3.0513   -0.5189    0.9918 H   0  0  0  0  0  0  0  0  0  0  0  0
    0.8523    0.0698    1.9002 H   0  0  0  0  0  0  0  0  0  0  0  0
    0.9802   -1.6433    1.5152 H   0  0  0  0  0  0  0  0  0  0  0  0
    0.2728    0.0931   -1.8458 H   0  0  0  0  0  0  0  0  0  0  0  0
   -1.0073    1.0853   -1.2265 H   0  0  0  0  0  0  0  0  0  0  0  0
    1.0510    2.3669   -1.2750 H   0  0  0  0  0  0  0  0  0  0  0  0
    0.6413    2.1215    0.4252 H   0  0  0  0  0  0  0  0  0  0  0  0
   -0.3535   -4.1307   -1.5145 H   0  0  0  0  0  0  0  0  0  0  0  0
   -1.1364   -6.1910   -0.3846 H   0  0  0  0  0  0  0  0  0  0  0  0
   -2.5452   -3.8464    2.9421 H   0  0  0  0  0  0  0  0  0  0  0  0
   -2.8412   -0.3386   -0.8518 H   0  0  0  0  0  0  0  0  0  0  0  0
   -3.7895   -0.5577    0.6432 H   0  0  0  0  0  0  0  0  0  0  0  0
   -5.0479    0.4580   -1.3558 H   0  0  0  0  0  0  0  0  0  0  0  0
   -6.7118    1.7821   -2.5800 H   0  0  0  0  0  0  0  0  0  0  0  0
   -5.1661    5.3991   -0.8318 H   0  0  0  0  0  0  0  0  0  0  0  0
   -3.4825    4.0897    0.4050 H   0  0  0  0  0  0  0  0  0  0  0  0
  1  2  1  0
  2  3  2  0
  3  4  1  0
  4  5  2  0
  5  6  1  0
  6  7  2  0
  6  8  1  0
  8  9  1  0
  9 10  1  0
 10 11  1  0
 11 12  1  0
 12 13  1  0
 11 14  1  0
 14 15  1  0
 15 16  2  0
 16 17  1  0
 17 18  2  0
 18 19  1  0
 18 20  1  0
 20 21  2  0
 21 22  1  0
 22 23  2  0
 22 24  1  0
 24 25  1  0
 25 26  1  0
 26 27  1  0
 27 28  2  0
 28 29  1  0
 29 30  2  0
 30 31  1  0
 30 32  1  0
 32 33  2  0
 26 34  2  0
 34 35  1  0
  5 36  1  0
 36  2  1  0
 13  8  1  0
 21 15  1  0
 35 24  1  0
 24 11  1  0
 33 27  1  0
  1 37  1  0
  1 38  1  0
  1 39  1  0
  3 40  1  0
  4 41  1  0
  9 42  1  0
  9 43  1  0
 10 44  1  0
 10 45  1  0
 12 46  1  0
 12 47  1  0
 13 48  1  0
 13 49  1  0
 16 50  1  0
 17 51  1  0
 20 52  1  0
 25 53  1  0
 25 54  1  0
 28 55  1  0
 29 56  1  0
 32 57  1  0
 33 58  1  0
M  END
$$$$
