
     RDKit          3D

 57 60  0  0  0  0  0  0  0  0999 V2000
   -5.9545   -1.2378   -0.0844 C   0  0  0  0  0  0  0  0  0  0  0  0
   -4.8314   -2.2224   -0.4062 C   0  0  0  0  0  0  0  0  0  0  0  0
   -5.3565   -3.6547   -0.2664 C   0  0  0  0  0  0  0  0  0  0  0  0
   -3.6280   -1.9956    0.5149 C   0  0  0  0  0  0  0  0  0  0  0  0
   -3.3593   -2.8020    1.4089 O   0  0  0  0  0  0  0  0  0  0  0  0
   -2.8640   -0.8518    0.3401 N   0  0  0  0  0  0  0  0  0  0  0  0
   -1.7653   -0.6146    1.2864 C   0  0  0  0  0  0  0  0  0  0  0  0
   -1.2677    0.8392    1.2679 C   0  0  0  0  0  0  0  0  0  0  0  0
   -0.8071    1.2219   -0.0911 N   0  0  0  0  0  0  0  0  0  0  0  0
   -0.5734    2.6212   -0.1725 C   0  0  0  0  0  0  0  0  0  0  0  0
   -1.6122    3.5521   -0.3174 C   0  0  0  0  0  0  0  0  0  0  0  0
   -1.3359    4.9196   -0.3677 C   0  0  0  0  0  0  0  0  0  0  0  0
   -0.0210    5.3707   -0.2715 C   0  0  0  0  0  0  0  0  0  0  0  0
    1.0273    4.4602   -0.1229 C   0  0  0  0  0  0  0  0  0  0  0  0
    0.7596    3.0924   -0.0713 C   0  0  0  0  0  0  0  0  0  0  0  0
    1.7502    2.0965    0.0559 N   0  0  0  0  0  0  0  0  0  0  0  0
    3.1053    2.2526    0.2408 C   0  0  0  0  0  0  0  0  0  0  0  0
    3.7052    3.3099    0.3957 O   0  0  0  0  0  0  0  0  0  0  0  0
    3.8830    0.9808    0.2930 C   0  0  0  0  0  0  0  0  0  0  0  0
    5.0357    0.9362    1.0912 C   0  0  0  0  0  0  0  0  0  0  0  0
    5.7943   -0.2343    1.1686 C   0  0  0  0  0  0  0  0  0  0  0  0
    5.4110   -1.3577    0.4394 C   0  0  0  0  0  0  0  0  0  0  0  0
    4.2563   -1.3202   -0.3500 C   0  0  0  0  0  0  0  0  0  0  0  0
    3.5028   -0.1502   -0.4416 C   0  0  0  0  0  0  0  0  0  0  0  0
    3.8064   -2.3964   -1.0732 O   0  0  0  0  0  0  0  0  0  0  0  0
    4.4299   -3.6117   -0.6404 C   0  0  0  0  0  0  0  0  0  0  0  0
    5.9290   -3.4183   -0.4850 C   0  0  0  0  0  0  0  0  0  0  0  0
    6.2114   -2.4661    0.5467 O   0  0  0  0  0  0  0  0  0  0  0  0
   -1.5998    0.6591   -1.2112 C   0  0  0  0  0  0  0  0  0  0  0  0
   -2.9694    0.1069   -0.7698 C   0  0  0  0  0  0  0  0  0  0  0  0
   -6.8241   -1.4169   -0.7257 H   0  0  0  0  0  0  0  0  0  0  0  0
   -6.2742   -1.3348    0.9593 H   0  0  0  0  0  0  0  0  0  0  0  0
   -5.6455   -0.2000   -0.2316 H   0  0  0  0  0  0  0  0  0  0  0  0
   -4.5119   -2.1059   -1.4461 H   0  0  0  0  0  0  0  0  0  0  0  0
   -6.1789   -3.8372   -0.9664 H   0  0  0  0  0  0  0  0  0  0  0  0
   -5.7249   -3.8514    0.7466 H   0  0  0  0  0  0  0  0  0  0  0  0
   -4.5664   -4.3834   -0.4803 H   0  0  0  0  0  0  0  0  0  0  0  0
   -2.0921   -0.8820    2.2974 H   0  0  0  0  0  0  0  0  0  0  0  0
   -0.9514   -1.2953    1.0079 H   0  0  0  0  0  0  0  0  0  0  0  0
   -0.4380    0.9441    1.9775 H   0  0  0  0  0  0  0  0  0  0  0  0
   -2.0826    1.4946    1.6035 H   0  0  0  0  0  0  0  0  0  0  0  0
   -2.6451    3.2252   -0.3793 H   0  0  0  0  0  0  0  0  0  0  0  0
   -2.1469    5.6352   -0.4778 H   0  0  0  0  0  0  0  0  0  0  0  0
    0.1943    6.4358   -0.3112 H   0  0  0  0  0  0  0  0  0  0  0  0
    2.0406    4.8430   -0.0569 H   0  0  0  0  0  0  0  0  0  0  0  0
    1.3443    1.1654    0.0547 H   0  0  0  0  0  0  0  0  0  0  0  0
    5.3445    1.8154    1.6537 H   0  0  0  0  0  0  0  0  0  0  0  0
    6.6879   -0.2633    1.7866 H   0  0  0  0  0  0  0  0  0  0  0  0
    2.6382   -0.1348   -1.0982 H   0  0  0  0  0  0  0  0  0  0  0  0
    3.9657   -3.9250    0.3025 H   0  0  0  0  0  0  0  0  0  0  0  0
    4.2230   -4.3772   -1.3946 H   0  0  0  0  0  0  0  0  0  0  0  0
    6.3885   -3.0674   -1.4171 H   0  0  0  0  0  0  0  0  0  0  0  0
    6.4052   -4.3629   -0.2042 H   0  0  0  0  0  0  0  0  0  0  0  0
   -1.0119   -0.1684   -1.6274 H   0  0  0  0  0  0  0  0  0  0  0  0
   -1.7339    1.3781   -2.0290 H   0  0  0  0  0  0  0  0  0  0  0  0
   -3.6012    0.9282   -0.4139 H   0  0  0  0  0  0  0  0  0  0  0  0
   -3.4656   -0.3445   -1.6303 H   0  0  0  0  0  0  0  0  0  0  0  0
  1  2  1  0
  2  3  1  0
  2  4  1  0
  4  5  2  0
  4  6  1  0
  6  7  1  0
  7  8  1  0
  8  9  1  0
  9 10  1  0
 10 11  2  0
 11 12  1  0
 12 13  2  0
 13 14  1  0
 14 15  2  0
 15 16  1  0
 16 17  1  0
 17 18  2  0
 17 19  1  0
 19 20  2  0
 20 21  1  0
 21 22  2  0
 22 23  1  0
 23 24  2  0
 23 25  1  0
 25 26  1  0
 26 27  1  0
 27 28  1  0
  9 29  1  0
 29 30  1  0
 30  6  1  0
 15 10  1  0
 24 19  1  0
 28 22  1  0
  1 31  1  0
  1 32  1  0
  1 33  1  0
  2 34  1  0
  3 35  1  0
  3 36  1  0
  3 37  1  0
  7 38  1  0
  7 39  1  0
  8 40  1  0
  8 41  1  0
 11 42  1  0
 12 43  1  0
 13 44  1  0
 14 45  1  0
 16 46  1  0
 20 47  1  0
 21 48  1  0
 24 49  1  0
 26 50  1  0
 26 51  1  0
 27 52  1  0
 27 53  1  0
 29 54  1  0
 29 55  1  0
 30 56  1  0
 30 57  1  0
M  END
$$$$
