
     RDKit          3D

102104  0  0  0  0  0  0  0  0999 V2000
    5.9534    1.9578    1.8419 C   0  0  0  0  0  0  0  0  0  0  0  0
    5.6566    1.2159    0.5464 C   0  0  0  0  0  0  0  0  0  0  0  0
    5.0758    2.1605   -0.5086 C   0  0  0  0  0  0  0  0  0  0  0  0
    4.8185    1.4821   -1.8595 C   0  0  0  0  0  0  0  0  0  0  0  0
    3.8662    0.2844   -1.8330 C   0  0  0  0  0  0  0  0  0  0  0  0
    2.5011    0.5268   -1.1741 C   0  0  0  0  0  0  0  0  0  0  0  0
    1.6435    1.5466   -1.9260 C   0  0  0  0  0  0  0  0  0  0  0  0
    0.4291    1.9594   -1.1086 C   0  0  0  0  0  0  0  0  0  0  0  0
   -0.1489    1.2161   -0.3193 O   0  0  0  0  0  0  0  0  0  0  0  0
    0.0018    3.2425   -1.3709 N   0  0  0  0  0  0  0  0  0  0  0  0
   -1.0053    3.9752   -0.5828 C   0  0  0  0  0  0  0  0  0  0  0  0
   -0.6218    4.0463    0.9068 C   0  0  0  0  0  0  0  0  0  0  0  0
   -1.4012    5.1059    1.7159 C   0  0  0  0  0  0  0  0  0  0  0  0
   -2.7048    4.5490    2.2883 C   0  0  0  0  0  0  0  0  0  0  0  0
   -0.5356    5.6244    2.8708 C   0  0  0  0  0  0  0  0  0  0  0  0
   -2.4362    3.4688   -0.8491 C   0  0  0  0  0  0  0  0  0  0  0  0
   -3.3081    4.2049   -1.3098 O   0  0  0  0  0  0  0  0  0  0  0  0
   -2.6765    2.1700   -0.4804 N   0  0  0  0  0  0  0  0  0  0  0  0
   -3.9847    1.5355   -0.6394 C   0  0  0  0  0  0  0  0  0  0  0  0
   -4.3178    1.1696   -2.1013 C   0  0  0  0  0  0  0  0  0  0  0  0
   -3.3207    0.2540   -2.7805 C   0  0  0  0  0  0  0  0  0  0  0  0
   -2.2259    0.7833   -3.4766 C   0  0  0  0  0  0  0  0  0  0  0  0
   -1.2775   -0.0629   -4.0544 C   0  0  0  0  0  0  0  0  0  0  0  0
   -1.4132   -1.4441   -3.9397 C   0  0  0  0  0  0  0  0  0  0  0  0
   -2.5066   -1.9818   -3.2659 C   0  0  0  0  0  0  0  0  0  0  0  0
   -3.4591   -1.1390   -2.6977 C   0  0  0  0  0  0  0  0  0  0  0  0
   -4.1201    0.3050    0.2815 C   0  0  0  0  0  0  0  0  0  0  0  0
   -5.1848    0.0013    0.8107 O   0  0  0  0  0  0  0  0  0  0  0  0
   -2.9882   -0.4806    0.3784 N   0  0  0  0  0  0  0  0  0  0  0  0
   -3.0210   -1.7985    1.0309 C   0  0  0  0  0  0  0  0  0  0  0  0
   -2.9244   -1.6419    2.5590 C   0  0  0  0  0  0  0  0  0  0  0  0
   -3.4506   -2.8480    3.3635 C   0  0  0  0  0  0  0  0  0  0  0  0
   -3.5105   -2.4930    4.8517 C   0  0  0  0  0  0  0  0  0  0  0  0
   -2.6026   -4.1045    3.1750 C   0  0  0  0  0  0  0  0  0  0  0  0
   -1.8459   -2.5874    0.4180 C   0  0  0  0  0  0  0  0  0  0  0  0
   -1.9949   -3.6397   -0.1954 O   0  0  0  0  0  0  0  0  0  0  0  0
   -0.6130   -1.9972    0.6026 N   0  0  0  0  0  0  0  0  0  0  0  0
    0.5760   -2.4536   -0.1228 C   0  0  0  0  0  0  0  0  0  0  0  0
    1.1552   -3.7569    0.4457 C   0  0  0  0  0  0  0  0  0  0  0  0
    2.3286   -4.2602   -0.3633 C   0  0  0  0  0  0  0  0  0  0  0  0
    2.1207   -4.9163   -1.5837 C   0  0  0  0  0  0  0  0  0  0  0  0
    3.2085   -5.3414   -2.3463 C   0  0  0  0  0  0  0  0  0  0  0  0
    4.5106   -5.1153   -1.8984 C   0  0  0  0  0  0  0  0  0  0  0  0
    4.7246   -4.4642   -0.6859 C   0  0  0  0  0  0  0  0  0  0  0  0
    3.6398   -4.0375    0.0798 C   0  0  0  0  0  0  0  0  0  0  0  0
    1.5986   -1.3281    0.0095 C   0  0  0  0  0  0  0  0  0  0  0  0
    2.0594   -0.9362    1.0767 O   0  0  0  0  0  0  0  0  0  0  0  0
    1.8057   -0.7365   -1.2010 O   0  0  0  0  0  0  0  0  0  0  0  0
    5.0359    2.3831    2.2673 H   0  0  0  0  0  0  0  0  0  0  0  0
    6.3885    1.2722    2.5771 H   0  0  0  0  0  0  0  0  0  0  0  0
    6.6652    2.7737    1.6743 H   0  0  0  0  0  0  0  0  0  0  0  0
    4.9518    0.4039    0.7618 H   0  0  0  0  0  0  0  0  0  0  0  0
    6.5771    0.7571    0.1653 H   0  0  0  0  0  0  0  0  0  0  0  0
    5.7799    2.9856   -0.6751 H   0  0  0  0  0  0  0  0  0  0  0  0
    4.1498    2.6169   -0.1364 H   0  0  0  0  0  0  0  0  0  0  0  0
    5.7764    1.1431   -2.2713 H   0  0  0  0  0  0  0  0  0  0  0  0
    4.4394    2.2348   -2.5612 H   0  0  0  0  0  0  0  0  0  0  0  0
    4.3583   -0.5571   -1.3268 H   0  0  0  0  0  0  0  0  0  0  0  0
    3.7090   -0.0649   -2.8625 H   0  0  0  0  0  0  0  0  0  0  0  0
    2.6446    0.8795   -0.1482 H   0  0  0  0  0  0  0  0  0  0  0  0
    1.2821    1.1295   -2.8700 H   0  0  0  0  0  0  0  0  0  0  0  0
    2.2263    2.4456   -2.1448 H   0  0  0  0  0  0  0  0  0  0  0  0
    0.5472    3.8042   -2.0139 H   0  0  0  0  0  0  0  0  0  0  0  0
   -0.9650    4.9917   -0.9915 H   0  0  0  0  0  0  0  0  0  0  0  0
   -0.7171    3.0673    1.3920 H   0  0  0  0  0  0  0  0  0  0  0  0
    0.4476    4.2942    0.9497 H   0  0  0  0  0  0  0  0  0  0  0  0
   -1.6360    5.9626    1.0702 H   0  0  0  0  0  0  0  0  0  0  0  0
   -3.2402    5.3236    2.8485 H   0  0  0  0  0  0  0  0  0  0  0  0
   -3.3841    4.1975    1.5039 H   0  0  0  0  0  0  0  0  0  0  0  0
   -2.5049    3.7160    2.9756 H   0  0  0  0  0  0  0  0  0  0  0  0
   -0.2291    4.8100    3.5409 H   0  0  0  0  0  0  0  0  0  0  0  0
    0.3717    6.1077    2.4867 H   0  0  0  0  0  0  0  0  0  0  0  0
   -1.0792    6.3701    3.4598 H   0  0  0  0  0  0  0  0  0  0  0  0
   -1.8666    1.6026   -0.2285 H   0  0  0  0  0  0  0  0  0  0  0  0
   -4.7290    2.2638   -0.2908 H   0  0  0  0  0  0  0  0  0  0  0  0
   -4.4056    2.0859   -2.6987 H   0  0  0  0  0  0  0  0  0  0  0  0
   -5.3090    0.6982   -2.1368 H   0  0  0  0  0  0  0  0  0  0  0  0
   -2.1046    1.8619   -3.5655 H   0  0  0  0  0  0  0  0  0  0  0  0
   -0.4307    0.3551   -4.5952 H   0  0  0  0  0  0  0  0  0  0  0  0
   -0.6733   -2.1031   -4.3849 H   0  0  0  0  0  0  0  0  0  0  0  0
   -2.6186   -3.0615   -3.1772 H   0  0  0  0  0  0  0  0  0  0  0  0
   -4.3059   -1.5803   -2.1744 H   0  0  0  0  0  0  0  0  0  0  0  0
   -2.2531   -0.3141   -0.3061 H   0  0  0  0  0  0  0  0  0  0  0  0
   -3.9573   -2.2927    0.7472 H   0  0  0  0  0  0  0  0  0  0  0  0
   -1.8914   -1.4206    2.8634 H   0  0  0  0  0  0  0  0  0  0  0  0
   -3.5125   -0.7622    2.8582 H   0  0  0  0  0  0  0  0  0  0  0  0
   -4.4735   -3.0717    3.0347 H   0  0  0  0  0  0  0  0  0  0  0  0
   -3.9081   -3.3288    5.4363 H   0  0  0  0  0  0  0  0  0  0  0  0
   -2.5150   -2.2501    5.2425 H   0  0  0  0  0  0  0  0  0  0  0  0
   -4.1664   -1.6313    5.0227 H   0  0  0  0  0  0  0  0  0  0  0  0
   -2.7194   -4.5143    2.1693 H   0  0  0  0  0  0  0  0  0  0  0  0
   -1.5407   -3.8973    3.3465 H   0  0  0  0  0  0  0  0  0  0  0  0
   -2.9131   -4.8929    3.8693 H   0  0  0  0  0  0  0  0  0  0  0  0
   -0.5939   -1.0536    0.9717 H   0  0  0  0  0  0  0  0  0  0  0  0
    0.2959   -2.5818   -1.1759 H   0  0  0  0  0  0  0  0  0  0  0  0
    1.4614   -3.6111    1.4895 H   0  0  0  0  0  0  0  0  0  0  0  0
    0.3911   -4.5439    0.4734 H   0  0  0  0  0  0  0  0  0  0  0  0
    1.1108   -5.1053   -1.9421 H   0  0  0  0  0  0  0  0  0  0  0  0
    3.0388   -5.8487   -3.2927 H   0  0  0  0  0  0  0  0  0  0  0  0
    5.3551   -5.4553   -2.4936 H   0  0  0  0  0  0  0  0  0  0  0  0
    5.7392   -4.2916   -0.3343 H   0  0  0  0  0  0  0  0  0  0  0  0
    3.8268   -3.5238    1.0215 H   0  0  0  0  0  0  0  0  0  0  0  0
  1  2  1  0
  2  3  1  0
  3  4  1  0
  4  5  1  0
  5  6  1  0
  6  7  1  0
  7  8  1  0
  8  9  2  0
  8 10  1  0
 10 11  1  0
 11 12  1  0
 12 13  1  0
 13 14  1  0
 13 15  1  0
 11 16  1  0
 16 17  2  0
 16 18  1  0
 18 19  1  0
 19 20  1  0
 20 21  1  0
 21 22  2  0
 22 23  1  0
 23 24  2  0
 24 25  1  0
 25 26  2  0
 19 27  1  0
 27 28  2  0
 27 29  1  0
 29 30  1  0
 30 31  1  0
 31 32  1  0
 32 33  1  0
 32 34  1  0
 30 35  1  0
 35 36  2  0
 35 37  1  0
 37 38  1  0
 38 39  1  0
 39 40  1  0
 40 41  2  0
 41 42  1  0
 42 43  2  0
 43 44  1  0
 44 45  2  0
 38 46  1  0
 46 47  2  0
 46 48  1  0
 48  6  1  0
 26 21  1  0
 45 40  1  0
  1 49  1  0
  1 50  1  0
  1 51  1  0
  2 52  1  0
  2 53  1  0
  3 54  1  0
  3 55  1  0
  4 56  1  0
  4 57  1  0
  5 58  1  0
  5 59  1  0
  6 60  1  0
  7 61  1  0
  7 62  1  0
 10 63  1  0
 11 64  1  0
 12 65  1  0
 12 66  1  0
 13 67  1  0
 14 68  1  0
 14 69  1  0
 14 70  1  0
 15 71  1  0
 15 72  1  0
 15 73  1  0
 18 74  1  0
 19 75  1  0
 20 76  1  0
 20 77  1  0
 22 78  1  0
 23 79  1  0
 24 80  1  0
 25 81  1  0
 26 82  1  0
 29 83  1  0
 30 84  1  0
 31 85  1  0
 31 86  1  0
 32 87  1  0
 33 88  1  0
 33 89  1  0
 33 90  1  0
 34 91  1  0
 34 92  1  0
 34 93  1  0
 37 94  1  0
 38 95  1  0
 39 96  1  0
 39 97  1  0
 41 98  1  0
 42 99  1  0
 43100  1  0
 44101  1  0
 45102  1  0
M  END
$$$$
