
     RDKit          3D

 47 49  0  0  0  0  0  0  0  0999 V2000
   -2.2755   -0.9072   -2.7106 O   0  0  0  0  0  0  0  0  0  0  0  0
   -2.8433   -0.7330   -1.6357 C   0  0  0  0  0  0  0  0  0  0  0  0
   -4.3737   -0.7491   -1.5552 C   0  0  0  0  0  0  0  0  0  0  0  0
   -4.8279   -0.5395   -0.2192 O   0  0  0  0  0  0  0  0  0  0  0  0
   -6.1809   -0.5379   -0.0194 C   0  0  0  0  0  0  0  0  0  0  0  0
   -6.5742   -0.3311    1.3067 C   0  0  0  0  0  0  0  0  0  0  0  0
   -7.9270   -0.3056    1.6535 C   0  0  0  0  0  0  0  0  0  0  0  0
   -8.8919   -0.4887    0.6673 C   0  0  0  0  0  0  0  0  0  0  0  0
  -10.7245   -0.4562    1.1268 Br  0  0  0  0  0  0  0  0  0  0  0  0
   -8.5131   -0.6959   -0.6574 C   0  0  0  0  0  0  0  0  0  0  0  0
   -7.1566   -0.7201   -1.0014 C   0  0  0  0  0  0  0  0  0  0  0  0
   -2.2406   -0.5074   -0.4118 N   0  0  0  0  0  0  0  0  0  0  0  0
   -0.8683   -0.4281   -0.1171 C   0  0  0  0  0  0  0  0  0  0  0  0
    0.1436   -0.5818   -1.0666 C   0  0  0  0  0  0  0  0  0  0  0  0
    1.4921   -0.4879   -0.6954 C   0  0  0  0  0  0  0  0  0  0  0  0
    1.8420   -0.2291    0.6346 C   0  0  0  0  0  0  0  0  0  0  0  0
    3.2625   -0.1252    1.0859 C   0  0  0  0  0  0  0  0  0  0  0  0
    3.5249   -0.4352    2.2424 O   0  0  0  0  0  0  0  0  0  0  0  0
    4.1487    0.3539    0.1410 N   0  0  0  0  0  0  0  0  0  0  0  0
    5.5528    0.5307    0.2570 C   0  0  0  0  0  0  0  0  0  0  0  0
    6.2588    0.1490    1.4050 C   0  0  0  0  0  0  0  0  0  0  0  0
    7.6425    0.3320    1.4961 C   0  0  0  0  0  0  0  0  0  0  0  0
    8.3469    0.8977    0.4400 C   0  0  0  0  0  0  0  0  0  0  0  0
    7.6682    1.2807   -0.7149 C   0  0  0  0  0  0  0  0  0  0  0  0
    6.2768    1.1011   -0.8179 C   0  0  0  0  0  0  0  0  0  0  0  0
    5.5753    1.5111   -2.0657 C   0  0  0  0  0  0  0  0  0  0  0  0
    4.3830    1.3748   -2.2853 O   0  0  0  0  0  0  0  0  0  0  0  0
    6.3860    2.0721   -2.9804 O   0  0  0  0  0  0  0  0  0  0  0  0
    0.8295   -0.0911    1.5905 C   0  0  0  0  0  0  0  0  0  0  0  0
   -0.5146   -0.1851    1.2154 C   0  0  0  0  0  0  0  0  0  0  0  0
   -4.7021   -1.7308   -1.9162 H   0  0  0  0  0  0  0  0  0  0  0  0
   -4.7361    0.0552   -2.2063 H   0  0  0  0  0  0  0  0  0  0  0  0
   -5.8229   -0.1886    2.0798 H   0  0  0  0  0  0  0  0  0  0  0  0
   -8.2132   -0.1437    2.6891 H   0  0  0  0  0  0  0  0  0  0  0  0
   -9.2636   -0.8399   -1.4306 H   0  0  0  0  0  0  0  0  0  0  0  0
   -6.9026   -0.8841   -2.0438 H   0  0  0  0  0  0  0  0  0  0  0  0
   -2.8888   -0.3865    0.3618 H   0  0  0  0  0  0  0  0  0  0  0  0
   -0.0803   -0.7849   -2.1097 H   0  0  0  0  0  0  0  0  0  0  0  0
    2.2474   -0.6445   -1.4614 H   0  0  0  0  0  0  0  0  0  0  0  0
    3.7523    0.6824   -0.7401 H   0  0  0  0  0  0  0  0  0  0  0  0
    5.7597   -0.3021    2.2574 H   0  0  0  0  0  0  0  0  0  0  0  0
    8.1656    0.0275    2.3999 H   0  0  0  0  0  0  0  0  0  0  0  0
    9.4224    1.0384    0.5144 H   0  0  0  0  0  0  0  0  0  0  0  0
    8.2361    1.7188   -1.5325 H   0  0  0  0  0  0  0  0  0  0  0  0
    5.7960    2.2906   -3.7321 H   0  0  0  0  0  0  0  0  0  0  0  0
    1.0846    0.0928    2.6327 H   0  0  0  0  0  0  0  0  0  0  0  0
   -1.2760   -0.0686    1.9826 H   0  0  0  0  0  0  0  0  0  0  0  0
  1  2  2  0
  2  3  1  0
  3  4  1  0
  4  5  1  0
  5  6  2  0
  6  7  1  0
  7  8  2  0
  8  9  1  0
  8 10  1  0
 10 11  2  0
  2 12  1  0
 12 13  1  0
 13 14  2  0
 14 15  1  0
 15 16  2  0
 16 17  1  0
 17 18  2  0
 17 19  1  0
 19 20  1  0
 20 21  2  0
 21 22  1  0
 22 23  2  0
 23 24  1  0
 24 25  2  0
 25 26  1  0
 26 27  2  0
 26 28  1  0
 16 29  1  0
 29 30  2  0
 11  5  1  0
 30 13  1  0
 25 20  1  0
  3 31  1  0
  3 32  1  0
  6 33  1  0
  7 34  1  0
 10 35  1  0
 11 36  1  0
 12 37  1  0
 14 38  1  0
 15 39  1  0
 19 40  1  0
 21 41  1  0
 22 42  1  0
 23 43  1  0
 24 44  1  0
 28 45  1  0
 29 46  1  0
 30 47  1  0
M  END
$$$$
