
     RDKit          3D

 61 66  0  0  0  0  0  0  0  0999 V2000
    7.4918   -1.6637   -2.3470 C   0  0  0  0  0  0  0  0  0  0  0  0
    6.4330   -2.4390   -1.8806 C   0  0  0  0  0  0  0  0  0  0  0  0
    5.6774   -2.0051   -0.7905 C   0  0  0  0  0  0  0  0  0  0  0  0
    5.9737   -0.7918   -0.1550 C   0  0  0  0  0  0  0  0  0  0  0  0
    5.1503   -0.3191    1.0207 C   0  0  0  0  0  0  0  0  0  0  0  0
    3.8629    0.4331    0.6227 C   0  0  0  0  0  0  0  0  0  0  0  0
    2.8217   -0.4058   -0.0003 N   0  0  0  0  0  0  0  0  0  0  0  0
    2.1563   -1.3211    0.9548 C   0  0  0  0  0  0  0  0  0  0  0  0
    1.1883   -0.6528    1.9608 C   0  0  0  0  0  0  0  0  0  0  0  0
    0.2013    0.2303    1.3016 N   0  0  0  0  0  0  0  0  0  0  0  0
   -1.0221   -0.2837    0.9464 C   0  0  0  0  0  0  0  0  0  0  0  0
   -1.3694   -1.5805    0.6117 C   0  0  0  0  0  0  0  0  0  0  0  0
   -2.6987   -1.5740    0.1378 C   0  0  0  0  0  0  0  0  0  0  0  0
   -3.1608   -0.2768    0.2187 C   0  0  0  0  0  0  0  0  0  0  0  0
   -4.4198    0.3271   -0.1556 C   0  0  0  0  0  0  0  0  0  0  0  0
   -5.4206   -0.4382   -0.9415 C   0  0  0  0  0  0  0  0  0  0  0  0
   -6.7539   -0.4409   -0.5153 C   0  0  0  0  0  0  0  0  0  0  0  0
   -7.7132   -1.1537   -1.2367 C   0  0  0  0  0  0  0  0  0  0  0  0
   -7.3451   -1.8502   -2.3895 C   0  0  0  0  0  0  0  0  0  0  0  0
   -6.0200   -1.8276   -2.8292 C   0  0  0  0  0  0  0  0  0  0  0  0
   -5.0564   -1.1191   -2.1083 C   0  0  0  0  0  0  0  0  0  0  0  0
   -4.7027    1.5469    0.1931 N   0  0  0  0  0  0  0  0  0  0  0  0
   -3.7648    2.2820    0.9452 C   0  0  0  0  0  0  0  0  0  0  0  0
   -4.1283    3.5677    1.3568 C   0  0  0  0  0  0  0  0  0  0  0  0
   -3.2657    4.3405    2.1353 C   0  0  0  0  0  0  0  0  0  0  0  0
   -2.0321    3.8242    2.5225 C   0  0  0  0  0  0  0  0  0  0  0  0
   -1.6491    2.5437    2.1173 C   0  0  0  0  0  0  0  0  0  0  0  0
   -2.5013    1.7860    1.3090 C   0  0  0  0  0  0  0  0  0  0  0  0
   -2.1912    0.4783    0.8577 N   0  0  0  0  0  0  0  0  0  0  0  0
    0.8318    1.1652    0.3326 C   0  0  0  0  0  0  0  0  0  0  0  0
    1.7756    0.4252   -0.6442 C   0  0  0  0  0  0  0  0  0  0  0  0
    7.0387   -0.0179   -0.6354 C   0  0  0  0  0  0  0  0  0  0  0  0
    7.7945   -0.4537   -1.7249 C   0  0  0  0  0  0  0  0  0  0  0  0
    8.0769   -1.9985   -3.1986 H   0  0  0  0  0  0  0  0  0  0  0  0
    6.1898   -3.3791   -2.3685 H   0  0  0  0  0  0  0  0  0  0  0  0
    4.8438   -2.6118   -0.4451 H   0  0  0  0  0  0  0  0  0  0  0  0
    4.9348   -1.1654    1.6830 H   0  0  0  0  0  0  0  0  0  0  0  0
    5.7666    0.3606    1.6252 H   0  0  0  0  0  0  0  0  0  0  0  0
    4.1529    1.2243   -0.0813 H   0  0  0  0  0  0  0  0  0  0  0  0
    3.4723    0.9435    1.5115 H   0  0  0  0  0  0  0  0  0  0  0  0
    1.5960   -2.0522    0.3603 H   0  0  0  0  0  0  0  0  0  0  0  0
    2.8938   -1.9152    1.5032 H   0  0  0  0  0  0  0  0  0  0  0  0
    0.6868   -1.4217    2.5610 H   0  0  0  0  0  0  0  0  0  0  0  0
    1.7618   -0.0467    2.6721 H   0  0  0  0  0  0  0  0  0  0  0  0
   -0.7140   -2.4390    0.6297 H   0  0  0  0  0  0  0  0  0  0  0  0
   -3.2440   -2.4284   -0.2418 H   0  0  0  0  0  0  0  0  0  0  0  0
   -7.0428    0.1083    0.3786 H   0  0  0  0  0  0  0  0  0  0  0  0
   -8.7476   -1.1635   -0.8996 H   0  0  0  0  0  0  0  0  0  0  0  0
   -8.0947   -2.4036   -2.9512 H   0  0  0  0  0  0  0  0  0  0  0  0
   -5.7381   -2.3576   -3.7357 H   0  0  0  0  0  0  0  0  0  0  0  0
   -4.0322   -1.0892   -2.4703 H   0  0  0  0  0  0  0  0  0  0  0  0
   -5.0999    3.9613    1.0707 H   0  0  0  0  0  0  0  0  0  0  0  0
   -3.5655    5.3362    2.4519 H   0  0  0  0  0  0  0  0  0  0  0  0
   -1.3699    4.4148    3.1496 H   0  0  0  0  0  0  0  0  0  0  0  0
   -0.7022    2.1546    2.4692 H   0  0  0  0  0  0  0  0  0  0  0  0
    0.0788    1.7124   -0.2482 H   0  0  0  0  0  0  0  0  0  0  0  0
    1.3942    1.9182    0.8974 H   0  0  0  0  0  0  0  0  0  0  0  0
    2.2391    1.1507   -1.3235 H   0  0  0  0  0  0  0  0  0  0  0  0
    1.1737   -0.2306   -1.2866 H   0  0  0  0  0  0  0  0  0  0  0  0
    7.2883    0.9299   -0.1647 H   0  0  0  0  0  0  0  0  0  0  0  0
    8.6189    0.1526   -2.0901 H   0  0  0  0  0  0  0  0  0  0  0  0
  1  2  2  0
  2  3  1  0
  3  4  2  0
  4  5  1  0
  5  6  1  0
  6  7  1  0
  7  8  1  0
  8  9  1  0
  9 10  1  0
 10 11  1  0
 11 12  2  0
 12 13  1  0
 13 14  2  0
 14 15  1  0
 15 16  1  0
 16 17  2  0
 17 18  1  0
 18 19  2  0
 19 20  1  0
 20 21  2  0
 15 22  2  0
 22 23  1  0
 23 24  2  0
 24 25  1  0
 25 26  2  0
 26 27  1  0
 27 28  2  0
 28 29  1  0
 10 30  1  0
 30 31  1  0
  4 32  1  0
 32 33  2  0
 33  1  1  0
 31  7  1  0
 29 11  1  0
 29 14  1  0
 21 16  1  0
 28 23  1  0
  1 34  1  0
  2 35  1  0
  3 36  1  0
  5 37  1  0
  5 38  1  0
  6 39  1  0
  6 40  1  0
  8 41  1  0
  8 42  1  0
  9 43  1  0
  9 44  1  0
 12 45  1  0
 13 46  1  0
 17 47  1  0
 18 48  1  0
 19 49  1  0
 20 50  1  0
 21 51  1  0
 24 52  1  0
 25 53  1  0
 26 54  1  0
 27 55  1  0
 30 56  1  0
 30 57  1  0
 31 58  1  0
 31 59  1  0
 32 60  1  0
 33 61  1  0
M  END
$$$$
