
     RDKit          3D

 44 47  0  0  0  0  0  0  0  0999 V2000
   -3.5152    4.2357    0.1453 N   0  0  0  0  0  0  0  0  0  0  0  0
   -4.1242    3.0403    0.0502 C   0  0  0  0  0  0  0  0  0  0  0  0
   -5.4381    2.8789   -0.1129 N   0  0  0  0  0  0  0  0  0  0  0  0
   -5.6415    1.5037   -0.1564 O   0  0  0  0  0  0  0  0  0  0  0  0
   -4.4384    0.8095   -0.0221 N   0  0  0  0  0  0  0  0  0  0  0  0
   -3.5175    1.7687    0.0930 C   0  0  0  0  0  0  0  0  0  0  0  0
   -2.1412    1.4570    0.2636 N   0  0  0  0  0  0  0  0  0  0  0  0
   -1.2229    2.4385    0.5219 N   0  0  0  0  0  0  0  0  0  0  0  0
   -0.0299    1.8932    0.6671 N   0  0  0  0  0  0  0  0  0  0  0  0
   -0.1511    0.5380    0.4886 C   0  0  0  0  0  0  0  0  0  0  0  0
    1.0076   -0.3495    0.5655 C   0  0  0  0  0  0  0  0  0  0  0  0
    0.9083   -1.5719    0.4913 O   0  0  0  0  0  0  0  0  0  0  0  0
    2.1880    0.3617    0.7309 N   0  0  0  0  0  0  0  0  0  0  0  0
    3.3991   -0.2636    0.7507 N   0  0  0  0  0  0  0  0  0  0  0  0
    4.4139    0.5242    0.8936 C   0  0  0  0  0  0  0  0  0  0  0  0
    5.7954    0.0179    0.9209 C   0  0  0  0  0  0  0  0  0  0  0  0
    6.2887   -0.8351   -0.0785 C   0  0  0  0  0  0  0  0  0  0  0  0
    5.3591   -1.3230   -1.4553 Cl  0  0  0  0  0  0  0  0  0  0  0  0
    7.6188   -1.2695   -0.0273 C   0  0  0  0  0  0  0  0  0  0  0  0
    8.4607   -0.8546    1.0055 C   0  0  0  0  0  0  0  0  0  0  0  0
    7.9765    0.0029    1.9900 C   0  0  0  0  0  0  0  0  0  0  0  0
    6.6497    0.4426    1.9520 C   0  0  0  0  0  0  0  0  0  0  0  0
    6.1288    1.5090    3.2084 Cl  0  0  0  0  0  0  0  0  0  0  0  0
   -1.4781    0.2299    0.2216 C   0  0  0  0  0  0  0  0  0  0  0  0
   -2.1220   -1.0756   -0.1020 C   0  0  0  0  0  0  0  0  0  0  0  0
   -2.3034   -1.2382   -1.9038 S   0  0  0  0  0  0  0  0  0  0  0  0
   -3.9108   -1.8693   -1.9671 C   0  0  0  0  0  0  0  0  0  0  0  0
   -4.3614   -2.7624   -1.1508 N   0  0  0  0  0  0  0  0  0  0  0  0
   -5.7642   -3.0718   -1.5122 C   0  0  0  0  0  0  0  0  0  0  0  0
   -6.3830   -1.8900   -2.2457 C   0  0  0  0  0  0  0  0  0  0  0  0
   -4.9889   -1.2312   -3.1764 S   0  0  0  0  0  0  0  0  0  0  0  0
   -4.0679    5.0831    0.2217 H   0  0  0  0  0  0  0  0  0  0  0  0
   -2.5358    4.3274    0.4137 H   0  0  0  0  0  0  0  0  0  0  0  0
    2.1409    1.3784    0.7562 H   0  0  0  0  0  0  0  0  0  0  0  0
    4.2860    1.6136    1.0364 H   0  0  0  0  0  0  0  0  0  0  0  0
    8.0094   -1.9225   -0.8031 H   0  0  0  0  0  0  0  0  0  0  0  0
    9.4946   -1.1904    1.0334 H   0  0  0  0  0  0  0  0  0  0  0  0
    8.6410    0.3317    2.7837 H   0  0  0  0  0  0  0  0  0  0  0  0
   -3.0684   -1.1806    0.4332 H   0  0  0  0  0  0  0  0  0  0  0  0
   -1.5057   -1.9163    0.2382 H   0  0  0  0  0  0  0  0  0  0  0  0
   -5.7877   -3.9794   -2.1286 H   0  0  0  0  0  0  0  0  0  0  0  0
   -6.3329   -3.2850   -0.5995 H   0  0  0  0  0  0  0  0  0  0  0  0
   -7.2094   -2.1764   -2.8960 H   0  0  0  0  0  0  0  0  0  0  0  0
   -6.7267   -1.1297   -1.5387 H   0  0  0  0  0  0  0  0  0  0  0  0
  1  2  1  0
  2  3  2  0
  3  4  1  0
  4  5  1  0
  5  6  2  0
  6  7  1  0
  7  8  1  0
  8  9  2  0
  9 10  1  0
 10 11  1  0
 11 12  2  0
 11 13  1  0
 13 14  1  0
 14 15  2  3
 15 16  1  0
 16 17  2  0
 17 18  1  0
 17 19  1  0
 19 20  2  0
 20 21  1  0
 21 22  2  0
 22 23  1  0
 10 24  2  0
 24 25  1  0
 25 26  1  0
 26 27  1  0
 27 28  2  0
 28 29  1  0
 29 30  1  0
 30 31  1  0
  6  2  1  0
 24  7  1  0
 31 27  1  0
 22 16  1  0
  1 32  1  0
  1 33  1  0
 13 34  1  0
 15 35  1  0
 19 36  1  0
 20 37  1  0
 21 38  1  0
 25 39  1  0
 25 40  1  0
 29 41  1  0
 29 42  1  0
 30 43  1  0
 30 44  1  0
M  END
$$$$
