
     RDKit          3D

 56 59  0  0  0  0  0  0  0  0999 V2000
   -2.3685   -3.7338    2.5060 C   0  0  0  0  0  0  0  0  0  0  0  0
   -3.2738   -2.8304    1.6803 C   0  0  0  0  0  0  0  0  0  0  0  0
   -2.8433   -1.3561    1.7410 C   0  0  0  0  0  0  0  0  0  0  0  0
   -3.9113   -0.4843    1.0461 C   0  0  0  0  0  0  0  0  0  0  0  0
   -4.9288   -0.1330    1.6390 O   0  0  0  0  0  0  0  0  0  0  0  0
   -3.6720   -0.3014   -0.3030 N   0  0  0  0  0  0  0  0  0  0  0  0
   -4.4387    0.4035   -1.2485 C   0  0  0  0  0  0  0  0  0  0  0  0
   -5.6294    1.0670   -0.9573 C   0  0  0  0  0  0  0  0  0  0  0  0
   -6.3085    1.7367   -1.9748 C   0  0  0  0  0  0  0  0  0  0  0  0
   -7.4531    2.3728   -1.6931 F   0  0  0  0  0  0  0  0  0  0  0  0
   -5.8237    1.7623   -3.2802 C   0  0  0  0  0  0  0  0  0  0  0  0
   -4.6340    1.1049   -3.5796 C   0  0  0  0  0  0  0  0  0  0  0  0
   -3.9543    0.4345   -2.5656 C   0  0  0  0  0  0  0  0  0  0  0  0
   -2.8038   -0.1927   -2.8626 F   0  0  0  0  0  0  0  0  0  0  0  0
   -1.5168   -1.1105    1.1352 N   0  0  0  0  0  0  0  0  0  0  0  0
   -1.2392   -1.7563   -0.0849 N   0  0  0  0  0  0  0  0  0  0  0  0
   -0.1090   -1.5683   -0.7103 C   0  0  0  0  0  0  0  0  0  0  0  0
    0.1251   -2.3109   -1.9946 C   0  0  0  0  0  0  0  0  0  0  0  0
    0.8572   -0.6505   -0.1625 C   0  0  0  0  0  0  0  0  0  0  0  0
    2.0885   -0.1787   -0.5873 C   0  0  0  0  0  0  0  0  0  0  0  0
    2.7936   -0.3821   -1.8792 C   0  0  0  0  0  0  0  0  0  0  0  0
    2.5561    0.6304    0.4567 N   0  0  0  0  0  0  0  0  0  0  0  0
    3.8436    1.2095    0.6829 C   0  0  0  0  0  0  0  0  0  0  0  0
    3.9646    2.2444    1.6251 C   0  0  0  0  0  0  0  0  0  0  0  0
    5.2053    2.8340    1.8845 C   0  0  0  0  0  0  0  0  0  0  0  0
    6.3503    2.3988    1.2126 C   0  0  0  0  0  0  0  0  0  0  0  0
    7.6867    3.0071    1.5180 C   0  0  0  0  0  0  0  0  0  0  0  0
    6.2394    1.3421    0.3037 C   0  0  0  0  0  0  0  0  0  0  0  0
    4.9979    0.7493    0.0404 C   0  0  0  0  0  0  0  0  0  0  0  0
    1.5725    0.8550    1.3697 N   0  0  0  0  0  0  0  0  0  0  0  0
    0.5829    0.0287    1.0283 C   0  0  0  0  0  0  0  0  0  0  0  0
   -0.6714   -0.1561    1.7458 C   0  0  0  0  0  0  0  0  0  0  0  0
   -0.9650    0.4527    2.7714 O   0  0  0  0  0  0  0  0  0  0  0  0
   -2.7370   -4.7642    2.4765 H   0  0  0  0  0  0  0  0  0  0  0  0
   -1.3439   -3.7332    2.1226 H   0  0  0  0  0  0  0  0  0  0  0  0
   -2.3453   -3.4132    3.5526 H   0  0  0  0  0  0  0  0  0  0  0  0
   -3.3019   -3.1912    0.6452 H   0  0  0  0  0  0  0  0  0  0  0  0
   -4.2986   -2.9238    2.0617 H   0  0  0  0  0  0  0  0  0  0  0  0
   -2.8158   -1.0341    2.7890 H   0  0  0  0  0  0  0  0  0  0  0  0
   -2.8148   -0.7365   -0.6482 H   0  0  0  0  0  0  0  0  0  0  0  0
   -6.0569    1.0863    0.0392 H   0  0  0  0  0  0  0  0  0  0  0  0
   -6.3768    2.2943   -4.0478 H   0  0  0  0  0  0  0  0  0  0  0  0
   -4.2325    1.1116   -4.5877 H   0  0  0  0  0  0  0  0  0  0  0  0
    1.1202   -2.7627   -1.9961 H   0  0  0  0  0  0  0  0  0  0  0  0
    0.0307   -1.6201   -2.8366 H   0  0  0  0  0  0  0  0  0  0  0  0
   -0.6172   -3.1058   -2.1139 H   0  0  0  0  0  0  0  0  0  0  0  0
    2.0798   -0.5237   -2.6953 H   0  0  0  0  0  0  0  0  0  0  0  0
    3.4344   -1.2676   -1.8367 H   0  0  0  0  0  0  0  0  0  0  0  0
    3.3904    0.4899   -2.1628 H   0  0  0  0  0  0  0  0  0  0  0  0
    3.0938    2.6139    2.1658 H   0  0  0  0  0  0  0  0  0  0  0  0
    5.2673    3.6346    2.6183 H   0  0  0  0  0  0  0  0  0  0  0  0
    7.5844    4.0699    1.7620 H   0  0  0  0  0  0  0  0  0  0  0  0
    8.1480    2.4911    2.3657 H   0  0  0  0  0  0  0  0  0  0  0  0
    8.3561    2.9352    0.6539 H   0  0  0  0  0  0  0  0  0  0  0  0
    7.1264    0.9608   -0.1986 H   0  0  0  0  0  0  0  0  0  0  0  0
    4.9901   -0.1001   -0.6318 H   0  0  0  0  0  0  0  0  0  0  0  0
  1  2  1  0
  2  3  1  0
  3  4  1  0
  4  5  2  0
  4  6  1  0
  6  7  1  0
  7  8  2  0
  8  9  1  0
  9 10  1  0
  9 11  2  0
 11 12  1  0
 12 13  2  0
 13 14  1  0
  3 15  1  0
 15 16  1  0
 16 17  2  0
 17 18  1  0
 17 19  1  0
 19 20  2  0
 20 21  1  0
 20 22  1  0
 22 23  1  0
 23 24  2  0
 24 25  1  0
 25 26  2  0
 26 27  1  0
 26 28  1  0
 28 29  2  0
 22 30  1  0
 30 31  2  0
 31 32  1  0
 32 33  2  0
 13  7  1  0
 32 15  1  0
 31 19  1  0
 29 23  1  0
  1 34  1  0
  1 35  1  0
  1 36  1  0
  2 37  1  0
  2 38  1  0
  3 39  1  0
  6 40  1  0
  8 41  1  0
 11 42  1  0
 12 43  1  0
 18 44  1  0
 18 45  1  0
 18 46  1  0
 21 47  1  0
 21 48  1  0
 21 49  1  0
 24 50  1  0
 25 51  1  0
 27 52  1  0
 27 53  1  0
 27 54  1  0
 28 55  1  0
 29 56  1  0
M  END
$$$$
