
     RDKit          3D

 51 53  0  0  0  0  0  0  0  0999 V2000
    8.0936    1.1555    2.5413 C   0  0  0  0  0  0  0  0  0  0  0  0
    8.7081    0.6403    1.3674 O   0  0  0  0  0  0  0  0  0  0  0  0
    7.8799    0.1947    0.3742 C   0  0  0  0  0  0  0  0  0  0  0  0
    8.5381   -0.3009   -0.7516 C   0  0  0  0  0  0  0  0  0  0  0  0
    7.8121   -0.7866   -1.8372 C   0  0  0  0  0  0  0  0  0  0  0  0
    6.4166   -0.7801   -1.8051 C   0  0  0  0  0  0  0  0  0  0  0  0
    5.7424   -0.2880   -0.6868 C   0  0  0  0  0  0  0  0  0  0  0  0
    4.3406   -0.2481   -0.5806 N   0  0  0  0  0  0  0  0  0  0  0  0
    3.4069   -0.6633   -1.5070 C   0  0  0  0  0  0  0  0  0  0  0  0
    3.5768   -1.1540   -2.6138 O   0  0  0  0  0  0  0  0  0  0  0  0
    1.9637   -0.4476   -1.0083 C   0  0  0  0  0  0  0  0  0  0  0  0
    1.7932    0.0437    0.1001 O   0  0  0  0  0  0  0  0  0  0  0  0
    1.0286   -0.8633   -1.9369 N   0  0  0  0  0  0  0  0  0  0  0  0
   -0.3383   -0.8377   -1.8562 N   0  0  0  0  0  0  0  0  0  0  0  0
   -0.9311   -0.3674   -0.8079 C   0  0  0  0  0  0  0  0  0  0  0  0
   -2.3861   -0.3670   -0.7847 C   0  0  0  0  0  0  0  0  0  0  0  0
   -3.2608   -0.8094   -1.8054 C   0  0  0  0  0  0  0  0  0  0  0  0
   -4.5618   -0.6201   -1.3858 C   0  0  0  0  0  0  0  0  0  0  0  0
   -5.7993   -0.8547   -2.1850 C   0  0  0  0  0  0  0  0  0  0  0  0
   -4.5244   -0.0704   -0.1083 N   0  0  0  0  0  0  0  0  0  0  0  0
   -5.6573    0.3105    0.6698 C   0  0  0  0  0  0  0  0  0  0  0  0
   -5.6733    1.5469    1.3262 C   0  0  0  0  0  0  0  0  0  0  0  0
   -6.7871    1.9225    2.0822 C   0  0  0  0  0  0  0  0  0  0  0  0
   -7.8877    1.0675    2.1889 C   0  0  0  0  0  0  0  0  0  0  0  0
   -9.2284    1.5986    3.1398 Cl  0  0  0  0  0  0  0  0  0  0  0  0
   -7.8727   -0.1693    1.5348 C   0  0  0  0  0  0  0  0  0  0  0  0
   -9.1923   -1.2816    1.6299 Cl  0  0  0  0  0  0  0  0  0  0  0  0
   -6.7596   -0.5469    0.7751 C   0  0  0  0  0  0  0  0  0  0  0  0
   -3.1859    0.0570    0.2720 C   0  0  0  0  0  0  0  0  0  0  0  0
   -2.7497    0.4987    1.6334 C   0  0  0  0  0  0  0  0  0  0  0  0
    6.4825    0.1992    0.4025 C   0  0  0  0  0  0  0  0  0  0  0  0
    8.8885    1.4652    3.2266 H   0  0  0  0  0  0  0  0  0  0  0  0
    7.4998    0.3862    3.0457 H   0  0  0  0  0  0  0  0  0  0  0  0
    7.4871    2.0384    2.3141 H   0  0  0  0  0  0  0  0  0  0  0  0
    9.6250   -0.3083   -0.7825 H   0  0  0  0  0  0  0  0  0  0  0  0
    8.3326   -1.1708   -2.7108 H   0  0  0  0  0  0  0  0  0  0  0  0
    5.8876   -1.1665   -2.6705 H   0  0  0  0  0  0  0  0  0  0  0  0
    3.9408    0.1299    0.2758 H   0  0  0  0  0  0  0  0  0  0  0  0
    1.3975   -1.2518   -2.8068 H   0  0  0  0  0  0  0  0  0  0  0  0
   -0.4234    0.0421    0.0748 H   0  0  0  0  0  0  0  0  0  0  0  0
   -2.9637   -1.2046   -2.7701 H   0  0  0  0  0  0  0  0  0  0  0  0
   -5.5605   -0.8981   -3.2536 H   0  0  0  0  0  0  0  0  0  0  0  0
   -6.2604   -1.8092   -1.9152 H   0  0  0  0  0  0  0  0  0  0  0  0
   -6.5273   -0.0486   -2.0537 H   0  0  0  0  0  0  0  0  0  0  0  0
   -4.8488    2.2493    1.2275 H   0  0  0  0  0  0  0  0  0  0  0  0
   -6.7939    2.8901    2.5791 H   0  0  0  0  0  0  0  0  0  0  0  0
   -6.7476   -1.5280    0.3075 H   0  0  0  0  0  0  0  0  0  0  0  0
   -2.6112    1.5837    1.6577 H   0  0  0  0  0  0  0  0  0  0  0  0
   -1.7973    0.0338    1.9083 H   0  0  0  0  0  0  0  0  0  0  0  0
   -3.4644    0.2083    2.4091 H   0  0  0  0  0  0  0  0  0  0  0  0
    5.9520    0.5802    1.2682 H   0  0  0  0  0  0  0  0  0  0  0  0
  1  2  1  0
  2  3  1  0
  3  4  2  0
  4  5  1  0
  5  6  2  0
  6  7  1  0
  7  8  1  0
  8  9  1  0
  9 10  2  0
  9 11  1  0
 11 12  2  0
 11 13  1  0
 13 14  1  0
 14 15  2  3
 15 16  1  0
 16 17  1  0
 17 18  2  0
 18 19  1  0
 18 20  1  0
 20 21  1  0
 21 22  2  0
 22 23  1  0
 23 24  2  0
 24 25  1  0
 24 26  1  0
 26 27  1  0
 26 28  2  0
 20 29  1  0
 29 30  1  0
  7 31  2  0
 31  3  1  0
 29 16  2  0
 28 21  1  0
  1 32  1  0
  1 33  1  0
  1 34  1  0
  4 35  1  0
  5 36  1  0
  6 37  1  0
  8 38  1  0
 13 39  1  0
 15 40  1  0
 17 41  1  0
 19 42  1  0
 19 43  1  0
 19 44  1  0
 22 45  1  0
 23 46  1  0
 28 47  1  0
 30 48  1  0
 30 49  1  0
 30 50  1  0
 31 51  1  0
M  END
$$$$
