
     RDKit          3D

 42 45  0  0  0  0  0  0  0  0999 V2000
    2.4871    2.4121    1.0081 O   0  0  0  0  0  0  0  0  0  0  0  0
    2.6943    1.3869    0.3654 C   0  0  0  0  0  0  0  0  0  0  0  0
    3.8147    0.5255    0.7969 C   0  0  0  0  0  0  0  0  0  0  0  0
    4.9046    0.2974   -0.0543 C   0  0  0  0  0  0  0  0  0  0  0  0
    5.9621   -0.5064    0.3764 C   0  0  0  0  0  0  0  0  0  0  0  0
    5.9336   -1.0611    1.6573 C   0  0  0  0  0  0  0  0  0  0  0  0
    4.8555   -0.8018    2.5013 C   0  0  0  0  0  0  0  0  0  0  0  0
    4.8474   -1.3280    3.7338 F   0  0  0  0  0  0  0  0  0  0  0  0
    3.7948   -0.0063    2.0883 C   0  0  0  0  0  0  0  0  0  0  0  0
    1.9313    0.9874   -0.7274 N   0  0  0  0  0  0  0  0  0  0  0  0
    0.8120    1.8323   -1.1565 C   0  0  0  0  0  0  0  0  0  0  0  0
   -0.5235    1.0706   -1.1092 C   0  0  0  0  0  0  0  0  0  0  0  0
   -0.4563   -0.2609   -1.7366 N   0  0  0  0  0  0  0  0  0  0  0  0
   -1.4563   -1.2368   -1.6414 C   0  0  0  0  0  0  0  0  0  0  0  0
   -1.2326   -2.3958   -1.9965 O   0  0  0  0  0  0  0  0  0  0  0  0
   -2.7953   -0.8949   -1.1035 C   0  0  0  0  0  0  0  0  0  0  0  0
   -3.7878   -1.8520   -0.7590 C   0  0  0  0  0  0  0  0  0  0  0  0
   -4.8845   -1.1357   -0.3480 C   0  0  0  0  0  0  0  0  0  0  0  0
   -6.1183   -1.5270    0.0920 N   0  0  0  0  0  0  0  0  0  0  0  0
   -6.9380   -0.5638    0.3992 C   0  0  0  0  0  0  0  0  0  0  0  0
   -6.6477    0.9009    0.3149 C   0  0  0  0  0  0  0  0  0  0  0  0
   -7.9478    2.1228    0.7959 Br  0  0  0  0  0  0  0  0  0  0  0  0
   -5.4221    1.2122   -0.1245 C   0  0  0  0  0  0  0  0  0  0  0  0
   -4.5244    0.2064   -0.4611 N   0  0  0  0  0  0  0  0  0  0  0  0
   -3.2601    0.3551   -0.9181 N   0  0  0  0  0  0  0  0  0  0  0  0
    0.8415   -0.6290   -2.3070 C   0  0  0  0  0  0  0  0  0  0  0  0
    1.9809   -0.3640   -1.3125 C   0  0  0  0  0  0  0  0  0  0  0  0
    4.9362    0.7547   -1.0405 H   0  0  0  0  0  0  0  0  0  0  0  0
    6.8115   -0.6899   -0.2769 H   0  0  0  0  0  0  0  0  0  0  0  0
    6.7496   -1.6844    2.0107 H   0  0  0  0  0  0  0  0  0  0  0  0
    2.9725    0.1955    2.7674 H   0  0  0  0  0  0  0  0  0  0  0  0
    1.0303    2.1411   -2.1864 H   0  0  0  0  0  0  0  0  0  0  0  0
    0.7421    2.7458   -0.5581 H   0  0  0  0  0  0  0  0  0  0  0  0
   -0.8209    0.9301   -0.0633 H   0  0  0  0  0  0  0  0  0  0  0  0
   -1.2840    1.6651   -1.6247 H   0  0  0  0  0  0  0  0  0  0  0  0
   -3.7062   -2.9281   -0.8161 H   0  0  0  0  0  0  0  0  0  0  0  0
   -7.9462   -0.8321    0.7582 H   0  0  0  0  0  0  0  0  0  0  0  0
   -5.0626    2.2255   -0.2413 H   0  0  0  0  0  0  0  0  0  0  0  0
    0.8673   -1.6744   -2.6273 H   0  0  0  0  0  0  0  0  0  0  0  0
    0.9766   -0.0179   -3.2070 H   0  0  0  0  0  0  0  0  0  0  0  0
    1.9266   -1.0855   -0.4886 H   0  0  0  0  0  0  0  0  0  0  0  0
    2.9420   -0.4919   -1.8193 H   0  0  0  0  0  0  0  0  0  0  0  0
  1  2  2  0
  2  3  1  0
  3  4  2  0
  4  5  1  0
  5  6  2  0
  6  7  1  0
  7  8  1  0
  7  9  2  0
  2 10  1  0
 10 11  1  0
 11 12  1  0
 12 13  1  0
 13 14  1  0
 14 15  2  0
 14 16  1  0
 16 17  1  0
 17 18  2  0
 18 19  1  0
 19 20  2  0
 20 21  1  0
 21 22  1  0
 21 23  2  0
 23 24  1  0
 24 25  1  0
 13 26  1  0
 26 27  1  0
  9  3  1  0
 27 10  1  0
 25 16  2  0
 24 18  1  0
  4 28  1  0
  5 29  1  0
  6 30  1  0
  9 31  1  0
 11 32  1  0
 11 33  1  0
 12 34  1  0
 12 35  1  0
 17 36  1  0
 20 37  1  0
 23 38  1  0
 26 39  1  0
 26 40  1  0
 27 41  1  0
 27 42  1  0
M  END
$$$$
