
     RDKit          3D

 64 67  0  0  0  0  0  0  0  0999 V2000
    8.3808   -2.0482    4.8527 C   0  0  0  0  0  0  0  0  0  0  0  0
    8.4389   -1.4713    3.5539 O   0  0  0  0  0  0  0  0  0  0  0  0
    7.2690   -1.4233    2.8458 C   0  0  0  0  0  0  0  0  0  0  0  0
    6.0332   -1.9019    3.2758 C   0  0  0  0  0  0  0  0  0  0  0  0
    4.9073   -1.7933    2.4511 C   0  0  0  0  0  0  0  0  0  0  0  0
    5.0084   -1.2061    1.1905 C   0  0  0  0  0  0  0  0  0  0  0  0
    3.9192   -1.0631    0.3008 N   0  0  0  0  0  0  0  0  0  0  0  0
    2.6078   -1.4598    0.4802 C   0  0  0  0  0  0  0  0  0  0  0  0
    2.1558   -2.0180    1.4784 O   0  0  0  0  0  0  0  0  0  0  0  0
    1.7190   -1.1385   -0.7139 C   0  0  0  0  0  0  0  0  0  0  0  0
    0.4338    0.0432   -0.2109 S   0  0  0  0  0  0  0  0  0  0  0  0
   -0.5069    0.0888   -1.6575 C   0  0  0  0  0  0  0  0  0  0  0  0
   -0.0607   -0.1137   -2.8720 N   0  0  0  0  0  0  0  0  0  0  0  0
   -1.1226    0.0131   -3.7323 N   0  0  0  0  0  0  0  0  0  0  0  0
   -2.2011    0.2819   -3.0224 C   0  0  0  0  0  0  0  0  0  0  0  0
   -3.5809    0.4683   -3.5658 C   0  0  0  0  0  0  0  0  0  0  0  0
   -4.4870   -0.6945   -3.2792 C   0  0  0  0  0  0  0  0  0  0  0  0
   -4.2074   -2.0521   -3.2990 C   0  0  0  0  0  0  0  0  0  0  0  0
   -5.3846   -2.7484   -2.9529 C   0  0  0  0  0  0  0  0  0  0  0  0
   -6.3656   -1.8069   -2.7488 C   0  0  0  0  0  0  0  0  0  0  0  0
   -5.8224   -0.5655   -2.9600 N   0  0  0  0  0  0  0  0  0  0  0  0
   -6.5680    0.6721   -2.8780 C   0  0  0  0  0  0  0  0  0  0  0  0
   -1.8459    0.3659   -1.6936 N   0  0  0  0  0  0  0  0  0  0  0  0
   -2.7151    0.6739   -0.5756 C   0  0  0  0  0  0  0  0  0  0  0  0
   -2.7187    2.1677   -0.2511 C   0  0  0  0  0  0  0  0  0  0  0  0
   -3.6048    2.4735    0.9302 C   0  0  0  0  0  0  0  0  0  0  0  0
   -3.1360    2.2689    2.2359 C   0  0  0  0  0  0  0  0  0  0  0  0
   -3.9601    2.5271    3.3317 C   0  0  0  0  0  0  0  0  0  0  0  0
   -5.2590    2.9895    3.1338 C   0  0  0  0  0  0  0  0  0  0  0  0
   -5.7350    3.1950    1.8397 C   0  0  0  0  0  0  0  0  0  0  0  0
   -4.9127    2.9385    0.7419 C   0  0  0  0  0  0  0  0  0  0  0  0
    6.2559   -0.7146    0.7546 C   0  0  0  0  0  0  0  0  0  0  0  0
    6.2602   -0.1490   -0.5008 O   0  0  0  0  0  0  0  0  0  0  0  0
    7.4587    0.5019   -0.9082 C   0  0  0  0  0  0  0  0  0  0  0  0
    7.3757   -0.8313    1.5835 C   0  0  0  0  0  0  0  0  0  0  0  0
    8.0992   -3.1045    4.8007 H   0  0  0  0  0  0  0  0  0  0  0  0
    9.3825   -1.9899    5.2878 H   0  0  0  0  0  0  0  0  0  0  0  0
    7.7035   -1.4887    5.5040 H   0  0  0  0  0  0  0  0  0  0  0  0
    5.9036   -2.3683    4.2463 H   0  0  0  0  0  0  0  0  0  0  0  0
    3.9638   -2.1772    2.8260 H   0  0  0  0  0  0  0  0  0  0  0  0
    4.1750   -0.6024   -0.5682 H   0  0  0  0  0  0  0  0  0  0  0  0
    2.3043   -0.7191   -1.5352 H   0  0  0  0  0  0  0  0  0  0  0  0
    1.2688   -2.0755   -1.0576 H   0  0  0  0  0  0  0  0  0  0  0  0
   -3.5223    0.5968   -4.6534 H   0  0  0  0  0  0  0  0  0  0  0  0
   -3.9918    1.4012   -3.1666 H   0  0  0  0  0  0  0  0  0  0  0  0
   -3.2460   -2.4923   -3.5377 H   0  0  0  0  0  0  0  0  0  0  0  0
   -5.5045   -3.8217   -2.8749 H   0  0  0  0  0  0  0  0  0  0  0  0
   -7.4063   -1.9259   -2.4804 H   0  0  0  0  0  0  0  0  0  0  0  0
   -6.4825    1.1921   -3.8352 H   0  0  0  0  0  0  0  0  0  0  0  0
   -6.1488    1.2746   -2.0677 H   0  0  0  0  0  0  0  0  0  0  0  0
   -7.6185    0.4543   -2.6696 H   0  0  0  0  0  0  0  0  0  0  0  0
   -2.3945    0.0730    0.2840 H   0  0  0  0  0  0  0  0  0  0  0  0
   -3.7268    0.3305   -0.8149 H   0  0  0  0  0  0  0  0  0  0  0  0
   -3.0569    2.7422   -1.1228 H   0  0  0  0  0  0  0  0  0  0  0  0
   -1.7037    2.5276   -0.0423 H   0  0  0  0  0  0  0  0  0  0  0  0
   -2.1236    1.9073    2.4092 H   0  0  0  0  0  0  0  0  0  0  0  0
   -3.5880    2.3665    4.3409 H   0  0  0  0  0  0  0  0  0  0  0  0
   -5.8988    3.1908    3.9890 H   0  0  0  0  0  0  0  0  0  0  0  0
   -6.7479    3.5577    1.6871 H   0  0  0  0  0  0  0  0  0  0  0  0
   -5.3016    3.1107   -0.2581 H   0  0  0  0  0  0  0  0  0  0  0  0
    7.7365    1.2964   -0.2083 H   0  0  0  0  0  0  0  0  0  0  0  0
    7.2690    0.9686   -1.8792 H   0  0  0  0  0  0  0  0  0  0  0  0
    8.2729   -0.2177   -1.0373 H   0  0  0  0  0  0  0  0  0  0  0  0
    8.3536   -0.4763    1.2757 H   0  0  0  0  0  0  0  0  0  0  0  0
  1  2  1  0
  2  3  1  0
  3  4  2  0
  4  5  1  0
  5  6  2  0
  6  7  1  0
  7  8  1  0
  8  9  2  0
  8 10  1  0
 10 11  1  0
 11 12  1  0
 12 13  2  0
 13 14  1  0
 14 15  2  0
 15 16  1  0
 16 17  1  0
 17 18  2  0
 18 19  1  0
 19 20  2  0
 20 21  1  0
 21 22  1  0
 15 23  1  0
 23 24  1  0
 24 25  1  0
 25 26  1  0
 26 27  2  0
 27 28  1  0
 28 29  2  0
 29 30  1  0
 30 31  2  0
  6 32  1  0
 32 33  1  0
 33 34  1  0
 32 35  2  0
 35  3  1  0
 23 12  1  0
 31 26  1  0
 21 17  1  0
  1 36  1  0
  1 37  1  0
  1 38  1  0
  4 39  1  0
  5 40  1  0
  7 41  1  0
 10 42  1  0
 10 43  1  0
 16 44  1  0
 16 45  1  0
 18 46  1  0
 19 47  1  0
 20 48  1  0
 22 49  1  0
 22 50  1  0
 22 51  1  0
 24 52  1  0
 24 53  1  0
 25 54  1  0
 25 55  1  0
 27 56  1  0
 28 57  1  0
 29 58  1  0
 30 59  1  0
 31 60  1  0
 34 61  1  0
 34 62  1  0
 34 63  1  0
 35 64  1  0
M  END
$$$$
