
     RDKit          3D

 46 49  0  0  0  0  0  0  0  0999 V2000
    3.1467   -0.9680    0.1688 O   0  0  0  0  0  0  0  0  0  0  0  0
    2.6447   -0.8796    1.2877 C   0  0  0  0  0  0  0  0  0  0  0  0
    2.5594   -2.0835    2.2163 C   0  0  0  0  0  0  0  0  0  0  0  0
    1.2312   -3.2128    1.6909 S   0  0  0  0  0  0  0  0  0  0  0  0
   -0.0475   -2.0658    1.5069 C   0  0  0  0  0  0  0  0  0  0  0  0
   -0.4905   -1.2838    2.4626 N   0  0  0  0  0  0  0  0  0  0  0  0
   -1.4007   -0.4229    1.8995 N   0  0  0  0  0  0  0  0  0  0  0  0
   -1.4726   -0.6802    0.6021 C   0  0  0  0  0  0  0  0  0  0  0  0
   -2.3524    0.0225   -0.3825 C   0  0  0  0  0  0  0  0  0  0  0  0
   -1.7916    1.3488   -0.8130 C   0  0  0  0  0  0  0  0  0  0  0  0
   -1.8966    2.5667   -0.1728 C   0  0  0  0  0  0  0  0  0  0  0  0
   -1.2764    3.6254   -0.8963 C   0  0  0  0  0  0  0  0  0  0  0  0
   -0.6875    3.1740   -2.0553 C   0  0  0  0  0  0  0  0  0  0  0  0
   -0.9051    1.4906   -2.2730 S   0  0  0  0  0  0  0  0  0  0  0  0
   -0.6179   -1.7243    0.3104 N   0  0  0  0  0  0  0  0  0  0  0  0
   -0.3232   -2.2779   -0.9970 C   0  0  0  0  0  0  0  0  0  0  0  0
   -1.3660   -3.2527   -1.4036 C   0  0  0  0  0  0  0  0  0  0  0  0
   -1.9015   -4.3854   -0.8239 C   0  0  0  0  0  0  0  0  0  0  0  0
   -2.8767   -4.8767   -1.7266 C   0  0  0  0  0  0  0  0  0  0  0  0
   -2.8714   -4.0181   -2.7972 C   0  0  0  0  0  0  0  0  0  0  0  0
   -1.9581   -3.0314   -2.6113 O   0  0  0  0  0  0  0  0  0  0  0  0
    2.0679    0.2558    1.8310 N   0  0  0  0  0  0  0  0  0  0  0  0
    2.0930    1.5644    1.3123 C   0  0  0  0  0  0  0  0  0  0  0  0
    2.8458    1.9501    0.1981 C   0  0  0  0  0  0  0  0  0  0  0  0
    2.8443    3.2856   -0.2186 C   0  0  0  0  0  0  0  0  0  0  0  0
    3.7497    3.7491   -1.6060 Cl  0  0  0  0  0  0  0  0  0  0  0  0
    2.1146    4.2467    0.4722 C   0  0  0  0  0  0  0  0  0  0  0  0
    1.3605    3.8609    1.5751 C   0  0  0  0  0  0  0  0  0  0  0  0
    0.4538    5.0337    2.4377 Cl  0  0  0  0  0  0  0  0  0  0  0  0
    1.3374    2.5290    1.9915 C   0  0  0  0  0  0  0  0  0  0  0  0
    3.5210   -2.6145    2.1747 H   0  0  0  0  0  0  0  0  0  0  0  0
    2.3978   -1.7710    3.2571 H   0  0  0  0  0  0  0  0  0  0  0  0
   -2.5610   -0.6089   -1.2528 H   0  0  0  0  0  0  0  0  0  0  0  0
   -3.3303    0.1915    0.0914 H   0  0  0  0  0  0  0  0  0  0  0  0
   -2.4141    2.6966    0.7715 H   0  0  0  0  0  0  0  0  0  0  0  0
   -1.2588    4.6625   -0.5809 H   0  0  0  0  0  0  0  0  0  0  0  0
   -0.1406    3.7530   -2.7840 H   0  0  0  0  0  0  0  0  0  0  0  0
    0.6623   -2.7512   -0.9832 H   0  0  0  0  0  0  0  0  0  0  0  0
   -0.2532   -1.4437   -1.7014 H   0  0  0  0  0  0  0  0  0  0  0  0
   -1.6259   -4.8016    0.1333 H   0  0  0  0  0  0  0  0  0  0  0  0
   -3.5048   -5.7516   -1.6146 H   0  0  0  0  0  0  0  0  0  0  0  0
   -3.4262   -3.9763   -3.7241 H   0  0  0  0  0  0  0  0  0  0  0  0
    1.4287    0.1045    2.6138 H   0  0  0  0  0  0  0  0  0  0  0  0
    3.4372    1.2346   -0.3616 H   0  0  0  0  0  0  0  0  0  0  0  0
    2.1269    5.2840    0.1451 H   0  0  0  0  0  0  0  0  0  0  0  0
    0.7277    2.2520    2.8480 H   0  0  0  0  0  0  0  0  0  0  0  0
  1  2  2  0
  2  3  1  0
  3  4  1  0
  4  5  1  0
  5  6  2  0
  6  7  1  0
  7  8  2  0
  8  9  1  0
  9 10  1  0
 10 11  2  0
 11 12  1  0
 12 13  2  0
 13 14  1  0
  8 15  1  0
 15 16  1  0
 16 17  1  0
 17 18  2  0
 18 19  1  0
 19 20  2  0
 20 21  1  0
  2 22  1  0
 22 23  1  0
 23 24  2  0
 24 25  1  0
 25 26  1  0
 25 27  2  0
 27 28  1  0
 28 29  1  0
 28 30  2  0
 15  5  1  0
 21 17  1  0
 30 23  1  0
 14 10  1  0
  3 31  1  0
  3 32  1  0
  9 33  1  0
  9 34  1  0
 11 35  1  0
 12 36  1  0
 13 37  1  0
 16 38  1  0
 16 39  1  0
 18 40  1  0
 19 41  1  0
 20 42  1  0
 22 43  1  0
 24 44  1  0
 27 45  1  0
 30 46  1  0
M  END
$$$$
