
     RDKit          3D

 39 40  0  0  0  0  0  0  0  0999 V2000
    4.4302    1.0721   -2.7932 C   0  0  0  0  0  0  0  0  0  0  0  0
    4.8139    1.1843   -1.3230 C   0  0  0  0  0  0  0  0  0  0  0  0
    4.0141    0.2931   -0.3540 C   0  0  0  0  0  0  0  0  0  0  0  0
    3.9431   -1.1634   -0.8125 C   0  0  0  0  0  0  0  0  0  0  0  0
    2.6072    0.8434   -0.0760 C   0  0  0  0  0  0  0  0  0  0  0  0
    2.1055    1.7197   -0.7698 O   0  0  0  0  0  0  0  0  0  0  0  0
    2.0308    0.2471    1.0251 N   0  0  0  0  0  0  0  0  0  0  0  0
    0.7732    0.4786    1.5233 C   0  0  0  0  0  0  0  0  0  0  0  0
    0.3721   -0.0364    2.6635 N   0  0  0  0  0  0  0  0  0  0  0  0
   -0.9279    0.3147    2.9646 N   0  0  0  0  0  0  0  0  0  0  0  0
   -1.4701    1.0527    2.0188 C   0  0  0  0  0  0  0  0  0  0  0  0
   -2.8773    1.5580    2.0303 C   0  0  0  0  0  0  0  0  0  0  0  0
   -3.8994    0.4195    2.0973 C   0  0  0  0  0  0  0  0  0  0  0  0
   -3.9386   -0.4169    0.8390 C   0  0  0  0  0  0  0  0  0  0  0  0
   -4.6555    0.0155   -0.2835 C   0  0  0  0  0  0  0  0  0  0  0  0
   -4.6586   -0.7435   -1.4531 C   0  0  0  0  0  0  0  0  0  0  0  0
   -3.9446   -1.9398   -1.5133 C   0  0  0  0  0  0  0  0  0  0  0  0
   -3.2295   -2.3796   -0.4026 C   0  0  0  0  0  0  0  0  0  0  0  0
   -3.2269   -1.6226    0.7689 C   0  0  0  0  0  0  0  0  0  0  0  0
   -0.4059    1.4050    0.7210 S   0  0  0  0  0  0  0  0  0  0  0  0
    4.9787    1.8173   -3.3782 H   0  0  0  0  0  0  0  0  0  0  0  0
    3.3627    1.2428   -2.9532 H   0  0  0  0  0  0  0  0  0  0  0  0
    4.6861    0.0877   -3.1982 H   0  0  0  0  0  0  0  0  0  0  0  0
    5.8776    0.9303   -1.2322 H   0  0  0  0  0  0  0  0  0  0  0  0
    4.7197    2.2338   -1.0131 H   0  0  0  0  0  0  0  0  0  0  0  0
    4.5504    0.3228    0.6050 H   0  0  0  0  0  0  0  0  0  0  0  0
    3.3013   -1.2757   -1.6938 H   0  0  0  0  0  0  0  0  0  0  0  0
    4.9399   -1.5454   -1.0555 H   0  0  0  0  0  0  0  0  0  0  0  0
    3.5255   -1.8057   -0.0311 H   0  0  0  0  0  0  0  0  0  0  0  0
    2.5814   -0.3695    1.6063 H   0  0  0  0  0  0  0  0  0  0  0  0
   -3.0011    2.1961    2.9142 H   0  0  0  0  0  0  0  0  0  0  0  0
   -3.0772    2.1923    1.1572 H   0  0  0  0  0  0  0  0  0  0  0  0
   -3.7050   -0.2263    2.9637 H   0  0  0  0  0  0  0  0  0  0  0  0
   -4.8975    0.8436    2.2631 H   0  0  0  0  0  0  0  0  0  0  0  0
   -5.2137    0.9495   -0.2564 H   0  0  0  0  0  0  0  0  0  0  0  0
   -5.2170   -0.4018   -2.3197 H   0  0  0  0  0  0  0  0  0  0  0  0
   -3.9440   -2.5279   -2.4260 H   0  0  0  0  0  0  0  0  0  0  0  0
   -2.6695   -3.3122   -0.4473 H   0  0  0  0  0  0  0  0  0  0  0  0
   -2.6540   -1.9733    1.6245 H   0  0  0  0  0  0  0  0  0  0  0  0
  1  2  1  0
  2  3  1  0
  3  4  1  0
  3  5  1  0
  5  6  2  0
  5  7  1  0
  7  8  1  0
  8  9  2  0
  9 10  1  0
 10 11  2  0
 11 12  1  0
 12 13  1  0
 13 14  1  0
 14 15  2  0
 15 16  1  0
 16 17  2  0
 17 18  1  0
 18 19  2  0
 11 20  1  0
 20  8  1  0
 19 14  1  0
  1 21  1  0
  1 22  1  0
  1 23  1  0
  2 24  1  0
  2 25  1  0
  3 26  1  0
  4 27  1  0
  4 28  1  0
  4 29  1  0
  7 30  1  0
 12 31  1  0
 12 32  1  0
 13 33  1  0
 13 34  1  0
 15 35  1  0
 16 36  1  0
 17 37  1  0
 18 38  1  0
 19 39  1  0
M  END
$$$$
