
     RDKit          3D

 44 47  0  0  0  0  0  0  0  0999 V2000
   -2.0141    4.7319   -1.2323 C   0  0  0  0  0  0  0  0  0  0  0  0
   -2.0169    3.3671   -0.7257 N   0  0  0  0  0  0  0  0  0  0  0  0
   -3.1273    2.8759   -0.0672 C   0  0  0  0  0  0  0  0  0  0  0  0
   -4.1425    3.5462    0.1175 O   0  0  0  0  0  0  0  0  0  0  0  0
   -3.0713    1.4704    0.4395 C   0  0  0  0  0  0  0  0  0  0  0  0
   -4.2264    1.0066    1.1410 C   0  0  0  0  0  0  0  0  0  0  0  0
   -5.1405    0.5830    1.7184 N   0  0  0  0  0  0  0  0  0  0  0  0
   -1.9793    0.6962    0.2439 C   0  0  0  0  0  0  0  0  0  0  0  0
   -1.9712   -0.6849    0.7892 C   0  0  0  0  0  0  0  0  0  0  0  0
   -1.4224   -0.9342    2.0568 C   0  0  0  0  0  0  0  0  0  0  0  0
   -1.3849   -2.2361    2.5581 C   0  0  0  0  0  0  0  0  0  0  0  0
   -1.8946   -3.2802    1.7947 C   0  0  0  0  0  0  0  0  0  0  0  0
   -1.8508   -4.5294    2.2749 F   0  0  0  0  0  0  0  0  0  0  0  0
   -2.4432   -3.0487    0.5382 C   0  0  0  0  0  0  0  0  0  0  0  0
   -2.4822   -1.7489    0.0310 C   0  0  0  0  0  0  0  0  0  0  0  0
   -0.8283    1.2745   -0.4883 C   0  0  0  0  0  0  0  0  0  0  0  0
    0.3319    0.5230   -0.7384 C   0  0  0  0  0  0  0  0  0  0  0  0
    1.4184    1.1025   -1.3935 C   0  0  0  0  0  0  0  0  0  0  0  0
    2.6700    0.3718   -1.6917 C   0  0  0  0  0  0  0  0  0  0  0  0
    3.3564    0.7246   -2.6473 O   0  0  0  0  0  0  0  0  0  0  0  0
    3.1063   -0.8066   -0.9082 C   0  0  0  0  0  0  0  0  0  0  0  0
    3.5695   -1.9198   -1.6224 C   0  0  0  0  0  0  0  0  0  0  0  0
    3.9975   -3.0553   -0.9366 C   0  0  0  0  0  0  0  0  0  0  0  0
    4.5467   -4.4261   -1.8182 Cl  0  0  0  0  0  0  0  0  0  0  0  0
    3.9816   -3.0937    0.4559 C   0  0  0  0  0  0  0  0  0  0  0  0
    3.5443   -1.9763    1.1643 C   0  0  0  0  0  0  0  0  0  0  0  0
    3.5364   -2.0229    2.8891 Cl  0  0  0  0  0  0  0  0  0  0  0  0
    3.1140   -0.8271    0.4903 C   0  0  0  0  0  0  0  0  0  0  0  0
    2.7203    0.2810    1.1935 O   0  0  0  0  0  0  0  0  0  0  0  0
    1.2856    2.4123   -1.8201 C   0  0  0  0  0  0  0  0  0  0  0  0
    0.1759    3.1617   -1.6096 N   0  0  0  0  0  0  0  0  0  0  0  0
   -0.8603    2.5918   -0.9480 C   0  0  0  0  0  0  0  0  0  0  0  0
   -1.8893    4.7158   -2.3200 H   0  0  0  0  0  0  0  0  0  0  0  0
   -2.9501    5.2499   -1.0055 H   0  0  0  0  0  0  0  0  0  0  0  0
   -1.1955    5.2914   -0.7679 H   0  0  0  0  0  0  0  0  0  0  0  0
   -1.0232   -0.1217    2.6604 H   0  0  0  0  0  0  0  0  0  0  0  0
   -0.9675   -2.4434    3.5387 H   0  0  0  0  0  0  0  0  0  0  0  0
   -2.8396   -3.8812   -0.0352 H   0  0  0  0  0  0  0  0  0  0  0  0
   -2.9129   -1.5768   -0.9533 H   0  0  0  0  0  0  0  0  0  0  0  0
    0.3892   -0.5141   -0.4217 H   0  0  0  0  0  0  0  0  0  0  0  0
    3.5954   -1.8958   -2.7108 H   0  0  0  0  0  0  0  0  0  0  0  0
    4.3154   -3.9841    0.9827 H   0  0  0  0  0  0  0  0  0  0  0  0
    2.8936    0.1122    2.1409 H   0  0  0  0  0  0  0  0  0  0  0  0
    2.0857    2.9173   -2.3571 H   0  0  0  0  0  0  0  0  0  0  0  0
  1  2  1  0
  2  3  1  0
  3  4  2  0
  3  5  1  0
  5  6  1  0
  6  7  3  0
  5  8  2  0
  8  9  1  0
  9 10  2  0
 10 11  1  0
 11 12  2  0
 12 13  1  0
 12 14  1  0
 14 15  2  0
  8 16  1  0
 16 17  2  0
 17 18  1  0
 18 19  1  0
 19 20  2  0
 19 21  1  0
 21 22  2  0
 22 23  1  0
 23 24  1  0
 23 25  2  0
 25 26  1  0
 26 27  1  0
 26 28  2  0
 28 29  1  0
 18 30  2  0
 30 31  1  0
 31 32  2  0
 32  2  1  0
 15  9  1  0
 32 16  1  0
 28 21  1  0
  1 33  1  0
  1 34  1  0
  1 35  1  0
 10 36  1  0
 11 37  1  0
 14 38  1  0
 15 39  1  0
 17 40  1  0
 22 41  1  0
 25 42  1  0
 29 43  1  0
 30 44  1  0
M  END
$$$$
