
     RDKit          3D

 42 43  0  0  0  0  0  0  0  0999 V2000
   -5.4744    1.0168    0.7565 C   0  0  0  0  0  0  0  0  0  0  0  0
   -5.2655   -0.1316   -0.1790 C   0  0  0  0  0  0  0  0  0  0  0  0
   -4.1502   -0.4351   -0.8767 C   0  0  0  0  0  0  0  0  0  0  0  0
   -4.1308   -1.6661   -1.7453 C   0  0  0  0  0  0  0  0  0  0  0  0
   -2.8960    0.4176   -0.8983 C   0  0  0  0  0  0  0  0  0  0  0  0
   -1.8739   -0.0775    0.0275 N   0  0  0  0  0  0  0  0  0  0  0  0
   -0.9600   -1.0717   -0.5734 C   0  0  0  0  0  0  0  0  0  0  0  0
    0.4771   -0.5823   -0.8828 C   0  0  0  0  0  0  0  0  0  0  0  0
    1.1116    0.0074    0.3048 N   0  0  0  0  0  0  0  0  0  0  0  0
    2.4871    0.0554    0.4543 C   0  0  0  0  0  0  0  0  0  0  0  0
    3.3607   -0.1045   -0.6327 C   0  0  0  0  0  0  0  0  0  0  0  0
    4.7542   -0.0554   -0.4845 C   0  0  0  0  0  0  0  0  0  0  0  0
    5.3263    0.1648    0.7678 C   0  0  0  0  0  0  0  0  0  0  0  0
    6.8149    0.1828    0.9381 C   0  0  0  0  0  0  0  0  0  0  0  0
    4.4809    0.3084    1.8670 C   0  0  0  0  0  0  0  0  0  0  0  0
    3.0890    0.2591    1.7060 C   0  0  0  0  0  0  0  0  0  0  0  0
    0.2070    0.6080    1.2979 C   0  0  0  0  0  0  0  0  0  0  0  0
   -1.1215    1.0380    0.6358 C   0  0  0  0  0  0  0  0  0  0  0  0
   -4.5564    1.5574    0.9968 H   0  0  0  0  0  0  0  0  0  0  0  0
   -6.1919    1.7218    0.3260 H   0  0  0  0  0  0  0  0  0  0  0  0
   -5.8867    0.6461    1.7006 H   0  0  0  0  0  0  0  0  0  0  0  0
   -6.1246   -0.7972   -0.2553 H   0  0  0  0  0  0  0  0  0  0  0  0
   -3.4718   -2.4283   -1.3195 H   0  0  0  0  0  0  0  0  0  0  0  0
   -5.1247   -2.1151   -1.8486 H   0  0  0  0  0  0  0  0  0  0  0  0
   -3.7826   -1.4193   -2.7536 H   0  0  0  0  0  0  0  0  0  0  0  0
   -2.5057    0.4990   -1.9218 H   0  0  0  0  0  0  0  0  0  0  0  0
   -3.1758    1.4473   -0.6425 H   0  0  0  0  0  0  0  0  0  0  0  0
   -1.3742   -1.5112   -1.4870 H   0  0  0  0  0  0  0  0  0  0  0  0
   -0.8837   -1.8983    0.1452 H   0  0  0  0  0  0  0  0  0  0  0  0
    0.4499    0.1594   -1.6903 H   0  0  0  0  0  0  0  0  0  0  0  0
    1.0456   -1.4511   -1.2360 H   0  0  0  0  0  0  0  0  0  0  0  0
    2.9718   -0.2528   -1.6358 H   0  0  0  0  0  0  0  0  0  0  0  0
    5.3834   -0.1870   -1.3614 H   0  0  0  0  0  0  0  0  0  0  0  0
    7.3065    0.5673    0.0383 H   0  0  0  0  0  0  0  0  0  0  0  0
    7.1815   -0.8290    1.1366 H   0  0  0  0  0  0  0  0  0  0  0  0
    7.1052    0.8339    1.7695 H   0  0  0  0  0  0  0  0  0  0  0  0
    4.8923    0.4553    2.8627 H   0  0  0  0  0  0  0  0  0  0  0  0
    2.4793    0.3577    2.5998 H   0  0  0  0  0  0  0  0  0  0  0  0
    0.0130   -0.1109    2.1030 H   0  0  0  0  0  0  0  0  0  0  0  0
    0.6543    1.5059    1.7413 H   0  0  0  0  0  0  0  0  0  0  0  0
   -1.7530    1.5186    1.3922 H   0  0  0  0  0  0  0  0  0  0  0  0
   -0.8884    1.7963   -0.1250 H   0  0  0  0  0  0  0  0  0  0  0  0
  1  2  1  0
  2  3  2  3
  3  4  1  0
  3  5  1  0
  5  6  1  0
  6  7  1  0
  7  8  1  0
  8  9  1  0
  9 10  1  0
 10 11  2  0
 11 12  1  0
 12 13  2  0
 13 14  1  0
 13 15  1  0
 15 16  2  0
  9 17  1  0
 17 18  1  0
 18  6  1  0
 16 10  1  0
  1 19  1  0
  1 20  1  0
  1 21  1  0
  2 22  1  0
  4 23  1  0
  4 24  1  0
  4 25  1  0
  5 26  1  0
  5 27  1  0
  7 28  1  0
  7 29  1  0
  8 30  1  0
  8 31  1  0
 11 32  1  0
 12 33  1  0
 14 34  1  0
 14 35  1  0
 14 36  1  0
 15 37  1  0
 16 38  1  0
 17 39  1  0
 17 40  1  0
 18 41  1  0
 18 42  1  0
M  END
$$$$
