
     RDKit          3D

 50 53  0  0  0  0  0  0  0  0999 V2000
   -4.1265    2.2121    4.0293 C   0  0  0  0  0  0  0  0  0  0  0  0
   -3.1045    1.2078    3.5192 C   0  0  0  0  0  0  0  0  0  0  0  0
   -1.7584    1.8548    3.2201 C   0  0  0  0  0  0  0  0  0  0  0  0
   -1.5014    2.9863    3.6347 O   0  0  0  0  0  0  0  0  0  0  0  0
   -0.8358    1.1070    2.4861 N   0  0  0  0  0  0  0  0  0  0  0  0
   -0.9373   -0.3508    2.3323 C   0  0  0  0  0  0  0  0  0  0  0  0
   -1.2129   -0.8290    0.9241 C   0  0  0  0  0  0  0  0  0  0  0  0
   -0.6254   -2.0203    0.4721 C   0  0  0  0  0  0  0  0  0  0  0  0
   -0.8579   -2.4865   -0.8245 C   0  0  0  0  0  0  0  0  0  0  0  0
   -1.6874   -1.7743   -1.6956 C   0  0  0  0  0  0  0  0  0  0  0  0
   -1.9545   -2.2848   -3.0799 C   0  0  0  0  0  0  0  0  0  0  0  0
   -2.3074   -0.6081   -1.2376 C   0  0  0  0  0  0  0  0  0  0  0  0
   -2.0743   -0.1417    0.0589 C   0  0  0  0  0  0  0  0  0  0  0  0
    0.4521    1.7576    2.1956 C   0  0  0  0  0  0  0  0  0  0  0  0
    1.0161    1.3916    0.8547 C   0  0  0  0  0  0  0  0  0  0  0  0
    2.0280    0.5188    0.6924 C   0  0  0  0  0  0  0  0  0  0  0  0
    2.5114    0.1635   -0.6416 C   0  0  0  0  0  0  0  0  0  0  0  0
    3.5262   -0.7837   -0.8166 C   0  0  0  0  0  0  0  0  0  0  0  0
    3.9098   -1.0766   -2.1090 C   0  0  0  0  0  0  0  0  0  0  0  0
    3.3283   -0.4690   -3.1987 C   0  0  0  0  0  0  0  0  0  0  0  0
    2.3282    0.4694   -3.0635 C   0  0  0  0  0  0  0  0  0  0  0  0
    1.9212    0.7818   -1.7652 C   0  0  0  0  0  0  0  0  0  0  0  0
    0.9118    1.7281   -1.5651 N   0  0  0  0  0  0  0  0  0  0  0  0
    0.4280    2.0832   -0.3338 C   0  0  0  0  0  0  0  0  0  0  0  0
   -0.4480    2.9362   -0.2284 O   0  0  0  0  0  0  0  0  0  0  0  0
    3.8538   -0.9037   -4.3755 O   0  0  0  0  0  0  0  0  0  0  0  0
    4.8349   -1.8508   -3.9038 C   0  0  0  0  0  0  0  0  0  0  0  0
    4.8721   -1.9691   -2.4660 O   0  0  0  0  0  0  0  0  0  0  0  0
   -4.2861    3.0136    3.3005 H   0  0  0  0  0  0  0  0  0  0  0  0
   -5.0860    1.7187    4.2125 H   0  0  0  0  0  0  0  0  0  0  0  0
   -3.7956    2.6710    4.9669 H   0  0  0  0  0  0  0  0  0  0  0  0
   -3.4980    0.7401    2.6124 H   0  0  0  0  0  0  0  0  0  0  0  0
   -2.9589    0.4401    4.2862 H   0  0  0  0  0  0  0  0  0  0  0  0
   -1.7179   -0.7621    2.9775 H   0  0  0  0  0  0  0  0  0  0  0  0
    0.0052   -0.7743    2.7021 H   0  0  0  0  0  0  0  0  0  0  0  0
    0.0311   -2.5928    1.1235 H   0  0  0  0  0  0  0  0  0  0  0  0
   -0.3825   -3.4084   -1.1516 H   0  0  0  0  0  0  0  0  0  0  0  0
   -1.0842   -2.8214   -3.4722 H   0  0  0  0  0  0  0  0  0  0  0  0
   -2.1626   -1.4585   -3.7679 H   0  0  0  0  0  0  0  0  0  0  0  0
   -2.8138   -2.9621   -3.0700 H   0  0  0  0  0  0  0  0  0  0  0  0
   -2.9707   -0.0440   -1.8897 H   0  0  0  0  0  0  0  0  0  0  0  0
   -2.5507    0.7854    0.3718 H   0  0  0  0  0  0  0  0  0  0  0  0
    1.1367    1.4588    3.0000 H   0  0  0  0  0  0  0  0  0  0  0  0
    0.3671    2.8480    2.2659 H   0  0  0  0  0  0  0  0  0  0  0  0
    2.4829    0.0245    1.5441 H   0  0  0  0  0  0  0  0  0  0  0  0
    4.0006   -1.2808    0.0216 H   0  0  0  0  0  0  0  0  0  0  0  0
    1.8847    0.9341   -3.9353 H   0  0  0  0  0  0  0  0  0  0  0  0
    0.4778    2.1900   -2.3520 H   0  0  0  0  0  0  0  0  0  0  0  0
    4.6062   -2.8342   -4.3305 H   0  0  0  0  0  0  0  0  0  0  0  0
    5.8241   -1.5358   -4.2556 H   0  0  0  0  0  0  0  0  0  0  0  0
  1  2  1  0
  2  3  1  0
  3  4  2  0
  3  5  1  0
  5  6  1  0
  6  7  1  0
  7  8  2  0
  8  9  1  0
  9 10  2  0
 10 11  1  0
 10 12  1  0
 12 13  2  0
  5 14  1  0
 14 15  1  0
 15 16  2  0
 16 17  1  0
 17 18  2  0
 18 19  1  0
 19 20  2  0
 20 21  1  0
 21 22  2  0
 22 23  1  0
 23 24  1  0
 24 25  2  0
 20 26  1  0
 26 27  1  0
 27 28  1  0
 13  7  1  0
 24 15  1  0
 22 17  1  0
 28 19  1  0
  1 29  1  0
  1 30  1  0
  1 31  1  0
  2 32  1  0
  2 33  1  0
  6 34  1  0
  6 35  1  0
  8 36  1  0
  9 37  1  0
 11 38  1  0
 11 39  1  0
 11 40  1  0
 12 41  1  0
 13 42  1  0
 14 43  1  0
 14 44  1  0
 16 45  1  0
 18 46  1  0
 21 47  1  0
 23 48  1  0
 27 49  1  0
 27 50  1  0
M  END
$$$$
