
     RDKit          3D

 58 63  0  0  0  0  0  0  0  0999 V2000
    7.7249   -0.5427   -1.6325 C   0  0  0  0  0  0  0  0  0  0  0  0
    6.6684    0.3205   -1.0333 C   0  0  0  0  0  0  0  0  0  0  0  0
    6.5317    1.6906   -1.1145 C   0  0  0  0  0  0  0  0  0  0  0  0
    5.3946    2.1604   -0.3964 C   0  0  0  0  0  0  0  0  0  0  0  0
    4.6736    1.1328    0.1812 C   0  0  0  0  0  0  0  0  0  0  0  0
    3.4914    1.2594    1.0200 C   0  0  0  0  0  0  0  0  0  0  0  0
    3.4376    2.1027    1.9171 O   0  0  0  0  0  0  0  0  0  0  0  0
    2.3873    0.4276    0.7748 N   0  0  0  0  0  0  0  0  0  0  0  0
    1.2887    0.4700    1.7293 C   0  0  0  0  0  0  0  0  0  0  0  0
    0.3905   -0.7559    1.6239 C   0  0  0  0  0  0  0  0  0  0  0  0
   -0.1932   -0.9654    0.1991 C   0  0  0  0  0  0  0  0  0  0  0  0
    0.6682   -0.2343   -0.8662 C   0  0  0  0  0  0  0  0  0  0  0  0
    2.1491   -0.2604   -0.4958 C   0  0  0  0  0  0  0  0  0  0  0  0
   -0.0014   -2.3695   -0.1436 O   0  0  0  0  0  0  0  0  0  0  0  0
   -0.9195   -3.2695    0.3062 C   0  0  0  0  0  0  0  0  0  0  0  0
   -0.5655   -4.6141    0.1910 C   0  0  0  0  0  0  0  0  0  0  0  0
   -1.4333   -5.6099    0.6460 C   0  0  0  0  0  0  0  0  0  0  0  0
   -2.6569   -5.2566    1.2147 C   0  0  0  0  0  0  0  0  0  0  0  0
   -3.7193   -6.4845    1.7811 Cl  0  0  0  0  0  0  0  0  0  0  0  0
   -3.0245   -3.9185    1.3227 C   0  0  0  0  0  0  0  0  0  0  0  0
   -2.1517   -2.9311    0.8532 C   0  0  0  0  0  0  0  0  0  0  0  0
   -2.5216   -1.5129    0.9299 C   0  0  0  0  0  0  0  0  0  0  0  0
   -3.4471   -1.1645    1.6589 O   0  0  0  0  0  0  0  0  0  0  0  0
   -1.6887   -0.5549    0.0827 C   0  0  0  0  0  0  0  0  0  0  0  0
   -2.0027    0.8921    0.4385 C   0  0  0  0  0  0  0  0  0  0  0  0
   -3.0525    1.1521   -0.5893 C   0  0  0  0  0  0  0  0  0  0  0  0
   -3.9466    2.3322   -0.5250 C   0  0  0  0  0  0  0  0  0  0  0  0
   -3.7879    3.3213    0.4534 C   0  0  0  0  0  0  0  0  0  0  0  0
   -4.6500    4.4232    0.4817 C   0  0  0  0  0  0  0  0  0  0  0  0
   -5.6668    4.5373   -0.4654 C   0  0  0  0  0  0  0  0  0  0  0  0
   -6.7219    5.8948   -0.4268 Cl  0  0  0  0  0  0  0  0  0  0  0  0
   -5.8312    3.5592   -1.4433 C   0  0  0  0  0  0  0  0  0  0  0  0
   -4.9713    2.4577   -1.4737 C   0  0  0  0  0  0  0  0  0  0  0  0
   -3.0926    0.2869   -1.5524 N   0  0  0  0  0  0  0  0  0  0  0  0
   -2.1210   -0.6998   -1.2805 O   0  0  0  0  0  0  0  0  0  0  0  0
    5.4387   -0.3786   -0.0702 S   0  0  0  0  0  0  0  0  0  0  0  0
    7.2882   -1.4107   -2.1361 H   0  0  0  0  0  0  0  0  0  0  0  0
    8.3077    0.0135   -2.3749 H   0  0  0  0  0  0  0  0  0  0  0  0
    8.4137   -0.8965   -0.8593 H   0  0  0  0  0  0  0  0  0  0  0  0
    7.2186    2.3299   -1.6561 H   0  0  0  0  0  0  0  0  0  0  0  0
    5.1096    3.2022   -0.3104 H   0  0  0  0  0  0  0  0  0  0  0  0
    0.7238    1.3906    1.5474 H   0  0  0  0  0  0  0  0  0  0  0  0
    1.6964    0.5399    2.7447 H   0  0  0  0  0  0  0  0  0  0  0  0
    0.9801   -1.6362    1.9150 H   0  0  0  0  0  0  0  0  0  0  0  0
   -0.4072   -0.6743    2.3711 H   0  0  0  0  0  0  0  0  0  0  0  0
    0.3660    0.8116   -0.9822 H   0  0  0  0  0  0  0  0  0  0  0  0
    0.5462   -0.7124   -1.8466 H   0  0  0  0  0  0  0  0  0  0  0  0
    2.4987   -1.2930   -0.3862 H   0  0  0  0  0  0  0  0  0  0  0  0
    2.7228    0.2153   -1.2970 H   0  0  0  0  0  0  0  0  0  0  0  0
    0.3904   -4.8901   -0.2487 H   0  0  0  0  0  0  0  0  0  0  0  0
   -1.1488   -6.6555    0.5553 H   0  0  0  0  0  0  0  0  0  0  0  0
   -3.9832   -3.6430    1.7564 H   0  0  0  0  0  0  0  0  0  0  0  0
   -1.1797    1.5842    0.2478 H   0  0  0  0  0  0  0  0  0  0  0  0
   -2.3602    1.0349    1.4605 H   0  0  0  0  0  0  0  0  0  0  0  0
   -3.0037    3.2627    1.2024 H   0  0  0  0  0  0  0  0  0  0  0  0
   -4.5232    5.1878    1.2444 H   0  0  0  0  0  0  0  0  0  0  0  0
   -6.6236    3.6445   -2.1830 H   0  0  0  0  0  0  0  0  0  0  0  0
   -5.1102    1.6972   -2.2409 H   0  0  0  0  0  0  0  0  0  0  0  0
  1  2  1  0
  2  3  2  0
  3  4  1  0
  4  5  2  0
  5  6  1  0
  6  7  2  0
  6  8  1  0
  8  9  1  0
  9 10  1  0
 10 11  1  0
 11 12  1  0
 12 13  1  0
 11 14  1  0
 14 15  1  0
 15 16  2  0
 16 17  1  0
 17 18  2  0
 18 19  1  0
 18 20  1  0
 20 21  2  0
 21 22  1  0
 22 23  2  0
 22 24  1  0
 24 25  1  0
 25 26  1  0
 26 27  1  0
 27 28  2  0
 28 29  1  0
 29 30  2  0
 30 31  1  0
 30 32  1  0
 32 33  2  0
 26 34  2  0
 34 35  1  0
  5 36  1  0
 36  2  1  0
 13  8  1  0
 21 15  1  0
 35 24  1  0
 24 11  1  0
 33 27  1  0
  1 37  1  0
  1 38  1  0
  1 39  1  0
  3 40  1  0
  4 41  1  0
  9 42  1  0
  9 43  1  0
 10 44  1  0
 10 45  1  0
 12 46  1  0
 12 47  1  0
 13 48  1  0
 13 49  1  0
 16 50  1  0
 17 51  1  0
 20 52  1  0
 25 53  1  0
 25 54  1  0
 28 55  1  0
 29 56  1  0
 32 57  1  0
 33 58  1  0
M  END
$$$$
