
     RDKit          3D

 54 57  0  0  0  0  0  0  0  0999 V2000
    6.3066    0.3813    2.3182 C   0  0  0  0  0  0  0  0  0  0  0  0
    5.1911    1.3676    2.6089 C   0  0  0  0  0  0  0  0  0  0  0  0
    3.8881    0.6699    2.9505 C   0  0  0  0  0  0  0  0  0  0  0  0
    3.5076    0.6333    4.1228 O   0  0  0  0  0  0  0  0  0  0  0  0
    3.1657    0.0686    1.9350 N   0  0  0  0  0  0  0  0  0  0  0  0
    1.9451   -0.6628    2.2992 C   0  0  0  0  0  0  0  0  0  0  0  0
    1.5205   -1.6732    1.2221 C   0  0  0  0  0  0  0  0  0  0  0  0
    1.2855   -0.9917   -0.0740 N   0  0  0  0  0  0  0  0  0  0  0  0
    1.1357   -1.8994   -1.1538 C   0  0  0  0  0  0  0  0  0  0  0  0
    2.1757   -2.7353   -1.5836 C   0  0  0  0  0  0  0  0  0  0  0  0
    1.9817   -3.6062   -2.6568 C   0  0  0  0  0  0  0  0  0  0  0  0
    0.7491   -3.6441   -3.3068 C   0  0  0  0  0  0  0  0  0  0  0  0
    0.5252   -4.7260   -4.6277 Cl  0  0  0  0  0  0  0  0  0  0  0  0
   -0.2987   -2.8190   -2.9010 C   0  0  0  0  0  0  0  0  0  0  0  0
   -0.1095   -1.9450   -1.8307 C   0  0  0  0  0  0  0  0  0  0  0  0
   -1.0994   -1.0683   -1.3383 N   0  0  0  0  0  0  0  0  0  0  0  0
   -2.3658   -0.8448   -1.8294 C   0  0  0  0  0  0  0  0  0  0  0  0
   -2.8552   -1.3425   -2.8362 O   0  0  0  0  0  0  0  0  0  0  0  0
   -3.1776    0.1330   -1.0501 C   0  0  0  0  0  0  0  0  0  0  0  0
   -3.0615    0.2459    0.3438 C   0  0  0  0  0  0  0  0  0  0  0  0
   -3.8465    1.1702    1.0381 C   0  0  0  0  0  0  0  0  0  0  0  0
   -4.7524    1.9716    0.3458 C   0  0  0  0  0  0  0  0  0  0  0  0
   -4.8612    1.8694   -1.0451 C   0  0  0  0  0  0  0  0  0  0  0  0
   -4.0920    0.9386   -1.7406 C   0  0  0  0  0  0  0  0  0  0  0  0
   -5.7103    2.6470   -1.7903 O   0  0  0  0  0  0  0  0  0  0  0  0
   -6.1905    3.7679   -1.0393 C   0  0  0  0  0  0  0  0  0  0  0  0
   -6.6225    3.3365    0.3522 C   0  0  0  0  0  0  0  0  0  0  0  0
   -5.5037    2.8391    1.0964 O   0  0  0  0  0  0  0  0  0  0  0  0
    2.2082    0.1308   -0.3813 C   0  0  0  0  0  0  0  0  0  0  0  0
    3.4728    0.1336    0.4990 C   0  0  0  0  0  0  0  0  0  0  0  0
    6.4311   -0.3222    3.1481 H   0  0  0  0  0  0  0  0  0  0  0  0
    6.1098   -0.2038    1.4162 H   0  0  0  0  0  0  0  0  0  0  0  0
    7.2530    0.9118    2.1749 H   0  0  0  0  0  0  0  0  0  0  0  0
    5.0477    2.0693    1.7831 H   0  0  0  0  0  0  0  0  0  0  0  0
    5.4730    1.9801    3.4742 H   0  0  0  0  0  0  0  0  0  0  0  0
    1.1575    0.0864    2.4465 H   0  0  0  0  0  0  0  0  0  0  0  0
    2.0965   -1.1795    3.2535 H   0  0  0  0  0  0  0  0  0  0  0  0
    2.3028   -2.4377    1.1354 H   0  0  0  0  0  0  0  0  0  0  0  0
    0.5969   -2.1724    1.5378 H   0  0  0  0  0  0  0  0  0  0  0  0
    3.1427   -2.7170   -1.0907 H   0  0  0  0  0  0  0  0  0  0  0  0
    2.7930   -4.2523   -2.9816 H   0  0  0  0  0  0  0  0  0  0  0  0
   -1.2465   -2.8737   -3.4257 H   0  0  0  0  0  0  0  0  0  0  0  0
   -0.7552   -0.5092   -0.5623 H   0  0  0  0  0  0  0  0  0  0  0  0
   -2.3913   -0.3982    0.9066 H   0  0  0  0  0  0  0  0  0  0  0  0
   -3.7682    1.2516    2.1192 H   0  0  0  0  0  0  0  0  0  0  0  0
   -4.1953    0.8502   -2.8198 H   0  0  0  0  0  0  0  0  0  0  0  0
   -7.0387    4.1938   -1.5844 H   0  0  0  0  0  0  0  0  0  0  0  0
   -5.3968    4.5241   -0.9967 H   0  0  0  0  0  0  0  0  0  0  0  0
   -7.3898    2.5534    0.3105 H   0  0  0  0  0  0  0  0  0  0  0  0
   -7.0340    4.1885    0.9023 H   0  0  0  0  0  0  0  0  0  0  0  0
    1.6517    1.0576   -0.1927 H   0  0  0  0  0  0  0  0  0  0  0  0
    2.4962    0.1535   -1.4400 H   0  0  0  0  0  0  0  0  0  0  0  0
    4.0843   -0.7464    0.2697 H   0  0  0  0  0  0  0  0  0  0  0  0
    4.0674    1.0198    0.2692 H   0  0  0  0  0  0  0  0  0  0  0  0
  1  2  1  0
  2  3  1  0
  3  4  2  0
  3  5  1  0
  5  6  1  0
  6  7  1  0
  7  8  1  0
  8  9  1  0
  9 10  2  0
 10 11  1  0
 11 12  2  0
 12 13  1  0
 12 14  1  0
 14 15  2  0
 15 16  1  0
 16 17  1  0
 17 18  2  0
 17 19  1  0
 19 20  2  0
 20 21  1  0
 21 22  2  0
 22 23  1  0
 23 24  2  0
 23 25  1  0
 25 26  1  0
 26 27  1  0
 27 28  1  0
  8 29  1  0
 29 30  1  0
 30  5  1  0
 15  9  1  0
 24 19  1  0
 28 22  1  0
  1 31  1  0
  1 32  1  0
  1 33  1  0
  2 34  1  0
  2 35  1  0
  6 36  1  0
  6 37  1  0
  7 38  1  0
  7 39  1  0
 10 40  1  0
 11 41  1  0
 14 42  1  0
 16 43  1  0
 20 44  1  0
 21 45  1  0
 24 46  1  0
 26 47  1  0
 26 48  1  0
 27 49  1  0
 27 50  1  0
 29 51  1  0
 29 52  1  0
 30 53  1  0
 30 54  1  0
M  END
$$$$
