
     RDKit          3D

 45 49  0  0  0  0  0  0  0  0999 V2000
    5.8002    1.8983    3.1904 Cl  0  0  0  0  0  0  0  0  0  0  0  0
    5.4635    1.0778    1.7141 C   0  0  0  0  0  0  0  0  0  0  0  0
    6.5048    0.5104    0.9911 C   0  0  0  0  0  0  0  0  0  0  0  0
    6.2195   -0.1561   -0.1943 C   0  0  0  0  0  0  0  0  0  0  0  0
    4.8968   -0.2467   -0.6473 C   0  0  0  0  0  0  0  0  0  0  0  0
    3.8245    0.3251    0.0587 C   0  0  0  0  0  0  0  0  0  0  0  0
    2.5131    0.2315   -0.3831 N   0  0  0  0  0  0  0  0  0  0  0  0
    2.1100   -0.6949   -1.4548 C   0  0  0  0  0  0  0  0  0  0  0  0
    0.6001   -1.0219   -1.3885 C   0  0  0  0  0  0  0  0  0  0  0  0
   -0.2771    0.1755   -1.3462 N   0  0  0  0  0  0  0  0  0  0  0  0
   -1.5124    0.0297   -0.7097 C   0  0  0  0  0  0  0  0  0  0  0  0
   -1.7970    0.8077    0.3052 N   0  0  0  0  0  0  0  0  0  0  0  0
   -3.0110    0.6638    1.0045 C   0  0  0  0  0  0  0  0  0  0  0  0
   -3.2570    1.5108    2.0869 C   0  0  0  0  0  0  0  0  0  0  0  0
   -4.4400    1.4029    2.8231 C   0  0  0  0  0  0  0  0  0  0  0  0
   -5.3918    0.4414    2.4818 C   0  0  0  0  0  0  0  0  0  0  0  0
   -5.1671   -0.4156    1.4039 C   0  0  0  0  0  0  0  0  0  0  0  0
   -3.9787   -0.2959    0.6772 C   0  0  0  0  0  0  0  0  0  0  0  0
   -3.6775   -1.1075   -0.4282 N   0  0  0  0  0  0  0  0  0  0  0  0
   -4.4211   -2.1095   -1.0055 C   0  0  0  0  0  0  0  0  0  0  0  0
   -3.7401   -2.5676   -2.1122 C   0  0  0  0  0  0  0  0  0  0  0  0
   -2.5374   -1.8286   -2.1989 C   0  0  0  0  0  0  0  0  0  0  0  0
   -2.4990   -0.9559   -1.1258 C   0  0  0  0  0  0  0  0  0  0  0  0
    0.4647    1.4376   -1.1357 C   0  0  0  0  0  0  0  0  0  0  0  0
    1.5348    1.2887   -0.0373 C   0  0  0  0  0  0  0  0  0  0  0  0
    4.1452    0.9856    1.2570 C   0  0  0  0  0  0  0  0  0  0  0  0
    7.5293    0.5810    1.3441 H   0  0  0  0  0  0  0  0  0  0  0  0
    7.0220   -0.6055   -0.7734 H   0  0  0  0  0  0  0  0  0  0  0  0
    4.7287   -0.7629   -1.5884 H   0  0  0  0  0  0  0  0  0  0  0  0
    2.3531   -0.2526   -2.4288 H   0  0  0  0  0  0  0  0  0  0  0  0
    2.6498   -1.6458   -1.3720 H   0  0  0  0  0  0  0  0  0  0  0  0
    0.3438   -1.6317   -2.2598 H   0  0  0  0  0  0  0  0  0  0  0  0
    0.4227   -1.6286   -0.4907 H   0  0  0  0  0  0  0  0  0  0  0  0
   -2.5169    2.2591    2.3573 H   0  0  0  0  0  0  0  0  0  0  0  0
   -4.6160    2.0698    3.6633 H   0  0  0  0  0  0  0  0  0  0  0  0
   -6.3109    0.3614    3.0575 H   0  0  0  0  0  0  0  0  0  0  0  0
   -5.9228   -1.1533    1.1561 H   0  0  0  0  0  0  0  0  0  0  0  0
   -5.3787   -2.4109   -0.6067 H   0  0  0  0  0  0  0  0  0  0  0  0
   -4.0805   -3.3407   -2.7891 H   0  0  0  0  0  0  0  0  0  0  0  0
   -1.7851   -1.9212   -2.9697 H   0  0  0  0  0  0  0  0  0  0  0  0
    0.9459    1.7108   -2.0836 H   0  0  0  0  0  0  0  0  0  0  0  0
   -0.2098    2.2689   -0.8989 H   0  0  0  0  0  0  0  0  0  0  0  0
    1.0634    1.0371    0.9198 H   0  0  0  0  0  0  0  0  0  0  0  0
    2.0335    2.2598    0.0684 H   0  0  0  0  0  0  0  0  0  0  0  0
    3.3584    1.4189    1.8682 H   0  0  0  0  0  0  0  0  0  0  0  0
  1  2  1  0
  2  3  2  0
  3  4  1  0
  4  5  2  0
  5  6  1  0
  6  7  1  0
  7  8  1  0
  8  9  1  0
  9 10  1  0
 10 11  1  0
 11 12  2  0
 12 13  1  0
 13 14  2  0
 14 15  1  0
 15 16  2  0
 16 17  1  0
 17 18  2  0
 18 19  1  0
 19 20  1  0
 20 21  2  0
 21 22  1  0
 22 23  2  0
 10 24  1  0
 24 25  1  0
  6 26  2  0
 26  2  1  0
 25  7  1  0
 23 11  1  0
 18 13  1  0
 23 19  1  0
  3 27  1  0
  4 28  1  0
  5 29  1  0
  8 30  1  0
  8 31  1  0
  9 32  1  0
  9 33  1  0
 14 34  1  0
 15 35  1  0
 16 36  1  0
 17 37  1  0
 20 38  1  0
 21 39  1  0
 22 40  1  0
 24 41  1  0
 24 42  1  0
 25 43  1  0
 25 44  1  0
 26 45  1  0
M  END
$$$$
