
     RDKit          3D

 31 32  0  0  0  0  0  0  0  0999 V2000
    1.2564   -3.3748    2.3653 C   0  0  0  0  0  0  0  0  0  0  0  0
    0.8929   -1.7081    2.9792 S   0  0  0  0  0  0  0  0  0  0  0  0
    1.6408   -0.7286    1.6877 C   0  0  0  0  0  0  0  0  0  0  0  0
    2.5775    0.2493    2.0384 C   0  0  0  0  0  0  0  0  0  0  0  0
    3.1647    1.0496    1.0567 C   0  0  0  0  0  0  0  0  0  0  0  0
    2.8118    0.8812   -0.2813 C   0  0  0  0  0  0  0  0  0  0  0  0
    1.8737   -0.0866   -0.6366 C   0  0  0  0  0  0  0  0  0  0  0  0
    1.4779   -0.2251   -2.0050 N   0  0  0  0  0  0  0  0  0  0  0  0
    0.3997    0.9621   -2.5897 S   0  0  0  0  0  6  0  0  0  0  0  0
    0.1039    0.6288   -3.9674 O   0  0  0  0  0  0  0  0  0  0  0  0
    0.8352    2.2862   -2.1987 O   0  0  0  0  0  0  0  0  0  0  0  0
   -1.1261    0.7237   -1.7743 C   0  0  0  0  0  0  0  0  0  0  0  0
   -2.0555    1.6954   -1.4620 C   0  0  0  0  0  0  0  0  0  0  0  0
   -3.0585    1.0258   -0.8244 N   0  0  0  0  0  0  0  0  0  0  0  0
   -4.2671    1.5994   -0.2888 C   0  0  0  0  0  0  0  0  0  0  0  0
   -2.7213   -0.2981   -0.7726 C   0  0  0  0  0  0  0  0  0  0  0  0
   -1.5560   -0.5240   -1.3383 N   0  0  0  0  0  0  0  0  0  0  0  0
    1.2821   -0.8853    0.3448 C   0  0  0  0  0  0  0  0  0  0  0  0
    2.3269   -3.4886    2.1729 H   0  0  0  0  0  0  0  0  0  0  0  0
    0.9609   -4.1053    3.1232 H   0  0  0  0  0  0  0  0  0  0  0  0
    0.6963   -3.5849    1.4505 H   0  0  0  0  0  0  0  0  0  0  0  0
    2.8559    0.3976    3.0796 H   0  0  0  0  0  0  0  0  0  0  0  0
    3.8903    1.8096    1.3350 H   0  0  0  0  0  0  0  0  0  0  0  0
    3.2642    1.5133   -1.0417 H   0  0  0  0  0  0  0  0  0  0  0  0
    1.0602   -1.1321   -2.2220 H   0  0  0  0  0  0  0  0  0  0  0  0
   -2.0641    2.7631   -1.6354 H   0  0  0  0  0  0  0  0  0  0  0  0
   -4.3465    1.3215    0.7652 H   0  0  0  0  0  0  0  0  0  0  0  0
   -5.1151    1.2050   -0.8543 H   0  0  0  0  0  0  0  0  0  0  0  0
   -4.2283    2.6875   -0.3833 H   0  0  0  0  0  0  0  0  0  0  0  0
   -3.3562   -1.0463   -0.3143 H   0  0  0  0  0  0  0  0  0  0  0  0
    0.5235   -1.6111    0.0662 H   0  0  0  0  0  0  0  0  0  0  0  0
  1  2  1  0
  2  3  1  0
  3  4  2  0
  4  5  1  0
  5  6  2  0
  6  7  1  0
  7  8  1  0
  8  9  1  0
  9 10  2  0
  9 11  2  0
  9 12  1  0
 12 13  2  0
 13 14  1  0
 14 15  1  0
 14 16  1  0
 16 17  2  0
  7 18  2  0
 18  3  1  0
 17 12  1  0
  1 19  1  0
  1 20  1  0
  1 21  1  0
  4 22  1  0
  5 23  1  0
  6 24  1  0
  8 25  1  0
 13 26  1  0
 15 27  1  0
 15 28  1  0
 15 29  1  0
 16 30  1  0
 18 31  1  0
M  END
$$$$
