
     RDKit          3D

 40 44  0  0  0  0  0  0  0  0999 V2000
   -8.3810   -0.6319    2.3170 O   0  0  0  0  0  0  0  0  0  0  0  0
   -7.7812   -0.6967    1.2633 C   0  0  0  0  0  0  0  0  0  0  0  0
   -8.4425   -0.6996    0.0893 O   0  0  0  0  0  0  0  0  0  0  0  0
   -6.3170   -0.7814    1.0564 C   0  0  0  0  0  0  0  0  0  0  0  0
   -5.8263   -1.5377   -0.0192 C   0  0  0  0  0  0  0  0  0  0  0  0
   -4.4489   -1.6655   -0.2303 C   0  0  0  0  0  0  0  0  0  0  0  0
   -3.5305   -1.0438    0.6254 C   0  0  0  0  0  0  0  0  0  0  0  0
   -2.0933   -1.1813    0.4004 C   0  0  0  0  0  0  0  0  0  0  0  0
   -1.3178   -1.8420   -0.5250 C   0  0  0  0  0  0  0  0  0  0  0  0
    0.0304   -1.5747   -0.1824 C   0  0  0  0  0  0  0  0  0  0  0  0
    0.0367   -0.7386    0.9258 C   0  0  0  0  0  0  0  0  0  0  0  0
    1.0923   -0.1858    1.6983 C   0  0  0  0  0  0  0  0  0  0  0  0
    2.2537    0.3008    1.2373 C   0  0  0  0  0  0  0  0  0  0  0  0
    3.4504    0.9476    2.3654 S   0  0  0  0  0  0  0  0  0  0  0  0
    4.4912    1.3296    1.0546 C   0  0  0  0  0  0  0  0  0  0  0  0
    5.6767    1.8675    0.9937 N   0  0  0  0  0  0  0  0  0  0  0  0
    5.9436    1.8968   -0.3610 C   0  0  0  0  0  0  0  0  0  0  0  0
    7.0799    2.3721   -1.0323 C   0  0  0  0  0  0  0  0  0  0  0  0
    7.1194    2.2949   -2.4304 C   0  0  0  0  0  0  0  0  0  0  0  0
    6.0503    1.7558   -3.1501 C   0  0  0  0  0  0  0  0  0  0  0  0
    4.9062    1.2748   -2.5040 C   0  0  0  0  0  0  0  0  0  0  0  0
    4.8870    1.3609   -1.1081 C   0  0  0  0  0  0  0  0  0  0  0  0
    3.9703    1.0045   -0.1515 N   0  0  0  0  0  0  0  0  0  0  0  0
    2.7195    0.4251   -0.1811 C   0  0  0  0  0  0  0  0  0  0  0  0
    2.1851    0.1170   -1.2282 O   0  0  0  0  0  0  0  0  0  0  0  0
   -1.2788   -0.5334    1.2808 O   0  0  0  0  0  0  0  0  0  0  0  0
   -4.0313   -0.2869    1.6965 C   0  0  0  0  0  0  0  0  0  0  0  0
   -5.4107   -0.1532    1.9156 C   0  0  0  0  0  0  0  0  0  0  0  0
   -5.8958    0.8450    3.2404 Cl  0  0  0  0  0  0  0  0  0  0  0  0
   -9.3837   -0.6177    0.3540 H   0  0  0  0  0  0  0  0  0  0  0  0
   -6.5130   -2.0393   -0.6986 H   0  0  0  0  0  0  0  0  0  0  0  0
   -4.1081   -2.2603   -1.0752 H   0  0  0  0  0  0  0  0  0  0  0  0
   -1.6678   -2.4507   -1.3462 H   0  0  0  0  0  0  0  0  0  0  0  0
    0.9021   -1.9578   -0.6955 H   0  0  0  0  0  0  0  0  0  0  0  0
    0.8863   -0.1338    2.7659 H   0  0  0  0  0  0  0  0  0  0  0  0
    7.9086    2.7911   -0.4715 H   0  0  0  0  0  0  0  0  0  0  0  0
    7.9956    2.6613   -2.9609 H   0  0  0  0  0  0  0  0  0  0  0  0
    6.1071    1.7089   -4.2363 H   0  0  0  0  0  0  0  0  0  0  0  0
    4.0750    0.8568   -3.0647 H   0  0  0  0  0  0  0  0  0  0  0  0
   -3.3397    0.2139    2.3725 H   0  0  0  0  0  0  0  0  0  0  0  0
  1  2  2  0
  2  3  1  0
  2  4  1  0
  4  5  2  0
  5  6  1  0
  6  7  2  0
  7  8  1  0
  8  9  2  0
  9 10  1  0
 10 11  2  0
 11 12  1  0
 12 13  2  3
 13 14  1  0
 14 15  1  0
 15 16  2  0
 16 17  1  0
 17 18  2  0
 18 19  1  0
 19 20  2  0
 20 21  1  0
 21 22  2  0
 22 23  1  0
 23 24  1  0
 24 25  2  0
 11 26  1  0
  7 27  1  0
 27 28  2  0
 28 29  1  0
 28  4  1  0
 26  8  1  0
 24 13  1  0
 23 15  1  0
 22 17  1  0
  3 30  1  0
  5 31  1  0
  6 32  1  0
  9 33  1  0
 10 34  1  0
 12 35  1  0
 18 36  1  0
 19 37  1  0
 20 38  1  0
 21 39  1  0
 27 40  1  0
M  END
$$$$
