
     RDKit          3D

 51 55  0  0  0  0  0  0  0  0999 V2000
   -0.0947   -0.1916   -3.8228 O   0  0  0  0  0  0  0  0  0  0  0  0
   -0.1316    0.6829   -2.9531 C   0  0  0  0  0  0  0  0  0  0  0  0
   -1.4370    1.1164   -2.2769 C   0  0  0  0  0  0  0  0  0  0  0  0
   -1.7626    0.2030   -1.1749 N   0  0  0  0  0  0  0  0  0  0  0  0
   -1.0150    0.3587   -0.0035 C   0  0  0  0  0  0  0  0  0  0  0  0
   -0.2186    1.2962    0.1385 O   0  0  0  0  0  0  0  0  0  0  0  0
   -1.0834   -0.7578    1.0183 C   0  0  0  0  0  0  0  0  0  0  0  0
   -2.2656   -0.6845    1.9703 C   0  0  0  0  0  0  0  0  0  0  0  0
   -1.9633    0.1135    3.1978 C   0  0  0  0  0  0  0  0  0  0  0  0
   -2.1034   -0.1479    4.5464 C   0  0  0  0  0  0  0  0  0  0  0  0
   -1.6304    0.9993    5.2277 C   0  0  0  0  0  0  0  0  0  0  0  0
   -1.2278    1.8835    4.2556 C   0  0  0  0  0  0  0  0  0  0  0  0
   -1.4298    1.3563    3.0227 O   0  0  0  0  0  0  0  0  0  0  0  0
   -3.8280   -0.0979    1.2339 S   0  0  0  0  0  0  0  0  0  0  0  0
   -3.7830   -0.9826   -0.3205 C   0  0  0  0  0  0  0  0  0  0  0  0
   -4.8477   -1.8665   -0.5591 C   0  0  0  0  0  0  0  0  0  0  0  0
   -4.9865   -2.5052   -1.7912 C   0  0  0  0  0  0  0  0  0  0  0  0
   -4.0714   -2.2546   -2.8020 C   0  0  0  0  0  0  0  0  0  0  0  0
   -3.0165   -1.3649   -2.5817 C   0  0  0  0  0  0  0  0  0  0  0  0
   -2.8445   -0.7214   -1.3419 C   0  0  0  0  0  0  0  0  0  0  0  0
    0.9957    1.2801   -2.4242 N   0  0  0  0  0  0  0  0  0  0  0  0
    2.3307    0.8738   -2.8104 C   0  0  0  0  0  0  0  0  0  0  0  0
    3.1437    0.4637   -1.6072 C   0  0  0  0  0  0  0  0  0  0  0  0
    2.7406   -0.6401   -0.8223 C   0  0  0  0  0  0  0  0  0  0  0  0
    3.4630   -1.0209    0.3117 C   0  0  0  0  0  0  0  0  0  0  0  0
    4.5839   -0.2896    0.6294 C   0  0  0  0  0  0  0  0  0  0  0  0
    4.9931    0.7750   -0.1339 C   0  0  0  0  0  0  0  0  0  0  0  0
    4.2995    1.1761   -1.2550 C   0  0  0  0  0  0  0  0  0  0  0  0
    6.1249    1.3551    0.3489 O   0  0  0  0  0  0  0  0  0  0  0  0
    6.3651    0.5477    1.5175 C   0  0  0  0  0  0  0  0  0  0  0  0
    5.4044   -0.5118    1.6908 O   0  0  0  0  0  0  0  0  0  0  0  0
   -2.2373    1.1623   -3.0248 H   0  0  0  0  0  0  0  0  0  0  0  0
   -1.3236    2.1351   -1.8826 H   0  0  0  0  0  0  0  0  0  0  0  0
   -0.1326   -0.7665    1.5704 H   0  0  0  0  0  0  0  0  0  0  0  0
   -1.0920   -1.7145    0.4770 H   0  0  0  0  0  0  0  0  0  0  0  0
   -2.4636   -1.7090    2.3073 H   0  0  0  0  0  0  0  0  0  0  0  0
   -2.5004   -1.0531    4.9835 H   0  0  0  0  0  0  0  0  0  0  0  0
   -1.5835    1.1609    6.2947 H   0  0  0  0  0  0  0  0  0  0  0  0
   -0.7986    2.8737    4.2751 H   0  0  0  0  0  0  0  0  0  0  0  0
   -5.5966   -2.0449    0.2096 H   0  0  0  0  0  0  0  0  0  0  0  0
   -5.8197   -3.1821   -1.9670 H   0  0  0  0  0  0  0  0  0  0  0  0
   -4.1750   -2.7425   -3.7707 H   0  0  0  0  0  0  0  0  0  0  0  0
   -2.3175   -1.2109   -3.3996 H   0  0  0  0  0  0  0  0  0  0  0  0
    0.8909    1.6695   -1.4904 H   0  0  0  0  0  0  0  0  0  0  0  0
    2.7883    1.7397   -3.3039 H   0  0  0  0  0  0  0  0  0  0  0  0
    2.3108    0.0555   -3.5378 H   0  0  0  0  0  0  0  0  0  0  0  0
    1.8482   -1.1971   -1.0968 H   0  0  0  0  0  0  0  0  0  0  0  0
    3.1528   -1.8566    0.9213 H   0  0  0  0  0  0  0  0  0  0  0  0
    4.6461    2.0213   -1.8346 H   0  0  0  0  0  0  0  0  0  0  0  0
    6.3368    1.1934    2.4024 H   0  0  0  0  0  0  0  0  0  0  0  0
    7.3624    0.1064    1.4383 H   0  0  0  0  0  0  0  0  0  0  0  0
  1  2  2  0
  2  3  1  0
  3  4  1  0
  4  5  1  0
  5  6  2  0
  5  7  1  0
  7  8  1  0
  8  9  1  0
  9 10  2  0
 10 11  1  0
 11 12  2  0
 12 13  1  0
  8 14  1  0
 14 15  1  0
 15 16  2  0
 16 17  1  0
 17 18  2  0
 18 19  1  0
 19 20  2  0
  2 21  1  0
 21 22  1  0
 22 23  1  0
 23 24  2  0
 24 25  1  0
 25 26  2  0
 26 27  1  0
 27 28  2  0
 27 29  1  0
 29 30  1  0
 30 31  1  0
 20  4  1  0
 28 23  1  0
 13  9  1  0
 20 15  1  0
 31 26  1  0
  3 32  1  0
  3 33  1  0
  7 34  1  0
  7 35  1  0
  8 36  1  0
 10 37  1  0
 11 38  1  0
 12 39  1  0
 16 40  1  0
 17 41  1  0
 18 42  1  0
 19 43  1  0
 21 44  1  0
 22 45  1  0
 22 46  1  0
 24 47  1  0
 25 48  1  0
 28 49  1  0
 30 50  1  0
 30 51  1  0
M  END
$$$$
