
     RDKit          3D

 39 41  0  0  0  0  0  0  0  0999 V2000
   -4.9267   -2.2917    0.1732 C   0  0  0  0  0  0  0  0  0  0  0  0
   -4.4167   -1.5395   -1.0434 C   0  0  0  0  0  0  0  0  0  0  0  0
   -3.2283   -0.7552   -0.7474 N   0  0  0  0  0  0  0  0  0  0  0  0
   -1.9457   -1.1920   -0.9615 C   0  0  0  0  0  0  0  0  0  0  0  0
   -1.0829   -0.1944   -0.5642 C   0  0  0  0  0  0  0  0  0  0  0  0
    0.3365   -0.3367   -0.6390 C   0  0  0  0  0  0  0  0  0  0  0  0
    1.2136    0.1854    0.2346 C   0  0  0  0  0  0  0  0  0  0  0  0
    2.6679    0.0175    0.1432 C   0  0  0  0  0  0  0  0  0  0  0  0
    3.4955    1.0885    0.4762 C   0  0  0  0  0  0  0  0  0  0  0  0
    4.8765    0.9380    0.4197 C   0  0  0  0  0  0  0  0  0  0  0  0
    5.4258   -0.2407    0.0517 N   0  0  0  0  0  4  0  0  0  0  0  0
    6.8914   -0.3799    0.0097 C   0  0  0  0  0  0  0  0  0  0  0  0
    4.6444   -1.3011   -0.2510 C   0  0  0  0  0  0  0  0  0  0  0  0
    3.2587   -1.1947   -0.2101 C   0  0  0  0  0  0  0  0  0  0  0  0
   -1.8743    0.9142   -0.1284 C   0  0  0  0  0  0  0  0  0  0  0  0
   -1.5921    2.2188    0.3369 C   0  0  0  0  0  0  0  0  0  0  0  0
   -2.6373    3.0769    0.6955 C   0  0  0  0  0  0  0  0  0  0  0  0
   -3.9587    2.6601    0.5923 C   0  0  0  0  0  0  0  0  0  0  0  0
   -4.2720    1.3834    0.1204 C   0  0  0  0  0  0  0  0  0  0  0  0
   -3.2168    0.5289   -0.2417 C   0  0  0  0  0  0  0  0  0  0  0  0
   -4.1648   -2.9759    0.5614 H   0  0  0  0  0  0  0  0  0  0  0  0
   -5.8123   -2.8792   -0.0877 H   0  0  0  0  0  0  0  0  0  0  0  0
   -5.1995   -1.6041    0.9804 H   0  0  0  0  0  0  0  0  0  0  0  0
   -4.1608   -2.2419   -1.8449 H   0  0  0  0  0  0  0  0  0  0  0  0
   -5.1821   -0.8624   -1.4366 H   0  0  0  0  0  0  0  0  0  0  0  0
   -1.7587   -2.1803   -1.3612 H   0  0  0  0  0  0  0  0  0  0  0  0
    0.6992   -0.9404   -1.4682 H   0  0  0  0  0  0  0  0  0  0  0  0
    0.8544    0.7733    1.0769 H   0  0  0  0  0  0  0  0  0  0  0  0
    3.0723    2.0467    0.7732 H   0  0  0  0  0  0  0  0  0  0  0  0
    5.5493    1.7537    0.6698 H   0  0  0  0  0  0  0  0  0  0  0  0
    7.1597   -1.1149   -0.7536 H   0  0  0  0  0  0  0  0  0  0  0  0
    7.2172   -0.7090    0.9994 H   0  0  0  0  0  0  0  0  0  0  0  0
    7.3357    0.5854   -0.2464 H   0  0  0  0  0  0  0  0  0  0  0  0
    5.1366   -2.2320   -0.5184 H   0  0  0  0  0  0  0  0  0  0  0  0
    2.6503   -2.0669   -0.4420 H   0  0  0  0  0  0  0  0  0  0  0  0
   -0.5692    2.5717    0.4093 H   0  0  0  0  0  0  0  0  0  0  0  0
   -2.4148    4.0791    1.0534 H   0  0  0  0  0  0  0  0  0  0  0  0
   -4.7617    3.3377    0.8744 H   0  0  0  0  0  0  0  0  0  0  0  0
   -5.3090    1.0734    0.0363 H   0  0  0  0  0  0  0  0  0  0  0  0
  1  2  1  0
  2  3  1  0
  3  4  1  0
  4  5  2  0
  5  6  1  0
  6  7  2  3
  7  8  1  0
  8  9  2  0
  9 10  1  0
 10 11  2  0
 11 12  1  0
 11 13  1  0
 13 14  2  0
  5 15  1  0
 15 16  2  0
 16 17  1  0
 17 18  2  0
 18 19  1  0
 19 20  2  0
 20  3  1  0
 14  8  1  0
 20 15  1  0
  1 21  1  0
  1 22  1  0
  1 23  1  0
  2 24  1  0
  2 25  1  0
  4 26  1  0
  6 27  1  0
  7 28  1  0
  9 29  1  0
 10 30  1  0
 12 31  1  0
 12 32  1  0
 12 33  1  0
 13 34  1  0
 14 35  1  0
 16 36  1  0
 17 37  1  0
 18 38  1  0
 19 39  1  0
M  CHG  1  11   1
M  END
$$$$
