
     RDKit          3D

 63 66  0  0  0  0  0  0  0  0999 V2000
    2.3020    0.4249   -3.2177 C   0  0  0  0  0  0  0  0  0  0  0  0
    2.5988    0.4722   -1.7457 C   0  0  0  0  0  0  0  0  0  0  0  0
    1.8339   -0.2088   -0.9385 N   0  0  0  0  0  0  0  0  0  0  0  0
    2.0670   -0.2175    0.4412 N   0  0  0  0  0  0  0  0  0  0  0  0
    1.1311   -1.0082    1.2357 C   0  0  0  0  0  0  0  0  0  0  0  0
   -0.0646   -0.1751    1.6745 C   0  0  0  0  0  0  0  0  0  0  0  0
   -1.0384   -1.0043    2.4788 C   0  0  0  0  0  0  0  0  0  0  0  0
   -0.8635   -2.1880    2.7441 O   0  0  0  0  0  0  0  0  0  0  0  0
   -2.1409   -0.2850    2.8873 N   0  0  0  0  0  0  0  0  0  0  0  0
   -3.2413   -0.9105    3.5851 C   0  0  0  0  0  0  0  0  0  0  0  0
   -4.3412   -1.2882    2.6273 C   0  0  0  0  0  0  0  0  0  0  0  0
   -4.2771   -2.4965    1.9187 C   0  0  0  0  0  0  0  0  0  0  0  0
   -5.2817   -2.8506    1.0103 C   0  0  0  0  0  0  0  0  0  0  0  0
   -6.3610   -1.9955    0.7900 C   0  0  0  0  0  0  0  0  0  0  0  0
   -7.4088   -2.2092   -0.0606 O   0  0  0  0  0  0  0  0  0  0  0  0
   -7.3871   -3.3522   -0.9239 C   0  0  0  0  0  0  0  0  0  0  0  0
   -8.2052   -2.9840   -2.1611 C   0  0  0  0  0  0  0  0  0  0  0  0
   -8.0211   -4.5493   -0.2197 C   0  0  0  0  0  0  0  0  0  0  0  0
   -6.4265   -0.7881    1.4930 C   0  0  0  0  0  0  0  0  0  0  0  0
   -5.4249   -0.4311    2.4004 C   0  0  0  0  0  0  0  0  0  0  0  0
    3.0667    0.5284    1.1009 C   0  0  0  0  0  0  0  0  0  0  0  0
    3.1996    0.5547    2.3234 O   0  0  0  0  0  0  0  0  0  0  0  0
    3.9139    1.2702    0.1764 C   0  0  0  0  0  0  0  0  0  0  0  0
    4.9387    2.0608    0.5014 N   0  0  0  0  0  0  0  0  0  0  0  0
    5.4712    2.4575   -0.6867 N   0  0  0  0  0  0  0  0  0  0  0  0
    6.7317    3.1331   -0.6761 C   0  0  0  0  0  0  0  0  0  0  0  0
    7.2097    3.6558    0.5396 C   0  0  0  0  0  0  0  0  0  0  0  0
    8.4390    4.3171    0.5995 C   0  0  0  0  0  0  0  0  0  0  0  0
    9.2127    4.4523   -0.5493 C   0  0  0  0  0  0  0  0  0  0  0  0
    8.7623    3.9167   -1.7538 C   0  0  0  0  0  0  0  0  0  0  0  0
    7.5315    3.2525   -1.8186 C   0  0  0  0  0  0  0  0  0  0  0  0
    4.6328    2.1007   -1.7517 C   0  0  0  0  0  0  0  0  0  0  0  0
    4.7577    2.6196   -3.1385 C   0  0  0  0  0  0  0  0  0  0  0  0
    3.6883    1.2475   -1.2042 C   0  0  0  0  0  0  0  0  0  0  0  0
    1.8724    1.3790   -3.5331 H   0  0  0  0  0  0  0  0  0  0  0  0
    1.5787   -0.3669   -3.4354 H   0  0  0  0  0  0  0  0  0  0  0  0
    3.2163    0.2261   -3.7829 H   0  0  0  0  0  0  0  0  0  0  0  0
    1.6567   -1.4095    2.1102 H   0  0  0  0  0  0  0  0  0  0  0  0
    0.8108   -1.8680    0.6339 H   0  0  0  0  0  0  0  0  0  0  0  0
   -0.5866    0.2271    0.7981 H   0  0  0  0  0  0  0  0  0  0  0  0
    0.2638    0.6717    2.2883 H   0  0  0  0  0  0  0  0  0  0  0  0
   -2.3057    0.6247    2.4797 H   0  0  0  0  0  0  0  0  0  0  0  0
   -2.8974   -1.7916    4.1380 H   0  0  0  0  0  0  0  0  0  0  0  0
   -3.6100   -0.1893    4.3231 H   0  0  0  0  0  0  0  0  0  0  0  0
   -3.4358   -3.1730    2.0727 H   0  0  0  0  0  0  0  0  0  0  0  0
   -5.1860   -3.8044    0.5024 H   0  0  0  0  0  0  0  0  0  0  0  0
   -6.3732   -3.5847   -1.2676 H   0  0  0  0  0  0  0  0  0  0  0  0
   -7.7676   -2.1103   -2.6604 H   0  0  0  0  0  0  0  0  0  0  0  0
   -9.2307   -2.7100   -1.8869 H   0  0  0  0  0  0  0  0  0  0  0  0
   -8.2407   -3.8131   -2.8771 H   0  0  0  0  0  0  0  0  0  0  0  0
   -7.4570   -4.8283    0.6763 H   0  0  0  0  0  0  0  0  0  0  0  0
   -8.0651   -5.4202   -0.8834 H   0  0  0  0  0  0  0  0  0  0  0  0
   -9.0369   -4.3123    0.1157 H   0  0  0  0  0  0  0  0  0  0  0  0
   -7.2674   -0.1168    1.3287 H   0  0  0  0  0  0  0  0  0  0  0  0
   -5.5026    0.5172    2.9276 H   0  0  0  0  0  0  0  0  0  0  0  0
    6.6265    3.5636    1.4556 H   0  0  0  0  0  0  0  0  0  0  0  0
    8.7904    4.7201    1.5464 H   0  0  0  0  0  0  0  0  0  0  0  0
   10.1713    4.9625   -0.5025 H   0  0  0  0  0  0  0  0  0  0  0  0
    9.3797    4.0012   -2.6451 H   0  0  0  0  0  0  0  0  0  0  0  0
    7.2625    2.8042   -2.7671 H   0  0  0  0  0  0  0  0  0  0  0  0
    3.7798    2.6826   -3.6228 H   0  0  0  0  0  0  0  0  0  0  0  0
    5.1613    3.6360   -3.1612 H   0  0  0  0  0  0  0  0  0  0  0  0
    5.3874    1.9602   -3.7419 H   0  0  0  0  0  0  0  0  0  0  0  0
  1  2  1  0
  2  3  2  0
  3  4  1  0
  4  5  1  0
  5  6  1  0
  6  7  1  0
  7  8  2  0
  7  9  1  0
  9 10  1  0
 10 11  1  0
 11 12  2  0
 12 13  1  0
 13 14  2  0
 14 15  1  0
 15 16  1  0
 16 17  1  0
 16 18  1  0
 14 19  1  0
 19 20  2  0
  4 21  1  0
 21 22  2  0
 21 23  1  0
 23 24  2  0
 24 25  1  0
 25 26  1  0
 26 27  2  0
 27 28  1  0
 28 29  2  0
 29 30  1  0
 30 31  2  0
 25 32  1  0
 32 33  1  0
 32 34  2  0
 34  2  1  0
 20 11  1  0
 34 23  1  0
 31 26  1  0
  1 35  1  0
  1 36  1  0
  1 37  1  0
  5 38  1  0
  5 39  1  0
  6 40  1  0
  6 41  1  0
  9 42  1  0
 10 43  1  0
 10 44  1  0
 12 45  1  0
 13 46  1  0
 16 47  1  0
 17 48  1  0
 17 49  1  0
 17 50  1  0
 18 51  1  0
 18 52  1  0
 18 53  1  0
 19 54  1  0
 20 55  1  0
 27 56  1  0
 28 57  1  0
 29 58  1  0
 30 59  1  0
 31 60  1  0
 33 61  1  0
 33 62  1  0
 33 63  1  0
M  END
$$$$
