
     RDKit          3D

 49 53  0  0  0  0  0  0  0  0999 V2000
   -0.3803    2.9462    1.0994 O   0  0  0  0  0  0  0  0  0  0  0  0
   -0.4351    1.9355    0.3957 C   0  0  0  0  0  0  0  0  0  0  0  0
   -1.6905    1.2267    0.2158 C   0  0  0  0  0  0  0  0  0  0  0  0
   -2.8289    1.2239    1.0022 C   0  0  0  0  0  0  0  0  0  0  0  0
   -3.7973    0.4128    0.3473 C   0  0  0  0  0  0  0  0  0  0  0  0
   -3.1854   -0.0091   -0.8260 C   0  0  0  0  0  0  0  0  0  0  0  0
   -3.7875   -0.8261   -1.7779 C   0  0  0  0  0  0  0  0  0  0  0  0
   -5.0980   -1.2392   -1.5131 C   0  0  0  0  0  0  0  0  0  0  0  0
   -5.7749   -0.8477   -0.3458 C   0  0  0  0  0  0  0  0  0  0  0  0
   -7.0897   -1.2650   -0.0887 C   0  0  0  0  0  0  0  0  0  0  0  0
   -7.7533   -0.8667    1.0753 C   0  0  0  0  0  0  0  0  0  0  0  0
   -7.1156   -0.0445    2.0023 C   0  0  0  0  0  0  0  0  0  0  0  0
   -5.8089    0.3852    1.7728 C   0  0  0  0  0  0  0  0  0  0  0  0
   -5.1299   -0.0107    0.6030 C   0  0  0  0  0  0  0  0  0  0  0  0
   -1.9228    0.4891   -0.9144 O   0  0  0  0  0  0  0  0  0  0  0  0
    0.7078    1.4665   -0.2681 N   0  0  0  0  0  0  0  0  0  0  0  0
    0.9763    0.0328   -0.4474 C   0  0  0  0  0  0  0  0  0  0  0  0
    1.9454   -0.2320   -1.6142 C   0  0  0  0  0  0  0  0  0  0  0  0
    3.1953    0.5521   -1.4912 N   0  0  0  0  0  0  0  0  0  0  0  0
    4.1422   -0.0290   -0.6324 C   0  0  0  0  0  0  0  0  0  0  0  0
    4.3392    0.5378    0.5833 N   0  0  0  0  0  0  0  0  0  0  0  0
    5.2433   -0.0135    1.4278 C   0  0  0  0  0  0  0  0  0  0  0  0
    6.0041   -1.1293    1.1282 C   0  0  0  0  0  0  0  0  0  0  0  0
    6.9636   -1.6789    2.1354 C   0  0  0  0  0  0  0  0  0  0  0  0
    7.6142   -0.7078    2.8324 F   0  0  0  0  0  0  0  0  0  0  0  0
    6.3451   -2.4569    3.0643 F   0  0  0  0  0  0  0  0  0  0  0  0
    7.9353   -2.4557    1.5827 F   0  0  0  0  0  0  0  0  0  0  0  0
    5.8118   -1.7134   -0.1241 C   0  0  0  0  0  0  0  0  0  0  0  0
    4.8861   -1.1620   -1.0142 C   0  0  0  0  0  0  0  0  0  0  0  0
    4.7580   -1.8883   -2.5794 Cl  0  0  0  0  0  0  0  0  0  0  0  0
    2.9429    1.9940   -1.2666 C   0  0  0  0  0  0  0  0  0  0  0  0
    1.9228    2.2794   -0.1481 C   0  0  0  0  0  0  0  0  0  0  0  0
   -2.9355    1.7540    1.9386 H   0  0  0  0  0  0  0  0  0  0  0  0
   -3.2647   -1.1224   -2.6792 H   0  0  0  0  0  0  0  0  0  0  0  0
   -5.5949   -1.8787   -2.2411 H   0  0  0  0  0  0  0  0  0  0  0  0
   -7.6122   -1.9059   -0.7958 H   0  0  0  0  0  0  0  0  0  0  0  0
   -8.7723   -1.1993    1.2572 H   0  0  0  0  0  0  0  0  0  0  0  0
   -7.6373    0.2630    2.9051 H   0  0  0  0  0  0  0  0  0  0  0  0
   -5.3281    1.0270    2.5063 H   0  0  0  0  0  0  0  0  0  0  0  0
    0.0652   -0.5442   -0.6017 H   0  0  0  0  0  0  0  0  0  0  0  0
    1.4074   -0.3269    0.4956 H   0  0  0  0  0  0  0  0  0  0  0  0
    2.1334   -1.3084   -1.6885 H   0  0  0  0  0  0  0  0  0  0  0  0
    1.4587    0.0628   -2.5526 H   0  0  0  0  0  0  0  0  0  0  0  0
    5.3349    0.4962    2.3857 H   0  0  0  0  0  0  0  0  0  0  0  0
    6.3908   -2.5882   -0.4143 H   0  0  0  0  0  0  0  0  0  0  0  0
    2.5391    2.3956   -2.2053 H   0  0  0  0  0  0  0  0  0  0  0  0
    3.8774    2.5402   -1.0861 H   0  0  0  0  0  0  0  0  0  0  0  0
    1.6556    3.3423   -0.1786 H   0  0  0  0  0  0  0  0  0  0  0  0
    2.3467    2.0867    0.8435 H   0  0  0  0  0  0  0  0  0  0  0  0
  1  2  2  0
  2  3  1  0
  3  4  2  0
  4  5  1  0
  5  6  2  0
  6  7  1  0
  7  8  2  0
  8  9  1  0
  9 10  2  0
 10 11  1  0
 11 12  2  0
 12 13  1  0
 13 14  2  0
  6 15  1  0
  2 16  1  0
 16 17  1  0
 17 18  1  0
 18 19  1  0
 19 20  1  0
 20 21  2  0
 21 22  1  0
 22 23  2  0
 23 24  1  0
 24 25  1  0
 24 26  1  0
 24 27  1  0
 23 28  1  0
 28 29  2  0
 29 30  1  0
 19 31  1  0
 31 32  1  0
 15  3  1  0
 32 16  1  0
 14  5  1  0
 29 20  1  0
 14  9  1  0
  4 33  1  0
  7 34  1  0
  8 35  1  0
 10 36  1  0
 11 37  1  0
 12 38  1  0
 13 39  1  0
 17 40  1  0
 17 41  1  0
 18 42  1  0
 18 43  1  0
 22 44  1  0
 28 45  1  0
 31 46  1  0
 31 47  1  0
 32 48  1  0
 32 49  1  0
M  END
$$$$
