
     RDKit          3D

 34 35  0  0  0  0  0  0  0  0999 V2000
    4.1408   -1.6539   -0.7859 C   0  0  0  0  0  0  0  0  0  0  0  0
    4.1077   -0.2069   -0.3308 C   0  0  0  0  0  0  0  0  0  0  0  0
    2.7521    0.2537   -0.2471 O   0  0  0  0  0  0  0  0  0  0  0  0
    2.1266    0.0028    0.9198 C   0  0  0  0  0  0  0  0  0  0  0  0
    2.5695   -0.5190    1.9249 O   0  0  0  0  0  0  0  0  0  0  0  0
    0.7045    0.5339    0.8391 C   0  0  0  0  0  0  0  0  0  0  0  0
   -0.1402   -0.1760    0.1678 N   0  0  0  0  0  0  0  0  0  0  0  0
   -1.4452    0.2586    0.0623 N   0  0  0  0  0  0  0  0  0  0  0  0
   -2.2798   -0.6290   -0.7157 C   0  0  0  0  0  0  0  0  0  0  0  0
   -3.6409   -0.3917   -0.9595 C   0  0  0  0  0  0  0  0  0  0  0  0
   -4.4156   -1.2792   -1.7206 C   0  0  0  0  0  0  0  0  0  0  0  0
   -3.8472   -2.4280   -2.2576 C   0  0  0  0  0  0  0  0  0  0  0  0
   -2.5025   -2.6913   -2.0341 C   0  0  0  0  0  0  0  0  0  0  0  0
   -1.7321   -1.8032   -1.2740 C   0  0  0  0  0  0  0  0  0  0  0  0
   -1.8886    1.4473    0.6597 C   0  0  0  0  0  0  0  0  0  0  0  0
   -3.0284    1.9067    0.6126 O   0  0  0  0  0  0  0  0  0  0  0  0
   -0.8614    2.2217    1.4230 C   0  0  0  0  0  0  0  0  0  0  0  0
   -1.2971    3.4321    2.0355 C   0  0  0  0  0  0  0  0  0  0  0  0
   -1.5802    4.4294    2.5577 N   0  0  0  0  0  0  0  0  0  0  0  0
    0.4111    1.8059    1.5311 C   0  0  0  0  0  0  0  0  0  0  0  0
    1.5214    2.5008    2.2632 C   0  0  0  0  0  0  0  0  0  0  0  0
    5.1714   -1.9981   -0.9100 H   0  0  0  0  0  0  0  0  0  0  0  0
    3.6397   -2.3044   -0.0621 H   0  0  0  0  0  0  0  0  0  0  0  0
    3.6121   -1.7698   -1.7377 H   0  0  0  0  0  0  0  0  0  0  0  0
    4.6158    0.4233   -1.0681 H   0  0  0  0  0  0  0  0  0  0  0  0
    4.6323   -0.0752    0.6226 H   0  0  0  0  0  0  0  0  0  0  0  0
   -4.1565    0.4810   -0.5747 H   0  0  0  0  0  0  0  0  0  0  0  0
   -5.4682   -1.0639   -1.8892 H   0  0  0  0  0  0  0  0  0  0  0  0
   -4.4504   -3.1137   -2.8463 H   0  0  0  0  0  0  0  0  0  0  0  0
   -2.0457   -3.5866   -2.4476 H   0  0  0  0  0  0  0  0  0  0  0  0
   -0.6843   -2.0538   -1.1265 H   0  0  0  0  0  0  0  0  0  0  0  0
    1.8759    1.8837    3.0952 H   0  0  0  0  0  0  0  0  0  0  0  0
    1.2218    3.4648    2.6838 H   0  0  0  0  0  0  0  0  0  0  0  0
    2.3616    2.6978    1.5890 H   0  0  0  0  0  0  0  0  0  0  0  0
  1  2  1  0
  2  3  1  0
  3  4  1  0
  4  5  2  0
  4  6  1  0
  6  7  2  0
  7  8  1  0
  8  9  1  0
  9 10  2  0
 10 11  1  0
 11 12  2  0
 12 13  1  0
 13 14  2  0
  8 15  1  0
 15 16  2  0
 15 17  1  0
 17 18  1  0
 18 19  3  0
 17 20  2  0
 20 21  1  0
 20  6  1  0
 14  9  1  0
  1 22  1  0
  1 23  1  0
  1 24  1  0
  2 25  1  0
  2 26  1  0
 10 27  1  0
 11 28  1  0
 12 29  1  0
 13 30  1  0
 14 31  1  0
 21 32  1  0
 21 33  1  0
 21 34  1  0
M  END
$$$$
