
     RDKit          3D

 58 62  0  0  0  0  0  0  0  0999 V2000
    0.1655    1.2923   -2.1983 O   0  0  0  0  0  0  0  0  0  0  0  0
   -0.0645    0.2809   -1.5420 C   0  0  0  0  0  0  0  0  0  0  0  0
   -1.4808   -0.2512   -1.4067 C   0  0  0  0  0  0  0  0  0  0  0  0
   -2.0713   -0.0086    0.2942 S   0  0  0  0  0  0  0  0  0  0  0  0
   -3.7165   -0.5902    0.0827 C   0  0  0  0  0  0  0  0  0  0  0  0
   -3.8328   -1.7387   -0.5019 N   0  0  0  0  0  0  0  0  0  0  0  0
   -5.1152   -2.2232   -0.7702 C   0  0  0  0  0  0  0  0  0  0  0  0
   -5.2474   -3.4516   -1.4227 C   0  0  0  0  0  0  0  0  0  0  0  0
   -6.5117   -3.9646   -1.7251 C   0  0  0  0  0  0  0  0  0  0  0  0
   -7.6568   -3.2501   -1.3760 C   0  0  0  0  0  0  0  0  0  0  0  0
   -7.5364   -2.0240   -0.7232 C   0  0  0  0  0  0  0  0  0  0  0  0
   -6.2643   -1.5181   -0.4262 C   0  0  0  0  0  0  0  0  0  0  0  0
   -6.1012   -0.2341    0.2788 C   0  0  0  0  0  0  0  0  0  0  0  0
   -7.1118    0.3434    0.6779 O   0  0  0  0  0  0  0  0  0  0  0  0
   -4.7871    0.1956    0.4975 N   0  0  0  0  0  0  0  0  0  0  0  0
   -4.6309    1.4445    1.1738 C   0  0  0  0  0  0  0  0  0  0  0  0
   -3.9733    1.5217    2.4105 C   0  0  0  0  0  0  0  0  0  0  0  0
   -3.8658    2.7501    3.0686 C   0  0  0  0  0  0  0  0  0  0  0  0
   -4.4185    3.8929    2.4970 C   0  0  0  0  0  0  0  0  0  0  0  0
   -4.3099    5.0652    3.1356 F   0  0  0  0  0  0  0  0  0  0  0  0
   -5.0785    3.8375    1.2783 C   0  0  0  0  0  0  0  0  0  0  0  0
   -5.1838    2.6137    0.6270 C   0  0  0  0  0  0  0  0  0  0  0  0
   -5.7807    2.5767   -0.5744 F   0  0  0  0  0  0  0  0  0  0  0  0
    0.8678   -0.5064   -0.8832 N   0  0  0  0  0  0  0  0  0  0  0  0
    2.2651   -0.3353   -0.8418 C   0  0  0  0  0  0  0  0  0  0  0  0
    2.9517    0.6665   -1.5208 C   0  0  0  0  0  0  0  0  0  0  0  0
    4.3503    0.7613   -1.4334 C   0  0  0  0  0  0  0  0  0  0  0  0
    5.1049   -0.1314   -0.6615 C   0  0  0  0  0  0  0  0  0  0  0  0
    6.5041   -0.0834   -0.5601 N   0  0  0  0  0  0  0  0  0  0  0  0
    7.2397    0.7797   -1.5112 C   0  0  0  0  0  0  0  0  0  0  0  0
    8.7513    0.5346   -1.3807 C   0  0  0  0  0  0  0  0  0  0  0  0
    9.2052    0.7678   -0.0374 O   0  0  0  0  0  0  0  0  0  0  0  0
    8.5264   -0.1167    0.8684 C   0  0  0  0  0  0  0  0  0  0  0  0
    7.0018    0.0847    0.8286 C   0  0  0  0  0  0  0  0  0  0  0  0
    4.3952   -1.1427    0.0039 C   0  0  0  0  0  0  0  0  0  0  0  0
    3.0000   -1.2437   -0.0781 C   0  0  0  0  0  0  0  0  0  0  0  0
   -1.4856   -1.3122   -1.6766 H   0  0  0  0  0  0  0  0  0  0  0  0
   -2.1287    0.2863   -2.1069 H   0  0  0  0  0  0  0  0  0  0  0  0
   -4.3578   -4.0122   -1.6994 H   0  0  0  0  0  0  0  0  0  0  0  0
   -6.6010   -4.9214   -2.2342 H   0  0  0  0  0  0  0  0  0  0  0  0
   -8.6418   -3.6474   -1.6106 H   0  0  0  0  0  0  0  0  0  0  0  0
   -8.4292   -1.4665   -0.4468 H   0  0  0  0  0  0  0  0  0  0  0  0
   -3.5635    0.6327    2.8831 H   0  0  0  0  0  0  0  0  0  0  0  0
   -3.3607    2.8225    4.0272 H   0  0  0  0  0  0  0  0  0  0  0  0
   -5.5008    4.7329    0.8378 H   0  0  0  0  0  0  0  0  0  0  0  0
    0.4960   -1.2672   -0.3262 H   0  0  0  0  0  0  0  0  0  0  0  0
    2.4362    1.3984   -2.1347 H   0  0  0  0  0  0  0  0  0  0  0  0
    4.8234    1.5712   -1.9805 H   0  0  0  0  0  0  0  0  0  0  0  0
    7.0320    1.8345   -1.2901 H   0  0  0  0  0  0  0  0  0  0  0  0
    6.9408    0.5619   -2.5432 H   0  0  0  0  0  0  0  0  0  0  0  0
    9.2963    1.2202   -2.0373 H   0  0  0  0  0  0  0  0  0  0  0  0
    9.0131   -0.4894   -1.6735 H   0  0  0  0  0  0  0  0  0  0  0  0
    8.7920   -1.1518    0.6195 H   0  0  0  0  0  0  0  0  0  0  0  0
    8.9012    0.0906    1.8760 H   0  0  0  0  0  0  0  0  0  0  0  0
    6.5467   -0.6312    1.5208 H   0  0  0  0  0  0  0  0  0  0  0  0
    6.7592    1.0981    1.1740 H   0  0  0  0  0  0  0  0  0  0  0  0
    4.9333   -1.8932    0.5779 H   0  0  0  0  0  0  0  0  0  0  0  0
    2.5091   -2.0521    0.4570 H   0  0  0  0  0  0  0  0  0  0  0  0
  1  2  2  0
  2  3  1  0
  3  4  1  0
  4  5  1  0
  5  6  2  0
  6  7  1  0
  7  8  2  0
  8  9  1  0
  9 10  2  0
 10 11  1  0
 11 12  2  0
 12 13  1  0
 13 14  2  0
 13 15  1  0
 15 16  1  0
 16 17  2  0
 17 18  1  0
 18 19  2  0
 19 20  1  0
 19 21  1  0
 21 22  2  0
 22 23  1  0
  2 24  1  0
 24 25  1  0
 25 26  2  0
 26 27  1  0
 27 28  2  0
 28 29  1  0
 29 30  1  0
 30 31  1  0
 31 32  1  0
 32 33  1  0
 33 34  1  0
 28 35  1  0
 35 36  2  0
 15  5  1  0
 22 16  1  0
 36 25  1  0
 12  7  1  0
 34 29  1  0
  3 37  1  0
  3 38  1  0
  8 39  1  0
  9 40  1  0
 10 41  1  0
 11 42  1  0
 17 43  1  0
 18 44  1  0
 21 45  1  0
 24 46  1  0
 26 47  1  0
 27 48  1  0
 30 49  1  0
 30 50  1  0
 31 51  1  0
 31 52  1  0
 33 53  1  0
 33 54  1  0
 34 55  1  0
 34 56  1  0
 35 57  1  0
 36 58  1  0
M  END
$$$$
