
     RDKit          3D

 68 70  0  0  0  0  0  0  0  0999 V2000
   -3.9172    2.9947    5.4376 C   0  0  0  0  0  0  0  0  0  0  0  0
   -3.4528    3.6885    4.2862 O   0  0  0  0  0  0  0  0  0  0  0  0
   -3.2304    2.9411    3.1625 C   0  0  0  0  0  0  0  0  0  0  0  0
   -3.4152    1.5653    3.0406 C   0  0  0  0  0  0  0  0  0  0  0  0
   -3.1459    0.9175    1.8269 C   0  0  0  0  0  0  0  0  0  0  0  0
   -2.6864    1.6335    0.7123 C   0  0  0  0  0  0  0  0  0  0  0  0
   -2.3560    0.9730   -0.6288 C   0  0  0  0  0  0  0  0  0  0  0  0
   -3.0506   -0.3953   -0.8863 C   0  0  0  0  0  0  0  0  0  0  0  0
   -4.1987   -0.4495   -1.3310 O   0  0  0  0  0  0  0  0  0  0  0  0
   -2.3492   -1.5211   -0.5043 N   0  0  0  0  0  0  0  0  0  0  0  0
   -2.8573   -2.8990   -0.5551 C   0  0  0  0  0  0  0  0  0  0  0  0
   -1.7195   -3.8322   -0.1016 C   0  0  0  0  0  0  0  0  0  0  0  0
   -3.2550   -3.2928   -1.9868 C   0  0  0  0  0  0  0  0  0  0  0  0
   -4.0483   -3.0785    0.3968 C   0  0  0  0  0  0  0  0  0  0  0  0
   -0.8923    1.0047   -0.9334 N   0  0  0  0  0  0  0  0  0  0  0  0
    0.0078    0.3515   -0.0931 C   0  0  0  0  0  0  0  0  0  0  0  0
   -0.3785   -0.3017    0.8828 O   0  0  0  0  0  0  0  0  0  0  0  0
    1.4864    0.3598   -0.4499 C   0  0  0  0  0  0  0  0  0  0  0  0
    2.2441   -0.7333    0.3028 C   0  0  0  0  0  0  0  0  0  0  0  0
    3.7294   -0.6970    0.0024 C   0  0  0  0  0  0  0  0  0  0  0  0
    4.2309    0.1530   -0.7275 O   0  0  0  0  0  0  0  0  0  0  0  0
    4.4044   -1.7073    0.6479 N   0  0  0  0  0  0  0  0  0  0  0  0
    5.7675   -1.9029    0.6122 C   0  0  0  0  0  0  0  0  0  0  0  0
    6.7661   -1.1625   -0.0571 C   0  0  0  0  0  0  0  0  0  0  0  0
    7.9421   -1.7804    0.2849 C   0  0  0  0  0  0  0  0  0  0  0  0
    9.3599   -1.5296   -0.0294 C   0  0  0  0  0  0  0  0  0  0  0  0
    7.6691   -2.8365    1.0951 O   0  0  0  0  0  0  0  0  0  0  0  0
    6.3042   -2.9178    1.2991 N   0  0  0  0  0  0  0  0  0  0  0  0
   -0.5090    1.7692   -2.0748 C   0  0  0  0  0  0  0  0  0  0  0  0
   -1.1166    1.5191   -3.3160 C   0  0  0  0  0  0  0  0  0  0  0  0
   -0.7661    2.2658   -4.4452 C   0  0  0  0  0  0  0  0  0  0  0  0
    0.1812    3.2802   -4.3394 C   0  0  0  0  0  0  0  0  0  0  0  0
    0.7645    3.5418   -3.1059 C   0  0  0  0  0  0  0  0  0  0  0  0
    1.6570    4.5341   -2.9982 F   0  0  0  0  0  0  0  0  0  0  0  0
    0.4286    2.8008   -1.9760 C   0  0  0  0  0  0  0  0  0  0  0  0
   -2.5052    3.0207    0.8487 C   0  0  0  0  0  0  0  0  0  0  0  0
   -2.7756    3.6635    2.0597 C   0  0  0  0  0  0  0  0  0  0  0  0
   -4.0381    3.7262    6.2428 H   0  0  0  0  0  0  0  0  0  0  0  0
   -3.1869    2.2499    5.7726 H   0  0  0  0  0  0  0  0  0  0  0  0
   -4.8953    2.5369    5.2549 H   0  0  0  0  0  0  0  0  0  0  0  0
   -3.7647    0.9606    3.8710 H   0  0  0  0  0  0  0  0  0  0  0  0
   -3.2953   -0.1581    1.7801 H   0  0  0  0  0  0  0  0  0  0  0  0
   -2.8492    1.6257   -1.3666 H   0  0  0  0  0  0  0  0  0  0  0  0
   -1.6108   -1.3430    0.1793 H   0  0  0  0  0  0  0  0  0  0  0  0
   -2.0333   -4.8821   -0.1103 H   0  0  0  0  0  0  0  0  0  0  0  0
   -1.3874   -3.5896    0.9162 H   0  0  0  0  0  0  0  0  0  0  0  0
   -0.8465   -3.7354   -0.7593 H   0  0  0  0  0  0  0  0  0  0  0  0
   -3.5212   -4.3542   -2.0447 H   0  0  0  0  0  0  0  0  0  0  0  0
   -2.4312   -3.1129   -2.6880 H   0  0  0  0  0  0  0  0  0  0  0  0
   -4.1190   -2.7248   -2.3459 H   0  0  0  0  0  0  0  0  0  0  0  0
   -3.7806   -2.7908    1.4200 H   0  0  0  0  0  0  0  0  0  0  0  0
   -4.3848   -4.1213    0.4180 H   0  0  0  0  0  0  0  0  0  0  0  0
   -4.9044   -2.4635    0.1006 H   0  0  0  0  0  0  0  0  0  0  0  0
    1.9056    1.3315   -0.1713 H   0  0  0  0  0  0  0  0  0  0  0  0
    1.6141    0.2037   -1.5265 H   0  0  0  0  0  0  0  0  0  0  0  0
    1.8522   -1.7195    0.0240 H   0  0  0  0  0  0  0  0  0  0  0  0
    2.1156   -0.6102    1.3855 H   0  0  0  0  0  0  0  0  0  0  0  0
    3.9103   -2.3747    1.2257 H   0  0  0  0  0  0  0  0  0  0  0  0
    6.6533   -0.2880   -0.6811 H   0  0  0  0  0  0  0  0  0  0  0  0
    9.7121   -0.6355    0.4962 H   0  0  0  0  0  0  0  0  0  0  0  0
    9.4936   -1.3717   -1.1048 H   0  0  0  0  0  0  0  0  0  0  0  0
    9.9910   -2.3730    0.2705 H   0  0  0  0  0  0  0  0  0  0  0  0
   -1.8484    0.7213   -3.4297 H   0  0  0  0  0  0  0  0  0  0  0  0
   -1.2309    2.0506   -5.4052 H   0  0  0  0  0  0  0  0  0  0  0  0
    0.4642    3.8700   -5.2064 H   0  0  0  0  0  0  0  0  0  0  0  0
    0.8791    3.0777   -1.0291 H   0  0  0  0  0  0  0  0  0  0  0  0
   -2.1517    3.6160    0.0093 H   0  0  0  0  0  0  0  0  0  0  0  0
   -2.6290    4.7378    2.1437 H   0  0  0  0  0  0  0  0  0  0  0  0
  1  2  1  0
  2  3  1  0
  3  4  2  0
  4  5  1  0
  5  6  2  0
  6  7  1  0
  7  8  1  0
  8  9  2  0
  8 10  1  0
 10 11  1  0
 11 12  1  0
 11 13  1  0
 11 14  1  0
  7 15  1  0
 15 16  1  0
 16 17  2  0
 16 18  1  0
 18 19  1  0
 19 20  1  0
 20 21  2  0
 20 22  1  0
 22 23  1  0
 23 24  1  0
 24 25  2  0
 25 26  1  0
 25 27  1  0
 27 28  1  0
 15 29  1  0
 29 30  2  0
 30 31  1  0
 31 32  2  0
 32 33  1  0
 33 34  1  0
 33 35  2  0
  6 36  1  0
 36 37  2  0
 37  3  1  0
 28 23  2  0
 35 29  1  0
  1 38  1  0
  1 39  1  0
  1 40  1  0
  4 41  1  0
  5 42  1  0
  7 43  1  0
 10 44  1  0
 12 45  1  0
 12 46  1  0
 12 47  1  0
 13 48  1  0
 13 49  1  0
 13 50  1  0
 14 51  1  0
 14 52  1  0
 14 53  1  0
 18 54  1  0
 18 55  1  0
 19 56  1  0
 19 57  1  0
 22 58  1  0
 24 59  1  0
 26 60  1  0
 26 61  1  0
 26 62  1  0
 30 63  1  0
 31 64  1  0
 32 65  1  0
 35 66  1  0
 36 67  1  0
 37 68  1  0
M  END
$$$$
