
     RDKit          3D

 50 52  0  0  0  0  0  0  0  0999 V2000
    7.1338    2.9414   -0.4811 C   0  0  0  0  0  0  0  0  0  0  0  0
    6.0656    2.8873    0.4563 O   0  0  0  0  0  0  0  0  0  0  0  0
    4.9178    2.2684    0.0460 C   0  0  0  0  0  0  0  0  0  0  0  0
    3.8841    2.2711    0.9825 C   0  0  0  0  0  0  0  0  0  0  0  0
    2.6556    1.6711    0.6898 C   0  0  0  0  0  0  0  0  0  0  0  0
    2.4418    1.0575   -0.5484 C   0  0  0  0  0  0  0  0  0  0  0  0
    1.1846    0.4663   -0.7637 N   0  0  0  0  0  0  0  0  0  0  0  0
    0.6958   -0.1191   -1.9208 C   0  0  0  0  0  0  0  0  0  0  0  0
    1.2981   -0.1984   -2.9906 O   0  0  0  0  0  0  0  0  0  0  0  0
   -0.7203   -0.7541   -1.7435 C   0  0  0  0  0  0  0  0  0  0  0  0
   -1.3374   -0.5395   -0.4250 N   0  0  0  0  0  0  0  0  0  0  0  0
   -1.9837    0.6480   -0.1500 C   0  0  0  0  0  0  0  0  0  0  0  0
   -1.8667    1.6395   -0.8584 O   0  0  0  0  0  0  0  0  0  0  0  0
   -2.8438    0.6787    1.0656 C   0  0  0  0  0  0  0  0  0  0  0  0
   -2.6520   -0.1982    2.1403 C   0  0  0  0  0  0  0  0  0  0  0  0
   -3.4857   -0.1251    3.2607 C   0  0  0  0  0  0  0  0  0  0  0  0
   -4.5049    0.8326    3.3288 C   0  0  0  0  0  0  0  0  0  0  0  0
   -5.4182    0.8876    4.5184 C   0  0  0  0  0  0  0  0  0  0  0  0
   -4.6927    1.7068    2.2521 C   0  0  0  0  0  0  0  0  0  0  0  0
   -3.8615    1.6371    1.1316 C   0  0  0  0  0  0  0  0  0  0  0  0
   -0.6965   -2.2525   -2.0164 C   0  0  0  0  0  0  0  0  0  0  0  0
    0.2282   -3.0961   -1.3779 C   0  0  0  0  0  0  0  0  0  0  0  0
    0.2071   -4.4730   -1.6058 C   0  0  0  0  0  0  0  0  0  0  0  0
   -0.7412   -5.0244   -2.4647 C   0  0  0  0  0  0  0  0  0  0  0  0
   -1.6702   -4.2008   -3.0970 C   0  0  0  0  0  0  0  0  0  0  0  0
   -1.6516   -2.8233   -2.8724 C   0  0  0  0  0  0  0  0  0  0  0  0
    3.4776    1.0533   -1.4824 C   0  0  0  0  0  0  0  0  0  0  0  0
    4.7094    1.6560   -1.1881 C   0  0  0  0  0  0  0  0  0  0  0  0
    7.4878    1.9365   -0.7339 H   0  0  0  0  0  0  0  0  0  0  0  0
    7.9638    3.4777   -0.0111 H   0  0  0  0  0  0  0  0  0  0  0  0
    6.8444    3.4972   -1.3791 H   0  0  0  0  0  0  0  0  0  0  0  0
    4.0344    2.7480    1.9479 H   0  0  0  0  0  0  0  0  0  0  0  0
    1.8720    1.6992    1.4420 H   0  0  0  0  0  0  0  0  0  0  0  0
    0.5096    0.5413   -0.0123 H   0  0  0  0  0  0  0  0  0  0  0  0
   -1.3554   -0.2565   -2.4889 H   0  0  0  0  0  0  0  0  0  0  0  0
   -1.7114   -1.3730    0.0108 H   0  0  0  0  0  0  0  0  0  0  0  0
   -1.8506   -0.9309    2.1398 H   0  0  0  0  0  0  0  0  0  0  0  0
   -3.3296   -0.8162    4.0870 H   0  0  0  0  0  0  0  0  0  0  0  0
   -6.2796    0.2319    4.3588 H   0  0  0  0  0  0  0  0  0  0  0  0
   -5.7763    1.9082    4.6892 H   0  0  0  0  0  0  0  0  0  0  0  0
   -4.8953    0.5710    5.4270 H   0  0  0  0  0  0  0  0  0  0  0  0
   -5.4851    2.4522    2.2793 H   0  0  0  0  0  0  0  0  0  0  0  0
   -4.0145    2.3319    0.3075 H   0  0  0  0  0  0  0  0  0  0  0  0
    0.9801   -2.6874   -0.7054 H   0  0  0  0  0  0  0  0  0  0  0  0
    0.9357   -5.1155   -1.1177 H   0  0  0  0  0  0  0  0  0  0  0  0
   -0.7529   -6.0961   -2.6459 H   0  0  0  0  0  0  0  0  0  0  0  0
   -2.4078   -4.6312   -3.7699 H   0  0  0  0  0  0  0  0  0  0  0  0
   -2.3859   -2.1971   -3.3758 H   0  0  0  0  0  0  0  0  0  0  0  0
    3.3636    0.5860   -2.4557 H   0  0  0  0  0  0  0  0  0  0  0  0
    5.4801    1.6247   -1.9511 H   0  0  0  0  0  0  0  0  0  0  0  0
  1  2  1  0
  2  3  1  0
  3  4  2  0
  4  5  1  0
  5  6  2  0
  6  7  1  0
  7  8  1  0
  8  9  2  0
  8 10  1  0
 10 11  1  0
 11 12  1  0
 12 13  2  0
 12 14  1  0
 14 15  2  0
 15 16  1  0
 16 17  2  0
 17 18  1  0
 17 19  1  0
 19 20  2  0
 10 21  1  0
 21 22  2  0
 22 23  1  0
 23 24  2  0
 24 25  1  0
 25 26  2  0
  6 27  1  0
 27 28  2  0
 28  3  1  0
 20 14  1  0
 26 21  1  0
  1 29  1  0
  1 30  1  0
  1 31  1  0
  4 32  1  0
  5 33  1  0
  7 34  1  0
 10 35  1  0
 11 36  1  0
 15 37  1  0
 16 38  1  0
 18 39  1  0
 18 40  1  0
 18 41  1  0
 19 42  1  0
 20 43  1  0
 22 44  1  0
 23 45  1  0
 24 46  1  0
 25 47  1  0
 26 48  1  0
 27 49  1  0
 28 50  1  0
M  END
$$$$
