
     RDKit          3D

 39 41  0  0  0  0  0  0  0  0999 V2000
   -4.8891   -1.7749   -1.6486 C   0  0  0  0  0  0  0  0  0  0  0  0
   -4.4353   -1.7763   -0.1995 C   0  0  0  0  0  0  0  0  0  0  0  0
   -3.2446   -0.9667    0.0052 N   0  0  0  0  0  0  0  0  0  0  0  0
   -1.9667   -1.4656    0.0088 C   0  0  0  0  0  0  0  0  0  0  0  0
   -1.0996   -0.4175    0.2262 C   0  0  0  0  0  0  0  0  0  0  0  0
    0.3171   -0.5942    0.2706 C   0  0  0  0  0  0  0  0  0  0  0  0
    1.2222    0.2977   -0.1656 C   0  0  0  0  0  0  0  0  0  0  0  0
    2.6735    0.0903   -0.1189 C   0  0  0  0  0  0  0  0  0  0  0  0
    3.2631   -1.1340   -0.4304 C   0  0  0  0  0  0  0  0  0  0  0  0
    4.6473   -1.2617   -0.3968 C   0  0  0  0  0  0  0  0  0  0  0  0
    5.4289   -0.2061   -0.0780 N   0  0  0  0  0  4  0  0  0  0  0  0
    6.8920   -0.3691   -0.0364 C   0  0  0  0  0  0  0  0  0  0  0  0
    4.8808    0.9926    0.2207 C   0  0  0  0  0  0  0  0  0  0  0  0
    3.5015    1.1660    0.1972 C   0  0  0  0  0  0  0  0  0  0  0  0
   -1.8851    0.7642    0.4042 C   0  0  0  0  0  0  0  0  0  0  0  0
   -1.5988    2.1161    0.7017 C   0  0  0  0  0  0  0  0  0  0  0  0
   -2.6382    3.0470    0.8046 C   0  0  0  0  0  0  0  0  0  0  0  0
   -3.9582    2.6529    0.6230 C   0  0  0  0  0  0  0  0  0  0  0  0
   -4.2761    1.3217    0.3447 C   0  0  0  0  0  0  0  0  0  0  0  0
   -3.2269    0.3919    0.2469 C   0  0  0  0  0  0  0  0  0  0  0  0
   -5.7780   -2.4019   -1.7684 H   0  0  0  0  0  0  0  0  0  0  0  0
   -4.1053   -2.1636   -2.3074 H   0  0  0  0  0  0  0  0  0  0  0  0
   -5.1374   -0.7635   -1.9867 H   0  0  0  0  0  0  0  0  0  0  0  0
   -5.2226   -1.3962    0.4597 H   0  0  0  0  0  0  0  0  0  0  0  0
   -4.2035   -2.7970    0.1253 H   0  0  0  0  0  0  0  0  0  0  0  0
   -1.7851   -2.5191   -0.1606 H   0  0  0  0  0  0  0  0  0  0  0  0
    0.6535   -1.5468    0.6746 H   0  0  0  0  0  0  0  0  0  0  0  0
    0.8903    1.2436   -0.5889 H   0  0  0  0  0  0  0  0  0  0  0  0
    2.6555   -1.9923   -0.7108 H   0  0  0  0  0  0  0  0  0  0  0  0
    5.1380   -2.2033   -0.6270 H   0  0  0  0  0  0  0  0  0  0  0  0
    7.1581   -0.6756    0.9782 H   0  0  0  0  0  0  0  0  0  0  0  0
    7.1890   -1.1289   -0.7638 H   0  0  0  0  0  0  0  0  0  0  0  0
    7.3662    0.5817   -0.2934 H   0  0  0  0  0  0  0  0  0  0  0  0
    5.5531    1.8067    0.4770 H   0  0  0  0  0  0  0  0  0  0  0  0
    3.0794    2.1404    0.4377 H   0  0  0  0  0  0  0  0  0  0  0  0
   -0.5776    2.4431    0.8643 H   0  0  0  0  0  0  0  0  0  0  0  0
   -2.4125    4.0857    1.0329 H   0  0  0  0  0  0  0  0  0  0  0  0
   -4.7566    3.3872    0.7061 H   0  0  0  0  0  0  0  0  0  0  0  0
   -5.3122    1.0254    0.2137 H   0  0  0  0  0  0  0  0  0  0  0  0
  1  2  1  0
  2  3  1  0
  3  4  1  0
  4  5  2  0
  5  6  1  0
  6  7  2  3
  7  8  1  0
  8  9  2  0
  9 10  1  0
 10 11  2  0
 11 12  1  0
 11 13  1  0
 13 14  2  0
  5 15  1  0
 15 16  2  0
 16 17  1  0
 17 18  2  0
 18 19  1  0
 19 20  2  0
 20  3  1  0
 14  8  1  0
 20 15  1  0
  1 21  1  0
  1 22  1  0
  1 23  1  0
  2 24  1  0
  2 25  1  0
  4 26  1  0
  6 27  1  0
  7 28  1  0
  9 29  1  0
 10 30  1  0
 12 31  1  0
 12 32  1  0
 12 33  1  0
 13 34  1  0
 14 35  1  0
 16 36  1  0
 17 37  1  0
 18 38  1  0
 19 39  1  0
M  CHG  1  11   1
M  END
$$$$
