
     RDKit          3D

 35 37  0  0  0  0  0  0  0  0999 V2000
    7.3436    0.2794   -0.0994 C   0  0  0  0  0  0  0  0  0  0  0  0
    6.1481    0.9472   -0.4828 O   0  0  0  0  0  0  0  0  0  0  0  0
    4.9680    0.3496   -0.1382 C   0  0  0  0  0  0  0  0  0  0  0  0
    3.8236    1.0424   -0.5376 C   0  0  0  0  0  0  0  0  0  0  0  0
    2.5484    0.5442   -0.2502 C   0  0  0  0  0  0  0  0  0  0  0  0
    2.3952   -0.6621    0.4457 C   0  0  0  0  0  0  0  0  0  0  0  0
    1.0815   -1.2073    0.7602 C   0  0  0  0  0  0  0  0  0  0  0  0
    0.7477   -2.3167    1.3916 N   0  0  0  0  0  0  0  0  0  0  0  0
   -0.6329   -2.3505    1.4156 N   0  0  0  0  0  0  0  0  0  0  0  0
   -1.0393   -1.2633    0.7974 C   0  0  0  0  0  0  0  0  0  0  0  0
   -2.3370   -0.8907    0.5975 N   0  0  0  0  0  0  0  0  0  0  0  0
   -2.6914    0.2343   -0.1062 C   0  0  0  0  0  0  0  0  0  0  0  0
   -1.9319    1.0128   -0.6701 O   0  0  0  0  0  0  0  0  0  0  0  0
   -4.1594    0.4813   -0.2034 C   0  0  0  0  0  0  0  0  0  0  0  0
   -5.0424    0.1367    0.8319 C   0  0  0  0  0  0  0  0  0  0  0  0
   -6.4095    0.3921    0.6937 C   0  0  0  0  0  0  0  0  0  0  0  0
   -6.8852    0.9947   -0.4666 C   0  0  0  0  0  0  0  0  0  0  0  0
   -8.1959    1.2374   -0.5921 F   0  0  0  0  0  0  0  0  0  0  0  0
   -6.0201    1.3561   -1.4927 C   0  0  0  0  0  0  0  0  0  0  0  0
   -4.6532    1.1043   -1.3599 C   0  0  0  0  0  0  0  0  0  0  0  0
   -0.0107   -0.4872    0.3581 O   0  0  0  0  0  0  0  0  0  0  0  0
    3.5500   -1.3520    0.8430 C   0  0  0  0  0  0  0  0  0  0  0  0
    4.8269   -0.8517    0.5544 C   0  0  0  0  0  0  0  0  0  0  0  0
    8.1889    0.8813   -0.4469 H   0  0  0  0  0  0  0  0  0  0  0  0
    7.4184    0.1981    0.9900 H   0  0  0  0  0  0  0  0  0  0  0  0
    7.4168   -0.7038   -0.5759 H   0  0  0  0  0  0  0  0  0  0  0  0
    3.9233    1.9806   -1.0789 H   0  0  0  0  0  0  0  0  0  0  0  0
    1.6786    1.1118   -0.5784 H   0  0  0  0  0  0  0  0  0  0  0  0
   -3.0213   -1.5455    0.9427 H   0  0  0  0  0  0  0  0  0  0  0  0
   -4.6860   -0.2991    1.7610 H   0  0  0  0  0  0  0  0  0  0  0  0
   -7.1064    0.1365    1.4864 H   0  0  0  0  0  0  0  0  0  0  0  0
   -6.4119    1.8346   -2.3850 H   0  0  0  0  0  0  0  0  0  0  0  0
   -3.9730    1.3940   -2.1595 H   0  0  0  0  0  0  0  0  0  0  0  0
    3.4637   -2.2929    1.3852 H   0  0  0  0  0  0  0  0  0  0  0  0
    5.6852   -1.4267    0.8857 H   0  0  0  0  0  0  0  0  0  0  0  0
  1  2  1  0
  2  3  1  0
  3  4  2  0
  4  5  1  0
  5  6  2  0
  6  7  1  0
  7  8  2  0
  8  9  1  0
  9 10  2  0
 10 11  1  0
 11 12  1  0
 12 13  2  0
 12 14  1  0
 14 15  2  0
 15 16  1  0
 16 17  2  0
 17 18  1  0
 17 19  1  0
 19 20  2  0
 10 21  1  0
  6 22  1  0
 22 23  2  0
 23  3  1  0
 21  7  1  0
 20 14  1  0
  1 24  1  0
  1 25  1  0
  1 26  1  0
  4 27  1  0
  5 28  1  0
 11 29  1  0
 15 30  1  0
 16 31  1  0
 19 32  1  0
 20 33  1  0
 22 34  1  0
 23 35  1  0
M  END
$$$$
