
     RDKit          3D

 43 45  0  0  0  0  0  0  0  0999 V2000
   -4.6976   -2.6905   -1.4425 C   0  0  0  0  0  0  0  0  0  0  0  0
   -3.4399   -2.0763   -1.6965 O   0  0  0  0  0  0  0  0  0  0  0  0
   -3.2837   -0.7841   -1.2813 C   0  0  0  0  0  0  0  0  0  0  0  0
   -4.2443   -0.0067   -0.6375 C   0  0  0  0  0  0  0  0  0  0  0  0
   -3.9549    1.3126   -0.2609 C   0  0  0  0  0  0  0  0  0  0  0  0
   -2.7024    1.8767   -0.5245 C   0  0  0  0  0  0  0  0  0  0  0  0
   -2.3475    3.1442   -0.1575 O   0  0  0  0  0  0  0  0  0  0  0  0
   -3.3945    4.0535    0.1583 C   0  0  0  0  0  0  0  0  0  0  0  0
   -1.7404    1.0845   -1.1620 C   0  0  0  0  0  0  0  0  0  0  0  0
   -0.1297    1.7306   -1.5284 S   0  0  0  0  0  6  0  0  0  0  0  0
   -0.3040    2.9788   -2.2426 O   0  0  0  0  0  0  0  0  0  0  0  0
    0.6757    0.6712   -2.1023 O   0  0  0  0  0  0  0  0  0  0  0  0
    0.5005    2.1188   -0.0086 N   0  0  0  0  0  0  0  0  0  0  0  0
    1.1643    1.1067    0.7332 C   0  0  0  0  0  0  0  0  0  0  0  0
    0.4325    0.1221    1.3928 C   0  0  0  0  0  0  0  0  0  0  0  0
    1.0998   -0.8867    2.0854 C   0  0  0  0  0  0  0  0  0  0  0  0
    2.4936   -0.9150    2.1028 C   0  0  0  0  0  0  0  0  0  0  0  0
    3.0602   -1.9502    2.7950 O   0  0  0  0  0  0  0  0  0  0  0  0
    3.2439    0.0700    1.4443 C   0  0  0  0  0  0  0  0  0  0  0  0
    5.0276    0.1669    1.5004 S   0  0  0  0  0  0  0  0  0  0  0  0
    5.4953   -1.2775    0.6526 C   0  0  0  0  0  0  0  0  0  0  0  0
    5.1412   -2.5292    1.0892 N   0  0  0  0  0  0  0  0  0  0  0  0
    5.6858   -3.3151    0.1891 C   0  0  0  0  0  0  0  0  0  0  0  0
    6.3490   -2.5636   -0.7296 N   0  0  0  0  0  0  0  0  0  0  0  0
    6.2591   -1.2563   -0.4418 N   0  0  0  0  0  0  0  0  0  0  0  0
    2.5607    1.0827    0.7553 C   0  0  0  0  0  0  0  0  0  0  0  0
   -2.0305   -0.2337   -1.5437 C   0  0  0  0  0  0  0  0  0  0  0  0
   -5.5046   -2.1696   -1.9686 H   0  0  0  0  0  0  0  0  0  0  0  0
   -4.6540   -3.7137   -1.8277 H   0  0  0  0  0  0  0  0  0  0  0  0
   -4.8985   -2.7481   -0.3674 H   0  0  0  0  0  0  0  0  0  0  0  0
   -5.2322   -0.3946   -0.4092 H   0  0  0  0  0  0  0  0  0  0  0  0
   -4.7333    1.8706    0.2508 H   0  0  0  0  0  0  0  0  0  0  0  0
   -4.1442    4.0945   -0.6391 H   0  0  0  0  0  0  0  0  0  0  0  0
   -3.8529    3.8003    1.1194 H   0  0  0  0  0  0  0  0  0  0  0  0
   -2.9534    5.0505    0.2530 H   0  0  0  0  0  0  0  0  0  0  0  0
    0.8815    3.0630   -0.0012 H   0  0  0  0  0  0  0  0  0  0  0  0
   -0.6529    0.1367    1.3918 H   0  0  0  0  0  0  0  0  0  0  0  0
    0.5367   -1.6561    2.6069 H   0  0  0  0  0  0  0  0  0  0  0  0
    3.9425   -2.1232    2.4030 H   0  0  0  0  0  0  0  0  0  0  0  0
    5.6369   -4.3943    0.1515 H   0  0  0  0  0  0  0  0  0  0  0  0
    6.8704   -2.8596   -1.5476 H   0  0  0  0  0  0  0  0  0  0  0  0
    3.1192    1.8516    0.2270 H   0  0  0  0  0  0  0  0  0  0  0  0
   -1.2811   -0.8422   -2.0471 H   0  0  0  0  0  0  0  0  0  0  0  0
  1  2  1  0
  2  3  1  0
  3  4  2  0
  4  5  1  0
  5  6  2  0
  6  7  1  0
  7  8  1  0
  6  9  1  0
  9 10  1  0
 10 11  2  0
 10 12  2  0
 10 13  1  0
 13 14  1  0
 14 15  2  0
 15 16  1  0
 16 17  2  0
 17 18  1  0
 17 19  1  0
 19 20  1  0
 20 21  1  0
 21 22  1  0
 22 23  2  0
 23 24  1  0
 24 25  1  0
 19 26  2  0
  9 27  2  0
 27  3  1  0
 26 14  1  0
 25 21  2  0
  1 28  1  0
  1 29  1  0
  1 30  1  0
  4 31  1  0
  5 32  1  0
  8 33  1  0
  8 34  1  0
  8 35  1  0
 13 36  1  0
 15 37  1  0
 16 38  1  0
 18 39  1  0
 23 40  1  0
 24 41  1  0
 26 42  1  0
 27 43  1  0
M  END
$$$$
