
     RDKit          3D

 56 58  0  0  0  0  0  0  0  0999 V2000
   -6.2541   -2.7276   -0.6991 C   0  0  0  0  0  0  0  0  0  0  0  0
   -6.4616   -1.3368   -1.2802 C   0  0  0  0  0  0  0  0  0  0  0  0
   -5.8576   -0.2959   -0.4320 N   0  0  0  0  0  0  0  0  0  0  0  0
   -6.7768    0.4068    0.4778 C   0  0  0  0  0  0  0  0  0  0  0  0
   -6.7026   -0.1526    1.8937 C   0  0  0  0  0  0  0  0  0  0  0  0
   -4.5029    0.0160   -0.4995 C   0  0  0  0  0  0  0  0  0  0  0  0
   -3.9185    1.0230    0.2907 C   0  0  0  0  0  0  0  0  0  0  0  0
   -2.5497    1.3340    0.2366 C   0  0  0  0  0  0  0  0  0  0  0  0
   -1.6997    0.6381   -0.6183 C   0  0  0  0  0  0  0  0  0  0  0  0
   -0.2658    0.9315   -0.7104 C   0  0  0  0  0  0  0  0  0  0  0  0
    0.5105    1.0733    0.3758 C   0  0  0  0  0  0  0  0  0  0  0  0
    1.9485    1.3365    0.2751 C   0  0  0  0  0  0  0  0  0  0  0  0
    2.3520    2.6341   -0.0401 C   0  0  0  0  0  0  0  0  0  0  0  0
    3.6970    2.9363   -0.1388 C   0  0  0  0  0  0  0  0  0  0  0  0
    4.6377    1.9350    0.0682 C   0  0  0  0  0  0  0  0  0  0  0  0
    6.0037    2.2345   -0.0390 C   0  0  0  0  0  0  0  0  0  0  0  0
    6.9701    1.2465    0.1498 C   0  0  0  0  0  0  0  0  0  0  0  0
    6.5792   -0.0528    0.4481 C   0  0  0  0  0  0  0  0  0  0  0  0
    7.4098   -1.1179    0.6541 O   0  0  0  0  0  0  0  0  0  0  0  0
    8.8119   -0.8757    0.5806 C   0  0  0  0  0  0  0  0  0  0  0  0
    5.2162   -0.3587    0.5592 C   0  0  0  0  0  0  0  0  0  0  0  0
    4.2151    0.6142    0.3826 C   0  0  0  0  0  0  0  0  0  0  0  0
    2.8676    0.3477    0.4911 N   0  0  0  0  0  4  0  0  0  0  0  0
    2.3925   -1.0255    0.8415 C   0  0  0  0  0  0  0  0  0  0  0  0
    2.2780   -1.8709   -0.4119 C   0  0  0  0  0  0  0  0  0  0  0  0
   -2.2501   -0.3455   -1.4362 C   0  0  0  0  0  0  0  0  0  0  0  0
   -3.6199   -0.6488   -1.3691 C   0  0  0  0  0  0  0  0  0  0  0  0
   -5.1974   -2.9452   -0.5129 H   0  0  0  0  0  0  0  0  0  0  0  0
   -6.7859   -2.8412    0.2505 H   0  0  0  0  0  0  0  0  0  0  0  0
   -6.6427   -3.4835   -1.3893 H   0  0  0  0  0  0  0  0  0  0  0  0
   -7.5420   -1.1712   -1.3812 H   0  0  0  0  0  0  0  0  0  0  0  0
   -6.0831   -1.2796   -2.3060 H   0  0  0  0  0  0  0  0  0  0  0  0
   -6.5913    1.4899    0.4733 H   0  0  0  0  0  0  0  0  0  0  0  0
   -7.8120    0.3044    0.1252 H   0  0  0  0  0  0  0  0  0  0  0  0
   -5.7004   -0.0517    2.3218 H   0  0  0  0  0  0  0  0  0  0  0  0
   -7.3991    0.3835    2.5461 H   0  0  0  0  0  0  0  0  0  0  0  0
   -6.9700   -1.2132    1.9180 H   0  0  0  0  0  0  0  0  0  0  0  0
   -4.5187    1.6080    0.9807 H   0  0  0  0  0  0  0  0  0  0  0  0
   -2.1788    2.1350    0.8692 H   0  0  0  0  0  0  0  0  0  0  0  0
    0.1361    0.9934   -1.7217 H   0  0  0  0  0  0  0  0  0  0  0  0
    0.1048    0.9931    1.3817 H   0  0  0  0  0  0  0  0  0  0  0  0
    1.6148    3.4188   -0.2049 H   0  0  0  0  0  0  0  0  0  0  0  0
    3.9990    3.9549   -0.3848 H   0  0  0  0  0  0  0  0  0  0  0  0
    6.3374    3.2463   -0.2744 H   0  0  0  0  0  0  0  0  0  0  0  0
    8.0168    1.5259    0.0533 H   0  0  0  0  0  0  0  0  0  0  0  0
    9.1030   -0.5493   -0.4232 H   0  0  0  0  0  0  0  0  0  0  0  0
    9.3247   -1.8198    0.7874 H   0  0  0  0  0  0  0  0  0  0  0  0
    9.1251   -0.1511    1.3385 H   0  0  0  0  0  0  0  0  0  0  0  0
    4.9841   -1.3959    0.7801 H   0  0  0  0  0  0  0  0  0  0  0  0
    3.0767   -1.4607    1.5744 H   0  0  0  0  0  0  0  0  0  0  0  0
    1.4331   -0.9646    1.3612 H   0  0  0  0  0  0  0  0  0  0  0  0
    1.5713   -1.4364   -1.1218 H   0  0  0  0  0  0  0  0  0  0  0  0
    3.2399   -1.9679   -0.9240 H   0  0  0  0  0  0  0  0  0  0  0  0
    1.9291   -2.8760   -0.1559 H   0  0  0  0  0  0  0  0  0  0  0  0
   -1.6323   -0.9061   -2.1330 H   0  0  0  0  0  0  0  0  0  0  0  0
   -3.9729   -1.4386   -2.0289 H   0  0  0  0  0  0  0  0  0  0  0  0
  1  2  1  0
  2  3  1  0
  3  4  1  0
  4  5  1  0
  3  6  1  0
  6  7  2  0
  7  8  1  0
  8  9  2  0
  9 10  1  0
 10 11  2  3
 11 12  1  0
 12 13  2  0
 13 14  1  0
 14 15  2  0
 15 16  1  0
 16 17  2  0
 17 18  1  0
 18 19  1  0
 19 20  1  0
 18 21  2  0
 21 22  1  0
 22 23  2  0
 23 24  1  0
 24 25  1  0
  9 26  1  0
 26 27  2  0
 27  6  1  0
 23 12  1  0
 22 15  1  0
  1 28  1  0
  1 29  1  0
  1 30  1  0
  2 31  1  0
  2 32  1  0
  4 33  1  0
  4 34  1  0
  5 35  1  0
  5 36  1  0
  5 37  1  0
  7 38  1  0
  8 39  1  0
 10 40  1  0
 11 41  1  0
 13 42  1  0
 14 43  1  0
 16 44  1  0
 17 45  1  0
 20 46  1  0
 20 47  1  0
 20 48  1  0
 21 49  1  0
 24 50  1  0
 24 51  1  0
 25 52  1  0
 25 53  1  0
 25 54  1  0
 26 55  1  0
 27 56  1  0
M  CHG  1  23   1
M  END
$$$$
