
     RDKit          3D

 48 51  0  0  0  0  0  0  0  0999 V2000
    2.1234   -0.6314   -2.5483 C   0  0  0  0  0  0  0  0  0  0  0  0
    1.9041    0.4472   -1.4930 C   0  0  0  0  0  0  0  0  0  0  0  0
    2.3689    0.0381   -0.1595 N   0  0  0  0  0  0  0  0  0  0  0  0
    1.6622   -0.7687    0.7428 C   0  0  0  0  0  0  0  0  0  0  0  0
    0.3743   -0.7116    1.1383 C   0  0  0  0  0  0  0  0  0  0  0  0
   -0.6402    0.2979    0.8043 C   0  0  0  0  0  0  0  0  0  0  0  0
   -0.3049    1.6519    0.8489 C   0  0  0  0  0  0  0  0  0  0  0  0
   -1.2708    2.6119    0.6224 C   0  0  0  0  0  0  0  0  0  0  0  0
   -2.6000    2.2252    0.5285 C   0  0  0  0  0  0  0  0  0  0  0  0
   -3.5796    3.2146    0.3833 C   0  0  0  0  0  0  0  0  0  0  0  0
   -4.9259    2.8791    0.3950 C   0  0  0  0  0  0  0  0  0  0  0  0
   -5.3000    1.5634    0.6329 C   0  0  0  0  0  0  0  0  0  0  0  0
   -4.3348    0.5498    0.8090 C   0  0  0  0  0  0  0  0  0  0  0  0
   -4.8816   -0.7640    1.3140 C   0  0  0  0  0  0  0  0  0  0  0  0
   -2.9578    0.8462    0.6265 C   0  0  0  0  0  0  0  0  0  0  0  0
   -1.9371   -0.0810    0.5733 N   0  0  0  0  0  4  0  0  0  0  0  0
   -2.1874   -1.4604    0.0387 C   0  0  0  0  0  0  0  0  0  0  0  0
   -1.4995   -1.6654   -1.3031 C   0  0  0  0  0  0  0  0  0  0  0  0
    2.6756   -1.9635    1.6096 S   0  0  0  0  0  0  0  0  0  0  0  0
    4.1158   -1.2146    0.8718 C   0  0  0  0  0  0  0  0  0  0  0  0
    5.4350   -1.5730    1.1139 C   0  0  0  0  0  0  0  0  0  0  0  0
    6.4439   -0.8862    0.4401 C   0  0  0  0  0  0  0  0  0  0  0  0
    6.1236    0.1413   -0.4558 C   0  0  0  0  0  0  0  0  0  0  0  0
    4.7893    0.4937   -0.6945 C   0  0  0  0  0  0  0  0  0  0  0  0
    3.7708   -0.1924   -0.0376 C   0  0  0  0  0  0  0  0  0  0  0  0
    1.6366   -1.5692   -2.2682 H   0  0  0  0  0  0  0  0  0  0  0  0
    3.1849   -0.8453   -2.7023 H   0  0  0  0  0  0  0  0  0  0  0  0
    1.7134   -0.3076   -3.5083 H   0  0  0  0  0  0  0  0  0  0  0  0
    0.8342    0.6731   -1.4690 H   0  0  0  0  0  0  0  0  0  0  0  0
    2.3860    1.3829   -1.7996 H   0  0  0  0  0  0  0  0  0  0  0  0
    0.0317   -1.4269    1.8842 H   0  0  0  0  0  0  0  0  0  0  0  0
    0.7206    1.9668    1.0406 H   0  0  0  0  0  0  0  0  0  0  0  0
   -0.9832    3.6625    0.6020 H   0  0  0  0  0  0  0  0  0  0  0  0
   -3.3073    4.2641    0.2722 H   0  0  0  0  0  0  0  0  0  0  0  0
   -5.6847    3.6521    0.2813 H   0  0  0  0  0  0  0  0  0  0  0  0
   -6.3634    1.3371    0.7301 H   0  0  0  0  0  0  0  0  0  0  0  0
   -5.2690   -1.3671    0.4873 H   0  0  0  0  0  0  0  0  0  0  0  0
   -4.1269   -1.3242    1.8736 H   0  0  0  0  0  0  0  0  0  0  0  0
   -5.7004   -0.5885    2.0213 H   0  0  0  0  0  0  0  0  0  0  0  0
   -1.8862   -2.1891    0.7959 H   0  0  0  0  0  0  0  0  0  0  0  0
   -3.2440   -1.5965   -0.1636 H   0  0  0  0  0  0  0  0  0  0  0  0
   -1.8764   -2.5755   -1.7810 H   0  0  0  0  0  0  0  0  0  0  0  0
   -0.4216   -1.7871   -1.1961 H   0  0  0  0  0  0  0  0  0  0  0  0
   -1.6833   -0.8226   -1.9758 H   0  0  0  0  0  0  0  0  0  0  0  0
    5.6813   -2.3685    1.8096 H   0  0  0  0  0  0  0  0  0  0  0  0
    7.4865   -1.1469    0.6126 H   0  0  0  0  0  0  0  0  0  0  0  0
    6.9226    0.6740   -0.9677 H   0  0  0  0  0  0  0  0  0  0  0  0
    4.5812    1.3073   -1.3805 H   0  0  0  0  0  0  0  0  0  0  0  0
  1  2  1  0
  2  3  1  0
  3  4  1  0
  4  5  2  3
  5  6  1  0
  6  7  2  0
  7  8  1  0
  8  9  2  0
  9 10  1  0
 10 11  2  0
 11 12  1  0
 12 13  2  0
 13 14  1  0
 13 15  1  0
 15 16  2  0
 16 17  1  0
 17 18  1  0
  4 19  1  0
 19 20  1  0
 20 21  2  0
 21 22  1  0
 22 23  2  0
 23 24  1  0
 24 25  2  0
 25  3  1  0
 16  6  1  0
 25 20  1  0
 15  9  1  0
  1 26  1  0
  1 27  1  0
  1 28  1  0
  2 29  1  0
  2 30  1  0
  5 31  1  0
  7 32  1  0
  8 33  1  0
 10 34  1  0
 11 35  1  0
 12 36  1  0
 14 37  1  0
 14 38  1  0
 14 39  1  0
 17 40  1  0
 17 41  1  0
 18 42  1  0
 18 43  1  0
 18 44  1  0
 21 45  1  0
 22 46  1  0
 23 47  1  0
 24 48  1  0
M  CHG  1  16   1
M  END
$$$$
