
     RDKit          3D

 42 44  0  0  0  0  0  0  0  0999 V2000
   -4.7406    1.0735    0.6993 C   0  0  0  0  0  0  0  0  0  0  0  0
   -3.8169    0.8261   -0.4572 C   0  0  0  0  0  0  0  0  0  0  0  0
   -4.2477    1.0598   -1.7632 C   0  0  0  0  0  0  0  0  0  0  0  0
   -3.4005    0.8511   -2.8557 C   0  0  0  0  0  0  0  0  0  0  0  0
   -2.0885    0.4128   -2.6106 C   0  0  0  0  0  0  0  0  0  0  0  0
   -1.6094    0.2068   -1.3153 C   0  0  0  0  0  0  0  0  0  0  0  0
   -2.4951    0.4099   -0.2308 C   0  0  0  0  0  0  0  0  0  0  0  0
   -0.2436   -0.1967   -1.4348 C   0  0  0  0  0  0  0  0  0  0  0  0
    0.6770   -0.5137   -0.3870 C   0  0  0  0  0  0  0  0  0  0  0  0
    0.8183    0.1970    0.7446 C   0  0  0  0  0  0  0  0  0  0  0  0
    1.7658   -0.1278    1.8158 C   0  0  0  0  0  0  0  0  0  0  0  0
    1.3887    0.0882    3.1402 C   0  0  0  0  0  0  0  0  0  0  0  0
    2.2829   -0.1897    4.1679 C   0  0  0  0  0  0  0  0  0  0  0  0
    3.5233   -0.6514    3.8945 N   0  0  0  0  0  4  0  0  0  0  0  0
    4.4501   -0.9491    4.9996 C   0  0  0  0  0  0  0  0  0  0  0  0
    3.9157   -0.8597    2.6181 C   0  0  0  0  0  0  0  0  0  0  0  0
    3.0532   -0.5970    1.5595 C   0  0  0  0  0  0  0  0  0  0  0  0
    0.0758   -0.2551   -2.7817 C   0  0  0  0  0  0  0  0  0  0  0  0
    1.3559   -0.6038   -3.4634 C   0  0  0  0  0  0  0  0  0  0  0  0
   -1.0605    0.1031   -3.4810 N   0  0  0  0  0  0  0  0  0  0  0  0
   -1.1775    0.1596   -4.9249 C   0  0  0  0  0  0  0  0  0  0  0  0
   -5.7807    0.8779    0.4180 H   0  0  0  0  0  0  0  0  0  0  0  0
   -4.5020    0.4115    1.5383 H   0  0  0  0  0  0  0  0  0  0  0  0
   -4.6529    2.1123    1.0322 H   0  0  0  0  0  0  0  0  0  0  0  0
   -5.2643    1.4025   -1.9490 H   0  0  0  0  0  0  0  0  0  0  0  0
   -3.7635    1.0258   -3.8637 H   0  0  0  0  0  0  0  0  0  0  0  0
   -2.1533    0.2336    0.7839 H   0  0  0  0  0  0  0  0  0  0  0  0
    1.2995   -1.3879   -0.5604 H   0  0  0  0  0  0  0  0  0  0  0  0
    0.1982    1.0780    0.9048 H   0  0  0  0  0  0  0  0  0  0  0  0
    0.3951    0.4629    3.3811 H   0  0  0  0  0  0  0  0  0  0  0  0
    2.0149   -0.0457    5.2108 H   0  0  0  0  0  0  0  0  0  0  0  0
    4.2355   -0.2808    5.8376 H   0  0  0  0  0  0  0  0  0  0  0  0
    4.2951   -1.9928    5.2840 H   0  0  0  0  0  0  0  0  0  0  0  0
    5.4763   -0.7855    4.6608 H   0  0  0  0  0  0  0  0  0  0  0  0
    4.9225   -1.2332    2.4530 H   0  0  0  0  0  0  0  0  0  0  0  0
    3.3997   -0.7521    0.5396 H   0  0  0  0  0  0  0  0  0  0  0  0
    2.1919   -0.6416   -2.7585 H   0  0  0  0  0  0  0  0  0  0  0  0
    1.2761   -1.5844   -3.9433 H   0  0  0  0  0  0  0  0  0  0  0  0
    1.6090    0.1412   -4.2247 H   0  0  0  0  0  0  0  0  0  0  0  0
   -0.4779   -0.5440   -5.3812 H   0  0  0  0  0  0  0  0  0  0  0  0
   -2.1909   -0.1231   -5.2195 H   0  0  0  0  0  0  0  0  0  0  0  0
   -0.9547    1.1814   -5.2416 H   0  0  0  0  0  0  0  0  0  0  0  0
  1  2  1  0
  2  3  2  0
  3  4  1  0
  4  5  2  0
  5  6  1  0
  6  7  2  0
  6  8  1  0
  8  9  1  0
  9 10  2  3
 10 11  1  0
 11 12  2  0
 12 13  1  0
 13 14  2  0
 14 15  1  0
 14 16  1  0
 16 17  2  0
  8 18  2  0
 18 19  1  0
 18 20  1  0
 20 21  1  0
  7  2  1  0
 17 11  1  0
 20  5  1  0
  1 22  1  0
  1 23  1  0
  1 24  1  0
  3 25  1  0
  4 26  1  0
  7 27  1  0
  9 28  1  0
 10 29  1  0
 12 30  1  0
 13 31  1  0
 15 32  1  0
 15 33  1  0
 15 34  1  0
 16 35  1  0
 17 36  1  0
 19 37  1  0
 19 38  1  0
 19 39  1  0
 21 40  1  0
 21 41  1  0
 21 42  1  0
M  CHG  1  14   1
M  END
$$$$
