
     RDKit          3D

 60 63  0  0  0  0  0  0  0  0999 V2000
    7.9242   -1.5519   -0.9586 C   0  0  0  0  0  0  0  0  0  0  0  0
    7.4164   -1.0960    0.3982 C   0  0  0  0  0  0  0  0  0  0  0  0
    6.0989   -0.5579    0.2911 O   0  0  0  0  0  0  0  0  0  0  0  0
    5.9291    0.7762    0.0344 C   0  0  0  0  0  0  0  0  0  0  0  0
    6.9644    1.6697   -0.2617 C   0  0  0  0  0  0  0  0  0  0  0  0
    6.6924    3.0184   -0.5164 C   0  0  0  0  0  0  0  0  0  0  0  0
    5.3837    3.4910   -0.4820 C   0  0  0  0  0  0  0  0  0  0  0  0
    4.3405    2.6144   -0.1948 C   0  0  0  0  0  0  0  0  0  0  0  0
    4.6093    1.2622    0.0611 C   0  0  0  0  0  0  0  0  0  0  0  0
    3.4840    0.3480    0.3625 C   0  0  0  0  0  0  0  0  0  0  0  0
    2.2556    0.7638    0.3940 N   0  0  0  0  0  0  0  0  0  0  0  0
    1.3274   -0.1911    0.6853 N   0  0  0  0  0  0  0  0  0  0  0  0
   -0.0226    0.1224    0.7477 C   0  0  0  0  0  0  0  0  0  0  0  0
   -0.4986    1.2382    0.5609 O   0  0  0  0  0  0  0  0  0  0  0  0
   -0.8438   -1.0417    1.0724 C   0  0  0  0  0  0  0  0  0  0  0  0
   -0.2881   -2.2665    1.3319 N   0  0  0  0  0  0  0  0  0  0  0  0
   -1.2639   -3.1194    1.5800 N   0  0  0  0  0  0  0  0  0  0  0  0
   -2.4645   -2.4627    1.5254 N   0  0  0  0  0  0  0  0  0  0  0  0
   -3.6757   -3.1378    1.8333 C   0  0  0  0  0  0  0  0  0  0  0  0
   -4.8465   -2.5010    1.8665 N   0  0  0  0  0  0  0  0  0  0  0  0
   -5.7686   -3.4915    2.1929 O   0  0  0  0  0  0  0  0  0  0  0  0
   -5.1454   -4.7204    2.3774 N   0  0  0  0  0  0  0  0  0  0  0  0
   -3.8490   -4.4967    2.1659 C   0  0  0  0  0  0  0  0  0  0  0  0
   -2.8938   -5.4405    2.2647 N   0  0  0  0  0  0  0  0  0  0  0  0
   -2.2256   -1.1405    1.1526 C   0  0  0  0  0  0  0  0  0  0  0  0
   -3.2836   -0.1247    0.8959 C   0  0  0  0  0  0  0  0  0  0  0  0
   -3.9534   -0.3958   -0.3831 N   0  0  0  0  0  0  0  0  0  0  0  0
   -5.3049    0.1842   -0.4264 C   0  0  0  0  0  0  0  0  0  0  0  0
   -5.3254    1.7072   -0.5751 C   0  0  0  0  0  0  0  0  0  0  0  0
   -4.5397    2.1483   -1.8143 C   0  0  0  0  0  0  0  0  0  0  0  0
   -4.4812    3.6702   -1.9134 C   0  0  0  0  0  0  0  0  0  0  0  0
   -3.1322    1.5443   -1.7845 C   0  0  0  0  0  0  0  0  0  0  0  0
   -3.1758    0.0292   -1.5592 C   0  0  0  0  0  0  0  0  0  0  0  0
    8.0201   -0.7128   -1.6540 H   0  0  0  0  0  0  0  0  0  0  0  0
    7.2214   -2.2590   -1.4117 H   0  0  0  0  0  0  0  0  0  0  0  0
    8.8990   -2.0385   -0.8633 H   0  0  0  0  0  0  0  0  0  0  0  0
    8.1108   -0.4150    0.9017 H   0  0  0  0  0  0  0  0  0  0  0  0
    7.3372   -1.9748    1.0483 H   0  0  0  0  0  0  0  0  0  0  0  0
    8.0007    1.3541   -0.3133 H   0  0  0  0  0  0  0  0  0  0  0  0
    7.5074    3.7013   -0.7457 H   0  0  0  0  0  0  0  0  0  0  0  0
    5.1734    4.5387   -0.6812 H   0  0  0  0  0  0  0  0  0  0  0  0
    3.3185    2.9884   -0.1724 H   0  0  0  0  0  0  0  0  0  0  0  0
    3.7306   -0.7100    0.5610 H   0  0  0  0  0  0  0  0  0  0  0  0
    1.6168   -1.1484    0.8640 H   0  0  0  0  0  0  0  0  0  0  0  0
   -1.9457   -5.2707    1.9331 H   0  0  0  0  0  0  0  0  0  0  0  0
   -3.1630   -6.4171    2.3118 H   0  0  0  0  0  0  0  0  0  0  0  0
   -2.8806    0.8915    0.9330 H   0  0  0  0  0  0  0  0  0  0  0  0
   -3.9949   -0.1559    1.7300 H   0  0  0  0  0  0  0  0  0  0  0  0
   -5.8439   -0.2630   -1.2722 H   0  0  0  0  0  0  0  0  0  0  0  0
   -5.8767   -0.1066    0.4631 H   0  0  0  0  0  0  0  0  0  0  0  0
   -6.3649    2.0476   -0.6553 H   0  0  0  0  0  0  0  0  0  0  0  0
   -4.9099    2.1762    0.3257 H   0  0  0  0  0  0  0  0  0  0  0  0
   -5.0589    1.7707   -2.7055 H   0  0  0  0  0  0  0  0  0  0  0  0
   -3.9388    3.9803   -2.8123 H   0  0  0  0  0  0  0  0  0  0  0  0
   -3.9760    4.1072   -1.0455 H   0  0  0  0  0  0  0  0  0  0  0  0
   -5.4894    4.0946   -1.9667 H   0  0  0  0  0  0  0  0  0  0  0  0
   -2.6216    1.7513   -2.7330 H   0  0  0  0  0  0  0  0  0  0  0  0
   -2.5361    2.0254   -1.0010 H   0  0  0  0  0  0  0  0  0  0  0  0
   -2.1547   -0.3661   -1.5188 H   0  0  0  0  0  0  0  0  0  0  0  0
   -3.6243   -0.4407   -2.4447 H   0  0  0  0  0  0  0  0  0  0  0  0
  1  2  1  0
  2  3  1  0
  3  4  1  0
  4  5  2  0
  5  6  1  0
  6  7  2  0
  7  8  1  0
  8  9  2  0
  9 10  1  0
 10 11  2  3
 11 12  1  0
 12 13  1  0
 13 14  2  0
 13 15  1  0
 15 16  1  0
 16 17  2  0
 17 18  1  0
 18 19  1  0
 19 20  2  0
 20 21  1  0
 21 22  1  0
 22 23  2  0
 23 24  1  0
 18 25  1  0
 25 26  1  0
 26 27  1  0
 27 28  1  0
 28 29  1  0
 29 30  1  0
 30 31  1  0
 30 32  1  0
 32 33  1  0
  9  4  1  0
 25 15  2  0
 33 27  1  0
 23 19  1  0
  1 34  1  0
  1 35  1  0
  1 36  1  0
  2 37  1  0
  2 38  1  0
  5 39  1  0
  6 40  1  0
  7 41  1  0
  8 42  1  0
 10 43  1  0
 12 44  1  0
 24 45  1  0
 24 46  1  0
 26 47  1  0
 26 48  1  0
 28 49  1  0
 28 50  1  0
 29 51  1  0
 29 52  1  0
 30 53  1  0
 31 54  1  0
 31 55  1  0
 31 56  1  0
 32 57  1  0
 32 58  1  0
 33 59  1  0
 33 60  1  0
M  END
$$$$
