
     RDKit          3D

 67 72  0  0  0  0  0  0  0  0999 V2000
    3.5823   -2.0473   -0.3522 O   0  0  0  0  0  0  0  0  0  0  0  0
    3.1305   -0.9009   -0.4521 C   0  0  0  0  0  0  0  0  0  0  0  0
    4.0301    0.2666   -0.9008 C   0  0  0  0  0  0  0  0  0  0  0  0
    5.5019    0.0564   -0.4945 C   0  0  0  0  0  0  0  0  0  0  0  0
    5.7813    0.0078    0.9939 C   0  0  0  0  0  0  0  0  0  0  0  0
    5.8930    1.1840    1.7467 C   0  0  0  0  0  0  0  0  0  0  0  0
    6.1593    1.1302    3.1182 C   0  0  0  0  0  0  0  0  0  0  0  0
    6.3178   -0.0994    3.7508 C   0  0  0  0  0  0  0  0  0  0  0  0
    6.2102   -1.2766    3.0134 C   0  0  0  0  0  0  0  0  0  0  0  0
    5.9439   -1.2237    1.6431 C   0  0  0  0  0  0  0  0  0  0  0  0
    3.5472    1.5649   -0.4448 N   0  0  0  0  0  0  0  0  0  0  0  0
    2.1840    1.7676   -0.6292 C   0  0  0  0  0  0  0  0  0  0  0  0
    1.8547    3.0411   -0.8921 N   0  0  0  0  0  0  0  0  0  0  0  0
    0.5522    3.2996   -0.9798 C   0  0  0  0  0  0  0  0  0  0  0  0
   -0.4308    2.4141   -0.8092 N   0  0  0  0  0  0  0  0  0  0  0  0
   -0.0800    1.1364   -0.5279 C   0  0  0  0  0  0  0  0  0  0  0  0
   -1.1485    0.2540   -0.2521 N   0  0  0  0  0  0  0  0  0  0  0  0
   -2.1802    0.2907   -1.3252 C   0  0  0  0  0  0  0  0  0  0  0  0
   -3.4141    1.1526   -0.9708 C   0  0  0  0  0  0  0  0  0  0  0  0
   -4.0526    0.6858    0.2771 N   0  0  0  0  0  0  0  0  0  0  0  0
   -5.3327    1.0877    0.6329 C   0  0  0  0  0  0  0  0  0  0  0  0
   -6.0044    2.1303   -0.0286 C   0  0  0  0  0  0  0  0  0  0  0  0
   -7.2952    2.5394    0.3352 C   0  0  0  0  0  0  0  0  0  0  0  0
   -7.9580    1.9046    1.3788 C   0  0  0  0  0  0  0  0  0  0  0  0
   -7.3287    0.8621    2.0480 C   0  0  0  0  0  0  0  0  0  0  0  0
   -6.0395    0.4594    1.6728 C   0  0  0  0  0  0  0  0  0  0  0  0
   -3.1496    0.0665    1.2676 C   0  0  0  0  0  0  0  0  0  0  0  0
   -1.6996    0.5717    1.0967 C   0  0  0  0  0  0  0  0  0  0  0  0
    1.2627    0.7258   -0.4724 C   0  0  0  0  0  0  0  0  0  0  0  0
    1.7629   -0.6196   -0.3014 N   0  0  0  0  0  0  0  0  0  0  0  0
    0.8868   -1.7566   -0.0506 C   0  0  0  0  0  0  0  0  0  0  0  0
    0.2778   -2.4190   -1.2773 C   0  0  0  0  0  0  0  0  0  0  0  0
   -0.6175   -3.4860   -1.0789 C   0  0  0  0  0  0  0  0  0  0  0  0
   -1.1841   -4.1609   -2.1642 C   0  0  0  0  0  0  0  0  0  0  0  0
   -0.8578   -3.7782   -3.4618 C   0  0  0  0  0  0  0  0  0  0  0  0
   -1.5420   -4.6226   -4.7981 Cl  0  0  0  0  0  0  0  0  0  0  0  0
    0.0233   -2.7207   -3.6841 C   0  0  0  0  0  0  0  0  0  0  0  0
    0.5886   -2.0446   -2.5958 C   0  0  0  0  0  0  0  0  0  0  0  0
    3.9955    0.2590   -2.0004 H   0  0  0  0  0  0  0  0  0  0  0  0
    6.1153    0.8603   -0.9241 H   0  0  0  0  0  0  0  0  0  0  0  0
    5.8748   -0.8679   -0.9540 H   0  0  0  0  0  0  0  0  0  0  0  0
    5.7709    2.1535    1.2734 H   0  0  0  0  0  0  0  0  0  0  0  0
    6.2405    2.0506    3.6924 H   0  0  0  0  0  0  0  0  0  0  0  0
    6.5240   -0.1400    4.8186 H   0  0  0  0  0  0  0  0  0  0  0  0
    6.3330   -2.2401    3.4996 H   0  0  0  0  0  0  0  0  0  0  0  0
    5.8610   -2.1568    1.0863 H   0  0  0  0  0  0  0  0  0  0  0  0
    4.0473    2.3857   -0.7728 H   0  0  0  0  0  0  0  0  0  0  0  0
    0.2643    4.3207   -1.2031 H   0  0  0  0  0  0  0  0  0  0  0  0
   -2.5154   -0.7436   -1.4766 H   0  0  0  0  0  0  0  0  0  0  0  0
   -1.7591    0.6063   -2.2888 H   0  0  0  0  0  0  0  0  0  0  0  0
   -4.1202    1.0711   -1.8053 H   0  0  0  0  0  0  0  0  0  0  0  0
   -3.1278    2.2054   -0.8663 H   0  0  0  0  0  0  0  0  0  0  0  0
   -5.5237    2.6740   -0.8352 H   0  0  0  0  0  0  0  0  0  0  0  0
   -7.7742    3.3604   -0.1945 H   0  0  0  0  0  0  0  0  0  0  0  0
   -8.9601    2.2193    1.6679 H   0  0  0  0  0  0  0  0  0  0  0  0
   -7.8388    0.3498    2.8611 H   0  0  0  0  0  0  0  0  0  0  0  0
   -5.6022   -0.3791    2.2089 H   0  0  0  0  0  0  0  0  0  0  0  0
   -3.4495    0.3057    2.2937 H   0  0  0  0  0  0  0  0  0  0  0  0
   -3.1842   -1.0229    1.1454 H   0  0  0  0  0  0  0  0  0  0  0  0
   -1.0666    0.1019    1.8595 H   0  0  0  0  0  0  0  0  0  0  0  0
   -1.6955    1.6537    1.2945 H   0  0  0  0  0  0  0  0  0  0  0  0
    0.1261   -1.4927    0.6849 H   0  0  0  0  0  0  0  0  0  0  0  0
    1.4710   -2.5351    0.4582 H   0  0  0  0  0  0  0  0  0  0  0  0
   -0.8754   -3.8041   -0.0704 H   0  0  0  0  0  0  0  0  0  0  0  0
   -1.8715   -4.9850   -1.9874 H   0  0  0  0  0  0  0  0  0  0  0  0
    0.2824   -2.4248   -4.7002 H   0  0  0  0  0  0  0  0  0  0  0  0
    1.2828   -1.2285   -2.7966 H   0  0  0  0  0  0  0  0  0  0  0  0
  1  2  2  0
  2  3  1  0
  3  4  1  0
  4  5  1  0
  5  6  2  0
  6  7  1  0
  7  8  2  0
  8  9  1  0
  9 10  2  0
  3 11  1  0
 11 12  1  0
 12 13  2  0
 13 14  1  0
 14 15  2  0
 15 16  1  0
 16 17  1  0
 17 18  1  0
 18 19  1  0
 19 20  1  0
 20 21  1  0
 21 22  2  0
 22 23  1  0
 23 24  2  0
 24 25  1  0
 25 26  2  0
 20 27  1  0
 27 28  1  0
 16 29  2  0
 29 30  1  0
 30 31  1  0
 31 32  1  0
 32 33  2  0
 33 34  1  0
 34 35  2  0
 35 36  1  0
 35 37  1  0
 37 38  2  0
 30  2  1  0
 38 32  1  0
 10  5  1  0
 29 12  1  0
 28 17  1  0
 26 21  1  0
  3 39  1  0
  4 40  1  0
  4 41  1  0
  6 42  1  0
  7 43  1  0
  8 44  1  0
  9 45  1  0
 10 46  1  0
 11 47  1  0
 14 48  1  0
 18 49  1  0
 18 50  1  0
 19 51  1  0
 19 52  1  0
 22 53  1  0
 23 54  1  0
 24 55  1  0
 25 56  1  0
 26 57  1  0
 27 58  1  0
 27 59  1  0
 28 60  1  0
 28 61  1  0
 31 62  1  0
 31 63  1  0
 33 64  1  0
 34 65  1  0
 37 66  1  0
 38 67  1  0
M  END
$$$$
