
     RDKit          3D

 50 53  0  0  0  0  0  0  0  0999 V2000
   -4.8602   -2.2828    5.3533 C   0  0  0  0  0  0  0  0  0  0  0  0
   -4.1917   -1.7204    4.1343 C   0  0  0  0  0  0  0  0  0  0  0  0
   -4.5921   -2.1179    2.8547 C   0  0  0  0  0  0  0  0  0  0  0  0
   -3.9898   -1.5733    1.7134 C   0  0  0  0  0  0  0  0  0  0  0  0
   -2.9904   -0.6022    1.8355 C   0  0  0  0  0  0  0  0  0  0  0  0
   -2.3398   -0.0236    0.7015 N   0  0  0  0  0  0  0  0  0  0  0  0
   -1.1465    0.6046    0.8869 N   0  0  0  0  0  0  0  0  0  0  0  0
   -0.6766    0.8235   -0.3429 C   0  0  0  0  0  0  0  0  0  0  0  0
    0.6171    1.3973   -0.6855 C   0  0  0  0  0  0  0  0  0  0  0  0
    1.4669    1.7259    0.1410 O   0  0  0  0  0  0  0  0  0  0  0  0
    0.7911    1.5510   -2.0746 N   0  0  0  0  0  0  0  0  0  0  0  0
    2.0724    2.0469   -2.5467 C   0  0  0  0  0  0  0  0  0  0  0  0
    3.1258    0.9360   -2.5248 C   0  0  0  0  0  0  0  0  0  0  0  0
    2.8585   -0.2617   -2.4612 O   0  0  0  0  0  0  0  0  0  0  0  0
    4.4223    1.4075   -2.6322 N   0  0  0  0  0  0  0  0  0  0  0  0
    5.5552    0.5226   -2.4671 C   0  0  0  0  0  0  0  0  0  0  0  0
    6.0628    0.6724   -1.0674 C   0  0  0  0  0  0  0  0  0  0  0  0
    5.4730    0.2389    0.1054 C   0  0  0  0  0  0  0  0  0  0  0  0
    6.2451    0.5679    1.2561 C   0  0  0  0  0  0  0  0  0  0  0  0
    7.4020    1.2359    0.9252 C   0  0  0  0  0  0  0  0  0  0  0  0
    7.5491    1.4693   -0.7625 S   0  0  0  0  0  0  0  0  0  0  0  0
   -0.1463    1.2030   -3.0539 N   0  0  0  0  0  0  0  0  0  0  0  0
   -1.2911    0.6727   -2.7234 C   0  0  0  0  0  0  0  0  0  0  0  0
   -2.2462    0.2982   -3.8209 C   0  0  0  0  0  0  0  0  0  0  0  0
   -1.6050    0.4723   -1.3289 C   0  0  0  0  0  0  0  0  0  0  0  0
   -2.7222    0.0207   -0.6456 C   0  0  0  0  0  0  0  0  0  0  0  0
   -4.0814   -0.3031   -1.1503 C   0  0  0  0  0  0  0  0  0  0  0  0
   -2.5808   -0.2148    3.1223 C   0  0  0  0  0  0  0  0  0  0  0  0
   -3.1857   -0.7590    4.2591 C   0  0  0  0  0  0  0  0  0  0  0  0
   -5.2277   -3.2973    5.1662 H   0  0  0  0  0  0  0  0  0  0  0  0
   -5.7040   -1.6492    5.6431 H   0  0  0  0  0  0  0  0  0  0  0  0
   -4.1571   -2.3424    6.1907 H   0  0  0  0  0  0  0  0  0  0  0  0
   -5.3688   -2.8709    2.7359 H   0  0  0  0  0  0  0  0  0  0  0  0
   -4.2990   -1.9715    0.7547 H   0  0  0  0  0  0  0  0  0  0  0  0
    2.3984    2.8716   -1.9034 H   0  0  0  0  0  0  0  0  0  0  0  0
    1.9675    2.4161   -3.5725 H   0  0  0  0  0  0  0  0  0  0  0  0
    4.5944    2.3912   -2.4728 H   0  0  0  0  0  0  0  0  0  0  0  0
    6.3051    0.8182   -3.2081 H   0  0  0  0  0  0  0  0  0  0  0  0
    5.2743   -0.5171   -2.6640 H   0  0  0  0  0  0  0  0  0  0  0  0
    4.5216   -0.2824    0.1341 H   0  0  0  0  0  0  0  0  0  0  0  0
    5.9620    0.3286    2.2739 H   0  0  0  0  0  0  0  0  0  0  0  0
    8.1682    1.6025    1.5942 H   0  0  0  0  0  0  0  0  0  0  0  0
   -1.7377    0.3171   -4.7897 H   0  0  0  0  0  0  0  0  0  0  0  0
   -3.0698    1.0167   -3.8481 H   0  0  0  0  0  0  0  0  0  0  0  0
   -2.6391   -0.7083   -3.6553 H   0  0  0  0  0  0  0  0  0  0  0  0
   -4.8575   -0.0746   -0.4140 H   0  0  0  0  0  0  0  0  0  0  0  0
   -4.3264    0.3014   -2.0282 H   0  0  0  0  0  0  0  0  0  0  0  0
   -4.1477   -1.3561   -1.4396 H   0  0  0  0  0  0  0  0  0  0  0  0
   -1.7935    0.5254    3.2596 H   0  0  0  0  0  0  0  0  0  0  0  0
   -2.8586   -0.4269    5.2422 H   0  0  0  0  0  0  0  0  0  0  0  0
  1  2  1  0
  2  3  2  0
  3  4  1  0
  4  5  2  0
  5  6  1  0
  6  7  1  0
  7  8  2  0
  8  9  1  0
  9 10  2  0
  9 11  1  0
 11 12  1  0
 12 13  1  0
 13 14  2  0
 13 15  1  0
 15 16  1  0
 16 17  1  0
 17 18  2  0
 18 19  1  0
 19 20  2  0
 20 21  1  0
 11 22  1  0
 22 23  2  0
 23 24  1  0
 23 25  1  0
 25 26  2  0
 26 27  1  0
  5 28  1  0
 28 29  2  0
 29  2  1  0
 26  6  1  0
 25  8  1  0
 21 17  1  0
  1 30  1  0
  1 31  1  0
  1 32  1  0
  3 33  1  0
  4 34  1  0
 12 35  1  0
 12 36  1  0
 15 37  1  0
 16 38  1  0
 16 39  1  0
 18 40  1  0
 19 41  1  0
 20 42  1  0
 24 43  1  0
 24 44  1  0
 24 45  1  0
 27 46  1  0
 27 47  1  0
 27 48  1  0
 28 49  1  0
 29 50  1  0
M  END
$$$$
