
     RDKit          3D

 32 33  0  0  0  0  0  0  0  0999 V2000
   -4.7273   -1.3799    0.8893 C   0  0  0  0  0  0  0  0  0  0  0  0
   -4.4722    0.0783    0.5406 C   0  0  0  0  0  0  0  0  0  0  0  0
   -2.9870    0.4270    0.4319 C   0  0  0  0  0  0  0  0  0  0  0  0
   -2.2869   -0.2698   -0.7389 C   0  0  0  0  0  0  0  0  0  0  0  0
   -0.8942    0.1593   -0.8681 N   0  0  0  0  0  0  0  0  0  0  0  0
   -0.5726    1.2918   -1.5479 C   0  0  0  0  0  0  0  0  0  0  0  0
   -1.2973    2.0651   -2.1396 O   0  0  0  0  0  0  0  0  0  0  0  0
    0.9378    1.4473   -1.4111 C   0  0  0  0  0  0  0  0  0  0  0  0
    1.5490    2.3526   -1.9452 O   0  0  0  0  0  0  0  0  0  0  0  0
    1.3534    0.3851   -0.6461 N   0  0  0  0  0  0  0  0  0  0  0  0
    2.7312    0.1688   -0.3363 C   0  0  0  0  0  0  0  0  0  0  0  0
    3.6069    1.2586   -0.1893 C   0  0  0  0  0  0  0  0  0  0  0  0
    4.9618    1.0719    0.1060 C   0  0  0  0  0  0  0  0  0  0  0  0
    5.4738   -0.2120    0.2489 C   0  0  0  0  0  0  0  0  0  0  0  0
    4.6324   -1.3065    0.0870 C   0  0  0  0  0  0  0  0  0  0  0  0
    3.2767   -1.1168   -0.2081 C   0  0  0  0  0  0  0  0  0  0  0  0
    0.2385   -0.3762   -0.2692 C   0  0  0  0  0  0  0  0  0  0  0  0
    0.1796   -1.6735    0.7958 S   0  0  0  0  0  0  0  0  0  0  0  0
   -4.4059   -2.0475    0.0847 H   0  0  0  0  0  0  0  0  0  0  0  0
   -4.2004   -1.6629    1.8060 H   0  0  0  0  0  0  0  0  0  0  0  0
   -5.7976   -1.5458    1.0490 H   0  0  0  0  0  0  0  0  0  0  0  0
   -4.9838    0.3250   -0.3970 H   0  0  0  0  0  0  0  0  0  0  0  0
   -4.9200    0.7059    1.3204 H   0  0  0  0  0  0  0  0  0  0  0  0
   -2.8969    1.5138    0.3098 H   0  0  0  0  0  0  0  0  0  0  0  0
   -2.4819    0.1844    1.3743 H   0  0  0  0  0  0  0  0  0  0  0  0
   -2.3176   -1.3567   -0.6246 H   0  0  0  0  0  0  0  0  0  0  0  0
   -2.8067   -0.0226   -1.6724 H   0  0  0  0  0  0  0  0  0  0  0  0
    3.2535    2.2842   -0.2748 H   0  0  0  0  0  0  0  0  0  0  0  0
    5.6134    1.9345    0.2235 H   0  0  0  0  0  0  0  0  0  0  0  0
    6.5264   -0.3592    0.4760 H   0  0  0  0  0  0  0  0  0  0  0  0
    5.0300   -2.3147    0.1776 H   0  0  0  0  0  0  0  0  0  0  0  0
    2.6840   -2.0093   -0.3825 H   0  0  0  0  0  0  0  0  0  0  0  0
  1  2  1  0
  2  3  1  0
  3  4  1  0
  4  5  1  0
  5  6  1  0
  6  7  2  0
  6  8  1  0
  8  9  2  0
  8 10  1  0
 10 11  1  0
 11 12  2  0
 12 13  1  0
 13 14  2  0
 14 15  1  0
 15 16  2  0
 10 17  1  0
 17 18  2  0
 17  5  1  0
 16 11  1  0
  1 19  1  0
  1 20  1  0
  1 21  1  0
  2 22  1  0
  2 23  1  0
  3 24  1  0
  3 25  1  0
  4 26  1  0
  4 27  1  0
 12 28  1  0
 13 29  1  0
 14 30  1  0
 15 31  1  0
 16 32  1  0
M  END
$$$$
