
     RDKit          3D

 57 59  0  0  0  0  0  0  0  0999 V2000
   10.0330   -0.1753   -0.2813 C   0  0  0  0  0  0  0  0  0  0  0  0
    8.5362   -0.1472   -0.1353 C   0  0  0  0  0  0  0  0  0  0  0  0
    7.7364   -0.6470   -1.1715 C   0  0  0  0  0  0  0  0  0  0  0  0
    6.3451   -0.6368   -1.0644 C   0  0  0  0  0  0  0  0  0  0  0  0
    5.7244   -0.1294    0.0755 C   0  0  0  0  0  0  0  0  0  0  0  0
    4.3577   -0.1788    0.0491 O   0  0  0  0  0  0  0  0  0  0  0  0
    3.6680    0.3655    1.1729 C   0  0  0  0  0  0  0  0  0  0  0  0
    2.2172    0.2096    0.9144 C   0  0  0  0  0  0  0  0  0  0  0  0
    1.4533   -0.6299    0.1408 C   0  0  0  0  0  0  0  0  0  0  0  0
    0.1169   -0.2271    0.3821 C   0  0  0  0  0  0  0  0  0  0  0  0
   -1.1036   -0.7977   -0.1938 C   0  0  0  0  0  0  0  0  0  0  0  0
   -1.0860   -1.7721   -0.9389 O   0  0  0  0  0  0  0  0  0  0  0  0
   -2.2592   -0.1490    0.1918 N   0  0  0  0  0  0  0  0  0  0  0  0
   -3.5799   -0.6745   -0.1071 C   0  0  0  0  0  0  0  0  0  0  0  0
   -4.7077    0.4110   -0.2512 C   0  0  0  0  0  0  0  0  0  0  0  0
   -4.2515    1.3999   -1.3556 C   0  0  0  0  0  0  0  0  0  0  0  0
   -4.8398    1.2005    1.0714 C   0  0  0  0  0  0  0  0  0  0  0  0
   -5.9853   -0.2635   -0.6551 N   0  0  0  0  0  0  0  0  0  0  0  0
   -6.5500   -1.1810    0.3637 C   0  0  0  0  0  0  0  0  0  0  0  0
   -7.7984   -1.9155   -0.1548 C   0  0  0  0  0  0  0  0  0  0  0  0
   -8.8145   -0.9875   -0.5478 O   0  0  0  0  0  0  0  0  0  0  0  0
   -8.3105   -0.1342   -1.5802 C   0  0  0  0  0  0  0  0  0  0  0  0
   -7.0655    0.6420   -1.1121 C   0  0  0  0  0  0  0  0  0  0  0  0
    0.0790    0.7928    1.2607 N   0  0  0  0  0  0  0  0  0  0  0  0
    1.3958    1.0592    1.5886 O   0  0  0  0  0  0  0  0  0  0  0  0
    6.5123    0.3666    1.1158 C   0  0  0  0  0  0  0  0  0  0  0  0
    7.9176    0.3611    1.0244 C   0  0  0  0  0  0  0  0  0  0  0  0
    8.7312    0.9043    2.1686 C   0  0  0  0  0  0  0  0  0  0  0  0
   10.3344   -0.5547   -1.2642 H   0  0  0  0  0  0  0  0  0  0  0  0
   10.4454    0.8340   -0.1805 H   0  0  0  0  0  0  0  0  0  0  0  0
   10.4757   -0.8293    0.4771 H   0  0  0  0  0  0  0  0  0  0  0  0
    8.1902   -1.0490   -2.0749 H   0  0  0  0  0  0  0  0  0  0  0  0
    5.7415   -1.0281   -1.8797 H   0  0  0  0  0  0  0  0  0  0  0  0
    3.9087    1.4293    1.2869 H   0  0  0  0  0  0  0  0  0  0  0  0
    3.9264   -0.1849    2.0852 H   0  0  0  0  0  0  0  0  0  0  0  0
    1.8002   -1.4197   -0.5103 H   0  0  0  0  0  0  0  0  0  0  0  0
   -2.1415    0.5305    0.9374 H   0  0  0  0  0  0  0  0  0  0  0  0
   -3.5220   -1.2711   -1.0260 H   0  0  0  0  0  0  0  0  0  0  0  0
   -3.8003   -1.3653    0.7133 H   0  0  0  0  0  0  0  0  0  0  0  0
   -4.2010    0.9062   -2.3330 H   0  0  0  0  0  0  0  0  0  0  0  0
   -4.9207    2.2630   -1.4377 H   0  0  0  0  0  0  0  0  0  0  0  0
   -3.2580    1.8124   -1.1464 H   0  0  0  0  0  0  0  0  0  0  0  0
   -5.6668    1.9173    1.0378 H   0  0  0  0  0  0  0  0  0  0  0  0
   -4.9997    0.5372    1.9280 H   0  0  0  0  0  0  0  0  0  0  0  0
   -3.9352    1.7826    1.2807 H   0  0  0  0  0  0  0  0  0  0  0  0
   -5.8244   -1.9449    0.6552 H   0  0  0  0  0  0  0  0  0  0  0  0
   -6.8348   -0.6182    1.2606 H   0  0  0  0  0  0  0  0  0  0  0  0
   -8.2141   -2.5430    0.6403 H   0  0  0  0  0  0  0  0  0  0  0  0
   -7.5531   -2.5697   -1.0004 H   0  0  0  0  0  0  0  0  0  0  0  0
   -9.1060    0.5702   -1.8445 H   0  0  0  0  0  0  0  0  0  0  0  0
   -8.0902   -0.7341   -2.4718 H   0  0  0  0  0  0  0  0  0  0  0  0
   -6.7400    1.2479   -1.9625 H   0  0  0  0  0  0  0  0  0  0  0  0
   -7.3612    1.3168   -0.3004 H   0  0  0  0  0  0  0  0  0  0  0  0
    6.0603    0.7653    2.0187 H   0  0  0  0  0  0  0  0  0  0  0  0
    8.0945    1.2257    2.9996 H   0  0  0  0  0  0  0  0  0  0  0  0
    9.3122    1.7730    1.8425 H   0  0  0  0  0  0  0  0  0  0  0  0
    9.4074    0.1347    2.5535 H   0  0  0  0  0  0  0  0  0  0  0  0
  1  2  1  0
  2  3  2  0
  3  4  1  0
  4  5  2  0
  5  6  1  0
  6  7  1  0
  7  8  1  0
  8  9  2  0
  9 10  1  0
 10 11  1  0
 11 12  2  0
 11 13  1  0
 13 14  1  0
 14 15  1  0
 15 16  1  0
 15 17  1  0
 15 18  1  0
 18 19  1  0
 19 20  1  0
 20 21  1  0
 21 22  1  0
 22 23  1  0
 10 24  2  0
 24 25  1  0
  5 26  1  0
 26 27  2  0
 27 28  1  0
 27  2  1  0
 25  8  1  0
 23 18  1  0
  1 29  1  0
  1 30  1  0
  1 31  1  0
  3 32  1  0
  4 33  1  0
  7 34  1  0
  7 35  1  0
  9 36  1  0
 13 37  1  0
 14 38  1  0
 14 39  1  0
 16 40  1  0
 16 41  1  0
 16 42  1  0
 17 43  1  0
 17 44  1  0
 17 45  1  0
 19 46  1  0
 19 47  1  0
 20 48  1  0
 20 49  1  0
 22 50  1  0
 22 51  1  0
 23 52  1  0
 23 53  1  0
 26 54  1  0
 28 55  1  0
 28 56  1  0
 28 57  1  0
M  END
$$$$
