
     RDKit          3D

 61 66  0  0  0  0  0  0  0  0999 V2000
    8.3697   -0.2487   -1.3941 C   0  0  0  0  0  0  0  0  0  0  0  0
    7.3744   -0.9013   -2.1188 C   0  0  0  0  0  0  0  0  0  0  0  0
    6.0492   -0.8566   -1.6830 C   0  0  0  0  0  0  0  0  0  0  0  0
    5.7078   -0.1545   -0.5185 C   0  0  0  0  0  0  0  0  0  0  0  0
    4.2813   -0.1452   -0.0210 C   0  0  0  0  0  0  0  0  0  0  0  0
    4.0455   -1.2636    1.0106 C   0  0  0  0  0  0  0  0  0  0  0  0
    2.6802   -1.4193    1.5231 N   0  0  0  0  0  0  0  0  0  0  0  0
    2.2460   -0.3189    2.4040 C   0  0  0  0  0  0  0  0  0  0  0  0
    0.7190   -0.3292    2.6369 C   0  0  0  0  0  0  0  0  0  0  0  0
   -0.0047   -0.0716    1.3699 N   0  0  0  0  0  0  0  0  0  0  0  0
   -1.3749   -0.1609    1.3766 C   0  0  0  0  0  0  0  0  0  0  0  0
   -2.1985   -0.9339    2.1763 C   0  0  0  0  0  0  0  0  0  0  0  0
   -3.5104   -0.8590    1.6595 C   0  0  0  0  0  0  0  0  0  0  0  0
   -3.4765   -0.0152    0.5677 C   0  0  0  0  0  0  0  0  0  0  0  0
   -4.4968    0.3984   -0.3702 C   0  0  0  0  0  0  0  0  0  0  0  0
   -5.8092   -0.2962   -0.4148 C   0  0  0  0  0  0  0  0  0  0  0  0
   -5.8834   -1.6939   -0.4526 C   0  0  0  0  0  0  0  0  0  0  0  0
   -7.1290   -2.3214   -0.5087 C   0  0  0  0  0  0  0  0  0  0  0  0
   -8.2965   -1.5562   -0.5383 C   0  0  0  0  0  0  0  0  0  0  0  0
   -8.2228   -0.1629   -0.5231 C   0  0  0  0  0  0  0  0  0  0  0  0
   -6.9796    0.4695   -0.4692 C   0  0  0  0  0  0  0  0  0  0  0  0
   -4.2866    1.3854   -1.1916 N   0  0  0  0  0  0  0  0  0  0  0  0
   -3.0403    2.0437   -1.1678 C   0  0  0  0  0  0  0  0  0  0  0  0
   -2.8694    3.1407   -2.0171 C   0  0  0  0  0  0  0  0  0  0  0  0
   -1.6713    3.8568   -2.0267 C   0  0  0  0  0  0  0  0  0  0  0  0
   -0.6350    3.4883   -1.1709 C   0  0  0  0  0  0  0  0  0  0  0  0
   -0.7859    2.3945   -0.3162 C   0  0  0  0  0  0  0  0  0  0  0  0
   -1.9736    1.6579   -0.3357 C   0  0  0  0  0  0  0  0  0  0  0  0
   -2.2103    0.5421    0.5049 N   0  0  0  0  0  0  0  0  0  0  0  0
    0.6847   -0.5994    0.1584 C   0  0  0  0  0  0  0  0  0  0  0  0
    1.6703   -1.7426    0.4973 C   0  0  0  0  0  0  0  0  0  0  0  0
    6.7159    0.5001    0.2021 C   0  0  0  0  0  0  0  0  0  0  0  0
    8.0407    0.4524   -0.2349 C   0  0  0  0  0  0  0  0  0  0  0  0
    9.4028   -0.2893   -1.7300 H   0  0  0  0  0  0  0  0  0  0  0  0
    7.6302   -1.4490   -3.0223 H   0  0  0  0  0  0  0  0  0  0  0  0
    5.2861   -1.3794   -2.2549 H   0  0  0  0  0  0  0  0  0  0  0  0
    3.6073   -0.2573   -0.8778 H   0  0  0  0  0  0  0  0  0  0  0  0
    4.0641    0.8392    0.4095 H   0  0  0  0  0  0  0  0  0  0  0  0
    4.3507   -2.2242    0.5727 H   0  0  0  0  0  0  0  0  0  0  0  0
    4.7223   -1.1204    1.8630 H   0  0  0  0  0  0  0  0  0  0  0  0
    2.5191    0.6569    1.9858 H   0  0  0  0  0  0  0  0  0  0  0  0
    2.7551   -0.4170    3.3691 H   0  0  0  0  0  0  0  0  0  0  0  0
    0.4339   -1.2987    3.0629 H   0  0  0  0  0  0  0  0  0  0  0  0
    0.4584    0.4478    3.3640 H   0  0  0  0  0  0  0  0  0  0  0  0
   -1.8784   -1.5614    2.9964 H   0  0  0  0  0  0  0  0  0  0  0  0
   -4.3757   -1.3908    2.0341 H   0  0  0  0  0  0  0  0  0  0  0  0
   -4.9798   -2.2983   -0.4575 H   0  0  0  0  0  0  0  0  0  0  0  0
   -7.1912   -3.4065   -0.5361 H   0  0  0  0  0  0  0  0  0  0  0  0
   -9.2660   -2.0473   -0.5836 H   0  0  0  0  0  0  0  0  0  0  0  0
   -9.1337    0.4305   -0.5564 H   0  0  0  0  0  0  0  0  0  0  0  0
   -6.9235    1.5562   -0.4653 H   0  0  0  0  0  0  0  0  0  0  0  0
   -3.6861    3.4392   -2.6699 H   0  0  0  0  0  0  0  0  0  0  0  0
   -1.5541    4.7083   -2.6913 H   0  0  0  0  0  0  0  0  0  0  0  0
    0.2895    4.0605   -1.1593 H   0  0  0  0  0  0  0  0  0  0  0  0
    0.0217    2.1602    0.3698 H   0  0  0  0  0  0  0  0  0  0  0  0
    1.2377    0.2228   -0.3097 H   0  0  0  0  0  0  0  0  0  0  0  0
   -0.0353   -0.9651   -0.5850 H   0  0  0  0  0  0  0  0  0  0  0  0
    2.1354   -2.1133   -0.4237 H   0  0  0  0  0  0  0  0  0  0  0  0
    1.0841   -2.5852    0.8860 H   0  0  0  0  0  0  0  0  0  0  0  0
    6.4767    1.0445    1.1130 H   0  0  0  0  0  0  0  0  0  0  0  0
    8.8188    0.9576    0.3317 H   0  0  0  0  0  0  0  0  0  0  0  0
  1  2  2  0
  2  3  1  0
  3  4  2  0
  4  5  1  0
  5  6  1  0
  6  7  1  0
  7  8  1  0
  8  9  1  0
  9 10  1  0
 10 11  1  0
 11 12  2  0
 12 13  1  0
 13 14  2  0
 14 15  1  0
 15 16  1  0
 16 17  2  0
 17 18  1  0
 18 19  2  0
 19 20  1  0
 20 21  2  0
 15 22  2  0
 22 23  1  0
 23 24  2  0
 24 25  1  0
 25 26  2  0
 26 27  1  0
 27 28  2  0
 28 29  1  0
 10 30  1  0
 30 31  1  0
  4 32  1  0
 32 33  2  0
 33  1  1  0
 31  7  1  0
 29 11  1  0
 29 14  1  0
 21 16  1  0
 28 23  1  0
  1 34  1  0
  2 35  1  0
  3 36  1  0
  5 37  1  0
  5 38  1  0
  6 39  1  0
  6 40  1  0
  8 41  1  0
  8 42  1  0
  9 43  1  0
  9 44  1  0
 12 45  1  0
 13 46  1  0
 17 47  1  0
 18 48  1  0
 19 49  1  0
 20 50  1  0
 21 51  1  0
 24 52  1  0
 25 53  1  0
 26 54  1  0
 27 55  1  0
 30 56  1  0
 30 57  1  0
 31 58  1  0
 31 59  1  0
 32 60  1  0
 33 61  1  0
M  END
$$$$
