
     RDKit          3D

 37 37  0  0  0  0  0  0  0  0999 V2000
   -1.6310   -2.5530   -2.3209 C   0  0  0  0  0  0  0  0  0  0  0  0
   -1.1630   -1.6277   -1.3392 O   0  0  0  0  0  0  0  0  0  0  0  0
   -2.0213   -0.5939   -1.0937 C   0  0  0  0  0  0  0  0  0  0  0  0
   -3.1356   -0.4865   -1.5933 O   0  0  0  0  0  0  0  0  0  0  0  0
   -1.4617    0.3714   -0.0309 C   0  0  0  0  0  0  0  0  0  0  0  0
   -2.2033    0.1853    1.2999 C   0  0  0  0  0  0  0  0  0  0  0  0
   -3.6363    0.7167    1.2523 C   0  0  0  0  0  0  0  0  0  0  0  0
   -4.3894    0.5971    2.9082 S   0  0  0  0  0  0  0  0  0  0  0  0
   -6.0237    1.2620    2.5072 C   0  0  0  0  0  0  0  0  0  0  0  0
   -0.0250    0.1544    0.1908 N   0  0  0  0  0  0  0  0  0  0  0  0
    0.8764    0.7420   -0.6601 C   0  0  0  0  0  0  0  0  0  0  0  0
    0.5771    1.5281   -1.5465 O   0  0  0  0  0  0  0  0  0  0  0  0
    2.1506    0.3280   -0.3870 N   0  0  0  0  0  0  0  0  0  0  0  0
    3.2507    0.9035   -1.1250 C   0  0  0  0  0  0  0  0  0  0  0  0
    4.5164    0.2438   -0.6832 C   0  0  0  0  0  0  0  0  0  0  0  0
    5.3931    0.6509    0.3047 C   0  0  0  0  0  0  0  0  0  0  0  0
    6.4989   -0.2361    0.4481 C   0  0  0  0  0  0  0  0  0  0  0  0
    6.4313   -1.2902   -0.4346 C   0  0  0  0  0  0  0  0  0  0  0  0
    5.0429   -1.2076   -1.4287 S   0  0  0  0  0  0  0  0  0  0  0  0
   -2.5383   -3.0544   -1.9703 H   0  0  0  0  0  0  0  0  0  0  0  0
   -1.8104   -2.0457   -3.2741 H   0  0  0  0  0  0  0  0  0  0  0  0
   -0.8543   -3.3078   -2.4720 H   0  0  0  0  0  0  0  0  0  0  0  0
   -1.5959    1.3917   -0.4089 H   0  0  0  0  0  0  0  0  0  0  0  0
   -2.2058   -0.8777    1.5765 H   0  0  0  0  0  0  0  0  0  0  0  0
   -1.6478    0.7157    2.0856 H   0  0  0  0  0  0  0  0  0  0  0  0
   -3.6433    1.7648    0.9367 H   0  0  0  0  0  0  0  0  0  0  0  0
   -4.2487    0.1338    0.5601 H   0  0  0  0  0  0  0  0  0  0  0  0
   -6.6399    1.2717    3.4102 H   0  0  0  0  0  0  0  0  0  0  0  0
   -6.5155    0.6369    1.7574 H   0  0  0  0  0  0  0  0  0  0  0  0
   -5.9370    2.2859    2.1345 H   0  0  0  0  0  0  0  0  0  0  0  0
    0.2302   -0.7984    0.4172 H   0  0  0  0  0  0  0  0  0  0  0  0
    2.3227    0.1034    0.5817 H   0  0  0  0  0  0  0  0  0  0  0  0
    3.0709    0.7788   -2.1988 H   0  0  0  0  0  0  0  0  0  0  0  0
    3.2805    1.9791   -0.9151 H   0  0  0  0  0  0  0  0  0  0  0  0
    5.2497    1.5469    0.8973 H   0  0  0  0  0  0  0  0  0  0  0  0
    7.3043   -0.1067    1.1608 H   0  0  0  0  0  0  0  0  0  0  0  0
    7.1315   -2.1066   -0.5470 H   0  0  0  0  0  0  0  0  0  0  0  0
  1  2  1  0
  2  3  1  0
  3  4  2  0
  3  5  1  0
  5  6  1  0
  6  7  1  0
  7  8  1  0
  8  9  1  0
  5 10  1  0
 10 11  1  0
 11 12  2  0
 11 13  1  0
 13 14  1  0
 14 15  1  0
 15 16  2  0
 16 17  1  0
 17 18  2  0
 18 19  1  0
 19 15  1  0
  1 20  1  0
  1 21  1  0
  1 22  1  0
  5 23  1  0
  6 24  1  0
  6 25  1  0
  7 26  1  0
  7 27  1  0
  9 28  1  0
  9 29  1  0
  9 30  1  0
 10 31  1  0
 13 32  1  0
 14 33  1  0
 14 34  1  0
 16 35  1  0
 17 36  1  0
 18 37  1  0
M  END
$$$$
