
     RDKit          3D

 40 42  0  0  0  0  0  0  0  0999 V2000
   -6.3938   -1.6766    1.2474 C   0  0  0  0  0  0  0  0  0  0  0  0
   -6.2659   -1.7116   -0.1697 O   0  0  0  0  0  0  0  0  0  0  0  0
   -5.0854   -1.2481   -0.6916 C   0  0  0  0  0  0  0  0  0  0  0  0
   -3.9897   -0.7788    0.0348 C   0  0  0  0  0  0  0  0  0  0  0  0
   -2.8363   -0.3379   -0.6343 C   0  0  0  0  0  0  0  0  0  0  0  0
   -1.7009    0.1616    0.1478 C   0  0  0  0  0  0  0  0  0  0  0  0
   -0.5097   -0.4395    0.2732 C   0  0  0  0  0  0  0  0  0  0  0  0
   -0.0018   -1.9368   -0.4212 S   0  0  0  0  0  0  0  0  0  0  0  0
    1.5964   -1.8481    0.3073 C   0  0  0  0  0  0  0  0  0  0  0  0
    2.7609   -3.0326    0.1427 S   0  0  0  0  0  0  0  0  0  0  0  0
    1.6840   -0.6786    1.0332 N   0  0  0  0  0  0  0  0  0  0  0  0
    2.8715   -0.3002    1.7047 N   0  0  0  0  0  0  0  0  0  0  0  0
    3.7268    0.5013    0.8935 C   0  0  0  0  0  0  0  0  0  0  0  0
    3.2780    0.9563   -0.3058 N   0  0  0  0  0  0  0  0  0  0  0  0
    4.0927    1.7553   -1.0357 C   0  0  0  0  0  0  0  0  0  0  0  0
    5.3670    2.1320   -0.6419 C   0  0  0  0  0  0  0  0  0  0  0  0
    6.1852    3.0424   -1.5043 C   0  0  0  0  0  0  0  0  0  0  0  0
    5.9611    2.8579   -2.8338 F   0  0  0  0  0  0  0  0  0  0  0  0
    7.5248    2.8801   -1.3262 F   0  0  0  0  0  0  0  0  0  0  0  0
    5.9288    4.3549   -1.2575 F   0  0  0  0  0  0  0  0  0  0  0  0
    5.8237    1.6641    0.5931 C   0  0  0  0  0  0  0  0  0  0  0  0
    5.0021    0.8448    1.3677 C   0  0  0  0  0  0  0  0  0  0  0  0
    5.5977    0.2670    2.8814 Cl  0  0  0  0  0  0  0  0  0  0  0  0
    0.5749    0.1515    1.1103 C   0  0  0  0  0  0  0  0  0  0  0  0
    0.4448    1.1796    1.7618 O   0  0  0  0  0  0  0  0  0  0  0  0
   -2.7902   -0.3559   -2.0345 C   0  0  0  0  0  0  0  0  0  0  0  0
   -3.8814   -0.8241   -2.7645 C   0  0  0  0  0  0  0  0  0  0  0  0
   -5.0111   -1.2657   -2.0892 C   0  0  0  0  0  0  0  0  0  0  0  0
   -6.0679   -1.7225   -2.8291 O   0  0  0  0  0  0  0  0  0  0  0  0
   -5.6597   -2.3337    1.7251 H   0  0  0  0  0  0  0  0  0  0  0  0
   -6.3147   -0.6517    1.6253 H   0  0  0  0  0  0  0  0  0  0  0  0
   -7.3911   -2.0491    1.5020 H   0  0  0  0  0  0  0  0  0  0  0  0
   -4.0040   -0.7514    1.1194 H   0  0  0  0  0  0  0  0  0  0  0  0
   -1.8890    1.0990    0.6704 H   0  0  0  0  0  0  0  0  0  0  0  0
    3.3962   -1.1100    2.0384 H   0  0  0  0  0  0  0  0  0  0  0  0
    3.6670    2.0937   -1.9793 H   0  0  0  0  0  0  0  0  0  0  0  0
    6.8142    1.9394    0.9510 H   0  0  0  0  0  0  0  0  0  0  0  0
   -1.9088   -0.0054   -2.5660 H   0  0  0  0  0  0  0  0  0  0  0  0
   -3.8526   -0.8442   -3.8495 H   0  0  0  0  0  0  0  0  0  0  0  0
   -6.7436   -1.9784   -2.1717 H   0  0  0  0  0  0  0  0  0  0  0  0
  1  2  1  0
  2  3  1  0
  3  4  2  0
  4  5  1  0
  5  6  1  0
  6  7  2  3
  7  8  1  0
  8  9  1  0
  9 10  2  0
  9 11  1  0
 11 12  1  0
 12 13  1  0
 13 14  2  0
 14 15  1  0
 15 16  2  0
 16 17  1  0
 17 18  1  0
 17 19  1  0
 17 20  1  0
 16 21  1  0
 21 22  2  0
 22 23  1  0
 11 24  1  0
 24 25  2  0
  5 26  2  0
 26 27  1  0
 27 28  2  0
 28 29  1  0
 28  3  1  0
 24  7  1  0
 22 13  1  0
  1 30  1  0
  1 31  1  0
  1 32  1  0
  4 33  1  0
  6 34  1  0
 12 35  1  0
 15 36  1  0
 21 37  1  0
 26 38  1  0
 27 39  1  0
 29 40  1  0
M  END
$$$$
