
     RDKit          3D

 39 41  0  0  0  0  0  0  0  0999 V2000
    5.4037   -0.8573   -1.5210 C   0  0  0  0  0  0  0  0  0  0  0  0
    4.4950    0.2883   -1.9301 C   0  0  0  0  0  0  0  0  0  0  0  0
    4.0644    1.0838   -0.7913 N   0  0  0  0  0  0  0  0  0  0  0  0
    4.8389    2.1307   -0.4214 N   0  0  0  0  0  0  0  0  0  0  0  0
    4.1948    2.6512    0.6219 C   0  0  0  0  0  0  0  0  0  0  0  0
    3.0106    1.9591    0.8971 C   0  0  0  0  0  0  0  0  0  0  0  0
    1.8906    2.3896    2.3348 Br  0  0  0  0  0  0  0  0  0  0  0  0
    2.9125    0.9488   -0.0401 C   0  0  0  0  0  0  0  0  0  0  0  0
    1.9179   -0.0868   -0.2500 C   0  0  0  0  0  0  0  0  0  0  0  0
    2.2276   -1.1603   -0.7525 O   0  0  0  0  0  0  0  0  0  0  0  0
    0.6397    0.2879    0.1183 N   0  0  0  0  0  0  0  0  0  0  0  0
   -0.5206   -0.4750    0.0719 C   0  0  0  0  0  0  0  0  0  0  0  0
   -0.4747   -2.1434   -0.3279 S   0  0  0  0  0  0  0  0  0  0  0  0
   -2.1230   -2.2717   -0.1336 C   0  0  0  0  0  0  0  0  0  0  0  0
   -2.7328   -1.1050    0.2297 C   0  0  0  0  0  0  0  0  0  0  0  0
   -1.8145   -0.0227    0.3528 C   0  0  0  0  0  0  0  0  0  0  0  0
   -2.1162    1.3625    0.7026 C   0  0  0  0  0  0  0  0  0  0  0  0
   -1.2557    2.2352    0.7677 O   0  0  0  0  0  0  0  0  0  0  0  0
   -3.4423    1.5764    0.9409 O   0  0  0  0  0  0  0  0  0  0  0  0
   -3.7641    2.9239    1.2848 C   0  0  0  0  0  0  0  0  0  0  0  0
   -4.1988   -1.3026    0.3812 C   0  0  0  0  0  0  0  0  0  0  0  0
   -4.3302   -2.8582    0.3850 C   0  0  0  0  0  0  0  0  0  0  0  0
   -3.0425   -3.4217   -0.2872 C   0  0  0  0  0  0  0  0  0  0  0  0
    4.9046   -1.5361   -0.8223 H   0  0  0  0  0  0  0  0  0  0  0  0
    6.3090   -0.4845   -1.0300 H   0  0  0  0  0  0  0  0  0  0  0  0
    5.7066   -1.4338   -2.4004 H   0  0  0  0  0  0  0  0  0  0  0  0
    3.6099   -0.0701   -2.4631 H   0  0  0  0  0  0  0  0  0  0  0  0
    5.0242    0.9609   -2.6158 H   0  0  0  0  0  0  0  0  0  0  0  0
    4.6236    3.5042    1.1320 H   0  0  0  0  0  0  0  0  0  0  0  0
    0.5041    1.2511    0.4204 H   0  0  0  0  0  0  0  0  0  0  0  0
   -3.2512    3.2179    2.2059 H   0  0  0  0  0  0  0  0  0  0  0  0
   -4.8425    2.9811    1.4564 H   0  0  0  0  0  0  0  0  0  0  0  0
   -3.5079    3.6009    0.4639 H   0  0  0  0  0  0  0  0  0  0  0  0
   -4.5934   -0.8775    1.3081 H   0  0  0  0  0  0  0  0  0  0  0  0
   -4.7329   -0.8752   -0.4738 H   0  0  0  0  0  0  0  0  0  0  0  0
   -4.3722   -3.2089    1.4249 H   0  0  0  0  0  0  0  0  0  0  0  0
   -5.2433   -3.1992   -0.1128 H   0  0  0  0  0  0  0  0  0  0  0  0
   -3.2241   -3.6367   -1.3453 H   0  0  0  0  0  0  0  0  0  0  0  0
   -2.6949   -4.3268    0.2181 H   0  0  0  0  0  0  0  0  0  0  0  0
  1  2  1  0
  2  3  1  0
  3  4  1  0
  4  5  2  0
  5  6  1  0
  6  7  1  0
  6  8  2  0
  8  9  1  0
  9 10  2  0
  9 11  1  0
 11 12  1  0
 12 13  1  0
 13 14  1  0
 14 15  2  0
 15 16  1  0
 16 17  1  0
 17 18  2  0
 17 19  1  0
 19 20  1  0
 15 21  1  0
 21 22  1  0
 22 23  1  0
  8  3  1  0
 16 12  2  0
 23 14  1  0
  1 24  1  0
  1 25  1  0
  1 26  1  0
  2 27  1  0
  2 28  1  0
  5 29  1  0
 11 30  1  0
 20 31  1  0
 20 32  1  0
 20 33  1  0
 21 34  1  0
 21 35  1  0
 22 36  1  0
 22 37  1  0
 23 38  1  0
 23 39  1  0
M  END
$$$$
