
     RDKit          3D

 48 51  0  0  0  0  0  0  0  0999 V2000
    1.3285    1.3005    1.4046 C   0  0  0  0  0  0  0  0  0  0  0  0
    1.9046    1.3586   -0.0022 C   0  0  0  0  0  0  0  0  0  0  0  0
    2.2748    0.0278   -0.4743 N   0  0  0  0  0  0  0  0  0  0  0  0
    1.6052   -0.8081   -1.3748 C   0  0  0  0  0  0  0  0  0  0  0  0
    0.3332   -0.8129   -1.8176 C   0  0  0  0  0  0  0  0  0  0  0  0
   -0.7489    0.0963   -1.4348 C   0  0  0  0  0  0  0  0  0  0  0  0
   -0.9537    1.1861   -2.2700 C   0  0  0  0  0  0  0  0  0  0  0  0
   -1.9715    2.0677   -2.0021 C   0  0  0  0  0  0  0  0  0  0  0  0
   -2.7710    1.8657   -0.8890 C   0  0  0  0  0  0  0  0  0  0  0  0
   -3.7820    2.8071   -0.6758 C   0  0  0  0  0  0  0  0  0  0  0  0
   -4.6263    2.6995    0.4116 C   0  0  0  0  0  0  0  0  0  0  0  0
   -4.4503    1.6549    1.3033 C   0  0  0  0  0  0  0  0  0  0  0  0
   -3.4364    0.6766    1.1335 C   0  0  0  0  0  0  0  0  0  0  0  0
   -3.3878   -0.3146    2.2699 C   0  0  0  0  0  0  0  0  0  0  0  0
   -2.5690    0.7440   -0.0017 C   0  0  0  0  0  0  0  0  0  0  0  0
   -1.5562   -0.1488   -0.3493 N   0  0  0  0  0  4  0  0  0  0  0  0
   -1.3452   -1.4435    0.3654 C   0  0  0  0  0  0  0  0  0  0  0  0
   -2.2748   -2.4989   -0.2064 C   0  0  0  0  0  0  0  0  0  0  0  0
    2.6077   -2.1674   -1.9815 S   0  0  0  0  0  0  0  0  0  0  0  0
    3.9442   -1.5937   -0.9514 C   0  0  0  0  0  0  0  0  0  0  0  0
    5.1934   -2.1903   -0.8453 C   0  0  0  0  0  0  0  0  0  0  0  0
    6.1349   -1.6118    0.0024 C   0  0  0  0  0  0  0  0  0  0  0  0
    5.8157   -0.4567    0.7246 C   0  0  0  0  0  0  0  0  0  0  0  0
    4.5516    0.1368    0.6084 C   0  0  0  0  0  0  0  0  0  0  0  0
    3.5987   -0.4262   -0.2369 C   0  0  0  0  0  0  0  0  0  0  0  0
    0.4550    0.6455    1.4534 H   0  0  0  0  0  0  0  0  0  0  0  0
    2.0612    0.9229    2.1244 H   0  0  0  0  0  0  0  0  0  0  0  0
    1.0214    2.2999    1.7283 H   0  0  0  0  0  0  0  0  0  0  0  0
    2.7574    2.0480   -0.0294 H   0  0  0  0  0  0  0  0  0  0  0  0
    1.1728    1.8176   -0.6709 H   0  0  0  0  0  0  0  0  0  0  0  0
    0.0148   -1.5728   -2.5319 H   0  0  0  0  0  0  0  0  0  0  0  0
   -0.3191    1.3500   -3.1405 H   0  0  0  0  0  0  0  0  0  0  0  0
   -2.1252    2.9151   -2.6707 H   0  0  0  0  0  0  0  0  0  0  0  0
   -3.9306    3.6451   -1.3578 H   0  0  0  0  0  0  0  0  0  0  0  0
   -5.4132    3.4343    0.5736 H   0  0  0  0  0  0  0  0  0  0  0  0
   -5.1230    1.6150    2.1627 H   0  0  0  0  0  0  0  0  0  0  0  0
   -4.1798   -0.1343    3.0072 H   0  0  0  0  0  0  0  0  0  0  0  0
   -2.4479   -0.2151    2.8208 H   0  0  0  0  0  0  0  0  0  0  0  0
   -3.5503   -1.3357    1.9220 H   0  0  0  0  0  0  0  0  0  0  0  0
   -1.4417   -1.2998    1.4341 H   0  0  0  0  0  0  0  0  0  0  0  0
   -0.3097   -1.7734    0.2658 H   0  0  0  0  0  0  0  0  0  0  0  0
   -2.1776   -3.4329    0.3552 H   0  0  0  0  0  0  0  0  0  0  0  0
   -2.0322   -2.7085   -1.2531 H   0  0  0  0  0  0  0  0  0  0  0  0
   -3.3219   -2.1850   -0.1751 H   0  0  0  0  0  0  0  0  0  0  0  0
    5.4377   -3.0850   -1.4097 H   0  0  0  0  0  0  0  0  0  0  0  0
    7.1222   -2.0580    0.1029 H   0  0  0  0  0  0  0  0  0  0  0  0
    6.5606   -0.0152    1.3844 H   0  0  0  0  0  0  0  0  0  0  0  0
    4.3497    1.0269    1.1938 H   0  0  0  0  0  0  0  0  0  0  0  0
  1  2  1  0
  2  3  1  0
  3  4  1  0
  4  5  2  3
  5  6  1  0
  6  7  2  0
  7  8  1  0
  8  9  2  0
  9 10  1  0
 10 11  2  0
 11 12  1  0
 12 13  2  0
 13 14  1  0
 13 15  1  0
 15 16  2  0
 16 17  1  0
 17 18  1  0
  4 19  1  0
 19 20  1  0
 20 21  2  0
 21 22  1  0
 22 23  2  0
 23 24  1  0
 24 25  2  0
 25  3  1  0
 16  6  1  0
 25 20  1  0
 15  9  1  0
  1 26  1  0
  1 27  1  0
  1 28  1  0
  2 29  1  0
  2 30  1  0
  5 31  1  0
  7 32  1  0
  8 33  1  0
 10 34  1  0
 11 35  1  0
 12 36  1  0
 14 37  1  0
 14 38  1  0
 14 39  1  0
 17 40  1  0
 17 41  1  0
 18 42  1  0
 18 43  1  0
 18 44  1  0
 21 45  1  0
 22 46  1  0
 23 47  1  0
 24 48  1  0
M  CHG  1  16   1
M  END
$$$$
