
     RDKit          3D

 53 54  0  0  0  0  0  0  0  0999 V2000
   -4.0795   -2.5586   -0.6244 C   0  0  0  0  0  0  0  0  0  0  0  0
   -4.2384   -2.6896    0.8798 C   0  0  0  0  0  0  0  0  0  0  0  0
   -4.6383   -1.4282    1.5280 N   0  0  0  0  0  0  0  0  0  0  0  0
   -6.0132   -0.9519    1.3025 C   0  0  0  0  0  0  0  0  0  0  0  0
   -6.9014   -1.3930    2.4532 C   0  0  0  0  0  0  0  0  0  0  0  0
   -3.4886   -0.3900    2.1930 S   0  0  0  0  0  6  0  0  0  0  0  0
   -2.3890   -1.1844    2.6980 O   0  0  0  0  0  0  0  0  0  0  0  0
   -4.1681    0.5668    3.0407 O   0  0  0  0  0  0  0  0  0  0  0  0
   -2.8804    0.5147    0.7841 C   0  0  0  0  0  0  0  0  0  0  0  0
   -3.5716    1.6450    0.3379 C   0  0  0  0  0  0  0  0  0  0  0  0
   -3.0705    2.3810   -0.7352 C   0  0  0  0  0  0  0  0  0  0  0  0
   -1.8747    1.9989   -1.3496 C   0  0  0  0  0  0  0  0  0  0  0  0
   -1.1663    0.8797   -0.8872 C   0  0  0  0  0  0  0  0  0  0  0  0
    0.1181    0.4427   -1.4974 C   0  0  0  0  0  0  0  0  0  0  0  0
    0.7499   -0.5322   -1.1177 O   0  0  0  0  0  0  0  0  0  0  0  0
    0.4848    1.2717   -2.5022 O   0  0  0  0  0  0  0  0  0  0  0  0
    1.7108    0.9403   -3.1583 C   0  0  0  0  0  0  0  0  0  0  0  0
    2.9583    1.4187   -2.4113 C   0  0  0  0  0  0  0  0  0  0  0  0
    3.6807    2.3106   -2.8469 O   0  0  0  0  0  0  0  0  0  0  0  0
    3.2117    0.7536   -1.2340 N   0  0  0  0  0  0  0  0  0  0  0  0
    4.3407    1.0741   -0.3820 C   0  0  0  0  0  0  0  0  0  0  0  0
    5.6588    0.4800   -0.8905 C   0  0  0  0  0  0  0  0  0  0  0  0
    6.7297    0.6064    0.0840 N   0  0  0  0  0  0  0  0  0  0  0  0
    6.9031   -0.2647    1.1313 C   0  0  0  0  0  0  0  0  0  0  0  0
    6.0569   -1.3253    1.2531 O   0  0  0  0  0  0  0  0  0  0  0  0
    7.9148    0.0426    1.9507 C   0  0  0  0  0  0  0  0  0  0  0  0
    8.7199    1.4936    1.4374 S   0  0  0  0  0  0  0  0  0  0  0  0
    7.6073    1.6779    0.0644 C   0  0  0  0  0  0  0  0  0  0  0  0
    7.6544    2.6113   -0.7173 O   0  0  0  0  0  0  0  0  0  0  0  0
   -1.6695    0.1408    0.1914 C   0  0  0  0  0  0  0  0  0  0  0  0
   -3.8029   -3.5265   -1.0550 H   0  0  0  0  0  0  0  0  0  0  0  0
   -3.2979   -1.8449   -0.8904 H   0  0  0  0  0  0  0  0  0  0  0  0
   -5.0053   -2.2344   -1.1084 H   0  0  0  0  0  0  0  0  0  0  0  0
   -4.9953   -3.4511    1.1018 H   0  0  0  0  0  0  0  0  0  0  0  0
   -3.3065   -3.0655    1.3141 H   0  0  0  0  0  0  0  0  0  0  0  0
   -6.4142   -1.3439    0.3632 H   0  0  0  0  0  0  0  0  0  0  0  0
   -6.0411    0.1378    1.2112 H   0  0  0  0  0  0  0  0  0  0  0  0
   -6.5419   -0.9960    3.4080 H   0  0  0  0  0  0  0  0  0  0  0  0
   -6.9279   -2.4847    2.5349 H   0  0  0  0  0  0  0  0  0  0  0  0
   -7.9253   -1.0380    2.3004 H   0  0  0  0  0  0  0  0  0  0  0  0
   -4.4876    1.9664    0.8289 H   0  0  0  0  0  0  0  0  0  0  0  0
   -3.6034    3.2623   -1.0865 H   0  0  0  0  0  0  0  0  0  0  0  0
   -1.5009    2.5941   -2.1806 H   0  0  0  0  0  0  0  0  0  0  0  0
    1.7837   -0.1370   -3.3525 H   0  0  0  0  0  0  0  0  0  0  0  0
    1.6958    1.4337   -4.1366 H   0  0  0  0  0  0  0  0  0  0  0  0
    2.5828    0.0006   -0.9540 H   0  0  0  0  0  0  0  0  0  0  0  0
    4.0984    0.6882    0.6140 H   0  0  0  0  0  0  0  0  0  0  0  0
    4.4256    2.1641   -0.3014 H   0  0  0  0  0  0  0  0  0  0  0  0
    5.5352   -0.5795   -1.1469 H   0  0  0  0  0  0  0  0  0  0  0  0
    5.9581    0.9896   -1.8143 H   0  0  0  0  0  0  0  0  0  0  0  0
    6.3221   -1.8406    2.0344 H   0  0  0  0  0  0  0  0  0  0  0  0
    8.2175   -0.5065    2.8299 H   0  0  0  0  0  0  0  0  0  0  0  0
   -1.1192   -0.7211    0.5668 H   0  0  0  0  0  0  0  0  0  0  0  0
  1  2  1  0
  2  3  1  0
  3  4  1  0
  4  5  1  0
  3  6  1  0
  6  7  2  0
  6  8  2  0
  6  9  1  0
  9 10  2  0
 10 11  1  0
 11 12  2  0
 12 13  1  0
 13 14  1  0
 14 15  2  0
 14 16  1  0
 16 17  1  0
 17 18  1  0
 18 19  2  0
 18 20  1  0
 20 21  1  0
 21 22  1  0
 22 23  1  0
 23 24  1  0
 24 25  1  0
 24 26  2  0
 26 27  1  0
 27 28  1  0
 28 29  2  0
 13 30  2  0
 30  9  1  0
 28 23  1  0
  1 31  1  0
  1 32  1  0
  1 33  1  0
  2 34  1  0
  2 35  1  0
  4 36  1  0
  4 37  1  0
  5 38  1  0
  5 39  1  0
  5 40  1  0
 10 41  1  0
 11 42  1  0
 12 43  1  0
 17 44  1  0
 17 45  1  0
 20 46  1  0
 21 47  1  0
 21 48  1  0
 22 49  1  0
 22 50  1  0
 25 51  1  0
 26 52  1  0
 30 53  1  0
M  END
$$$$
