
     RDKit          3D

 50 52  0  0  0  0  0  0  0  0999 V2000
    7.1226    2.9641   -0.4475 C   0  0  0  0  0  0  0  0  0  0  0  0
    6.0421    2.9240    0.4764 O   0  0  0  0  0  0  0  0  0  0  0  0
    4.9028    2.2914    0.0634 C   0  0  0  0  0  0  0  0  0  0  0  0
    4.7138    1.6530   -1.1607 C   0  0  0  0  0  0  0  0  0  0  0  0
    3.4889    1.0385   -1.4591 C   0  0  0  0  0  0  0  0  0  0  0  0
    2.4405    1.0567   -0.5394 C   0  0  0  0  0  0  0  0  0  0  0  0
    1.1890    0.4552   -0.7594 N   0  0  0  0  0  0  0  0  0  0  0  0
    0.7185   -0.1557   -1.9109 C   0  0  0  0  0  0  0  0  0  0  0  0
    1.3354   -0.2533   -2.9708 O   0  0  0  0  0  0  0  0  0  0  0  0
   -0.6970   -0.7938   -1.7398 C   0  0  0  0  0  0  0  0  0  0  0  0
   -1.3322   -0.5573   -0.4337 N   0  0  0  0  0  0  0  0  0  0  0  0
   -1.9875    0.6321   -0.1897 C   0  0  0  0  0  0  0  0  0  0  0  0
   -1.8652    1.6111   -0.9145 O   0  0  0  0  0  0  0  0  0  0  0  0
   -2.8645    0.6804    1.0131 C   0  0  0  0  0  0  0  0  0  0  0  0
   -3.8859    1.6364    1.0495 C   0  0  0  0  0  0  0  0  0  0  0  0
   -4.7320    1.7220    2.1577 C   0  0  0  0  0  0  0  0  0  0  0  0
   -4.5691    0.8525    3.2422 C   0  0  0  0  0  0  0  0  0  0  0  0
   -5.4561    0.9690    4.4472 C   0  0  0  0  0  0  0  0  0  0  0  0
   -3.5276   -0.0832    3.2161 C   0  0  0  0  0  0  0  0  0  0  0  0
   -2.6790   -0.1722    2.1083 C   0  0  0  0  0  0  0  0  0  0  0  0
   -0.6630   -2.2970   -1.9839 C   0  0  0  0  0  0  0  0  0  0  0  0
    0.2570   -3.1241   -1.3176 C   0  0  0  0  0  0  0  0  0  0  0  0
    0.2449   -4.5051   -1.5197 C   0  0  0  0  0  0  0  0  0  0  0  0
   -0.6897   -5.0770   -2.3802 C   0  0  0  0  0  0  0  0  0  0  0  0
   -1.6141   -4.2698   -3.0399 C   0  0  0  0  0  0  0  0  0  0  0  0
   -1.6045   -2.8882   -2.8412 C   0  0  0  0  0  0  0  0  0  0  0  0
    2.6348    1.6964    0.6889 C   0  0  0  0  0  0  0  0  0  0  0  0
    3.8565    2.3082    0.9857 C   0  0  0  0  0  0  0  0  0  0  0  0
    6.8429    3.5001   -1.3605 H   0  0  0  0  0  0  0  0  0  0  0  0
    7.9437    3.5139    0.0226 H   0  0  0  0  0  0  0  0  0  0  0  0
    7.4845    1.9560   -0.6749 H   0  0  0  0  0  0  0  0  0  0  0  0
    5.4949    1.6100   -1.9124 H   0  0  0  0  0  0  0  0  0  0  0  0
    3.3902    0.5510   -2.4241 H   0  0  0  0  0  0  0  0  0  0  0  0
    0.5036    0.5422   -0.0188 H   0  0  0  0  0  0  0  0  0  0  0  0
   -1.3245   -0.3133   -2.5027 H   0  0  0  0  0  0  0  0  0  0  0  0
   -1.7084   -1.3841    0.0129 H   0  0  0  0  0  0  0  0  0  0  0  0
   -4.0267    2.3203    0.2143 H   0  0  0  0  0  0  0  0  0  0  0  0
   -5.5179    2.4747    2.1682 H   0  0  0  0  0  0  0  0  0  0  0  0
   -5.0251    1.6770    5.1617 H   0  0  0  0  0  0  0  0  0  0  0  0
   -5.5761   -0.0021    4.9388 H   0  0  0  0  0  0  0  0  0  0  0  0
   -6.4557    1.3151    4.1641 H   0  0  0  0  0  0  0  0  0  0  0  0
   -3.3672   -0.7454    4.0649 H   0  0  0  0  0  0  0  0  0  0  0  0
   -1.8679   -0.8937    2.1352 H   0  0  0  0  0  0  0  0  0  0  0  0
    0.9982   -2.6992   -0.6433 H   0  0  0  0  0  0  0  0  0  0  0  0
    0.9698   -5.1349   -1.0100 H   0  0  0  0  0  0  0  0  0  0  0  0
   -0.6943   -6.1519   -2.5411 H   0  0  0  0  0  0  0  0  0  0  0  0
   -2.3409   -4.7163   -3.7140 H   0  0  0  0  0  0  0  0  0  0  0  0
   -2.3349   -2.2751   -3.3658 H   0  0  0  0  0  0  0  0  0  0  0  0
    1.8410    1.7360    1.4298 H   0  0  0  0  0  0  0  0  0  0  0  0
    3.9915    2.8053    1.9431 H   0  0  0  0  0  0  0  0  0  0  0  0
  1  2  1  0
  2  3  1  0
  3  4  2  0
  4  5  1  0
  5  6  2  0
  6  7  1  0
  7  8  1  0
  8  9  2  0
  8 10  1  0
 10 11  1  0
 11 12  1  0
 12 13  2  0
 12 14  1  0
 14 15  2  0
 15 16  1  0
 16 17  2  0
 17 18  1  0
 17 19  1  0
 19 20  2  0
 10 21  1  0
 21 22  2  0
 22 23  1  0
 23 24  2  0
 24 25  1  0
 25 26  2  0
  6 27  1  0
 27 28  2  0
 28  3  1  0
 20 14  1  0
 26 21  1  0
  1 29  1  0
  1 30  1  0
  1 31  1  0
  4 32  1  0
  5 33  1  0
  7 34  1  0
 10 35  1  0
 11 36  1  0
 15 37  1  0
 16 38  1  0
 18 39  1  0
 18 40  1  0
 18 41  1  0
 19 42  1  0
 20 43  1  0
 22 44  1  0
 23 45  1  0
 24 46  1  0
 25 47  1  0
 26 48  1  0
 27 49  1  0
 28 50  1  0
M  END
$$$$
