
     RDKit          3D

 31 32  0  0  0  0  0  0  0  0999 V2000
   -3.4178    1.8964   -0.9221 C   0  0  0  0  0  0  0  0  0  0  0  0
   -3.2558    0.6385   -0.1102 C   0  0  0  0  0  0  0  0  0  0  0  0
   -4.2663    0.0776    0.3211 O   0  0  0  0  0  0  0  0  0  0  0  0
   -1.9056    0.1057    0.1557 C   0  0  0  0  0  0  0  0  0  0  0  0
   -1.6493   -0.8970    1.0869 C   0  0  0  0  0  0  0  0  0  0  0  0
   -2.5661   -1.6481    1.9888 C   0  0  0  0  0  0  0  0  0  0  0  0
   -0.3039   -1.1441    1.0935 N   0  0  0  0  0  0  0  0  0  0  0  0
    0.3396   -0.3317    0.1962 C   0  0  0  0  0  0  0  0  0  0  0  0
    1.7906   -0.3864    0.0350 C   0  0  0  0  0  0  0  0  0  0  0  0
    2.5732    0.7464    0.2866 C   0  0  0  0  0  0  0  0  0  0  0  0
    3.9613    0.6925    0.1439 C   0  0  0  0  0  0  0  0  0  0  0  0
    4.5761   -0.4945   -0.2514 C   0  0  0  0  0  0  0  0  0  0  0  0
    3.8047   -1.6278   -0.5045 C   0  0  0  0  0  0  0  0  0  0  0  0
    2.4164   -1.5748   -0.3608 C   0  0  0  0  0  0  0  0  0  0  0  0
   -0.6272    0.4506   -0.4277 C   0  0  0  0  0  0  0  0  0  0  0  0
   -0.3584    1.4359   -1.5159 C   0  0  0  0  0  0  0  0  0  0  0  0
   -2.7643    2.6844   -0.5413 H   0  0  0  0  0  0  0  0  0  0  0  0
   -4.4494    2.2523   -0.8336 H   0  0  0  0  0  0  0  0  0  0  0  0
   -3.2178    1.6930   -1.9759 H   0  0  0  0  0  0  0  0  0  0  0  0
   -3.1366   -0.9576    2.6180 H   0  0  0  0  0  0  0  0  0  0  0  0
   -3.2669   -2.2522    1.4041 H   0  0  0  0  0  0  0  0  0  0  0  0
   -2.0145   -2.3232    2.6515 H   0  0  0  0  0  0  0  0  0  0  0  0
    0.1627   -1.8145    1.6903 H   0  0  0  0  0  0  0  0  0  0  0  0
    2.1048    1.6756    0.6025 H   0  0  0  0  0  0  0  0  0  0  0  0
    4.5616    1.5764    0.3426 H   0  0  0  0  0  0  0  0  0  0  0  0
    5.6565   -0.5358   -0.3641 H   0  0  0  0  0  0  0  0  0  0  0  0
    4.2828   -2.5520   -0.8182 H   0  0  0  0  0  0  0  0  0  0  0  0
    1.8257   -2.4623   -0.5750 H   0  0  0  0  0  0  0  0  0  0  0  0
   -1.0248    1.2641   -2.3657 H   0  0  0  0  0  0  0  0  0  0  0  0
    0.6632    1.3548   -1.8996 H   0  0  0  0  0  0  0  0  0  0  0  0
   -0.4949    2.4578   -1.1504 H   0  0  0  0  0  0  0  0  0  0  0  0
  1  2  1  0
  2  3  2  0
  2  4  1  0
  4  5  2  0
  5  6  1  0
  5  7  1  0
  7  8  1  0
  8  9  1  0
  9 10  2  0
 10 11  1  0
 11 12  2  0
 12 13  1  0
 13 14  2  0
  8 15  2  0
 15 16  1  0
 15  4  1  0
 14  9  1  0
  1 17  1  0
  1 18  1  0
  1 19  1  0
  6 20  1  0
  6 21  1  0
  6 22  1  0
  7 23  1  0
 10 24  1  0
 11 25  1  0
 12 26  1  0
 13 27  1  0
 14 28  1  0
 16 29  1  0
 16 30  1  0
 16 31  1  0
M  END
$$$$
