
     RDKit          3D

 58 61  0  0  0  0  0  0  0  0999 V2000
    7.8373   -2.7900   -0.1263 C   0  0  0  0  0  0  0  0  0  0  0  0
    6.9960   -2.2293   -1.2438 C   0  0  0  0  0  0  0  0  0  0  0  0
    7.4335   -2.4213   -2.5624 C   0  0  0  0  0  0  0  0  0  0  0  0
    6.6928   -1.9346   -3.6310 C   0  0  0  0  0  0  0  0  0  0  0  0
    5.5081   -1.2404   -3.4020 C   0  0  0  0  0  0  0  0  0  0  0  0
    5.0381   -1.0317   -2.1032 C   0  0  0  0  0  0  0  0  0  0  0  0
    3.8378   -0.3227   -1.8509 N   0  0  0  0  0  0  0  0  0  0  0  0
    3.0197    0.3284   -2.7649 C   0  0  0  0  0  0  0  0  0  0  0  0
    3.1981    0.4567   -3.9698 O   0  0  0  0  0  0  0  0  0  0  0  0
    1.8235    0.9512   -2.1265 C   0  0  0  0  0  0  0  0  0  0  0  0
    1.6438    2.3472   -2.3043 C   0  0  0  0  0  0  0  0  0  0  0  0
    1.4953    3.4948   -2.4128 N   0  0  0  0  0  0  0  0  0  0  0  0
    1.0058    0.1444   -1.4232 C   0  0  0  0  0  0  0  0  0  0  0  0
   -0.1597    0.4865   -0.6676 C   0  0  0  0  0  0  0  0  0  0  0  0
   -1.0622    1.4919   -0.9422 C   0  0  0  0  0  0  0  0  0  0  0  0
   -2.0307    1.4782    0.0344 N   0  0  0  0  0  0  0  0  0  0  0  0
   -3.1053    2.4548    0.1238 C   0  0  0  0  0  0  0  0  0  0  0  0
   -4.4612    1.8629   -0.2026 C   0  0  0  0  0  0  0  0  0  0  0  0
   -4.7592    1.4493   -1.3199 O   0  0  0  0  0  0  0  0  0  0  0  0
   -5.3488    1.8465    0.8461 N   0  0  0  0  0  0  0  0  0  0  0  0
   -6.6267    1.1809    0.7183 C   0  0  0  0  0  0  0  0  0  0  0  0
   -7.3486    1.2912    2.0065 C   0  0  0  0  0  0  0  0  0  0  0  0
   -8.4144    2.0528    2.4389 C   0  0  0  0  0  0  0  0  0  0  0  0
   -8.6376    1.6939    3.7899 C   0  0  0  0  0  0  0  0  0  0  0  0
   -7.6918    0.7433    4.0976 C   0  0  0  0  0  0  0  0  0  0  0  0
   -6.8975    0.4995    3.0257 O   0  0  0  0  0  0  0  0  0  0  0  0
   -1.7757    0.4646    0.9411 C   0  0  0  0  0  0  0  0  0  0  0  0
   -2.4643    0.0518    2.0951 C   0  0  0  0  0  0  0  0  0  0  0  0
   -1.9646   -1.0393    2.8142 C   0  0  0  0  0  0  0  0  0  0  0  0
   -0.8081   -1.6948    2.4079 C   0  0  0  0  0  0  0  0  0  0  0  0
   -0.1220   -1.2742    1.2650 C   0  0  0  0  0  0  0  0  0  0  0  0
   -0.6097   -0.1821    0.5120 C   0  0  0  0  0  0  0  0  0  0  0  0
    5.7784   -1.5443   -1.0038 C   0  0  0  0  0  0  0  0  0  0  0  0
    5.2766   -1.3508    0.4086 C   0  0  0  0  0  0  0  0  0  0  0  0
    7.3217   -3.6287    0.3455 H   0  0  0  0  0  0  0  0  0  0  0  0
    8.0524   -2.0220    0.6162 H   0  0  0  0  0  0  0  0  0  0  0  0
    8.8068   -3.1500   -0.4844 H   0  0  0  0  0  0  0  0  0  0  0  0
    8.3581   -2.9563   -2.7646 H   0  0  0  0  0  0  0  0  0  0  0  0
    7.0358   -2.0906   -4.6505 H   0  0  0  0  0  0  0  0  0  0  0  0
    4.9711   -0.8785   -4.2704 H   0  0  0  0  0  0  0  0  0  0  0  0
    3.5887   -0.2167   -0.8771 H   0  0  0  0  0  0  0  0  0  0  0  0
    1.2587   -0.9159   -1.3883 H   0  0  0  0  0  0  0  0  0  0  0  0
   -1.1145    2.2143   -1.7497 H   0  0  0  0  0  0  0  0  0  0  0  0
   -2.9014    3.2670   -0.5814 H   0  0  0  0  0  0  0  0  0  0  0  0
   -3.0797    2.8817    1.1290 H   0  0  0  0  0  0  0  0  0  0  0  0
   -5.0240    2.0389    1.7914 H   0  0  0  0  0  0  0  0  0  0  0  0
   -7.1893    1.6488   -0.0988 H   0  0  0  0  0  0  0  0  0  0  0  0
   -6.4530    0.1355    0.4533 H   0  0  0  0  0  0  0  0  0  0  0  0
   -8.9628    2.7778    1.8518 H   0  0  0  0  0  0  0  0  0  0  0  0
   -9.3945    2.0778    4.4551 H   0  0  0  0  0  0  0  0  0  0  0  0
   -7.4656    0.1744    4.9871 H   0  0  0  0  0  0  0  0  0  0  0  0
   -3.3710    0.5415    2.4318 H   0  0  0  0  0  0  0  0  0  0  0  0
   -2.4933   -1.3817    3.7009 H   0  0  0  0  0  0  0  0  0  0  0  0
   -0.4388   -2.5433    2.9800 H   0  0  0  0  0  0  0  0  0  0  0  0
    0.7807   -1.7952    0.9595 H   0  0  0  0  0  0  0  0  0  0  0  0
    5.2449   -0.2782    0.6502 H   0  0  0  0  0  0  0  0  0  0  0  0
    5.9001   -1.8356    1.1717 H   0  0  0  0  0  0  0  0  0  0  0  0
    4.2722   -1.7800    0.5101 H   0  0  0  0  0  0  0  0  0  0  0  0
  1  2  1  0
  2  3  2  0
  3  4  1  0
  4  5  2  0
  5  6  1  0
  6  7  1  0
  7  8  1  0
  8  9  2  0
  8 10  1  0
 10 11  1  0
 11 12  3  0
 10 13  2  3
 13 14  1  0
 14 15  2  0
 15 16  1  0
 16 17  1  0
 17 18  1  0
 18 19  2  0
 18 20  1  0
 20 21  1  0
 21 22  1  0
 22 23  2  0
 23 24  1  0
 24 25  2  0
 25 26  1  0
 16 27  1  0
 27 28  2  0
 28 29  1  0
 29 30  2  0
 30 31  1  0
 31 32  2  0
  6 33  2  0
 33 34  1  0
 33  2  1  0
 32 14  1  0
 26 22  1  0
 32 27  1  0
  1 35  1  0
  1 36  1  0
  1 37  1  0
  3 38  1  0
  4 39  1  0
  5 40  1  0
  7 41  1  0
 13 42  1  0
 15 43  1  0
 17 44  1  0
 17 45  1  0
 20 46  1  0
 21 47  1  0
 21 48  1  0
 23 49  1  0
 24 50  1  0
 25 51  1  0
 28 52  1  0
 29 53  1  0
 30 54  1  0
 31 55  1  0
 34 56  1  0
 34 57  1  0
 34 58  1  0
M  END
$$$$
