
     RDKit          3D

 40 41  0  0  0  0  0  0  0  0999 V2000
    8.0737   -0.4093   -0.0767 C   0  0  0  0  0  0  0  0  0  0  0  0
    6.9904   -1.1768    0.4332 O   0  0  0  0  0  0  0  0  0  0  0  0
    5.7549   -0.5920    0.4117 C   0  0  0  0  0  0  0  0  0  0  0  0
    5.4556    0.6799   -0.0734 C   0  0  0  0  0  0  0  0  0  0  0  0
    4.1389    1.1564   -0.0343 C   0  0  0  0  0  0  0  0  0  0  0  0
    3.1035    0.3655    0.4777 C   0  0  0  0  0  0  0  0  0  0  0  0
    1.7435    0.9163    0.5184 C   0  0  0  0  0  0  0  0  0  0  0  0
    0.6419    0.1999    0.2447 C   0  0  0  0  0  0  0  0  0  0  0  0
   -0.6976    0.8540    0.2928 C   0  0  0  0  0  0  0  0  0  0  0  0
   -0.8154    2.0326    0.5983 O   0  0  0  0  0  0  0  0  0  0  0  0
   -1.7148   -0.0213   -0.0424 N   0  0  0  0  0  0  0  0  0  0  0  0
   -3.0795    0.2158   -0.1071 C   0  0  0  0  0  0  0  0  0  0  0  0
   -3.6101    1.4082    0.1869 C   0  0  0  0  0  0  0  0  0  0  0  0
   -5.0569    1.6376    0.1162 C   0  0  0  0  0  0  0  0  0  0  0  0
   -5.5039    2.7312    0.4531 O   0  0  0  0  0  0  0  0  0  0  0  0
   -5.8164    0.5830   -0.3290 N   0  0  0  0  0  0  0  0  0  0  0  0
   -7.2529    0.7595   -0.4267 C   0  0  0  0  0  0  0  0  0  0  0  0
   -5.3081   -0.6780   -0.5937 C   0  0  0  0  0  0  0  0  0  0  0  0
   -6.0482   -1.6147   -0.9044 O   0  0  0  0  0  0  0  0  0  0  0  0
   -3.9208   -0.8287   -0.4845 N   0  0  0  0  0  0  0  0  0  0  0  0
   -3.3890   -2.1551   -0.7846 C   0  0  0  0  0  0  0  0  0  0  0  0
    3.4130   -0.9031    0.9789 C   0  0  0  0  0  0  0  0  0  0  0  0
    4.7280   -1.3771    0.9393 C   0  0  0  0  0  0  0  0  0  0  0  0
    7.9313   -0.1828   -1.1386 H   0  0  0  0  0  0  0  0  0  0  0  0
    8.2191    0.5054    0.5074 H   0  0  0  0  0  0  0  0  0  0  0  0
    8.9827   -1.0114    0.0160 H   0  0  0  0  0  0  0  0  0  0  0  0
    6.2195    1.3299   -0.4869 H   0  0  0  0  0  0  0  0  0  0  0  0
    3.9304    2.1539   -0.4169 H   0  0  0  0  0  0  0  0  0  0  0  0
    1.6669    1.9751    0.7629 H   0  0  0  0  0  0  0  0  0  0  0  0
    0.7019   -0.8455   -0.0275 H   0  0  0  0  0  0  0  0  0  0  0  0
   -1.4221   -0.9551   -0.2797 H   0  0  0  0  0  0  0  0  0  0  0  0
   -3.0438    2.2750    0.4986 H   0  0  0  0  0  0  0  0  0  0  0  0
   -7.5384    1.8149   -0.4227 H   0  0  0  0  0  0  0  0  0  0  0  0
   -7.7219    0.2590    0.4267 H   0  0  0  0  0  0  0  0  0  0  0  0
   -7.6233    0.2981   -1.3478 H   0  0  0  0  0  0  0  0  0  0  0  0
   -2.8708   -2.5440    0.0981 H   0  0  0  0  0  0  0  0  0  0  0  0
   -2.6967   -2.0825   -1.6298 H   0  0  0  0  0  0  0  0  0  0  0  0
   -4.1660   -2.8749   -1.0555 H   0  0  0  0  0  0  0  0  0  0  0  0
    2.6456   -1.5334    1.4200 H   0  0  0  0  0  0  0  0  0  0  0  0
    4.9559   -2.3654    1.3316 H   0  0  0  0  0  0  0  0  0  0  0  0
  1  2  1  0
  2  3  1  0
  3  4  2  0
  4  5  1  0
  5  6  2  0
  6  7  1  0
  7  8  2  3
  8  9  1  0
  9 10  2  0
  9 11  1  0
 11 12  1  0
 12 13  2  0
 13 14  1  0
 14 15  2  0
 14 16  1  0
 16 17  1  0
 16 18  1  0
 18 19  2  0
 18 20  1  0
 20 21  1  0
  6 22  1  0
 22 23  2  0
 23  3  1  0
 20 12  1  0
  1 24  1  0
  1 25  1  0
  1 26  1  0
  4 27  1  0
  5 28  1  0
  7 29  1  0
  8 30  1  0
 11 31  1  0
 13 32  1  0
 17 33  1  0
 17 34  1  0
 17 35  1  0
 21 36  1  0
 21 37  1  0
 21 38  1  0
 22 39  1  0
 23 40  1  0
M  END
$$$$
