
     RDKit          3D

 62 67  0  0  0  0  0  0  0  0999 V2000
   -4.2038   -3.5154    2.2283 C   0  0  0  0  0  0  0  0  0  0  0  0
   -3.8417   -2.1464    2.1252 O   0  0  0  0  0  0  0  0  0  0  0  0
   -3.0340   -1.6271    3.1061 C   0  0  0  0  0  0  0  0  0  0  0  0
   -2.5979   -2.3384    4.2304 C   0  0  0  0  0  0  0  0  0  0  0  0
   -1.7773   -1.7278    5.1837 C   0  0  0  0  0  0  0  0  0  0  0  0
   -1.3841   -0.4023    5.0255 C   0  0  0  0  0  0  0  0  0  0  0  0
   -1.8115    0.3174    3.9113 C   0  0  0  0  0  0  0  0  0  0  0  0
   -2.6376   -0.2833    2.9468 C   0  0  0  0  0  0  0  0  0  0  0  0
   -3.0467    0.5063    1.7781 C   0  0  0  0  0  0  0  0  0  0  0  0
   -4.4178    1.5147    1.9165 S   0  0  0  0  0  0  0  0  0  0  0  0
   -4.2839    2.0717    0.2938 C   0  0  0  0  0  0  0  0  0  0  0  0
   -5.1388    2.9956   -0.3468 C   0  0  0  0  0  0  0  0  0  0  0  0
   -4.8433    3.3032   -1.6588 C   0  0  0  0  0  0  0  0  0  0  0  0
   -3.7806    2.7493   -2.3185 C   0  0  0  0  0  0  0  0  0  0  0  0
   -2.9320    1.8439   -1.7122 C   0  0  0  0  0  0  0  0  0  0  0  0
   -3.1857    1.4879   -0.3585 C   0  0  0  0  0  0  0  0  0  0  0  0
   -2.4783    0.5829    0.5187 C   0  0  0  0  0  0  0  0  0  0  0  0
   -1.2905   -0.1858    0.1737 C   0  0  0  0  0  0  0  0  0  0  0  0
   -0.0204    0.3727    0.3407 C   0  0  0  0  0  0  0  0  0  0  0  0
    1.1233   -0.3625    0.0082 C   0  0  0  0  0  0  0  0  0  0  0  0
    1.0037   -1.6586   -0.4945 C   0  0  0  0  0  0  0  0  0  0  0  0
    2.0289   -2.4844   -0.8618 O   0  0  0  0  0  0  0  0  0  0  0  0
    3.3728   -2.0695   -0.5995 C   0  0  0  0  0  0  0  0  0  0  0  0
    3.9284   -1.2484   -1.7764 C   0  0  0  0  0  0  0  0  0  0  0  0
    5.3424   -0.8621   -1.6227 N   0  0  0  0  0  0  0  0  0  0  0  0
    5.8738   -0.2442   -2.8593 C   0  0  0  0  0  0  0  0  0  0  0  0
    5.8893    1.2918   -2.8180 C   0  0  0  0  0  0  0  0  0  0  0  0
    6.6812    1.8207   -1.7454 O   0  0  0  0  0  0  0  0  0  0  0  0
    6.7918    0.9236   -0.6325 C   0  0  0  0  0  0  0  0  0  0  0  0
    5.5472    0.0385   -0.4656 C   0  0  0  0  0  0  0  0  0  0  0  0
   -0.2702   -2.2073   -0.6701 C   0  0  0  0  0  0  0  0  0  0  0  0
   -1.4144   -1.4783   -0.3387 C   0  0  0  0  0  0  0  0  0  0  0  0
   -3.6745    3.1917   -3.6009 O   0  0  0  0  0  0  0  0  0  0  0  0
   -4.8000    4.0903   -3.6714 C   0  0  0  0  0  0  0  0  0  0  0  0
   -5.5465    4.1681   -2.4402 O   0  0  0  0  0  0  0  0  0  0  0  0
   -4.8059   -3.6977    3.1239 H   0  0  0  0  0  0  0  0  0  0  0  0
   -3.3201   -4.1613    2.2049 H   0  0  0  0  0  0  0  0  0  0  0  0
   -4.8199   -3.7642    1.3585 H   0  0  0  0  0  0  0  0  0  0  0  0
   -2.8796   -3.3726    4.3970 H   0  0  0  0  0  0  0  0  0  0  0  0
   -1.4450   -2.2913    6.0522 H   0  0  0  0  0  0  0  0  0  0  0  0
   -0.7455    0.0703    5.7671 H   0  0  0  0  0  0  0  0  0  0  0  0
   -1.4975    1.3519    3.7922 H   0  0  0  0  0  0  0  0  0  0  0  0
   -5.9838    3.4396    0.1660 H   0  0  0  0  0  0  0  0  0  0  0  0
   -2.0969    1.4167   -2.2575 H   0  0  0  0  0  0  0  0  0  0  0  0
    0.0867    1.3813    0.7328 H   0  0  0  0  0  0  0  0  0  0  0  0
    2.0862    0.1136    0.1519 H   0  0  0  0  0  0  0  0  0  0  0  0
    3.4569   -1.5622    0.3677 H   0  0  0  0  0  0  0  0  0  0  0  0
    3.9635   -2.9889   -0.5056 H   0  0  0  0  0  0  0  0  0  0  0  0
    3.3021   -0.3661   -1.9571 H   0  0  0  0  0  0  0  0  0  0  0  0
    3.8195   -1.8716   -2.6742 H   0  0  0  0  0  0  0  0  0  0  0  0
    5.3373   -0.5925   -3.7497 H   0  0  0  0  0  0  0  0  0  0  0  0
    6.9074   -0.5957   -2.9707 H   0  0  0  0  0  0  0  0  0  0  0  0
    4.8719    1.6871   -2.7157 H   0  0  0  0  0  0  0  0  0  0  0  0
    6.2992    1.6888   -3.7524 H   0  0  0  0  0  0  0  0  0  0  0  0
    7.6936    0.3147   -0.7659 H   0  0  0  0  0  0  0  0  0  0  0  0
    6.9420    1.5331    0.2643 H   0  0  0  0  0  0  0  0  0  0  0  0
    4.6798    0.6994   -0.3397 H   0  0  0  0  0  0  0  0  0  0  0  0
    5.6509   -0.5627    0.4438 H   0  0  0  0  0  0  0  0  0  0  0  0
   -0.3729   -3.2152   -1.0641 H   0  0  0  0  0  0  0  0  0  0  0  0
   -2.3964   -1.9254   -0.4731 H   0  0  0  0  0  0  0  0  0  0  0  0
   -5.4714    3.7506   -4.4682 H   0  0  0  0  0  0  0  0  0  0  0  0
   -4.4338    5.0920   -3.9234 H   0  0  0  0  0  0  0  0  0  0  0  0
  1  2  1  0
  2  3  1  0
  3  4  2  0
  4  5  1  0
  5  6  2  0
  6  7  1  0
  7  8  2  0
  8  9  1  0
  9 10  1  0
 10 11  1  0
 11 12  2  0
 12 13  1  0
 13 14  2  0
 14 15  1  0
 15 16  2  0
 16 17  1  0
 17 18  1  0
 18 19  2  0
 19 20  1  0
 20 21  2  0
 21 22  1  0
 22 23  1  0
 23 24  1  0
 24 25  1  0
 25 26  1  0
 26 27  1  0
 27 28  1  0
 28 29  1  0
 29 30  1  0
 21 31  1  0
 31 32  2  0
 14 33  1  0
 33 34  1  0
 34 35  1  0
  8  3  1  0
 17  9  2  0
 32 18  1  0
 16 11  1  0
 30 25  1  0
 35 13  1  0
  1 36  1  0
  1 37  1  0
  1 38  1  0
  4 39  1  0
  5 40  1  0
  6 41  1  0
  7 42  1  0
 12 43  1  0
 15 44  1  0
 19 45  1  0
 20 46  1  0
 23 47  1  0
 23 48  1  0
 24 49  1  0
 24 50  1  0
 26 51  1  0
 26 52  1  0
 27 53  1  0
 27 54  1  0
 29 55  1  0
 29 56  1  0
 30 57  1  0
 30 58  1  0
 31 59  1  0
 32 60  1  0
 34 61  1  0
 34 62  1  0
M  END
$$$$
