
     RDKit          3D

 60 66  0  0  0  0  0  0  0  0999 V2000
    0.6379    3.5121    3.2580 O   0  0  0  0  0  0  0  0  0  0  0  0
    0.0115    3.5921    2.2115 C   0  0  0  0  0  0  0  0  0  0  0  0
   -0.8819    4.6124    1.8866 N   0  0  0  0  0  0  0  0  0  0  0  0
   -1.3515    4.4725    0.5873 C   0  0  0  0  0  0  0  0  0  0  0  0
   -2.2192    5.3192   -0.0711 C   0  0  0  0  0  0  0  0  0  0  0  0
   -2.5620    4.9914   -1.3841 C   0  0  0  0  0  0  0  0  0  0  0  0
   -2.0355    3.8413   -1.9986 C   0  0  0  0  0  0  0  0  0  0  0  0
   -1.1552    2.9991   -1.3115 C   0  0  0  0  0  0  0  0  0  0  0  0
   -0.8157    3.3245   -0.0077 C   0  0  0  0  0  0  0  0  0  0  0  0
    0.0806    2.6388    0.9837 C   0  0  0  0  0  0  0  0  0  0  0  0
    1.5032    2.4265    0.5419 N   0  0  0  0  0  0  0  0  0  0  0  0
    1.7661    0.9401    0.4023 C   0  0  2  0  0  0  0  0  0  0  0  0
    2.0913    0.6143   -1.0655 C   0  0  0  0  0  0  0  0  0  0  0  0
    2.5213   -0.8062   -1.2912 C   0  0  0  0  0  0  0  0  0  0  0  0
    1.7854   -1.7871   -1.9282 C   0  0  0  0  0  0  0  0  0  0  0  0
    2.5111   -2.9464   -1.9210 N   0  0  0  0  0  0  0  0  0  0  0  0
    3.7153   -2.7471   -1.2883 C   0  0  0  0  0  0  0  0  0  0  0  0
    4.7621   -3.6434   -1.0430 C   0  0  0  0  0  0  0  0  0  0  0  0
    5.8897   -3.1560   -0.3765 C   0  0  0  0  0  0  0  0  0  0  0  0
    5.9659   -1.8248    0.0244 C   0  0  0  0  0  0  0  0  0  0  0  0
    4.9100   -0.9419   -0.2289 C   0  0  0  0  0  0  0  0  0  0  0  0
    3.7584   -1.4090   -0.8950 C   0  0  0  0  0  0  0  0  0  0  0  0
    0.5232    0.3256    0.9204 C   0  0  0  0  0  0  0  0  0  0  0  0
   -0.4385    1.2898    1.2387 C   0  0  0  0  0  0  0  0  0  0  0  0
   -1.5595    0.6540    1.7072 C   0  0  0  0  0  0  0  0  0  0  0  0
   -2.7357    1.1080    2.1224 O   0  0  0  0  0  0  0  0  0  0  0  0
   -1.2742   -0.7020    1.6864 N   0  0  0  0  0  0  0  0  0  0  0  0
   -2.1850   -1.7540    2.1177 C   0  0  0  0  0  0  0  0  0  0  0  0
   -3.0223   -2.2709    0.9724 C   0  0  0  0  0  0  0  0  0  0  0  0
   -2.5618   -3.3262    0.1713 C   0  0  0  0  0  0  0  0  0  0  0  0
   -3.3323   -3.7978   -0.8926 C   0  0  0  0  0  0  0  0  0  0  0  0
   -4.5682   -3.2166   -1.1703 C   0  0  0  0  0  0  0  0  0  0  0  0
   -5.0329   -2.1612   -0.3878 C   0  0  0  0  0  0  0  0  0  0  0  0
   -4.2634   -1.6887    0.6766 C   0  0  0  0  0  0  0  0  0  0  0  0
    0.0214   -0.9090    1.2400 C   0  0  0  0  0  0  0  0  0  0  0  0
    0.5458   -2.1270    1.1839 O   0  0  0  0  0  0  0  0  0  0  0  0
   -1.0807    5.3823    2.5078 H   0  0  0  0  0  0  0  0  0  0  0  0
   -2.6221    6.2075    0.4019 H   0  0  0  0  0  0  0  0  0  0  0  0
   -3.2425    5.6315   -1.9416 H   0  0  0  0  0  0  0  0  0  0  0  0
   -2.3160    3.6030   -3.0225 H   0  0  0  0  0  0  0  0  0  0  0  0
   -0.7577    2.1097   -1.7891 H   0  0  0  0  0  0  0  0  0  0  0  0
    2.0697    2.7238    1.3411 H   0  0  0  0  0  0  0  0  0  0  0  0
    2.6088    0.6789    1.0538 H   0  0  0  0  0  0  0  0  0  0  0  0
    2.9018    1.2693   -1.4125 H   0  0  0  0  0  0  0  0  0  0  0  0
    1.2278    0.8309   -1.7070 H   0  0  0  0  0  0  0  0  0  0  0  0
    0.7991   -1.7571   -2.3744 H   0  0  0  0  0  0  0  0  0  0  0  0
    2.2092   -3.8253   -2.3186 H   0  0  0  0  0  0  0  0  0  0  0  0
    4.7086   -4.6802   -1.3586 H   0  0  0  0  0  0  0  0  0  0  0  0
    6.7212   -3.8267   -0.1723 H   0  0  0  0  0  0  0  0  0  0  0  0
    6.8545   -1.4653    0.5378 H   0  0  0  0  0  0  0  0  0  0  0  0
    4.9861    0.0950    0.0849 H   0  0  0  0  0  0  0  0  0  0  0  0
   -2.7527    2.0685    1.9639 H   0  0  0  0  0  0  0  0  0  0  0  0
   -1.5939   -2.5608    2.5665 H   0  0  0  0  0  0  0  0  0  0  0  0
   -2.8184   -1.3555    2.9189 H   0  0  0  0  0  0  0  0  0  0  0  0
   -1.5929   -3.7796    0.3723 H   0  0  0  0  0  0  0  0  0  0  0  0
   -2.9658   -4.6161   -1.5061 H   0  0  0  0  0  0  0  0  0  0  0  0
   -5.1673   -3.5825   -1.9998 H   0  0  0  0  0  0  0  0  0  0  0  0
   -5.9927   -1.7017   -0.6078 H   0  0  0  0  0  0  0  0  0  0  0  0
   -4.6316   -0.8562    1.2731 H   0  0  0  0  0  0  0  0  0  0  0  0
    1.4420   -2.0399    0.8070 H   0  0  0  0  0  0  0  0  0  0  0  0
  1  2  2  0
  2  3  1  0
  3  4  1  0
  4  5  2  0
  5  6  1  0
  6  7  2  0
  7  8  1  0
  8  9  2  0
  9 10  1  0
 10 11  1  0
 11 12  1  0
 12 13  1  0
 13 14  1  0
 14 15  2  0
 15 16  1  0
 16 17  1  0
 17 18  2  0
 18 19  1  0
 19 20  2  0
 20 21  1  0
 21 22  2  0
 12 23  1  0
 23 24  1  0
 24 25  2  0
 25 26  1  0
 25 27  1  0
 27 28  1  0
 28 29  1  0
 29 30  2  0
 30 31  1  0
 31 32  2  0
 32 33  1  0
 33 34  2  0
 27 35  1  0
 35 36  1  0
 10  2  1  0
 22 14  1  0
 35 23  2  0
  9  4  1  0
 24 10  1  0
 34 29  1  0
 22 17  1  0
  3 37  1  0
  5 38  1  0
  6 39  1  0
  7 40  1  0
  8 41  1  0
 11 42  1  0
 12 43  1  1
 13 44  1  0
 13 45  1  0
 15 46  1  0
 16 47  1  0
 18 48  1  0
 19 49  1  0
 20 50  1  0
 21 51  1  0
 26 52  1  0
 28 53  1  0
 28 54  1  0
 30 55  1  0
 31 56  1  0
 32 57  1  0
 33 58  1  0
 34 59  1  0
 36 60  1  0
M  END
$$$$
