
     RDKit          3D

 48 51  0  0  0  0  0  0  0  0999 V2000
    3.2764    1.6288   -2.2561 C   0  0  0  0  0  0  0  0  0  0  0  0
    3.5474    1.5758   -0.7600 C   0  0  0  0  0  0  0  0  0  0  0  0
    2.9844    0.3631   -0.1731 N   0  0  0  0  0  0  0  0  0  0  0  0
    1.7054    0.1887    0.3657 C   0  0  0  0  0  0  0  0  0  0  0  0
    0.7249    1.1124    0.4000 C   0  0  0  0  0  0  0  0  0  0  0  0
   -0.6232    0.9398    0.9680 C   0  0  0  0  0  0  0  0  0  0  0  0
   -0.7240    0.9579    2.3549 C   0  0  0  0  0  0  0  0  0  0  0  0
   -1.9510    0.8061    2.9544 C   0  0  0  0  0  0  0  0  0  0  0  0
   -3.0858    0.7167    2.1652 C   0  0  0  0  0  0  0  0  0  0  0  0
   -4.3065    0.5783    2.8331 C   0  0  0  0  0  0  0  0  0  0  0  0
   -5.4930    0.5188    2.1267 C   0  0  0  0  0  0  0  0  0  0  0  0
   -5.4668    0.6426    0.7472 C   0  0  0  0  0  0  0  0  0  0  0  0
   -4.2548    0.8022    0.0299 C   0  0  0  0  0  0  0  0  0  0  0  0
   -4.4636    1.0683   -1.4401 C   0  0  0  0  0  0  0  0  0  0  0  0
   -3.0083    0.7763    0.7279 C   0  0  0  0  0  0  0  0  0  0  0  0
   -1.7330    0.8051    0.1688 N   0  0  0  0  0  4  0  0  0  0  0  0
   -1.4994    0.5391   -1.2832 C   0  0  0  0  0  0  0  0  0  0  0  0
   -1.6574   -0.9423   -1.5771 C   0  0  0  0  0  0  0  0  0  0  0  0
    1.4153   -1.4530    1.0082 S   0  0  0  0  0  0  0  0  0  0  0  0
    3.0603   -1.9093    0.4813 C   0  0  0  0  0  0  0  0  0  0  0  0
    3.6363   -3.1641    0.6245 C   0  0  0  0  0  0  0  0  0  0  0  0
    4.9311   -3.3558    0.1475 C   0  0  0  0  0  0  0  0  0  0  0  0
    5.6218   -2.3010   -0.4609 C   0  0  0  0  0  0  0  0  0  0  0  0
    5.0295   -1.0386   -0.5992 C   0  0  0  0  0  0  0  0  0  0  0  0
    3.7389   -0.8285   -0.1248 C   0  0  0  0  0  0  0  0  0  0  0  0
    3.7341    0.7808   -2.7755 H   0  0  0  0  0  0  0  0  0  0  0  0
    3.6863    2.5496   -2.6826 H   0  0  0  0  0  0  0  0  0  0  0  0
    2.2015    1.6069   -2.4642 H   0  0  0  0  0  0  0  0  0  0  0  0
    3.1112    2.4629   -0.2857 H   0  0  0  0  0  0  0  0  0  0  0  0
    4.6228    1.6577   -0.5662 H   0  0  0  0  0  0  0  0  0  0  0  0
    0.8994    2.1027   -0.0103 H   0  0  0  0  0  0  0  0  0  0  0  0
    0.1640    1.0595    2.9782 H   0  0  0  0  0  0  0  0  0  0  0  0
   -2.0079    0.7809    4.0426 H   0  0  0  0  0  0  0  0  0  0  0  0
   -4.3528    0.5145    3.9207 H   0  0  0  0  0  0  0  0  0  0  0  0
   -6.4407    0.4065    2.6507 H   0  0  0  0  0  0  0  0  0  0  0  0
   -6.4254    0.6372    0.2247 H   0  0  0  0  0  0  0  0  0  0  0  0
   -5.5255    1.1900   -1.6863 H   0  0  0  0  0  0  0  0  0  0  0  0
   -3.9936    2.0145   -1.7245 H   0  0  0  0  0  0  0  0  0  0  0  0
   -4.1091    0.2395   -2.0552 H   0  0  0  0  0  0  0  0  0  0  0  0
   -2.1397    1.1800   -1.8793 H   0  0  0  0  0  0  0  0  0  0  0  0
   -0.4964    0.8527   -1.5793 H   0  0  0  0  0  0  0  0  0  0  0  0
   -2.6344   -1.3269   -1.2732 H   0  0  0  0  0  0  0  0  0  0  0  0
   -0.9029   -1.5294   -1.0474 H   0  0  0  0  0  0  0  0  0  0  0  0
   -1.5357   -1.1284   -2.6486 H   0  0  0  0  0  0  0  0  0  0  0  0
    3.0978   -3.9799    1.0958 H   0  0  0  0  0  0  0  0  0  0  0  0
    5.4089   -4.3282    0.2474 H   0  0  0  0  0  0  0  0  0  0  0  0
    6.6327   -2.4650   -0.8301 H   0  0  0  0  0  0  0  0  0  0  0  0
    5.6006   -0.2524   -1.0806 H   0  0  0  0  0  0  0  0  0  0  0  0
  1  2  1  0
  2  3  1  0
  3  4  1  0
  4  5  2  3
  5  6  1  0
  6  7  2  0
  7  8  1  0
  8  9  2  0
  9 10  1  0
 10 11  2  0
 11 12  1  0
 12 13  2  0
 13 14  1  0
 13 15  1  0
 15 16  2  0
 16 17  1  0
 17 18  1  0
  4 19  1  0
 19 20  1  0
 20 21  2  0
 21 22  1  0
 22 23  2  0
 23 24  1  0
 24 25  2  0
 25  3  1  0
 16  6  1  0
 25 20  1  0
 15  9  1  0
  1 26  1  0
  1 27  1  0
  1 28  1  0
  2 29  1  0
  2 30  1  0
  5 31  1  0
  7 32  1  0
  8 33  1  0
 10 34  1  0
 11 35  1  0
 12 36  1  0
 14 37  1  0
 14 38  1  0
 14 39  1  0
 17 40  1  0
 17 41  1  0
 18 42  1  0
 18 43  1  0
 18 44  1  0
 21 45  1  0
 22 46  1  0
 23 47  1  0
 24 48  1  0
M  CHG  1  16   1
M  END
$$$$
