
     RDKit          3D

 33 34  0  0  0  0  0  0  0  0999 V2000
   -4.3745   -0.0226   -3.0185 C   0  0  0  0  0  0  0  0  0  0  0  0
   -3.6998   -0.2913   -1.7056 C   0  0  0  0  0  0  0  0  0  0  0  0
   -4.4261   -0.7975   -0.6222 C   0  0  0  0  0  0  0  0  0  0  0  0
   -3.7892   -1.0860    0.5875 C   0  0  0  0  0  0  0  0  0  0  0  0
   -2.4161   -0.8730    0.7219 C   0  0  0  0  0  0  0  0  0  0  0  0
   -1.8028   -1.2013    1.8983 O   0  0  0  0  0  0  0  0  0  0  0  0
   -1.6753   -0.3639   -0.3490 C   0  0  0  0  0  0  0  0  0  0  0  0
   -0.2120   -0.1117   -0.2803 C   0  0  0  0  0  0  0  0  0  0  0  0
    0.4739   -0.3056   -1.2847 O   0  0  0  0  0  0  0  0  0  0  0  0
    0.3893    0.3752    1.0137 C   0  0  0  0  0  0  0  0  0  0  0  0
    1.4985    1.3676    0.7769 C   0  0  0  0  0  0  0  0  0  0  0  0
    1.2939    2.5365    0.4588 O   0  0  0  0  0  0  0  0  0  0  0  0
    2.8876    0.8824    0.8647 C   0  0  0  0  0  0  0  0  0  0  0  0
    3.6229    0.8184   -0.3250 C   0  0  0  0  0  0  0  0  0  0  0  0
    4.9414    0.3643   -0.3023 C   0  0  0  0  0  0  0  0  0  0  0  0
    5.5263   -0.0161    0.9056 C   0  0  0  0  0  0  0  0  0  0  0  0
    4.7955    0.0615    2.0942 C   0  0  0  0  0  0  0  0  0  0  0  0
    3.4733    0.5148    2.0786 C   0  0  0  0  0  0  0  0  0  0  0  0
    2.6355    0.6254    3.5840 Cl  0  0  0  0  0  0  0  0  0  0  0  0
   -2.3199   -0.0930   -1.5658 C   0  0  0  0  0  0  0  0  0  0  0  0
   -4.3365   -0.9167   -3.6484 H   0  0  0  0  0  0  0  0  0  0  0  0
   -5.4217    0.2607   -2.8690 H   0  0  0  0  0  0  0  0  0  0  0  0
   -3.8869    0.8041   -3.5458 H   0  0  0  0  0  0  0  0  0  0  0  0
   -5.4955   -0.9766   -0.7168 H   0  0  0  0  0  0  0  0  0  0  0  0
   -4.3807   -1.4846    1.4068 H   0  0  0  0  0  0  0  0  0  0  0  0
   -2.4626   -1.5697    2.5111 H   0  0  0  0  0  0  0  0  0  0  0  0
    0.7569   -0.4962    1.5638 H   0  0  0  0  0  0  0  0  0  0  0  0
   -0.3558    0.8848    1.6335 H   0  0  0  0  0  0  0  0  0  0  0  0
    3.1643    1.1138   -1.2674 H   0  0  0  0  0  0  0  0  0  0  0  0
    5.5113    0.3085   -1.2271 H   0  0  0  0  0  0  0  0  0  0  0  0
    6.5555   -0.3677    0.9226 H   0  0  0  0  0  0  0  0  0  0  0  0
    5.2677   -0.2266    3.0304 H   0  0  0  0  0  0  0  0  0  0  0  0
   -1.7386    0.2820   -2.4077 H   0  0  0  0  0  0  0  0  0  0  0  0
  1  2  1  0
  2  3  2  0
  3  4  1  0
  4  5  2  0
  5  6  1  0
  5  7  1  0
  7  8  1  0
  8  9  2  0
  8 10  1  0
 10 11  1  0
 11 12  2  0
 11 13  1  0
 13 14  2  0
 14 15  1  0
 15 16  2  0
 16 17  1  0
 17 18  2  0
 18 19  1  0
  7 20  2  0
 20  2  1  0
 18 13  1  0
  1 21  1  0
  1 22  1  0
  1 23  1  0
  3 24  1  0
  4 25  1  0
  6 26  1  0
 10 27  1  0
 10 28  1  0
 14 29  1  0
 15 30  1  0
 16 31  1  0
 17 32  1  0
 20 33  1  0
M  END
$$$$
