
     RDKit          3D

 53 58  0  0  0  0  0  0  0  0999 V2000
   -0.5822    0.5000   -1.6942 O   0  0  0  0  0  0  0  0  0  0  0  0
   -1.3166    0.0075   -0.8385 C   0  0  0  0  0  0  0  0  0  0  0  0
   -0.7005   -0.7885    0.3369 C   0  0  0  0  0  0  0  0  0  0  0  0
    0.7461   -0.5223    0.4797 N   0  0  0  0  0  4  0  0  0  0  0  0
    1.7704   -1.4672    0.5065 C   0  0  0  0  0  0  0  0  0  0  0  0
    2.9915   -0.8092    0.6191 C   0  0  0  0  0  0  0  0  0  0  0  0
    4.4164   -1.4777    0.6635 C   0  0  0  0  0  0  0  0  0  0  0  0
    4.5388   -2.8713    0.6927 C   0  0  0  0  0  0  0  0  0  0  0  0
    5.8072   -3.4647    0.7457 C   0  0  0  0  0  0  0  0  0  0  0  0
    6.9619   -2.6734    0.7644 C   0  0  0  0  0  0  0  0  0  0  0  0
    8.4911   -3.4704    0.8365 Cl  0  0  0  0  0  0  0  0  0  0  0  0
    6.8409   -1.2825    0.7232 C   0  0  0  0  0  0  0  0  0  0  0  0
    8.2139   -0.2300    0.7336 Cl  0  0  0  0  0  0  0  0  0  0  0  0
    5.5706   -0.6880    0.6703 C   0  0  0  0  0  0  0  0  0  0  0  0
    2.6298    0.5250    0.6821 N   0  0  0  0  0  0  0  0  0  0  0  0
    1.3127    0.6809    0.5596 C   0  0  0  0  0  0  0  0  0  0  0  0
    0.8881    2.1015    0.6050 C   0  0  0  0  0  0  0  0  0  0  0  0
    2.1573    2.8008    1.1344 C   0  0  0  0  0  0  0  0  0  0  0  0
    3.3143    1.8060    0.8366 C   0  0  0  0  0  0  0  0  0  0  0  0
   -2.7020    0.2140   -0.7145 N   0  0  0  0  0  0  0  0  0  0  0  0
   -3.2946    1.5180   -0.9134 C   0  0  0  0  0  0  0  0  0  0  0  0
   -2.6337    2.5099   -1.6657 C   0  0  0  0  0  0  0  0  0  0  0  0
   -3.1817    3.7857   -1.8516 C   0  0  0  0  0  0  0  0  0  0  0  0
   -4.4120    4.1065   -1.2896 C   0  0  0  0  0  0  0  0  0  0  0  0
   -5.0809    3.1547   -0.5274 C   0  0  0  0  0  0  0  0  0  0  0  0
   -4.5310    1.8741   -0.3326 C   0  0  0  0  0  0  0  0  0  0  0  0
   -5.4229    0.8026    0.7701 S   0  0  0  0  0  0  0  0  0  0  0  0
   -4.8203   -0.7610    0.2017 C   0  0  0  0  0  0  0  0  0  0  0  0
   -5.6266   -1.8873    0.4431 C   0  0  0  0  0  0  0  0  0  0  0  0
   -5.2299   -3.1542    0.0132 C   0  0  0  0  0  0  0  0  0  0  0  0
   -4.0308   -3.3008   -0.6773 C   0  0  0  0  0  0  0  0  0  0  0  0
   -3.2203   -2.1844   -0.9097 C   0  0  0  0  0  0  0  0  0  0  0  0
   -3.5813   -0.8987   -0.4464 C   0  0  0  0  0  0  0  0  0  0  0  0
   -0.8331   -1.8618    0.1909 H   0  0  0  0  0  0  0  0  0  0  0  0
   -1.1714   -0.4856    1.2794 H   0  0  0  0  0  0  0  0  0  0  0  0
    1.4987   -2.5069    0.4256 H   0  0  0  0  0  0  0  0  0  0  0  0
    3.6700   -3.5283    0.6888 H   0  0  0  0  0  0  0  0  0  0  0  0
    5.8922   -4.5501    0.7757 H   0  0  0  0  0  0  0  0  0  0  0  0
    5.5151    0.3925    0.6194 H   0  0  0  0  0  0  0  0  0  0  0  0
    0.6578    2.4012   -0.4183 H   0  0  0  0  0  0  0  0  0  0  0  0
    0.0261    2.1967    1.2686 H   0  0  0  0  0  0  0  0  0  0  0  0
    2.3201    3.7851    0.6877 H   0  0  0  0  0  0  0  0  0  0  0  0
    2.0692    2.9325    2.2204 H   0  0  0  0  0  0  0  0  0  0  0  0
    4.0251    1.7768    1.6669 H   0  0  0  0  0  0  0  0  0  0  0  0
    3.8208    2.0514   -0.1048 H   0  0  0  0  0  0  0  0  0  0  0  0
   -1.6930    2.3211   -2.1790 H   0  0  0  0  0  0  0  0  0  0  0  0
   -2.6536    4.5195   -2.4592 H   0  0  0  0  0  0  0  0  0  0  0  0
   -4.8481    5.0932   -1.4382 H   0  0  0  0  0  0  0  0  0  0  0  0
   -6.0436    3.4200   -0.0827 H   0  0  0  0  0  0  0  0  0  0  0  0
   -6.5857   -1.7826    0.9577 H   0  0  0  0  0  0  0  0  0  0  0  0
   -5.8745   -4.0147    0.1900 H   0  0  0  0  0  0  0  0  0  0  0  0
   -3.7452   -4.2764   -1.0663 H   0  0  0  0  0  0  0  0  0  0  0  0
   -2.3309   -2.3391   -1.5261 H   0  0  0  0  0  0  0  0  0  0  0  0
  1  2  2  0
  2  3  1  0
  3  4  1  0
  4  5  1  0
  5  6  2  0
  6  7  1  0
  7  8  2  0
  8  9  1  0
  9 10  2  0
 10 11  1  0
 10 12  1  0
 12 13  1  0
 12 14  2  0
  6 15  1  0
 15 16  1  0
 16 17  1  0
 17 18  1  0
 18 19  1  0
  2 20  1  0
 20 21  1  0
 21 22  2  0
 22 23  1  0
 23 24  2  0
 24 25  1  0
 25 26  2  0
 26 27  1  0
 27 28  1  0
 28 29  2  0
 29 30  1  0
 30 31  2  0
 31 32  1  0
 32 33  2  0
 16  4  2  0
 33 20  1  0
 14  7  1  0
 19 15  1  0
 26 21  1  0
 33 28  1  0
  3 34  1  0
  3 35  1  0
  5 36  1  0
  8 37  1  0
  9 38  1  0
 14 39  1  0
 17 40  1  0
 17 41  1  0
 18 42  1  0
 18 43  1  0
 19 44  1  0
 19 45  1  0
 22 46  1  0
 23 47  1  0
 24 48  1  0
 25 49  1  0
 29 50  1  0
 30 51  1  0
 31 52  1  0
 32 53  1  0
M  CHG  1   4   1
M  END
$$$$
