
     RDKit          3D

 36 37  0  0  0  0  0  0  0  0999 V2000
   -1.5784   -2.6238    1.5088 C   0  0  0  0  0  0  0  0  0  0  0  0
   -3.0669   -1.7447    2.0515 S   0  0  0  0  0  0  0  0  0  0  0  0
   -3.5655   -0.9443    0.5286 C   0  0  0  0  0  0  0  0  0  0  0  0
   -4.8555   -1.2558    0.0675 C   0  0  0  0  0  0  0  0  0  0  0  0
   -5.3587   -0.6964   -1.1110 C   0  0  0  0  0  0  0  0  0  0  0  0
   -4.5850    0.1959   -1.8466 C   0  0  0  0  0  0  0  0  0  0  0  0
   -3.3075    0.5297   -1.4022 C   0  0  0  0  0  0  0  0  0  0  0  0
   -2.7967   -0.0389   -0.2212 C   0  0  0  0  0  0  0  0  0  0  0  0
   -1.4395    0.3870    0.1932 C   0  0  0  0  0  0  0  0  0  0  0  0
   -1.3040    0.9922    1.2461 O   0  0  0  0  0  0  0  0  0  0  0  0
   -0.4586    0.0341   -0.7173 N   0  0  0  0  0  0  0  0  0  0  0  0
    0.9266    0.2813   -0.6242 C   0  0  0  0  0  0  0  0  0  0  0  0
    1.7301   -0.1914   -1.6651 C   0  0  0  0  0  0  0  0  0  0  0  0
    3.1125    0.0099   -1.6458 C   0  0  0  0  0  0  0  0  0  0  0  0
    3.7231    0.6880   -0.5831 C   0  0  0  0  0  0  0  0  0  0  0  0
    5.2131    0.8911   -0.5938 C   0  0  0  0  0  0  0  0  0  0  0  0
    2.9220    1.1721    0.4683 C   0  0  0  0  0  0  0  0  0  0  0  0
    3.5214    1.9095    1.6355 C   0  0  0  0  0  0  0  0  0  0  0  0
    1.5301    0.9597    0.4354 C   0  0  0  0  0  0  0  0  0  0  0  0
   -1.3286   -3.3851    2.2531 H   0  0  0  0  0  0  0  0  0  0  0  0
   -0.7282   -1.9441    1.4269 H   0  0  0  0  0  0  0  0  0  0  0  0
   -1.7464   -3.1219    0.5499 H   0  0  0  0  0  0  0  0  0  0  0  0
   -5.4876   -1.9422    0.6293 H   0  0  0  0  0  0  0  0  0  0  0  0
   -6.3619   -0.9519   -1.4448 H   0  0  0  0  0  0  0  0  0  0  0  0
   -4.9834    0.6437   -2.7539 H   0  0  0  0  0  0  0  0  0  0  0  0
   -2.7203    1.2551   -1.9618 H   0  0  0  0  0  0  0  0  0  0  0  0
   -0.7597   -0.4812   -1.5348 H   0  0  0  0  0  0  0  0  0  0  0  0
    1.2970   -0.7229   -2.5078 H   0  0  0  0  0  0  0  0  0  0  0  0
    3.7113   -0.3692   -2.4713 H   0  0  0  0  0  0  0  0  0  0  0  0
    5.4501    1.9585   -0.6404 H   0  0  0  0  0  0  0  0  0  0  0  0
    5.6647    0.4546    0.3026 H   0  0  0  0  0  0  0  0  0  0  0  0
    5.6780    0.4105   -1.4612 H   0  0  0  0  0  0  0  0  0  0  0  0
    2.7525    2.2451    2.3395 H   0  0  0  0  0  0  0  0  0  0  0  0
    4.2088    1.2573    2.1832 H   0  0  0  0  0  0  0  0  0  0  0  0
    4.0580    2.7983    1.2891 H   0  0  0  0  0  0  0  0  0  0  0  0
    0.9329    1.3402    1.2592 H   0  0  0  0  0  0  0  0  0  0  0  0
  1  2  1  0
  2  3  1  0
  3  4  2  0
  4  5  1  0
  5  6  2  0
  6  7  1  0
  7  8  2  0
  8  9  1  0
  9 10  2  0
  9 11  1  0
 11 12  1  0
 12 13  2  0
 13 14  1  0
 14 15  2  0
 15 16  1  0
 15 17  1  0
 17 18  1  0
 17 19  2  0
  8  3  1  0
 19 12  1  0
  1 20  1  0
  1 21  1  0
  1 22  1  0
  4 23  1  0
  5 24  1  0
  6 25  1  0
  7 26  1  0
 11 27  1  0
 13 28  1  0
 14 29  1  0
 16 30  1  0
 16 31  1  0
 16 32  1  0
 18 33  1  0
 18 34  1  0
 18 35  1  0
 19 36  1  0
M  END
$$$$
