
     RDKit          3D

 36 38  0  0  0  0  0  0  0  0999 V2000
   -3.7098    0.6192   -2.6560 C   0  0  0  0  0  0  0  0  0  0  0  0
   -2.7760    0.2956   -1.5322 C   0  0  0  0  0  0  0  0  0  0  0  0
   -1.4581    0.4993   -1.7361 N   0  0  0  0  0  0  0  0  0  0  0  0
   -0.6376    0.1830   -0.7026 C   0  0  0  0  0  0  0  0  0  0  0  0
    1.1083    0.4542   -0.9926 S   0  0  0  0  0  6  0  0  0  0  0  0
    1.3119    1.8896   -1.1286 O   0  0  0  0  0  0  0  0  0  0  0  0
    1.5291   -0.4736   -2.0330 O   0  0  0  0  0  0  0  0  0  0  0  0
    1.8530   -0.0666    0.5472 C   0  0  0  0  0  0  0  0  0  0  0  0
    3.3515    0.1017    0.4687 C   0  0  0  0  0  0  0  0  0  0  0  0
    3.9542    1.3080    0.8569 C   0  0  0  0  0  0  0  0  0  0  0  0
    5.3403    1.4640    0.7817 C   0  0  0  0  0  0  0  0  0  0  0  0
    6.1313    0.4167    0.3157 C   0  0  0  0  0  0  0  0  0  0  0  0
    7.8387    0.6088    0.2254 Cl  0  0  0  0  0  0  0  0  0  0  0  0
    5.5477   -0.7844   -0.0798 C   0  0  0  0  0  0  0  0  0  0  0  0
    4.1617   -0.9415   -0.0051 C   0  0  0  0  0  0  0  0  0  0  0  0
   -0.9719   -0.3145    0.5080 N   0  0  0  0  0  0  0  0  0  0  0  0
   -2.2903   -0.4813    0.6455 C   0  0  0  0  0  0  0  0  0  0  0  0
   -3.2308   -0.1921   -0.3299 C   0  0  0  0  0  0  0  0  0  0  0  0
   -4.6085   -0.5311    0.1271 C   0  0  0  0  0  0  0  0  0  0  0  0
   -4.4030   -0.6216    1.6475 C   0  0  0  0  0  0  0  0  0  0  0  0
   -2.9484   -1.0585    1.8676 C   0  0  0  0  0  0  0  0  0  0  0  0
   -4.2771   -0.2703   -2.9472 H   0  0  0  0  0  0  0  0  0  0  0  0
   -4.4056    1.4087   -2.3558 H   0  0  0  0  0  0  0  0  0  0  0  0
   -3.1564    0.9700   -3.5331 H   0  0  0  0  0  0  0  0  0  0  0  0
    1.5962   -1.1159    0.7236 H   0  0  0  0  0  0  0  0  0  0  0  0
    1.4431    0.5432    1.3587 H   0  0  0  0  0  0  0  0  0  0  0  0
    3.3486    2.1417    1.2087 H   0  0  0  0  0  0  0  0  0  0  0  0
    5.7936    2.4054    1.0805 H   0  0  0  0  0  0  0  0  0  0  0  0
    6.1628   -1.5985   -0.4536 H   0  0  0  0  0  0  0  0  0  0  0  0
    3.7196   -1.8811   -0.3328 H   0  0  0  0  0  0  0  0  0  0  0  0
   -4.9186   -1.4958   -0.2874 H   0  0  0  0  0  0  0  0  0  0  0  0
   -5.3414    0.2395   -0.1271 H   0  0  0  0  0  0  0  0  0  0  0  0
   -5.1196   -1.2957    2.1270 H   0  0  0  0  0  0  0  0  0  0  0  0
   -4.5499    0.3738    2.0897 H   0  0  0  0  0  0  0  0  0  0  0  0
   -2.5339   -0.6513    2.7935 H   0  0  0  0  0  0  0  0  0  0  0  0
   -2.8548   -2.1490    1.8596 H   0  0  0  0  0  0  0  0  0  0  0  0
  1  2  1  0
  2  3  2  0
  3  4  1  0
  4  5  1  0
  5  6  2  0
  5  7  2  0
  5  8  1  0
  8  9  1  0
  9 10  2  0
 10 11  1  0
 11 12  2  0
 12 13  1  0
 12 14  1  0
 14 15  2  0
  4 16  2  0
 16 17  1  0
 17 18  2  0
 18 19  1  0
 19 20  1  0
 20 21  1  0
 18  2  1  0
 15  9  1  0
 21 17  1  0
  1 22  1  0
  1 23  1  0
  1 24  1  0
  8 25  1  0
  8 26  1  0
 10 27  1  0
 11 28  1  0
 14 29  1  0
 15 30  1  0
 19 31  1  0
 19 32  1  0
 20 33  1  0
 20 34  1  0
 21 35  1  0
 21 36  1  0
M  END
$$$$
