
     RDKit          3D

 59 62  0  0  0  0  0  0  0  0999 V2000
    9.0384   -0.0020   -0.4904 C   0  0  0  0  0  0  0  0  0  0  0  0
    7.6313    0.2359   -0.0292 C   0  0  0  0  0  0  0  0  0  0  0  0
    7.0061    1.4632   -0.2624 C   0  0  0  0  0  0  0  0  0  0  0  0
    5.6820    1.6708    0.1355 C   0  0  0  0  0  0  0  0  0  0  0  0
    4.9580    0.6546    0.7810 C   0  0  0  0  0  0  0  0  0  0  0  0
    3.6044    0.9088    1.1637 N   0  0  0  0  0  0  0  0  0  0  0  0
    2.9576    1.9661    0.6025 N   0  0  0  0  0  0  0  0  0  0  0  0
    1.6810    1.8265    0.9625 C   0  0  0  0  0  0  0  0  0  0  0  0
    0.5694    2.6737    0.5504 C   0  0  0  0  0  0  0  0  0  0  0  0
    0.6804    3.6136   -0.2317 O   0  0  0  0  0  0  0  0  0  0  0  0
   -0.6501    2.2976    1.1512 N   0  0  0  0  0  0  0  0  0  0  0  0
   -1.8540    3.0604    0.8193 C   0  0  0  0  0  0  0  0  0  0  0  0
   -2.6340    2.4448   -0.3440 C   0  0  0  0  0  0  0  0  0  0  0  0
   -3.4895    3.0736   -0.9634 O   0  0  0  0  0  0  0  0  0  0  0  0
   -2.3971    1.1031   -0.5549 N   0  0  0  0  0  0  0  0  0  0  0  0
   -3.1383    0.3184   -1.5221 C   0  0  0  0  0  0  0  0  0  0  0  0
   -4.5292   -0.0770   -1.0069 C   0  0  0  0  0  0  0  0  0  0  0  0
   -5.2530   -1.1290   -1.8287 C   0  0  0  0  0  0  0  0  0  0  0  0
   -5.1219   -1.1522   -3.2295 C   0  0  0  0  0  0  0  0  0  0  0  0
   -5.7883   -2.1032   -4.0038 C   0  0  0  0  0  0  0  0  0  0  0  0
   -6.6130   -3.0408   -3.3947 C   0  0  0  0  0  0  0  0  0  0  0  0
   -6.7824   -3.0178   -2.0125 C   0  0  0  0  0  0  0  0  0  0  0  0
   -6.1245   -2.0610   -1.2194 C   0  0  0  0  0  0  0  0  0  0  0  0
   -6.3675   -2.0768    0.2666 C   0  0  0  0  0  0  0  0  0  0  0  0
   -0.8246    1.1967    2.0053 N   0  0  0  0  0  0  0  0  0  0  0  0
    0.1884    0.4523    2.3568 C   0  0  0  0  0  0  0  0  0  0  0  0
   -0.0640   -0.7061    3.2793 C   0  0  0  0  0  0  0  0  0  0  0  0
    1.5012    0.7558    1.8443 C   0  0  0  0  0  0  0  0  0  0  0  0
    2.7644    0.2282    2.0550 C   0  0  0  0  0  0  0  0  0  0  0  0
    3.2213   -0.7871    3.0391 C   0  0  0  0  0  0  0  0  0  0  0  0
    5.5731   -0.5863    0.9771 C   0  0  0  0  0  0  0  0  0  0  0  0
    6.8991   -0.7912    0.5752 C   0  0  0  0  0  0  0  0  0  0  0  0
    9.5560   -0.6965    0.1806 H   0  0  0  0  0  0  0  0  0  0  0  0
    9.6113    0.9312   -0.4971 H   0  0  0  0  0  0  0  0  0  0  0  0
    9.0347   -0.4217   -1.5012 H   0  0  0  0  0  0  0  0  0  0  0  0
    7.5406    2.2688   -0.7605 H   0  0  0  0  0  0  0  0  0  0  0  0
    5.2296    2.6418   -0.0620 H   0  0  0  0  0  0  0  0  0  0  0  0
   -2.5050    3.0877    1.6996 H   0  0  0  0  0  0  0  0  0  0  0  0
   -1.5825    4.0852    0.5473 H   0  0  0  0  0  0  0  0  0  0  0  0
   -1.8390    0.6311    0.1515 H   0  0  0  0  0  0  0  0  0  0  0  0
   -3.2182    0.9051   -2.4435 H   0  0  0  0  0  0  0  0  0  0  0  0
   -2.5342   -0.5709   -1.7321 H   0  0  0  0  0  0  0  0  0  0  0  0
   -5.1706    0.8097   -0.9437 H   0  0  0  0  0  0  0  0  0  0  0  0
   -4.3970   -0.4411    0.0177 H   0  0  0  0  0  0  0  0  0  0  0  0
   -4.5045   -0.4220   -3.7458 H   0  0  0  0  0  0  0  0  0  0  0  0
   -5.6678   -2.1048   -5.0837 H   0  0  0  0  0  0  0  0  0  0  0  0
   -7.1343   -3.7816   -3.9949 H   0  0  0  0  0  0  0  0  0  0  0  0
   -7.4454   -3.7505   -1.5537 H   0  0  0  0  0  0  0  0  0  0  0  0
   -7.2046   -2.7338    0.5297 H   0  0  0  0  0  0  0  0  0  0  0  0
   -6.6257   -1.0745    0.6248 H   0  0  0  0  0  0  0  0  0  0  0  0
   -5.4776   -2.4390    0.7924 H   0  0  0  0  0  0  0  0  0  0  0  0
   -1.1382   -0.8950    3.3666 H   0  0  0  0  0  0  0  0  0  0  0  0
    0.3287   -0.4741    4.2726 H   0  0  0  0  0  0  0  0  0  0  0  0
    0.4161   -1.6093    2.8939 H   0  0  0  0  0  0  0  0  0  0  0  0
    3.1489   -1.7950    2.6204 H   0  0  0  0  0  0  0  0  0  0  0  0
    2.6086   -0.7558    3.9445 H   0  0  0  0  0  0  0  0  0  0  0  0
    4.2454   -0.6013    3.3748 H   0  0  0  0  0  0  0  0  0  0  0  0
    5.0450   -1.4384    1.3882 H   0  0  0  0  0  0  0  0  0  0  0  0
    7.3546   -1.7689    0.7244 H   0  0  0  0  0  0  0  0  0  0  0  0
  1  2  1  0
  2  3  2  0
  3  4  1  0
  4  5  2  0
  5  6  1  0
  6  7  1  0
  7  8  2  0
  8  9  1  0
  9 10  2  0
  9 11  1  0
 11 12  1  0
 12 13  1  0
 13 14  2  0
 13 15  1  0
 15 16  1  0
 16 17  1  0
 17 18  1  0
 18 19  2  0
 19 20  1  0
 20 21  2  0
 21 22  1  0
 22 23  2  0
 23 24  1  0
 11 25  1  0
 25 26  2  0
 26 27  1  0
 26 28  1  0
 28 29  2  0
 29 30  1  0
  5 31  1  0
 31 32  2  0
 32  2  1  0
 29  6  1  0
 28  8  1  0
 23 18  1  0
  1 33  1  0
  1 34  1  0
  1 35  1  0
  3 36  1  0
  4 37  1  0
 12 38  1  0
 12 39  1  0
 15 40  1  0
 16 41  1  0
 16 42  1  0
 17 43  1  0
 17 44  1  0
 19 45  1  0
 20 46  1  0
 21 47  1  0
 22 48  1  0
 24 49  1  0
 24 50  1  0
 24 51  1  0
 27 52  1  0
 27 53  1  0
 27 54  1  0
 30 55  1  0
 30 56  1  0
 30 57  1  0
 31 58  1  0
 32 59  1  0
M  END
$$$$
