
     RDKit          3D

 45 46  0  0  0  0  0  0  0  0999 V2000
    7.2061    1.3124    1.4656 C   0  0  0  0  0  0  0  0  0  0  0  0
    6.0505    1.6483    0.7062 O   0  0  0  0  0  0  0  0  0  0  0  0
    5.1096    0.6683    0.5501 C   0  0  0  0  0  0  0  0  0  0  0  0
    3.9988    1.0442   -0.2112 C   0  0  0  0  0  0  0  0  0  0  0  0
    2.9542    0.1452   -0.4485 C   0  0  0  0  0  0  0  0  0  0  0  0
    3.0063   -1.1448    0.0913 C   0  0  0  0  0  0  0  0  0  0  0  0
    1.9169   -2.1282   -0.1287 C   0  0  0  0  0  0  0  0  0  0  0  0
    2.1835   -3.3295   -0.1279 O   0  0  0  0  0  0  0  0  0  0  0  0
    0.5113   -1.6979   -0.3325 C   0  0  0  0  0  0  0  0  0  0  0  0
   -0.0565   -0.6869    0.3429 C   0  0  0  0  0  0  0  0  0  0  0  0
   -1.4622   -0.2893    0.1724 C   0  0  0  0  0  0  0  0  0  0  0  0
   -2.4931   -1.2372    0.0779 C   0  0  0  0  0  0  0  0  0  0  0  0
   -3.8228   -0.8318   -0.0636 C   0  0  0  0  0  0  0  0  0  0  0  0
   -4.8937   -1.6813   -0.1704 O   0  0  0  0  0  0  0  0  0  0  0  0
   -4.6607   -3.0631    0.0650 C   0  0  0  0  0  0  0  0  0  0  0  0
   -4.1106    0.5422   -0.1168 C   0  0  0  0  0  0  0  0  0  0  0  0
   -5.4222    0.9537   -0.2151 O   0  0  0  0  0  0  0  0  0  0  0  0
   -5.7799    1.1017   -1.5879 C   0  0  0  0  0  0  0  0  0  0  0  0
   -3.0975    1.5060    0.0171 C   0  0  0  0  0  0  0  0  0  0  0  0
   -3.4966    2.8171   -0.0214 O   0  0  0  0  0  0  0  0  0  0  0  0
   -2.5363    3.8042    0.3278 C   0  0  0  0  0  0  0  0  0  0  0  0
   -1.7748    1.0786    0.1574 C   0  0  0  0  0  0  0  0  0  0  0  0
    4.1405   -1.5276    0.8219 C   0  0  0  0  0  0  0  0  0  0  0  0
    4.3033   -2.7888    1.3351 O   0  0  0  0  0  0  0  0  0  0  0  0
    5.1790   -0.6259    1.0638 C   0  0  0  0  0  0  0  0  0  0  0  0
    7.7702    0.5040    0.9888 H   0  0  0  0  0  0  0  0  0  0  0  0
    6.9402    1.0560    2.4965 H   0  0  0  0  0  0  0  0  0  0  0  0
    7.8523    2.1949    1.4982 H   0  0  0  0  0  0  0  0  0  0  0  0
    3.9524    2.0477   -0.6294 H   0  0  0  0  0  0  0  0  0  0  0  0
    2.1217    0.4679   -1.0676 H   0  0  0  0  0  0  0  0  0  0  0  0
   -0.0500   -2.3270   -1.0162 H   0  0  0  0  0  0  0  0  0  0  0  0
    0.5083   -0.1010    1.0648 H   0  0  0  0  0  0  0  0  0  0  0  0
   -2.2400   -2.2913    0.1263 H   0  0  0  0  0  0  0  0  0  0  0  0
   -5.6266   -3.5761    0.0280 H   0  0  0  0  0  0  0  0  0  0  0  0
   -4.0266   -3.4923   -0.7175 H   0  0  0  0  0  0  0  0  0  0  0  0
   -4.2325   -3.2311    1.0588 H   0  0  0  0  0  0  0  0  0  0  0  0
   -6.8222    1.4319   -1.6281 H   0  0  0  0  0  0  0  0  0  0  0  0
   -5.1658    1.8630   -2.0813 H   0  0  0  0  0  0  0  0  0  0  0  0
   -5.7068    0.1499   -2.1253 H   0  0  0  0  0  0  0  0  0  0  0  0
   -3.0456    4.7724    0.3523 H   0  0  0  0  0  0  0  0  0  0  0  0
   -1.7452    3.8641   -0.4264 H   0  0  0  0  0  0  0  0  0  0  0  0
   -2.1204    3.6215    1.3243 H   0  0  0  0  0  0  0  0  0  0  0  0
   -0.9665    1.7977    0.2447 H   0  0  0  0  0  0  0  0  0  0  0  0
    3.6225   -3.3713    0.9284 H   0  0  0  0  0  0  0  0  0  0  0  0
    6.0272   -0.9703    1.6458 H   0  0  0  0  0  0  0  0  0  0  0  0
  1  2  1  0
  2  3  1  0
  3  4  2  0
  4  5  1  0
  5  6  2  0
  6  7  1  0
  7  8  2  0
  7  9  1  0
  9 10  2  0
 10 11  1  0
 11 12  2  0
 12 13  1  0
 13 14  1  0
 14 15  1  0
 13 16  2  0
 16 17  1  0
 17 18  1  0
 16 19  1  0
 19 20  1  0
 20 21  1  0
 19 22  2  0
  6 23  1  0
 23 24  1  0
 23 25  2  0
 25  3  1  0
 22 11  1  0
  1 26  1  0
  1 27  1  0
  1 28  1  0
  4 29  1  0
  5 30  1  0
  9 31  1  0
 10 32  1  0
 12 33  1  0
 15 34  1  0
 15 35  1  0
 15 36  1  0
 18 37  1  0
 18 38  1  0
 18 39  1  0
 21 40  1  0
 21 41  1  0
 21 42  1  0
 22 43  1  0
 24 44  1  0
 25 45  1  0
M  END
$$$$
