
     RDKit          3D

 36 37  0  0  0  0  0  0  0  0999 V2000
    7.6498   -0.1370    0.8557 C   0  0  0  0  0  0  0  0  0  0  0  0
    6.3813   -0.3723    0.0736 C   0  0  0  0  0  0  0  0  0  0  0  0
    6.3952   -1.0371   -0.9557 O   0  0  0  0  0  0  0  0  0  0  0  0
    5.2788    0.2064    0.6770 N   0  0  0  0  0  0  0  0  0  0  0  0
    3.9459    0.1968    0.2167 C   0  0  0  0  0  0  0  0  0  0  0  0
    3.5402   -0.3767   -0.9899 C   0  0  0  0  0  0  0  0  0  0  0  0
    2.1957   -0.3378   -1.3789 C   0  0  0  0  0  0  0  0  0  0  0  0
    1.2390    0.2634   -0.5564 C   0  0  0  0  0  0  0  0  0  0  0  0
   -0.1789    0.2816   -1.0065 C   0  0  0  0  0  0  0  0  0  0  0  0
   -0.4256    0.3891   -2.2029 O   0  0  0  0  0  0  0  0  0  0  0  0
   -1.1162    0.1381    0.0065 N   0  0  0  0  0  0  0  0  0  0  0  0
   -2.4435    0.1272   -0.3018 N   0  0  0  0  0  0  0  0  0  0  0  0
   -3.2510   -0.0956    0.6839 C   0  0  0  0  0  0  0  0  0  0  0  0
   -4.7142   -0.1360    0.4888 C   0  0  0  0  0  0  0  0  0  0  0  0
   -5.5380   -0.3775    1.5944 C   0  0  0  0  0  0  0  0  0  0  0  0
   -6.9237   -0.4184    1.4255 C   0  0  0  0  0  0  0  0  0  0  0  0
   -7.4698   -0.2188    0.1607 C   0  0  0  0  0  0  0  0  0  0  0  0
   -8.7993   -0.2591    0.0053 F   0  0  0  0  0  0  0  0  0  0  0  0
   -6.6577    0.0213   -0.9425 C   0  0  0  0  0  0  0  0  0  0  0  0
   -5.2720    0.0634   -0.7803 C   0  0  0  0  0  0  0  0  0  0  0  0
    1.6389    0.8552    0.6459 C   0  0  0  0  0  0  0  0  0  0  0  0
    2.9854    0.8187    1.0271 C   0  0  0  0  0  0  0  0  0  0  0  0
    8.5091   -0.2061    0.1825 H   0  0  0  0  0  0  0  0  0  0  0  0
    7.6534    0.8594    1.3070 H   0  0  0  0  0  0  0  0  0  0  0  0
    7.7384   -0.8953    1.6380 H   0  0  0  0  0  0  0  0  0  0  0  0
    5.4420    0.6800    1.5563 H   0  0  0  0  0  0  0  0  0  0  0  0
    4.2452   -0.8562   -1.6625 H   0  0  0  0  0  0  0  0  0  0  0  0
    1.8995   -0.7807   -2.3286 H   0  0  0  0  0  0  0  0  0  0  0  0
   -0.8262   -0.0861    0.9501 H   0  0  0  0  0  0  0  0  0  0  0  0
   -2.8818   -0.2647    1.7114 H   0  0  0  0  0  0  0  0  0  0  0  0
   -5.1175   -0.5345    2.5838 H   0  0  0  0  0  0  0  0  0  0  0  0
   -7.5822   -0.6043    2.2684 H   0  0  0  0  0  0  0  0  0  0  0  0
   -7.1049    0.1736   -1.9199 H   0  0  0  0  0  0  0  0  0  0  0  0
   -4.6333    0.2503   -1.6421 H   0  0  0  0  0  0  0  0  0  0  0  0
    0.9261    1.3772    1.2782 H   0  0  0  0  0  0  0  0  0  0  0  0
    3.2722    1.2927    1.9627 H   0  0  0  0  0  0  0  0  0  0  0  0
  1  2  1  0
  2  3  2  0
  2  4  1  0
  4  5  1  0
  5  6  2  0
  6  7  1  0
  7  8  2  0
  8  9  1  0
  9 10  2  0
  9 11  1  0
 11 12  1  0
 12 13  2  3
 13 14  1  0
 14 15  2  0
 15 16  1  0
 16 17  2  0
 17 18  1  0
 17 19  1  0
 19 20  2  0
  8 21  1  0
 21 22  2  0
 22  5  1  0
 20 14  1  0
  1 23  1  0
  1 24  1  0
  1 25  1  0
  4 26  1  0
  6 27  1  0
  7 28  1  0
 11 29  1  0
 13 30  1  0
 15 31  1  0
 16 32  1  0
 19 33  1  0
 20 34  1  0
 21 35  1  0
 22 36  1  0
M  END
$$$$
