
     RDKit          3D

 37 38  0  0  0  0  0  0  0  0999 V2000
   -5.4017   -0.7987   -2.5502 C   0  0  0  0  0  0  0  0  0  0  0  0
   -5.0091   -0.0243   -1.3734 N   0  0  0  0  0  0  0  0  0  0  0  0
   -6.0725    0.2260   -0.4011 C   0  0  0  0  0  0  0  0  0  0  0  0
   -3.6803   -0.0641   -0.9406 C   0  0  0  0  0  0  0  0  0  0  0  0
   -2.6417   -0.5450   -1.7563 C   0  0  0  0  0  0  0  0  0  0  0  0
   -1.3015   -0.5653   -1.3372 C   0  0  0  0  0  0  0  0  0  0  0  0
   -0.9424   -0.0826   -0.0797 C   0  0  0  0  0  0  0  0  0  0  0  0
    0.4424   -0.1047    0.4110 C   0  0  0  0  0  0  0  0  0  0  0  0
    1.4995    0.2162   -0.3527 C   0  0  0  0  0  0  0  0  0  0  0  0
    2.8875    0.2068    0.1232 C   0  0  0  0  0  0  0  0  0  0  0  0
    3.2426    0.6426    1.3990 C   0  0  0  0  0  0  0  0  0  0  0  0
    4.5790    0.6393    1.7831 C   0  0  0  0  0  0  0  0  0  0  0  0
    5.5397    0.2205    0.9300 N   0  0  0  0  0  4  0  0  0  0  0  0
    6.9493    0.2347    1.3564 C   0  0  0  0  0  0  0  0  0  0  0  0
    5.2231   -0.1845   -0.3198 C   0  0  0  0  0  0  0  0  0  0  0  0
    3.8997   -0.1956   -0.7466 C   0  0  0  0  0  0  0  0  0  0  0  0
   -1.9527    0.3952    0.7529 C   0  0  0  0  0  0  0  0  0  0  0  0
   -3.2891    0.4120    0.3224 C   0  0  0  0  0  0  0  0  0  0  0  0
   -4.8733   -0.4540   -3.4455 H   0  0  0  0  0  0  0  0  0  0  0  0
   -5.2123   -1.8671   -2.3987 H   0  0  0  0  0  0  0  0  0  0  0  0
   -6.4691   -0.6803   -2.7681 H   0  0  0  0  0  0  0  0  0  0  0  0
   -6.0885   -0.5500    0.3721 H   0  0  0  0  0  0  0  0  0  0  0  0
   -7.0576    0.2349   -0.8811 H   0  0  0  0  0  0  0  0  0  0  0  0
   -5.9584    1.2100    0.0662 H   0  0  0  0  0  0  0  0  0  0  0  0
   -2.8472   -0.9223   -2.7536 H   0  0  0  0  0  0  0  0  0  0  0  0
   -0.5558   -0.9724   -2.0145 H   0  0  0  0  0  0  0  0  0  0  0  0
    0.5541   -0.3927    1.4531 H   0  0  0  0  0  0  0  0  0  0  0  0
    1.3542    0.5023   -1.3936 H   0  0  0  0  0  0  0  0  0  0  0  0
    2.4889    1.0000    2.0979 H   0  0  0  0  0  0  0  0  0  0  0  0
    4.8892    0.9762    2.7683 H   0  0  0  0  0  0  0  0  0  0  0  0
    7.4888   -0.5616    0.8372 H   0  0  0  0  0  0  0  0  0  0  0  0
    7.3589    1.2147    1.0996 H   0  0  0  0  0  0  0  0  0  0  0  0
    6.9991    0.0614    2.4345 H   0  0  0  0  0  0  0  0  0  0  0  0
    6.0347   -0.4946   -0.9721 H   0  0  0  0  0  0  0  0  0  0  0  0
    3.6655   -0.5270   -1.7569 H   0  0  0  0  0  0  0  0  0  0  0  0
   -1.7228    0.7767    1.7448 H   0  0  0  0  0  0  0  0  0  0  0  0
   -4.0201    0.8170    1.0159 H   0  0  0  0  0  0  0  0  0  0  0  0
  1  2  1  0
  2  3  1  0
  2  4  1  0
  4  5  2  0
  5  6  1  0
  6  7  2  0
  7  8  1  0
  8  9  2  3
  9 10  1  0
 10 11  2  0
 11 12  1  0
 12 13  2  0
 13 14  1  0
 13 15  1  0
 15 16  2  0
  7 17  1  0
 17 18  2  0
 18  4  1  0
 16 10  1  0
  1 19  1  0
  1 20  1  0
  1 21  1  0
  3 22  1  0
  3 23  1  0
  3 24  1  0
  5 25  1  0
  6 26  1  0
  8 27  1  0
  9 28  1  0
 11 29  1  0
 12 30  1  0
 14 31  1  0
 14 32  1  0
 14 33  1  0
 15 34  1  0
 16 35  1  0
 17 36  1  0
 18 37  1  0
M  CHG  1  13   1
M  END
$$$$
