
     RDKit          3D

 36 38  0  0  0  0  0  0  0  0999 V2000
   -3.7143    0.6851   -2.6305 C   0  0  0  0  0  0  0  0  0  0  0  0
   -2.7785    0.3310   -1.5168 C   0  0  0  0  0  0  0  0  0  0  0  0
   -1.4611    0.5418   -1.7165 N   0  0  0  0  0  0  0  0  0  0  0  0
   -0.6384    0.1949   -0.6953 C   0  0  0  0  0  0  0  0  0  0  0  0
    1.1070    0.4728   -0.9824 S   0  0  0  0  0  6  0  0  0  0  0  0
    1.5320   -0.4514   -2.0248 O   0  0  0  0  0  0  0  0  0  0  0  0
    1.3063    1.9093   -1.1139 O   0  0  0  0  0  0  0  0  0  0  0  0
    1.8520   -0.0492    0.5574 C   0  0  0  0  0  0  0  0  0  0  0  0
    3.3505    0.1202    0.4780 C   0  0  0  0  0  0  0  0  0  0  0  0
    3.9499    1.3422    0.8210 C   0  0  0  0  0  0  0  0  0  0  0  0
    5.3352    1.5002    0.7392 C   0  0  0  0  0  0  0  0  0  0  0  0
    6.1290    0.4382    0.3121 C   0  0  0  0  0  0  0  0  0  0  0  0
    7.8357    0.6326    0.2122 Cl  0  0  0  0  0  0  0  0  0  0  0  0
    5.5491   -0.7796   -0.0352 C   0  0  0  0  0  0  0  0  0  0  0  0
    4.1637   -0.9381    0.0456 C   0  0  0  0  0  0  0  0  0  0  0  0
   -0.9697   -0.3422    0.4986 N   0  0  0  0  0  0  0  0  0  0  0  0
   -2.2871   -0.5196    0.6322 C   0  0  0  0  0  0  0  0  0  0  0  0
   -3.2301   -0.2005   -0.3320 C   0  0  0  0  0  0  0  0  0  0  0  0
   -4.6059   -0.5615    0.1139 C   0  0  0  0  0  0  0  0  0  0  0  0
   -4.3980   -0.7016    1.6305 C   0  0  0  0  0  0  0  0  0  0  0  0
   -2.9423   -1.1427    1.8335 C   0  0  0  0  0  0  0  0  0  0  0  0
   -4.2524   -0.2056   -2.9709 H   0  0  0  0  0  0  0  0  0  0  0  0
   -4.4361    1.4371   -2.2965 H   0  0  0  0  0  0  0  0  0  0  0  0
   -3.1654    1.0977   -3.4840 H   0  0  0  0  0  0  0  0  0  0  0  0
    1.4425    0.5595    1.3704 H   0  0  0  0  0  0  0  0  0  0  0  0
    1.5953   -1.0990    0.7305 H   0  0  0  0  0  0  0  0  0  0  0  0
    3.3415    2.1868    1.1404 H   0  0  0  0  0  0  0  0  0  0  0  0
    5.7855    2.4545    1.0010 H   0  0  0  0  0  0  0  0  0  0  0  0
    6.1674   -1.6065   -0.3755 H   0  0  0  0  0  0  0  0  0  0  0  0
    3.7246   -1.8921   -0.2443 H   0  0  0  0  0  0  0  0  0  0  0  0
   -5.3423    0.2134   -0.1145 H   0  0  0  0  0  0  0  0  0  0  0  0
   -4.9124   -1.5134   -0.3336 H   0  0  0  0  0  0  0  0  0  0  0  0
   -4.5456    0.2793    2.1033 H   0  0  0  0  0  0  0  0  0  0  0  0
   -5.1132   -1.3923    2.0888 H   0  0  0  0  0  0  0  0  0  0  0  0
   -2.5277   -0.7685    2.7731 H   0  0  0  0  0  0  0  0  0  0  0  0
   -2.8465   -2.2326    1.7850 H   0  0  0  0  0  0  0  0  0  0  0  0
  1  2  1  0
  2  3  2  0
  3  4  1  0
  4  5  1  0
  5  6  2  0
  5  7  2  0
  5  8  1  0
  8  9  1  0
  9 10  2  0
 10 11  1  0
 11 12  2  0
 12 13  1  0
 12 14  1  0
 14 15  2  0
  4 16  2  0
 16 17  1  0
 17 18  2  0
 18 19  1  0
 19 20  1  0
 20 21  1  0
 18  2  1  0
 15  9  1  0
 21 17  1  0
  1 22  1  0
  1 23  1  0
  1 24  1  0
  8 25  1  0
  8 26  1  0
 10 27  1  0
 11 28  1  0
 14 29  1  0
 15 30  1  0
 19 31  1  0
 19 32  1  0
 20 33  1  0
 20 34  1  0
 21 35  1  0
 21 36  1  0
M  END
$$$$
