
     RDKit          3D

 55 58  0  0  0  0  0  0  0  0999 V2000
    2.8330    3.7716   -2.3656 C   0  0  0  0  0  0  0  0  0  0  0  0
    2.2838    2.3785   -2.6077 C   0  0  0  0  0  0  0  0  0  0  0  0
    2.7869    1.4655   -1.6164 O   0  0  0  0  0  0  0  0  0  0  0  0
    3.9992    0.9119   -1.8808 C   0  0  0  0  0  0  0  0  0  0  0  0
    4.6686    1.1366   -2.8774 O   0  0  0  0  0  0  0  0  0  0  0  0
    4.4475    0.0024   -0.7795 C   0  0  0  0  0  0  0  0  0  0  0  0
    5.7952   -0.4031   -0.8532 C   0  0  0  0  0  0  0  0  0  0  0  0
    6.3428   -1.2513    0.1063 C   0  0  0  0  0  0  0  0  0  0  0  0
    5.5490   -1.7062    1.1503 C   0  0  0  0  0  0  0  0  0  0  0  0
    4.2084   -1.3181    1.2363 C   0  0  0  0  0  0  0  0  0  0  0  0
    3.6338   -0.4668    0.2811 C   0  0  0  0  0  0  0  0  0  0  0  0
    2.2744   -0.0785    0.3640 N   0  0  0  0  0  0  0  0  0  0  0  0
    1.3198   -0.4540    1.2846 C   0  0  0  0  0  0  0  0  0  0  0  0
    1.4391   -1.2575    2.2003 O   0  0  0  0  0  0  0  0  0  0  0  0
   -0.0005    0.1956    1.0268 C   0  0  0  0  0  0  0  0  0  0  0  0
   -1.0192   -0.6535    0.8277 C   0  0  0  0  0  0  0  0  0  0  0  0
   -2.3102   -0.2591    0.4750 N   0  0  0  0  0  0  0  0  0  0  0  0
   -3.3502   -1.2522    0.2901 C   0  0  0  0  0  0  0  0  0  0  0  0
   -3.3203   -2.4669    0.9994 C   0  0  0  0  0  0  0  0  0  0  0  0
   -4.3072   -3.4494    0.8230 C   0  0  0  0  0  0  0  0  0  0  0  0
   -5.3504   -3.2417   -0.0730 C   0  0  0  0  0  0  0  0  0  0  0  0
   -6.3698   -4.1105   -0.3423 O   0  0  0  0  0  0  0  0  0  0  0  0
   -6.3784   -5.3355    0.3796 C   0  0  0  0  0  0  0  0  0  0  0  0
   -5.3954   -2.0446   -0.7836 C   0  0  0  0  0  0  0  0  0  0  0  0
   -4.4113   -1.0630   -0.6047 C   0  0  0  0  0  0  0  0  0  0  0  0
   -2.6024    1.1158    0.2874 C   0  0  0  0  0  0  0  0  0  0  0  0
   -3.6968    1.5895   -0.0140 O   0  0  0  0  0  0  0  0  0  0  0  0
   -1.4939    2.0879    0.5234 C   0  0  0  0  0  0  0  0  0  0  0  0
   -1.7443    3.4627    0.3827 C   0  0  0  0  0  0  0  0  0  0  0  0
   -0.7411    4.3923    0.6499 C   0  0  0  0  0  0  0  0  0  0  0  0
    0.5100    3.9543    1.0715 C   0  0  0  0  0  0  0  0  0  0  0  0
    0.7645    2.5874    1.2101 C   0  0  0  0  0  0  0  0  0  0  0  0
   -0.2282    1.6378    0.9173 C   0  0  0  0  0  0  0  0  0  0  0  0
    2.6108    4.1022   -1.3461 H   0  0  0  0  0  0  0  0  0  0  0  0
    3.9219    3.7896   -2.4745 H   0  0  0  0  0  0  0  0  0  0  0  0
    2.4005    4.4867   -3.0710 H   0  0  0  0  0  0  0  0  0  0  0  0
    1.1938    2.3896   -2.5036 H   0  0  0  0  0  0  0  0  0  0  0  0
    2.5077    2.0264   -3.6211 H   0  0  0  0  0  0  0  0  0  0  0  0
    6.4307   -0.0555   -1.6671 H   0  0  0  0  0  0  0  0  0  0  0  0
    7.3843   -1.5554    0.0371 H   0  0  0  0  0  0  0  0  0  0  0  0
    5.9672   -2.3688    1.9049 H   0  0  0  0  0  0  0  0  0  0  0  0
    3.6370   -1.7052    2.0749 H   0  0  0  0  0  0  0  0  0  0  0  0
    1.9702    0.5583   -0.3695 H   0  0  0  0  0  0  0  0  0  0  0  0
   -0.8335   -1.7235    0.8822 H   0  0  0  0  0  0  0  0  0  0  0  0
   -2.5542   -2.6645    1.7449 H   0  0  0  0  0  0  0  0  0  0  0  0
   -4.2301   -4.3581    1.4106 H   0  0  0  0  0  0  0  0  0  0  0  0
   -7.2545   -5.9069    0.0581 H   0  0  0  0  0  0  0  0  0  0  0  0
   -6.4727   -5.1591    1.4562 H   0  0  0  0  0  0  0  0  0  0  0  0
   -5.4894   -5.9332    0.1528 H   0  0  0  0  0  0  0  0  0  0  0  0
   -6.2029   -1.8669   -1.4902 H   0  0  0  0  0  0  0  0  0  0  0  0
   -4.4893   -0.1666   -1.2133 H   0  0  0  0  0  0  0  0  0  0  0  0
   -2.7290    3.8132    0.0776 H   0  0  0  0  0  0  0  0  0  0  0  0
   -0.9434    5.4558    0.5464 H   0  0  0  0  0  0  0  0  0  0  0  0
    1.2894    4.6779    1.3012 H   0  0  0  0  0  0  0  0  0  0  0  0
    1.7491    2.2863    1.5630 H   0  0  0  0  0  0  0  0  0  0  0  0
  1  2  1  0
  2  3  1  0
  3  4  1  0
  4  5  2  0
  4  6  1  0
  6  7  2  0
  7  8  1  0
  8  9  2  0
  9 10  1  0
 10 11  2  0
 11 12  1  0
 12 13  1  0
 13 14  2  0
 13 15  1  0
 15 16  2  0
 16 17  1  0
 17 18  1  0
 18 19  2  0
 19 20  1  0
 20 21  2  0
 21 22  1  0
 22 23  1  0
 21 24  1  0
 24 25  2  0
 17 26  1  0
 26 27  2  0
 26 28  1  0
 28 29  2  0
 29 30  1  0
 30 31  2  0
 31 32  1  0
 32 33  2  0
 11  6  1  0
 33 15  1  0
 25 18  1  0
 33 28  1  0
  1 34  1  0
  1 35  1  0
  1 36  1  0
  2 37  1  0
  2 38  1  0
  7 39  1  0
  8 40  1  0
  9 41  1  0
 10 42  1  0
 12 43  1  0
 16 44  1  0
 19 45  1  0
 20 46  1  0
 23 47  1  0
 23 48  1  0
 23 49  1  0
 24 50  1  0
 25 51  1  0
 29 52  1  0
 30 53  1  0
 31 54  1  0
 32 55  1  0
M  END
$$$$
