
     RDKit          3D

 56 61  0  0  0  0  0  0  0  0999 V2000
    9.4856    1.7201   -2.2031 C   0  0  0  0  0  0  0  0  0  0  0  0
    8.0655    1.7214   -2.1153 O   0  0  0  0  0  0  0  0  0  0  0  0
    7.5040    0.9771   -1.1140 C   0  0  0  0  0  0  0  0  0  0  0  0
    8.1943    0.2327   -0.1638 C   0  0  0  0  0  0  0  0  0  0  0  0
    7.4856   -0.4781    0.8062 C   0  0  0  0  0  0  0  0  0  0  0  0
    6.0829   -0.4477    0.8320 C   0  0  0  0  0  0  0  0  0  0  0  0
    5.3661   -1.1562    1.8096 C   0  0  0  0  0  0  0  0  0  0  0  0
    3.9687   -1.0728    1.7777 C   0  0  0  0  0  0  0  0  0  0  0  0
    2.8918   -1.5899    2.5371 C   0  0  0  0  0  0  0  0  0  0  0  0
    1.7244   -1.1190    1.9582 C   0  0  0  0  0  0  0  0  0  0  0  0
    0.3435   -1.3203    2.3698 C   0  0  0  0  0  0  0  0  0  0  0  0
    0.0891   -1.7683    3.4904 O   0  0  0  0  0  0  0  0  0  0  0  0
   -0.6965   -1.0070    1.4918 N   0  0  0  0  0  0  0  0  0  0  0  0
   -0.5456   -0.7570    0.0540 C   0  0  0  0  0  0  0  0  0  0  0  0
   -1.8327   -1.0794   -0.7277 C   0  0  0  0  0  0  0  0  0  0  0  0
   -3.0082   -0.3174   -0.2671 N   0  0  0  0  0  0  0  0  0  0  0  0
   -4.2476   -0.9261   -0.7694 C   0  0  0  0  0  0  0  0  0  0  0  0
   -5.4415    0.0047   -0.6943 C   0  0  0  0  0  0  0  0  0  0  0  0
   -5.3940    1.2768   -1.3148 C   0  0  0  0  0  0  0  0  0  0  0  0
   -6.4935    2.1402   -1.2808 C   0  0  0  0  0  0  0  0  0  0  0  0
   -7.6247    1.7082   -0.6252 C   0  0  0  0  0  0  0  0  0  0  0  0
   -7.6839    0.4745   -0.0206 C   0  0  0  0  0  0  0  0  0  0  0  0
   -6.6166   -0.3993   -0.0392 C   0  0  0  0  0  0  0  0  0  0  0  0
   -8.8882    0.2425    0.5682 O   0  0  0  0  0  0  0  0  0  0  0  0
   -9.5796    1.4715    0.2621 C   0  0  0  0  0  0  0  0  0  0  0  0
   -8.7838    2.4071   -0.4946 O   0  0  0  0  0  0  0  0  0  0  0  0
   -3.0117   -0.1268    1.1995 C   0  0  0  0  0  0  0  0  0  0  0  0
   -2.0712   -1.0567    1.9887 C   0  0  0  0  0  0  0  0  0  0  0  0
    2.0414   -0.3165    0.8963 O   0  0  0  0  0  0  0  0  0  0  0  0
    3.3962   -0.2944    0.7803 C   0  0  0  0  0  0  0  0  0  0  0  0
    4.0339    0.3953   -0.1771 N   0  0  0  0  0  0  0  0  0  0  0  0
    5.3706    0.3073   -0.1309 C   0  0  0  0  0  0  0  0  0  0  0  0
    6.1050    1.0015   -1.0815 C   0  0  0  0  0  0  0  0  0  0  0  0
    9.9370    2.1525   -1.3040 H   0  0  0  0  0  0  0  0  0  0  0  0
    9.7683    2.3492   -3.0530 H   0  0  0  0  0  0  0  0  0  0  0  0
    9.8683    0.7118   -2.3929 H   0  0  0  0  0  0  0  0  0  0  0  0
    9.2776    0.1869   -0.1456 H   0  0  0  0  0  0  0  0  0  0  0  0
    8.0388   -1.0556    1.5443 H   0  0  0  0  0  0  0  0  0  0  0  0
    5.8685   -1.7429    2.5715 H   0  0  0  0  0  0  0  0  0  0  0  0
    2.9397   -2.2308    3.4075 H   0  0  0  0  0  0  0  0  0  0  0  0
    0.2657   -1.3758   -0.3413 H   0  0  0  0  0  0  0  0  0  0  0  0
   -0.2811    0.2987   -0.0731 H   0  0  0  0  0  0  0  0  0  0  0  0
   -1.6645   -0.8683   -1.7901 H   0  0  0  0  0  0  0  0  0  0  0  0
   -2.0224   -2.1576   -0.6362 H   0  0  0  0  0  0  0  0  0  0  0  0
   -4.4549   -1.8648   -0.2387 H   0  0  0  0  0  0  0  0  0  0  0  0
   -4.1338   -1.1894   -1.8300 H   0  0  0  0  0  0  0  0  0  0  0  0
   -4.4839    1.5924   -1.8232 H   0  0  0  0  0  0  0  0  0  0  0  0
   -6.4580    3.1149   -1.7548 H   0  0  0  0  0  0  0  0  0  0  0  0
   -6.6959   -1.3675    0.4437 H   0  0  0  0  0  0  0  0  0  0  0  0
  -10.4806    1.2311   -0.3141 H   0  0  0  0  0  0  0  0  0  0  0  0
   -9.8807    1.9479    1.2023 H   0  0  0  0  0  0  0  0  0  0  0  0
   -4.0187   -0.2005    1.6260 H   0  0  0  0  0  0  0  0  0  0  0  0
   -2.6881    0.9070    1.3784 H   0  0  0  0  0  0  0  0  0  0  0  0
   -2.0919   -0.7818    3.0495 H   0  0  0  0  0  0  0  0  0  0  0  0
   -2.4104   -2.0972    1.9111 H   0  0  0  0  0  0  0  0  0  0  0  0
    5.5719    1.5922   -1.8246 H   0  0  0  0  0  0  0  0  0  0  0  0
  1  2  1  0
  2  3  1  0
  3  4  2  0
  4  5  1  0
  5  6  2  0
  6  7  1  0
  7  8  2  0
  8  9  1  0
  9 10  2  0
 10 11  1  0
 11 12  2  0
 11 13  1  0
 13 14  1  0
 14 15  1  0
 15 16  1  0
 16 17  1  0
 17 18  1  0
 18 19  2  0
 19 20  1  0
 20 21  2  0
 21 22  1  0
 22 23  2  0
 22 24  1  0
 24 25  1  0
 25 26  1  0
 16 27  1  0
 27 28  1  0
 10 29  1  0
 29 30  1  0
 30 31  2  0
 31 32  1  0
 32 33  2  0
 33  3  1  0
 32  6  1  0
 30  8  1  0
 28 13  1  0
 23 18  1  0
 26 21  1  0
  1 34  1  0
  1 35  1  0
  1 36  1  0
  4 37  1  0
  5 38  1  0
  7 39  1  0
  9 40  1  0
 14 41  1  0
 14 42  1  0
 15 43  1  0
 15 44  1  0
 17 45  1  0
 17 46  1  0
 19 47  1  0
 20 48  1  0
 23 49  1  0
 25 50  1  0
 25 51  1  0
 27 52  1  0
 27 53  1  0
 28 54  1  0
 28 55  1  0
 33 56  1  0
M  END
$$$$
