
     RDKit          3D

 58 60  0  0  0  0  0  0  0  0999 V2000
    8.3393   -0.7002   -2.3153 C   0  0  0  0  0  0  0  0  0  0  0  0
    7.2159   -1.0727   -1.3938 C   0  0  0  0  0  0  0  0  0  0  0  0
    5.9145   -1.2181   -1.8864 C   0  0  0  0  0  0  0  0  0  0  0  0
    4.8739   -1.5996   -1.0369 C   0  0  0  0  0  0  0  0  0  0  0  0
    5.1191   -1.8527    0.3187 C   0  0  0  0  0  0  0  0  0  0  0  0
    3.9860   -2.2363    1.2422 C   0  0  0  0  0  0  0  0  0  0  0  0
    3.5099   -1.0641    2.1083 C   0  0  0  0  0  0  0  0  0  0  0  0
    2.9941    0.0455    1.3249 N   0  0  0  0  0  0  0  0  0  0  0  0
    1.7331    0.0111    0.7721 C   0  0  0  0  0  0  0  0  0  0  0  0
    0.9231   -0.8865    0.9848 O   0  0  0  0  0  0  0  0  0  0  0  0
    1.4549    1.1824   -0.1465 C   0  0  0  0  0  0  0  0  0  0  0  0
    0.0138    1.1844   -0.6429 C   0  0  0  0  0  0  0  0  0  0  0  0
   -0.2035    0.0491   -1.5556 N   0  0  0  0  0  0  0  0  0  0  0  0
   -1.5471    0.0619   -2.5644 S   0  0  0  0  0  6  0  0  0  0  0  0
   -1.5724   -1.2138   -3.2444 O   0  0  0  0  0  0  0  0  0  0  0  0
   -1.5619    1.3130   -3.2875 O   0  0  0  0  0  0  0  0  0  0  0  0
   -2.8966    0.0765   -1.4086 C   0  0  0  0  0  0  0  0  0  0  0  0
   -3.3723   -1.1281   -0.8916 C   0  0  0  0  0  0  0  0  0  0  0  0
   -4.4483   -1.1214    0.0031 C   0  0  0  0  0  0  0  0  0  0  0  0
   -5.0633    0.0827    0.3867 C   0  0  0  0  0  0  0  0  0  0  0  0
   -4.5745    1.2738   -0.1508 C   0  0  0  0  0  0  0  0  0  0  0  0
   -3.5013    1.2812   -1.0551 C   0  0  0  0  0  0  0  0  0  0  0  0
   -5.1907    2.5482    0.2476 C   0  0  0  0  0  0  0  0  0  0  0  0
   -4.6878    3.5993   -0.1423 O   0  0  0  0  0  0  0  0  0  0  0  0
   -6.3045    2.4730    1.0675 N   0  0  0  0  0  0  0  0  0  0  0  0
   -6.9474    3.7160    1.4527 C   0  0  0  0  0  0  0  0  0  0  0  0
   -6.7793    1.3090    1.6604 C   0  0  0  0  0  0  0  0  0  0  0  0
   -7.7071    1.3357    2.4728 O   0  0  0  0  0  0  0  0  0  0  0  0
   -6.1509    0.1201    1.2992 N   0  0  0  0  0  0  0  0  0  0  0  0
   -6.6403   -1.1206    1.8880 C   0  0  0  0  0  0  0  0  0  0  0  0
    6.4245   -1.7217    0.8077 C   0  0  0  0  0  0  0  0  0  0  0  0
    7.4646   -1.3404   -0.0431 C   0  0  0  0  0  0  0  0  0  0  0  0
    8.7739   -1.6012   -2.7588 H   0  0  0  0  0  0  0  0  0  0  0  0
    7.9846   -0.0454   -3.1182 H   0  0  0  0  0  0  0  0  0  0  0  0
    9.1231   -0.1573   -1.7767 H   0  0  0  0  0  0  0  0  0  0  0  0
    5.7023   -1.0381   -2.9383 H   0  0  0  0  0  0  0  0  0  0  0  0
    3.8697   -1.7021   -1.4436 H   0  0  0  0  0  0  0  0  0  0  0  0
    3.1507   -2.6369    0.6544 H   0  0  0  0  0  0  0  0  0  0  0  0
    4.3201   -3.0562    1.8903 H   0  0  0  0  0  0  0  0  0  0  0  0
    2.7201   -1.4090    2.7850 H   0  0  0  0  0  0  0  0  0  0  0  0
    4.3288   -0.6687    2.7189 H   0  0  0  0  0  0  0  0  0  0  0  0
    3.6802    0.6681    0.9131 H   0  0  0  0  0  0  0  0  0  0  0  0
    2.1531    1.1359   -0.9904 H   0  0  0  0  0  0  0  0  0  0  0  0
    1.6450    2.1061    0.4120 H   0  0  0  0  0  0  0  0  0  0  0  0
   -0.1718    2.1261   -1.1695 H   0  0  0  0  0  0  0  0  0  0  0  0
   -0.6770    1.1122    0.2036 H   0  0  0  0  0  0  0  0  0  0  0  0
   -0.0385   -0.8730   -1.1386 H   0  0  0  0  0  0  0  0  0  0  0  0
   -2.9176   -2.0747   -1.1798 H   0  0  0  0  0  0  0  0  0  0  0  0
   -4.7866   -2.0821    0.3824 H   0  0  0  0  0  0  0  0  0  0  0  0
   -3.1449    2.2215   -1.4737 H   0  0  0  0  0  0  0  0  0  0  0  0
   -6.6946    4.5347    0.7731 H   0  0  0  0  0  0  0  0  0  0  0  0
   -6.6187    3.9765    2.4641 H   0  0  0  0  0  0  0  0  0  0  0  0
   -8.0349    3.5902    1.4597 H   0  0  0  0  0  0  0  0  0  0  0  0
   -7.4664   -0.9527    2.5844 H   0  0  0  0  0  0  0  0  0  0  0  0
   -5.8303   -1.6037    2.4439 H   0  0  0  0  0  0  0  0  0  0  0  0
   -7.0045   -1.7798    1.0936 H   0  0  0  0  0  0  0  0  0  0  0  0
    6.6437   -1.9213    1.8543 H   0  0  0  0  0  0  0  0  0  0  0  0
    8.4733   -1.2560    0.3555 H   0  0  0  0  0  0  0  0  0  0  0  0
  1  2  1  0
  2  3  2  0
  3  4  1  0
  4  5  2  0
  5  6  1  0
  6  7  1  0
  7  8  1  0
  8  9  1  0
  9 10  2  0
  9 11  1  0
 11 12  1  0
 12 13  1  0
 13 14  1  0
 14 15  2  0
 14 16  2  0
 14 17  1  0
 17 18  2  0
 18 19  1  0
 19 20  2  0
 20 21  1  0
 21 22  2  0
 21 23  1  0
 23 24  2  0
 23 25  1  0
 25 26  1  0
 25 27  1  0
 27 28  2  0
 27 29  1  0
 29 30  1  0
  5 31  1  0
 31 32  2  0
 32  2  1  0
 22 17  1  0
 29 20  1  0
  1 33  1  0
  1 34  1  0
  1 35  1  0
  3 36  1  0
  4 37  1  0
  6 38  1  0
  6 39  1  0
  7 40  1  0
  7 41  1  0
  8 42  1  0
 11 43  1  0
 11 44  1  0
 12 45  1  0
 12 46  1  0
 13 47  1  0
 18 48  1  0
 19 49  1  0
 22 50  1  0
 26 51  1  0
 26 52  1  0
 26 53  1  0
 30 54  1  0
 30 55  1  0
 30 56  1  0
 31 57  1  0
 32 58  1  0
M  END
$$$$
