
     RDKit          3D

 65 66  0  0  0  0  0  0  0  0999 V2000
   -2.2009    2.5644    5.5635 C   0  0  0  0  0  0  0  0  0  0  0  0
   -1.3655    1.5517    5.0134 O   0  0  0  0  0  0  0  0  0  0  0  0
   -1.3522    1.4317    3.6530 C   0  0  0  0  0  0  0  0  0  0  0  0
   -0.4518    0.4877    3.1576 C   0  0  0  0  0  0  0  0  0  0  0  0
   -0.3466    0.2431    1.7853 C   0  0  0  0  0  0  0  0  0  0  0  0
   -1.1516    0.9385    0.8738 C   0  0  0  0  0  0  0  0  0  0  0  0
   -1.1314    0.6790   -0.6319 C   0  0  0  0  0  0  0  0  0  0  0  0
   -2.4500    0.0660   -1.1976 C   0  0  0  0  0  0  0  0  0  0  0  0
   -2.7194    0.1624   -2.3942 O   0  0  0  0  0  0  0  0  0  0  0  0
   -3.2159   -0.6761   -0.3189 N   0  0  0  0  0  0  0  0  0  0  0  0
   -4.4734   -1.3610   -0.6582 C   0  0  0  0  0  0  0  0  0  0  0  0
   -4.2472   -2.4243   -1.7454 C   0  0  0  0  0  0  0  0  0  0  0  0
   -4.9863   -2.0679    0.6101 C   0  0  0  0  0  0  0  0  0  0  0  0
   -5.5380   -0.3509   -1.1142 C   0  0  0  0  0  0  0  0  0  0  0  0
    0.0670   -0.0579   -1.1101 N   0  0  0  0  0  0  0  0  0  0  0  0
    0.0127   -1.5348   -1.1392 C   0  0  0  0  0  0  0  0  0  0  0  0
   -0.1752   -2.1256   -2.5455 C   0  0  0  0  0  0  0  0  0  0  0  0
    1.0765   -2.2965   -3.2064 O   0  0  0  0  0  0  0  0  0  0  0  0
    1.2123    0.5638   -1.5852 C   0  0  0  0  0  0  0  0  0  0  0  0
    2.1127   -0.0861   -2.1288 O   0  0  0  0  0  0  0  0  0  0  0  0
    1.3522    2.0672   -1.3959 C   0  0  0  0  0  0  0  0  0  0  0  0
    2.6930    2.6047   -1.8910 C   0  0  0  0  0  0  0  0  0  0  0  0
    3.8348    2.2724   -0.9437 C   0  0  0  0  0  0  0  0  0  0  0  0
    4.2070    3.0920   -0.1116 O   0  0  0  0  0  0  0  0  0  0  0  0
    4.3246    1.0016   -1.1383 N   0  0  0  0  0  0  0  0  0  0  0  0
    5.4145    0.4528   -0.4958 C   0  0  0  0  0  0  0  0  0  0  0  0
    5.8236   -0.8889   -0.6838 C   0  0  0  0  0  0  0  0  0  0  0  0
    6.9436   -1.0258    0.0951 C   0  0  0  0  0  0  0  0  0  0  0  0
    7.8809   -2.1264    0.3706 C   0  0  0  0  0  0  0  0  0  0  0  0
    7.1939    0.1543    0.7173 O   0  0  0  0  0  0  0  0  0  0  0  0
    6.2365    1.0798    0.3485 N   0  0  0  0  0  0  0  0  0  0  0  0
   -2.0444    1.9017    1.3833 C   0  0  0  0  0  0  0  0  0  0  0  0
   -2.1453    2.1441    2.7578 C   0  0  0  0  0  0  0  0  0  0  0  0
   -3.2538    2.3791    5.3316 H   0  0  0  0  0  0  0  0  0  0  0  0
   -2.0906    2.5349    6.6510 H   0  0  0  0  0  0  0  0  0  0  0  0
   -1.8902    3.5567    5.2225 H   0  0  0  0  0  0  0  0  0  0  0  0
    0.1814   -0.0623    3.8512 H   0  0  0  0  0  0  0  0  0  0  0  0
    0.3786   -0.4963    1.4544 H   0  0  0  0  0  0  0  0  0  0  0  0
   -1.1014    1.6750   -1.0874 H   0  0  0  0  0  0  0  0  0  0  0  0
   -2.9350   -0.6964    0.6568 H   0  0  0  0  0  0  0  0  0  0  0  0
   -5.1582   -3.0070   -1.9230 H   0  0  0  0  0  0  0  0  0  0  0  0
   -3.9579   -1.9769   -2.7022 H   0  0  0  0  0  0  0  0  0  0  0  0
   -3.4505   -3.1205   -1.4563 H   0  0  0  0  0  0  0  0  0  0  0  0
   -5.9149   -2.6155    0.4177 H   0  0  0  0  0  0  0  0  0  0  0  0
   -5.1824   -1.3455    1.4098 H   0  0  0  0  0  0  0  0  0  0  0  0
   -4.2473   -2.7813    0.9910 H   0  0  0  0  0  0  0  0  0  0  0  0
   -6.5030   -0.8418   -1.2851 H   0  0  0  0  0  0  0  0  0  0  0  0
   -5.2567    0.1467   -2.0473 H   0  0  0  0  0  0  0  0  0  0  0  0
   -5.6852    0.4301   -0.3591 H   0  0  0  0  0  0  0  0  0  0  0  0
    0.9540   -1.9018   -0.7121 H   0  0  0  0  0  0  0  0  0  0  0  0
   -0.7914   -1.8739   -0.4803 H   0  0  0  0  0  0  0  0  0  0  0  0
   -0.8175   -1.5040   -3.1749 H   0  0  0  0  0  0  0  0  0  0  0  0
   -0.6268   -3.1192   -2.4651 H   0  0  0  0  0  0  0  0  0  0  0  0
    1.5773   -1.4663   -3.0709 H   0  0  0  0  0  0  0  0  0  0  0  0
    1.2186    2.3104   -0.3368 H   0  0  0  0  0  0  0  0  0  0  0  0
    0.5680    2.5561   -1.9833 H   0  0  0  0  0  0  0  0  0  0  0  0
    2.6416    3.6973   -1.9652 H   0  0  0  0  0  0  0  0  0  0  0  0
    2.9313    2.2377   -2.8956 H   0  0  0  0  0  0  0  0  0  0  0  0
    3.8132    0.3795   -1.7617 H   0  0  0  0  0  0  0  0  0  0  0  0
    5.3667   -1.6450   -1.3024 H   0  0  0  0  0  0  0  0  0  0  0  0
    7.4590   -3.0857    0.0552 H   0  0  0  0  0  0  0  0  0  0  0  0
    8.8208   -1.9710   -0.1688 H   0  0  0  0  0  0  0  0  0  0  0  0
    8.1043   -2.1914    1.4399 H   0  0  0  0  0  0  0  0  0  0  0  0
   -2.6848    2.4710    0.7092 H   0  0  0  0  0  0  0  0  0  0  0  0
   -2.8580    2.8905    3.0942 H   0  0  0  0  0  0  0  0  0  0  0  0
  1  2  1  0
  2  3  1  0
  3  4  2  0
  4  5  1  0
  5  6  2  0
  6  7  1  0
  7  8  1  0
  8  9  2  0
  8 10  1  0
 10 11  1  0
 11 12  1  0
 11 13  1  0
 11 14  1  0
  7 15  1  0
 15 16  1  0
 16 17  1  0
 17 18  1  0
 15 19  1  0
 19 20  2  0
 19 21  1  0
 21 22  1  0
 22 23  1  0
 23 24  2  0
 23 25  1  0
 25 26  1  0
 26 27  1  0
 27 28  2  0
 28 29  1  0
 28 30  1  0
 30 31  1  0
  6 32  1  0
 32 33  2  0
 33  3  1  0
 31 26  2  0
  1 34  1  0
  1 35  1  0
  1 36  1  0
  4 37  1  0
  5 38  1  0
  7 39  1  0
 10 40  1  0
 12 41  1  0
 12 42  1  0
 12 43  1  0
 13 44  1  0
 13 45  1  0
 13 46  1  0
 14 47  1  0
 14 48  1  0
 14 49  1  0
 16 50  1  0
 16 51  1  0
 17 52  1  0
 17 53  1  0
 18 54  1  0
 21 55  1  0
 21 56  1  0
 22 57  1  0
 22 58  1  0
 25 59  1  0
 27 60  1  0
 29 61  1  0
 29 62  1  0
 29 63  1  0
 32 64  1  0
 33 65  1  0
M  END
$$$$
