
     RDKit          3D

 44 46  0  0  0  0  0  0  0  0999 V2000
    4.1272   -0.9923   -3.0004 C   0  0  0  0  0  0  0  0  0  0  0  0
    5.1529   -1.2171   -2.0366 O   0  0  0  0  0  0  0  0  0  0  0  0
    5.0672   -0.4997   -0.8709 C   0  0  0  0  0  0  0  0  0  0  0  0
    4.0898    0.4464   -0.5537 C   0  0  0  0  0  0  0  0  0  0  0  0
    4.1116    1.0954    0.6935 C   0  0  0  0  0  0  0  0  0  0  0  0
    3.1087    2.1048    1.0510 C   0  0  0  0  0  0  0  0  0  0  0  0
    1.7904    1.9085    1.1957 C   0  0  0  0  0  0  0  0  0  0  0  0
    0.7175    3.1877    1.6755 S   0  0  0  0  0  0  0  0  0  0  0  0
   -0.7012    2.1462    1.6847 C   0  0  0  0  0  0  0  0  0  0  0  0
   -2.2225    2.6685    2.1161 S   0  0  0  0  0  0  0  0  0  0  0  0
   -0.3124    0.8783    1.3134 N   0  0  0  0  0  0  0  0  0  0  0  0
   -1.3056   -0.2500    1.0698 N   0  0  0  0  0  0  0  0  0  0  0  0
   -1.8362   -0.3217   -0.5599 S   0  0  0  0  0  6  0  0  0  0  0  0
   -1.3815   -1.5888   -1.0875 O   0  0  0  0  0  0  0  0  0  0  0  0
   -1.4986    0.9354   -1.1989 O   0  0  0  0  0  0  0  0  0  0  0  0
   -3.5936   -0.4136   -0.3485 C   0  0  0  0  0  0  0  0  0  0  0  0
   -4.3813    0.7222   -0.5474 C   0  0  0  0  0  0  0  0  0  0  0  0
   -5.7639    0.6374   -0.3742 C   0  0  0  0  0  0  0  0  0  0  0  0
   -6.3642   -0.5801   -0.0186 C   0  0  0  0  0  0  0  0  0  0  0  0
   -7.8468   -0.6472    0.2133 C   0  0  0  0  0  0  0  0  0  0  0  0
   -5.5636   -1.7167    0.1644 C   0  0  0  0  0  0  0  0  0  0  0  0
   -4.1793   -1.6381   -0.0084 C   0  0  0  0  0  0  0  0  0  0  0  0
    1.0208    0.6416    1.0251 C   0  0  0  0  0  0  0  0  0  0  0  0
    1.4733   -0.4465    0.7024 O   0  0  0  0  0  0  0  0  0  0  0  0
    5.1372    0.8140    1.6066 C   0  0  0  0  0  0  0  0  0  0  0  0
    6.1200   -0.1238    1.2936 C   0  0  0  0  0  0  0  0  0  0  0  0
    6.0743   -0.7689    0.0650 C   0  0  0  0  0  0  0  0  0  0  0  0
    7.0479   -1.6896   -0.2152 O   0  0  0  0  0  0  0  0  0  0  0  0
    3.1381   -1.2415   -2.5976 H   0  0  0  0  0  0  0  0  0  0  0  0
    4.3145   -1.6571   -3.8503 H   0  0  0  0  0  0  0  0  0  0  0  0
    4.1579    0.0373   -3.3727 H   0  0  0  0  0  0  0  0  0  0  0  0
    3.2939    0.6828   -1.2531 H   0  0  0  0  0  0  0  0  0  0  0  0
    3.5313    3.0916    1.2400 H   0  0  0  0  0  0  0  0  0  0  0  0
   -0.8685   -1.1599    1.2688 H   0  0  0  0  0  0  0  0  0  0  0  0
   -3.9309    1.6745   -0.8177 H   0  0  0  0  0  0  0  0  0  0  0  0
   -6.3737    1.5289   -0.5095 H   0  0  0  0  0  0  0  0  0  0  0  0
   -8.3863   -0.1190   -0.5807 H   0  0  0  0  0  0  0  0  0  0  0  0
   -8.2045   -1.6829    0.2177 H   0  0  0  0  0  0  0  0  0  0  0  0
   -8.0936   -0.1917    1.1789 H   0  0  0  0  0  0  0  0  0  0  0  0
   -6.0138   -2.6678    0.4429 H   0  0  0  0  0  0  0  0  0  0  0  0
   -3.5725   -2.5322    0.1238 H   0  0  0  0  0  0  0  0  0  0  0  0
    5.1741    1.3132    2.5706 H   0  0  0  0  0  0  0  0  0  0  0  0
    6.9117   -0.3535    2.0019 H   0  0  0  0  0  0  0  0  0  0  0  0
    6.8341   -2.0150   -1.1131 H   0  0  0  0  0  0  0  0  0  0  0  0
  1  2  1  0
  2  3  1  0
  3  4  2  0
  4  5  1  0
  5  6  1  0
  6  7  2  3
  7  8  1  0
  8  9  1  0
  9 10  2  0
  9 11  1  0
 11 12  1  0
 12 13  1  0
 13 14  2  0
 13 15  2  0
 13 16  1  0
 16 17  2  0
 17 18  1  0
 18 19  2  0
 19 20  1  0
 19 21  1  0
 21 22  2  0
 11 23  1  0
 23 24  2  0
  5 25  2  0
 25 26  1  0
 26 27  2  0
 27 28  1  0
 27  3  1  0
 23  7  1  0
 22 16  1  0
  1 29  1  0
  1 30  1  0
  1 31  1  0
  4 32  1  0
  6 33  1  0
 12 34  1  0
 17 35  1  0
 18 36  1  0
 20 37  1  0
 20 38  1  0
 20 39  1  0
 21 40  1  0
 22 41  1  0
 25 42  1  0
 26 43  1  0
 28 44  1  0
M  END
$$$$
