
     RDKit          3D

 47 49  0  0  0  0  0  0  0  0999 V2000
   -4.3478    2.8216    0.3124 C   0  0  0  0  0  0  0  0  0  0  0  0
   -3.9375    1.7487    1.3070 C   0  0  0  0  0  0  0  0  0  0  0  0
   -4.2036    0.3973    0.7943 N   0  0  0  0  0  4  0  0  0  0  0  0
   -3.2824   -0.3341    0.1766 C   0  0  0  0  0  0  0  0  0  0  0  0
   -1.9622    0.0785   -0.1496 C   0  0  0  0  0  0  0  0  0  0  0  0
   -0.8927   -0.7065    0.0583 C   0  0  0  0  0  0  0  0  0  0  0  0
    0.4560   -0.2800   -0.2492 C   0  0  0  0  0  0  0  0  0  0  0  0
    1.5302   -1.0493   -0.0121 C   0  0  0  0  0  0  0  0  0  0  0  0
    2.9078   -0.6237   -0.2924 C   0  0  0  0  0  0  0  0  0  0  0  0
    3.9165   -0.9406    0.6159 C   0  0  0  0  0  0  0  0  0  0  0  0
    5.2457   -0.5590    0.3734 C   0  0  0  0  0  0  0  0  0  0  0  0
    5.6318    0.1316   -0.7883 C   0  0  0  0  0  0  0  0  0  0  0  0
    6.9533    0.5330   -1.0101 N   0  0  0  0  0  0  0  0  0  0  0  0
    7.3426    1.0166   -2.3345 C   0  0  0  0  0  0  0  0  0  0  0  0
    8.0240   -0.0886   -0.2305 C   0  0  0  0  0  0  0  0  0  0  0  0
    4.5959    0.4285   -1.6908 C   0  0  0  0  0  0  0  0  0  0  0  0
    3.2626    0.0530   -1.4582 C   0  0  0  0  0  0  0  0  0  0  0  0
   -3.9157   -1.8768   -0.2433 S   0  0  0  0  0  0  0  0  0  0  0  0
   -5.4527   -1.5143    0.4329 C   0  0  0  0  0  0  0  0  0  0  0  0
   -6.5973   -2.3246    0.4917 C   0  0  0  0  0  0  0  0  0  0  0  0
   -7.7440   -1.8012    1.0939 C   0  0  0  0  0  0  0  0  0  0  0  0
   -7.7509   -0.5130    1.6183 C   0  0  0  0  0  0  0  0  0  0  0  0
   -6.6053    0.2902    1.5579 C   0  0  0  0  0  0  0  0  0  0  0  0
   -5.4380   -0.2241    0.9560 C   0  0  0  0  0  0  0  0  0  0  0  0
   -4.1265    3.8159    0.7121 H   0  0  0  0  0  0  0  0  0  0  0  0
   -5.4189    2.7700    0.0964 H   0  0  0  0  0  0  0  0  0  0  0  0
   -3.8132    2.7053   -0.6349 H   0  0  0  0  0  0  0  0  0  0  0  0
   -4.4675    1.8879    2.2559 H   0  0  0  0  0  0  0  0  0  0  0  0
   -2.8748    1.8541    1.5529 H   0  0  0  0  0  0  0  0  0  0  0  0
   -1.8216    1.0757   -0.5594 H   0  0  0  0  0  0  0  0  0  0  0  0
   -0.9934   -1.7055    0.4828 H   0  0  0  0  0  0  0  0  0  0  0  0
    0.5907    0.7135   -0.6741 H   0  0  0  0  0  0  0  0  0  0  0  0
    1.4315   -2.0357    0.4364 H   0  0  0  0  0  0  0  0  0  0  0  0
    3.6891   -1.4752    1.5352 H   0  0  0  0  0  0  0  0  0  0  0  0
    5.9741   -0.8187    1.1353 H   0  0  0  0  0  0  0  0  0  0  0  0
    8.3976    1.3124   -2.3553 H   0  0  0  0  0  0  0  0  0  0  0  0
    7.2010    0.2394   -3.0943 H   0  0  0  0  0  0  0  0  0  0  0  0
    6.7758    1.9119   -2.6127 H   0  0  0  0  0  0  0  0  0  0  0  0
    8.0452   -1.1729   -0.3868 H   0  0  0  0  0  0  0  0  0  0  0  0
    9.0056    0.3056   -0.5170 H   0  0  0  0  0  0  0  0  0  0  0  0
    7.9150    0.1280    0.8377 H   0  0  0  0  0  0  0  0  0  0  0  0
    4.7979    0.9630   -2.6141 H   0  0  0  0  0  0  0  0  0  0  0  0
    2.5187    0.2949   -2.2125 H   0  0  0  0  0  0  0  0  0  0  0  0
   -6.6002   -3.3322    0.0802 H   0  0  0  0  0  0  0  0  0  0  0  0
   -8.6456   -2.4117    1.1505 H   0  0  0  0  0  0  0  0  0  0  0  0
   -8.6606   -0.1279    2.0802 H   0  0  0  0  0  0  0  0  0  0  0  0
   -6.6560    1.2917    1.9760 H   0  0  0  0  0  0  0  0  0  0  0  0
  1  2  1  0
  2  3  1  0
  3  4  2  0
  4  5  1  0
  5  6  2  3
  6  7  1  0
  7  8  2  3
  8  9  1  0
  9 10  2  0
 10 11  1  0
 11 12  2  0
 12 13  1  0
 13 14  1  0
 13 15  1  0
 12 16  1  0
 16 17  2  0
  4 18  1  0
 18 19  1  0
 19 20  2  0
 20 21  1  0
 21 22  2  0
 22 23  1  0
 23 24  2  0
 24  3  1  0
 17  9  1  0
 24 19  1  0
  1 25  1  0
  1 26  1  0
  1 27  1  0
  2 28  1  0
  2 29  1  0
  5 30  1  0
  6 31  1  0
  7 32  1  0
  8 33  1  0
 10 34  1  0
 11 35  1  0
 14 36  1  0
 14 37  1  0
 14 38  1  0
 15 39  1  0
 15 40  1  0
 15 41  1  0
 16 42  1  0
 17 43  1  0
 20 44  1  0
 21 45  1  0
 22 46  1  0
 23 47  1  0
M  CHG  1   3   1
M  END
$$$$
