
     RDKit          3D

 44 47  0  0  0  0  0  0  0  0999 V2000
   -3.4008    5.5353   -1.4412 N   0  0  0  0  0  0  0  0  0  0  0  0
   -4.3019    4.5902   -1.1116 C   0  0  0  0  0  0  0  0  0  0  0  0
   -5.6211    4.7462   -1.2118 N   0  0  0  0  0  0  0  0  0  0  0  0
   -6.1723    3.5518   -0.7616 O   0  0  0  0  0  0  0  0  0  0  0  0
   -5.1811    2.6497   -0.3810 N   0  0  0  0  0  0  0  0  0  0  0  0
   -4.0405    3.2990   -0.6123 C   0  0  0  0  0  0  0  0  0  0  0  0
   -2.7809    2.6960   -0.3603 N   0  0  0  0  0  0  0  0  0  0  0  0
   -1.6173    3.3697   -0.6111 N   0  0  0  0  0  0  0  0  0  0  0  0
   -0.5903    2.6065   -0.2885 N   0  0  0  0  0  0  0  0  0  0  0  0
   -1.0726    1.4145    0.1785 C   0  0  0  0  0  0  0  0  0  0  0  0
   -0.1875    0.3404    0.6197 C   0  0  0  0  0  0  0  0  0  0  0  0
   -0.6112   -0.6752    1.1615 O   0  0  0  0  0  0  0  0  0  0  0  0
    1.1459    0.6061    0.3483 N   0  0  0  0  0  0  0  0  0  0  0  0
    2.1081   -0.3183    0.6271 N   0  0  0  0  0  0  0  0  0  0  0  0
    3.3140    0.0229    0.3058 C   0  0  0  0  0  0  0  0  0  0  0  0
    4.4676   -0.8630    0.5587 C   0  0  0  0  0  0  0  0  0  0  0  0
    4.4215   -2.2412    0.2993 C   0  0  0  0  0  0  0  0  0  0  0  0
    3.0668   -3.0308   -0.4302 Cl  0  0  0  0  0  0  0  0  0  0  0  0
    5.5383   -3.0429    0.5699 C   0  0  0  0  0  0  0  0  0  0  0  0
    6.7037   -2.4815    1.0883 C   0  0  0  0  0  0  0  0  0  0  0  0
    6.7607   -1.1115    1.3316 C   0  0  0  0  0  0  0  0  0  0  0  0
    5.6502   -0.3023    1.0664 C   0  0  0  0  0  0  0  0  0  0  0  0
    5.8058    1.3848    1.4207 Cl  0  0  0  0  0  0  0  0  0  0  0  0
   -2.4603    1.4279    0.1270 C   0  0  0  0  0  0  0  0  0  0  0  0
   -3.4388    0.3581    0.4698 C   0  0  0  0  0  0  0  0  0  0  0  0
   -3.8940   -0.5722   -1.0217 S   0  0  0  0  0  0  0  0  0  0  0  0
   -2.9160   -1.9770   -0.7774 C   0  0  0  0  0  0  0  0  0  0  0  0
   -3.1130   -2.8000    0.1953 N   0  0  0  0  0  0  0  0  0  0  0  0
   -2.1333   -3.9024    0.0858 C   0  0  0  0  0  0  0  0  0  0  0  0
   -0.9224   -3.4607   -0.7241 C   0  0  0  0  0  0  0  0  0  0  0  0
   -1.6300   -2.2943   -1.9017 S   0  0  0  0  0  0  0  0  0  0  0  0
   -3.7061    6.3359   -1.9848 H   0  0  0  0  0  0  0  0  0  0  0  0
   -2.4121    5.3102   -1.5373 H   0  0  0  0  0  0  0  0  0  0  0  0
    1.3879    1.4805   -0.1095 H   0  0  0  0  0  0  0  0  0  0  0  0
    3.5331    1.0107   -0.1381 H   0  0  0  0  0  0  0  0  0  0  0  0
    5.5070   -4.1122    0.3680 H   0  0  0  0  0  0  0  0  0  0  0  0
    7.5664   -3.1106    1.2966 H   0  0  0  0  0  0  0  0  0  0  0  0
    7.6743   -0.6789    1.7351 H   0  0  0  0  0  0  0  0  0  0  0  0
   -4.3443    0.7695    0.9221 H   0  0  0  0  0  0  0  0  0  0  0  0
   -3.0355   -0.3092    1.2368 H   0  0  0  0  0  0  0  0  0  0  0  0
   -2.6240   -4.7645   -0.3830 H   0  0  0  0  0  0  0  0  0  0  0  0
   -1.8198   -4.2148    1.0877 H   0  0  0  0  0  0  0  0  0  0  0  0
   -0.1962   -2.9428   -0.0926 H   0  0  0  0  0  0  0  0  0  0  0  0
   -0.4278   -4.2996   -1.2203 H   0  0  0  0  0  0  0  0  0  0  0  0
  1  2  1  0
  2  3  2  0
  3  4  1  0
  4  5  1  0
  5  6  2  0
  6  7  1  0
  7  8  1  0
  8  9  2  0
  9 10  1  0
 10 11  1  0
 11 12  2  0
 11 13  1  0
 13 14  1  0
 14 15  2  3
 15 16  1  0
 16 17  2  0
 17 18  1  0
 17 19  1  0
 19 20  2  0
 20 21  1  0
 21 22  2  0
 22 23  1  0
 10 24  2  0
 24 25  1  0
 25 26  1  0
 26 27  1  0
 27 28  2  0
 28 29  1  0
 29 30  1  0
 30 31  1  0
  6  2  1  0
 24  7  1  0
 31 27  1  0
 22 16  1  0
  1 32  1  0
  1 33  1  0
 13 34  1  0
 15 35  1  0
 19 36  1  0
 20 37  1  0
 21 38  1  0
 25 39  1  0
 25 40  1  0
 29 41  1  0
 29 42  1  0
 30 43  1  0
 30 44  1  0
M  END
$$$$
