
     RDKit          3D

 52 54  0  0  0  0  0  0  0  0999 V2000
   -5.3209   -0.3796    1.2410 C   0  0  0  0  0  0  0  0  0  0  0  0
   -4.2142   -0.1023    0.3343 N   0  0  0  0  0  0  0  0  0  0  0  0
   -4.5456    0.6113   -0.9008 C   0  0  0  0  0  0  0  0  0  0  0  0
   -5.3977   -0.1921   -1.8578 C   0  0  0  0  0  0  0  0  0  0  0  0
   -6.5139    0.4026   -2.4656 C   0  0  0  0  0  0  0  0  0  0  0  0
   -7.2979   -0.3142   -3.3719 C   0  0  0  0  0  0  0  0  0  0  0  0
   -6.9708   -1.6302   -3.6894 C   0  0  0  0  0  0  0  0  0  0  0  0
   -5.8579   -2.2294   -3.1044 C   0  0  0  0  0  0  0  0  0  0  0  0
   -5.0735   -1.5148   -2.1967 C   0  0  0  0  0  0  0  0  0  0  0  0
   -2.9617   -0.6273    0.6357 C   0  0  0  0  0  0  0  0  0  0  0  0
   -2.7694   -1.3393    1.6258 O   0  0  0  0  0  0  0  0  0  0  0  0
   -1.8017   -0.3034   -0.3184 C   0  0  0  0  0  0  0  0  0  0  0  0
   -0.5568   -0.8273    0.1531 O   0  0  0  0  0  0  0  0  0  0  0  0
   -0.0049   -0.1102    1.1734 C   0  0  0  0  0  0  0  0  0  0  0  0
   -0.4236    0.9674    1.5826 O   0  0  0  0  0  0  0  0  0  0  0  0
    1.1915   -0.8462    1.7436 C   0  0  0  0  0  0  0  0  0  0  0  0
    1.9698    0.0582    2.5995 N   0  0  0  0  0  0  0  0  0  0  0  0
    3.4282   -0.4685    3.2080 S   0  0  0  0  0  6  0  0  0  0  0  0
    3.7824    0.4301    4.2830 O   0  0  0  0  0  0  0  0  0  0  0  0
    3.3399   -1.8988    3.4000 O   0  0  0  0  0  0  0  0  0  0  0  0
    4.5249   -0.1397    1.8541 C   0  0  0  0  0  0  0  0  0  0  0  0
    5.0918   -1.1959    1.1412 C   0  0  0  0  0  0  0  0  0  0  0  0
    5.9495   -0.9193    0.0757 C   0  0  0  0  0  0  0  0  0  0  0  0
    6.2494    0.4069   -0.2805 C   0  0  0  0  0  0  0  0  0  0  0  0
    7.1089    0.6978   -1.3515 C   0  0  0  0  0  0  0  0  0  0  0  0
    7.4010    2.0193   -1.6935 C   0  0  0  0  0  0  0  0  0  0  0  0
    6.8394    3.0668   -0.9691 C   0  0  0  0  0  0  0  0  0  0  0  0
    5.9832    2.7963    0.0993 C   0  0  0  0  0  0  0  0  0  0  0  0
    5.6775    1.4733    0.4554 C   0  0  0  0  0  0  0  0  0  0  0  0
    4.8174    1.1879    1.5255 C   0  0  0  0  0  0  0  0  0  0  0  0
   -5.9718   -1.1356    0.7931 H   0  0  0  0  0  0  0  0  0  0  0  0
   -5.8876    0.5414    1.4061 H   0  0  0  0  0  0  0  0  0  0  0  0
   -4.9731   -0.7489    2.2092 H   0  0  0  0  0  0  0  0  0  0  0  0
   -5.0660    1.5297   -0.6026 H   0  0  0  0  0  0  0  0  0  0  0  0
   -3.6474    0.9257   -1.4373 H   0  0  0  0  0  0  0  0  0  0  0  0
   -6.7857    1.4308   -2.2362 H   0  0  0  0  0  0  0  0  0  0  0  0
   -8.1650    0.1544   -3.8304 H   0  0  0  0  0  0  0  0  0  0  0  0
   -7.5821   -2.1885   -4.3940 H   0  0  0  0  0  0  0  0  0  0  0  0
   -5.6016   -3.2568   -3.3520 H   0  0  0  0  0  0  0  0  0  0  0  0
   -4.2150   -2.0084   -1.7481 H   0  0  0  0  0  0  0  0  0  0  0  0
   -1.7189    0.7768   -0.4790 H   0  0  0  0  0  0  0  0  0  0  0  0
   -2.0017   -0.7843   -1.2807 H   0  0  0  0  0  0  0  0  0  0  0  0
    0.8133   -1.6855    2.3345 H   0  0  0  0  0  0  0  0  0  0  0  0
    1.8132   -1.2020    0.9169 H   0  0  0  0  0  0  0  0  0  0  0  0
    1.4518    0.7046    3.1985 H   0  0  0  0  0  0  0  0  0  0  0  0
    4.8768   -2.2290    1.4053 H   0  0  0  0  0  0  0  0  0  0  0  0
    6.3880   -1.7487   -0.4758 H   0  0  0  0  0  0  0  0  0  0  0  0
    7.5606   -0.1059   -1.9288 H   0  0  0  0  0  0  0  0  0  0  0  0
    8.0692    2.2300   -2.5245 H   0  0  0  0  0  0  0  0  0  0  0  0
    7.0687    4.0960   -1.2336 H   0  0  0  0  0  0  0  0  0  0  0  0
    5.5567    3.6295    0.6542 H   0  0  0  0  0  0  0  0  0  0  0  0
    4.3732    1.9955    2.1046 H   0  0  0  0  0  0  0  0  0  0  0  0
  1  2  1  0
  2  3  1  0
  3  4  1  0
  4  5  2  0
  5  6  1  0
  6  7  2  0
  7  8  1  0
  8  9  2  0
  2 10  1  0
 10 11  2  0
 10 12  1  0
 12 13  1  0
 13 14  1  0
 14 15  2  0
 14 16  1  0
 16 17  1  0
 17 18  1  0
 18 19  2  0
 18 20  2  0
 18 21  1  0
 21 22  2  0
 22 23  1  0
 23 24  2  0
 24 25  1  0
 25 26  2  0
 26 27  1  0
 27 28  2  0
 28 29  1  0
 29 30  2  0
  9  4  1  0
 30 21  1  0
 29 24  1  0
  1 31  1  0
  1 32  1  0
  1 33  1  0
  3 34  1  0
  3 35  1  0
  5 36  1  0
  6 37  1  0
  7 38  1  0
  8 39  1  0
  9 40  1  0
 12 41  1  0
 12 42  1  0
 16 43  1  0
 16 44  1  0
 17 45  1  0
 22 46  1  0
 23 47  1  0
 25 48  1  0
 26 49  1  0
 27 50  1  0
 28 51  1  0
 30 52  1  0
M  END
$$$$
