
     RDKit          3D

 46 48  0  0  0  0  0  0  0  0999 V2000
    0.9494    3.3316    2.3326 O   0  0  0  0  0  0  0  0  0  0  0  0
    0.7457    3.4381    1.1233 C   0  0  0  0  0  0  0  0  0  0  0  0
   -0.4839    4.1282    0.5426 C   0  0  0  0  0  0  0  0  0  0  0  0
   -1.0790    3.4212   -0.5373 O   0  0  0  0  0  0  0  0  0  0  0  0
   -1.8352    2.3210   -0.2491 C   0  0  0  0  0  0  0  0  0  0  0  0
   -2.3735    1.6810   -1.3660 C   0  0  0  0  0  0  0  0  0  0  0  0
   -3.1672    0.5389   -1.2255 C   0  0  0  0  0  0  0  0  0  0  0  0
   -3.4461    0.0068    0.0407 C   0  0  0  0  0  0  0  0  0  0  0  0
   -4.2997   -1.1845    0.2002 C   0  0  0  0  0  0  0  0  0  0  0  0
   -5.5502   -1.2707   -0.4378 C   0  0  0  0  0  0  0  0  0  0  0  0
   -6.3713   -2.3884   -0.2725 C   0  0  0  0  0  0  0  0  0  0  0  0
   -5.9555   -3.4462    0.5329 C   0  0  0  0  0  0  0  0  0  0  0  0
   -4.7203   -3.3848    1.1728 C   0  0  0  0  0  0  0  0  0  0  0  0
   -3.9005   -2.2648    1.0072 C   0  0  0  0  0  0  0  0  0  0  0  0
   -2.8927    0.6580    1.1557 C   0  0  0  0  0  0  0  0  0  0  0  0
   -2.0984    1.8049    1.0168 C   0  0  0  0  0  0  0  0  0  0  0  0
    1.6384    2.9899    0.1681 N   0  0  0  0  0  0  0  0  0  0  0  0
    2.7103    2.1882    0.6095 N   0  0  0  0  0  0  0  0  0  0  0  0
    3.1627    1.2135   -0.2665 C   0  0  0  0  0  0  0  0  0  0  0  0
    2.7513    1.1418   -1.4222 O   0  0  0  0  0  0  0  0  0  0  0  0
    4.1206    0.4205    0.3195 N   0  0  0  0  0  0  0  0  0  0  0  0
    4.8033   -0.6709   -0.2538 C   0  0  0  0  0  0  0  0  0  0  0  0
    4.5100   -1.2172   -1.5061 C   0  0  0  0  0  0  0  0  0  0  0  0
    5.2656   -2.2914   -1.9947 C   0  0  0  0  0  0  0  0  0  0  0  0
    6.3012   -2.8198   -1.2298 C   0  0  0  0  0  0  0  0  0  0  0  0
    7.0263   -3.8380   -1.7144 F   0  0  0  0  0  0  0  0  0  0  0  0
    6.6020   -2.2996    0.0205 C   0  0  0  0  0  0  0  0  0  0  0  0
    5.8519   -1.2298    0.4956 C   0  0  0  0  0  0  0  0  0  0  0  0
    6.1468   -0.7112    1.6993 F   0  0  0  0  0  0  0  0  0  0  0  0
   -0.1470    5.0936    0.1467 H   0  0  0  0  0  0  0  0  0  0  0  0
   -1.2118    4.3551    1.3323 H   0  0  0  0  0  0  0  0  0  0  0  0
   -2.1750    2.0705   -2.3591 H   0  0  0  0  0  0  0  0  0  0  0  0
   -3.5604    0.0607   -2.1203 H   0  0  0  0  0  0  0  0  0  0  0  0
   -5.9061   -0.4497   -1.0584 H   0  0  0  0  0  0  0  0  0  0  0  0
   -7.3359   -2.4302   -0.7723 H   0  0  0  0  0  0  0  0  0  0  0  0
   -6.5946   -4.3172    0.6616 H   0  0  0  0  0  0  0  0  0  0  0  0
   -4.3909   -4.2104    1.8003 H   0  0  0  0  0  0  0  0  0  0  0  0
   -2.9355   -2.2458    1.5096 H   0  0  0  0  0  0  0  0  0  0  0  0
   -3.0947    0.2838    2.1588 H   0  0  0  0  0  0  0  0  0  0  0  0
   -1.7103    2.2577    1.9239 H   0  0  0  0  0  0  0  0  0  0  0  0
    1.3140    2.8048   -0.7850 H   0  0  0  0  0  0  0  0  0  0  0  0
    2.6943    1.9823    1.6036 H   0  0  0  0  0  0  0  0  0  0  0  0
    4.4601    0.7158    1.2270 H   0  0  0  0  0  0  0  0  0  0  0  0
    3.7097   -0.8257   -2.1281 H   0  0  0  0  0  0  0  0  0  0  0  0
    5.0526   -2.7064   -2.9764 H   0  0  0  0  0  0  0  0  0  0  0  0
    7.4196   -2.7054    0.6074 H   0  0  0  0  0  0  0  0  0  0  0  0
  1  2  2  0
  2  3  1  0
  3  4  1  0
  4  5  1  0
  5  6  2  0
  6  7  1  0
  7  8  2  0
  8  9  1  0
  9 10  2  0
 10 11  1  0
 11 12  2  0
 12 13  1  0
 13 14  2  0
  8 15  1  0
 15 16  2  0
  2 17  1  0
 17 18  1  0
 18 19  1  0
 19 20  2  0
 19 21  1  0
 21 22  1  0
 22 23  2  0
 23 24  1  0
 24 25  2  0
 25 26  1  0
 25 27  1  0
 27 28  2  0
 28 29  1  0
 16  5  1  0
 28 22  1  0
 14  9  1  0
  3 30  1  0
  3 31  1  0
  6 32  1  0
  7 33  1  0
 10 34  1  0
 11 35  1  0
 12 36  1  0
 13 37  1  0
 14 38  1  0
 15 39  1  0
 16 40  1  0
 17 41  1  0
 18 42  1  0
 21 43  1  0
 23 44  1  0
 24 45  1  0
 27 46  1  0
M  END
$$$$
