
     RDKit          3D

 50 52  0  0  0  0  0  0  0  0999 V2000
    7.6672    2.6259    0.1827 C   0  0  0  0  0  0  0  0  0  0  0  0
    7.1776    1.9093   -0.9439 O   0  0  0  0  0  0  0  0  0  0  0  0
    5.8670    1.5229   -0.9063 C   0  0  0  0  0  0  0  0  0  0  0  0
    4.9622    1.7814    0.1212 C   0  0  0  0  0  0  0  0  0  0  0  0
    3.6383    1.3261    0.0329 C   0  0  0  0  0  0  0  0  0  0  0  0
    3.2051    0.6059   -1.0805 C   0  0  0  0  0  0  0  0  0  0  0  0
    1.8946    0.1163   -1.2451 N   0  0  0  0  0  0  0  0  0  0  0  0
    0.8438    0.1808   -0.3403 C   0  0  0  0  0  0  0  0  0  0  0  0
    0.8882    0.6639    0.7920 O   0  0  0  0  0  0  0  0  0  0  0  0
   -0.4635   -0.4537   -0.8853 C   0  0  0  0  0  0  0  0  0  0  0  0
   -1.5532   -0.1506    0.0287 N   0  0  0  0  0  0  0  0  0  0  0  0
   -2.8176    0.1391   -0.4241 C   0  0  0  0  0  0  0  0  0  0  0  0
   -3.1196    0.1367   -1.6131 O   0  0  0  0  0  0  0  0  0  0  0  0
   -3.8258    0.5052    0.6098 C   0  0  0  0  0  0  0  0  0  0  0  0
   -3.7243    0.0702    1.9367 C   0  0  0  0  0  0  0  0  0  0  0  0
   -4.6964    0.4399    2.8711 C   0  0  0  0  0  0  0  0  0  0  0  0
   -5.7808    1.2417    2.4924 C   0  0  0  0  0  0  0  0  0  0  0  0
   -6.8243    1.6166    3.5034 C   0  0  0  0  0  0  0  0  0  0  0  0
   -5.8911    1.6550    1.1597 C   0  0  0  0  0  0  0  0  0  0  0  0
   -4.9207    1.2876    0.2239 C   0  0  0  0  0  0  0  0  0  0  0  0
   -0.3478   -1.9559   -1.0829 C   0  0  0  0  0  0  0  0  0  0  0  0
    0.2979   -2.7783   -0.1448 C   0  0  0  0  0  0  0  0  0  0  0  0
    0.3834   -4.1566   -0.3489 C   0  0  0  0  0  0  0  0  0  0  0  0
   -0.1868   -4.7320   -1.4826 C   0  0  0  0  0  0  0  0  0  0  0  0
   -0.8515   -3.9320   -2.4093 C   0  0  0  0  0  0  0  0  0  0  0  0
   -0.9367   -2.5536   -2.2088 C   0  0  0  0  0  0  0  0  0  0  0  0
    4.1158    0.3522   -2.1116 C   0  0  0  0  0  0  0  0  0  0  0  0
    5.4349    0.8077   -2.0229 C   0  0  0  0  0  0  0  0  0  0  0  0
    8.7234    2.8498    0.0032 H   0  0  0  0  0  0  0  0  0  0  0  0
    7.1404    3.5783    0.3045 H   0  0  0  0  0  0  0  0  0  0  0  0
    7.6063    2.0198    1.0926 H   0  0  0  0  0  0  0  0  0  0  0  0
    5.2459    2.3376    1.0087 H   0  0  0  0  0  0  0  0  0  0  0  0
    2.9712    1.5588    0.8570 H   0  0  0  0  0  0  0  0  0  0  0  0
    1.7169   -0.3912   -2.1053 H   0  0  0  0  0  0  0  0  0  0  0  0
   -0.6633    0.0350   -1.8480 H   0  0  0  0  0  0  0  0  0  0  0  0
   -1.2793    0.0795    0.9769 H   0  0  0  0  0  0  0  0  0  0  0  0
   -2.9134   -0.5776    2.2570 H   0  0  0  0  0  0  0  0  0  0  0  0
   -4.6076    0.0913    3.8983 H   0  0  0  0  0  0  0  0  0  0  0  0
   -7.3993    0.7320    3.7951 H   0  0  0  0  0  0  0  0  0  0  0  0
   -7.5206    2.3611    3.1034 H   0  0  0  0  0  0  0  0  0  0  0  0
   -6.3532    2.0493    4.3919 H   0  0  0  0  0  0  0  0  0  0  0  0
   -6.7332    2.2637    0.8374 H   0  0  0  0  0  0  0  0  0  0  0  0
   -5.0208    1.6146   -0.8092 H   0  0  0  0  0  0  0  0  0  0  0  0
    0.7377   -2.3551    0.7569 H   0  0  0  0  0  0  0  0  0  0  0  0
    0.8888   -4.7832    0.3819 H   0  0  0  0  0  0  0  0  0  0  0  0
   -0.1257   -5.8061   -1.6364 H   0  0  0  0  0  0  0  0  0  0  0  0
   -1.3157   -4.3823   -3.2832 H   0  0  0  0  0  0  0  0  0  0  0  0
   -1.4853   -1.9466   -2.9283 H   0  0  0  0  0  0  0  0  0  0  0  0
    3.8195   -0.2023   -2.9981 H   0  0  0  0  0  0  0  0  0  0  0  0
    6.1315    0.6020   -2.8321 H   0  0  0  0  0  0  0  0  0  0  0  0
  1  2  1  0
  2  3  1  0
  3  4  2  0
  4  5  1  0
  5  6  2  0
  6  7  1  0
  7  8  1  0
  8  9  2  0
  8 10  1  0
 10 11  1  0
 11 12  1  0
 12 13  2  0
 12 14  1  0
 14 15  2  0
 15 16  1  0
 16 17  2  0
 17 18  1  0
 17 19  1  0
 19 20  2  0
 10 21  1  0
 21 22  2  0
 22 23  1  0
 23 24  2  0
 24 25  1  0
 25 26  2  0
  6 27  1  0
 27 28  2  0
 28  3  1  0
 20 14  1  0
 26 21  1  0
  1 29  1  0
  1 30  1  0
  1 31  1  0
  4 32  1  0
  5 33  1  0
  7 34  1  0
 10 35  1  0
 11 36  1  0
 15 37  1  0
 16 38  1  0
 18 39  1  0
 18 40  1  0
 18 41  1  0
 19 42  1  0
 20 43  1  0
 22 44  1  0
 23 45  1  0
 24 46  1  0
 25 47  1  0
 26 48  1  0
 27 49  1  0
 28 50  1  0
M  END
$$$$
