
     RDKit          3D

 49 52  0  0  0  0  0  0  0  0999 V2000
    5.2024   -2.5851    1.5514 C   0  0  0  0  0  0  0  0  0  0  0  0
    4.8908   -1.1777    1.1234 C   0  0  0  0  0  0  0  0  0  0  0  0
    5.9636   -0.4236    0.6019 C   0  0  0  0  0  0  0  0  0  0  0  0
    5.8048    0.9198    0.2681 C   0  0  0  0  0  0  0  0  0  0  0  0
    7.1404    1.8153   -0.3432 Cl  0  0  0  0  0  0  0  0  0  0  0  0
    4.5784    1.5424    0.4504 C   0  0  0  0  0  0  0  0  0  0  0  0
    3.5024    0.8043    0.9460 C   0  0  0  0  0  0  0  0  0  0  0  0
    3.6309   -0.5650    1.2473 C   0  0  0  0  0  0  0  0  0  0  0  0
    2.4494   -1.1893    1.7060 N   0  0  0  0  0  0  0  0  0  0  0  0
    2.0399   -2.4881    1.4476 C   0  0  0  0  0  0  0  0  0  0  0  0
    2.6203   -3.3035    0.7354 O   0  0  0  0  0  0  0  0  0  0  0  0
    0.7066   -2.8325    2.1005 C   0  0  0  0  0  0  0  0  0  0  0  0
   -0.6500   -2.6801    0.8950 S   0  0  0  0  0  0  0  0  0  0  0  0
   -0.6407   -0.9749    0.6234 C   0  0  0  0  0  0  0  0  0  0  0  0
   -0.1452   -0.0834    1.4495 N   0  0  0  0  0  0  0  0  0  0  0  0
   -0.2630    1.1441    0.8580 N   0  0  0  0  0  0  0  0  0  0  0  0
   -0.8582    0.9860   -0.3113 C   0  0  0  0  0  0  0  0  0  0  0  0
   -1.2109    2.0858   -1.2610 C   0  0  0  0  0  0  0  0  0  0  0  0
   -2.6104    2.6067   -1.0716 C   0  0  0  0  0  0  0  0  0  0  0  0
   -3.3460    2.7414    0.0921 C   0  0  0  0  0  0  0  0  0  0  0  0
   -4.6411    3.2868   -0.1404 C   0  0  0  0  0  0  0  0  0  0  0  0
   -4.8512    3.5652   -1.4712 C   0  0  0  0  0  0  0  0  0  0  0  0
   -3.4918    3.1754   -2.4312 S   0  0  0  0  0  0  0  0  0  0  0  0
   -1.1086   -0.3584   -0.5039 N   0  0  0  0  0  0  0  0  0  0  0  0
   -1.6833   -0.9806   -1.6820 C   0  0  0  0  0  0  0  0  0  0  0  0
   -3.1641   -0.9226   -1.6566 C   0  0  0  0  0  0  0  0  0  0  0  0
   -4.1259   -1.2525   -0.7210 C   0  0  0  0  0  0  0  0  0  0  0  0
   -5.3777   -0.9596   -1.3135 C   0  0  0  0  0  0  0  0  0  0  0  0
   -5.1024   -0.4813   -2.5735 C   0  0  0  0  0  0  0  0  0  0  0  0
   -3.7624   -0.4577   -2.7925 O   0  0  0  0  0  0  0  0  0  0  0  0
    4.6033   -2.8878    2.4136 H   0  0  0  0  0  0  0  0  0  0  0  0
    5.0604   -3.2829    0.7214 H   0  0  0  0  0  0  0  0  0  0  0  0
    6.2465   -2.6666    1.8722 H   0  0  0  0  0  0  0  0  0  0  0  0
    6.9403   -0.8890    0.4791 H   0  0  0  0  0  0  0  0  0  0  0  0
    4.4483    2.5930    0.2078 H   0  0  0  0  0  0  0  0  0  0  0  0
    2.5465    1.3097    1.0701 H   0  0  0  0  0  0  0  0  0  0  0  0
    1.6792   -0.5491    1.9100 H   0  0  0  0  0  0  0  0  0  0  0  0
    0.5210   -2.2074    2.9800 H   0  0  0  0  0  0  0  0  0  0  0  0
    0.7599   -3.8694    2.4501 H   0  0  0  0  0  0  0  0  0  0  0  0
   -0.5110    2.9182   -1.1036 H   0  0  0  0  0  0  0  0  0  0  0  0
   -1.0539    1.7510   -2.2943 H   0  0  0  0  0  0  0  0  0  0  0  0
   -2.9749    2.4565    1.0717 H   0  0  0  0  0  0  0  0  0  0  0  0
   -5.3789    3.4684    0.6313 H   0  0  0  0  0  0  0  0  0  0  0  0
   -5.7373    3.9855   -1.9284 H   0  0  0  0  0  0  0  0  0  0  0  0
   -1.2772   -0.4677   -2.5601 H   0  0  0  0  0  0  0  0  0  0  0  0
   -1.3430   -2.0180   -1.7489 H   0  0  0  0  0  0  0  0  0  0  0  0
   -3.9493   -1.6494    0.2712 H   0  0  0  0  0  0  0  0  0  0  0  0
   -6.3606   -1.0798   -0.8769 H   0  0  0  0  0  0  0  0  0  0  0  0
   -5.7166   -0.1249   -3.3894 H   0  0  0  0  0  0  0  0  0  0  0  0
  1  2  1  0
  2  3  2  0
  3  4  1  0
  4  5  1  0
  4  6  2  0
  6  7  1  0
  7  8  2  0
  8  9  1  0
  9 10  1  0
 10 11  2  0
 10 12  1  0
 12 13  1  0
 13 14  1  0
 14 15  2  0
 15 16  1  0
 16 17  2  0
 17 18  1  0
 18 19  1  0
 19 20  2  0
 20 21  1  0
 21 22  2  0
 22 23  1  0
 17 24  1  0
 24 25  1  0
 25 26  1  0
 26 27  2  0
 27 28  1  0
 28 29  2  0
 29 30  1  0
  8  2  1  0
 24 14  1  0
 30 26  1  0
 23 19  1  0
  1 31  1  0
  1 32  1  0
  1 33  1  0
  3 34  1  0
  6 35  1  0
  7 36  1  0
  9 37  1  0
 12 38  1  0
 12 39  1  0
 18 40  1  0
 18 41  1  0
 20 42  1  0
 21 43  1  0
 22 44  1  0
 25 45  1  0
 25 46  1  0
 27 47  1  0
 28 48  1  0
 29 49  1  0
M  END
$$$$
