
     RDKit          3D

 44 47  0  0  0  0  0  0  0  0999 V2000
   -6.1678   -1.8687   -1.6159 C   0  0  0  0  0  0  0  0  0  0  0  0
   -4.9519   -1.2131   -0.9858 C   0  0  0  0  0  0  0  0  0  0  0  0
   -4.8018   -1.7502    0.3341 O   0  0  0  0  0  0  0  0  0  0  0  0
   -3.5150   -1.6135    0.7940 C   0  0  0  0  0  0  0  0  0  0  0  0
   -2.8233   -2.8042    1.0248 C   0  0  0  0  0  0  0  0  0  0  0  0
   -1.5174   -2.7697    1.5089 C   0  0  0  0  0  0  0  0  0  0  0  0
   -0.9027   -1.5427    1.7730 C   0  0  0  0  0  0  0  0  0  0  0  0
    0.4610   -1.5344    2.3128 C   0  0  0  0  0  0  0  0  0  0  0  0
    1.5480   -1.0086    1.7274 C   0  0  0  0  0  0  0  0  0  0  0  0
    3.1321   -1.0854    2.5050 S   0  0  0  0  0  0  0  0  0  0  0  0
    3.8241   -0.2708    1.1671 C   0  0  0  0  0  0  0  0  0  0  0  0
    5.0178    0.1402    0.8523 N   0  0  0  0  0  0  0  0  0  0  0  0
    4.7887    0.7193   -0.3889 C   0  0  0  0  0  0  0  0  0  0  0  0
    5.9377    1.3764   -1.2212 C   0  0  0  0  0  0  0  0  0  0  0  0
    7.2615    1.4568   -0.8324 C   0  0  0  0  0  0  0  0  0  0  0  0
    7.9520    2.1257   -1.8726 C   0  0  0  0  0  0  0  0  0  0  0  0
    7.0111    2.4066   -2.8341 C   0  0  0  0  0  0  0  0  0  0  0  0
    5.7887    1.9597   -2.4488 O   0  0  0  0  0  0  0  0  0  0  0  0
    3.5113    0.6714   -0.8180 N   0  0  0  0  0  0  0  0  0  0  0  0
    2.9281    0.0296    0.2076 N   0  0  0  0  0  0  0  0  0  0  0  0
    1.6080   -0.3263    0.3912 C   0  0  0  0  0  0  0  0  0  0  0  0
    0.7322   -0.0876   -0.4180 O   0  0  0  0  0  0  0  0  0  0  0  0
   -1.6183   -0.3502    1.5766 C   0  0  0  0  0  0  0  0  0  0  0  0
   -2.9296   -0.3714    1.0876 C   0  0  0  0  0  0  0  0  0  0  0  0
   -3.7129    0.7329    0.8903 O   0  0  0  0  0  0  0  0  0  0  0  0
   -3.1714    2.0358    1.0946 C   0  0  0  0  0  0  0  0  0  0  0  0
   -2.3955    2.5065   -0.1237 C   0  0  0  0  0  0  0  0  0  0  0  0
   -6.3348   -1.4905   -2.6290 H   0  0  0  0  0  0  0  0  0  0  0  0
   -6.0397   -2.9555   -1.6617 H   0  0  0  0  0  0  0  0  0  0  0  0
   -7.0635   -1.6791   -1.0145 H   0  0  0  0  0  0  0  0  0  0  0  0
   -4.0698   -1.4191   -1.6056 H   0  0  0  0  0  0  0  0  0  0  0  0
   -5.1182   -0.1324   -0.9359 H   0  0  0  0  0  0  0  0  0  0  0  0
   -3.3045   -3.7564    0.8176 H   0  0  0  0  0  0  0  0  0  0  0  0
   -0.9902   -3.7064    1.6742 H   0  0  0  0  0  0  0  0  0  0  0  0
    0.5505   -2.0319    3.2779 H   0  0  0  0  0  0  0  0  0  0  0  0
    7.6697    1.0778    0.0946 H   0  0  0  0  0  0  0  0  0  0  0  0
    9.0041    2.3697   -1.9173 H   0  0  0  0  0  0  0  0  0  0  0  0
    7.0456    2.8926   -3.7990 H   0  0  0  0  0  0  0  0  0  0  0  0
   -1.1276    0.5874    1.8111 H   0  0  0  0  0  0  0  0  0  0  0  0
   -4.0292    2.7039    1.2337 H   0  0  0  0  0  0  0  0  0  0  0  0
   -2.5888    2.1061    2.0192 H   0  0  0  0  0  0  0  0  0  0  0  0
   -1.5222    1.8759   -0.3125 H   0  0  0  0  0  0  0  0  0  0  0  0
   -3.0220    2.4567   -1.0210 H   0  0  0  0  0  0  0  0  0  0  0  0
   -2.0542    3.5374    0.0106 H   0  0  0  0  0  0  0  0  0  0  0  0
  1  2  1  0
  2  3  1  0
  3  4  1  0
  4  5  2  0
  5  6  1  0
  6  7  2  0
  7  8  1  0
  8  9  2  3
  9 10  1  0
 10 11  1  0
 11 12  2  0
 12 13  1  0
 13 14  1  0
 14 15  2  0
 15 16  1  0
 16 17  2  0
 17 18  1  0
 13 19  2  0
 19 20  1  0
 20 21  1  0
 21 22  2  0
  7 23  1  0
 23 24  2  0
 24 25  1  0
 25 26  1  0
 26 27  1  0
 24  4  1  0
 21  9  1  0
 20 11  1  0
 18 14  1  0
  1 28  1  0
  1 29  1  0
  1 30  1  0
  2 31  1  0
  2 32  1  0
  5 33  1  0
  6 34  1  0
  8 35  1  0
 15 36  1  0
 16 37  1  0
 17 38  1  0
 23 39  1  0
 26 40  1  0
 26 41  1  0
 27 42  1  0
 27 43  1  0
 27 44  1  0
M  END
$$$$
