
     RDKit          3D

 40 41  0  0  0  0  0  0  0  0999 V2000
   -6.9399   -0.0060   -0.0124 C   0  0  0  0  0  0  0  0  0  0  0  0
   -5.4410    0.0454   -0.0675 C   0  0  0  0  0  0  0  0  0  0  0  0
   -4.7411    1.0522    0.5882 C   0  0  0  0  0  0  0  0  0  0  0  0
   -3.3560    1.0962    0.4927 C   0  0  0  0  0  0  0  0  0  0  0  0
   -2.6727    0.1372   -0.2638 C   0  0  0  0  0  0  0  0  0  0  0  0
   -1.2144    0.2014   -0.3944 C   0  0  0  0  0  0  0  0  0  0  0  0
   -0.3903    0.1183    0.6622 C   0  0  0  0  0  0  0  0  0  0  0  0
    1.0715    0.1481    0.5335 C   0  0  0  0  0  0  0  0  0  0  0  0
    1.7315    1.0437   -0.3066 C   0  0  0  0  0  0  0  0  0  0  0  0
    3.1331    1.0437   -0.3917 C   0  0  0  0  0  0  0  0  0  0  0  0
    3.9349    0.1721    0.3648 C   0  0  0  0  0  0  0  0  0  0  0  0
    5.3285    0.1571    0.2559 N   0  0  0  0  0  0  0  0  0  0  0  0
    6.1170   -0.5159    1.2891 C   0  0  0  0  0  0  0  0  0  0  0  0
    6.0076    1.2543   -0.4335 C   0  0  0  0  0  0  0  0  0  0  0  0
    3.2418   -0.7130    1.2081 C   0  0  0  0  0  0  0  0  0  0  0  0
    1.8411   -0.7218    1.3033 C   0  0  0  0  0  0  0  0  0  0  0  0
   -3.3750   -0.8335   -0.9100 N   0  0  0  0  0  4  0  0  0  0  0  0
   -2.6776   -1.8720   -1.6967 C   0  0  0  0  0  0  0  0  0  0  0  0
   -4.7265   -0.8817   -0.8244 C   0  0  0  0  0  0  0  0  0  0  0  0
   -7.3111    0.4066    0.9315 H   0  0  0  0  0  0  0  0  0  0  0  0
   -7.2963   -1.0394   -0.0779 H   0  0  0  0  0  0  0  0  0  0  0  0
   -7.3646    0.5687   -0.8412 H   0  0  0  0  0  0  0  0  0  0  0  0
   -5.2659    1.8083    1.1722 H   0  0  0  0  0  0  0  0  0  0  0  0
   -2.8111    1.8898    1.0023 H   0  0  0  0  0  0  0  0  0  0  0  0
   -0.8241    0.3010   -1.4040 H   0  0  0  0  0  0  0  0  0  0  0  0
   -0.7657   -0.0121    1.6761 H   0  0  0  0  0  0  0  0  0  0  0  0
    1.1814    1.7660   -0.9041 H   0  0  0  0  0  0  0  0  0  0  0  0
    3.5815    1.7607   -1.0737 H   0  0  0  0  0  0  0  0  0  0  0  0
    7.1913   -0.4317    1.0898 H   0  0  0  0  0  0  0  0  0  0  0  0
    5.9005   -1.5891    1.3157 H   0  0  0  0  0  0  0  0  0  0  0  0
    5.9290   -0.0767    2.2752 H   0  0  0  0  0  0  0  0  0  0  0  0
    5.8203    2.2099    0.0686 H   0  0  0  0  0  0  0  0  0  0  0  0
    5.6923    1.3196   -1.4803 H   0  0  0  0  0  0  0  0  0  0  0  0
    7.0921    1.0989   -0.4570 H   0  0  0  0  0  0  0  0  0  0  0  0
    3.7782   -1.4328    1.8201 H   0  0  0  0  0  0  0  0  0  0  0  0
    1.3739   -1.4314    1.9823 H   0  0  0  0  0  0  0  0  0  0  0  0
   -1.9445   -2.3625   -1.0510 H   0  0  0  0  0  0  0  0  0  0  0  0
   -3.3937   -2.6175   -2.0518 H   0  0  0  0  0  0  0  0  0  0  0  0
   -2.2032   -1.3865   -2.5534 H   0  0  0  0  0  0  0  0  0  0  0  0
   -5.2332   -1.6754   -1.3678 H   0  0  0  0  0  0  0  0  0  0  0  0
  1  2  1  0
  2  3  2  0
  3  4  1  0
  4  5  2  0
  5  6  1  0
  6  7  2  3
  7  8  1  0
  8  9  2  0
  9 10  1  0
 10 11  2  0
 11 12  1  0
 12 13  1  0
 12 14  1  0
 11 15  1  0
 15 16  2  0
  5 17  1  0
 17 18  1  0
 17 19  2  0
 19  2  1  0
 16  8  1  0
  1 20  1  0
  1 21  1  0
  1 22  1  0
  3 23  1  0
  4 24  1  0
  6 25  1  0
  7 26  1  0
  9 27  1  0
 10 28  1  0
 13 29  1  0
 13 30  1  0
 13 31  1  0
 14 32  1  0
 14 33  1  0
 14 34  1  0
 15 35  1  0
 16 36  1  0
 18 37  1  0
 18 38  1  0
 18 39  1  0
 19 40  1  0
M  CHG  1  17   1
M  END
$$$$
