
     RDKit          3D

 40 42  0  0  0  0  0  0  0  0999 V2000
   -2.4534    4.0459    3.2102 C   0  0  0  0  0  0  0  0  0  0  0  0
   -1.7730    3.2428    2.2528 O   0  0  0  0  0  0  0  0  0  0  0  0
   -1.9676    1.8891    2.3320 C   0  0  0  0  0  0  0  0  0  0  0  0
   -2.7493    1.2290    3.2748 C   0  0  0  0  0  0  0  0  0  0  0  0
   -2.8836   -0.1651    3.2524 C   0  0  0  0  0  0  0  0  0  0  0  0
   -2.2027   -0.8855    2.2587 C   0  0  0  0  0  0  0  0  0  0  0  0
   -1.3929   -0.2560    1.3073 C   0  0  0  0  0  0  0  0  0  0  0  0
   -1.2941    1.1528    1.3484 C   0  0  0  0  0  0  0  0  0  0  0  0
   -0.8537   -1.2832    0.4713 C   0  0  0  0  0  0  0  0  0  0  0  0
    0.0362   -1.1835   -0.6419 C   0  0  0  0  0  0  0  0  0  0  0  0
    1.0377   -0.2944   -0.7510 C   0  0  0  0  0  0  0  0  0  0  0  0
    1.9390   -0.1984   -1.9038 C   0  0  0  0  0  0  0  0  0  0  0  0
    2.4478   -1.3224   -2.5521 C   0  0  0  0  0  0  0  0  0  0  0  0
    3.3214   -1.1646   -3.6223 C   0  0  0  0  0  0  0  0  0  0  0  0
    3.6849    0.0687   -4.0391 N   0  0  0  0  0  4  0  0  0  0  0  0
    4.6180    0.2107   -5.1694 C   0  0  0  0  0  0  0  0  0  0  0  0
    3.2227    1.1728   -3.4115 C   0  0  0  0  0  0  0  0  0  0  0  0
    2.3493    1.0618   -2.3359 C   0  0  0  0  0  0  0  0  0  0  0  0
   -1.3703   -2.4857    0.9028 C   0  0  0  0  0  0  0  0  0  0  0  0
   -2.1676   -2.2376    1.9892 N   0  0  0  0  0  0  0  0  0  0  0  0
   -2.8796   -3.2502    2.7379 C   0  0  0  0  0  0  0  0  0  0  0  0
   -2.2045    5.0917    3.0056 H   0  0  0  0  0  0  0  0  0  0  0  0
   -2.1176    3.8168    4.2269 H   0  0  0  0  0  0  0  0  0  0  0  0
   -3.5390    3.9377    3.1167 H   0  0  0  0  0  0  0  0  0  0  0  0
   -3.2831    1.7698    4.0502 H   0  0  0  0  0  0  0  0  0  0  0  0
   -3.5061   -0.6651    3.9883 H   0  0  0  0  0  0  0  0  0  0  0  0
   -0.7035    1.6839    0.6097 H   0  0  0  0  0  0  0  0  0  0  0  0
   -0.1286   -1.9082   -1.4361 H   0  0  0  0  0  0  0  0  0  0  0  0
    1.2166    0.4199    0.0505 H   0  0  0  0  0  0  0  0  0  0  0  0
    2.1818   -2.3255   -2.2242 H   0  0  0  0  0  0  0  0  0  0  0  0
    3.7393   -2.0192   -4.1470 H   0  0  0  0  0  0  0  0  0  0  0  0
    5.6304    0.2232   -4.7583 H   0  0  0  0  0  0  0  0  0  0  0  0
    4.4849   -0.6323   -5.8523 H   0  0  0  0  0  0  0  0  0  0  0  0
    4.4003    1.1420   -5.6986 H   0  0  0  0  0  0  0  0  0  0  0  0
    3.5592    2.1399   -3.7748 H   0  0  0  0  0  0  0  0  0  0  0  0
    1.9860    1.9634   -1.8448 H   0  0  0  0  0  0  0  0  0  0  0  0
   -1.2261   -3.4949    0.5393 H   0  0  0  0  0  0  0  0  0  0  0  0
   -3.9498   -3.0371    2.6760 H   0  0  0  0  0  0  0  0  0  0  0  0
   -2.6732   -4.2348    2.3104 H   0  0  0  0  0  0  0  0  0  0  0  0
   -2.5363   -3.2183    3.7750 H   0  0  0  0  0  0  0  0  0  0  0  0
  1  2  1  0
  2  3  1  0
  3  4  2  0
  4  5  1  0
  5  6  2  0
  6  7  1  0
  7  8  2  0
  7  9  1  0
  9 10  1  0
 10 11  2  3
 11 12  1  0
 12 13  2  0
 13 14  1  0
 14 15  2  0
 15 16  1  0
 15 17  1  0
 17 18  2  0
  9 19  2  0
 19 20  1  0
 20 21  1  0
  8  3  1  0
 18 12  1  0
 20  6  1  0
  1 22  1  0
  1 23  1  0
  1 24  1  0
  4 25  1  0
  5 26  1  0
  8 27  1  0
 10 28  1  0
 11 29  1  0
 13 30  1  0
 14 31  1  0
 16 32  1  0
 16 33  1  0
 16 34  1  0
 17 35  1  0
 18 36  1  0
 19 37  1  0
 21 38  1  0
 21 39  1  0
 21 40  1  0
M  CHG  1  15   1
M  END
$$$$
