
     RDKit          3D

 68 74  0  0  0  0  0  0  0  0999 V2000
   -4.5544   -4.1843   -2.3863 C   0  0  0  0  0  0  0  0  0  0  0  0
   -3.7873   -3.4479   -1.3292 C   0  0  0  0  0  0  0  0  0  0  0  0
   -3.7889   -3.8691    0.0150 C   0  0  0  0  0  0  0  0  0  0  0  0
   -4.6927   -5.2564    0.5186 Cl  0  0  0  0  0  0  0  0  0  0  0  0
   -3.0525   -3.1873    1.0045 C   0  0  0  0  0  0  0  0  0  0  0  0
   -2.2858   -2.0678    0.6814 C   0  0  0  0  0  0  0  0  0  0  0  0
   -2.2738   -1.6474   -0.6379 C   0  0  0  0  0  0  0  0  0  0  0  0
   -3.0057   -2.3357   -1.6175 C   0  0  0  0  0  0  0  0  0  0  0  0
   -2.8049   -1.7328   -2.8584 N   0  0  0  0  0  0  0  0  0  0  0  0
   -1.9370   -0.6404   -2.7752 C   0  0  0  0  0  0  0  0  0  0  0  0
   -1.5784    0.0351   -3.7278 O   0  0  0  0  0  0  0  0  0  0  0  0
   -1.5449   -0.5047   -1.2831 C   0  0  1  0  0  0  0  0  0  0  0  0
   -1.9929    0.7743   -0.6675 C   0  0  0  0  0  0  0  0  0  0  0  0
   -0.8849    1.6180   -0.4883 C   0  0  0  0  0  0  0  0  0  0  0  0
   -1.3055    2.8052    0.0347 C   0  0  0  0  0  0  0  0  0  0  0  0
   -0.5947    3.9173    0.2101 O   0  0  0  0  0  0  0  0  0  0  0  0
   -2.6860    2.6747    0.2968 N   0  0  0  0  0  0  0  0  0  0  0  0
   -3.4999    3.6310    0.9844 C   0  0  0  0  0  0  0  0  0  0  0  0
   -4.8571    3.7742    0.6709 C   0  0  0  0  0  0  0  0  0  0  0  0
   -5.6406    4.7139    1.3466 C   0  0  0  0  0  0  0  0  0  0  0  0
   -5.0797    5.5082    2.3446 C   0  0  0  0  0  0  0  0  0  0  0  0
   -3.7345    5.3618    2.6741 C   0  0  0  0  0  0  0  0  0  0  0  0
   -2.9457    4.4261    2.0002 C   0  0  0  0  0  0  0  0  0  0  0  0
   -3.1107    1.4270   -0.2106 C   0  0  0  0  0  0  0  0  0  0  0  0
   -4.3743    1.0153   -0.1368 O   0  0  0  0  0  0  0  0  0  0  0  0
    0.3351    0.9896   -1.0293 C   0  0  1  0  0  0  0  0  0  0  0  0
    1.6454    1.1235   -0.2624 C   0  0  0  0  0  0  0  0  0  0  0  0
    2.6728    0.2238   -0.8243 N   0  0  0  0  0  0  0  0  0  0  0  0
    3.9982    0.5119   -0.5387 C   0  0  0  0  0  0  0  0  0  0  0  0
    4.3713    1.5550   -0.0158 O   0  0  0  0  0  0  0  0  0  0  0  0
    4.8332   -0.4940   -0.9093 O   0  0  0  0  0  0  0  0  0  0  0  0
    6.2186   -0.3036   -0.6056 C   0  0  0  0  0  0  0  0  0  0  0  0
    6.5572   -1.0470    0.6604 C   0  0  0  0  0  0  0  0  0  0  0  0
    6.7959   -2.4282    0.6349 C   0  0  0  0  0  0  0  0  0  0  0  0
    7.0896   -3.1164    1.8133 C   0  0  0  0  0  0  0  0  0  0  0  0
    7.1395   -2.4325    3.0270 C   0  0  0  0  0  0  0  0  0  0  0  0
    6.8905   -1.0616    3.0651 C   0  0  0  0  0  0  0  0  0  0  0  0
    6.5973   -0.3715    1.8883 C   0  0  0  0  0  0  0  0  0  0  0  0
    2.2478   -1.1526   -1.1456 C   0  0  0  0  0  0  0  0  0  0  0  0
    0.8384   -1.2543   -1.7834 C   0  0  0  0  0  0  0  0  0  0  0  0
   -0.0921   -0.4487   -1.0124 N   0  0  0  0  0  0  0  0  0  0  0  0
   -4.0951   -5.1599   -2.5737 H   0  0  0  0  0  0  0  0  0  0  0  0
   -4.5819   -3.6413   -3.3351 H   0  0  0  0  0  0  0  0  0  0  0  0
   -5.5960   -4.3250   -2.0807 H   0  0  0  0  0  0  0  0  0  0  0  0
   -3.0724   -3.5359    2.0353 H   0  0  0  0  0  0  0  0  0  0  0  0
   -1.7118   -1.5438    1.4410 H   0  0  0  0  0  0  0  0  0  0  0  0
   -3.1950   -2.0329   -3.7397 H   0  0  0  0  0  0  0  0  0  0  0  0
   -1.2047    4.6777    0.2230 H   0  0  0  0  0  0  0  0  0  0  0  0
   -5.3233    3.1894   -0.1175 H   0  0  0  0  0  0  0  0  0  0  0  0
   -6.6915    4.8243    1.0908 H   0  0  0  0  0  0  0  0  0  0  0  0
   -5.6942    6.2340    2.8715 H   0  0  0  0  0  0  0  0  0  0  0  0
   -3.3014    5.9650    3.4683 H   0  0  0  0  0  0  0  0  0  0  0  0
   -1.9147    4.2982    2.3236 H   0  0  0  0  0  0  0  0  0  0  0  0
   -4.4080    0.0848   -0.4189 H   0  0  0  0  0  0  0  0  0  0  0  0
    0.4751    1.3273   -2.0665 H   0  0  0  0  0  0  0  0  0  0  0  0
    2.0017    2.1596   -0.2948 H   0  0  0  0  0  0  0  0  0  0  0  0
    1.5225    0.8574    0.7955 H   0  0  0  0  0  0  0  0  0  0  0  0
    6.5028    0.7535   -0.5411 H   0  0  0  0  0  0  0  0  0  0  0  0
    6.7976   -0.7164   -1.4399 H   0  0  0  0  0  0  0  0  0  0  0  0
    6.7484   -2.9753   -0.3042 H   0  0  0  0  0  0  0  0  0  0  0  0
    7.2759   -4.1868    1.7850 H   0  0  0  0  0  0  0  0  0  0  0  0
    7.3655   -2.9692    3.9440 H   0  0  0  0  0  0  0  0  0  0  0  0
    6.9194   -0.5286    4.0119 H   0  0  0  0  0  0  0  0  0  0  0  0
    6.3905    0.6972    1.9323 H   0  0  0  0  0  0  0  0  0  0  0  0
    2.2675   -1.7127   -0.2019 H   0  0  0  0  0  0  0  0  0  0  0  0
    2.9756   -1.6186   -1.8183 H   0  0  0  0  0  0  0  0  0  0  0  0
    0.8879   -0.9168   -2.8254 H   0  0  0  0  0  0  0  0  0  0  0  0
    0.5339   -2.3067   -1.7896 H   0  0  0  0  0  0  0  0  0  0  0  0
  1  2  1  0
  2  3  2  0
  3  4  1  0
  3  5  1  0
  5  6  2  0
  6  7  1  0
  7  8  2  0
  8  9  1  0
  9 10  1  0
 10 11  2  0
 10 12  1  0
 12 13  1  0
 13 14  1  0
 14 15  2  0
 15 16  1  0
 15 17  1  0
 17 18  1  0
 18 19  2  0
 19 20  1  0
 20 21  2  0
 21 22  1  0
 22 23  2  0
 17 24  1  0
 24 25  1  0
 14 26  1  0
 26 27  1  0
 27 28  1  0
 28 29  1  0
 29 30  2  0
 29 31  1  0
 31 32  1  0
 32 33  1  0
 33 34  2  0
 34 35  1  0
 35 36  2  0
 36 37  1  0
 37 38  2  0
 28 39  1  0
 39 40  1  0
 40 41  1  0
  8  2  1  0
 12 41  1  6
 12  7  1  0
 24 13  2  0
 41 26  1  0
 23 18  1  0
 38 33  1  0
  1 42  1  0
  1 43  1  0
  1 44  1  0
  5 45  1  0
  6 46  1  0
  9 47  1  0
 16 48  1  0
 19 49  1  0
 20 50  1  0
 21 51  1  0
 22 52  1  0
 23 53  1  0
 25 54  1  0
 26 55  1  6
 27 56  1  0
 27 57  1  0
 32 58  1  0
 32 59  1  0
 34 60  1  0
 35 61  1  0
 36 62  1  0
 37 63  1  0
 38 64  1  0
 39 65  1  0
 39 66  1  0
 40 67  1  0
 40 68  1  0
M  END
$$$$
