
     RDKit          3D

 38 39  0  0  0  0  0  0  0  0999 V2000
   -0.1578   -2.4018   -0.4626 C   0  0  0  0  0  0  0  0  0  0  0  0
   -0.8222   -1.3040   -1.1569 N   0  0  0  0  0  0  0  0  0  0  0  0
   -2.2516   -1.4666   -1.4628 C   0  0  0  0  0  0  0  0  0  0  0  0
   -3.1505   -1.5945   -0.2286 C   0  0  0  0  0  0  0  0  0  0  0  0
   -3.3419   -0.2815    0.4843 C   0  0  0  0  0  0  0  0  0  0  0  0
   -2.5071    0.0910    1.5348 C   0  0  0  0  0  0  0  0  0  0  0  0
   -2.7120    1.3210    2.1536 C   0  0  0  0  0  0  0  0  0  0  0  0
   -3.7369    2.1451    1.7070 C   0  0  0  0  0  0  0  0  0  0  0  0
   -4.5224    1.6991    0.6585 C   0  0  0  0  0  0  0  0  0  0  0  0
   -4.3533    0.5069    0.0464 N   0  0  0  0  0  0  0  0  0  0  0  0
   -0.1427   -0.2232   -1.7221 C   0  0  0  0  0  0  0  0  0  0  0  0
   -0.6228    0.5257   -2.5682 O   0  0  0  0  0  0  0  0  0  0  0  0
    1.2408    0.0621   -1.2787 C   0  0  0  0  0  0  0  0  0  0  0  0
    1.5320    0.2614    0.0741 C   0  0  0  0  0  0  0  0  0  0  0  0
    2.8402    0.5597    0.4726 C   0  0  0  0  0  0  0  0  0  0  0  0
    3.8568    0.6712   -0.4801 C   0  0  0  0  0  0  0  0  0  0  0  0
    5.1702    0.9553   -0.2359 O   0  0  0  0  0  0  0  0  0  0  0  0
    5.5558    1.2066    1.1041 C   0  0  0  0  0  0  0  0  0  0  0  0
    6.8790    1.4785    1.1320 F   0  0  0  0  0  0  0  0  0  0  0  0
    5.3335    0.1274    1.8848 F   0  0  0  0  0  0  0  0  0  0  0  0
    4.8967    2.2703    1.6105 F   0  0  0  0  0  0  0  0  0  0  0  0
    3.5489    0.4920   -1.8341 C   0  0  0  0  0  0  0  0  0  0  0  0
    2.2448    0.1985   -2.2378 C   0  0  0  0  0  0  0  0  0  0  0  0
   -0.5566   -3.3532   -0.8269 H   0  0  0  0  0  0  0  0  0  0  0  0
    0.9206   -2.4027   -0.6356 H   0  0  0  0  0  0  0  0  0  0  0  0
   -0.3540   -2.3116    0.6085 H   0  0  0  0  0  0  0  0  0  0  0  0
   -2.3368   -2.3782   -2.0672 H   0  0  0  0  0  0  0  0  0  0  0  0
   -2.6051   -0.6417   -2.0916 H   0  0  0  0  0  0  0  0  0  0  0  0
   -2.7747   -2.3513    0.4692 H   0  0  0  0  0  0  0  0  0  0  0  0
   -4.1378   -1.9474   -0.5535 H   0  0  0  0  0  0  0  0  0  0  0  0
   -1.7068   -0.5592    1.8676 H   0  0  0  0  0  0  0  0  0  0  0  0
   -2.0759    1.6355    2.9759 H   0  0  0  0  0  0  0  0  0  0  0  0
   -3.9188    3.1120    2.1618 H   0  0  0  0  0  0  0  0  0  0  0  0
   -5.3339    2.3073    0.2689 H   0  0  0  0  0  0  0  0  0  0  0  0
    0.7412    0.2050    0.8173 H   0  0  0  0  0  0  0  0  0  0  0  0
    3.0207    0.7089    1.5336 H   0  0  0  0  0  0  0  0  0  0  0  0
    4.3288    0.5923   -2.5866 H   0  0  0  0  0  0  0  0  0  0  0  0
    2.0118    0.0840   -3.2935 H   0  0  0  0  0  0  0  0  0  0  0  0
  1  2  1  0
  2  3  1  0
  3  4  1  0
  4  5  1  0
  5  6  2  0
  6  7  1  0
  7  8  2  0
  8  9  1  0
  9 10  2  0
  2 11  1  0
 11 12  2  0
 11 13  1  0
 13 14  2  0
 14 15  1  0
 15 16  2  0
 16 17  1  0
 17 18  1  0
 18 19  1  0
 18 20  1  0
 18 21  1  0
 16 22  1  0
 22 23  2  0
 10  5  1  0
 23 13  1  0
  1 24  1  0
  1 25  1  0
  1 26  1  0
  3 27  1  0
  3 28  1  0
  4 29  1  0
  4 30  1  0
  6 31  1  0
  7 32  1  0
  8 33  1  0
  9 34  1  0
 14 35  1  0
 15 36  1  0
 22 37  1  0
 23 38  1  0
M  END
$$$$
