
     RDKit          3D

196196  0  0  0  0  0  0  0  0999 V2000
    5.9051   -9.3742    3.0017 C   0  0  0  0  0  0  0  0  0  0  0  0
    5.9752   -8.0696    2.2723 C   0  0  0  0  0  0  0  0  0  0  0  0
    4.9778   -7.5780    1.5210 C   0  0  0  0  0  0  0  0  0  0  0  0
    4.9389   -6.2752    0.7550 C   0  0  0  0  0  0  0  0  0  0  0  0
    6.2501   -5.4749    0.6140 C   0  0  0  0  0  0  0  0  0  0  0  0
    7.2167   -6.1444   -0.3719 C   0  0  0  0  0  0  0  0  0  0  0  0
    6.0108   -3.9727    0.2815 C   0  0  0  0  0  0  0  0  0  0  0  0
    7.2398   -3.2929    0.6213 O   0  0  0  0  0  0  0  0  0  0  0  0
    5.6428   -3.6007   -1.1877 C   0  0  0  0  0  0  0  0  0  0  0  0
    4.2772   -4.1568   -1.6182 C   0  0  0  0  0  0  0  0  0  0  0  0
    4.1945   -5.1359   -2.3608 O   0  0  0  0  0  0  0  0  0  0  0  0
    3.1685   -3.5338   -1.0982 N   0  0  0  0  0  0  0  0  0  0  0  0
    1.8425   -3.7759   -1.6647 C   0  0  0  0  0  0  0  0  0  0  0  0
    1.6449   -2.9057   -2.9192 C   0  0  0  0  0  0  0  0  0  0  0  0
    0.3608   -3.2467   -3.6627 C   0  0  0  0  0  0  0  0  0  0  0  0
    0.7856   -3.4473   -0.5874 C   0  0  0  0  0  0  0  0  0  0  0  0
    0.3851   -2.2900   -0.4342 O   0  0  0  0  0  0  0  0  0  0  0  0
    0.3623   -4.4744    0.2554 N   0  0  0  0  0  0  0  0  0  0  0  0
    0.8168   -5.8518    0.1253 C   0  0  0  0  0  0  0  0  0  0  0  0
   -0.8907   -4.2494    0.9873 C   0  0  0  0  0  0  0  0  0  0  0  0
   -2.1364   -4.7168    0.1976 C   0  0  0  0  0  0  0  0  0  0  0  0
   -2.0525   -5.6009   -0.6587 O   0  0  0  0  0  0  0  0  0  0  0  0
   -3.3698   -4.1710    0.5493 N   0  0  0  0  0  0  0  0  0  0  0  0
   -3.5326   -3.1955    1.6201 C   0  0  0  0  0  0  0  0  0  0  0  0
   -4.5218   -4.4123   -0.3576 C   0  0  0  0  0  0  0  0  0  0  0  0
   -5.4664   -5.4638    0.2550 C   0  0  0  0  0  0  0  0  0  0  0  0
   -6.5457   -6.0309   -0.6909 C   0  0  0  0  0  0  0  0  0  0  0  0
   -5.9522   -6.7319   -1.9140 C   0  0  0  0  0  0  0  0  0  0  0  0
   -7.4348   -7.0134    0.0790 C   0  0  0  0  0  0  0  0  0  0  0  0
   -5.1339   -3.0616   -0.8255 C   0  0  0  0  0  0  0  0  0  0  0  0
   -4.4466   -2.2426   -1.4296 O   0  0  0  0  0  0  0  0  0  0  0  0
   -6.4385   -2.8041   -0.4503 N   0  0  0  0  0  0  0  0  0  0  0  0
   -7.0887   -1.4942   -0.6701 C   0  0  0  0  0  0  0  0  0  0  0  0
   -7.2796   -1.1047   -2.1632 C   0  0  0  0  0  0  0  0  0  0  0  0
   -7.7359   -2.2927   -3.0208 C   0  0  0  0  0  0  0  0  0  0  0  0
   -6.1164   -0.3785   -2.8397 C   0  0  0  0  0  0  0  0  0  0  0  0
   -6.4700   -0.4691    0.3396 C   0  0  0  0  0  0  0  0  0  0  0  0
   -5.6321   -0.8630    1.1660 O   0  0  0  0  0  0  0  0  0  0  0  0
   -6.9201    0.8469    0.3960 N   0  0  0  0  0  0  0  0  0  0  0  0
   -8.0660    1.3481   -0.3443 C   0  0  0  0  0  0  0  0  0  0  0  0
   -6.1164    1.7998    1.2002 C   0  0  0  0  0  0  0  0  0  0  0  0
   -6.3871    1.7137    2.7287 C   0  0  0  0  0  0  0  0  0  0  0  0
   -7.7696    2.0628    3.3123 C   0  0  0  0  0  0  0  0  0  0  0  0
   -8.8319    0.9969    3.0474 C   0  0  0  0  0  0  0  0  0  0  0  0
   -8.2686    3.4574    2.9480 C   0  0  0  0  0  0  0  0  0  0  0  0
   -5.9681    3.2591    0.6723 C   0  0  0  0  0  0  0  0  0  0  0  0
   -6.6030    3.7221   -0.2725 O   0  0  0  0  0  0  0  0  0  0  0  0
   -5.0274    4.0103    1.3437 N   0  0  0  0  0  0  0  0  0  0  0  0
   -4.6176    5.3332    0.9002 C   0  0  0  0  0  0  0  0  0  0  0  0
   -5.6538    6.3978    1.2375 C   0  0  0  0  0  0  0  0  0  0  0  0
   -3.2777    5.6536    1.5880 C   0  0  0  0  0  0  0  0  0  0  0  0
   -2.8758    5.0269    2.5668 O   0  0  0  0  0  0  0  0  0  0  0  0
   -2.5772    6.6959    1.0222 N   0  0  0  0  0  0  0  0  0  0  0  0
   -1.2917    7.1317    1.5565 C   0  0  0  0  0  0  0  0  0  0  0  0
   -1.0363    8.5797    1.1371 C   0  0  0  0  0  0  0  0  0  0  0  0
   -0.0090    6.3030    1.2410 C   0  0  0  0  0  0  0  0  0  0  0  0
    0.9041    6.3313    2.0824 O   0  0  0  0  0  0  0  0  0  0  0  0
    0.2081    5.7465   -0.0237 N   0  0  0  0  0  0  0  0  0  0  0  0
   -0.8818    5.4541   -0.9430 C   0  0  0  0  0  0  0  0  0  0  0  0
    1.4966    5.0091   -0.2114 C   0  0  0  0  0  0  0  0  0  0  0  0
    2.0785    5.1416   -1.6341 C   0  0  0  0  0  0  0  0  0  0  0  0
    2.1937    6.5881   -2.1612 C   0  0  0  0  0  0  0  0  0  0  0  0
    3.1037    7.4567   -1.2915 C   0  0  0  0  0  0  0  0  0  0  0  0
    2.7123    6.5718   -3.6019 C   0  0  0  0  0  0  0  0  0  0  0  0
    1.3234    3.5144    0.1777 C   0  0  0  0  0  0  0  0  0  0  0  0
    0.2839    2.9386   -0.1872 O   0  0  0  0  0  0  0  0  0  0  0  0
    2.2639    2.8245    0.9546 N   0  0  0  0  0  0  0  0  0  0  0  0
    1.8441    1.4667    1.3163 C   0  0  0  0  0  0  0  0  0  0  0  0
    3.7398    3.0535    1.1034 C   0  0  0  0  0  0  0  0  0  0  0  0
    4.2269    4.5036    1.2630 C   0  0  0  0  0  0  0  0  0  0  0  0
    5.6591    4.6852    1.8190 C   0  0  0  0  0  0  0  0  0  0  0  0
    5.7847    6.0708    2.4643 C   0  0  0  0  0  0  0  0  0  0  0  0
    6.7247    4.5600    0.7268 C   0  0  0  0  0  0  0  0  0  0  0  0
    4.4718    2.2904   -0.0395 C   0  0  0  0  0  0  0  0  0  0  0  0
    4.3318    2.6443   -1.2122 O   0  0  0  0  0  0  0  0  0  0  0  0
    5.2435    1.1744    0.2948 N   0  0  0  0  0  0  0  0  0  0  0  0
    5.5642    0.8024    1.6700 C   0  0  0  0  0  0  0  0  0  0  0  0
    5.8089    0.3208   -0.7999 C   0  0  0  0  0  0  0  0  0  0  0  0
    7.3406    0.6170   -0.9154 C   0  0  0  0  0  0  0  0  0  0  0  0
    7.7142    1.1993   -2.2834 C   0  0  0  0  0  0  0  0  0  0  0  0
    8.2857   -0.5268   -0.5573 C   0  0  0  0  0  0  0  0  0  0  0  0
    5.3345   -1.1698   -0.6138 C   0  0  0  0  0  0  0  0  0  0  0  0
    4.5818   -1.4886    0.3151 O   0  0  0  0  0  0  0  0  0  0  0  0
    5.7355   -2.1388   -1.5261 N   0  0  0  0  0  0  0  0  0  0  0  0
    5.9204   -1.8417   -2.9402 C   0  0  0  0  0  0  0  0  0  0  0  0
    6.0530   -9.2084    4.0736 H   0  0  0  0  0  0  0  0  0  0  0  0
    6.6946  -10.0431    2.6450 H   0  0  0  0  0  0  0  0  0  0  0  0
    4.9429   -9.8777    2.8644 H   0  0  0  0  0  0  0  0  0  0  0  0
    6.9071   -7.5254    2.3933 H   0  0  0  0  0  0  0  0  0  0  0  0
    4.0599   -8.1613    1.4411 H   0  0  0  0  0  0  0  0  0  0  0  0
    4.1851   -5.6485    1.2497 H   0  0  0  0  0  0  0  0  0  0  0  0
    4.5465   -6.5113   -0.2397 H   0  0  0  0  0  0  0  0  0  0  0  0
    6.7536   -5.4757    1.5905 H   0  0  0  0  0  0  0  0  0  0  0  0
    7.5437   -7.1220   -0.0046 H   0  0  0  0  0  0  0  0  0  0  0  0
    6.7482   -6.3027   -1.3488 H   0  0  0  0  0  0  0  0  0  0  0  0
    8.1163   -5.5364   -0.5161 H   0  0  0  0  0  0  0  0  0  0  0  0
    5.2471   -3.6006    0.9717 H   0  0  0  0  0  0  0  0  0  0  0  0
    7.3068   -3.3005    1.5918 H   0  0  0  0  0  0  0  0  0  0  0  0
    6.3966   -4.0602   -1.8390 H   0  0  0  0  0  0  0  0  0  0  0  0
    3.3071   -2.6736   -0.5636 H   0  0  0  0  0  0  0  0  0  0  0  0
    1.7686   -4.8230   -1.9710 H   0  0  0  0  0  0  0  0  0  0  0  0
    2.4887   -3.0522   -3.6050 H   0  0  0  0  0  0  0  0  0  0  0  0
    1.6430   -1.8409   -2.6572 H   0  0  0  0  0  0  0  0  0  0  0  0
    0.2883   -2.6560   -4.5818 H   0  0  0  0  0  0  0  0  0  0  0  0
   -0.5241   -3.0355   -3.0557 H   0  0  0  0  0  0  0  0  0  0  0  0
    0.3405   -4.3058   -3.9413 H   0  0  0  0  0  0  0  0  0  0  0  0
    0.5666   -6.4132    1.0292 H   0  0  0  0  0  0  0  0  0  0  0  0
    1.9020   -5.8783   -0.0037 H   0  0  0  0  0  0  0  0  0  0  0  0
    0.3476   -6.3164   -0.7462 H   0  0  0  0  0  0  0  0  0  0  0  0
   -0.8455   -4.8056    1.9301 H   0  0  0  0  0  0  0  0  0  0  0  0
   -0.9773   -3.1858    1.2225 H   0  0  0  0  0  0  0  0  0  0  0  0
   -2.8588   -3.4250    2.4504 H   0  0  0  0  0  0  0  0  0  0  0  0
   -3.2959   -2.1996    1.2349 H   0  0  0  0  0  0  0  0  0  0  0  0
   -4.5562   -3.2260    2.0012 H   0  0  0  0  0  0  0  0  0  0  0  0
   -4.1237   -4.8390   -1.2854 H   0  0  0  0  0  0  0  0  0  0  0  0
   -4.8560   -6.3028    0.6196 H   0  0  0  0  0  0  0  0  0  0  0  0
   -5.9487   -5.0511    1.1498 H   0  0  0  0  0  0  0  0  0  0  0  0
   -7.1902   -5.2209   -1.0478 H   0  0  0  0  0  0  0  0  0  0  0  0
   -5.2354   -7.5052   -1.6199 H   0  0  0  0  0  0  0  0  0  0  0  0
   -6.7390   -7.2090   -2.5095 H   0  0  0  0  0  0  0  0  0  0  0  0
   -5.4424   -6.0218   -2.5713 H   0  0  0  0  0  0  0  0  0  0  0  0
   -8.2343   -7.3990   -0.5641 H   0  0  0  0  0  0  0  0  0  0  0  0
   -7.9061   -6.5233    0.9381 H   0  0  0  0  0  0  0  0  0  0  0  0
   -6.8566   -7.8665    0.4491 H   0  0  0  0  0  0  0  0  0  0  0  0
   -6.7169   -3.2458    0.4153 H   0  0  0  0  0  0  0  0  0  0  0  0
   -8.1020   -1.6684   -0.2766 H   0  0  0  0  0  0  0  0  0  0  0  0
   -8.1183   -0.4022   -2.2023 H   0  0  0  0  0  0  0  0  0  0  0  0
   -6.9323   -3.0199   -3.1771 H   0  0  0  0  0  0  0  0  0  0  0  0
   -8.5833   -2.8059   -2.5532 H   0  0  0  0  0  0  0  0  0  0  0  0
   -8.0687   -1.9448   -4.0065 H   0  0  0  0  0  0  0  0  0  0  0  0
   -5.3591   -1.0651   -3.2213 H   0  0  0  0  0  0  0  0  0  0  0  0
   -5.6377    0.3438   -2.1730 H   0  0  0  0  0  0  0  0  0  0  0  0
   -6.4881    0.1798   -3.7076 H   0  0  0  0  0  0  0  0  0  0  0  0
   -7.7397    1.6824   -1.3325 H   0  0  0  0  0  0  0  0  0  0  0  0
   -8.8213    0.5656   -0.4469 H   0  0  0  0  0  0  0  0  0  0  0  0
   -8.5380    2.1782    0.1822 H   0  0  0  0  0  0  0  0  0  0  0  0
   -5.0813    1.4350    1.0919 H   0  0  0  0  0  0  0  0  0  0  0  0
   -6.1363    0.7011    3.0684 H   0  0  0  0  0  0  0  0  0  0  0  0
   -5.6630    2.3569    3.2460 H   0  0  0  0  0  0  0  0  0  0  0  0
   -7.6288    2.0670    4.4040 H   0  0  0  0  0  0  0  0  0  0  0  0
   -9.6879    1.1409    3.7167 H   0  0  0  0  0  0  0  0  0  0  0  0
   -8.4371   -0.0075    3.2315 H   0  0  0  0  0  0  0  0  0  0  0  0
   -9.2171    1.0312    2.0277 H   0  0  0  0  0  0  0  0  0  0  0  0
   -9.1811    3.6955    3.5064 H   0  0  0  0  0  0  0  0  0  0  0  0
   -8.5057    3.5499    1.8862 H   0  0  0  0  0  0  0  0  0  0  0  0
   -7.5218    4.2167    3.2004 H   0  0  0  0  0  0  0  0  0  0  0  0
   -4.3966    3.5580    2.0033 H   0  0  0  0  0  0  0  0  0  0  0  0
   -4.4531    5.2929   -0.1843 H   0  0  0  0  0  0  0  0  0  0  0  0
   -5.3217    7.3921    0.9213 H   0  0  0  0  0  0  0  0  0  0  0  0
   -6.6120    6.1936    0.7478 H   0  0  0  0  0  0  0  0  0  0  0  0
   -5.8368    6.4396    2.3179 H   0  0  0  0  0  0  0  0  0  0  0  0
   -2.9349    7.1395    0.1865 H   0  0  0  0  0  0  0  0  0  0  0  0
   -1.3948    7.1048    2.6504 H   0  0  0  0  0  0  0  0  0  0  0  0
   -1.8503    9.2297    1.4771 H   0  0  0  0  0  0  0  0  0  0  0  0
   -0.1013    8.9560    1.5636 H   0  0  0  0  0  0  0  0  0  0  0  0
   -0.9673    8.6754    0.0484 H   0  0  0  0  0  0  0  0  0  0  0  0
   -1.4024    6.3820   -1.1907 H   0  0  0  0  0  0  0  0  0  0  0  0
   -0.5213    5.0294   -1.8806 H   0  0  0  0  0  0  0  0  0  0  0  0
   -1.5726    4.7438   -0.4809 H   0  0  0  0  0  0  0  0  0  0  0  0
    2.1920    5.4700    0.4761 H   0  0  0  0  0  0  0  0  0  0  0  0
    3.0716    4.6844   -1.6570 H   0  0  0  0  0  0  0  0  0  0  0  0
    1.4846    4.5459   -2.3378 H   0  0  0  0  0  0  0  0  0  0  0  0
    1.1998    7.0493   -2.1787 H   0  0  0  0  0  0  0  0  0  0  0  0
    3.2034    8.4607   -1.7190 H   0  0  0  0  0  0  0  0  0  0  0  0
    2.6991    7.5747   -0.2826 H   0  0  0  0  0  0  0  0  0  0  0  0
    4.1066    7.0250   -1.2113 H   0  0  0  0  0  0  0  0  0  0  0  0
    2.7653    7.5875   -4.0080 H   0  0  0  0  0  0  0  0  0  0  0  0
    3.7120    6.1293   -3.6606 H   0  0  0  0  0  0  0  0  0  0  0  0
    2.0449    5.9915   -4.2487 H   0  0  0  0  0  0  0  0  0  0  0  0
    0.7632    1.4012    1.4673 H   0  0  0  0  0  0  0  0  0  0  0  0
    2.1307    0.7775    0.5156 H   0  0  0  0  0  0  0  0  0  0  0  0
    2.3251    1.1658    2.2529 H   0  0  0  0  0  0  0  0  0  0  0  0
    3.9684    2.5901    2.0658 H   0  0  0  0  0  0  0  0  0  0  0  0
    4.1817    5.0313    0.3065 H   0  0  0  0  0  0  0  0  0  0  0  0
    3.5423    4.9967    1.9645 H   0  0  0  0  0  0  0  0  0  0  0  0
    5.8554    3.9376    2.5966 H   0  0  0  0  0  0  0  0  0  0  0  0
    5.0947    6.1699    3.3093 H   0  0  0  0  0  0  0  0  0  0  0  0
    6.7983    6.2369    2.8461 H   0  0  0  0  0  0  0  0  0  0  0  0
    5.5579    6.8670    1.7467 H   0  0  0  0  0  0  0  0  0  0  0  0
    6.7514    3.5556    0.3025 H   0  0  0  0  0  0  0  0  0  0  0  0
    6.5409    5.2664   -0.0911 H   0  0  0  0  0  0  0  0  0  0  0  0
    7.7254    4.7662    1.1256 H   0  0  0  0  0  0  0  0  0  0  0  0
    6.3308    0.0255    1.6999 H   0  0  0  0  0  0  0  0  0  0  0  0
    4.6614    0.4371    2.1665 H   0  0  0  0  0  0  0  0  0  0  0  0
    5.9493    1.6717    2.2064 H   0  0  0  0  0  0  0  0  0  0  0  0
    5.3166    0.6489   -1.7224 H   0  0  0  0  0  0  0  0  0  0  0  0
    7.5811    1.4207   -0.2045 H   0  0  0  0  0  0  0  0  0  0  0  0
    7.0964    2.0743   -2.5133 H   0  0  0  0  0  0  0  0  0  0  0  0
    7.5950    0.4728   -3.0897 H   0  0  0  0  0  0  0  0  0  0  0  0
    8.7604    1.5254   -2.2857 H   0  0  0  0  0  0  0  0  0  0  0  0
    8.2328   -1.3485   -1.2751 H   0  0  0  0  0  0  0  0  0  0  0  0
    9.3233   -0.1747   -0.5566 H   0  0  0  0  0  0  0  0  0  0  0  0
    8.0782   -0.9055    0.4459 H   0  0  0  0  0  0  0  0  0  0  0  0
    6.9136   -2.1753   -3.2471 H   0  0  0  0  0  0  0  0  0  0  0  0
    5.7969   -0.7856   -3.1638 H   0  0  0  0  0  0  0  0  0  0  0  0
    5.1648   -2.3808   -3.5180 H   0  0  0  0  0  0  0  0  0  0  0  0
  1  2  1  0
  2  3  2  3
  3  4  1  0
  4  5  1  0
  5  6  1  0
  5  7  1  0
  7  8  1  0
  7  9  1  0
  9 10  1  0
 10 11  2  0
 10 12  1  0
 12 13  1  0
 13 14  1  0
 14 15  1  0
 13 16  1  0
 16 17  2  0
 16 18  1  0
 18 19  1  0
 18 20  1  0
 20 21  1  0
 21 22  2  0
 21 23  1  0
 23 24  1  0
 23 25  1  0
 25 26  1  0
 26 27  1  0
 27 28  1  0
 27 29  1  0
 25 30  1  0
 30 31  2  0
 30 32  1  0
 32 33  1  0
 33 34  1  0
 34 35  1  0
 34 36  1  0
 33 37  1  0
 37 38  2  0
 37 39  1  0
 39 40  1  0
 39 41  1  0
 41 42  1  0
 42 43  1  0
 43 44  1  0
 43 45  1  0
 41 46  1  0
 46 47  2  0
 46 48  1  0
 48 49  1  0
 49 50  1  0
 49 51  1  0
 51 52  2  0
 51 53  1  0
 53 54  1  0
 54 55  1  0
 54 56  1  0
 56 57  2  0
 56 58  1  0
 58 59  1  0
 58 60  1  0
 60 61  1  0
 61 62  1  0
 62 63  1  0
 62 64  1  0
 60 65  1  0
 65 66  2  0
 65 67  1  0
 67 68  1  0
 67 69  1  0
 69 70  1  0
 70 71  1  0
 71 72  1  0
 71 73  1  0
 69 74  1  0
 74 75  2  0
 74 76  1  0
 76 77  1  0
 76 78  1  0
 78 79  1  0
 79 80  1  0
 79 81  1  0
 78 82  1  0
 82 83  2  0
 82 84  1  0
 84 85  1  0
 84  9  1  0
  1 86  1  0
  1 87  1  0
  1 88  1  0
  2 89  1  0
  3 90  1  0
  4 91  1  0
  4 92  1  0
  5 93  1  0
  6 94  1  0
  6 95  1  0
  6 96  1  0
  7 97  1  0
  8 98  1  0
  9 99  1  0
 12100  1  0
 13101  1  0
 14102  1  0
 14103  1  0
 15104  1  0
 15105  1  0
 15106  1  0
 19107  1  0
 19108  1  0
 19109  1  0
 20110  1  0
 20111  1  0
 24112  1  0
 24113  1  0
 24114  1  0
 25115  1  0
 26116  1  0
 26117  1  0
 27118  1  0
 28119  1  0
 28120  1  0
 28121  1  0
 29122  1  0
 29123  1  0
 29124  1  0
 32125  1  0
 33126  1  0
 34127  1  0
 35128  1  0
 35129  1  0
 35130  1  0
 36131  1  0
 36132  1  0
 36133  1  0
 40134  1  0
 40135  1  0
 40136  1  0
 41137  1  0
 42138  1  0
 42139  1  0
 43140  1  0
 44141  1  0
 44142  1  0
 44143  1  0
 45144  1  0
 45145  1  0
 45146  1  0
 48147  1  0
 49148  1  0
 50149  1  0
 50150  1  0
 50151  1  0
 53152  1  0
 54153  1  0
 55154  1  0
 55155  1  0
 55156  1  0
 59157  1  0
 59158  1  0
 59159  1  0
 60160  1  0
 61161  1  0
 61162  1  0
 62163  1  0
 63164  1  0
 63165  1  0
 63166  1  0
 64167  1  0
 64168  1  0
 64169  1  0
 68170  1  0
 68171  1  0
 68172  1  0
 69173  1  0
 70174  1  0
 70175  1  0
 71176  1  0
 72177  1  0
 72178  1  0
 72179  1  0
 73180  1  0
 73181  1  0
 73182  1  0
 77183  1  0
 77184  1  0
 77185  1  0
 78186  1  0
 79187  1  0
 80188  1  0
 80189  1  0
 80190  1  0
 81191  1  0
 81192  1  0
 81193  1  0
 85194  1  0
 85195  1  0
 85196  1  0
M  END
$$$$
