
     RDKit          3D

 43 45  0  0  0  0  0  0  0  0999 V2000
   -2.2776   -1.9637   -1.2682 C   0  0  0  0  0  0  0  0  0  0  0  0
   -2.2637   -0.5142   -0.7411 C   0  0  0  0  0  0  0  0  0  0  0  0
   -2.1986    0.4001   -1.9830 C   0  0  0  0  0  0  0  0  0  0  0  0
   -3.4358   -0.1937    0.2291 C   0  0  0  0  0  0  0  0  0  0  0  0
   -3.1596   -1.1295    1.4272 C   0  0  0  0  0  0  0  0  0  0  0  0
   -1.6193   -1.1223    1.5299 C   0  0  0  0  0  0  0  0  0  0  0  0
   -1.1836   -0.2211    0.3485 C   0  0  0  0  0  0  0  0  0  0  0  0
    0.2620   -0.2613   -0.1096 C   0  0  0  0  0  0  0  0  0  0  0  0
    1.4426   -0.4856    1.2267 S   0  0  0  0  0  6  0  0  0  0  0  0
    1.1048    0.3718    2.3390 O   0  0  0  0  0  0  0  0  0  0  0  0
    1.6008   -1.9132    1.4144 O   0  0  0  0  0  0  0  0  0  0  0  0
    2.8734    0.0928    0.5585 N   0  0  0  0  0  0  0  0  0  0  0  0
    3.0572    1.5693    0.4935 C   0  0  0  0  0  0  0  0  0  0  0  0
    4.3620    1.8967   -0.2392 C   0  0  0  0  0  0  0  0  0  0  0  0
    4.3770    1.4315   -1.5973 O   0  0  0  0  0  0  0  0  0  0  0  0
    3.6252    0.2287   -1.8025 C   0  0  0  0  0  0  0  0  0  0  0  0
    3.5099   -0.6552   -0.5562 C   0  0  0  0  0  0  0  0  0  0  0  0
   -1.6419    1.1850    0.7474 C   0  0  0  0  0  0  0  0  0  0  0  0
   -0.9109    2.1324    0.9898 O   0  0  0  0  0  0  0  0  0  0  0  0
   -3.1550    1.2518    0.7037 C   0  0  0  0  0  0  0  0  0  0  0  0
   -1.4172   -2.1496   -1.9210 H   0  0  0  0  0  0  0  0  0  0  0  0
   -3.1845   -2.1449   -1.8565 H   0  0  0  0  0  0  0  0  0  0  0  0
   -2.2441   -2.7275   -0.4882 H   0  0  0  0  0  0  0  0  0  0  0  0
   -1.3387    0.1399   -2.6110 H   0  0  0  0  0  0  0  0  0  0  0  0
   -2.1005    1.4640   -1.7515 H   0  0  0  0  0  0  0  0  0  0  0  0
   -3.1033    0.2827   -2.5903 H   0  0  0  0  0  0  0  0  0  0  0  0
   -4.4380   -0.3180   -0.1881 H   0  0  0  0  0  0  0  0  0  0  0  0
   -3.5317   -2.1421    1.2392 H   0  0  0  0  0  0  0  0  0  0  0  0
   -3.6290   -0.7767    2.3517 H   0  0  0  0  0  0  0  0  0  0  0  0
   -1.2247   -2.1399    1.4448 H   0  0  0  0  0  0  0  0  0  0  0  0
   -1.3145   -0.7210    2.5025 H   0  0  0  0  0  0  0  0  0  0  0  0
    0.5211    0.6650   -0.6295 H   0  0  0  0  0  0  0  0  0  0  0  0
    0.4350   -1.0919   -0.8014 H   0  0  0  0  0  0  0  0  0  0  0  0
    3.1027    1.9746    1.5092 H   0  0  0  0  0  0  0  0  0  0  0  0
    2.2165    2.0248   -0.0390 H   0  0  0  0  0  0  0  0  0  0  0  0
    5.2192    1.4495    0.2778 H   0  0  0  0  0  0  0  0  0  0  0  0
    4.5218    2.9793   -0.2622 H   0  0  0  0  0  0  0  0  0  0  0  0
    2.6292    0.5194   -2.1561 H   0  0  0  0  0  0  0  0  0  0  0  0
    4.1079   -0.3254   -2.6138 H   0  0  0  0  0  0  0  0  0  0  0  0
    2.9486   -1.5616   -0.8021 H   0  0  0  0  0  0  0  0  0  0  0  0
    4.5057   -0.9645   -0.2185 H   0  0  0  0  0  0  0  0  0  0  0  0
   -3.5711    1.4709    1.6893 H   0  0  0  0  0  0  0  0  0  0  0  0
   -3.4793    1.9931   -0.0303 H   0  0  0  0  0  0  0  0  0  0  0  0
  1  2  1  0
  2  3  1  0
  2  4  1  0
  4  5  1  0
  5  6  1  0
  6  7  1  0
  7  8  1  0
  8  9  1  0
  9 10  2  0
  9 11  2  0
  9 12  1  0
 12 13  1  0
 13 14  1  0
 14 15  1  0
 15 16  1  0
 16 17  1  0
  7 18  1  0
 18 19  2  0
 18 20  1  0
  7  2  1  0
 17 12  1  0
 20  4  1  0
  1 21  1  0
  1 22  1  0
  1 23  1  0
  3 24  1  0
  3 25  1  0
  3 26  1  0
  4 27  1  0
  5 28  1  0
  5 29  1  0
  6 30  1  0
  6 31  1  0
  8 32  1  0
  8 33  1  0
 13 34  1  0
 13 35  1  0
 14 36  1  0
 14 37  1  0
 16 38  1  0
 16 39  1  0
 17 40  1  0
 17 41  1  0
 20 42  1  0
 20 43  1  0
M  END
$$$$
