
     RDKit          3D

 48 52  0  0  0  0  0  0  0  0999 V2000
   -3.8746   -1.0080   -2.6667 C   0  0  0  0  0  0  0  0  0  0  0  0
   -3.0780   -0.6357   -1.5197 N   0  0  0  0  0  0  0  0  0  0  0  0
   -1.8145   -0.1214   -1.5872 C   0  0  0  0  0  0  0  0  0  0  0  0
   -1.3594    0.1246   -0.3007 C   0  0  0  0  0  0  0  0  0  0  0  0
   -0.0315    0.6952    0.1398 C   0  0  0  0  0  0  0  0  0  0  0  0
    0.3363    1.8287   -0.8217 C   0  0  0  0  0  0  0  0  0  0  0  0
   -0.0532    3.1332   -0.4955 C   0  0  0  0  0  0  0  0  0  0  0  0
    0.2612    4.1798   -1.3592 C   0  0  0  0  0  0  0  0  0  0  0  0
    0.9523    3.9097   -2.5320 C   0  0  0  0  0  0  0  0  0  0  0  0
    1.2957    2.5968   -2.7979 C   0  0  0  0  0  0  0  0  0  0  0  0
    0.9988    1.5618   -1.9839 N   0  0  0  0  0  0  0  0  0  0  0  0
    1.1173   -0.2792    0.2003 C   0  0  0  0  0  0  0  0  0  0  0  0
    1.2331   -1.5091   -0.4276 C   0  0  0  0  0  0  0  0  0  0  0  0
    2.4311   -2.0691   -0.0831 N   0  0  0  0  0  0  0  0  0  0  0  0
    2.9066   -3.3469   -0.5621 C   0  0  0  0  0  0  0  0  0  0  0  0
    3.1147   -1.2456    0.7833 C   0  0  0  0  0  0  0  0  0  0  0  0
    4.3628   -1.3987    1.4088 C   0  0  0  0  0  0  0  0  0  0  0  0
    4.8088   -0.3741    2.2479 C   0  0  0  0  0  0  0  0  0  0  0  0
    4.0387    0.7654    2.4549 C   0  0  0  0  0  0  0  0  0  0  0  0
    2.7968    0.9078    1.8267 C   0  0  0  0  0  0  0  0  0  0  0  0
    2.3186   -0.1128    0.9756 C   0  0  0  0  0  0  0  0  0  0  0  0
   -2.4167   -0.2946    0.5803 C   0  0  0  0  0  0  0  0  0  0  0  0
   -2.5614   -0.3251    1.9848 C   0  0  0  0  0  0  0  0  0  0  0  0
   -3.7493   -0.7983    2.5523 C   0  0  0  0  0  0  0  0  0  0  0  0
   -4.7909   -1.2417    1.7445 C   0  0  0  0  0  0  0  0  0  0  0  0
   -4.6741   -1.2292    0.3521 C   0  0  0  0  0  0  0  0  0  0  0  0
   -3.4768   -0.7538   -0.2073 C   0  0  0  0  0  0  0  0  0  0  0  0
   -4.1021   -2.0748   -2.5985 H   0  0  0  0  0  0  0  0  0  0  0  0
   -4.7925   -0.4145   -2.6578 H   0  0  0  0  0  0  0  0  0  0  0  0
   -3.3148   -0.8077   -3.5839 H   0  0  0  0  0  0  0  0  0  0  0  0
   -1.3216    0.0385   -2.5388 H   0  0  0  0  0  0  0  0  0  0  0  0
   -0.1510    1.1234    1.1444 H   0  0  0  0  0  0  0  0  0  0  0  0
   -0.6021    3.3346    0.4193 H   0  0  0  0  0  0  0  0  0  0  0  0
   -0.0339    5.1965   -1.1172 H   0  0  0  0  0  0  0  0  0  0  0  0
    1.2150    4.7012   -3.2238 H   0  0  0  0  0  0  0  0  0  0  0  0
    1.8356    2.3304   -3.7015 H   0  0  0  0  0  0  0  0  0  0  0  0
    0.5510   -2.0146   -1.0989 H   0  0  0  0  0  0  0  0  0  0  0  0
    3.8494   -3.1890   -1.0921 H   0  0  0  0  0  0  0  0  0  0  0  0
    2.1699   -3.7823   -1.2421 H   0  0  0  0  0  0  0  0  0  0  0  0
    3.0509   -4.0066    0.2973 H   0  0  0  0  0  0  0  0  0  0  0  0
    4.9709   -2.2828    1.2491 H   0  0  0  0  0  0  0  0  0  0  0  0
    5.7728   -0.4690    2.7416 H   0  0  0  0  0  0  0  0  0  0  0  0
    4.4042    1.5547    3.1065 H   0  0  0  0  0  0  0  0  0  0  0  0
    2.2107    1.8064    1.9914 H   0  0  0  0  0  0  0  0  0  0  0  0
   -1.7537    0.0084    2.6297 H   0  0  0  0  0  0  0  0  0  0  0  0
   -3.8548   -0.8222    3.6339 H   0  0  0  0  0  0  0  0  0  0  0  0
   -5.7073   -1.6080    2.2012 H   0  0  0  0  0  0  0  0  0  0  0  0
   -5.4891   -1.5825   -0.2709 H   0  0  0  0  0  0  0  0  0  0  0  0
  1  2  1  0
  2  3  1  0
  3  4  2  0
  4  5  1  0
  5  6  1  0
  6  7  2  0
  7  8  1  0
  8  9  2  0
  9 10  1  0
 10 11  2  0
  5 12  1  0
 12 13  2  0
 13 14  1  0
 14 15  1  0
 14 16  1  0
 16 17  2  0
 17 18  1  0
 18 19  2  0
 19 20  1  0
 20 21  2  0
  4 22  1  0
 22 23  2  0
 23 24  1  0
 24 25  2  0
 25 26  1  0
 26 27  2  0
 27  2  1  0
 11  6  1  0
 21 12  1  0
 27 22  1  0
 21 16  1  0
  1 28  1  0
  1 29  1  0
  1 30  1  0
  3 31  1  0
  5 32  1  0
  7 33  1  0
  8 34  1  0
  9 35  1  0
 10 36  1  0
 13 37  1  0
 15 38  1  0
 15 39  1  0
 15 40  1  0
 17 41  1  0
 18 42  1  0
 19 43  1  0
 20 44  1  0
 23 45  1  0
 24 46  1  0
 25 47  1  0
 26 48  1  0
M  END
$$$$
