
     RDKit          3D

 58 60  0  0  0  0  0  0  0  0999 V2000
   -0.6590   -2.3755   -1.3209 C   0  0  0  0  0  0  0  0  0  0  0  0
   -1.9056   -1.5305   -1.3108 C   0  0  0  0  0  0  0  0  0  0  0  0
   -3.1433   -2.1620   -1.5251 C   0  0  0  0  0  0  0  0  0  0  0  0
   -4.3278   -1.4297   -1.5308 C   0  0  0  0  0  0  0  0  0  0  0  0
   -4.2790   -0.0529   -1.3263 C   0  0  0  0  0  0  0  0  0  0  0  0
   -5.7717    0.9115   -1.4026 S   0  0  0  0  0  6  0  0  0  0  0  0
   -6.8119    0.0518   -1.9266 O   0  0  0  0  0  0  0  0  0  0  0  0
   -5.4459    2.1617   -2.0500 O   0  0  0  0  0  0  0  0  0  0  0  0
   -6.1364    1.2231    0.2180 N   0  0  0  0  0  0  0  0  0  0  0  0
   -6.6063    0.0780    1.0412 C   0  0  0  0  0  0  0  0  0  0  0  0
   -6.7302    0.5067    2.5067 C   0  0  0  0  0  0  0  0  0  0  0  0
   -5.4743    0.9004    3.0784 O   0  0  0  0  0  0  0  0  0  0  0  0
   -4.5877    1.5239    2.1424 C   0  0  0  0  0  0  0  0  0  0  0  0
   -5.3009    2.2011    0.9698 C   0  0  0  0  0  0  0  0  0  0  0  0
   -3.0558    0.5936   -1.1345 C   0  0  0  0  0  0  0  0  0  0  0  0
   -1.8656   -0.1367   -1.0946 C   0  0  0  0  0  0  0  0  0  0  0  0
   -0.6216    0.4883   -0.8715 N   0  0  0  0  0  0  0  0  0  0  0  0
   -0.3876    1.7741   -0.4130 C   0  0  0  0  0  0  0  0  0  0  0  0
   -1.2382    2.5663   -0.0159 O   0  0  0  0  0  0  0  0  0  0  0  0
    1.1011    2.1276   -0.3717 C   0  0  0  0  0  0  0  0  0  0  0  0
    1.8621    1.2326   -1.1881 O   0  0  0  0  0  0  0  0  0  0  0  0
    3.2048    1.4593   -1.1526 C   0  0  0  0  0  0  0  0  0  0  0  0
    3.7508    2.3454   -0.5088 O   0  0  0  0  0  0  0  0  0  0  0  0
    3.9319    0.4917   -2.0748 C   0  0  0  0  0  0  0  0  0  0  0  0
    5.2151    0.1161   -1.5075 N   0  0  0  0  0  0  0  0  0  0  0  0
    5.2940   -0.9520   -0.6354 C   0  0  0  0  0  0  0  0  0  0  0  0
    4.3285   -1.6622   -0.3717 O   0  0  0  0  0  0  0  0  0  0  0  0
    6.6167   -1.1893    0.0084 C   0  0  0  0  0  0  0  0  0  0  0  0
    7.8136   -0.7332   -0.5607 C   0  0  0  0  0  0  0  0  0  0  0  0
    9.0315   -0.9868    0.0742 C   0  0  0  0  0  0  0  0  0  0  0  0
    9.0600   -1.7006    1.2720 C   0  0  0  0  0  0  0  0  0  0  0  0
    7.8735   -2.1690    1.8359 C   0  0  0  0  0  0  0  0  0  0  0  0
    6.6548   -1.9179    1.2036 C   0  0  0  0  0  0  0  0  0  0  0  0
    0.0038   -2.0584   -2.1338 H   0  0  0  0  0  0  0  0  0  0  0  0
   -0.1327   -2.2922   -0.3624 H   0  0  0  0  0  0  0  0  0  0  0  0
   -0.8908   -3.4336   -1.4779 H   0  0  0  0  0  0  0  0  0  0  0  0
   -3.1908   -3.2360   -1.6963 H   0  0  0  0  0  0  0  0  0  0  0  0
   -5.2731   -1.9362   -1.7116 H   0  0  0  0  0  0  0  0  0  0  0  0
   -7.5845   -0.2507    0.6759 H   0  0  0  0  0  0  0  0  0  0  0  0
   -5.8970   -0.7512    0.9676 H   0  0  0  0  0  0  0  0  0  0  0  0
   -7.1220   -0.3192    3.1102 H   0  0  0  0  0  0  0  0  0  0  0  0
   -7.4268    1.3479    2.6105 H   0  0  0  0  0  0  0  0  0  0  0  0
   -3.9927    2.2566    2.6958 H   0  0  0  0  0  0  0  0  0  0  0  0
   -3.9010    0.7534    1.7791 H   0  0  0  0  0  0  0  0  0  0  0  0
   -4.5722    2.6944    0.3260 H   0  0  0  0  0  0  0  0  0  0  0  0
   -5.9722    2.9819    1.3423 H   0  0  0  0  0  0  0  0  0  0  0  0
   -3.0482    1.6749   -1.0508 H   0  0  0  0  0  0  0  0  0  0  0  0
    0.2124   -0.0720   -1.0077 H   0  0  0  0  0  0  0  0  0  0  0  0
    1.4285    2.0579    0.6684 H   0  0  0  0  0  0  0  0  0  0  0  0
    1.2147    3.1467   -0.7506 H   0  0  0  0  0  0  0  0  0  0  0  0
    3.3223   -0.4029   -2.2399 H   0  0  0  0  0  0  0  0  0  0  0  0
    4.1110    0.9888   -3.0315 H   0  0  0  0  0  0  0  0  0  0  0  0
    5.8991    0.8565   -1.4084 H   0  0  0  0  0  0  0  0  0  0  0  0
    7.8217   -0.2031   -1.5075 H   0  0  0  0  0  0  0  0  0  0  0  0
    9.9610   -0.6357   -0.3695 H   0  0  0  0  0  0  0  0  0  0  0  0
   10.0089   -1.8992    1.7634 H   0  0  0  0  0  0  0  0  0  0  0  0
    7.8987   -2.7332    2.7654 H   0  0  0  0  0  0  0  0  0  0  0  0
    5.7323   -2.2904    1.6457 H   0  0  0  0  0  0  0  0  0  0  0  0
  1  2  1  0
  2  3  2  0
  3  4  1  0
  4  5  2  0
  5  6  1  0
  6  7  2  0
  6  8  2  0
  6  9  1  0
  9 10  1  0
 10 11  1  0
 11 12  1  0
 12 13  1  0
 13 14  1  0
  5 15  1  0
 15 16  2  0
 16 17  1  0
 17 18  1  0
 18 19  2  0
 18 20  1  0
 20 21  1  0
 21 22  1  0
 22 23  2  0
 22 24  1  0
 24 25  1  0
 25 26  1  0
 26 27  2  0
 26 28  1  0
 28 29  2  0
 29 30  1  0
 30 31  2  0
 31 32  1  0
 32 33  2  0
 16  2  1  0
 33 28  1  0
 14  9  1  0
  1 34  1  0
  1 35  1  0
  1 36  1  0
  3 37  1  0
  4 38  1  0
 10 39  1  0
 10 40  1  0
 11 41  1  0
 11 42  1  0
 13 43  1  0
 13 44  1  0
 14 45  1  0
 14 46  1  0
 15 47  1  0
 17 48  1  0
 20 49  1  0
 20 50  1  0
 24 51  1  0
 24 52  1  0
 25 53  1  0
 29 54  1  0
 30 55  1  0
 31 56  1  0
 32 57  1  0
 33 58  1  0
M  END
$$$$
