
     RDKit          3D

 44 45  0  0  0  0  0  0  0  0999 V2000
    8.4960    1.1919    0.5229 C   0  0  0  0  0  0  0  0  0  0  0  0
    7.4956    0.9682    1.6425 C   0  0  0  0  0  0  0  0  0  0  0  0
    6.1763    0.8290    1.0934 O   0  0  0  0  0  0  0  0  0  0  0  0
    5.7899   -0.4360    0.7962 C   0  0  0  0  0  0  0  0  0  0  0  0
    6.4485   -1.4498    0.9646 O   0  0  0  0  0  0  0  0  0  0  0  0
    4.4141   -0.4419    0.2257 C   0  0  0  0  0  0  0  0  0  0  0  0
    3.7986   -1.6837   -0.0050 C   0  0  0  0  0  0  0  0  0  0  0  0
    2.5148   -1.7474   -0.5528 C   0  0  0  0  0  0  0  0  0  0  0  0
    1.8445   -0.5631   -0.8708 C   0  0  0  0  0  0  0  0  0  0  0  0
    0.2293   -0.6274   -1.6013 S   0  0  0  0  0  6  0  0  0  0  0  0
    0.2113    0.2811   -2.7222 O   0  0  0  0  0  0  0  0  0  0  0  0
   -0.1764   -2.0151   -1.7101 O   0  0  0  0  0  0  0  0  0  0  0  0
   -0.7420    0.0673   -0.3429 N   0  0  0  0  0  0  0  0  0  0  0  0
   -2.0165   -0.6145   -0.2393 N   0  0  0  0  0  0  0  0  0  0  0  0
   -3.1499    0.0234   -1.3875 S   0  0  0  0  0  6  0  0  0  0  0  0
   -3.2944   -0.9549   -2.4403 O   0  0  0  0  0  0  0  0  0  0  0  0
   -2.7426    1.3913   -1.6468 O   0  0  0  0  0  0  0  0  0  0  0  0
   -4.6367    0.0460   -0.4248 C   0  0  0  0  0  0  0  0  0  0  0  0
   -5.0707    1.2406    0.1550 C   0  0  0  0  0  0  0  0  0  0  0  0
   -6.2662    1.2603    0.8751 C   0  0  0  0  0  0  0  0  0  0  0  0
   -7.0250    0.0909    1.0247 C   0  0  0  0  0  0  0  0  0  0  0  0
   -8.3340    0.1229    1.7601 C   0  0  0  0  0  0  0  0  0  0  0  0
   -6.5843   -1.0981    0.4247 C   0  0  0  0  0  0  0  0  0  0  0  0
   -5.3928   -1.1240   -0.3013 C   0  0  0  0  0  0  0  0  0  0  0  0
    2.4484    0.6803   -0.6561 C   0  0  0  0  0  0  0  0  0  0  0  0
    3.7310    0.7394   -0.1023 C   0  0  0  0  0  0  0  0  0  0  0  0
    9.5022    1.3395    0.9264 H   0  0  0  0  0  0  0  0  0  0  0  0
    8.5131    0.3401   -0.1667 H   0  0  0  0  0  0  0  0  0  0  0  0
    8.2204    2.0738   -0.0653 H   0  0  0  0  0  0  0  0  0  0  0  0
    7.7708    0.1040    2.2591 H   0  0  0  0  0  0  0  0  0  0  0  0
    7.4788    1.8423    2.3039 H   0  0  0  0  0  0  0  0  0  0  0  0
    4.3233   -2.6083    0.2342 H   0  0  0  0  0  0  0  0  0  0  0  0
    2.0578   -2.7190   -0.7351 H   0  0  0  0  0  0  0  0  0  0  0  0
   -0.8810    1.0643   -0.5954 H   0  0  0  0  0  0  0  0  0  0  0  0
   -1.9190   -1.6254   -0.4498 H   0  0  0  0  0  0  0  0  0  0  0  0
   -4.4984    2.1597    0.0415 H   0  0  0  0  0  0  0  0  0  0  0  0
   -6.6074    2.1970    1.3121 H   0  0  0  0  0  0  0  0  0  0  0  0
   -9.1581    0.2390    1.0499 H   0  0  0  0  0  0  0  0  0  0  0  0
   -8.3666    0.9551    2.4732 H   0  0  0  0  0  0  0  0  0  0  0  0
   -8.4826   -0.8009    2.3292 H   0  0  0  0  0  0  0  0  0  0  0  0
   -7.1753   -2.0075    0.5125 H   0  0  0  0  0  0  0  0  0  0  0  0
   -5.0746   -2.0461   -0.7804 H   0  0  0  0  0  0  0  0  0  0  0  0
    1.9381    1.6025   -0.9270 H   0  0  0  0  0  0  0  0  0  0  0  0
    4.1919    1.7131    0.0556 H   0  0  0  0  0  0  0  0  0  0  0  0
  1  2  1  0
  2  3  1  0
  3  4  1  0
  4  5  2  0
  4  6  1  0
  6  7  2  0
  7  8  1  0
  8  9  2  0
  9 10  1  0
 10 11  2  0
 10 12  2  0
 10 13  1  0
 13 14  1  0
 14 15  1  0
 15 16  2  0
 15 17  2  0
 15 18  1  0
 18 19  2  0
 19 20  1  0
 20 21  2  0
 21 22  1  0
 21 23  1  0
 23 24  2  0
  9 25  1  0
 25 26  2  0
 26  6  1  0
 24 18  1  0
  1 27  1  0
  1 28  1  0
  1 29  1  0
  2 30  1  0
  2 31  1  0
  7 32  1  0
  8 33  1  0
 13 34  1  0
 14 35  1  0
 19 36  1  0
 20 37  1  0
 22 38  1  0
 22 39  1  0
 22 40  1  0
 23 41  1  0
 24 42  1  0
 25 43  1  0
 26 44  1  0
M  END
$$$$
