
     RDKit          3D

 59 62  0  0  0  0  0  0  0  0999 V2000
    8.8793    0.6828   -0.7339 C   0  0  0  0  0  0  0  0  0  0  0  0
    7.4660    0.5720   -0.2440 C   0  0  0  0  0  0  0  0  0  0  0  0
    7.1394   -0.3185    0.7834 C   0  0  0  0  0  0  0  0  0  0  0  0
    5.8169   -0.4493    1.2256 C   0  0  0  0  0  0  0  0  0  0  0  0
    4.7939    0.2940    0.6280 C   0  0  0  0  0  0  0  0  0  0  0  0
    3.4308    0.2013    1.0487 N   0  0  0  0  0  0  0  0  0  0  0  0
    2.5739    1.2016    0.7059 N   0  0  0  0  0  0  0  0  0  0  0  0
    1.4663    0.9698    1.4118 C   0  0  0  0  0  0  0  0  0  0  0  0
    0.2760    1.8095    1.4525 C   0  0  0  0  0  0  0  0  0  0  0  0
    0.1604    2.8630    0.8318 O   0  0  0  0  0  0  0  0  0  0  0  0
   -0.7339    1.2773    2.2803 N   0  0  0  0  0  0  0  0  0  0  0  0
   -1.9851    2.0222    2.4197 C   0  0  0  0  0  0  0  0  0  0  0  0
   -3.0401    1.6005    1.3957 C   0  0  0  0  0  0  0  0  0  0  0  0
   -4.0360    2.2846    1.1667 O   0  0  0  0  0  0  0  0  0  0  0  0
   -2.8504    0.3512    0.8426 N   0  0  0  0  0  0  0  0  0  0  0  0
   -3.8133   -0.2552   -0.0535 C   0  0  0  0  0  0  0  0  0  0  0  0
   -3.7552    0.3411   -1.4623 C   0  0  0  0  0  0  0  0  0  0  0  0
   -4.7479   -0.3251   -2.3901 C   0  0  0  0  0  0  0  0  0  0  0  0
   -4.3443   -1.4761   -3.0906 C   0  0  0  0  0  0  0  0  0  0  0  0
   -5.2252   -2.1424   -3.9412 C   0  0  0  0  0  0  0  0  0  0  0  0
   -6.5228   -1.6699   -4.1025 C   0  0  0  0  0  0  0  0  0  0  0  0
   -6.9392   -0.5305   -3.4139 C   0  0  0  0  0  0  0  0  0  0  0  0
   -6.0662    0.1496   -2.5491 C   0  0  0  0  0  0  0  0  0  0  0  0
   -6.5578    1.3834   -1.8415 C   0  0  0  0  0  0  0  0  0  0  0  0
   -0.6581    0.0542    2.9630 N   0  0  0  0  0  0  0  0  0  0  0  0
    0.4230   -0.6755    2.9172 C   0  0  0  0  0  0  0  0  0  0  0  0
    0.4494   -1.9604    3.6947 C   0  0  0  0  0  0  0  0  0  0  0  0
    1.5397   -0.2353    2.1183 C   0  0  0  0  0  0  0  0  0  0  0  0
    2.7710   -0.7826    1.7966 C   0  0  0  0  0  0  0  0  0  0  0  0
    3.3179   -2.1339    2.0838 C   0  0  0  0  0  0  0  0  0  0  0  0
    5.1268    1.1978   -0.3947 C   0  0  0  0  0  0  0  0  0  0  0  0
    6.4480    1.3246   -0.8345 C   0  0  0  0  0  0  0  0  0  0  0  0
    9.0683    1.6692   -1.1721 H   0  0  0  0  0  0  0  0  0  0  0  0
    9.5875    0.5531    0.0917 H   0  0  0  0  0  0  0  0  0  0  0  0
    9.0728   -0.0825   -1.4923 H   0  0  0  0  0  0  0  0  0  0  0  0
    7.9192   -0.9093    1.2598 H   0  0  0  0  0  0  0  0  0  0  0  0
    5.6422   -1.1082    2.0670 H   0  0  0  0  0  0  0  0  0  0  0  0
   -1.7945    3.0927    2.2933 H   0  0  0  0  0  0  0  0  0  0  0  0
   -2.3863    1.8503    3.4241 H   0  0  0  0  0  0  0  0  0  0  0  0
   -2.1128   -0.2165    1.2492 H   0  0  0  0  0  0  0  0  0  0  0  0
   -4.8119   -0.1375    0.3827 H   0  0  0  0  0  0  0  0  0  0  0  0
   -3.5891   -1.3278   -0.0806 H   0  0  0  0  0  0  0  0  0  0  0  0
   -2.7421    0.2254   -1.8698 H   0  0  0  0  0  0  0  0  0  0  0  0
   -3.9228    1.4234   -1.4382 H   0  0  0  0  0  0  0  0  0  0  0  0
   -3.3318   -1.8579   -2.9784 H   0  0  0  0  0  0  0  0  0  0  0  0
   -4.8974   -3.0274   -4.4792 H   0  0  0  0  0  0  0  0  0  0  0  0
   -7.2118   -2.1838   -4.7672 H   0  0  0  0  0  0  0  0  0  0  0  0
   -7.9571   -0.1742   -3.5572 H   0  0  0  0  0  0  0  0  0  0  0  0
   -6.0393    2.2683   -2.2219 H   0  0  0  0  0  0  0  0  0  0  0  0
   -6.3995    1.3013   -0.7622 H   0  0  0  0  0  0  0  0  0  0  0  0
   -7.6314    1.5344   -1.9986 H   0  0  0  0  0  0  0  0  0  0  0  0
    0.3652   -2.8051    3.0062 H   0  0  0  0  0  0  0  0  0  0  0  0
    1.3783   -2.0396    4.2655 H   0  0  0  0  0  0  0  0  0  0  0  0
   -0.3915   -1.9984    4.3937 H   0  0  0  0  0  0  0  0  0  0  0  0
    3.9830   -2.4842    1.2894 H   0  0  0  0  0  0  0  0  0  0  0  0
    3.8499   -2.1431    3.0392 H   0  0  0  0  0  0  0  0  0  0  0  0
    2.5162   -2.8755    2.1390 H   0  0  0  0  0  0  0  0  0  0  0  0
    4.3616    1.8064   -0.8752 H   0  0  0  0  0  0  0  0  0  0  0  0
    6.6720    2.0206   -1.6407 H   0  0  0  0  0  0  0  0  0  0  0  0
  1  2  1  0
  2  3  2  0
  3  4  1  0
  4  5  2  0
  5  6  1  0
  6  7  1  0
  7  8  2  0
  8  9  1  0
  9 10  2  0
  9 11  1  0
 11 12  1  0
 12 13  1  0
 13 14  2  0
 13 15  1  0
 15 16  1  0
 16 17  1  0
 17 18  1  0
 18 19  2  0
 19 20  1  0
 20 21  2  0
 21 22  1  0
 22 23  2  0
 23 24  1  0
 11 25  1  0
 25 26  2  0
 26 27  1  0
 26 28  1  0
 28 29  2  0
 29 30  1  0
  5 31  1  0
 31 32  2  0
 32  2  1  0
 29  6  1  0
 28  8  1  0
 23 18  1  0
  1 33  1  0
  1 34  1  0
  1 35  1  0
  3 36  1  0
  4 37  1  0
 12 38  1  0
 12 39  1  0
 15 40  1  0
 16 41  1  0
 16 42  1  0
 17 43  1  0
 17 44  1  0
 19 45  1  0
 20 46  1  0
 21 47  1  0
 22 48  1  0
 24 49  1  0
 24 50  1  0
 24 51  1  0
 27 52  1  0
 27 53  1  0
 27 54  1  0
 30 55  1  0
 30 56  1  0
 30 57  1  0
 31 58  1  0
 32 59  1  0
M  END
$$$$
