
     RDKit          3D

 48 51  0  0  0  0  0  0  0  0999 V2000
    2.7472   -1.0024   -3.0674 C   0  0  0  0  0  0  0  0  0  0  0  0
    3.1140    0.2948   -2.3622 C   0  0  0  0  0  0  0  0  0  0  0  0
    2.8247    0.2084   -0.9335 N   0  0  0  0  0  0  0  0  0  0  0  0
    1.6322    0.5397   -0.2841 C   0  0  0  0  0  0  0  0  0  0  0  0
    0.4986    0.9727   -0.8694 C   0  0  0  0  0  0  0  0  0  0  0  0
   -0.7444    1.3282   -0.1635 C   0  0  0  0  0  0  0  0  0  0  0  0
   -0.8530    2.6512    0.2427 C   0  0  0  0  0  0  0  0  0  0  0  0
   -1.9838    3.0725    0.8966 C   0  0  0  0  0  0  0  0  0  0  0  0
   -3.0004    2.1666    1.1496 C   0  0  0  0  0  0  0  0  0  0  0  0
   -4.1189    2.6694    1.8205 C   0  0  0  0  0  0  0  0  0  0  0  0
   -5.1848    1.8472    2.1270 C   0  0  0  0  0  0  0  0  0  0  0  0
   -5.1323    0.5115    1.7670 C   0  0  0  0  0  0  0  0  0  0  0  0
   -4.0213   -0.0474    1.0820 C   0  0  0  0  0  0  0  0  0  0  0  0
   -4.1787   -1.5287    0.8410 C   0  0  0  0  0  0  0  0  0  0  0  0
   -2.9053    0.7828    0.7443 C   0  0  0  0  0  0  0  0  0  0  0  0
   -1.7441    0.4125    0.0660 N   0  0  0  0  0  4  0  0  0  0  0  0
   -1.5262   -0.9625   -0.4661 C   0  0  0  0  0  0  0  0  0  0  0  0
   -2.0836   -1.0613   -1.8753 C   0  0  0  0  0  0  0  0  0  0  0  0
    1.6827    0.2920    1.4861 S   0  0  0  0  0  0  0  0  0  0  0  0
    3.3548   -0.3151    1.3124 C   0  0  0  0  0  0  0  0  0  0  0  0
    4.1606   -0.7709    2.3467 C   0  0  0  0  0  0  0  0  0  0  0  0
    5.4411   -1.2237    2.0371 C   0  0  0  0  0  0  0  0  0  0  0  0
    5.8905   -1.2158    0.7112 C   0  0  0  0  0  0  0  0  0  0  0  0
    5.0678   -0.7526   -0.3243 C   0  0  0  0  0  0  0  0  0  0  0  0
    3.7880   -0.2928   -0.0326 C   0  0  0  0  0  0  0  0  0  0  0  0
    3.3232   -1.8468   -2.6756 H   0  0  0  0  0  0  0  0  0  0  0  0
    2.9507   -0.9209   -4.1397 H   0  0  0  0  0  0  0  0  0  0  0  0
    1.6848   -1.2352   -2.9398 H   0  0  0  0  0  0  0  0  0  0  0  0
    2.5485    1.1191   -2.8126 H   0  0  0  0  0  0  0  0  0  0  0  0
    4.1647    0.5438   -2.5482 H   0  0  0  0  0  0  0  0  0  0  0  0
    0.4558    1.1164   -1.9445 H   0  0  0  0  0  0  0  0  0  0  0  0
   -0.0491    3.3621    0.0549 H   0  0  0  0  0  0  0  0  0  0  0  0
   -2.0541    4.1142    1.2101 H   0  0  0  0  0  0  0  0  0  0  0  0
   -4.1779    3.7163    2.1200 H   0  0  0  0  0  0  0  0  0  0  0  0
   -6.0525    2.2421    2.6527 H   0  0  0  0  0  0  0  0  0  0  0  0
   -5.9878   -0.1106    2.0388 H   0  0  0  0  0  0  0  0  0  0  0  0
   -4.0702   -1.7827   -0.2134 H   0  0  0  0  0  0  0  0  0  0  0  0
   -3.4837   -2.0933    1.4693 H   0  0  0  0  0  0  0  0  0  0  0  0
   -5.1806   -1.8841    1.1119 H   0  0  0  0  0  0  0  0  0  0  0  0
   -1.9272   -1.6962    0.2224 H   0  0  0  0  0  0  0  0  0  0  0  0
   -0.4612   -1.2039   -0.4734 H   0  0  0  0  0  0  0  0  0  0  0  0
   -3.1254   -0.7335   -1.9303 H   0  0  0  0  0  0  0  0  0  0  0  0
   -2.0246   -2.0934   -2.2338 H   0  0  0  0  0  0  0  0  0  0  0  0
   -1.5142   -0.4338   -2.5682 H   0  0  0  0  0  0  0  0  0  0  0  0
    3.8093   -0.7763    3.3735 H   0  0  0  0  0  0  0  0  0  0  0  0
    6.0960   -1.5849    2.8273 H   0  0  0  0  0  0  0  0  0  0  0  0
    6.8932   -1.5732    0.4834 H   0  0  0  0  0  0  0  0  0  0  0  0
    5.4569   -0.7681   -1.3364 H   0  0  0  0  0  0  0  0  0  0  0  0
  1  2  1  0
  2  3  1  0
  3  4  1  0
  4  5  2  3
  5  6  1  0
  6  7  2  0
  7  8  1  0
  8  9  2  0
  9 10  1  0
 10 11  2  0
 11 12  1  0
 12 13  2  0
 13 14  1  0
 13 15  1  0
 15 16  2  0
 16 17  1  0
 17 18  1  0
  4 19  1  0
 19 20  1  0
 20 21  2  0
 21 22  1  0
 22 23  2  0
 23 24  1  0
 24 25  2  0
 25  3  1  0
 16  6  1  0
 25 20  1  0
 15  9  1  0
  1 26  1  0
  1 27  1  0
  1 28  1  0
  2 29  1  0
  2 30  1  0
  5 31  1  0
  7 32  1  0
  8 33  1  0
 10 34  1  0
 11 35  1  0
 12 36  1  0
 14 37  1  0
 14 38  1  0
 14 39  1  0
 17 40  1  0
 17 41  1  0
 18 42  1  0
 18 43  1  0
 18 44  1  0
 21 45  1  0
 22 46  1  0
 23 47  1  0
 24 48  1  0
M  CHG  1  16   1
M  END
$$$$
