
     RDKit          3D

 36 37  0  0  0  0  0  0  0  0999 V2000
   -0.2577    2.5228    1.9520 O   0  0  0  0  0  0  0  0  0  0  0  0
   -0.1342    1.3016    1.9901 C   0  0  0  0  0  0  0  0  0  0  0  0
    0.9463    0.6152    2.8290 C   0  0  0  0  0  0  0  0  0  0  0  0
    2.1283    0.3096    2.0866 O   0  0  0  0  0  0  0  0  0  0  0  0
    2.0377   -0.7692    1.2733 C   0  0  0  0  0  0  0  0  0  0  0  0
    1.0428   -1.4644    1.1300 O   0  0  0  0  0  0  0  0  0  0  0  0
    3.3214   -1.0083    0.5622 C   0  0  0  0  0  0  0  0  0  0  0  0
    4.4141   -0.1355    0.6718 C   0  0  0  0  0  0  0  0  0  0  0  0
    5.5991   -0.4032   -0.0180 C   0  0  0  0  0  0  0  0  0  0  0  0
    5.6977   -1.5410   -0.8187 C   0  0  0  0  0  0  0  0  0  0  0  0
    4.6113   -2.4074   -0.9286 C   0  0  0  0  0  0  0  0  0  0  0  0
    4.7388   -3.8104   -1.9163 Cl  0  0  0  0  0  0  0  0  0  0  0  0
    3.4243   -2.1481   -0.2457 C   0  0  0  0  0  0  0  0  0  0  0  0
   -0.9471    0.4296    1.2926 N   0  0  0  0  0  0  0  0  0  0  0  0
   -1.8920    0.9321    0.3119 C   0  0  0  0  0  0  0  0  0  0  0  0
   -2.9338   -0.1166   -0.0825 C   0  0  0  0  0  0  0  0  0  0  0  0
   -3.8368    0.3672   -1.1103 N   0  0  0  0  0  0  0  0  0  0  0  0
   -4.9750    1.0862   -0.8443 C   0  0  0  0  0  0  0  0  0  0  0  0
   -5.3166    1.3221    0.4528 O   0  0  0  0  0  0  0  0  0  0  0  0
   -5.6398    1.4970   -1.9302 C   0  0  0  0  0  0  0  0  0  0  0  0
   -4.8354    0.9960   -3.3871 S   0  0  0  0  0  0  0  0  0  0  0  0
   -3.5400    0.2193   -2.4554 C   0  0  0  0  0  0  0  0  0  0  0  0
   -2.5732   -0.3259   -2.9607 O   0  0  0  0  0  0  0  0  0  0  0  0
    0.5421   -0.2828    3.3126 H   0  0  0  0  0  0  0  0  0  0  0  0
    1.2299    1.3000    3.6357 H   0  0  0  0  0  0  0  0  0  0  0  0
    4.3569    0.7594    1.2879 H   0  0  0  0  0  0  0  0  0  0  0  0
    6.4442    0.2763    0.0674 H   0  0  0  0  0  0  0  0  0  0  0  0
    6.6215   -1.7457   -1.3544 H   0  0  0  0  0  0  0  0  0  0  0  0
    2.5829   -2.8310   -0.3425 H   0  0  0  0  0  0  0  0  0  0  0  0
   -0.5477   -0.4970    1.1275 H   0  0  0  0  0  0  0  0  0  0  0  0
   -2.3821    1.8253    0.7164 H   0  0  0  0  0  0  0  0  0  0  0  0
   -1.3135    1.2506   -0.5632 H   0  0  0  0  0  0  0  0  0  0  0  0
   -3.5104   -0.4430    0.7910 H   0  0  0  0  0  0  0  0  0  0  0  0
   -2.4201   -1.0079   -0.4644 H   0  0  0  0  0  0  0  0  0  0  0  0
   -6.1315    1.8524    0.4650 H   0  0  0  0  0  0  0  0  0  0  0  0
   -6.5522    2.0744   -1.9427 H   0  0  0  0  0  0  0  0  0  0  0  0
  1  2  2  0
  2  3  1  0
  3  4  1  0
  4  5  1  0
  5  6  2  0
  5  7  1  0
  7  8  2  0
  8  9  1  0
  9 10  2  0
 10 11  1  0
 11 12  1  0
 11 13  2  0
  2 14  1  0
 14 15  1  0
 15 16  1  0
 16 17  1  0
 17 18  1  0
 18 19  1  0
 18 20  2  0
 20 21  1  0
 21 22  1  0
 22 23  2  0
 13  7  1  0
 22 17  1  0
  3 24  1  0
  3 25  1  0
  8 26  1  0
  9 27  1  0
 10 28  1  0
 13 29  1  0
 14 30  1  0
 15 31  1  0
 15 32  1  0
 16 33  1  0
 16 34  1  0
 19 35  1  0
 20 36  1  0
M  END
$$$$
