
     RDKit          3D

 46 48  0  0  0  0  0  0  0  0999 V2000
   -3.6950   -1.4568   -0.9695 O   0  0  0  0  0  0  0  0  0  0  0  0
   -3.4029   -0.7390   -0.0219 C   0  0  0  0  0  0  0  0  0  0  0  0
   -4.2780   -0.1490    0.8729 N   0  0  0  0  0  0  0  0  0  0  0  0
   -5.6802   -0.3130    0.9234 C   0  0  0  0  0  0  0  0  0  0  0  0
   -6.3796    0.4507    1.8659 C   0  0  0  0  0  0  0  0  0  0  0  0
   -7.7646    0.3351    1.9728 C   0  0  0  0  0  0  0  0  0  0  0  0
   -8.4151    1.0760    2.8795 F   0  0  0  0  0  0  0  0  0  0  0  0
   -8.4779   -0.5306    1.1608 C   0  0  0  0  0  0  0  0  0  0  0  0
   -7.7817   -1.2880    0.2318 C   0  0  0  0  0  0  0  0  0  0  0  0
   -8.4553   -2.1338   -0.5591 F   0  0  0  0  0  0  0  0  0  0  0  0
   -6.3957   -1.1900    0.1053 C   0  0  0  0  0  0  0  0  0  0  0  0
   -1.9642   -0.4195    0.1949 C   0  0  0  0  0  0  0  0  0  0  0  0
   -1.1322   -0.2885   -0.9188 C   0  0  0  0  0  0  0  0  0  0  0  0
    0.2288    0.0121   -0.7631 C   0  0  0  0  0  0  0  0  0  0  0  0
    0.8173    0.1542    0.5045 C   0  0  0  0  0  0  0  0  0  0  0  0
    2.1550    0.5542    0.6510 N   0  0  0  0  0  0  0  0  0  0  0  0
    3.1160    0.3470   -0.4367 C   0  0  0  0  0  0  0  0  0  0  0  0
    4.5226    0.7502    0.0236 C   0  0  0  0  0  0  0  0  0  0  0  0
    5.5442    0.5601   -1.0695 C   0  0  0  0  0  0  0  0  0  0  0  0
    6.2090   -0.6649   -1.2158 C   0  0  0  0  0  0  0  0  0  0  0  0
    7.1370   -0.8466   -2.2423 C   0  0  0  0  0  0  0  0  0  0  0  0
    7.4058    0.1912   -3.1326 C   0  0  0  0  0  0  0  0  0  0  0  0
    6.7471    1.4119   -2.9979 C   0  0  0  0  0  0  0  0  0  0  0  0
    5.8188    1.5961   -1.9723 C   0  0  0  0  0  0  0  0  0  0  0  0
   -0.0539    0.0257    1.6130 C   0  0  0  0  0  0  0  0  0  0  0  0
    0.4456    0.1901    2.9794 N   0  0  0  0  0  4  0  0  0  0  0  0
   -0.3347    0.6755    3.8126 O   0  0  0  0  0  0  0  0  0  0  0  0
    1.6016   -0.1870    3.2264 O   0  0  0  0  0  1  0  0  0  0  0  0
   -1.4237   -0.2733    1.4714 C   0  0  0  0  0  0  0  0  0  0  0  0
   -3.8943    0.5269    1.5219 H   0  0  0  0  0  0  0  0  0  0  0  0
   -5.8712    1.1447    2.5282 H   0  0  0  0  0  0  0  0  0  0  0  0
   -9.5540   -0.6161    1.2494 H   0  0  0  0  0  0  0  0  0  0  0  0
   -5.9157   -1.8162   -0.6387 H   0  0  0  0  0  0  0  0  0  0  0  0
   -1.5411   -0.4073   -1.9220 H   0  0  0  0  0  0  0  0  0  0  0  0
    0.8145    0.1347   -1.6709 H   0  0  0  0  0  0  0  0  0  0  0  0
    2.5359    0.2598    1.5586 H   0  0  0  0  0  0  0  0  0  0  0  0
    3.1137   -0.7069   -0.7421 H   0  0  0  0  0  0  0  0  0  0  0  0
    2.8384    0.9574   -1.3043 H   0  0  0  0  0  0  0  0  0  0  0  0
    4.8158    0.1639    0.9043 H   0  0  0  0  0  0  0  0  0  0  0  0
    4.5260    1.7972    0.3537 H   0  0  0  0  0  0  0  0  0  0  0  0
    6.0109   -1.4856   -0.5297 H   0  0  0  0  0  0  0  0  0  0  0  0
    7.6514   -1.7984   -2.3471 H   0  0  0  0  0  0  0  0  0  0  0  0
    8.1297    0.0491   -3.9308 H   0  0  0  0  0  0  0  0  0  0  0  0
    6.9575    2.2216   -3.6919 H   0  0  0  0  0  0  0  0  0  0  0  0
    5.3128    2.5549   -1.8812 H   0  0  0  0  0  0  0  0  0  0  0  0
   -2.0443   -0.4140    2.3534 H   0  0  0  0  0  0  0  0  0  0  0  0
  1  2  2  0
  2  3  1  0
  3  4  1  0
  4  5  2  0
  5  6  1  0
  6  7  1  0
  6  8  2  0
  8  9  1  0
  9 10  1  0
  9 11  2  0
  2 12  1  0
 12 13  2  0
 13 14  1  0
 14 15  2  0
 15 16  1  0
 16 17  1  0
 17 18  1  0
 18 19  1  0
 19 20  2  0
 20 21  1  0
 21 22  2  0
 22 23  1  0
 23 24  2  0
 15 25  1  0
 25 26  1  0
 26 27  2  0
 26 28  1  0
 25 29  2  0
 11  4  1  0
 29 12  1  0
 24 19  1  0
  3 30  1  0
  5 31  1  0
  8 32  1  0
 11 33  1  0
 13 34  1  0
 14 35  1  0
 16 36  1  0
 17 37  1  0
 17 38  1  0
 18 39  1  0
 18 40  1  0
 20 41  1  0
 21 42  1  0
 22 43  1  0
 23 44  1  0
 24 45  1  0
 29 46  1  0
M  CHG  2  26   1  28  -1
M  END
$$$$
