
     RDKit          3D

 41 42  0  0  0  0  0  0  0  0999 V2000
   -4.0554    0.8387   -1.4450 C   0  0  0  0  0  0  0  0  0  0  0  0
   -2.9611   -0.2118   -1.5663 C   0  0  0  0  0  0  0  0  0  0  0  0
   -2.5177   -0.6746   -0.2422 N   0  0  0  0  0  0  0  0  0  0  0  0
   -3.2138   -1.8426    0.3105 C   0  0  0  0  0  0  0  0  0  0  0  0
   -4.1061   -1.4595    1.4800 C   0  0  0  0  0  0  0  0  0  0  0  0
   -1.4153   -0.1042    0.3857 C   0  0  0  0  0  0  0  0  0  0  0  0
   -0.8744    1.1266   -0.0245 C   0  0  0  0  0  0  0  0  0  0  0  0
    0.2497    1.7018    0.5888 C   0  0  0  0  0  0  0  0  0  0  0  0
    0.8858    1.0560    1.6452 C   0  0  0  0  0  0  0  0  0  0  0  0
    2.0647    1.6307    2.3014 C   0  0  0  0  0  0  0  0  0  0  0  0
    3.2042    1.9956    1.6925 C   0  0  0  0  0  0  0  0  0  0  0  0
    3.4456    1.8644    0.2355 C   0  0  0  0  0  0  0  0  0  0  0  0
    3.5119    2.8765   -0.4569 O   0  0  0  0  0  0  0  0  0  0  0  0
    3.6383    0.5211   -0.3616 C   0  0  0  0  0  0  0  0  0  0  0  0
    3.7641    0.4050   -1.7500 C   0  0  0  0  0  0  0  0  0  0  0  0
    4.0055   -0.8425   -2.3218 C   0  0  0  0  0  0  0  0  0  0  0  0
    4.1187   -1.9381   -1.4811 C   0  0  0  0  0  0  0  0  0  0  0  0
    4.0009   -1.8679   -0.1362 N   0  0  0  0  0  0  0  0  0  0  0  0
    3.7594   -0.6397    0.3918 C   0  0  0  0  0  0  0  0  0  0  0  0
    0.3575   -0.1492    2.0982 C   0  0  0  0  0  0  0  0  0  0  0  0
   -0.7687   -0.7133    1.4745 C   0  0  0  0  0  0  0  0  0  0  0  0
   -4.3514    1.1842   -2.4401 H   0  0  0  0  0  0  0  0  0  0  0  0
   -4.9433    0.4299   -0.9506 H   0  0  0  0  0  0  0  0  0  0  0  0
   -3.7222    1.7063   -0.8663 H   0  0  0  0  0  0  0  0  0  0  0  0
   -2.1260    0.1663   -2.1675 H   0  0  0  0  0  0  0  0  0  0  0  0
   -3.3506   -1.0573   -2.1467 H   0  0  0  0  0  0  0  0  0  0  0  0
   -3.8524   -2.2954   -0.4571 H   0  0  0  0  0  0  0  0  0  0  0  0
   -2.5124   -2.6349    0.5924 H   0  0  0  0  0  0  0  0  0  0  0  0
   -3.5238   -1.1057    2.3353 H   0  0  0  0  0  0  0  0  0  0  0  0
   -4.8082   -0.6696    1.1990 H   0  0  0  0  0  0  0  0  0  0  0  0
   -4.6910   -2.3250    1.8121 H   0  0  0  0  0  0  0  0  0  0  0  0
   -1.3231    1.6907   -0.8361 H   0  0  0  0  0  0  0  0  0  0  0  0
    0.6144    2.6605    0.2220 H   0  0  0  0  0  0  0  0  0  0  0  0
    1.9713    1.7742    3.3763 H   0  0  0  0  0  0  0  0  0  0  0  0
    4.0015    2.4817    2.2466 H   0  0  0  0  0  0  0  0  0  0  0  0
    3.6955    1.2877   -2.3827 H   0  0  0  0  0  0  0  0  0  0  0  0
    4.1171   -0.9527   -3.3954 H   0  0  0  0  0  0  0  0  0  0  0  0
    4.3192   -2.9301   -1.8772 H   0  0  0  0  0  0  0  0  0  0  0  0
    3.6851   -0.6406    1.4754 H   0  0  0  0  0  0  0  0  0  0  0  0
    0.8183   -0.6787    2.9280 H   0  0  0  0  0  0  0  0  0  0  0  0
   -1.1118   -1.6649    1.8658 H   0  0  0  0  0  0  0  0  0  0  0  0
  1  2  1  0
  2  3  1  0
  3  4  1  0
  4  5  1  0
  3  6  1  0
  6  7  2  0
  7  8  1  0
  8  9  2  0
  9 10  1  0
 10 11  2  3
 11 12  1  0
 12 13  2  0
 12 14  1  0
 14 15  2  0
 15 16  1  0
 16 17  2  0
 17 18  1  0
 18 19  2  0
  9 20  1  0
 20 21  2  0
 21  6  1  0
 19 14  1  0
  1 22  1  0
  1 23  1  0
  1 24  1  0
  2 25  1  0
  2 26  1  0
  4 27  1  0
  4 28  1  0
  5 29  1  0
  5 30  1  0
  5 31  1  0
  7 32  1  0
  8 33  1  0
 10 34  1  0
 11 35  1  0
 15 36  1  0
 16 37  1  0
 17 38  1  0
 19 39  1  0
 20 40  1  0
 21 41  1  0
M  END
$$$$
