
     RDKit          3D

 43 45  0  0  0  0  0  0  0  0999 V2000
    6.0049    3.3585   -0.1994 C   0  0  0  0  0  0  0  0  0  0  0  0
    5.1609    3.0585    0.9031 O   0  0  0  0  0  0  0  0  0  0  0  0
    3.9227    2.5310    0.6394 C   0  0  0  0  0  0  0  0  0  0  0  0
    3.4485    2.2251   -0.6387 C   0  0  0  0  0  0  0  0  0  0  0  0
    2.1710    1.6822   -0.8088 C   0  0  0  0  0  0  0  0  0  0  0  0
    1.3542    1.4257    0.2968 C   0  0  0  0  0  0  0  0  0  0  0  0
    0.0041    0.8623    0.1542 C   0  0  0  0  0  0  0  0  0  0  0  0
   -0.2777   -0.1560   -0.6750 C   0  0  0  0  0  0  0  0  0  0  0  0
   -1.6228   -0.7321   -0.7928 C   0  0  0  0  0  0  0  0  0  0  0  0
   -2.6569    0.0812   -1.2618 C   0  0  0  0  0  0  0  0  0  0  0  0
   -3.9250   -0.4400   -1.4433 C   0  0  0  0  0  0  0  0  0  0  0  0
   -4.1548   -1.7841   -1.1759 C   0  0  0  0  0  0  0  0  0  0  0  0
   -5.4319   -2.3281   -1.3783 C   0  0  0  0  0  0  0  0  0  0  0  0
   -5.6768   -3.6760   -1.1291 C   0  0  0  0  0  0  0  0  0  0  0  0
   -4.6490   -4.4944   -0.6792 C   0  0  0  0  0  0  0  0  0  0  0  0
   -3.3711   -3.9657   -0.4705 C   0  0  0  0  0  0  0  0  0  0  0  0
   -3.0935   -2.6035   -0.7042 C   0  0  0  0  0  0  0  0  0  0  0  0
   -1.8530   -2.0458   -0.5019 N   0  0  0  0  0  4  0  0  0  0  0  0
   -0.7685   -2.8827    0.0684 C   0  0  0  0  0  0  0  0  0  0  0  0
    1.8201    1.7532    1.5777 C   0  0  0  0  0  0  0  0  0  0  0  0
    3.0971    2.3011    1.7572 C   0  0  0  0  0  0  0  0  0  0  0  0
    3.6334    2.6252    2.9784 O   0  0  0  0  0  0  0  0  0  0  0  0
    2.7628    2.6557    4.0998 C   0  0  0  0  0  0  0  0  0  0  0  0
    5.5471    4.1060   -0.8557 H   0  0  0  0  0  0  0  0  0  0  0  0
    6.9320    3.7855    0.1951 H   0  0  0  0  0  0  0  0  0  0  0  0
    6.2660    2.4512   -0.7538 H   0  0  0  0  0  0  0  0  0  0  0  0
    4.0487    2.4028   -1.5254 H   0  0  0  0  0  0  0  0  0  0  0  0
    1.8284    1.4774   -1.8203 H   0  0  0  0  0  0  0  0  0  0  0  0
   -0.7561    1.3073    0.7950 H   0  0  0  0  0  0  0  0  0  0  0  0
    0.4932   -0.6125   -1.2917 H   0  0  0  0  0  0  0  0  0  0  0  0
   -2.4748    1.1285   -1.5013 H   0  0  0  0  0  0  0  0  0  0  0  0
   -4.7218    0.2070   -1.8099 H   0  0  0  0  0  0  0  0  0  0  0  0
   -6.2544   -1.7088   -1.7369 H   0  0  0  0  0  0  0  0  0  0  0  0
   -6.6720   -4.0882   -1.2915 H   0  0  0  0  0  0  0  0  0  0  0  0
   -4.8438   -5.5499   -0.4920 H   0  0  0  0  0  0  0  0  0  0  0  0
   -2.6122   -4.6635   -0.1284 H   0  0  0  0  0  0  0  0  0  0  0  0
    0.0961   -2.2922    0.3700 H   0  0  0  0  0  0  0  0  0  0  0  0
   -0.4720   -3.6070   -0.6950 H   0  0  0  0  0  0  0  0  0  0  0  0
   -1.1496   -3.3751    0.9675 H   0  0  0  0  0  0  0  0  0  0  0  0
    1.1813    1.5607    2.4334 H   0  0  0  0  0  0  0  0  0  0  0  0
    2.4309    1.6465    4.3637 H   0  0  0  0  0  0  0  0  0  0  0  0
    1.9093    3.3193    3.9248 H   0  0  0  0  0  0  0  0  0  0  0  0
    3.3251    3.0536    4.9500 H   0  0  0  0  0  0  0  0  0  0  0  0
  1  2  1  0
  2  3  1  0
  3  4  2  0
  4  5  1  0
  5  6  2  0
  6  7  1  0
  7  8  2  3
  8  9  1  0
  9 10  2  0
 10 11  1  0
 11 12  2  0
 12 13  1  0
 13 14  2  0
 14 15  1  0
 15 16  2  0
 16 17  1  0
 17 18  2  0
 18 19  1  0
  6 20  1  0
 20 21  2  0
 21 22  1  0
 22 23  1  0
 21  3  1  0
 18  9  1  0
 17 12  1  0
  1 24  1  0
  1 25  1  0
  1 26  1  0
  4 27  1  0
  5 28  1  0
  7 29  1  0
  8 30  1  0
 10 31  1  0
 11 32  1  0
 13 33  1  0
 14 34  1  0
 15 35  1  0
 16 36  1  0
 19 37  1  0
 19 38  1  0
 19 39  1  0
 20 40  1  0
 23 41  1  0
 23 42  1  0
 23 43  1  0
M  CHG  1  18   1
M  END
$$$$
