
     RDKit          3D

 42 44  0  0  0  0  0  0  0  0999 V2000
   -4.1831   -1.7629    1.3538 C   0  0  0  0  0  0  0  0  0  0  0  0
   -4.1048   -0.9556    0.0572 C   0  0  0  0  0  0  0  0  0  0  0  0
   -4.1936   -1.8607   -1.1724 C   0  0  0  0  0  0  0  0  0  0  0  0
   -2.9091   -0.1099    0.0200 N   0  0  0  0  0  0  0  0  0  0  0  0
   -1.6185   -0.5887    0.0263 C   0  0  0  0  0  0  0  0  0  0  0  0
   -0.7561    0.4836   -0.0187 C   0  0  0  0  0  0  0  0  0  0  0  0
    0.6737    0.4213   -0.0237 C   0  0  0  0  0  0  0  0  0  0  0  0
    1.4165   -0.6979   -0.0786 C   0  0  0  0  0  0  0  0  0  0  0  0
    2.8832   -0.6989   -0.0839 C   0  0  0  0  0  0  0  0  0  0  0  0
    3.6277    0.1018    0.7811 C   0  0  0  0  0  0  0  0  0  0  0  0
    5.0163    0.0414    0.7524 C   0  0  0  0  0  0  0  0  0  0  0  0
    5.6520   -0.7884   -0.1045 N   0  0  0  0  0  4  0  0  0  0  0  0
    7.1240   -0.8383   -0.1090 C   0  0  0  0  0  0  0  0  0  0  0  0
    4.9509   -1.5905   -0.9365 C   0  0  0  0  0  0  0  0  0  0  0  0
    3.5607   -1.5650   -0.9398 C   0  0  0  0  0  0  0  0  0  0  0  0
   -1.5533    1.6699   -0.0511 C   0  0  0  0  0  0  0  0  0  0  0  0
   -1.2585    3.0517   -0.1019 C   0  0  0  0  0  0  0  0  0  0  0  0
   -2.2965    3.9880   -0.1229 C   0  0  0  0  0  0  0  0  0  0  0  0
   -3.6207    3.5700   -0.0946 C   0  0  0  0  0  0  0  0  0  0  0  0
   -3.9437    2.2113   -0.0454 C   0  0  0  0  0  0  0  0  0  0  0  0
   -2.8967    1.2724   -0.0251 C   0  0  0  0  0  0  0  0  0  0  0  0
   -3.3679   -2.4905    1.4298 H   0  0  0  0  0  0  0  0  0  0  0  0
   -5.1286   -2.3127    1.4089 H   0  0  0  0  0  0  0  0  0  0  0  0
   -4.1245   -1.1045    2.2275 H   0  0  0  0  0  0  0  0  0  0  0  0
   -4.9733   -0.2900    0.0346 H   0  0  0  0  0  0  0  0  0  0  0  0
   -4.1411   -1.2721   -2.0950 H   0  0  0  0  0  0  0  0  0  0  0  0
   -5.1399   -2.4122   -1.1776 H   0  0  0  0  0  0  0  0  0  0  0  0
   -3.3798   -2.5933   -1.1978 H   0  0  0  0  0  0  0  0  0  0  0  0
   -1.4340   -1.6536    0.0655 H   0  0  0  0  0  0  0  0  0  0  0  0
    1.1796    1.3837    0.0062 H   0  0  0  0  0  0  0  0  0  0  0  0
    0.9391   -1.6728   -0.1458 H   0  0  0  0  0  0  0  0  0  0  0  0
    3.1361    0.7665    1.4893 H   0  0  0  0  0  0  0  0  0  0  0  0
    5.6270    0.6485    1.4149 H   0  0  0  0  0  0  0  0  0  0  0  0
    7.5138    0.1591    0.1111 H   0  0  0  0  0  0  0  0  0  0  0  0
    7.4718   -1.1525   -1.0967 H   0  0  0  0  0  0  0  0  0  0  0  0
    7.4293   -1.5556    0.6571 H   0  0  0  0  0  0  0  0  0  0  0  0
    5.5098   -2.2507   -1.5939 H   0  0  0  0  0  0  0  0  0  0  0  0
    3.0131   -2.2159   -1.6193 H   0  0  0  0  0  0  0  0  0  0  0  0
   -0.2301    3.3970   -0.1269 H   0  0  0  0  0  0  0  0  0  0  0  0
   -2.0660    5.0496   -0.1629 H   0  0  0  0  0  0  0  0  0  0  0  0
   -4.4193    4.3089   -0.1110 H   0  0  0  0  0  0  0  0  0  0  0  0
   -4.9856    1.9087   -0.0242 H   0  0  0  0  0  0  0  0  0  0  0  0
  1  2  1  0
  2  3  1  0
  2  4  1  0
  4  5  1  0
  5  6  2  0
  6  7  1  0
  7  8  2  3
  8  9  1  0
  9 10  2  0
 10 11  1  0
 11 12  2  0
 12 13  1  0
 12 14  1  0
 14 15  2  0
  6 16  1  0
 16 17  2  0
 17 18  1  0
 18 19  2  0
 19 20  1  0
 20 21  2  0
 21  4  1  0
 15  9  1  0
 21 16  1  0
  1 22  1  0
  1 23  1  0
  1 24  1  0
  2 25  1  0
  3 26  1  0
  3 27  1  0
  3 28  1  0
  5 29  1  0
  7 30  1  0
  8 31  1  0
 10 32  1  0
 11 33  1  0
 13 34  1  0
 13 35  1  0
 13 36  1  0
 14 37  1  0
 15 38  1  0
 17 39  1  0
 18 40  1  0
 19 41  1  0
 20 42  1  0
M  CHG  1  12   1
M  END
$$$$
