
     RDKit          3D

 35 36  0  0  0  0  0  0  0  0999 V2000
   -5.6061   -2.0922   -1.0572 C   0  0  0  0  0  0  0  0  0  0  0  0
   -4.3732   -1.2514   -0.9093 C   0  0  0  0  0  0  0  0  0  0  0  0
   -4.2820   -0.2964    0.1059 C   0  0  0  0  0  0  0  0  0  0  0  0
   -3.1455    0.5134    0.2291 C   0  0  0  0  0  0  0  0  0  0  0  0
   -2.0772    0.3947   -0.6642 C   0  0  0  0  0  0  0  0  0  0  0  0
   -0.9080    1.1897   -0.5763 N   0  0  0  0  0  0  0  0  0  0  0  0
   -0.6033    2.1572    0.3660 C   0  0  0  0  0  0  0  0  0  0  0  0
   -1.3057    2.4956    1.3152 O   0  0  0  0  0  0  0  0  0  0  0  0
    0.7541    2.8276    0.1302 C   0  0  0  0  0  0  0  0  0  0  0  0
    1.8551    2.0247    0.5575 O   0  0  0  0  0  0  0  0  0  0  0  0
    2.2685    1.1046   -0.3406 C   0  0  0  0  0  0  0  0  0  0  0  0
    1.7559    0.8741   -1.4231 O   0  0  0  0  0  0  0  0  0  0  0  0
    3.3632    0.3063    0.2305 C   0  0  0  0  0  0  0  0  0  0  0  0
    3.1826   -1.0840    0.2621 C   0  0  0  0  0  0  0  0  0  0  0  0
    4.1819   -1.8949    0.7937 C   0  0  0  0  0  0  0  0  0  0  0  0
    3.9615   -3.5991    0.8457 Cl  0  0  0  0  0  0  0  0  0  0  0  0
    5.3606   -1.3345    1.2839 C   0  0  0  0  0  0  0  0  0  0  0  0
    5.5472    0.0499    1.2334 C   0  0  0  0  0  0  0  0  0  0  0  0
    4.5517    0.8761    0.7014 C   0  0  0  0  0  0  0  0  0  0  0  0
    4.8816    2.5679    0.6070 Cl  0  0  0  0  0  0  0  0  0  0  0  0
   -2.1833   -0.5568   -1.6953 C   0  0  0  0  0  0  0  0  0  0  0  0
   -0.8049   -0.7953   -2.9847 Br  0  0  0  0  0  0  0  0  0  0  0  0
   -3.3193   -1.3671   -1.8195 C   0  0  0  0  0  0  0  0  0  0  0  0
   -6.3267   -1.5884   -1.7087 H   0  0  0  0  0  0  0  0  0  0  0  0
   -6.0748   -2.2733   -0.0842 H   0  0  0  0  0  0  0  0  0  0  0  0
   -5.3627   -3.0696   -1.4868 H   0  0  0  0  0  0  0  0  0  0  0  0
   -5.0963   -0.1699    0.8171 H   0  0  0  0  0  0  0  0  0  0  0  0
   -3.1352    1.2328    1.0419 H   0  0  0  0  0  0  0  0  0  0  0  0
   -0.1908    0.9889   -1.2775 H   0  0  0  0  0  0  0  0  0  0  0  0
    0.7792    3.7535    0.7156 H   0  0  0  0  0  0  0  0  0  0  0  0
    0.8523    3.1262   -0.9210 H   0  0  0  0  0  0  0  0  0  0  0  0
    2.2656   -1.5262   -0.1227 H   0  0  0  0  0  0  0  0  0  0  0  0
    6.1411   -1.9689    1.6980 H   0  0  0  0  0  0  0  0  0  0  0  0
    6.4774    0.4764    1.6034 H   0  0  0  0  0  0  0  0  0  0  0  0
   -3.3847   -2.0915   -2.6285 H   0  0  0  0  0  0  0  0  0  0  0  0
  1  2  1  0
  2  3  2  0
  3  4  1  0
  4  5  2  0
  5  6  1  0
  6  7  1  0
  7  8  2  0
  7  9  1  0
  9 10  1  0
 10 11  1  0
 11 12  2  0
 11 13  1  0
 13 14  2  0
 14 15  1  0
 15 16  1  0
 15 17  2  0
 17 18  1  0
 18 19  2  0
 19 20  1  0
  5 21  1  0
 21 22  1  0
 21 23  2  0
 23  2  1  0
 19 13  1  0
  1 24  1  0
  1 25  1  0
  1 26  1  0
  3 27  1  0
  4 28  1  0
  6 29  1  0
  9 30  1  0
  9 31  1  0
 14 32  1  0
 17 33  1  0
 18 34  1  0
 23 35  1  0
M  END
$$$$
