
     RDKit          3D

 52 55  0  0  0  0  0  0  0  0999 V2000
    6.2914   -0.0388   -2.5721 C   0  0  0  0  0  0  0  0  0  0  0  0
    5.5953   -0.0839   -1.2649 C   0  0  0  0  0  0  0  0  0  0  0  0
    4.2079   -0.1633   -1.0156 C   0  0  0  0  0  0  0  0  0  0  0  0
    4.0643   -0.1681    0.3628 C   0  0  0  0  0  0  0  0  0  0  0  0
    2.8873   -0.2309    1.2010 C   0  0  0  0  0  0  0  0  0  0  0  0
    2.9300   -0.2271    2.4290 O   0  0  0  0  0  0  0  0  0  0  0  0
    1.6909   -0.2937    0.5271 N   0  0  0  0  0  0  0  0  0  0  0  0
    0.4240   -0.2400    1.2272 C   0  0  0  0  0  0  0  0  0  0  0  0
    0.0516    1.2241    1.5638 C   0  0  0  0  0  0  0  0  0  0  0  0
   -1.4595    1.4341    1.8798 C   0  0  0  0  0  0  0  0  0  0  0  0
   -1.7067    2.9318    2.1387 C   0  0  0  0  0  0  0  0  0  0  0  0
   -1.8590    0.6571    3.1519 C   0  0  0  0  0  0  0  0  0  0  0  0
   -2.3384    0.9843    0.6681 C   0  0  0  0  0  0  0  0  0  0  0  0
   -1.8548   -0.3049    0.0920 C   0  0  0  0  0  0  0  0  0  0  0  0
   -0.6148   -0.8609    0.3579 C   0  0  0  0  0  0  0  0  0  0  0  0
   -0.6412   -2.1076   -0.2762 C   0  0  0  0  0  0  0  0  0  0  0  0
   -1.7819   -2.3191   -0.9267 N   0  0  0  0  0  0  0  0  0  0  0  0
   -2.5253   -1.1880   -0.7463 N   0  0  0  0  0  0  0  0  0  0  0  0
   -3.7915   -1.0892   -1.4024 C   0  0  0  0  0  0  0  0  0  0  0  0
   -4.5123    0.1091   -1.4930 C   0  0  0  0  0  0  0  0  0  0  0  0
   -5.7497    0.1481   -2.1498 C   0  0  0  0  0  0  0  0  0  0  0  0
   -6.2745   -1.0057   -2.7264 C   0  0  0  0  0  0  0  0  0  0  0  0
   -5.5561   -2.1896   -2.6502 C   0  0  0  0  0  0  0  0  0  0  0  0
   -6.0589   -3.3014   -3.2041 F   0  0  0  0  0  0  0  0  0  0  0  0
   -4.3258   -2.2423   -2.0047 C   0  0  0  0  0  0  0  0  0  0  0  0
    5.3548   -0.1078    0.8388 N   0  0  0  0  0  0  0  0  0  0  0  0
    5.7842   -0.1235    2.2208 C   0  0  0  0  0  0  0  0  0  0  0  0
    6.2921   -0.0369   -0.1272 N   0  0  0  0  0  0  0  0  0  0  0  0
    5.6383   -0.3916   -3.3767 H   0  0  0  0  0  0  0  0  0  0  0  0
    7.1849   -0.6713   -2.5622 H   0  0  0  0  0  0  0  0  0  0  0  0
    6.5957    0.9852   -2.8052 H   0  0  0  0  0  0  0  0  0  0  0  0
    3.4277   -0.2117   -1.7607 H   0  0  0  0  0  0  0  0  0  0  0  0
    1.6798   -0.1663   -0.4728 H   0  0  0  0  0  0  0  0  0  0  0  0
    0.5060   -0.8170    2.1565 H   0  0  0  0  0  0  0  0  0  0  0  0
    0.6697    1.5716    2.4031 H   0  0  0  0  0  0  0  0  0  0  0  0
    0.3198    1.8682    0.7124 H   0  0  0  0  0  0  0  0  0  0  0  0
   -1.4384    3.5348    1.2629 H   0  0  0  0  0  0  0  0  0  0  0  0
   -1.1093    3.2932    2.9840 H   0  0  0  0  0  0  0  0  0  0  0  0
   -2.7600    3.1235    2.3653 H   0  0  0  0  0  0  0  0  0  0  0  0
   -2.9014    0.8617    3.4237 H   0  0  0  0  0  0  0  0  0  0  0  0
   -1.2297    0.9525    4.0002 H   0  0  0  0  0  0  0  0  0  0  0  0
   -1.7635   -0.4255    3.0279 H   0  0  0  0  0  0  0  0  0  0  0  0
   -2.2849    1.7490   -0.1179 H   0  0  0  0  0  0  0  0  0  0  0  0
   -3.3810    0.9004    0.9938 H   0  0  0  0  0  0  0  0  0  0  0  0
    0.1193   -2.8797   -0.2848 H   0  0  0  0  0  0  0  0  0  0  0  0
   -4.1404    1.0455   -1.0999 H   0  0  0  0  0  0  0  0  0  0  0  0
   -6.2997    1.0840   -2.2178 H   0  0  0  0  0  0  0  0  0  0  0  0
   -7.2312   -0.9880   -3.2380 H   0  0  0  0  0  0  0  0  0  0  0  0
   -3.8059   -3.1971   -1.9716 H   0  0  0  0  0  0  0  0  0  0  0  0
    5.4075   -1.0348    2.6922 H   0  0  0  0  0  0  0  0  0  0  0  0
    6.8759   -0.1224    2.2613 H   0  0  0  0  0  0  0  0  0  0  0  0
    5.3971    0.7701    2.7156 H   0  0  0  0  0  0  0  0  0  0  0  0
  1  2  1  0
  2  3  1  0
  3  4  2  0
  4  5  1  0
  5  6  2  0
  5  7  1  0
  7  8  1  0
  8  9  1  0
  9 10  1  0
 10 11  1  0
 10 12  1  0
 10 13  1  0
 13 14  1  0
 14 15  2  0
 15 16  1  0
 16 17  2  0
 17 18  1  0
 18 19  1  0
 19 20  2  0
 20 21  1  0
 21 22  2  0
 22 23  1  0
 23 24  1  0
 23 25  2  0
  4 26  1  0
 26 27  1  0
 26 28  1  0
 28  2  2  0
 15  8  1  0
 25 19  1  0
 18 14  1  0
  1 29  1  0
  1 30  1  0
  1 31  1  0
  3 32  1  0
  7 33  1  0
  8 34  1  0
  9 35  1  0
  9 36  1  0
 11 37  1  0
 11 38  1  0
 11 39  1  0
 12 40  1  0
 12 41  1  0
 12 42  1  0
 13 43  1  0
 13 44  1  0
 16 45  1  0
 20 46  1  0
 21 47  1  0
 22 48  1  0
 25 49  1  0
 27 50  1  0
 27 51  1  0
 27 52  1  0
M  END
$$$$
