
     RDKit          3D

 58 62  0  0  0  0  0  0  0  0999 V2000
    7.7517    2.4378    0.7517 C   0  0  0  0  0  0  0  0  0  0  0  0
    6.5286    3.1607    0.6881 O   0  0  0  0  0  0  0  0  0  0  0  0
    5.3756    2.4384    0.8241 C   0  0  0  0  0  0  0  0  0  0  0  0
    4.2069    3.2031    0.8377 C   0  0  0  0  0  0  0  0  0  0  0  0
    2.9561    2.5951    0.9677 C   0  0  0  0  0  0  0  0  0  0  0  0
    2.8584    1.2043    1.0864 C   0  0  0  0  0  0  0  0  0  0  0  0
    1.5117    0.5329    1.1963 C   0  0  0  0  0  0  0  0  0  0  0  0
    0.9435    0.1884   -0.1843 C   0  0  0  0  0  0  0  0  0  0  0  0
   -0.3770   -0.4579   -0.0585 N   0  0  0  0  0  0  0  0  0  0  0  0
   -1.5562    0.3036    0.0088 C   0  0  0  0  0  0  0  0  0  0  0  0
   -1.5802    1.6086    0.0449 N   0  0  0  0  0  0  0  0  0  0  0  0
   -2.8954   -0.3917    0.0441 C   0  0  0  0  0  0  0  0  0  0  0  0
   -4.2390    0.2698    0.0421 C   0  0  0  0  0  0  0  0  0  0  0  0
   -5.2753   -0.3764   -0.0797 O   0  0  0  0  0  0  0  0  0  0  0  0
   -4.2172    1.6304    0.1697 N   0  0  0  0  0  0  0  0  0  0  0  0
   -5.3876    2.4565    0.0051 C   0  0  0  0  0  0  0  0  0  0  0  0
   -5.4106    3.0480   -1.3592 C   0  0  0  0  0  0  0  0  0  0  0  0
   -4.6619    2.8692   -2.5066 C   0  0  0  0  0  0  0  0  0  0  0  0
   -5.1940    3.7502   -3.4785 C   0  0  0  0  0  0  0  0  0  0  0  0
   -6.2305    4.4131   -2.8675 C   0  0  0  0  0  0  0  0  0  0  0  0
   -6.3690    3.9982   -1.5824 O   0  0  0  0  0  0  0  0  0  0  0  0
   -2.8592   -1.7353    0.0642 C   0  0  0  0  0  0  0  0  0  0  0  0
   -1.6199   -2.4929    0.0766 C   0  0  0  0  0  0  0  0  0  0  0  0
   -1.6717   -3.9818    0.1483 C   0  0  0  0  0  0  0  0  0  0  0  0
   -2.7590   -4.5600    0.1902 O   0  0  0  0  0  0  0  0  0  0  0  0
   -0.4505   -4.6319    0.1638 N   0  0  0  0  0  0  0  0  0  0  0  0
   -0.4138   -6.0212    0.2300 C   0  0  0  0  0  0  0  0  0  0  0  0
    0.7424   -6.6953    0.2491 C   0  0  0  0  0  0  0  0  0  0  0  0
    1.9893   -5.9790    0.2015 C   0  0  0  0  0  0  0  0  0  0  0  0
    1.9998   -4.6427    0.1349 C   0  0  0  0  0  0  0  0  0  0  0  0
    0.7135   -3.8896    0.1124 C   0  0  0  0  0  0  0  0  0  0  0  0
    0.7562   -2.5978    0.0466 N   0  0  0  0  0  0  0  0  0  0  0  0
   -0.4173   -1.8772    0.0211 C   0  0  0  0  0  0  0  0  0  0  0  0
    4.0316    0.4387    1.0657 C   0  0  0  0  0  0  0  0  0  0  0  0
    5.2834    1.0520    0.9371 C   0  0  0  0  0  0  0  0  0  0  0  0
    7.8363    1.7318   -0.0812 H   0  0  0  0  0  0  0  0  0  0  0  0
    7.8597    1.9283    1.7152 H   0  0  0  0  0  0  0  0  0  0  0  0
    8.5704    3.1576    0.6624 H   0  0  0  0  0  0  0  0  0  0  0  0
    4.2721    4.2855    0.7483 H   0  0  0  0  0  0  0  0  0  0  0  0
    2.0654    3.2194    0.9785 H   0  0  0  0  0  0  0  0  0  0  0  0
    1.6043   -0.3722    1.8100 H   0  0  0  0  0  0  0  0  0  0  0  0
    0.8227    1.1868    1.7450 H   0  0  0  0  0  0  0  0  0  0  0  0
    1.6443   -0.4572   -0.7295 H   0  0  0  0  0  0  0  0  0  0  0  0
    0.8765    1.0827   -0.8159 H   0  0  0  0  0  0  0  0  0  0  0  0
   -0.6394    1.9995    0.0306 H   0  0  0  0  0  0  0  0  0  0  0  0
   -3.2970    2.0772    0.1640 H   0  0  0  0  0  0  0  0  0  0  0  0
   -6.2978    1.8750    0.1836 H   0  0  0  0  0  0  0  0  0  0  0  0
   -5.3256    3.2546    0.7523 H   0  0  0  0  0  0  0  0  0  0  0  0
   -3.8347    2.1831   -2.6239 H   0  0  0  0  0  0  0  0  0  0  0  0
   -4.8669    3.8831   -4.4994 H   0  0  0  0  0  0  0  0  0  0  0  0
   -6.9344    5.1676   -3.1921 H   0  0  0  0  0  0  0  0  0  0  0  0
   -3.7851   -2.3084    0.0831 H   0  0  0  0  0  0  0  0  0  0  0  0
   -1.3687   -6.5406    0.2649 H   0  0  0  0  0  0  0  0  0  0  0  0
    0.7613   -7.7794    0.3000 H   0  0  0  0  0  0  0  0  0  0  0  0
    2.9136   -6.5473    0.2197 H   0  0  0  0  0  0  0  0  0  0  0  0
    2.9163   -4.0672    0.0952 H   0  0  0  0  0  0  0  0  0  0  0  0
    3.9793   -0.6449    1.1503 H   0  0  0  0  0  0  0  0  0  0  0  0
    6.1634    0.4168    0.9269 H   0  0  0  0  0  0  0  0  0  0  0  0
  1  2  1  0
  2  3  1  0
  3  4  2  0
  4  5  1  0
  5  6  2  0
  6  7  1  0
  7  8  1  0
  8  9  1  0
  9 10  1  0
 10 11  2  3
 10 12  1  0
 12 13  1  0
 13 14  2  0
 13 15  1  0
 15 16  1  0
 16 17  1  0
 17 18  2  0
 18 19  1  0
 19 20  2  0
 20 21  1  0
 12 22  2  0
 22 23  1  0
 23 24  1  0
 24 25  2  0
 24 26  1  0
 26 27  1  0
 27 28  2  0
 28 29  1  0
 29 30  2  0
 30 31  1  0
 31 32  2  0
 32 33  1  0
  6 34  1  0
 34 35  2  0
 35  3  1  0
 33  9  1  0
 21 17  1  0
 33 23  2  0
 31 26  1  0
  1 36  1  0
  1 37  1  0
  1 38  1  0
  4 39  1  0
  5 40  1  0
  7 41  1  0
  7 42  1  0
  8 43  1  0
  8 44  1  0
 11 45  1  0
 15 46  1  0
 16 47  1  0
 16 48  1  0
 18 49  1  0
 19 50  1  0
 20 51  1  0
 22 52  1  0
 27 53  1  0
 28 54  1  0
 29 55  1  0
 30 56  1  0
 34 57  1  0
 35 58  1  0
M  END
$$$$
