
     RDKit          3D

 60 65  0  0  0  0  0  0  0  0999 V2000
    2.2454   -1.5060   -4.0162 O   0  0  0  0  0  0  0  0  0  0  0  0
    2.6147   -1.2740   -2.8709 C   0  0  0  0  0  0  0  0  0  0  0  0
    1.7331   -1.3082   -1.7957 N   0  0  0  0  0  0  0  0  0  0  0  0
    2.0891   -1.0292   -0.4813 C   0  0  0  0  0  0  0  0  0  0  0  0
    0.9864   -1.1123    0.5679 C   0  0  0  0  0  0  0  0  0  0  0  0
   -0.1465   -0.1215    0.2872 C   0  0  0  0  0  0  0  0  0  0  0  0
   -1.4402   -0.5934    0.9363 C   0  0  0  0  0  0  0  0  0  0  0  0
   -1.8894   -1.8550    0.2925 N   0  0  0  0  0  0  0  0  0  0  0  0
   -3.2988   -2.5613    0.9705 S   0  0  0  0  0  6  0  0  0  0  0  0
   -3.0422   -2.7416    2.3840 O   0  0  0  0  0  0  0  0  0  0  0  0
   -3.6897   -3.6717    0.1298 O   0  0  0  0  0  0  0  0  0  0  0  0
   -4.5217   -1.2930    0.7731 C   0  0  0  0  0  0  0  0  0  0  0  0
   -5.0531   -0.6488    1.8967 C   0  0  0  0  0  0  0  0  0  0  0  0
   -6.0145    0.3486    1.7236 C   0  0  0  0  0  0  0  0  0  0  0  0
   -6.4381    0.6910    0.4386 C   0  0  0  0  0  0  0  0  0  0  0  0
   -5.9262    0.0157   -0.6779 C   0  0  0  0  0  0  0  0  0  0  0  0
   -4.9587   -0.9724   -0.5167 C   0  0  0  0  0  0  0  0  0  0  0  0
   -6.3235    0.2825   -1.9629 O   0  0  0  0  0  0  0  0  0  0  0  0
   -7.5449    1.0323   -1.9846 C   0  0  0  0  0  0  0  0  0  0  0  0
   -7.4808    2.1847   -0.9944 C   0  0  0  0  0  0  0  0  0  0  0  0
   -7.3682    1.6949    0.3484 O   0  0  0  0  0  0  0  0  0  0  0  0
   -0.8114   -2.8426   -0.0024 C   0  0  0  0  0  0  0  0  0  0  0  0
    0.4814   -2.5502    0.7506 C   0  0  0  0  0  0  0  0  0  0  0  0
    3.3001   -0.7209   -0.1036 N   0  0  0  0  0  0  0  0  0  0  0  0
    4.1813   -0.6853   -1.1332 C   0  0  0  0  0  0  0  0  0  0  0  0
    3.9507   -0.9355   -2.4642 C   0  0  0  0  0  0  0  0  0  0  0  0
    5.0981   -0.8030   -3.1835 N   0  0  0  0  0  0  0  0  0  0  0  0
    6.0649   -0.4671   -2.3285 N   0  0  0  0  0  0  0  0  0  0  0  0
    5.5105   -0.3758   -1.0939 N   0  0  0  0  0  0  0  0  0  0  0  0
    6.3128   -0.0287    0.0601 C   0  0  0  0  0  0  0  0  0  0  0  0
    6.1979    1.4407    0.3875 C   0  0  0  0  0  0  0  0  0  0  0  0
    6.9235    2.3926   -0.3485 C   0  0  0  0  0  0  0  0  0  0  0  0
    6.8006    3.7517   -0.0573 C   0  0  0  0  0  0  0  0  0  0  0  0
    5.9536    4.1604    0.9656 C   0  0  0  0  0  0  0  0  0  0  0  0
    5.8317    5.4654    1.2416 F   0  0  0  0  0  0  0  0  0  0  0  0
    5.2226    3.2364    1.7008 C   0  0  0  0  0  0  0  0  0  0  0  0
    5.3410    1.8767    1.4115 C   0  0  0  0  0  0  0  0  0  0  0  0
    0.7793   -1.5090   -2.0557 H   0  0  0  0  0  0  0  0  0  0  0  0
    1.4528   -0.8221    1.5218 H   0  0  0  0  0  0  0  0  0  0  0  0
   -0.3088    0.0175   -0.7887 H   0  0  0  0  0  0  0  0  0  0  0  0
    0.1298    0.8645    0.6817 H   0  0  0  0  0  0  0  0  0  0  0  0
   -1.2989   -0.7327    2.0141 H   0  0  0  0  0  0  0  0  0  0  0  0
   -2.1987    0.1815    0.7860 H   0  0  0  0  0  0  0  0  0  0  0  0
   -4.7285   -0.9148    2.9014 H   0  0  0  0  0  0  0  0  0  0  0  0
   -6.4311    0.8618    2.5873 H   0  0  0  0  0  0  0  0  0  0  0  0
   -4.5601   -1.4926   -1.3847 H   0  0  0  0  0  0  0  0  0  0  0  0
   -8.3770    0.3531   -1.7580 H   0  0  0  0  0  0  0  0  0  0  0  0
   -7.6818    1.4132   -3.0017 H   0  0  0  0  0  0  0  0  0  0  0  0
   -6.6248    2.8416   -1.1964 H   0  0  0  0  0  0  0  0  0  0  0  0
   -8.3946    2.7850   -1.0516 H   0  0  0  0  0  0  0  0  0  0  0  0
   -1.1261   -3.8648    0.2404 H   0  0  0  0  0  0  0  0  0  0  0  0
   -0.6423   -2.8276   -1.0850 H   0  0  0  0  0  0  0  0  0  0  0  0
    0.2961   -2.7172    1.8210 H   0  0  0  0  0  0  0  0  0  0  0  0
    1.2495   -3.2766    0.4583 H   0  0  0  0  0  0  0  0  0  0  0  0
    7.3563   -0.3001   -0.1447 H   0  0  0  0  0  0  0  0  0  0  0  0
    5.9787   -0.6514    0.8997 H   0  0  0  0  0  0  0  0  0  0  0  0
    7.5772    2.0798   -1.1619 H   0  0  0  0  0  0  0  0  0  0  0  0
    7.3500    4.4927   -0.6271 H   0  0  0  0  0  0  0  0  0  0  0  0
    4.5594    3.5812    2.4881 H   0  0  0  0  0  0  0  0  0  0  0  0
    4.7520    1.1610    1.9822 H   0  0  0  0  0  0  0  0  0  0  0  0
  1  2  2  0
  2  3  1  0
  3  4  1  0
  4  5  1  0
  5  6  1  0
  6  7  1  0
  7  8  1  0
  8  9  1  0
  9 10  2  0
  9 11  2  0
  9 12  1  0
 12 13  2  0
 13 14  1  0
 14 15  2  0
 15 16  1  0
 16 17  2  0
 16 18  1  0
 18 19  1  0
 19 20  1  0
 20 21  1  0
  8 22  1  0
 22 23  1  0
  4 24  2  0
 24 25  1  0
 25 26  2  0
 26 27  1  0
 27 28  2  0
 28 29  1  0
 29 30  1  0
 30 31  1  0
 31 32  2  0
 32 33  1  0
 33 34  2  0
 34 35  1  0
 34 36  1  0
 36 37  2  0
 26  2  1  0
 37 31  1  0
 23  5  1  0
 29 25  1  0
 17 12  1  0
 21 15  1  0
  3 38  1  0
  5 39  1  0
  6 40  1  0
  6 41  1  0
  7 42  1  0
  7 43  1  0
 13 44  1  0
 14 45  1  0
 17 46  1  0
 19 47  1  0
 19 48  1  0
 20 49  1  0
 20 50  1  0
 22 51  1  0
 22 52  1  0
 23 53  1  0
 23 54  1  0
 30 55  1  0
 30 56  1  0
 32 57  1  0
 33 58  1  0
 36 59  1  0
 37 60  1  0
M  END
$$$$
