
     RDKit          3D

 60 64  0  0  0  0  0  0  0  0999 V2000
   -5.7090    4.1093    2.8136 C   0  0  0  0  0  0  0  0  0  0  0  0
   -5.5323    3.1176    1.7018 C   0  0  0  0  0  0  0  0  0  0  0  0
   -5.9931    3.4096    0.4135 C   0  0  0  0  0  0  0  0  0  0  0  0
   -5.8598    2.4750   -0.6161 C   0  0  0  0  0  0  0  0  0  0  0  0
   -5.2791    1.2243   -0.3718 C   0  0  0  0  0  0  0  0  0  0  0  0
   -5.1206    0.2224   -1.4879 C   0  0  0  0  0  0  0  0  0  0  0  0
   -3.9342    0.4967   -2.2730 N   0  0  0  0  0  0  0  0  0  0  0  0
   -4.0048    1.2275   -3.4153 N   0  0  0  0  0  0  0  0  0  0  0  0
   -2.7695    1.3246   -3.9113 N   0  0  0  0  0  0  0  0  0  0  0  0
   -1.9442    0.6288   -3.0809 C   0  0  0  0  0  0  0  0  0  0  0  0
   -0.5243    0.4027   -3.1306 C   0  0  0  0  0  0  0  0  0  0  0  0
    0.2471    0.8241   -3.9893 O   0  0  0  0  0  0  0  0  0  0  0  0
   -0.0802   -0.3791   -2.0685 N   0  0  0  0  0  0  0  0  0  0  0  0
   -0.9092   -0.9004   -1.0803 C   0  0  0  0  0  0  0  0  0  0  0  0
   -0.2463   -1.7563   -0.0085 C   0  0  0  0  0  0  0  0  0  0  0  0
    0.4087   -3.0092   -0.6106 C   0  0  0  0  0  0  0  0  0  0  0  0
    1.9324   -2.9765   -0.5108 C   0  0  0  0  0  0  0  0  0  0  0  0
    2.3323   -2.8263    0.9011 N   0  0  0  0  0  0  0  0  0  0  0  0
    3.9611   -3.1203    1.2993 S   0  0  0  0  0  6  0  0  0  0  0  0
    4.4224   -4.2544    0.5242 O   0  0  0  0  0  0  0  0  0  0  0  0
    4.0775   -3.0972    2.7433 O   0  0  0  0  0  0  0  0  0  0  0  0
    4.7875   -1.6730    0.6597 C   0  0  0  0  0  0  0  0  0  0  0  0
    5.0539   -0.5916    1.5035 C   0  0  0  0  0  0  0  0  0  0  0  0
    5.7372    0.5210    1.0061 C   0  0  0  0  0  0  0  0  0  0  0  0
    6.1597    0.5572   -0.3296 C   0  0  0  0  0  0  0  0  0  0  0  0
    6.9448    1.7300   -0.8517 C   0  0  0  0  0  0  0  0  0  0  0  0
    5.9130   -0.5472   -1.1572 C   0  0  0  0  0  0  0  0  0  0  0  0
    5.2322   -1.6632   -0.6655 C   0  0  0  0  0  0  0  0  0  0  0  0
    1.5906   -1.8274    1.7095 C   0  0  0  0  0  0  0  0  0  0  0  0
    0.7293   -0.9273    0.8329 C   0  0  0  0  0  0  0  0  0  0  0  0
   -2.1986   -0.7026   -1.0280 N   0  0  0  0  0  0  0  0  0  0  0  0
   -2.6552    0.0720   -2.0445 C   0  0  0  0  0  0  0  0  0  0  0  0
   -4.8227    0.9323    0.9202 C   0  0  0  0  0  0  0  0  0  0  0  0
   -4.9558    1.8687    1.9486 C   0  0  0  0  0  0  0  0  0  0  0  0
   -5.6177    5.1362    2.4403 H   0  0  0  0  0  0  0  0  0  0  0  0
   -6.6952    3.9840    3.2689 H   0  0  0  0  0  0  0  0  0  0  0  0
   -4.9435    3.9733    3.5859 H   0  0  0  0  0  0  0  0  0  0  0  0
   -6.4588    4.3698    0.2014 H   0  0  0  0  0  0  0  0  0  0  0  0
   -6.2099    2.7337   -1.6141 H   0  0  0  0  0  0  0  0  0  0  0  0
   -5.9914    0.2419   -2.1563 H   0  0  0  0  0  0  0  0  0  0  0  0
   -5.0393   -0.8005   -1.0980 H   0  0  0  0  0  0  0  0  0  0  0  0
    0.9155   -0.5480   -2.0696 H   0  0  0  0  0  0  0  0  0  0  0  0
   -1.0542   -2.1017    0.6547 H   0  0  0  0  0  0  0  0  0  0  0  0
    0.0443   -3.8878   -0.0581 H   0  0  0  0  0  0  0  0  0  0  0  0
    0.1096   -3.1608   -1.6559 H   0  0  0  0  0  0  0  0  0  0  0  0
    2.3228   -3.9169   -0.9141 H   0  0  0  0  0  0  0  0  0  0  0  0
    2.3355   -2.1550   -1.1135 H   0  0  0  0  0  0  0  0  0  0  0  0
    4.7544   -0.6159    2.5495 H   0  0  0  0  0  0  0  0  0  0  0  0
    5.9545    1.3552    1.6715 H   0  0  0  0  0  0  0  0  0  0  0  0
    6.7361    2.6369   -0.2723 H   0  0  0  0  0  0  0  0  0  0  0  0
    8.0171    1.5167   -0.7952 H   0  0  0  0  0  0  0  0  0  0  0  0
    6.6789    1.9410   -1.8904 H   0  0  0  0  0  0  0  0  0  0  0  0
    6.2672   -0.5479   -2.1883 H   0  0  0  0  0  0  0  0  0  0  0  0
    5.0712   -2.5225   -1.3129 H   0  0  0  0  0  0  0  0  0  0  0  0
    2.2677   -1.1993    2.2956 H   0  0  0  0  0  0  0  0  0  0  0  0
    0.9597   -2.3755    2.4235 H   0  0  0  0  0  0  0  0  0  0  0  0
    0.1687   -0.2225    1.4585 H   0  0  0  0  0  0  0  0  0  0  0  0
    1.3786   -0.3137    0.1964 H   0  0  0  0  0  0  0  0  0  0  0  0
   -4.3580   -0.0270    1.1365 H   0  0  0  0  0  0  0  0  0  0  0  0
   -4.6046    1.6149    2.9455 H   0  0  0  0  0  0  0  0  0  0  0  0
  1  2  1  0
  2  3  2  0
  3  4  1  0
  4  5  2  0
  5  6  1  0
  6  7  1  0
  7  8  1  0
  8  9  2  0
  9 10  1  0
 10 11  1  0
 11 12  2  0
 11 13  1  0
 13 14  1  0
 14 15  1  0
 15 16  1  0
 16 17  1  0
 17 18  1  0
 18 19  1  0
 19 20  2  0
 19 21  2  0
 19 22  1  0
 22 23  2  0
 23 24  1  0
 24 25  2  0
 25 26  1  0
 25 27  1  0
 27 28  2  0
 18 29  1  0
 29 30  1  0
 14 31  2  0
 31 32  1  0
  5 33  1  0
 33 34  2  0
 34  2  1  0
 32  7  1  0
 32 10  2  0
 30 15  1  0
 28 22  1  0
  1 35  1  0
  1 36  1  0
  1 37  1  0
  3 38  1  0
  4 39  1  0
  6 40  1  0
  6 41  1  0
 13 42  1  0
 15 43  1  0
 16 44  1  0
 16 45  1  0
 17 46  1  0
 17 47  1  0
 23 48  1  0
 24 49  1  0
 26 50  1  0
 26 51  1  0
 26 52  1  0
 27 53  1  0
 28 54  1  0
 29 55  1  0
 29 56  1  0
 30 57  1  0
 30 58  1  0
 33 59  1  0
 34 60  1  0
M  END
$$$$
