
     RDKit          3D

 65 66  0  0  0  0  0  0  0  0999 V2000
    1.1640    0.8179    5.0899 C   0  0  0  0  0  0  0  0  0  0  0  0
    1.0902   -0.2973    4.2074 O   0  0  0  0  0  0  0  0  0  0  0  0
    0.5915   -0.0439    2.9601 C   0  0  0  0  0  0  0  0  0  0  0  0
    0.2118   -1.1740    2.2364 C   0  0  0  0  0  0  0  0  0  0  0  0
   -0.3390   -1.0489    0.9573 C   0  0  0  0  0  0  0  0  0  0  0  0
   -0.5317    0.2151    0.3780 C   0  0  0  0  0  0  0  0  0  0  0  0
   -1.2327    0.4075   -0.9707 C   0  0  0  0  0  0  0  0  0  0  0  0
   -2.3850   -0.5971   -1.2814 C   0  0  0  0  0  0  0  0  0  0  0  0
   -2.5635   -1.0799   -2.3975 O   0  0  0  0  0  0  0  0  0  0  0  0
   -3.2656   -0.8001   -0.2276 N   0  0  0  0  0  0  0  0  0  0  0  0
   -4.4298   -1.6958   -0.2524 C   0  0  0  0  0  0  0  0  0  0  0  0
   -3.9934   -3.1490   -0.4948 C   0  0  0  0  0  0  0  0  0  0  0  0
   -5.1185   -1.6161    1.1264 C   0  0  0  0  0  0  0  0  0  0  0  0
   -5.4467   -1.2550   -1.3180 C   0  0  0  0  0  0  0  0  0  0  0  0
   -0.3343    0.5918   -2.1299 N   0  0  0  0  0  0  0  0  0  0  0  0
   -0.7165    1.6650   -3.0663 C   0  0  0  0  0  0  0  0  0  0  0  0
    0.0244    2.9759   -2.7786 C   0  0  0  0  0  0  0  0  0  0  0  0
   -0.4785    3.5812   -1.5902 O   0  0  0  0  0  0  0  0  0  0  0  0
    0.6496   -0.3444   -2.4102 C   0  0  0  0  0  0  0  0  0  0  0  0
    0.8479   -1.3495   -1.7211 O   0  0  0  0  0  0  0  0  0  0  0  0
    1.5431   -0.0991   -3.6199 C   0  0  0  0  0  0  0  0  0  0  0  0
    2.9754   -0.5270   -3.3303 C   0  0  0  0  0  0  0  0  0  0  0  0
    3.5423    0.3534   -2.2305 C   0  0  0  0  0  0  0  0  0  0  0  0
    3.9590    1.4774   -2.4935 O   0  0  0  0  0  0  0  0  0  0  0  0
    3.4576   -0.2367   -0.9901 N   0  0  0  0  0  0  0  0  0  0  0  0
    3.9273    0.3137    0.1855 C   0  0  0  0  0  0  0  0  0  0  0  0
    3.8790   -0.3631    1.4282 C   0  0  0  0  0  0  0  0  0  0  0  0
    4.4911    0.4884    2.3137 C   0  0  0  0  0  0  0  0  0  0  0  0
    4.8461    0.4115    3.7411 C   0  0  0  0  0  0  0  0  0  0  0  0
    4.8430    1.6268    1.6607 O   0  0  0  0  0  0  0  0  0  0  0  0
    4.4994    1.5146    0.3278 N   0  0  0  0  0  0  0  0  0  0  0  0
   -0.0904    1.3401    1.0935 C   0  0  0  0  0  0  0  0  0  0  0  0
    0.4638    1.2140    2.3730 C   0  0  0  0  0  0  0  0  0  0  0  0
    0.1962    1.3256    5.1801 H   0  0  0  0  0  0  0  0  0  0  0  0
    1.9440    1.5189    4.7727 H   0  0  0  0  0  0  0  0  0  0  0  0
    1.4397    0.4416    6.0808 H   0  0  0  0  0  0  0  0  0  0  0  0
    0.3356   -2.1624    2.6729 H   0  0  0  0  0  0  0  0  0  0  0  0
   -0.6161   -1.9509    0.4170 H   0  0  0  0  0  0  0  0  0  0  0  0
   -1.7785    1.3572   -0.8589 H   0  0  0  0  0  0  0  0  0  0  0  0
   -2.9877   -0.4375    0.6780 H   0  0  0  0  0  0  0  0  0  0  0  0
   -3.5643   -3.2859   -1.4928 H   0  0  0  0  0  0  0  0  0  0  0  0
   -3.2337   -3.4584    0.2327 H   0  0  0  0  0  0  0  0  0  0  0  0
   -4.8418   -3.8367   -0.4070 H   0  0  0  0  0  0  0  0  0  0  0  0
   -4.4401   -1.9486    1.9194 H   0  0  0  0  0  0  0  0  0  0  0  0
   -5.4141   -0.5864    1.3576 H   0  0  0  0  0  0  0  0  0  0  0  0
   -6.0167   -2.2422    1.1693 H   0  0  0  0  0  0  0  0  0  0  0  0
   -5.7545   -0.2158   -1.1584 H   0  0  0  0  0  0  0  0  0  0  0  0
   -5.0426   -1.3215   -2.3320 H   0  0  0  0  0  0  0  0  0  0  0  0
   -6.3466   -1.8811   -1.2838 H   0  0  0  0  0  0  0  0  0  0  0  0
   -0.5109    1.3398   -4.0906 H   0  0  0  0  0  0  0  0  0  0  0  0
   -1.8019    1.8173   -3.0052 H   0  0  0  0  0  0  0  0  0  0  0  0
   -0.1325    3.6801   -3.6027 H   0  0  0  0  0  0  0  0  0  0  0  0
    1.0995    2.8116   -2.6551 H   0  0  0  0  0  0  0  0  0  0  0  0
    0.1658    4.2727   -1.3487 H   0  0  0  0  0  0  0  0  0  0  0  0
    1.1364   -0.6799   -4.4553 H   0  0  0  0  0  0  0  0  0  0  0  0
    1.5605    0.9511   -3.9143 H   0  0  0  0  0  0  0  0  0  0  0  0
    3.5996   -0.4034   -4.2223 H   0  0  0  0  0  0  0  0  0  0  0  0
    3.0368   -1.5839   -3.0502 H   0  0  0  0  0  0  0  0  0  0  0  0
    2.9576   -1.1171   -0.9046 H   0  0  0  0  0  0  0  0  0  0  0  0
    3.4949   -1.3524    1.6367 H   0  0  0  0  0  0  0  0  0  0  0  0
    5.9040    0.6576    3.8862 H   0  0  0  0  0  0  0  0  0  0  0  0
    4.2475    1.1139    4.3310 H   0  0  0  0  0  0  0  0  0  0  0  0
    4.6747   -0.5960    4.1370 H   0  0  0  0  0  0  0  0  0  0  0  0
   -0.1808    2.3351    0.6564 H   0  0  0  0  0  0  0  0  0  0  0  0
    0.7891    2.1200    2.8785 H   0  0  0  0  0  0  0  0  0  0  0  0
  1  2  1  0
  2  3  1  0
  3  4  2  0
  4  5  1  0
  5  6  2  0
  6  7  1  0
  7  8  1  0
  8  9  2  0
  8 10  1  0
 10 11  1  0
 11 12  1  0
 11 13  1  0
 11 14  1  0
  7 15  1  0
 15 16  1  0
 16 17  1  0
 17 18  1  0
 15 19  1  0
 19 20  2  0
 19 21  1  0
 21 22  1  0
 22 23  1  0
 23 24  2  0
 23 25  1  0
 25 26  1  0
 26 27  1  0
 27 28  2  0
 28 29  1  0
 28 30  1  0
 30 31  1  0
  6 32  1  0
 32 33  2  0
 33  3  1  0
 31 26  2  0
  1 34  1  0
  1 35  1  0
  1 36  1  0
  4 37  1  0
  5 38  1  0
  7 39  1  0
 10 40  1  0
 12 41  1  0
 12 42  1  0
 12 43  1  0
 13 44  1  0
 13 45  1  0
 13 46  1  0
 14 47  1  0
 14 48  1  0
 14 49  1  0
 16 50  1  0
 16 51  1  0
 17 52  1  0
 17 53  1  0
 18 54  1  0
 21 55  1  0
 21 56  1  0
 22 57  1  0
 22 58  1  0
 25 59  1  0
 27 60  1  0
 29 61  1  0
 29 62  1  0
 29 63  1  0
 32 64  1  0
 33 65  1  0
M  END
$$$$
