
     RDKit          3D

 35 37  0  0  0  0  0  0  0  0999 V2000
   -1.9059   -2.3915    1.7318 C   0  0  0  0  0  0  0  0  0  0  0  0
   -1.4661   -1.0028    1.2818 C   0  0  0  0  0  0  0  0  0  0  0  0
   -2.0641   -0.6848    0.0206 O   0  0  0  0  0  0  0  0  0  0  0  0
   -3.2711   -0.0460   -0.0014 C   0  0  0  0  0  0  0  0  0  0  0  0
   -4.1039    0.1911    1.0927 C   0  0  0  0  0  0  0  0  0  0  0  0
   -5.3201    0.8619    0.9185 C   0  0  0  0  0  0  0  0  0  0  0  0
   -5.7042    1.2909   -0.3501 C   0  0  0  0  0  0  0  0  0  0  0  0
   -7.3473    2.1952   -0.5794 Br  0  0  0  0  0  0  0  0  0  0  0  0
   -4.8852    1.0522   -1.4492 C   0  0  0  0  0  0  0  0  0  0  0  0
   -3.6727    0.3821   -1.2712 C   0  0  0  0  0  0  0  0  0  0  0  0
    0.0674   -0.9542    1.1080 C   0  0  0  0  0  0  0  0  0  0  0  0
    0.8129   -1.6897    1.7477 O   0  0  0  0  0  0  0  0  0  0  0  0
    0.4513    0.0401    0.2324 N   0  0  0  0  0  0  0  0  0  0  0  0
    1.7261    0.3888   -0.1284 C   0  0  0  0  0  0  0  0  0  0  0  0
    1.9679    1.3071   -1.0394 N   0  0  0  0  0  0  0  0  0  0  0  0
    3.3223    1.5004   -1.2368 N   0  0  0  0  0  0  0  0  0  0  0  0
    4.0356    0.7129   -0.4635 C   0  0  0  0  0  0  0  0  0  0  0  0
    5.5948    0.7261   -0.4729 C   0  0  0  0  0  0  0  0  0  0  0  0
    6.3210    0.8477   -1.7886 C   0  0  0  0  0  0  0  0  0  0  0  0
    6.3401   -0.4543   -1.0426 C   0  0  0  0  0  0  0  0  0  0  0  0
    3.1226   -0.2988    0.5657 S   0  0  0  0  0  0  0  0  0  0  0  0
   -1.6026   -3.1494    1.0004 H   0  0  0  0  0  0  0  0  0  0  0  0
   -2.9945   -2.4573    1.8201 H   0  0  0  0  0  0  0  0  0  0  0  0
   -1.4652   -2.6560    2.6983 H   0  0  0  0  0  0  0  0  0  0  0  0
   -1.6914   -0.2474    2.0445 H   0  0  0  0  0  0  0  0  0  0  0  0
   -3.8526   -0.1399    2.0947 H   0  0  0  0  0  0  0  0  0  0  0  0
   -5.9611    1.0396    1.7786 H   0  0  0  0  0  0  0  0  0  0  0  0
   -5.1778    1.3782   -2.4437 H   0  0  0  0  0  0  0  0  0  0  0  0
   -3.0373    0.1923   -2.1337 H   0  0  0  0  0  0  0  0  0  0  0  0
   -0.2750    0.5181   -0.2885 H   0  0  0  0  0  0  0  0  0  0  0  0
    6.0349    1.2342    0.3785 H   0  0  0  0  0  0  0  0  0  0  0  0
    5.7346    0.9058   -2.6994 H   0  0  0  0  0  0  0  0  0  0  0  0
    7.2291    1.4386   -1.8108 H   0  0  0  0  0  0  0  0  0  0  0  0
    5.7741   -1.2807   -1.4579 H   0  0  0  0  0  0  0  0  0  0  0  0
    7.2636   -0.7502   -0.5585 H   0  0  0  0  0  0  0  0  0  0  0  0
  1  2  1  0
  2  3  1  0
  3  4  1  0
  4  5  2  0
  5  6  1  0
  6  7  2  0
  7  8  1  0
  7  9  1  0
  9 10  2  0
  2 11  1  0
 11 12  2  0
 11 13  1  0
 13 14  1  0
 14 15  2  0
 15 16  1  0
 16 17  2  0
 17 18  1  0
 18 19  1  0
 19 20  1  0
 17 21  1  0
 10  4  1  0
 21 14  1  0
 20 18  1  0
  1 22  1  0
  1 23  1  0
  1 24  1  0
  2 25  1  0
  5 26  1  0
  6 27  1  0
  9 28  1  0
 10 29  1  0
 13 30  1  0
 18 31  1  0
 19 32  1  0
 19 33  1  0
 20 34  1  0
 20 35  1  0
M  END
$$$$
