
     RDKit          3D

 35 37  0  0  0  0  0  0  0  0999 V2000
   -0.6603    0.6748   -0.5829 O   0  0  0  0  0  0  0  0  0  0  0  0
   -0.4120   -0.0485   -1.5363 C   0  0  0  0  0  0  0  0  0  0  0  0
   -1.3431   -1.0734   -2.0992 C   0  0  0  0  0  0  0  0  0  0  0  0
   -2.5248   -1.4688   -1.6044 C   0  0  0  0  0  0  0  0  0  0  0  0
   -3.1413   -0.9841   -0.3683 C   0  0  0  0  0  0  0  0  0  0  0  0
   -2.6409   -1.3720    0.8822 C   0  0  0  0  0  0  0  0  0  0  0  0
   -3.2482   -0.9126    2.0525 C   0  0  0  0  0  0  0  0  0  0  0  0
   -4.3532   -0.0738    1.9678 C   0  0  0  0  0  0  0  0  0  0  0  0
   -4.9361    0.3646    3.0912 F   0  0  0  0  0  0  0  0  0  0  0  0
   -4.8652    0.3140    0.7350 C   0  0  0  0  0  0  0  0  0  0  0  0
   -4.2600   -0.1434   -0.4371 C   0  0  0  0  0  0  0  0  0  0  0  0
   -0.6938   -1.7276   -3.5670 S   0  0  0  0  0  0  0  0  0  0  0  0
    0.7742   -0.7594   -3.4780 C   0  0  0  0  0  0  0  0  0  0  0  0
    1.9427   -0.7730   -4.6690 S   0  0  0  0  0  0  0  0  0  0  0  0
    0.7471   -0.0304   -2.3044 N   0  0  0  0  0  0  0  0  0  0  0  0
    1.7707    0.9099   -2.0245 N   0  0  0  0  0  0  0  0  0  0  0  0
    2.3634    0.8169   -0.7488 C   0  0  0  0  0  0  0  0  0  0  0  0
    2.4721    2.0136   -0.1198 N   0  0  0  0  0  0  0  0  0  0  0  0
    3.0268    2.0501    1.1146 C   0  0  0  0  0  0  0  0  0  0  0  0
    3.5107    0.9359    1.7764 C   0  0  0  0  0  0  0  0  0  0  0  0
    4.1325    1.0696    3.1310 C   0  0  0  0  0  0  0  0  0  0  0  0
    5.4655    1.3313    3.0623 F   0  0  0  0  0  0  0  0  0  0  0  0
    4.0098   -0.0578    3.8844 F   0  0  0  0  0  0  0  0  0  0  0  0
    3.5897    2.0739    3.8717 F   0  0  0  0  0  0  0  0  0  0  0  0
    3.4324   -0.2883    1.1080 C   0  0  0  0  0  0  0  0  0  0  0  0
    2.8585   -0.3571   -0.1651 C   0  0  0  0  0  0  0  0  0  0  0  0
    2.8223   -1.9042   -0.9285 Cl  0  0  0  0  0  0  0  0  0  0  0  0
   -3.1183   -2.2137   -2.1315 H   0  0  0  0  0  0  0  0  0  0  0  0
   -1.7757   -2.0260    0.9557 H   0  0  0  0  0  0  0  0  0  0  0  0
   -2.8654   -1.2001    3.0262 H   0  0  0  0  0  0  0  0  0  0  0  0
   -5.7284    0.9704    0.6947 H   0  0  0  0  0  0  0  0  0  0  0  0
   -4.6631    0.1661   -1.3985 H   0  0  0  0  0  0  0  0  0  0  0  0
    1.4221    1.8706   -2.0708 H   0  0  0  0  0  0  0  0  0  0  0  0
    3.0675    3.0415    1.5632 H   0  0  0  0  0  0  0  0  0  0  0  0
    3.8218   -1.1893    1.5795 H   0  0  0  0  0  0  0  0  0  0  0  0
  1  2  2  0
  2  3  1  0
  3  4  2  3
  4  5  1  0
  5  6  2  0
  6  7  1  0
  7  8  2  0
  8  9  1  0
  8 10  1  0
 10 11  2  0
  3 12  1  0
 12 13  1  0
 13 14  2  0
 13 15  1  0
 15 16  1  0
 16 17  1  0
 17 18  2  0
 18 19  1  0
 19 20  2  0
 20 21  1  0
 21 22  1  0
 21 23  1  0
 21 24  1  0
 20 25  1  0
 25 26  2  0
 26 27  1  0
 15  2  1  0
 26 17  1  0
 11  5  1  0
  4 28  1  0
  6 29  1  0
  7 30  1  0
 10 31  1  0
 11 32  1  0
 16 33  1  0
 19 34  1  0
 25 35  1  0
M  END
$$$$
