
     RDKit          3D

 63 66  0  0  0  0  0  0  0  0999 V2000
    1.1656    3.0825   -1.9649 C   0  0  0  0  0  0  0  0  0  0  0  0
    1.8673    1.9519   -1.2691 C   0  0  0  0  0  0  0  0  0  0  0  0
    1.1483    0.9555   -0.8306 N   0  0  0  0  0  0  0  0  0  0  0  0
    1.7433   -0.1406   -0.1920 N   0  0  0  0  0  0  0  0  0  0  0  0
    0.8192   -1.1590    0.3033 C   0  0  0  0  0  0  0  0  0  0  0  0
    0.1852   -0.7266    1.6178 C   0  0  0  0  0  0  0  0  0  0  0  0
   -0.7583   -1.7814    2.1437 C   0  0  0  0  0  0  0  0  0  0  0  0
   -0.7527   -2.9443    1.7575 O   0  0  0  0  0  0  0  0  0  0  0  0
   -1.5915   -1.3063    3.1374 N   0  0  0  0  0  0  0  0  0  0  0  0
   -2.6556   -2.1183    3.6844 C   0  0  0  0  0  0  0  0  0  0  0  0
   -3.8698   -2.0942    2.7922 C   0  0  0  0  0  0  0  0  0  0  0  0
   -4.1299   -3.1713    1.9341 C   0  0  0  0  0  0  0  0  0  0  0  0
   -5.2274   -3.1516    1.0673 C   0  0  0  0  0  0  0  0  0  0  0  0
   -6.0733   -2.0436    1.0295 C   0  0  0  0  0  0  0  0  0  0  0  0
   -7.1616   -1.8763    0.2149 O   0  0  0  0  0  0  0  0  0  0  0  0
   -7.4723   -2.8985   -0.7413 C   0  0  0  0  0  0  0  0  0  0  0  0
   -8.4018   -3.9254   -0.1061 C   0  0  0  0  0  0  0  0  0  0  0  0
   -8.1662   -2.2180   -1.9203 C   0  0  0  0  0  0  0  0  0  0  0  0
   -5.8191   -0.9684    1.8875 C   0  0  0  0  0  0  0  0  0  0  0  0
   -4.7293   -0.9901    2.7638 C   0  0  0  0  0  0  0  0  0  0  0  0
    3.1237   -0.2757    0.0729 C   0  0  0  0  0  0  0  0  0  0  0  0
    3.6134   -1.2224    0.6876 O   0  0  0  0  0  0  0  0  0  0  0  0
    3.9024    0.8461   -0.4364 C   0  0  0  0  0  0  0  0  0  0  0  0
    5.2225    1.0005   -0.3308 N   0  0  0  0  0  0  0  0  0  0  0  0
    5.5031    2.1664   -0.9749 N   0  0  0  0  0  0  0  0  0  0  0  0
    6.8778    2.5089   -1.1924 C   0  0  0  0  0  0  0  0  0  0  0  0
    7.8719    1.7539   -0.5422 C   0  0  0  0  0  0  0  0  0  0  0  0
    9.2269    2.0453   -0.7227 C   0  0  0  0  0  0  0  0  0  0  0  0
    9.6086    3.0910   -1.5535 C   0  0  0  0  0  0  0  0  0  0  0  0
    8.6389    3.8315   -2.2246 C   0  0  0  0  0  0  0  0  0  0  0  0
    7.2782    3.5362   -2.0550 C   0  0  0  0  0  0  0  0  0  0  0  0
    4.3185    2.8430   -1.3080 C   0  0  0  0  0  0  0  0  0  0  0  0
    4.2445    4.2597   -1.7516 C   0  0  0  0  0  0  0  0  0  0  0  0
    3.2968    1.9365   -1.0689 C   0  0  0  0  0  0  0  0  0  0  0  0
    1.6774    3.3258   -2.9021 H   0  0  0  0  0  0  0  0  0  0  0  0
    0.1343    2.8015   -2.1975 H   0  0  0  0  0  0  0  0  0  0  0  0
    1.1494    3.9595   -1.3102 H   0  0  0  0  0  0  0  0  0  0  0  0
    0.0488   -1.3148   -0.4611 H   0  0  0  0  0  0  0  0  0  0  0  0
    1.3498   -2.1106    0.4203 H   0  0  0  0  0  0  0  0  0  0  0  0
   -0.3657    0.2119    1.4774 H   0  0  0  0  0  0  0  0  0  0  0  0
    0.9563   -0.5462    2.3760 H   0  0  0  0  0  0  0  0  0  0  0  0
   -1.6264   -0.3103    3.3131 H   0  0  0  0  0  0  0  0  0  0  0  0
   -2.2941   -3.1446    3.8274 H   0  0  0  0  0  0  0  0  0  0  0  0
   -2.9074   -1.7193    4.6730 H   0  0  0  0  0  0  0  0  0  0  0  0
   -3.4618   -4.0313    1.9238 H   0  0  0  0  0  0  0  0  0  0  0  0
   -5.3751   -4.0252    0.4395 H   0  0  0  0  0  0  0  0  0  0  0  0
   -6.5705   -3.3744   -1.1401 H   0  0  0  0  0  0  0  0  0  0  0  0
   -8.6837   -4.7084   -0.8186 H   0  0  0  0  0  0  0  0  0  0  0  0
   -7.9294   -4.4046    0.7591 H   0  0  0  0  0  0  0  0  0  0  0  0
   -9.3149   -3.4449    0.2670 H   0  0  0  0  0  0  0  0  0  0  0  0
   -9.1020   -1.7296   -1.6142 H   0  0  0  0  0  0  0  0  0  0  0  0
   -7.5180   -1.4391   -2.3344 H   0  0  0  0  0  0  0  0  0  0  0  0
   -8.3916   -2.9387   -2.7185 H   0  0  0  0  0  0  0  0  0  0  0  0
   -6.4735   -0.1003    1.8668 H   0  0  0  0  0  0  0  0  0  0  0  0
   -4.5540   -0.1375    3.4149 H   0  0  0  0  0  0  0  0  0  0  0  0
    7.6087    0.9273    0.1200 H   0  0  0  0  0  0  0  0  0  0  0  0
    9.9806    1.4538   -0.2071 H   0  0  0  0  0  0  0  0  0  0  0  0
   10.6624    3.3190   -1.6857 H   0  0  0  0  0  0  0  0  0  0  0  0
    8.9431    4.6427   -2.8784 H   0  0  0  0  0  0  0  0  0  0  0  0
    6.5748    4.1116   -2.6422 H   0  0  0  0  0  0  0  0  0  0  0  0
    4.3292    4.3343   -2.8392 H   0  0  0  0  0  0  0  0  0  0  0  0
    5.0101    4.8771   -1.2702 H   0  0  0  0  0  0  0  0  0  0  0  0
    3.2956    4.7184   -1.4564 H   0  0  0  0  0  0  0  0  0  0  0  0
  1  2  1  0
  2  3  2  0
  3  4  1  0
  4  5  1  0
  5  6  1  0
  6  7  1  0
  7  8  2  0
  7  9  1  0
  9 10  1  0
 10 11  1  0
 11 12  2  0
 12 13  1  0
 13 14  2  0
 14 15  1  0
 15 16  1  0
 16 17  1  0
 16 18  1  0
 14 19  1  0
 19 20  2  0
  4 21  1  0
 21 22  2  0
 21 23  1  0
 23 24  2  0
 24 25  1  0
 25 26  1  0
 26 27  2  0
 27 28  1  0
 28 29  2  0
 29 30  1  0
 30 31  2  0
 25 32  1  0
 32 33  1  0
 32 34  2  0
 34  2  1  0
 20 11  1  0
 34 23  1  0
 31 26  1  0
  1 35  1  0
  1 36  1  0
  1 37  1  0
  5 38  1  0
  5 39  1  0
  6 40  1  0
  6 41  1  0
  9 42  1  0
 10 43  1  0
 10 44  1  0
 12 45  1  0
 13 46  1  0
 16 47  1  0
 17 48  1  0
 17 49  1  0
 17 50  1  0
 18 51  1  0
 18 52  1  0
 18 53  1  0
 19 54  1  0
 20 55  1  0
 27 56  1  0
 28 57  1  0
 29 58  1  0
 30 59  1  0
 31 60  1  0
 33 61  1  0
 33 62  1  0
 33 63  1  0
M  END
$$$$
