
     RDKit          3D

 63 66  0  0  0  0  0  0  0  0999 V2000
    5.6467   -0.2429    2.3335 C   0  0  0  0  0  0  0  0  0  0  0  0
    4.3644    0.3028    1.7730 C   0  0  0  0  0  0  0  0  0  0  0  0
    3.2393   -0.1162    2.2809 N   0  0  0  0  0  0  0  0  0  0  0  0
    2.0122    0.3571    1.8048 N   0  0  0  0  0  0  0  0  0  0  0  0
    0.8270   -0.2124    2.4405 C   0  0  0  0  0  0  0  0  0  0  0  0
    0.3300   -1.4390    1.6880 C   0  0  0  0  0  0  0  0  0  0  0  0
   -0.8502   -2.0680    2.3906 C   0  0  0  0  0  0  0  0  0  0  0  0
   -1.3059   -1.6570    3.4520 O   0  0  0  0  0  0  0  0  0  0  0  0
   -1.3470   -3.1647    1.7201 N   0  0  0  0  0  0  0  0  0  0  0  0
   -2.5397   -3.8515    2.1626 C   0  0  0  0  0  0  0  0  0  0  0  0
   -3.7354   -3.4187    1.3554 C   0  0  0  0  0  0  0  0  0  0  0  0
   -4.3887   -2.2147    1.6500 C   0  0  0  0  0  0  0  0  0  0  0  0
   -5.4862   -1.7900    0.8924 C   0  0  0  0  0  0  0  0  0  0  0  0
   -5.9458   -2.5634   -0.1714 C   0  0  0  0  0  0  0  0  0  0  0  0
   -6.9960   -2.2714   -0.9952 O   0  0  0  0  0  0  0  0  0  0  0  0
   -7.8427   -1.1615   -0.6788 C   0  0  0  0  0  0  0  0  0  0  0  0
   -9.2240   -1.4913   -1.2408 C   0  0  0  0  0  0  0  0  0  0  0  0
   -7.3039    0.1073   -1.3328 C   0  0  0  0  0  0  0  0  0  0  0  0
   -5.2876   -3.7576   -0.4761 C   0  0  0  0  0  0  0  0  0  0  0  0
   -4.1910   -4.1848    0.2771 C   0  0  0  0  0  0  0  0  0  0  0  0
    1.8499    1.2526    0.7268 C   0  0  0  0  0  0  0  0  0  0  0  0
    0.7542    1.5939    0.2871 O   0  0  0  0  0  0  0  0  0  0  0  0
    3.1216    1.7163    0.1873 C   0  0  0  0  0  0  0  0  0  0  0  0
    3.2896    2.6037   -0.7948 N   0  0  0  0  0  0  0  0  0  0  0  0
    4.6343    2.6603   -0.9976 N   0  0  0  0  0  0  0  0  0  0  0  0
    5.1227    3.3804   -2.1326 C   0  0  0  0  0  0  0  0  0  0  0  0
    4.2612    4.2809   -2.7845 C   0  0  0  0  0  0  0  0  0  0  0  0
    4.6948    5.0033   -3.8988 C   0  0  0  0  0  0  0  0  0  0  0  0
    5.9867    4.8253   -4.3843 C   0  0  0  0  0  0  0  0  0  0  0  0
    6.8403    3.9157   -3.7641 C   0  0  0  0  0  0  0  0  0  0  0  0
    6.4108    3.1903   -2.6470 C   0  0  0  0  0  0  0  0  0  0  0  0
    5.3198    1.9539   -0.0006 C   0  0  0  0  0  0  0  0  0  0  0  0
    6.7842    2.0332    0.2382 C   0  0  0  0  0  0  0  0  0  0  0  0
    4.3425    1.2644    0.6981 C   0  0  0  0  0  0  0  0  0  0  0  0
    6.3137   -0.5513    1.5246 H   0  0  0  0  0  0  0  0  0  0  0  0
    6.1334    0.5237    2.9418 H   0  0  0  0  0  0  0  0  0  0  0  0
    5.4449   -1.1115    2.9674 H   0  0  0  0  0  0  0  0  0  0  0  0
    1.0805   -0.4619    3.4782 H   0  0  0  0  0  0  0  0  0  0  0  0
    0.0420    0.5526    2.4770 H   0  0  0  0  0  0  0  0  0  0  0  0
    1.1284   -2.1871    1.6139 H   0  0  0  0  0  0  0  0  0  0  0  0
    0.0298   -1.1657    0.6697 H   0  0  0  0  0  0  0  0  0  0  0  0
   -1.0526   -3.3214    0.7655 H   0  0  0  0  0  0  0  0  0  0  0  0
   -2.3601   -4.9248    2.0339 H   0  0  0  0  0  0  0  0  0  0  0  0
   -2.7188   -3.6783    3.2297 H   0  0  0  0  0  0  0  0  0  0  0  0
   -4.0373   -1.5930    2.4729 H   0  0  0  0  0  0  0  0  0  0  0  0
   -5.9442   -0.8438    1.1574 H   0  0  0  0  0  0  0  0  0  0  0  0
   -7.9573   -1.0315    0.4031 H   0  0  0  0  0  0  0  0  0  0  0  0
   -9.9358   -0.6829   -1.0483 H   0  0  0  0  0  0  0  0  0  0  0  0
   -9.1790   -1.6716   -2.3208 H   0  0  0  0  0  0  0  0  0  0  0  0
   -9.6094   -2.4105   -0.7850 H   0  0  0  0  0  0  0  0  0  0  0  0
   -7.9670    0.9582   -1.1484 H   0  0  0  0  0  0  0  0  0  0  0  0
   -7.1966   -0.0254   -2.4151 H   0  0  0  0  0  0  0  0  0  0  0  0
   -6.3094    0.3590   -0.9515 H   0  0  0  0  0  0  0  0  0  0  0  0
   -5.6346   -4.3621   -1.3106 H   0  0  0  0  0  0  0  0  0  0  0  0
   -3.7007   -5.1185    0.0133 H   0  0  0  0  0  0  0  0  0  0  0  0
    3.2447    4.4413   -2.4271 H   0  0  0  0  0  0  0  0  0  0  0  0
    4.0190    5.7020   -4.3858 H   0  0  0  0  0  0  0  0  0  0  0  0
    6.3233    5.3847   -5.2533 H   0  0  0  0  0  0  0  0  0  0  0  0
    7.8412    3.7597   -4.1595 H   0  0  0  0  0  0  0  0  0  0  0  0
    7.0968    2.4562   -2.2431 H   0  0  0  0  0  0  0  0  0  0  0  0
    7.3123    1.2584   -0.3248 H   0  0  0  0  0  0  0  0  0  0  0  0
    7.1880    3.0163   -0.0204 H   0  0  0  0  0  0  0  0  0  0  0  0
    7.0167    1.8930    1.2973 H   0  0  0  0  0  0  0  0  0  0  0  0
  1  2  1  0
  2  3  2  0
  3  4  1  0
  4  5  1  0
  5  6  1  0
  6  7  1  0
  7  8  2  0
  7  9  1  0
  9 10  1  0
 10 11  1  0
 11 12  2  0
 12 13  1  0
 13 14  2  0
 14 15  1  0
 15 16  1  0
 16 17  1  0
 16 18  1  0
 14 19  1  0
 19 20  2  0
  4 21  1  0
 21 22  2  0
 21 23  1  0
 23 24  2  0
 24 25  1  0
 25 26  1  0
 26 27  2  0
 27 28  1  0
 28 29  2  0
 29 30  1  0
 30 31  2  0
 25 32  1  0
 32 33  1  0
 32 34  2  0
 34  2  1  0
 20 11  1  0
 34 23  1  0
 31 26  1  0
  1 35  1  0
  1 36  1  0
  1 37  1  0
  5 38  1  0
  5 39  1  0
  6 40  1  0
  6 41  1  0
  9 42  1  0
 10 43  1  0
 10 44  1  0
 12 45  1  0
 13 46  1  0
 16 47  1  0
 17 48  1  0
 17 49  1  0
 17 50  1  0
 18 51  1  0
 18 52  1  0
 18 53  1  0
 19 54  1  0
 20 55  1  0
 27 56  1  0
 28 57  1  0
 29 58  1  0
 30 59  1  0
 31 60  1  0
 33 61  1  0
 33 62  1  0
 33 63  1  0
M  END
$$$$
