
     RDKit          3D

 45 46  0  0  0  0  0  0  0  0999 V2000
    7.6208   -0.6221   -0.0730 C   0  0  0  0  0  0  0  0  0  0  0  0
    6.9379   -1.5129    0.7998 O   0  0  0  0  0  0  0  0  0  0  0  0
    5.6181   -1.2573    1.0492 C   0  0  0  0  0  0  0  0  0  0  0  0
    5.0043   -2.1695    1.9099 C   0  0  0  0  0  0  0  0  0  0  0  0
    3.6565   -2.0317    2.2482 C   0  0  0  0  0  0  0  0  0  0  0  0
    2.8983   -0.9802    1.7179 C   0  0  0  0  0  0  0  0  0  0  0  0
    1.4737   -0.9041    2.1309 C   0  0  0  0  0  0  0  0  0  0  0  0
    1.1527   -1.2210    3.2731 O   0  0  0  0  0  0  0  0  0  0  0  0
    0.4638   -0.5151    1.1103 C   0  0  0  0  0  0  0  0  0  0  0  0
   -0.8201   -0.3645    1.4699 C   0  0  0  0  0  0  0  0  0  0  0  0
   -1.8874   -0.0021    0.5279 C   0  0  0  0  0  0  0  0  0  0  0  0
   -3.1234   -0.6580    0.6275 C   0  0  0  0  0  0  0  0  0  0  0  0
   -4.1745   -0.3321   -0.2329 C   0  0  0  0  0  0  0  0  0  0  0  0
   -5.4109   -0.9251   -0.2198 O   0  0  0  0  0  0  0  0  0  0  0  0
   -5.5842   -2.0571    0.6213 C   0  0  0  0  0  0  0  0  0  0  0  0
   -3.9822    0.6871   -1.1809 C   0  0  0  0  0  0  0  0  0  0  0  0
   -4.9980    0.9906   -2.0620 O   0  0  0  0  0  0  0  0  0  0  0  0
   -5.8243    2.0142   -1.5104 C   0  0  0  0  0  0  0  0  0  0  0  0
   -2.7508    1.3540   -1.2981 C   0  0  0  0  0  0  0  0  0  0  0  0
   -2.6744    2.3225   -2.2661 O   0  0  0  0  0  0  0  0  0  0  0  0
   -1.4073    2.9226   -2.4932 C   0  0  0  0  0  0  0  0  0  0  0  0
   -1.7128    1.0098   -0.4287 C   0  0  0  0  0  0  0  0  0  0  0  0
    3.5218   -0.0525    0.8742 C   0  0  0  0  0  0  0  0  0  0  0  0
    2.8281    1.0241    0.3902 O   0  0  0  0  0  0  0  0  0  0  0  0
    4.8744   -0.1933    0.5341 C   0  0  0  0  0  0  0  0  0  0  0  0
    8.6534   -0.9717   -0.1670 H   0  0  0  0  0  0  0  0  0  0  0  0
    7.1738   -0.6293   -1.0726 H   0  0  0  0  0  0  0  0  0  0  0  0
    7.6481    0.3912    0.3409 H   0  0  0  0  0  0  0  0  0  0  0  0
    5.5805   -2.9942    2.3241 H   0  0  0  0  0  0  0  0  0  0  0  0
    3.1988   -2.7495    2.9268 H   0  0  0  0  0  0  0  0  0  0  0  0
    0.7942   -0.3882    0.0873 H   0  0  0  0  0  0  0  0  0  0  0  0
   -1.1272   -0.5336    2.5008 H   0  0  0  0  0  0  0  0  0  0  0  0
   -3.2389   -1.4283    1.3837 H   0  0  0  0  0  0  0  0  0  0  0  0
   -5.5107   -1.7763    1.6770 H   0  0  0  0  0  0  0  0  0  0  0  0
   -6.5919   -2.4484    0.4516 H   0  0  0  0  0  0  0  0  0  0  0  0
   -4.8727   -2.8513    0.3717 H   0  0  0  0  0  0  0  0  0  0  0  0
   -5.2582    2.9362   -1.3385 H   0  0  0  0  0  0  0  0  0  0  0  0
   -6.3032    1.6855   -0.5817 H   0  0  0  0  0  0  0  0  0  0  0  0
   -6.6131    2.2341   -2.2361 H   0  0  0  0  0  0  0  0  0  0  0  0
   -1.5099    3.6111   -3.3376 H   0  0  0  0  0  0  0  0  0  0  0  0
   -1.0890    3.5081   -1.6246 H   0  0  0  0  0  0  0  0  0  0  0  0
   -0.6551    2.1742   -2.7641 H   0  0  0  0  0  0  0  0  0  0  0  0
   -0.7603    1.5278   -0.4681 H   0  0  0  0  0  0  0  0  0  0  0  0
    3.4479    1.6444   -0.0300 H   0  0  0  0  0  0  0  0  0  0  0  0
    5.3335    0.5321   -0.1272 H   0  0  0  0  0  0  0  0  0  0  0  0
  1  2  1  0
  2  3  1  0
  3  4  2  0
  4  5  1  0
  5  6  2  0
  6  7  1  0
  7  8  2  0
  7  9  1  0
  9 10  2  0
 10 11  1  0
 11 12  2  0
 12 13  1  0
 13 14  1  0
 14 15  1  0
 13 16  2  0
 16 17  1  0
 17 18  1  0
 16 19  1  0
 19 20  1  0
 20 21  1  0
 19 22  2  0
  6 23  1  0
 23 24  1  0
 23 25  2  0
 25  3  1  0
 22 11  1  0
  1 26  1  0
  1 27  1  0
  1 28  1  0
  4 29  1  0
  5 30  1  0
  9 31  1  0
 10 32  1  0
 12 33  1  0
 15 34  1  0
 15 35  1  0
 15 36  1  0
 18 37  1  0
 18 38  1  0
 18 39  1  0
 21 40  1  0
 21 41  1  0
 21 42  1  0
 22 43  1  0
 24 44  1  0
 25 45  1  0
M  END
$$$$
