
     RDKit          3D

 40 42  0  0  0  0  0  0  0  0999 V2000
   -4.8012   -1.8994    1.8561 C   0  0  0  0  0  0  0  0  0  0  0  0
   -4.4746   -0.6342    1.0335 C   0  0  0  0  0  0  0  0  0  0  0  0
   -4.4765    0.5693    1.9939 C   0  0  0  0  0  0  0  0  0  0  0  0
   -5.5796   -0.4566   -0.0239 C   0  0  0  0  0  0  0  0  0  0  0  0
   -3.1156   -0.7890    0.3670 C   0  0  0  0  0  0  0  0  0  0  0  0
   -2.3464   -1.8570    0.4662 N   0  0  0  0  0  0  0  0  0  0  0  0
   -1.1686   -1.7273   -0.2391 N   0  0  0  0  0  0  0  0  0  0  0  0
   -1.0802   -0.5678   -0.8491 C   0  0  0  0  0  0  0  0  0  0  0  0
    0.0057   -0.2251   -1.6107 N   0  0  0  0  0  0  0  0  0  0  0  0
    0.2321    0.9701   -2.2537 C   0  0  0  0  0  0  0  0  0  0  0  0
   -0.5070    1.9492   -2.2839 O   0  0  0  0  0  0  0  0  0  0  0  0
    1.5590    0.9764   -3.0215 C   0  0  0  0  0  0  0  0  0  0  0  0
    2.5366    0.0749   -2.5175 O   0  0  0  0  0  0  0  0  0  0  0  0
    3.2732    0.4640   -1.4302 C   0  0  0  0  0  0  0  0  0  0  0  0
    3.0737    1.6340   -0.6727 C   0  0  0  0  0  0  0  0  0  0  0  0
    3.8865    1.9142    0.4338 C   0  0  0  0  0  0  0  0  0  0  0  0
    4.8766    1.0120    0.7530 C   0  0  0  0  0  0  0  0  0  0  0  0
    5.0717   -0.1316    0.0184 C   0  0  0  0  0  0  0  0  0  0  0  0
    4.2876   -0.4331   -1.0745 C   0  0  0  0  0  0  0  0  0  0  0  0
    6.0951   -0.8878    0.4975 O   0  0  0  0  0  0  0  0  0  0  0  0
    6.5195   -0.0889    1.6218 C   0  0  0  0  0  0  0  0  0  0  0  0
    5.7515    1.1216    1.7870 O   0  0  0  0  0  0  0  0  0  0  0  0
   -2.4234    0.4487   -0.6175 S   0  0  0  0  0  0  0  0  0  0  0  0
   -4.0518   -2.0727    2.6377 H   0  0  0  0  0  0  0  0  0  0  0  0
   -4.8294   -2.7932    1.2214 H   0  0  0  0  0  0  0  0  0  0  0  0
   -5.7772   -1.8128    2.3477 H   0  0  0  0  0  0  0  0  0  0  0  0
   -4.3303    1.5168    1.4633 H   0  0  0  0  0  0  0  0  0  0  0  0
   -5.4290    0.6439    2.5314 H   0  0  0  0  0  0  0  0  0  0  0  0
   -3.6778    0.4833    2.7401 H   0  0  0  0  0  0  0  0  0  0  0  0
   -5.5837   -1.2888   -0.7377 H   0  0  0  0  0  0  0  0  0  0  0  0
   -5.4520    0.4682   -0.5976 H   0  0  0  0  0  0  0  0  0  0  0  0
   -6.5701   -0.4130    0.4438 H   0  0  0  0  0  0  0  0  0  0  0  0
    0.7357   -0.9284   -1.6341 H   0  0  0  0  0  0  0  0  0  0  0  0
    1.9521    1.9968   -3.0972 H   0  0  0  0  0  0  0  0  0  0  0  0
    1.3264    0.6541   -4.0432 H   0  0  0  0  0  0  0  0  0  0  0  0
    2.2924    2.3503   -0.9090 H   0  0  0  0  0  0  0  0  0  0  0  0
    3.7405    2.8122    1.0244 H   0  0  0  0  0  0  0  0  0  0  0  0
    4.4582   -1.3418   -1.6413 H   0  0  0  0  0  0  0  0  0  0  0  0
    6.4275   -0.6899    2.5337 H   0  0  0  0  0  0  0  0  0  0  0  0
    7.5729    0.1805    1.4826 H   0  0  0  0  0  0  0  0  0  0  0  0
  1  2  1  0
  2  3  1  0
  2  4  1  0
  2  5  1  0
  5  6  2  0
  6  7  1  0
  7  8  2  0
  8  9  1  0
  9 10  1  0
 10 11  2  0
 10 12  1  0
 12 13  1  0
 13 14  1  0
 14 15  2  0
 15 16  1  0
 16 17  2  0
 17 18  1  0
 18 19  2  0
 18 20  1  0
 20 21  1  0
 21 22  1  0
  8 23  1  0
 23  5  1  0
 19 14  1  0
 22 17  1  0
  1 24  1  0
  1 25  1  0
  1 26  1  0
  3 27  1  0
  3 28  1  0
  3 29  1  0
  4 30  1  0
  4 31  1  0
  4 32  1  0
  9 33  1  0
 12 34  1  0
 12 35  1  0
 15 36  1  0
 16 37  1  0
 19 38  1  0
 21 39  1  0
 21 40  1  0
M  END
$$$$
