
     RDKit          3D

 48 51  0  0  0  0  0  0  0  0999 V2000
   -0.4549   -0.2273    3.0485 C   0  0  0  0  0  0  0  0  0  0  0  0
   -0.6001    0.9576    2.1087 C   0  0  0  0  0  0  0  0  0  0  0  0
   -0.6558    0.5628    0.7187 N   0  0  0  0  0  0  0  0  0  0  0  0
   -1.7843    0.2952   -0.0136 C   0  0  0  0  0  0  0  0  0  0  0  0
   -3.3866    0.2915    0.6341 S   0  0  0  0  0  0  0  0  0  0  0  0
   -4.3417   -0.1213   -0.8584 C   0  0  0  0  0  0  0  0  0  0  0  0
   -5.8178   -0.2109   -0.5515 C   0  0  0  0  0  0  0  0  0  0  0  0
   -6.3875   -1.4290   -0.1449 C   0  0  0  0  0  0  0  0  0  0  0  0
   -7.7484   -1.5070    0.1546 C   0  0  0  0  0  0  0  0  0  0  0  0
   -8.5388   -0.3687    0.0532 C   0  0  0  0  0  0  0  0  0  0  0  0
   -9.8445   -0.4443    0.3429 F   0  0  0  0  0  0  0  0  0  0  0  0
   -7.9949    0.8475   -0.3413 C   0  0  0  0  0  0  0  0  0  0  0  0
   -6.6343    0.9287   -0.6415 C   0  0  0  0  0  0  0  0  0  0  0  0
   -1.4589    0.0355   -1.2553 N   0  0  0  0  0  0  0  0  0  0  0  0
   -0.0957    0.1197   -1.3502 N   0  0  0  0  0  0  0  0  0  0  0  0
    0.3938    0.4240   -0.1638 C   0  0  0  0  0  0  0  0  0  0  0  0
    1.9301    0.5281    0.0847 C   0  0  0  0  0  0  0  0  0  0  0  0
    2.6431    0.7233    1.2704 C   0  0  0  0  0  0  0  0  0  0  0  0
    3.9585    0.7301    1.0721 N   0  0  0  0  0  0  0  0  0  0  0  0
    4.1142    0.3800   -0.2381 N   0  0  0  0  0  0  0  0  0  0  0  0
    5.4066   -0.0443   -0.6750 C   0  0  0  0  0  0  0  0  0  0  0  0
    5.5856   -0.8507   -1.8059 C   0  0  0  0  0  0  0  0  0  0  0  0
    6.8691   -1.2609   -2.1826 C   0  0  0  0  0  0  0  0  0  0  0  0
    7.9788   -0.8853   -1.4291 C   0  0  0  0  0  0  0  0  0  0  0  0
    7.8097   -0.1064   -0.2881 C   0  0  0  0  0  0  0  0  0  0  0  0
    6.5309    0.3060    0.0931 C   0  0  0  0  0  0  0  0  0  0  0  0
    2.9032    0.4605   -0.9004 C   0  0  0  0  0  0  0  0  0  0  0  0
    2.7819    0.5283   -2.3647 C   0  0  0  0  0  0  0  0  0  0  0  0
    1.7878    1.3599   -2.7649 F   0  0  0  0  0  0  0  0  0  0  0  0
    3.9020    1.0162   -2.9595 F   0  0  0  0  0  0  0  0  0  0  0  0
    2.5438   -0.6872   -2.9141 F   0  0  0  0  0  0  0  0  0  0  0  0
   -0.3877    0.1176    4.0848 H   0  0  0  0  0  0  0  0  0  0  0  0
   -1.3138   -0.9018    2.9706 H   0  0  0  0  0  0  0  0  0  0  0  0
    0.4434   -0.8108    2.8238 H   0  0  0  0  0  0  0  0  0  0  0  0
   -1.5058    1.5230    2.3511 H   0  0  0  0  0  0  0  0  0  0  0  0
    0.2239    1.6651    2.2314 H   0  0  0  0  0  0  0  0  0  0  0  0
   -4.1720    0.6408   -1.6281 H   0  0  0  0  0  0  0  0  0  0  0  0
   -3.9951   -1.0769   -1.2695 H   0  0  0  0  0  0  0  0  0  0  0  0
   -5.7720   -2.3223   -0.0582 H   0  0  0  0  0  0  0  0  0  0  0  0
   -8.1948   -2.4449    0.4681 H   0  0  0  0  0  0  0  0  0  0  0  0
   -8.6317    1.7235   -0.4100 H   0  0  0  0  0  0  0  0  0  0  0  0
   -6.2125    1.8852   -0.9444 H   0  0  0  0  0  0  0  0  0  0  0  0
    2.2923    0.8660    2.2824 H   0  0  0  0  0  0  0  0  0  0  0  0
    4.7568   -1.2169   -2.4018 H   0  0  0  0  0  0  0  0  0  0  0  0
    7.0002   -1.8860   -3.0632 H   0  0  0  0  0  0  0  0  0  0  0  0
    8.9732   -1.2085   -1.7258 H   0  0  0  0  0  0  0  0  0  0  0  0
    8.6720    0.1804    0.3085 H   0  0  0  0  0  0  0  0  0  0  0  0
    6.4289    0.9146    0.9905 H   0  0  0  0  0  0  0  0  0  0  0  0
  1  2  1  0
  2  3  1  0
  3  4  1  0
  4  5  1  0
  5  6  1  0
  6  7  1  0
  7  8  2  0
  8  9  1  0
  9 10  2  0
 10 11  1  0
 10 12  1  0
 12 13  2  0
  4 14  2  0
 14 15  1  0
 15 16  2  0
 16 17  1  0
 17 18  1  0
 18 19  2  0
 19 20  1  0
 20 21  1  0
 21 22  2  0
 22 23  1  0
 23 24  2  0
 24 25  1  0
 25 26  2  0
 20 27  1  0
 27 28  1  0
 28 29  1  0
 28 30  1  0
 28 31  1  0
 16  3  1  0
 27 17  2  0
 13  7  1  0
 26 21  1  0
  1 32  1  0
  1 33  1  0
  1 34  1  0
  2 35  1  0
  2 36  1  0
  6 37  1  0
  6 38  1  0
  8 39  1  0
  9 40  1  0
 12 41  1  0
 13 42  1  0
 18 43  1  0
 22 44  1  0
 23 45  1  0
 24 46  1  0
 25 47  1  0
 26 48  1  0
M  END
$$$$
