
     RDKit          3D

 57 60  0  0  0  0  0  0  0  0999 V2000
   -6.7509   -2.0606   -1.0506 C   0  0  0  0  0  0  0  0  0  0  0  0
   -5.5915   -1.4382   -0.2702 C   0  0  0  0  0  0  0  0  0  0  0  0
   -5.5551   -2.0029    1.1491 C   0  0  0  0  0  0  0  0  0  0  0  0
   -4.2592   -1.7160   -0.9698 C   0  0  0  0  0  0  0  0  0  0  0  0
   -4.1155   -2.7201   -1.6698 O   0  0  0  0  0  0  0  0  0  0  0  0
   -3.2116   -0.8324   -0.7519 N   0  0  0  0  0  0  0  0  0  0  0  0
   -3.3014    0.4302   -0.0038 C   0  0  0  0  0  0  0  0  0  0  0  0
   -1.9358    0.9372    0.4953 C   0  0  0  0  0  0  0  0  0  0  0  0
   -0.9112    1.0166   -0.5738 N   0  0  0  0  0  0  0  0  0  0  0  0
   -0.5197    2.3455   -0.8893 C   0  0  0  0  0  0  0  0  0  0  0  0
   -1.4205    3.2989   -1.3860 C   0  0  0  0  0  0  0  0  0  0  0  0
   -0.9907    4.5941   -1.6795 C   0  0  0  0  0  0  0  0  0  0  0  0
    0.3418    4.9496   -1.4790 C   0  0  0  0  0  0  0  0  0  0  0  0
    1.2539    4.0140   -0.9871 C   0  0  0  0  0  0  0  0  0  0  0  0
    0.8333    2.7170   -0.6934 C   0  0  0  0  0  0  0  0  0  0  0  0
    1.6752    1.7074   -0.1811 N   0  0  0  0  0  0  0  0  0  0  0  0
    3.0257    1.7674    0.0789 C   0  0  0  0  0  0  0  0  0  0  0  0
    3.7699    2.7139   -0.1514 O   0  0  0  0  0  0  0  0  0  0  0  0
    3.6133    0.5297    0.6729 C   0  0  0  0  0  0  0  0  0  0  0  0
    2.8671   -0.3312    1.4925 C   0  0  0  0  0  0  0  0  0  0  0  0
    3.4623   -1.4736    2.0347 C   0  0  0  0  0  0  0  0  0  0  0  0
    4.8034   -1.7486    1.7755 C   0  0  0  0  0  0  0  0  0  0  0  0
    5.5491   -0.8968    0.9552 C   0  0  0  0  0  0  0  0  0  0  0  0
    4.9625    0.2481    0.4197 C   0  0  0  0  0  0  0  0  0  0  0  0
    6.8661   -1.1188    0.6428 O   0  0  0  0  0  0  0  0  0  0  0  0
    7.2692   -2.4530    0.9726 C   0  0  0  0  0  0  0  0  0  0  0  0
    6.7574   -2.8451    2.3485 C   0  0  0  0  0  0  0  0  0  0  0  0
    5.3258   -2.8722    2.3630 O   0  0  0  0  0  0  0  0  0  0  0  0
   -1.2013    0.2232   -1.7941 C   0  0  0  0  0  0  0  0  0  0  0  0
   -1.9341   -1.0806   -1.4373 C   0  0  0  0  0  0  0  0  0  0  0  0
   -6.7649   -1.6930   -2.0822 H   0  0  0  0  0  0  0  0  0  0  0  0
   -7.7103   -1.8068   -0.5870 H   0  0  0  0  0  0  0  0  0  0  0  0
   -6.6726   -3.1527   -1.0878 H   0  0  0  0  0  0  0  0  0  0  0  0
   -5.7696   -0.3584   -0.2390 H   0  0  0  0  0  0  0  0  0  0  0  0
   -6.4816   -1.7680    1.6838 H   0  0  0  0  0  0  0  0  0  0  0  0
   -4.7201   -1.5980    1.7283 H   0  0  0  0  0  0  0  0  0  0  0  0
   -5.4389   -3.0926    1.1353 H   0  0  0  0  0  0  0  0  0  0  0  0
   -3.9724    0.3200    0.8504 H   0  0  0  0  0  0  0  0  0  0  0  0
   -3.7543    1.1638   -0.6808 H   0  0  0  0  0  0  0  0  0  0  0  0
   -1.5567    0.2259    1.2402 H   0  0  0  0  0  0  0  0  0  0  0  0
   -2.0612    1.8915    1.0227 H   0  0  0  0  0  0  0  0  0  0  0  0
   -2.4611    3.0424   -1.5562 H   0  0  0  0  0  0  0  0  0  0  0  0
   -1.6941    5.3272   -2.0655 H   0  0  0  0  0  0  0  0  0  0  0  0
    0.6775    5.9583   -1.7067 H   0  0  0  0  0  0  0  0  0  0  0  0
    2.2836    4.3232   -0.8416 H   0  0  0  0  0  0  0  0  0  0  0  0
    1.1713    0.8356   -0.0510 H   0  0  0  0  0  0  0  0  0  0  0  0
    1.8333   -0.1137    1.7467 H   0  0  0  0  0  0  0  0  0  0  0  0
    2.8888   -2.1356    2.6786 H   0  0  0  0  0  0  0  0  0  0  0  0
    5.5538    0.9137   -0.2061 H   0  0  0  0  0  0  0  0  0  0  0  0
    8.3629   -2.4829    0.9539 H   0  0  0  0  0  0  0  0  0  0  0  0
    6.8943   -3.1311    0.1963 H   0  0  0  0  0  0  0  0  0  0  0  0
    7.1008   -2.1456    3.1205 H   0  0  0  0  0  0  0  0  0  0  0  0
    7.1117   -3.8466    2.6145 H   0  0  0  0  0  0  0  0  0  0  0  0
   -0.2577   -0.0177   -2.2971 H   0  0  0  0  0  0  0  0  0  0  0  0
   -1.8231    0.7905   -2.4985 H   0  0  0  0  0  0  0  0  0  0  0  0
   -1.3232   -1.6806   -0.7523 H   0  0  0  0  0  0  0  0  0  0  0  0
   -2.0938   -1.6712   -2.3453 H   0  0  0  0  0  0  0  0  0  0  0  0
  1  2  1  0
  2  3  1  0
  2  4  1  0
  4  5  2  0
  4  6  1  0
  6  7  1  0
  7  8  1  0
  8  9  1  0
  9 10  1  0
 10 11  2  0
 11 12  1  0
 12 13  2  0
 13 14  1  0
 14 15  2  0
 15 16  1  0
 16 17  1  0
 17 18  2  0
 17 19  1  0
 19 20  2  0
 20 21  1  0
 21 22  2  0
 22 23  1  0
 23 24  2  0
 23 25  1  0
 25 26  1  0
 26 27  1  0
 27 28  1  0
  9 29  1  0
 29 30  1  0
 30  6  1  0
 15 10  1  0
 24 19  1  0
 28 22  1  0
  1 31  1  0
  1 32  1  0
  1 33  1  0
  2 34  1  0
  3 35  1  0
  3 36  1  0
  3 37  1  0
  7 38  1  0
  7 39  1  0
  8 40  1  0
  8 41  1  0
 11 42  1  0
 12 43  1  0
 13 44  1  0
 14 45  1  0
 16 46  1  0
 20 47  1  0
 21 48  1  0
 24 49  1  0
 26 50  1  0
 26 51  1  0
 27 52  1  0
 27 53  1  0
 29 54  1  0
 29 55  1  0
 30 56  1  0
 30 57  1  0
M  END
$$$$
