
     RDKit          3D

 46 48  0  0  0  0  0  0  0  0999 V2000
   -1.1054   -2.3777    0.7673 C   0  0  0  0  0  0  0  0  0  0  0  0
   -1.9510   -2.1099    1.7735 C   0  0  0  0  0  0  0  0  0  0  0  0
   -2.3825   -0.7659    2.2996 C   0  0  0  0  0  0  0  0  0  0  0  0
   -1.9797    0.3763    1.5000 N   0  0  0  0  0  0  0  0  0  0  0  0
   -0.8356    1.1211    1.6041 C   0  0  0  0  0  0  0  0  0  0  0  0
    0.4282    0.7936    2.7364 S   0  0  0  0  0  0  0  0  0  0  0  0
    1.6965    1.9962    2.2340 C   0  0  0  0  0  0  0  0  0  0  0  0
    2.6336    1.4439    1.1851 C   0  0  0  0  0  0  0  0  0  0  0  0
    2.3825    1.6433   -0.1800 C   0  0  0  0  0  0  0  0  0  0  0  0
    3.2441    1.1129   -1.1493 C   0  0  0  0  0  0  0  0  0  0  0  0
    4.3716    0.3760   -0.7663 C   0  0  0  0  0  0  0  0  0  0  0  0
    5.2561   -0.1632   -1.8350 C   0  0  0  0  0  0  0  0  0  0  0  0
    5.1015    0.0700   -3.0246 O   0  0  0  0  0  0  0  0  0  0  0  0
    6.2292   -0.9430   -1.3012 O   0  0  0  0  0  0  0  0  0  0  0  0
    7.1252   -1.4967   -2.2664 C   0  0  0  0  0  0  0  0  0  0  0  0
    4.6288    0.1757    0.5970 C   0  0  0  0  0  0  0  0  0  0  0  0
    3.7630    0.7013    1.5623 C   0  0  0  0  0  0  0  0  0  0  0  0
   -0.8558    2.0896    0.7176 N   0  0  0  0  0  0  0  0  0  0  0  0
   -2.0283    1.9940    0.0121 N   0  0  0  0  0  0  0  0  0  0  0  0
   -2.7116    0.9799    0.5032 C   0  0  0  0  0  0  0  0  0  0  0  0
   -4.0149    0.6076    0.0654 C   0  0  0  0  0  0  0  0  0  0  0  0
   -5.4069    1.3302    0.7390 S   0  0  0  0  0  0  0  0  0  0  0  0
   -6.3971    0.3867   -0.2891 C   0  0  0  0  0  0  0  0  0  0  0  0
   -7.7382    0.4979   -0.2685 N   0  0  0  0  0  0  0  0  0  0  0  0
   -5.7556   -0.4173   -1.1028 N   0  0  0  0  0  0  0  0  0  0  0  0
   -4.3841   -0.2946   -0.9195 C   0  0  0  0  0  0  0  0  0  0  0  0
   -3.4957   -1.1264   -1.7735 C   0  0  0  0  0  0  0  0  0  0  0  0
   -0.6032   -1.6088    0.1926 H   0  0  0  0  0  0  0  0  0  0  0  0
   -0.8796   -3.4060    0.4965 H   0  0  0  0  0  0  0  0  0  0  0  0
   -2.3920   -2.9604    2.2962 H   0  0  0  0  0  0  0  0  0  0  0  0
   -3.4761   -0.7492    2.3796 H   0  0  0  0  0  0  0  0  0  0  0  0
   -2.0039   -0.6262    3.3182 H   0  0  0  0  0  0  0  0  0  0  0  0
    2.2779    2.2396    3.1340 H   0  0  0  0  0  0  0  0  0  0  0  0
    1.2517    2.9440    1.9104 H   0  0  0  0  0  0  0  0  0  0  0  0
    1.5091    2.2092   -0.5025 H   0  0  0  0  0  0  0  0  0  0  0  0
    3.0254    1.2759   -2.2041 H   0  0  0  0  0  0  0  0  0  0  0  0
    7.7456   -2.2438   -1.7649 H   0  0  0  0  0  0  0  0  0  0  0  0
    7.7771   -0.7088   -2.6590 H   0  0  0  0  0  0  0  0  0  0  0  0
    6.5809   -1.9910   -3.0805 H   0  0  0  0  0  0  0  0  0  0  0  0
    5.4979   -0.3898    0.9246 H   0  0  0  0  0  0  0  0  0  0  0  0
    3.9757    0.5258    2.6145 H   0  0  0  0  0  0  0  0  0  0  0  0
   -8.1877    0.1279   -1.1001 H   0  0  0  0  0  0  0  0  0  0  0  0
   -8.1042    1.4050    0.0012 H   0  0  0  0  0  0  0  0  0  0  0  0
   -2.5041   -0.6776   -1.8825 H   0  0  0  0  0  0  0  0  0  0  0  0
   -3.9228   -1.2440   -2.7758 H   0  0  0  0  0  0  0  0  0  0  0  0
   -3.3856   -2.1233   -1.3352 H   0  0  0  0  0  0  0  0  0  0  0  0
  1  2  2  0
  2  3  1  0
  3  4  1  0
  4  5  1  0
  5  6  1  0
  6  7  1  0
  7  8  1  0
  8  9  2  0
  9 10  1  0
 10 11  2  0
 11 12  1  0
 12 13  2  0
 12 14  1  0
 14 15  1  0
 11 16  1  0
 16 17  2  0
  5 18  2  0
 18 19  1  0
 19 20  2  0
 20 21  1  0
 21 22  1  0
 22 23  1  0
 23 24  1  0
 23 25  2  0
 25 26  1  0
 26 27  1  0
 20  4  1  0
 26 21  2  0
 17  8  1  0
  1 28  1  0
  1 29  1  0
  2 30  1  0
  3 31  1  0
  3 32  1  0
  7 33  1  0
  7 34  1  0
  9 35  1  0
 10 36  1  0
 15 37  1  0
 15 38  1  0
 15 39  1  0
 16 40  1  0
 17 41  1  0
 24 42  1  0
 24 43  1  0
 27 44  1  0
 27 45  1  0
 27 46  1  0
M  END
$$$$
