
     RDKit          3D

 37 39  0  0  0  0  0  0  0  0999 V2000
    3.6439   -1.3606   -2.5424 N   0  0  0  0  0  0  0  0  0  0  0  0
    3.2677   -0.1542   -1.8166 C   0  0  0  0  0  0  0  0  0  0  0  0
    2.2714   -0.4905   -0.7066 C   0  0  0  0  0  0  0  0  0  0  0  0
    1.8909    0.7615    0.0865 C   0  0  0  0  0  0  0  0  0  0  0  0
    0.9191    0.5078    1.2527 C   0  0  0  0  0  0  0  0  0  0  0  0
   -0.4723    0.2488    0.8045 N   0  0  0  0  0  0  0  0  0  0  0  0
   -0.9276   -1.1061    0.7849 C   0  0  0  0  0  0  0  0  0  0  0  0
   -0.0829   -2.2045    1.0718 C   0  0  0  0  0  0  0  0  0  0  0  0
   -0.5231   -3.5357    1.0552 C   0  0  0  0  0  0  0  0  0  0  0  0
   -1.8381   -3.8258    0.7463 C   0  0  0  0  0  0  0  0  0  0  0  0
   -2.7017   -2.7803    0.4517 C   0  0  0  0  0  0  0  0  0  0  0  0
   -2.2610   -1.4389    0.4661 C   0  0  0  0  0  0  0  0  0  0  0  0
   -3.5137   -0.2514    0.0588 S   0  0  0  0  0  0  0  0  0  0  0  0
   -2.6340    1.2841    0.1441 C   0  0  0  0  0  0  0  0  0  0  0  0
   -3.4106    2.4227   -0.1627 C   0  0  0  0  0  0  0  0  0  0  0  0
   -2.8628    3.6985   -0.1302 C   0  0  0  0  0  0  0  0  0  0  0  0
   -1.5311    3.8380    0.2112 C   0  0  0  0  0  0  0  0  0  0  0  0
   -0.8224    5.4068    0.2577 Cl  0  0  0  0  0  0  0  0  0  0  0  0
   -0.7532    2.7151    0.5176 C   0  0  0  0  0  0  0  0  0  0  0  0
   -1.2724    1.3975    0.4955 C   0  0  0  0  0  0  0  0  0  0  0  0
    4.1056   -2.0159   -1.9138 H   0  0  0  0  0  0  0  0  0  0  0  0
    4.3245   -1.1253   -3.2636 H   0  0  0  0  0  0  0  0  0  0  0  0
    2.8223    0.5605   -2.5170 H   0  0  0  0  0  0  0  0  0  0  0  0
    4.1664    0.3086   -1.3942 H   0  0  0  0  0  0  0  0  0  0  0  0
    2.7142   -1.2305   -0.0293 H   0  0  0  0  0  0  0  0  0  0  0  0
    1.3754   -0.9379   -1.1516 H   0  0  0  0  0  0  0  0  0  0  0  0
    1.4837    1.5052   -0.6069 H   0  0  0  0  0  0  0  0  0  0  0  0
    2.8071    1.1969    0.5057 H   0  0  0  0  0  0  0  0  0  0  0  0
    1.3178   -0.2705    1.9096 H   0  0  0  0  0  0  0  0  0  0  0  0
    0.9349    1.3711    1.9306 H   0  0  0  0  0  0  0  0  0  0  0  0
    0.9671   -2.0806    1.3060 H   0  0  0  0  0  0  0  0  0  0  0  0
    0.1740   -4.3390    1.2799 H   0  0  0  0  0  0  0  0  0  0  0  0
   -2.1902   -4.8529    0.7282 H   0  0  0  0  0  0  0  0  0  0  0  0
   -3.7355   -3.0150    0.2043 H   0  0  0  0  0  0  0  0  0  0  0  0
   -4.4605    2.3142   -0.4311 H   0  0  0  0  0  0  0  0  0  0  0  0
   -3.4750    4.5626   -0.3698 H   0  0  0  0  0  0  0  0  0  0  0  0
    0.2823    2.9157    0.7670 H   0  0  0  0  0  0  0  0  0  0  0  0
  1  2  1  0
  2  3  1  0
  3  4  1  0
  4  5  1  0
  5  6  1  0
  6  7  1  0
  7  8  2  0
  8  9  1  0
  9 10  2  0
 10 11  1  0
 11 12  2  0
 12 13  1  0
 13 14  1  0
 14 15  2  0
 15 16  1  0
 16 17  2  0
 17 18  1  0
 17 19  1  0
 19 20  2  0
 20  6  1  0
 12  7  1  0
 20 14  1  0
  1 21  1  0
  1 22  1  0
  2 23  1  0
  2 24  1  0
  3 25  1  0
  3 26  1  0
  4 27  1  0
  4 28  1  0
  5 29  1  0
  5 30  1  0
  8 31  1  0
  9 32  1  0
 10 33  1  0
 11 34  1  0
 15 35  1  0
 16 36  1  0
 19 37  1  0
M  END
$$$$
