
     RDKit          3D

 41 43  0  0  0  0  0  0  0  0999 V2000
   -3.1921    0.9595   -1.5145 C   0  0  0  0  0  0  0  0  0  0  0  0
   -3.0737    0.4335   -0.1786 N   0  0  0  0  0  0  0  0  0  0  0  0
   -1.9219    0.1035    0.4805 C   0  0  0  0  0  0  0  0  0  0  0  0
   -0.3345    0.3784   -0.1426 S   0  0  0  0  0  0  0  0  0  0  0  0
    0.6514    0.0075    1.3384 C   0  0  0  0  0  0  0  0  0  0  0  0
    2.1243    0.1349    0.9974 C   0  0  0  0  0  0  0  0  0  0  0  0
    2.7132    1.2129    1.0615 O   0  0  0  0  0  0  0  0  0  0  0  0
    2.6967   -1.0735    0.5976 N   0  0  0  0  0  0  0  0  0  0  0  0
    4.0376   -1.2746    0.3766 N   0  0  0  0  0  0  0  0  0  0  0  0
    4.7330   -0.3136   -0.1469 C   0  0  0  0  0  0  0  0  0  0  0  0
    6.1596   -0.4300   -0.3652 C   0  0  0  0  0  0  0  0  0  0  0  0
    7.0018    0.5257   -0.9044 C   0  0  0  0  0  0  0  0  0  0  0  0
    8.3566    0.0790   -0.9748 C   0  0  0  0  0  0  0  0  0  0  0  0
    8.4889   -1.2023   -0.4846 C   0  0  0  0  0  0  0  0  0  0  0  0
    9.7064   -1.9671   -0.4029 N   0  0  0  0  0  4  0  0  0  0  0  0
   10.7320   -1.4076   -0.8158 O   0  0  0  0  0  0  0  0  0  0  0  0
    9.6544   -3.1125    0.0623 O   0  0  0  0  0  1  0  0  0  0  0  0
    7.0163   -1.8555    0.0501 S   0  0  0  0  0  0  0  0  0  0  0  0
   -2.2101   -0.4481    1.6333 N   0  0  0  0  0  0  0  0  0  0  0  0
   -3.5770   -0.4635    1.7531 N   0  0  0  0  0  0  0  0  0  0  0  0
   -4.1021    0.1074    0.6824 C   0  0  0  0  0  0  0  0  0  0  0  0
   -5.5312    0.3117    0.4561 C   0  0  0  0  0  0  0  0  0  0  0  0
   -6.4224   -0.7454    0.6902 C   0  0  0  0  0  0  0  0  0  0  0  0
   -7.7956   -0.5778    0.4901 C   0  0  0  0  0  0  0  0  0  0  0  0
   -8.2862    0.6546    0.0662 C   0  0  0  0  0  0  0  0  0  0  0  0
   -9.9751    0.8646   -0.1818 Cl  0  0  0  0  0  0  0  0  0  0  0  0
   -7.4167    1.7215   -0.1513 C   0  0  0  0  0  0  0  0  0  0  0  0
   -6.0428    1.5522    0.0486 C   0  0  0  0  0  0  0  0  0  0  0  0
   -2.4169    0.5283   -2.1524 H   0  0  0  0  0  0  0  0  0  0  0  0
   -3.0868    2.0461   -1.4668 H   0  0  0  0  0  0  0  0  0  0  0  0
   -4.1621    0.6889   -1.9378 H   0  0  0  0  0  0  0  0  0  0  0  0
    0.4362   -1.0025    1.7024 H   0  0  0  0  0  0  0  0  0  0  0  0
    0.4190    0.7146    2.1416 H   0  0  0  0  0  0  0  0  0  0  0  0
    2.2010   -1.9328    0.8226 H   0  0  0  0  0  0  0  0  0  0  0  0
    4.2788    0.6320   -0.4884 H   0  0  0  0  0  0  0  0  0  0  0  0
    6.6655    1.5038   -1.2310 H   0  0  0  0  0  0  0  0  0  0  0  0
    9.1801    0.6690   -1.3620 H   0  0  0  0  0  0  0  0  0  0  0  0
   -6.0473   -1.7082    1.0352 H   0  0  0  0  0  0  0  0  0  0  0  0
   -8.4720   -1.4086    0.6738 H   0  0  0  0  0  0  0  0  0  0  0  0
   -7.8020    2.6885   -0.4646 H   0  0  0  0  0  0  0  0  0  0  0  0
   -5.3840    2.4054   -0.0952 H   0  0  0  0  0  0  0  0  0  0  0  0
  1  2  1  0
  2  3  1  0
  3  4  1  0
  4  5  1  0
  5  6  1  0
  6  7  2  0
  6  8  1  0
  8  9  1  0
  9 10  2  3
 10 11  1  0
 11 12  2  0
 12 13  1  0
 13 14  2  0
 14 15  1  0
 15 16  2  0
 15 17  1  0
 14 18  1  0
  3 19  2  0
 19 20  1  0
 20 21  2  0
 21 22  1  0
 22 23  2  0
 23 24  1  0
 24 25  2  0
 25 26  1  0
 25 27  1  0
 27 28  2  0
 21  2  1  0
 28 22  1  0
 18 11  1  0
  1 29  1  0
  1 30  1  0
  1 31  1  0
  5 32  1  0
  5 33  1  0
  8 34  1  0
 10 35  1  0
 12 36  1  0
 13 37  1  0
 23 38  1  0
 24 39  1  0
 27 40  1  0
 28 41  1  0
M  CHG  2  15   1  17  -1
M  END
$$$$
