
     RDKit          3D

 49 52  0  0  0  0  0  0  0  0999 V2000
   -5.0614   -1.5860    2.9475 O   0  0  0  0  0  0  0  0  0  0  0  0
   -4.3332   -0.8393    2.2979 C   0  0  0  0  0  0  0  0  0  0  0  0
   -2.8960   -1.0339    2.2328 C   0  0  0  0  0  0  0  0  0  0  0  0
   -2.1728   -2.1381    2.7215 C   0  0  0  0  0  0  0  0  0  0  0  0
   -0.8584   -2.0220    2.5319 N   0  0  0  0  0  0  0  0  0  0  0  0
   -0.6967   -0.8254    1.9346 N   0  0  0  0  0  0  0  0  0  0  0  0
    0.5910   -0.3801    1.5254 C   0  0  0  0  0  0  0  0  0  0  0  0
    0.6952    0.6382    0.5589 C   0  0  0  0  0  0  0  0  0  0  0  0
    1.9472    1.0424    0.0799 C   0  0  0  0  0  0  0  0  0  0  0  0
    3.1091    0.4348    0.5622 C   0  0  0  0  0  0  0  0  0  0  0  0
    4.6962    0.9557   -0.0416 S   0  0  0  0  0  6  0  0  0  0  0  0
    5.6086    0.9104    1.0813 O   0  0  0  0  0  0  0  0  0  0  0  0
    4.5216    2.1677   -0.8110 O   0  0  0  0  0  0  0  0  0  0  0  0
    5.1267   -0.3147   -1.0637 N   0  0  0  0  0  0  0  0  0  0  0  0
    4.4935   -0.3972   -2.3323 C   0  0  0  0  0  0  0  0  0  0  0  0
    4.9201    0.4012   -3.3915 C   0  0  0  0  0  0  0  0  0  0  0  0
    4.2692    0.3219   -4.6232 C   0  0  0  0  0  0  0  0  0  0  0  0
    3.1988   -0.5566   -4.7913 C   0  0  0  0  0  0  0  0  0  0  0  0
    2.7778   -1.3572   -3.7298 C   0  0  0  0  0  0  0  0  0  0  0  0
    3.4246   -1.2769   -2.4969 C   0  0  0  0  0  0  0  0  0  0  0  0
    3.0399   -0.5539    1.5429 C   0  0  0  0  0  0  0  0  0  0  0  0
    1.7795   -0.9543    2.0146 C   0  0  0  0  0  0  0  0  0  0  0  0
    1.7962   -1.9063    3.1124 N   0  0  0  0  0  4  0  0  0  0  0  0
    2.1875   -3.0515    2.8485 O   0  0  0  0  0  0  0  0  0  0  0  0
    1.5344   -1.4607    4.2384 O   0  0  0  0  0  1  0  0  0  0  0  0
   -1.9120   -0.2012    1.7353 C   0  0  0  0  0  0  0  0  0  0  0  0
   -4.9545    0.3246    1.6322 C   0  0  0  0  0  0  0  0  0  0  0  0
   -5.7177    1.1893    2.4252 C   0  0  0  0  0  0  0  0  0  0  0  0
   -6.3448    2.2775    1.8327 C   0  0  0  0  0  0  0  0  0  0  0  0
   -7.0638    3.1160    2.5885 F   0  0  0  0  0  0  0  0  0  0  0  0
   -6.2397    2.5106    0.4646 C   0  0  0  0  0  0  0  0  0  0  0  0
   -5.5006    1.6358   -0.3340 C   0  0  0  0  0  0  0  0  0  0  0  0
   -4.8616    0.5406    0.2508 C   0  0  0  0  0  0  0  0  0  0  0  0
   -4.1634   -0.3297   -0.5353 O   0  0  0  0  0  0  0  0  0  0  0  0
   -2.5599   -3.0254    3.2095 H   0  0  0  0  0  0  0  0  0  0  0  0
   -0.1811    1.1146    0.1247 H   0  0  0  0  0  0  0  0  0  0  0  0
    2.0056    1.8216   -0.6798 H   0  0  0  0  0  0  0  0  0  0  0  0
    6.1274   -0.5049   -1.0248 H   0  0  0  0  0  0  0  0  0  0  0  0
    5.7429    1.0993   -3.2650 H   0  0  0  0  0  0  0  0  0  0  0  0
    4.5933    0.9496   -5.4495 H   0  0  0  0  0  0  0  0  0  0  0  0
    2.6929   -0.6165   -5.7515 H   0  0  0  0  0  0  0  0  0  0  0  0
    1.9476   -2.0459   -3.8631 H   0  0  0  0  0  0  0  0  0  0  0  0
    3.0966   -1.9099   -1.6766 H   0  0  0  0  0  0  0  0  0  0  0  0
    3.9503   -0.9973    1.9456 H   0  0  0  0  0  0  0  0  0  0  0  0
   -1.9822    0.7770    1.2857 H   0  0  0  0  0  0  0  0  0  0  0  0
   -5.8289    1.0197    3.4928 H   0  0  0  0  0  0  0  0  0  0  0  0
   -6.7463    3.3665    0.0286 H   0  0  0  0  0  0  0  0  0  0  0  0
   -5.4415    1.8214   -1.4026 H   0  0  0  0  0  0  0  0  0  0  0  0
   -4.3573   -0.1518   -1.4719 H   0  0  0  0  0  0  0  0  0  0  0  0
  1  2  2  0
  2  3  1  0
  3  4  1  0
  4  5  2  0
  5  6  1  0
  6  7  1  0
  7  8  2  0
  8  9  1  0
  9 10  2  0
 10 11  1  0
 11 12  2  0
 11 13  2  0
 11 14  1  0
 14 15  1  0
 15 16  2  0
 16 17  1  0
 17 18  2  0
 18 19  1  0
 19 20  2  0
 10 21  1  0
 21 22  2  0
 22 23  1  0
 23 24  2  0
 23 25  1  0
  6 26  1  0
  2 27  1  0
 27 28  2  0
 28 29  1  0
 29 30  1  0
 29 31  2  0
 31 32  1  0
 32 33  2  0
 33 34  1  0
 26  3  2  0
 33 27  1  0
 22  7  1  0
 20 15  1  0
  4 35  1  0
  8 36  1  0
  9 37  1  0
 14 38  1  0
 16 39  1  0
 17 40  1  0
 18 41  1  0
 19 42  1  0
 20 43  1  0
 21 44  1  0
 26 45  1  0
 28 46  1  0
 31 47  1  0
 32 48  1  0
 34 49  1  0
M  CHG  2  23   1  25  -1
M  END
$$$$
