
     RDKit          3D

 60 65  0  0  0  0  0  0  0  0999 V2000
    1.4271   -3.7570    1.3421 O   0  0  0  0  0  0  0  0  0  0  0  0
    1.9363   -2.6682    1.1065 C   0  0  0  0  0  0  0  0  0  0  0  0
    1.2014   -1.5797    0.6519 N   0  0  0  0  0  0  0  0  0  0  0  0
    1.7397   -0.3316    0.3640 C   0  0  0  0  0  0  0  0  0  0  0  0
    0.7712    0.7426   -0.1270 C   0  0  0  0  0  0  0  0  0  0  0  0
   -0.0566    0.2677   -1.3319 C   0  0  0  0  0  0  0  0  0  0  0  0
   -1.5154   -0.0198   -0.9807 C   0  0  0  0  0  0  0  0  0  0  0  0
   -1.5622   -0.6500    0.3569 N   0  0  0  0  0  0  0  0  0  0  0  0
   -2.8914   -1.6879    0.6692 S   0  0  0  0  0  6  0  0  0  0  0  0
   -2.7291   -2.1888    2.0164 O   0  0  0  0  0  0  0  0  0  0  0  0
   -3.0166   -2.5844   -0.4586 O   0  0  0  0  0  0  0  0  0  0  0  0
   -4.2946   -0.5962    0.6561 C   0  0  0  0  0  0  0  0  0  0  0  0
   -4.7968   -0.0938    1.8624 C   0  0  0  0  0  0  0  0  0  0  0  0
   -5.9088    0.7498    1.8475 C   0  0  0  0  0  0  0  0  0  0  0  0
   -6.5186    1.0750    0.6363 C   0  0  0  0  0  0  0  0  0  0  0  0
   -6.0422    0.5272   -0.5606 C   0  0  0  0  0  0  0  0  0  0  0  0
   -4.9267   -0.3060   -0.5566 C   0  0  0  0  0  0  0  0  0  0  0  0
   -6.6204    0.7725   -1.7794 O   0  0  0  0  0  0  0  0  0  0  0  0
   -7.9388    1.3137   -1.6287 C   0  0  0  0  0  0  0  0  0  0  0  0
   -7.9420    2.4293   -0.5964 C   0  0  0  0  0  0  0  0  0  0  0  0
   -7.5916    1.9259    0.6982 O   0  0  0  0  0  0  0  0  0  0  0  0
   -1.1949    0.2787    1.4599 C   0  0  0  0  0  0  0  0  0  0  0  0
   -0.1074    1.2601    1.0160 C   0  0  0  0  0  0  0  0  0  0  0  0
    3.0022   -0.0292    0.5060 N   0  0  0  0  0  0  0  0  0  0  0  0
    3.7453   -1.0750    0.9454 C   0  0  0  0  0  0  0  0  0  0  0  0
    3.3303   -2.3477    1.2554 C   0  0  0  0  0  0  0  0  0  0  0  0
    4.3806   -3.1062    1.6726 N   0  0  0  0  0  0  0  0  0  0  0  0
    5.4679   -2.3358    1.6300 N   0  0  0  0  0  0  0  0  0  0  0  0
    5.0909   -1.1162    1.1726 N   0  0  0  0  0  0  0  0  0  0  0  0
    6.0554   -0.0467    1.0299 C   0  0  0  0  0  0  0  0  0  0  0  0
    6.5721    0.0462   -0.3856 C   0  0  0  0  0  0  0  0  0  0  0  0
    6.0091    0.9614   -1.2905 C   0  0  0  0  0  0  0  0  0  0  0  0
    6.4798    1.0367   -2.6021 C   0  0  0  0  0  0  0  0  0  0  0  0
    7.5069    0.1952   -3.0120 C   0  0  0  0  0  0  0  0  0  0  0  0
    7.9560    0.2688   -4.2717 F   0  0  0  0  0  0  0  0  0  0  0  0
    8.0711   -0.7239   -2.1360 C   0  0  0  0  0  0  0  0  0  0  0  0
    7.6035   -0.8014   -0.8234 C   0  0  0  0  0  0  0  0  0  0  0  0
    0.2089   -1.7530    0.5262 H   0  0  0  0  0  0  0  0  0  0  0  0
    1.3994    1.5771   -0.4692 H   0  0  0  0  0  0  0  0  0  0  0  0
    0.3957   -0.6244   -1.7832 H   0  0  0  0  0  0  0  0  0  0  0  0
   -0.0406    1.0371   -2.1141 H   0  0  0  0  0  0  0  0  0  0  0  0
   -2.0972    0.9093   -0.9753 H   0  0  0  0  0  0  0  0  0  0  0  0
   -1.9362   -0.6714   -1.7523 H   0  0  0  0  0  0  0  0  0  0  0  0
   -4.3340   -0.3543    2.8122 H   0  0  0  0  0  0  0  0  0  0  0  0
   -6.3008    1.1538    2.7777 H   0  0  0  0  0  0  0  0  0  0  0  0
   -4.5732   -0.7360   -1.4904 H   0  0  0  0  0  0  0  0  0  0  0  0
   -8.2523    1.6991   -2.6039 H   0  0  0  0  0  0  0  0  0  0  0  0
   -8.6201    0.5015   -1.3463 H   0  0  0  0  0  0  0  0  0  0  0  0
   -8.9398    2.8727   -0.5209 H   0  0  0  0  0  0  0  0  0  0  0  0
   -7.2338    3.2235   -0.8630 H   0  0  0  0  0  0  0  0  0  0  0  0
   -2.0631    0.8447    1.8092 H   0  0  0  0  0  0  0  0  0  0  0  0
   -0.8172   -0.3143    2.3004 H   0  0  0  0  0  0  0  0  0  0  0  0
   -0.5947    2.1848    0.6781 H   0  0  0  0  0  0  0  0  0  0  0  0
    0.5032    1.5407    1.8829 H   0  0  0  0  0  0  0  0  0  0  0  0
    6.8783   -0.2277    1.7314 H   0  0  0  0  0  0  0  0  0  0  0  0
    5.5734    0.8882    1.3383 H   0  0  0  0  0  0  0  0  0  0  0  0
    5.1949    1.6141   -0.9805 H   0  0  0  0  0  0  0  0  0  0  0  0
    6.0502    1.7409   -3.3072 H   0  0  0  0  0  0  0  0  0  0  0  0
    8.8660   -1.3777   -2.4809 H   0  0  0  0  0  0  0  0  0  0  0  0
    8.0407   -1.5339   -0.1461 H   0  0  0  0  0  0  0  0  0  0  0  0
  1  2  2  0
  2  3  1  0
  3  4  1  0
  4  5  1  0
  5  6  1  0
  6  7  1  0
  7  8  1  0
  8  9  1  0
  9 10  2  0
  9 11  2  0
  9 12  1  0
 12 13  2  0
 13 14  1  0
 14 15  2  0
 15 16  1  0
 16 17  2  0
 16 18  1  0
 18 19  1  0
 19 20  1  0
 20 21  1  0
  8 22  1  0
 22 23  1  0
  4 24  2  0
 24 25  1  0
 25 26  2  0
 26 27  1  0
 27 28  2  0
 28 29  1  0
 29 30  1  0
 30 31  1  0
 31 32  2  0
 32 33  1  0
 33 34  2  0
 34 35  1  0
 34 36  1  0
 36 37  2  0
 26  2  1  0
 37 31  1  0
 23  5  1  0
 29 25  1  0
 17 12  1  0
 21 15  1  0
  3 38  1  0
  5 39  1  0
  6 40  1  0
  6 41  1  0
  7 42  1  0
  7 43  1  0
 13 44  1  0
 14 45  1  0
 17 46  1  0
 19 47  1  0
 19 48  1  0
 20 49  1  0
 20 50  1  0
 22 51  1  0
 22 52  1  0
 23 53  1  0
 23 54  1  0
 30 55  1  0
 30 56  1  0
 32 57  1  0
 33 58  1  0
 36 59  1  0
 37 60  1  0
M  END
$$$$
