
     RDKit          3D

102104  0  0  0  0  0  0  0  0999 V2000
    8.2057    0.0370   -1.9436 C   0  0  0  0  0  0  0  0  0  0  0  0
    7.1061   -0.9958   -1.7517 C   0  0  0  0  0  0  0  0  0  0  0  0
    5.7170   -0.5012   -2.1634 C   0  0  0  0  0  0  0  0  0  0  0  0
    5.1811    0.6101   -1.2569 C   0  0  0  0  0  0  0  0  0  0  0  0
    3.7990    1.1317   -1.6742 C   0  0  0  0  0  0  0  0  0  0  0  0
    2.6732    0.0892   -1.5947 C   0  0  0  0  0  0  0  0  0  0  0  0
    1.3034    0.6528   -2.0035 C   0  0  0  0  0  0  0  0  0  0  0  0
    0.7291    1.7381   -1.1026 C   0  0  0  0  0  0  0  0  0  0  0  0
    1.2672    2.1674   -0.0922 O   0  0  0  0  0  0  0  0  0  0  0  0
   -0.4704    2.2247   -1.5826 N   0  0  0  0  0  0  0  0  0  0  0  0
   -1.1763    3.4014   -1.0595 C   0  0  0  0  0  0  0  0  0  0  0  0
   -0.2351    4.5926   -0.7755 C   0  0  0  0  0  0  0  0  0  0  0  0
   -0.8691    5.9890   -0.9601 C   0  0  0  0  0  0  0  0  0  0  0  0
   -1.1418    6.3012   -2.4334 C   0  0  0  0  0  0  0  0  0  0  0  0
    0.0562    7.0565   -0.3670 C   0  0  0  0  0  0  0  0  0  0  0  0
   -2.1362    3.1374    0.1287 C   0  0  0  0  0  0  0  0  0  0  0  0
   -2.7547    4.0518    0.6757 O   0  0  0  0  0  0  0  0  0  0  0  0
   -2.3707    1.8149    0.4551 N   0  0  0  0  0  0  0  0  0  0  0  0
   -3.2852    1.5164    1.5724 C   0  0  0  0  0  0  0  0  0  0  0  0
   -4.7794    1.7017    1.2249 C   0  0  0  0  0  0  0  0  0  0  0  0
   -5.2755    0.9371    0.0146 C   0  0  0  0  0  0  0  0  0  0  0  0
   -5.0927    1.4508   -1.2786 C   0  0  0  0  0  0  0  0  0  0  0  0
   -5.5210    0.7308   -2.3959 C   0  0  0  0  0  0  0  0  0  0  0  0
   -6.1385   -0.5104   -2.2328 C   0  0  0  0  0  0  0  0  0  0  0  0
   -6.3427   -1.0206   -0.9520 C   0  0  0  0  0  0  0  0  0  0  0  0
   -5.9162   -0.3017    0.1677 C   0  0  0  0  0  0  0  0  0  0  0  0
   -3.0096    0.1233    2.1610 C   0  0  0  0  0  0  0  0  0  0  0  0
   -2.8788   -0.0718    3.3673 O   0  0  0  0  0  0  0  0  0  0  0  0
   -2.9537   -0.9028    1.2341 N   0  0  0  0  0  0  0  0  0  0  0  0
   -2.0927   -2.0434    1.5164 C   0  0  0  0  0  0  0  0  0  0  0  0
   -2.5685   -3.3473    0.8620 C   0  0  0  0  0  0  0  0  0  0  0  0
   -3.0079   -3.2947   -0.6175 C   0  0  0  0  0  0  0  0  0  0  0  0
   -3.5669   -4.6600   -1.0285 C   0  0  0  0  0  0  0  0  0  0  0  0
   -1.8911   -2.8944   -1.5805 C   0  0  0  0  0  0  0  0  0  0  0  0
   -0.6753   -1.6105    1.0923 C   0  0  0  0  0  0  0  0  0  0  0  0
   -0.4847   -0.5829    0.4378 O   0  0  0  0  0  0  0  0  0  0  0  0
    0.3502   -2.4545    1.4735 N   0  0  0  0  0  0  0  0  0  0  0  0
    1.7289   -1.9635    1.3254 C   0  0  0  0  0  0  0  0  0  0  0  0
    2.7695   -2.9815    1.8104 C   0  0  0  0  0  0  0  0  0  0  0  0
    2.6546   -3.3053    3.2824 C   0  0  0  0  0  0  0  0  0  0  0  0
    2.2573   -4.5827    3.6998 C   0  0  0  0  0  0  0  0  0  0  0  0
    2.1514   -4.8808    5.0591 C   0  0  0  0  0  0  0  0  0  0  0  0
    2.4444   -3.9073    6.0111 C   0  0  0  0  0  0  0  0  0  0  0  0
    2.8408   -2.6349    5.6064 C   0  0  0  0  0  0  0  0  0  0  0  0
    2.9484   -2.3336    4.2489 C   0  0  0  0  0  0  0  0  0  0  0  0
    2.0349   -1.6804   -0.1470 C   0  0  0  0  0  0  0  0  0  0  0  0
    1.7686   -2.4321   -1.0792 O   0  0  0  0  0  0  0  0  0  0  0  0
    2.6226   -0.4576   -0.2678 O   0  0  0  0  0  0  0  0  0  0  0  0
    9.1805   -0.4099   -1.7206 H   0  0  0  0  0  0  0  0  0  0  0  0
    8.0766    0.8932   -1.2756 H   0  0  0  0  0  0  0  0  0  0  0  0
    8.2251    0.4022   -2.9764 H   0  0  0  0  0  0  0  0  0  0  0  0
    7.0901   -1.3251   -0.7077 H   0  0  0  0  0  0  0  0  0  0  0  0
    7.3538   -1.8763   -2.3563 H   0  0  0  0  0  0  0  0  0  0  0  0
    5.0380   -1.3606   -2.1326 H   0  0  0  0  0  0  0  0  0  0  0  0
    5.7432   -0.1523   -3.2029 H   0  0  0  0  0  0  0  0  0  0  0  0
    5.8713    1.4610   -1.2778 H   0  0  0  0  0  0  0  0  0  0  0  0
    5.1488    0.2581   -0.2185 H   0  0  0  0  0  0  0  0  0  0  0  0
    3.5718    1.9771   -1.0170 H   0  0  0  0  0  0  0  0  0  0  0  0
    3.8557    1.5328   -2.6937 H   0  0  0  0  0  0  0  0  0  0  0  0
    2.9204   -0.7085   -2.3060 H   0  0  0  0  0  0  0  0  0  0  0  0
    0.5686   -0.1606   -2.0288 H   0  0  0  0  0  0  0  0  0  0  0  0
    1.3719    1.0593   -3.0197 H   0  0  0  0  0  0  0  0  0  0  0  0
   -0.9424    1.6940   -2.3024 H   0  0  0  0  0  0  0  0  0  0  0  0
   -1.8463    3.6650   -1.8868 H   0  0  0  0  0  0  0  0  0  0  0  0
    0.6460    4.5339   -1.4307 H   0  0  0  0  0  0  0  0  0  0  0  0
    0.1366    4.5047    0.2543 H   0  0  0  0  0  0  0  0  0  0  0  0
   -1.8214    6.0469   -0.4226 H   0  0  0  0  0  0  0  0  0  0  0  0
   -1.5201    7.3225   -2.5495 H   0  0  0  0  0  0  0  0  0  0  0  0
   -1.8977    5.6293   -2.8517 H   0  0  0  0  0  0  0  0  0  0  0  0
   -0.2304    6.2111   -3.0348 H   0  0  0  0  0  0  0  0  0  0  0  0
    1.0332    7.0541   -0.8599 H   0  0  0  0  0  0  0  0  0  0  0  0
   -0.3783    8.0566   -0.4761 H   0  0  0  0  0  0  0  0  0  0  0  0
    0.2200    6.8777    0.6990 H   0  0  0  0  0  0  0  0  0  0  0  0
   -1.5719    1.1908    0.3125 H   0  0  0  0  0  0  0  0  0  0  0  0
   -3.0372    2.2218    2.3781 H   0  0  0  0  0  0  0  0  0  0  0  0
   -5.3916    1.4210    2.0939 H   0  0  0  0  0  0  0  0  0  0  0  0
   -4.9920    2.7656    1.0582 H   0  0  0  0  0  0  0  0  0  0  0  0
   -4.6216    2.4239   -1.4204 H   0  0  0  0  0  0  0  0  0  0  0  0
   -5.3754    1.1389   -3.3930 H   0  0  0  0  0  0  0  0  0  0  0  0
   -6.4713   -1.0730   -3.1021 H   0  0  0  0  0  0  0  0  0  0  0  0
   -6.8248   -1.9875   -0.8208 H   0  0  0  0  0  0  0  0  0  0  0  0
   -6.0815   -0.7176    1.1613 H   0  0  0  0  0  0  0  0  0  0  0  0
   -2.9634   -0.5891    0.2685 H   0  0  0  0  0  0  0  0  0  0  0  0
   -2.0562   -2.1996    2.6029 H   0  0  0  0  0  0  0  0  0  0  0  0
   -3.4345   -3.6930    1.4452 H   0  0  0  0  0  0  0  0  0  0  0  0
   -1.7966   -4.1192    0.9818 H   0  0  0  0  0  0  0  0  0  0  0  0
   -3.8222   -2.5703   -0.7196 H   0  0  0  0  0  0  0  0  0  0  0  0
   -4.3905   -4.9580   -0.3697 H   0  0  0  0  0  0  0  0  0  0  0  0
   -2.7947   -5.4371   -0.9770 H   0  0  0  0  0  0  0  0  0  0  0  0
   -3.9544   -4.6333   -2.0520 H   0  0  0  0  0  0  0  0  0  0  0  0
   -1.6407   -1.8360   -1.4807 H   0  0  0  0  0  0  0  0  0  0  0  0
   -2.2014   -3.0433   -2.6204 H   0  0  0  0  0  0  0  0  0  0  0  0
   -0.9864   -3.4861   -1.4093 H   0  0  0  0  0  0  0  0  0  0  0  0
    0.1689   -2.9841    2.3166 H   0  0  0  0  0  0  0  0  0  0  0  0
    1.7939   -1.0265    1.8917 H   0  0  0  0  0  0  0  0  0  0  0  0
    2.6833   -3.9064    1.2240 H   0  0  0  0  0  0  0  0  0  0  0  0
    3.7853   -2.6063    1.6207 H   0  0  0  0  0  0  0  0  0  0  0  0
    2.0358   -5.3595    2.9702 H   0  0  0  0  0  0  0  0  0  0  0  0
    1.8449   -5.8742    5.3753 H   0  0  0  0  0  0  0  0  0  0  0  0
    2.3654   -4.1413    7.0693 H   0  0  0  0  0  0  0  0  0  0  0  0
    3.0719   -1.8756    6.3493 H   0  0  0  0  0  0  0  0  0  0  0  0
    3.2687   -1.3355    3.9539 H   0  0  0  0  0  0  0  0  0  0  0  0
  1  2  1  0
  2  3  1  0
  3  4  1  0
  4  5  1  0
  5  6  1  0
  6  7  1  0
  7  8  1  0
  8  9  2  0
  8 10  1  0
 10 11  1  0
 11 12  1  0
 12 13  1  0
 13 14  1  0
 13 15  1  0
 11 16  1  0
 16 17  2  0
 16 18  1  0
 18 19  1  0
 19 20  1  0
 20 21  1  0
 21 22  2  0
 22 23  1  0
 23 24  2  0
 24 25  1  0
 25 26  2  0
 19 27  1  0
 27 28  2  0
 27 29  1  0
 29 30  1  0
 30 31  1  0
 31 32  1  0
 32 33  1  0
 32 34  1  0
 30 35  1  0
 35 36  2  0
 35 37  1  0
 37 38  1  0
 38 39  1  0
 39 40  1  0
 40 41  2  0
 41 42  1  0
 42 43  2  0
 43 44  1  0
 44 45  2  0
 38 46  1  0
 46 47  2  0
 46 48  1  0
 48  6  1  0
 26 21  1  0
 45 40  1  0
  1 49  1  0
  1 50  1  0
  1 51  1  0
  2 52  1  0
  2 53  1  0
  3 54  1  0
  3 55  1  0
  4 56  1  0
  4 57  1  0
  5 58  1  0
  5 59  1  0
  6 60  1  0
  7 61  1  0
  7 62  1  0
 10 63  1  0
 11 64  1  0
 12 65  1  0
 12 66  1  0
 13 67  1  0
 14 68  1  0
 14 69  1  0
 14 70  1  0
 15 71  1  0
 15 72  1  0
 15 73  1  0
 18 74  1  0
 19 75  1  0
 20 76  1  0
 20 77  1  0
 22 78  1  0
 23 79  1  0
 24 80  1  0
 25 81  1  0
 26 82  1  0
 29 83  1  0
 30 84  1  0
 31 85  1  0
 31 86  1  0
 32 87  1  0
 33 88  1  0
 33 89  1  0
 33 90  1  0
 34 91  1  0
 34 92  1  0
 34 93  1  0
 37 94  1  0
 38 95  1  0
 39 96  1  0
 39 97  1  0
 41 98  1  0
 42 99  1  0
 43100  1  0
 44101  1  0
 45102  1  0
M  END
$$$$
