
     RDKit          3D

 54 57  0  0  0  0  0  0  0  0999 V2000
   -6.5434    1.2499   -2.3463 C   0  0  0  0  0  0  0  0  0  0  0  0
   -5.3980    1.3323   -1.3821 C   0  0  0  0  0  0  0  0  0  0  0  0
   -5.3119    2.3811   -0.4672 C   0  0  0  0  0  0  0  0  0  0  0  0
   -4.2673    2.4255    0.4566 C   0  0  0  0  0  0  0  0  0  0  0  0
   -3.2898    1.4155    0.4955 C   0  0  0  0  0  0  0  0  0  0  0  0
   -2.2033    1.5176    1.5345 C   0  0  0  0  0  0  0  0  0  0  0  0
   -3.3498    0.3532   -0.4366 C   0  0  0  0  0  0  0  0  0  0  0  0
   -2.3472   -0.7232   -0.4993 C   0  0  0  0  0  0  0  0  0  0  0  0
   -1.0075   -0.4718   -0.7300 C   0  0  0  0  0  0  0  0  0  0  0  0
   -0.1271   -1.5546   -0.7677 C   0  0  0  0  0  0  0  0  0  0  0  0
    1.3131   -1.2575   -0.9775 C   0  0  0  0  0  0  0  0  0  0  0  0
    1.8886   -1.7982   -1.9108 O   0  0  0  0  0  0  0  0  0  0  0  0
    1.8221   -0.3794   -0.0417 N   0  0  0  0  0  0  0  0  0  0  0  0
    3.1017    0.1538    0.0150 C   0  0  0  0  0  0  0  0  0  0  0  0
    4.2658   -0.2136   -1.1515 S   0  0  0  0  0  0  0  0  0  0  0  0
    5.4241    0.8123   -0.4390 C   0  0  0  0  0  0  0  0  0  0  0  0
    6.7699    0.9431   -1.0769 C   0  0  0  0  0  0  0  0  0  0  0  0
    4.9324    1.4559    0.6887 C   0  0  0  0  0  0  0  0  0  0  0  0
    5.7103    2.4821    1.4549 C   0  0  0  0  0  0  0  0  0  0  0  0
    3.5757    1.0184    0.9943 C   0  0  0  0  0  0  0  0  0  0  0  0
    2.7251    1.4036    2.1238 C   0  0  0  0  0  0  0  0  0  0  0  0
    3.3607    1.7595    3.2779 N   0  0  0  0  0  0  0  0  0  0  0  0
    1.4977    1.3387    2.0921 O   0  0  0  0  0  0  0  0  0  0  0  0
   -0.5934   -2.8776   -0.6093 C   0  0  0  0  0  0  0  0  0  0  0  0
    0.2221   -4.0376   -0.6340 C   0  0  0  0  0  0  0  0  0  0  0  0
   -0.3256   -5.3073   -0.4611 C   0  0  0  0  0  0  0  0  0  0  0  0
   -1.6912   -5.4389   -0.2579 C   0  0  0  0  0  0  0  0  0  0  0  0
   -2.4981   -4.2994   -0.2287 C   0  0  0  0  0  0  0  0  0  0  0  0
   -1.9775   -3.0234   -0.3985 C   0  0  0  0  0  0  0  0  0  0  0  0
   -2.8240   -1.9811   -0.3448 N   0  0  0  0  0  0  0  0  0  0  0  0
   -4.4260    0.3239   -1.3484 C   0  0  0  0  0  0  0  0  0  0  0  0
   -6.2329    0.7702   -3.2806 H   0  0  0  0  0  0  0  0  0  0  0  0
   -7.3621    0.6724   -1.9062 H   0  0  0  0  0  0  0  0  0  0  0  0
   -6.9128    2.2486   -2.6019 H   0  0  0  0  0  0  0  0  0  0  0  0
   -6.0615    3.1691   -0.4610 H   0  0  0  0  0  0  0  0  0  0  0  0
   -4.2275    3.2535    1.1616 H   0  0  0  0  0  0  0  0  0  0  0  0
   -1.2932    1.9316    1.0904 H   0  0  0  0  0  0  0  0  0  0  0  0
   -2.5063    2.1723    2.3591 H   0  0  0  0  0  0  0  0  0  0  0  0
   -1.9861    0.5401    1.9767 H   0  0  0  0  0  0  0  0  0  0  0  0
   -0.6569    0.5424   -0.8935 H   0  0  0  0  0  0  0  0  0  0  0  0
    1.2012   -0.0536    0.6988 H   0  0  0  0  0  0  0  0  0  0  0  0
    6.8352    1.8884   -1.6256 H   0  0  0  0  0  0  0  0  0  0  0  0
    6.9800    0.1275   -1.7767 H   0  0  0  0  0  0  0  0  0  0  0  0
    7.5569    0.9312   -0.3156 H   0  0  0  0  0  0  0  0  0  0  0  0
    5.0583    3.2840    1.8145 H   0  0  0  0  0  0  0  0  0  0  0  0
    6.4744    2.9547    0.8292 H   0  0  0  0  0  0  0  0  0  0  0  0
    6.2128    2.0180    2.3091 H   0  0  0  0  0  0  0  0  0  0  0  0
    4.3164    1.4759    3.4366 H   0  0  0  0  0  0  0  0  0  0  0  0
    2.7672    1.8499    4.0919 H   0  0  0  0  0  0  0  0  0  0  0  0
    1.2955   -3.9585   -0.8004 H   0  0  0  0  0  0  0  0  0  0  0  0
    0.3137   -6.1859   -0.4906 H   0  0  0  0  0  0  0  0  0  0  0  0
   -2.1344   -6.4220   -0.1234 H   0  0  0  0  0  0  0  0  0  0  0  0
   -3.5684   -4.4099   -0.0669 H   0  0  0  0  0  0  0  0  0  0  0  0
   -4.4978   -0.5084   -2.0490 H   0  0  0  0  0  0  0  0  0  0  0  0
  1  2  1  0
  2  3  2  0
  3  4  1  0
  4  5  2  0
  5  6  1  0
  5  7  1  0
  7  8  1  0
  8  9  2  0
  9 10  1  0
 10 11  1  0
 11 12  2  0
 11 13  1  0
 13 14  1  0
 14 15  1  0
 15 16  1  0
 16 17  1  0
 16 18  2  0
 18 19  1  0
 18 20  1  0
 20 21  1  0
 21 22  1  0
 21 23  2  0
 10 24  2  0
 24 25  1  0
 25 26  2  0
 26 27  1  0
 27 28  2  0
 28 29  1  0
 29 30  2  0
  7 31  2  0
 31  2  1  0
 30  8  1  0
 20 14  2  0
 29 24  1  0
  1 32  1  0
  1 33  1  0
  1 34  1  0
  3 35  1  0
  4 36  1  0
  6 37  1  0
  6 38  1  0
  6 39  1  0
  9 40  1  0
 13 41  1  0
 17 42  1  0
 17 43  1  0
 17 44  1  0
 19 45  1  0
 19 46  1  0
 19 47  1  0
 22 48  1  0
 22 49  1  0
 25 50  1  0
 26 51  1  0
 27 52  1  0
 28 53  1  0
 31 54  1  0
M  END
$$$$
