
     RDKit          3D

 40 42  0  0  0  0  0  0  0  0999 V2000
   -5.5825    0.5494    0.2873 C   0  0  0  0  0  0  0  0  0  0  0  0
   -5.7566   -0.6738   -0.4124 O   0  0  0  0  0  0  0  0  0  0  0  0
   -4.6624   -1.4868   -0.5505 C   0  0  0  0  0  0  0  0  0  0  0  0
   -3.3932   -1.2219   -0.0255 C   0  0  0  0  0  0  0  0  0  0  0  0
   -2.3350   -2.1209   -0.2282 C   0  0  0  0  0  0  0  0  0  0  0  0
   -1.0201   -1.8207    0.3489 C   0  0  0  0  0  0  0  0  0  0  0  0
    0.0998   -1.5585   -0.3384 C   0  0  0  0  0  0  0  0  0  0  0  0
    0.3073   -1.4971   -2.0515 S   0  0  0  0  0  0  0  0  0  0  0  0
    2.0201   -1.0817   -1.9371 C   0  0  0  0  0  0  0  0  0  0  0  0
    3.0047   -0.9005   -3.2718 S   0  0  0  0  0  0  0  0  0  0  0  0
    2.3462   -0.9787   -0.6003 N   0  0  0  0  0  0  0  0  0  0  0  0
    3.6448   -0.6212   -0.1616 N   0  0  0  0  0  0  0  0  0  0  0  0
    3.7684    0.7842    0.0601 C   0  0  0  0  0  0  0  0  0  0  0  0
    2.7998    1.6207   -0.3972 N   0  0  0  0  0  0  0  0  0  0  0  0
    2.9673    2.9534   -0.2235 C   0  0  0  0  0  0  0  0  0  0  0  0
    4.0718    3.5238    0.3894 C   0  0  0  0  0  0  0  0  0  0  0  0
    4.1564    5.0091    0.5579 C   0  0  0  0  0  0  0  0  0  0  0  0
    3.6030    5.6941   -0.4794 F   0  0  0  0  0  0  0  0  0  0  0  0
    3.5119    5.4363    1.6768 F   0  0  0  0  0  0  0  0  0  0  0  0
    5.4355    5.4615    0.6649 F   0  0  0  0  0  0  0  0  0  0  0  0
    5.0615    2.6597    0.8654 C   0  0  0  0  0  0  0  0  0  0  0  0
    4.9162    1.2829    0.6947 C   0  0  0  0  0  0  0  0  0  0  0  0
    6.1521    0.2383    1.2954 Cl  0  0  0  0  0  0  0  0  0  0  0  0
    1.3819   -1.2541    0.3528 C   0  0  0  0  0  0  0  0  0  0  0  0
    1.5505   -1.2848    1.5655 O   0  0  0  0  0  0  0  0  0  0  0  0
   -2.5551   -3.3004   -0.9475 C   0  0  0  0  0  0  0  0  0  0  0  0
   -3.8165   -3.5751   -1.4757 C   0  0  0  0  0  0  0  0  0  0  0  0
   -4.8587   -2.6704   -1.2760 C   0  0  0  0  0  0  0  0  0  0  0  0
   -6.0981   -2.9390   -1.7937 O   0  0  0  0  0  0  0  0  0  0  0  0
   -6.5425    1.0747    0.2874 H   0  0  0  0  0  0  0  0  0  0  0  0
   -4.8521    1.1923   -0.2151 H   0  0  0  0  0  0  0  0  0  0  0  0
   -5.3016    0.3707    1.3304 H   0  0  0  0  0  0  0  0  0  0  0  0
   -3.2025   -0.3173    0.5428 H   0  0  0  0  0  0  0  0  0  0  0  0
   -1.0012   -1.7980    1.4380 H   0  0  0  0  0  0  0  0  0  0  0  0
    3.8629   -1.0917    0.7215 H   0  0  0  0  0  0  0  0  0  0  0  0
    2.1546    3.5657   -0.6119 H   0  0  0  0  0  0  0  0  0  0  0  0
    5.9438    3.0584    1.3628 H   0  0  0  0  0  0  0  0  0  0  0  0
   -1.7495   -4.0147   -1.1016 H   0  0  0  0  0  0  0  0  0  0  0  0
   -3.9683   -4.4933   -2.0342 H   0  0  0  0  0  0  0  0  0  0  0  0
   -6.0645   -3.7746   -2.2838 H   0  0  0  0  0  0  0  0  0  0  0  0
  1  2  1  0
  2  3  1  0
  3  4  2  0
  4  5  1  0
  5  6  1  0
  6  7  2  3
  7  8  1  0
  8  9  1  0
  9 10  2  0
  9 11  1  0
 11 12  1  0
 12 13  1  0
 13 14  2  0
 14 15  1  0
 15 16  2  0
 16 17  1  0
 17 18  1  0
 17 19  1  0
 17 20  1  0
 16 21  1  0
 21 22  2  0
 22 23  1  0
 11 24  1  0
 24 25  2  0
  5 26  2  0
 26 27  1  0
 27 28  2  0
 28 29  1  0
 28  3  1  0
 24  7  1  0
 22 13  1  0
  1 30  1  0
  1 31  1  0
  1 32  1  0
  4 33  1  0
  6 34  1  0
 12 35  1  0
 15 36  1  0
 21 37  1  0
 26 38  1  0
 27 39  1  0
 29 40  1  0
M  END
$$$$
