
     RDKit          3D

 67 72  0  0  0  0  0  0  0  0999 V2000
   -5.1882    3.6357    1.9593 C   0  0  0  0  0  0  0  0  0  0  0  0
   -3.9734    3.1465    1.2292 C   0  0  0  0  0  0  0  0  0  0  0  0
   -3.4313    3.8558    0.1411 C   0  0  0  0  0  0  0  0  0  0  0  0
   -4.1350    5.3408   -0.4026 Cl  0  0  0  0  0  0  0  0  0  0  0  0
   -2.3005    3.3876   -0.5562 C   0  0  0  0  0  0  0  0  0  0  0  0
   -1.6773    2.1941   -0.1903 C   0  0  0  0  0  0  0  0  0  0  0  0
   -2.2009    1.4834    0.8799 C   0  0  0  0  0  0  0  0  0  0  0  0
   -3.3339    1.9574    1.5615 C   0  0  0  0  0  0  0  0  0  0  0  0
   -3.6888    1.0574    2.5641 N   0  0  0  0  0  0  0  0  0  0  0  0
   -2.8452   -0.0548    2.5917 C   0  0  0  0  0  0  0  0  0  0  0  0
   -2.9693   -0.9950    3.3634 O   0  0  0  0  0  0  0  0  0  0  0  0
   -1.7689    0.1757    1.4989 C   0  0  1  0  0  0  0  0  0  0  0  0
   -1.7646   -0.8392    0.4249 C   0  0  0  0  0  0  0  0  0  0  0  0
   -0.5072   -1.4266    0.2834 C   0  0  0  0  0  0  0  0  0  0  0  0
   -0.5739   -2.3809   -0.6981 C   0  0  0  0  0  0  0  0  0  0  0  0
    0.3741   -3.1805   -1.1782 O   0  0  0  0  0  0  0  0  0  0  0  0
   -1.8830   -2.3491   -1.2203 N   0  0  0  0  0  0  0  0  0  0  0  0
   -2.3616   -3.0792   -2.3553 C   0  0  0  0  0  0  0  0  0  0  0  0
   -3.3687   -2.5374   -3.1685 C   0  0  0  0  0  0  0  0  0  0  0  0
   -3.8231   -3.2482   -4.2784 C   0  0  0  0  0  0  0  0  0  0  0  0
   -4.7798   -2.7154   -5.0495 F   0  0  0  0  0  0  0  0  0  0  0  0
   -3.2990   -4.4892   -4.6038 C   0  0  0  0  0  0  0  0  0  0  0  0
   -2.2974   -5.0165   -3.8033 C   0  0  0  0  0  0  0  0  0  0  0  0
   -1.7825   -6.2165   -4.1020 F   0  0  0  0  0  0  0  0  0  0  0  0
   -1.8205   -4.3274   -2.6890 C   0  0  0  0  0  0  0  0  0  0  0  0
   -2.6330   -1.4436   -0.4433 C   0  0  0  0  0  0  0  0  0  0  0  0
   -3.9509   -1.2728   -0.5283 O   0  0  0  0  0  0  0  0  0  0  0  0
    0.4602   -0.8664    1.2517 C   0  0  1  0  0  0  0  0  0  0  0  0
    1.6772   -0.1768    0.6093 C   0  0  0  0  0  0  0  0  0  0  0  0
    2.4694    0.5773    1.5870 N   0  0  0  0  0  0  0  0  0  0  0  0
    3.8012    0.8854    1.4035 C   0  0  0  0  0  0  0  0  0  0  0  0
    4.4709    1.5022    2.2206 O   0  0  0  0  0  0  0  0  0  0  0  0
    4.2648    0.4275    0.2125 O   0  0  0  0  0  0  0  0  0  0  0  0
    5.6420    0.6454   -0.1881 C   0  0  0  0  0  0  0  0  0  0  0  0
    6.6181   -0.0509    0.7664 C   0  0  0  0  0  0  0  0  0  0  0  0
    5.9503    2.1393   -0.3365 C   0  0  0  0  0  0  0  0  0  0  0  0
    5.7520   -0.0177   -1.5699 C   0  0  0  0  0  0  0  0  0  0  0  0
    1.7751    1.0489    2.7877 C   0  0  0  0  0  0  0  0  0  0  0  0
    0.2727    1.2727    2.5286 C   0  0  0  0  0  0  0  0  0  0  0  0
   -0.3914    0.0574    2.0662 N   0  0  0  0  0  0  0  0  0  0  0  0
   -6.0663    3.5846    1.3076 H   0  0  0  0  0  0  0  0  0  0  0  0
   -5.0448    4.6675    2.2965 H   0  0  0  0  0  0  0  0  0  0  0  0
   -5.4046    3.0448    2.8534 H   0  0  0  0  0  0  0  0  0  0  0  0
   -1.9072    3.9562   -1.3967 H   0  0  0  0  0  0  0  0  0  0  0  0
   -0.8131    1.8331   -0.7384 H   0  0  0  0  0  0  0  0  0  0  0  0
   -4.4836    1.1306    3.1799 H   0  0  0  0  0  0  0  0  0  0  0  0
    1.1738   -3.0711   -0.6347 H   0  0  0  0  0  0  0  0  0  0  0  0
   -3.7821   -1.5464   -2.9997 H   0  0  0  0  0  0  0  0  0  0  0  0
   -3.6593   -5.0335   -5.4683 H   0  0  0  0  0  0  0  0  0  0  0  0
   -1.0535   -4.8079   -2.0899 H   0  0  0  0  0  0  0  0  0  0  0  0
   -4.3536   -2.0963   -0.8587 H   0  0  0  0  0  0  0  0  0  0  0  0
    0.8118   -1.6615    1.9213 H   0  0  0  0  0  0  0  0  0  0  0  0
    1.3635    0.5385   -0.1616 H   0  0  0  0  0  0  0  0  0  0  0  0
    2.3091   -0.9227    0.1136 H   0  0  0  0  0  0  0  0  0  0  0  0
    6.3267   -1.0950    0.9261 H   0  0  0  0  0  0  0  0  0  0  0  0
    6.6366    0.4238    1.7519 H   0  0  0  0  0  0  0  0  0  0  0  0
    7.6409   -0.0304    0.3750 H   0  0  0  0  0  0  0  0  0  0  0  0
    5.9573    2.6536    0.6291 H   0  0  0  0  0  0  0  0  0  0  0  0
    6.9300    2.2998   -0.7993 H   0  0  0  0  0  0  0  0  0  0  0  0
    5.1893    2.6343   -0.9503 H   0  0  0  0  0  0  0  0  0  0  0  0
    6.7595    0.0774   -1.9883 H   0  0  0  0  0  0  0  0  0  0  0  0
    5.5003   -1.0832   -1.5118 H   0  0  0  0  0  0  0  0  0  0  0  0
    5.0408    0.4291   -2.2744 H   0  0  0  0  0  0  0  0  0  0  0  0
    2.2344    1.9778    3.1433 H   0  0  0  0  0  0  0  0  0  0  0  0
    1.9211    0.2898    3.5658 H   0  0  0  0  0  0  0  0  0  0  0  0
   -0.2055    1.6238    3.4495 H   0  0  0  0  0  0  0  0  0  0  0  0
    0.1997    2.0769    1.7896 H   0  0  0  0  0  0  0  0  0  0  0  0
  1  2  1  0
  2  3  2  0
  3  4  1  0
  3  5  1  0
  5  6  2  0
  6  7  1  0
  7  8  2  0
  8  9  1  0
  9 10  1  0
 10 11  2  0
 10 12  1  0
 12 13  1  0
 13 14  1  0
 14 15  2  0
 15 16  1  0
 15 17  1  0
 17 18  1  0
 18 19  2  0
 19 20  1  0
 20 21  1  0
 20 22  2  0
 22 23  1  0
 23 24  1  0
 23 25  2  0
 17 26  1  0
 26 27  1  0
 14 28  1  0
 28 29  1  0
 29 30  1  0
 30 31  1  0
 31 32  2  0
 31 33  1  0
 33 34  1  0
 34 35  1  0
 34 36  1  0
 34 37  1  0
 30 38  1  0
 38 39  1  0
 39 40  1  0
  8  2  1  0
 12 40  1  1
 12  7  1  0
 26 13  2  0
 40 28  1  0
 25 18  1  0
  1 41  1  0
  1 42  1  0
  1 43  1  0
  5 44  1  0
  6 45  1  0
  9 46  1  0
 16 47  1  0
 19 48  1  0
 22 49  1  0
 25 50  1  0
 27 51  1  0
 28 52  1  1
 29 53  1  0
 29 54  1  0
 35 55  1  0
 35 56  1  0
 35 57  1  0
 36 58  1  0
 36 59  1  0
 36 60  1  0
 37 61  1  0
 37 62  1  0
 37 63  1  0
 38 64  1  0
 38 65  1  0
 39 66  1  0
 39 67  1  0
M  END
$$$$
