
     RDKit          3D

 58 63  0  0  0  0  0  0  0  0999 V2000
    5.5763    4.4411   -0.3376 C   0  0  0  0  0  0  0  0  0  0  0  0
    5.4709    2.9770   -0.0808 C   0  0  0  0  0  0  0  0  0  0  0  0
    6.3539    1.9782   -0.4337 C   0  0  0  0  0  0  0  0  0  0  0  0
    5.9140    0.6941   -0.0005 C   0  0  0  0  0  0  0  0  0  0  0  0
    4.6869    0.7431    0.6317 C   0  0  0  0  0  0  0  0  0  0  0  0
    3.9704   -0.3677    1.2388 C   0  0  0  0  0  0  0  0  0  0  0  0
    4.5436   -1.1503    1.9985 O   0  0  0  0  0  0  0  0  0  0  0  0
    2.6139   -0.5530    0.9278 N   0  0  0  0  0  0  0  0  0  0  0  0
    1.8868   -1.5748    1.6690 C   0  0  0  0  0  0  0  0  0  0  0  0
    0.3805   -1.3689    1.5661 C   0  0  0  0  0  0  0  0  0  0  0  0
   -0.0987   -1.5147    0.0995 C   0  0  0  0  0  0  0  0  0  0  0  0
    0.9455   -0.8941   -0.8794 C   0  0  0  0  0  0  0  0  0  0  0  0
    1.9400    0.0566   -0.2158 C   0  0  0  0  0  0  0  0  0  0  0  0
   -0.0650   -2.9330   -0.2395 O   0  0  0  0  0  0  0  0  0  0  0  0
   -1.1201   -3.7098    0.1383 C   0  0  0  0  0  0  0  0  0  0  0  0
   -0.9397   -5.0879    0.0235 C   0  0  0  0  0  0  0  0  0  0  0  0
   -1.9569   -5.9629    0.4138 C   0  0  0  0  0  0  0  0  0  0  0  0
   -3.1549   -5.4556    0.9172 C   0  0  0  0  0  0  0  0  0  0  0  0
   -4.4010   -6.5366    1.4033 Cl  0  0  0  0  0  0  0  0  0  0  0  0
   -3.3490   -4.0814    1.0259 C   0  0  0  0  0  0  0  0  0  0  0  0
   -2.3279   -3.2162    0.6215 C   0  0  0  0  0  0  0  0  0  0  0  0
   -2.5055   -1.7608    0.7016 C   0  0  0  0  0  0  0  0  0  0  0  0
   -3.3930   -1.2887    1.4067 O   0  0  0  0  0  0  0  0  0  0  0  0
   -1.5242   -0.9306   -0.1173 C   0  0  0  0  0  0  0  0  0  0  0  0
   -1.6758    0.5540    0.1739 C   0  0  0  0  0  0  0  0  0  0  0  0
   -2.6394    0.9006   -0.9107 C   0  0  0  0  0  0  0  0  0  0  0  0
   -3.3842    2.1818   -0.9278 C   0  0  0  0  0  0  0  0  0  0  0  0
   -4.3237    2.4048   -1.9440 C   0  0  0  0  0  0  0  0  0  0  0  0
   -5.0405    3.6036   -1.9930 C   0  0  0  0  0  0  0  0  0  0  0  0
   -4.8181    4.5814   -1.0266 C   0  0  0  0  0  0  0  0  0  0  0  0
   -5.6969    6.0585   -1.0847 Cl  0  0  0  0  0  0  0  0  0  0  0  0
   -3.8849    4.3704   -0.0125 C   0  0  0  0  0  0  0  0  0  0  0  0
   -3.1660    3.1711    0.0385 C   0  0  0  0  0  0  0  0  0  0  0  0
   -2.7389    0.0124   -1.8480 N   0  0  0  0  0  0  0  0  0  0  0  0
   -1.9051   -1.0718   -1.4975 O   0  0  0  0  0  0  0  0  0  0  0  0
    4.1293    2.3559    0.7812 S   0  0  0  0  0  0  0  0  0  0  0  0
    5.6424    4.9959    0.6041 H   0  0  0  0  0  0  0  0  0  0  0  0
    6.4704    4.6715   -0.9262 H   0  0  0  0  0  0  0  0  0  0  0  0
    4.7063    4.8019   -0.8962 H   0  0  0  0  0  0  0  0  0  0  0  0
    7.2818    2.1581   -0.9640 H   0  0  0  0  0  0  0  0  0  0  0  0
    6.4651   -0.2277   -0.1479 H   0  0  0  0  0  0  0  0  0  0  0  0
    2.1940   -1.5406    2.7207 H   0  0  0  0  0  0  0  0  0  0  0  0
    2.1822   -2.5538    1.2731 H   0  0  0  0  0  0  0  0  0  0  0  0
    0.1343   -0.3742    1.9567 H   0  0  0  0  0  0  0  0  0  0  0  0
   -0.1094   -2.1017    2.2169 H   0  0  0  0  0  0  0  0  0  0  0  0
    0.4554   -0.3638   -1.7036 H   0  0  0  0  0  0  0  0  0  0  0  0
    1.5242   -1.6970   -1.3579 H   0  0  0  0  0  0  0  0  0  0  0  0
    2.6724    0.3724   -0.9651 H   0  0  0  0  0  0  0  0  0  0  0  0
    1.4290    0.9516    0.1515 H   0  0  0  0  0  0  0  0  0  0  0  0
   -0.0038   -5.4844   -0.3639 H   0  0  0  0  0  0  0  0  0  0  0  0
   -1.8075   -7.0363    0.3246 H   0  0  0  0  0  0  0  0  0  0  0  0
   -4.2860   -3.6847    1.4096 H   0  0  0  0  0  0  0  0  0  0  0  0
   -2.0563    0.7781    1.1727 H   0  0  0  0  0  0  0  0  0  0  0  0
   -0.7638    1.1266   -0.0056 H   0  0  0  0  0  0  0  0  0  0  0  0
   -4.5068    1.6461   -2.7034 H   0  0  0  0  0  0  0  0  0  0  0  0
   -5.7678    3.7640   -2.7848 H   0  0  0  0  0  0  0  0  0  0  0  0
   -3.7134    5.1348    0.7416 H   0  0  0  0  0  0  0  0  0  0  0  0
   -2.4451    3.0377    0.8395 H   0  0  0  0  0  0  0  0  0  0  0  0
  1  2  1  0
  2  3  2  0
  3  4  1  0
  4  5  2  0
  5  6  1  0
  6  7  2  0
  6  8  1  0
  8  9  1  0
  9 10  1  0
 10 11  1  0
 11 12  1  0
 12 13  1  0
 11 14  1  0
 14 15  1  0
 15 16  2  0
 16 17  1  0
 17 18  2  0
 18 19  1  0
 18 20  1  0
 20 21  2  0
 21 22  1  0
 22 23  2  0
 22 24  1  0
 24 25  1  0
 25 26  1  0
 26 27  1  0
 27 28  2  0
 28 29  1  0
 29 30  2  0
 30 31  1  0
 30 32  1  0
 32 33  2  0
 26 34  2  0
 34 35  1  0
  5 36  1  0
 36  2  1  0
 13  8  1  0
 21 15  1  0
 35 24  1  0
 24 11  1  0
 33 27  1  0
  1 37  1  0
  1 38  1  0
  1 39  1  0
  3 40  1  0
  4 41  1  0
  9 42  1  0
  9 43  1  0
 10 44  1  0
 10 45  1  0
 12 46  1  0
 12 47  1  0
 13 48  1  0
 13 49  1  0
 16 50  1  0
 17 51  1  0
 20 52  1  0
 25 53  1  0
 25 54  1  0
 28 55  1  0
 29 56  1  0
 32 57  1  0
 33 58  1  0
M  END
$$$$
