
     RDKit          3D

 39 40  0  0  0  0  0  0  0  0999 V2000
   -1.1999   -2.8200    2.3765 C   0  0  0  0  0  0  0  0  0  0  0  0
   -1.6250   -1.5020    1.7353 C   0  0  0  0  0  0  0  0  0  0  0  0
   -2.0400   -1.8019    0.4021 O   0  0  0  0  0  0  0  0  0  0  0  0
   -2.7303   -0.8601   -0.3160 C   0  0  0  0  0  0  0  0  0  0  0  0
   -3.1389    0.3838    0.1779 C   0  0  0  0  0  0  0  0  0  0  0  0
   -3.8419    1.2763   -0.6411 C   0  0  0  0  0  0  0  0  0  0  0  0
   -4.1386    0.9244   -1.9633 C   0  0  0  0  0  0  0  0  0  0  0  0
   -4.8775    1.8606   -2.8191 N   0  0  0  0  0  4  0  0  0  0  0  0
   -5.2673    2.9203   -2.3101 O   0  0  0  0  0  0  0  0  0  0  0  0
   -5.0677    1.5327   -3.9984 O   0  0  0  0  0  1  0  0  0  0  0  0
   -3.7351   -0.3114   -2.4756 C   0  0  0  0  0  0  0  0  0  0  0  0
   -3.0337   -1.1934   -1.6500 C   0  0  0  0  0  0  0  0  0  0  0  0
   -2.5324   -2.7056   -2.3263 Cl  0  0  0  0  0  0  0  0  0  0  0  0
   -0.4338   -0.5269    1.7678 C   0  0  0  0  0  0  0  0  0  0  0  0
   -0.3646    0.3457    2.6280 O   0  0  0  0  0  0  0  0  0  0  0  0
    0.4895   -0.7817    0.7664 N   0  0  0  0  0  0  0  0  0  0  0  0
    1.6949   -0.1041    0.5078 C   0  0  0  0  0  0  0  0  0  0  0  0
    2.4295   -0.5144   -0.6128 C   0  0  0  0  0  0  0  0  0  0  0  0
    3.6409    0.1051   -0.9432 C   0  0  0  0  0  0  0  0  0  0  0  0
    4.1350    1.1427   -0.1470 C   0  0  0  0  0  0  0  0  0  0  0  0
    5.4128    1.8388   -0.4540 C   0  0  0  0  0  0  0  0  0  0  0  0
    6.3348    1.1632   -1.2053 N   0  0  0  0  0  0  0  0  0  0  0  0
    5.6548    2.9600   -0.0266 O   0  0  0  0  0  0  0  0  0  0  0  0
    3.3976    1.5627    0.9645 C   0  0  0  0  0  0  0  0  0  0  0  0
    2.1877    0.9388    1.2928 C   0  0  0  0  0  0  0  0  0  0  0  0
   -0.8401   -2.6670    3.3989 H   0  0  0  0  0  0  0  0  0  0  0  0
   -0.4028   -3.3052    1.8017 H   0  0  0  0  0  0  0  0  0  0  0  0
   -2.0416   -3.5205    2.4008 H   0  0  0  0  0  0  0  0  0  0  0  0
   -2.4571   -1.0939    2.3206 H   0  0  0  0  0  0  0  0  0  0  0  0
   -2.9293    0.7042    1.1951 H   0  0  0  0  0  0  0  0  0  0  0  0
   -4.1464    2.2388   -0.2312 H   0  0  0  0  0  0  0  0  0  0  0  0
   -3.9568   -0.5943   -3.5025 H   0  0  0  0  0  0  0  0  0  0  0  0
    0.2247   -1.5081    0.1077 H   0  0  0  0  0  0  0  0  0  0  0  0
    2.0658   -1.3157   -1.2520 H   0  0  0  0  0  0  0  0  0  0  0  0
    4.1673   -0.2167   -1.8368 H   0  0  0  0  0  0  0  0  0  0  0  0
    6.3046    0.1600   -1.3132 H   0  0  0  0  0  0  0  0  0  0  0  0
    7.2413    1.6079   -1.2827 H   0  0  0  0  0  0  0  0  0  0  0  0
    3.7623    2.3794    1.5856 H   0  0  0  0  0  0  0  0  0  0  0  0
    1.6573    1.2976    2.1696 H   0  0  0  0  0  0  0  0  0  0  0  0
  1  2  1  0
  2  3  1  0
  3  4  1  0
  4  5  2  0
  5  6  1  0
  6  7  2  0
  7  8  1  0
  8  9  2  0
  8 10  1  0
  7 11  1  0
 11 12  2  0
 12 13  1  0
  2 14  1  0
 14 15  2  0
 14 16  1  0
 16 17  1  0
 17 18  2  0
 18 19  1  0
 19 20  2  0
 20 21  1  0
 21 22  1  0
 21 23  2  0
 20 24  1  0
 24 25  2  0
 12  4  1  0
 25 17  1  0
  1 26  1  0
  1 27  1  0
  1 28  1  0
  2 29  1  0
  5 30  1  0
  6 31  1  0
 11 32  1  0
 16 33  1  0
 18 34  1  0
 19 35  1  0
 22 36  1  0
 22 37  1  0
 24 38  1  0
 25 39  1  0
M  CHG  2   8   1  10  -1
M  END
$$$$
