
     RDKit          3D

 68 69  0  0  0  0  0  0  0  0999 V2000
    1.0596   -3.1389    0.6965 C   0  0  0  0  0  0  0  0  0  0  0  0
    1.3329   -2.3089    1.8176 O   0  0  0  0  0  0  0  0  0  0  0  0
    0.1776   -1.6165    2.2932 C   0  0  0  0  0  0  0  0  0  0  0  0
    0.2159   -0.1288    1.9209 C   0  0  0  0  0  0  0  0  0  0  0  0
   -0.2050    0.2008    0.5430 N   0  0  0  0  0  0  0  0  0  0  0  0
    0.6822    0.3586   -0.5182 C   0  0  0  0  0  0  0  0  0  0  0  0
    0.2783    0.5062   -1.6750 O   0  0  0  0  0  0  0  0  0  0  0  0
    2.1679    0.3997   -0.2081 C   0  0  0  0  0  0  0  0  0  0  0  0
    2.9967    0.5756   -1.4778 C   0  0  0  0  0  0  0  0  0  0  0  0
    4.4658    0.7920   -1.1748 C   0  0  0  0  0  0  0  0  0  0  0  0
    4.9048    0.8341   -0.0309 O   0  0  0  0  0  0  0  0  0  0  0  0
    5.2046    0.9448   -2.3270 N   0  0  0  0  0  0  0  0  0  0  0  0
    6.5601    1.1807   -2.3789 C   0  0  0  0  0  0  0  0  0  0  0  0
    7.4926    1.3022   -1.3259 C   0  0  0  0  0  0  0  0  0  0  0  0
    8.6911    1.5390   -1.9517 C   0  0  0  0  0  0  0  0  0  0  0  0
   10.0696    1.7635   -1.4858 C   0  0  0  0  0  0  0  0  0  0  0  0
    8.4943    1.5595   -3.2963 O   0  0  0  0  0  0  0  0  0  0  0  0
    7.1577    1.3323   -3.5667 N   0  0  0  0  0  0  0  0  0  0  0  0
   -1.6458    0.2631    0.1899 C   0  0  0  0  0  0  0  0  0  0  0  0
   -2.1906   -1.0463   -0.4636 C   0  0  0  0  0  0  0  0  0  0  0  0
   -1.7210   -2.1593   -0.2408 O   0  0  0  0  0  0  0  0  0  0  0  0
   -3.3040   -0.8488   -1.2680 N   0  0  0  0  0  0  0  0  0  0  0  0
   -4.0155   -1.9063   -2.0004 C   0  0  0  0  0  0  0  0  0  0  0  0
   -3.0937   -2.5690   -3.0355 C   0  0  0  0  0  0  0  0  0  0  0  0
   -5.1978   -1.2567   -2.7442 C   0  0  0  0  0  0  0  0  0  0  0  0
   -4.5797   -2.9631   -1.0365 C   0  0  0  0  0  0  0  0  0  0  0  0
   -2.5436    0.7726    1.3166 C   0  0  0  0  0  0  0  0  0  0  0  0
   -3.2935   -0.0903    2.1288 C   0  0  0  0  0  0  0  0  0  0  0  0
   -4.0935    0.4199    3.1545 C   0  0  0  0  0  0  0  0  0  0  0  0
   -4.1527    1.7925    3.4013 C   0  0  0  0  0  0  0  0  0  0  0  0
   -4.9735    2.1533    4.4333 O   0  0  0  0  0  0  0  0  0  0  0  0
   -4.9980    3.5316    4.7840 C   0  0  0  0  0  0  0  0  0  0  0  0
   -3.4022    2.6583    2.6077 C   0  0  0  0  0  0  0  0  0  0  0  0
   -2.6034    2.1527    1.5758 C   0  0  0  0  0  0  0  0  0  0  0  0
    0.2692   -3.8596    0.9289 H   0  0  0  0  0  0  0  0  0  0  0  0
    1.9707   -3.6938    0.4555 H   0  0  0  0  0  0  0  0  0  0  0  0
    0.7904   -2.5363   -0.1736 H   0  0  0  0  0  0  0  0  0  0  0  0
    0.2319   -1.6802    3.3861 H   0  0  0  0  0  0  0  0  0  0  0  0
   -0.7541   -2.1089    2.0027 H   0  0  0  0  0  0  0  0  0  0  0  0
    1.2326    0.2407    2.0820 H   0  0  0  0  0  0  0  0  0  0  0  0
   -0.4087    0.4372    2.6172 H   0  0  0  0  0  0  0  0  0  0  0  0
    2.3518    1.2438    0.4665 H   0  0  0  0  0  0  0  0  0  0  0  0
    2.4699   -0.5241    0.2913 H   0  0  0  0  0  0  0  0  0  0  0  0
    2.6410    1.4448   -2.0455 H   0  0  0  0  0  0  0  0  0  0  0  0
    2.8950   -0.3101   -2.1169 H   0  0  0  0  0  0  0  0  0  0  0  0
    4.7602    0.8983   -3.2336 H   0  0  0  0  0  0  0  0  0  0  0  0
    7.3211    1.2278   -0.2621 H   0  0  0  0  0  0  0  0  0  0  0  0
   10.7380    0.9916   -1.8790 H   0  0  0  0  0  0  0  0  0  0  0  0
   10.1239    1.7370   -0.3931 H   0  0  0  0  0  0  0  0  0  0  0  0
   10.4339    2.7397   -1.8202 H   0  0  0  0  0  0  0  0  0  0  0  0
   -1.7319    1.0155   -0.6093 H   0  0  0  0  0  0  0  0  0  0  0  0
   -3.5740    0.1092   -1.4591 H   0  0  0  0  0  0  0  0  0  0  0  0
   -2.2593   -3.0968   -2.5625 H   0  0  0  0  0  0  0  0  0  0  0  0
   -2.6646   -1.8223   -3.7136 H   0  0  0  0  0  0  0  0  0  0  0  0
   -3.6412   -3.2999   -3.6418 H   0  0  0  0  0  0  0  0  0  0  0  0
   -5.8789   -0.7592   -2.0429 H   0  0  0  0  0  0  0  0  0  0  0  0
   -5.7760   -1.9994   -3.3063 H   0  0  0  0  0  0  0  0  0  0  0  0
   -4.8488   -0.4960   -3.4533 H   0  0  0  0  0  0  0  0  0  0  0  0
   -3.7883   -3.5183   -0.5242 H   0  0  0  0  0  0  0  0  0  0  0  0
   -5.2045   -2.4986   -0.2650 H   0  0  0  0  0  0  0  0  0  0  0  0
   -5.1943   -3.6964   -1.5707 H   0  0  0  0  0  0  0  0  0  0  0  0
   -3.2676   -1.1683    1.9799 H   0  0  0  0  0  0  0  0  0  0  0  0
   -4.6734   -0.2622    3.7721 H   0  0  0  0  0  0  0  0  0  0  0  0
   -5.6749    3.6477    5.6352 H   0  0  0  0  0  0  0  0  0  0  0  0
   -5.3881    4.1423    3.9622 H   0  0  0  0  0  0  0  0  0  0  0  0
   -4.0061    3.8759    5.0968 H   0  0  0  0  0  0  0  0  0  0  0  0
   -3.4153    3.7317    2.7640 H   0  0  0  0  0  0  0  0  0  0  0  0
   -2.0180    2.8473    0.9750 H   0  0  0  0  0  0  0  0  0  0  0  0
  1  2  1  0
  2  3  1  0
  3  4  1  0
  4  5  1  0
  5  6  1  0
  6  7  2  0
  6  8  1  0
  8  9  1  0
  9 10  1  0
 10 11  2  0
 10 12  1  0
 12 13  1  0
 13 14  1  0
 14 15  2  0
 15 16  1  0
 15 17  1  0
 17 18  1  0
  5 19  1  0
 19 20  1  0
 20 21  2  0
 20 22  1  0
 22 23  1  0
 23 24  1  0
 23 25  1  0
 23 26  1  0
 19 27  1  0
 27 28  2  0
 28 29  1  0
 29 30  2  0
 30 31  1  0
 31 32  1  0
 30 33  1  0
 33 34  2  0
 18 13  2  0
 34 27  1  0
  1 35  1  0
  1 36  1  0
  1 37  1  0
  3 38  1  0
  3 39  1  0
  4 40  1  0
  4 41  1  0
  8 42  1  0
  8 43  1  0
  9 44  1  0
  9 45  1  0
 12 46  1  0
 14 47  1  0
 16 48  1  0
 16 49  1  0
 16 50  1  0
 19 51  1  0
 22 52  1  0
 24 53  1  0
 24 54  1  0
 24 55  1  0
 25 56  1  0
 25 57  1  0
 25 58  1  0
 26 59  1  0
 26 60  1  0
 26 61  1  0
 28 62  1  0
 29 63  1  0
 32 64  1  0
 32 65  1  0
 32 66  1  0
 33 67  1  0
 34 68  1  0
M  END
$$$$
