
     RDKit          3D

 39 40  0  0  0  0  0  0  0  0999 V2000
    4.2277   -1.3243    0.8319 C   0  0  0  0  0  0  0  0  0  0  0  0
    4.4413    0.1827    0.9005 C   0  0  0  0  0  0  0  0  0  0  0  0
    4.2704    0.9161   -0.4427 C   0  0  0  0  0  0  0  0  0  0  0  0
    5.2961    0.4599   -1.4813 C   0  0  0  0  0  0  0  0  0  0  0  0
    2.8390    0.7943   -0.9835 C   0  0  0  0  0  0  0  0  0  0  0  0
    2.5948    0.1796   -2.0159 O   0  0  0  0  0  0  0  0  0  0  0  0
    1.9238    1.4404   -0.1819 N   0  0  0  0  0  0  0  0  0  0  0  0
    0.5652    1.5048   -0.3629 C   0  0  0  0  0  0  0  0  0  0  0  0
   -0.2133    2.1662    0.4641 N   0  0  0  0  0  0  0  0  0  0  0  0
   -1.5430    2.0915    0.1014 N   0  0  0  0  0  0  0  0  0  0  0  0
   -1.7183    1.3647   -0.9832 C   0  0  0  0  0  0  0  0  0  0  0  0
   -3.0400    1.1084   -1.6345 C   0  0  0  0  0  0  0  0  0  0  0  0
   -3.5300   -0.3345   -1.4787 C   0  0  0  0  0  0  0  0  0  0  0  0
   -3.8891   -0.7076   -0.0606 C   0  0  0  0  0  0  0  0  0  0  0  0
   -5.1036   -0.2873    0.4989 C   0  0  0  0  0  0  0  0  0  0  0  0
   -5.4306   -0.6230    1.8136 C   0  0  0  0  0  0  0  0  0  0  0  0
   -4.5474   -1.3791    2.5814 C   0  0  0  0  0  0  0  0  0  0  0  0
   -3.3363   -1.7999    2.0358 C   0  0  0  0  0  0  0  0  0  0  0  0
   -3.0074   -1.4660    0.7211 C   0  0  0  0  0  0  0  0  0  0  0  0
   -0.2571    0.7495   -1.6472 S   0  0  0  0  0  0  0  0  0  0  0  0
    4.9690   -1.8069    0.1886 H   0  0  0  0  0  0  0  0  0  0  0  0
    4.3268   -1.7598    1.8317 H   0  0  0  0  0  0  0  0  0  0  0  0
    3.2294   -1.5712    0.4584 H   0  0  0  0  0  0  0  0  0  0  0  0
    5.4498    0.3754    1.2870 H   0  0  0  0  0  0  0  0  0  0  0  0
    3.7466    0.5940    1.6422 H   0  0  0  0  0  0  0  0  0  0  0  0
    4.4499    1.9856   -0.2653 H   0  0  0  0  0  0  0  0  0  0  0  0
    6.3151    0.5565   -1.0927 H   0  0  0  0  0  0  0  0  0  0  0  0
    5.1407   -0.5806   -1.7845 H   0  0  0  0  0  0  0  0  0  0  0  0
    5.2227    1.0736   -2.3862 H   0  0  0  0  0  0  0  0  0  0  0  0
    2.2379    1.9499    0.6322 H   0  0  0  0  0  0  0  0  0  0  0  0
   -2.9612    1.3431   -2.7036 H   0  0  0  0  0  0  0  0  0  0  0  0
   -3.7808    1.8050   -1.2222 H   0  0  0  0  0  0  0  0  0  0  0  0
   -4.4227   -0.4740   -2.1028 H   0  0  0  0  0  0  0  0  0  0  0  0
   -2.7886   -1.0420   -1.8711 H   0  0  0  0  0  0  0  0  0  0  0  0
   -5.8034    0.3062   -0.0848 H   0  0  0  0  0  0  0  0  0  0  0  0
   -6.3733   -0.2910    2.2402 H   0  0  0  0  0  0  0  0  0  0  0  0
   -4.8007   -1.6367    3.6062 H   0  0  0  0  0  0  0  0  0  0  0  0
   -2.6445   -2.3849    2.6358 H   0  0  0  0  0  0  0  0  0  0  0  0
   -2.0549   -1.7984    0.3148 H   0  0  0  0  0  0  0  0  0  0  0  0
  1  2  1  0
  2  3  1  0
  3  4  1  0
  3  5  1  0
  5  6  2  0
  5  7  1  0
  7  8  1  0
  8  9  2  0
  9 10  1  0
 10 11  2  0
 11 12  1  0
 12 13  1  0
 13 14  1  0
 14 15  2  0
 15 16  1  0
 16 17  2  0
 17 18  1  0
 18 19  2  0
 11 20  1  0
 20  8  1  0
 19 14  1  0
  1 21  1  0
  1 22  1  0
  1 23  1  0
  2 24  1  0
  2 25  1  0
  3 26  1  0
  4 27  1  0
  4 28  1  0
  4 29  1  0
  7 30  1  0
 12 31  1  0
 12 32  1  0
 13 33  1  0
 13 34  1  0
 15 35  1  0
 16 36  1  0
 17 37  1  0
 18 38  1  0
 19 39  1  0
M  END
$$$$
