
     RDKit          3D

 44 44  0  0  0  0  0  0  0  0999 V2000
   -1.7922   -0.9534    2.0135 C   0  0  0  0  0  0  0  0  0  0  0  0
   -2.6351    0.1395    1.3453 C   0  0  0  0  0  0  0  0  0  0  0  0
   -2.3195    1.4924    2.0092 C   0  0  0  0  0  0  0  0  0  0  0  0
   -2.5022    0.1731   -0.2147 C   0  0  0  0  0  0  0  0  0  0  0  0
   -3.4018    1.1777   -0.7030 O   0  0  0  0  0  0  0  0  0  0  0  0
   -1.1226    0.5567   -0.6009 C   0  0  0  0  0  0  0  0  0  0  0  0
    0.0037    0.8560   -0.8964 C   0  0  0  0  0  0  0  0  0  0  0  0
    1.3923    1.2013   -1.2382 C   0  0  0  0  0  0  0  0  0  0  0  0
    2.3330    0.1955   -0.7322 N   0  0  0  0  0  0  0  0  0  0  0  0
    2.4484    0.1941    0.7352 C   0  0  0  0  0  0  0  0  0  0  0  0
    3.7577    0.7837    1.2559 C   0  0  0  0  0  0  0  0  0  0  0  0
    4.9702    0.0484    0.6903 C   0  0  0  0  0  0  0  0  0  0  0  0
    4.7168   -0.4925   -0.7157 C   0  0  0  0  0  0  0  0  0  0  0  0
    3.6231    0.2987   -1.4273 C   0  0  0  0  0  0  0  0  0  0  0  0
   -2.8872   -1.1761   -0.9089 C   0  0  0  0  0  0  0  0  0  0  0  0
   -2.8628   -1.0747   -2.4460 C   0  0  0  0  0  0  0  0  0  0  0  0
   -4.2763   -1.6876   -0.4980 C   0  0  0  0  0  0  0  0  0  0  0  0
   -2.0674   -1.9497    1.6590 H   0  0  0  0  0  0  0  0  0  0  0  0
   -0.7225   -0.8083    1.8324 H   0  0  0  0  0  0  0  0  0  0  0  0
   -1.9470   -0.9466    3.0976 H   0  0  0  0  0  0  0  0  0  0  0  0
   -3.6876   -0.0537    1.5903 H   0  0  0  0  0  0  0  0  0  0  0  0
   -1.2739    1.7827    1.8685 H   0  0  0  0  0  0  0  0  0  0  0  0
   -2.9549    2.2910    1.6143 H   0  0  0  0  0  0  0  0  0  0  0  0
   -2.5032    1.4395    3.0886 H   0  0  0  0  0  0  0  0  0  0  0  0
   -2.9473    2.0335   -0.6246 H   0  0  0  0  0  0  0  0  0  0  0  0
    1.6452    2.1978   -0.8584 H   0  0  0  0  0  0  0  0  0  0  0  0
    1.4549    1.2505   -2.3326 H   0  0  0  0  0  0  0  0  0  0  0  0
    1.6107    0.7092    1.2200 H   0  0  0  0  0  0  0  0  0  0  0  0
    2.3813   -0.8504    1.0677 H   0  0  0  0  0  0  0  0  0  0  0  0
    3.8124    1.8453    0.9838 H   0  0  0  0  0  0  0  0  0  0  0  0
    3.7818    0.7427    2.3503 H   0  0  0  0  0  0  0  0  0  0  0  0
    5.8280    0.7313    0.6817 H   0  0  0  0  0  0  0  0  0  0  0  0
    5.2460   -0.7841    1.3482 H   0  0  0  0  0  0  0  0  0  0  0  0
    5.6460   -0.4637   -1.2961 H   0  0  0  0  0  0  0  0  0  0  0  0
    4.4223   -1.5488   -0.6534 H   0  0  0  0  0  0  0  0  0  0  0  0
    3.9428    1.3458   -1.5117 H   0  0  0  0  0  0  0  0  0  0  0  0
    3.5109   -0.0880   -2.4464 H   0  0  0  0  0  0  0  0  0  0  0  0
   -2.1529   -1.9433   -0.6316 H   0  0  0  0  0  0  0  0  0  0  0  0
   -3.1043   -2.0427   -2.8975 H   0  0  0  0  0  0  0  0  0  0  0  0
   -3.5916   -0.3463   -2.8146 H   0  0  0  0  0  0  0  0  0  0  0  0
   -1.8743   -0.7878   -2.8175 H   0  0  0  0  0  0  0  0  0  0  0  0
   -4.5262   -2.6054   -1.0420 H   0  0  0  0  0  0  0  0  0  0  0  0
   -5.0569   -0.9493   -0.7113 H   0  0  0  0  0  0  0  0  0  0  0  0
   -4.3175   -1.9340    0.5670 H   0  0  0  0  0  0  0  0  0  0  0  0
  1  2  1  0
  2  3  1  0
  2  4  1  0
  4  5  1  0
  4  6  1  0
  6  7  3  0
  7  8  1  0
  8  9  1  0
  9 10  1  0
 10 11  1  0
 11 12  1  0
 12 13  1  0
 13 14  1  0
  4 15  1  0
 15 16  1  0
 15 17  1  0
 14  9  1  0
  1 18  1  0
  1 19  1  0
  1 20  1  0
  2 21  1  0
  3 22  1  0
  3 23  1  0
  3 24  1  0
  5 25  1  0
  8 26  1  0
  8 27  1  0
 10 28  1  0
 10 29  1  0
 11 30  1  0
 11 31  1  0
 12 32  1  0
 12 33  1  0
 13 34  1  0
 13 35  1  0
 14 36  1  0
 14 37  1  0
 15 38  1  0
 16 39  1  0
 16 40  1  0
 16 41  1  0
 17 42  1  0
 17 43  1  0
 17 44  1  0
M  END
$$$$
