
     RDKit          3D

 51 55  0  0  0  0  0  0  0  0999 V2000
   -7.5040    2.9167    0.4828 F   0  0  0  0  0  0  0  0  0  0  0  0
   -6.8483    1.8116    0.8614 C   0  0  0  0  0  0  0  0  0  0  0  0
   -7.5132    0.8416    1.6013 C   0  0  0  0  0  0  0  0  0  0  0  0
   -6.8315   -0.3093    1.9918 C   0  0  0  0  0  0  0  0  0  0  0  0
   -5.4895   -0.4790    1.6402 C   0  0  0  0  0  0  0  0  0  0  0  0
   -4.8160    0.5032    0.8978 C   0  0  0  0  0  0  0  0  0  0  0  0
   -3.3707    0.3096    0.5034 C   0  0  0  0  0  0  0  0  0  0  0  0
   -3.2447   -0.3984   -0.8583 C   0  0  0  0  0  0  0  0  0  0  0  0
   -1.8850   -0.6559   -1.3447 N   0  0  0  0  0  0  0  0  0  0  0  0
   -1.0477    0.5417   -1.5199 C   0  0  0  0  0  0  0  0  0  0  0  0
    0.0641    0.7374   -0.4633 C   0  0  0  0  0  0  0  0  0  0  0  0
    0.9192   -0.4503   -0.3188 N   0  0  0  0  0  0  0  0  0  0  0  0
    2.3020   -0.3459   -0.1915 C   0  0  0  0  0  0  0  0  0  0  0  0
    3.0422   -1.2469   -0.7914 N   0  0  0  0  0  0  0  0  0  0  0  0
    4.4468   -1.1818   -0.7422 C   0  0  0  0  0  0  0  0  0  0  0  0
    5.1800   -2.1599   -1.4171 C   0  0  0  0  0  0  0  0  0  0  0  0
    6.5772   -2.1358   -1.4116 C   0  0  0  0  0  0  0  0  0  0  0  0
    7.2567   -1.1273   -0.7277 C   0  0  0  0  0  0  0  0  0  0  0  0
    6.5440   -0.1400   -0.0462 C   0  0  0  0  0  0  0  0  0  0  0  0
    5.1462   -0.1774   -0.0616 C   0  0  0  0  0  0  0  0  0  0  0  0
    4.3511    0.7661    0.6083 N   0  0  0  0  0  0  0  0  0  0  0  0
    4.7361    1.8391    1.3771 C   0  0  0  0  0  0  0  0  0  0  0  0
    3.6033    2.4271    1.8937 C   0  0  0  0  0  0  0  0  0  0  0  0
    2.4949    1.6953    1.4081 C   0  0  0  0  0  0  0  0  0  0  0  0
    2.9735    0.6949    0.5785 C   0  0  0  0  0  0  0  0  0  0  0  0
    0.3388   -1.7067   -0.8284 C   0  0  0  0  0  0  0  0  0  0  0  0
   -1.1879   -1.7277   -0.6133 C   0  0  0  0  0  0  0  0  0  0  0  0
   -5.5125    1.6537    0.5051 C   0  0  0  0  0  0  0  0  0  0  0  0
   -8.5553    0.9876    1.8662 H   0  0  0  0  0  0  0  0  0  0  0  0
   -7.3436   -1.0753    2.5688 H   0  0  0  0  0  0  0  0  0  0  0  0
   -4.9716   -1.3849    1.9498 H   0  0  0  0  0  0  0  0  0  0  0  0
   -2.8640   -0.2592    1.2914 H   0  0  0  0  0  0  0  0  0  0  0  0
   -2.8803    1.2902    0.4773 H   0  0  0  0  0  0  0  0  0  0  0  0
   -3.7913   -1.3507   -0.8285 H   0  0  0  0  0  0  0  0  0  0  0  0
   -3.7663    0.1983   -1.6189 H   0  0  0  0  0  0  0  0  0  0  0  0
   -0.5618    0.4458   -2.5001 H   0  0  0  0  0  0  0  0  0  0  0  0
   -1.6566    1.4513   -1.5890 H   0  0  0  0  0  0  0  0  0  0  0  0
    0.6570    1.6073   -0.7683 H   0  0  0  0  0  0  0  0  0  0  0  0
   -0.3908    0.9619    0.5075 H   0  0  0  0  0  0  0  0  0  0  0  0
    4.6528   -2.9448   -1.9529 H   0  0  0  0  0  0  0  0  0  0  0  0
    7.1327   -2.9046   -1.9424 H   0  0  0  0  0  0  0  0  0  0  0  0
    8.3439   -1.1124   -0.7255 H   0  0  0  0  0  0  0  0  0  0  0  0
    7.0946    0.6320    0.4806 H   0  0  0  0  0  0  0  0  0  0  0  0
    5.7759    2.0951    1.5188 H   0  0  0  0  0  0  0  0  0  0  0  0
    3.5805    3.2815    2.5580 H   0  0  0  0  0  0  0  0  0  0  0  0
    1.4585    1.8847    1.6480 H   0  0  0  0  0  0  0  0  0  0  0  0
    0.7731   -2.5588   -0.2917 H   0  0  0  0  0  0  0  0  0  0  0  0
    0.5724   -1.8248   -1.8940 H   0  0  0  0  0  0  0  0  0  0  0  0
   -1.3729   -1.6535    0.4648 H   0  0  0  0  0  0  0  0  0  0  0  0
   -1.5829   -2.6950   -0.9440 H   0  0  0  0  0  0  0  0  0  0  0  0
   -5.0294    2.4326   -0.0773 H   0  0  0  0  0  0  0  0  0  0  0  0
  1  2  1  0
  2  3  2  0
  3  4  1  0
  4  5  2  0
  5  6  1  0
  6  7  1  0
  7  8  1  0
  8  9  1  0
  9 10  1  0
 10 11  1  0
 11 12  1  0
 12 13  1  0
 13 14  2  0
 14 15  1  0
 15 16  2  0
 16 17  1  0
 17 18  2  0
 18 19  1  0
 19 20  2  0
 20 21  1  0
 21 22  1  0
 22 23  2  0
 23 24  1  0
 24 25  2  0
 12 26  1  0
 26 27  1  0
  6 28  2  0
 28  2  1  0
 27  9  1  0
 25 13  1  0
 20 15  1  0
 25 21  1  0
  3 29  1  0
  4 30  1  0
  5 31  1  0
  7 32  1  0
  7 33  1  0
  8 34  1  0
  8 35  1  0
 10 36  1  0
 10 37  1  0
 11 38  1  0
 11 39  1  0
 16 40  1  0
 17 41  1  0
 18 42  1  0
 19 43  1  0
 22 44  1  0
 23 45  1  0
 24 46  1  0
 26 47  1  0
 26 48  1  0
 27 49  1  0
 27 50  1  0
 28 51  1  0
M  END
$$$$
