
     RDKit          3D

 37 39  0  0  0  0  0  0  0  0999 V2000
    4.0460   -0.2989   -0.9665 N   0  0  0  0  0  0  0  0  0  0  0  0
    2.8577   -0.7547   -0.2476 C   0  0  0  0  0  0  0  0  0  0  0  0
    2.1995    0.3943    0.5123 C   0  0  0  0  0  0  0  0  0  0  0  0
    0.9807   -0.0298    1.3501 C   0  0  0  0  0  0  0  0  0  0  0  0
   -0.2019   -0.3741    0.5219 N   0  0  0  0  0  0  0  0  0  0  0  0
   -0.4853   -1.7589    0.3028 C   0  0  0  0  0  0  0  0  0  0  0  0
    0.3351   -2.8005    0.7982 C   0  0  0  0  0  0  0  0  0  0  0  0
    0.0615   -4.1594    0.5853 C   0  0  0  0  0  0  0  0  0  0  0  0
   -1.0532   -4.5363   -0.1384 C   0  0  0  0  0  0  0  0  0  0  0  0
   -1.8847   -3.5489   -0.6470 C   0  0  0  0  0  0  0  0  0  0  0  0
   -1.6117   -2.1797   -0.4358 C   0  0  0  0  0  0  0  0  0  0  0  0
   -2.7888   -1.0766   -1.1721 S   0  0  0  0  0  0  0  0  0  0  0  0
   -2.1623    0.5168   -0.7178 C   0  0  0  0  0  0  0  0  0  0  0  0
   -2.9314    1.6039   -1.1834 C   0  0  0  0  0  0  0  0  0  0  0  0
   -2.5708    2.9171   -0.9071 C   0  0  0  0  0  0  0  0  0  0  0  0
   -1.4313    3.1663   -0.1511 C   0  0  0  0  0  0  0  0  0  0  0  0
   -0.9922    4.5778    0.1511 C   0  0  0  0  0  0  0  0  0  0  0  0
   -0.4989    4.7168    1.4138 F   0  0  0  0  0  0  0  0  0  0  0  0
   -1.9935    5.4937    0.0402 F   0  0  0  0  0  0  0  0  0  0  0  0
   -0.0023    4.9994   -0.6829 F   0  0  0  0  0  0  0  0  0  0  0  0
   -0.6634    2.0730    0.3040 C   0  0  0  0  0  0  0  0  0  0  0  0
   -0.9956    0.7195    0.0450 C   0  0  0  0  0  0  0  0  0  0  0  0
    3.7763    0.3947   -1.6640 H   0  0  0  0  0  0  0  0  0  0  0  0
    4.6845    0.1734   -0.3285 H   0  0  0  0  0  0  0  0  0  0  0  0
    3.1602   -1.5444    0.4472 H   0  0  0  0  0  0  0  0  0  0  0  0
    2.1637   -1.1914   -0.9719 H   0  0  0  0  0  0  0  0  0  0  0  0
    1.9289    1.1830   -0.1986 H   0  0  0  0  0  0  0  0  0  0  0  0
    2.9362    0.8339    1.1976 H   0  0  0  0  0  0  0  0  0  0  0  0
    0.7236    0.7748    2.0507 H   0  0  0  0  0  0  0  0  0  0  0  0
    1.2688   -0.8172    2.0516 H   0  0  0  0  0  0  0  0  0  0  0  0
    1.2376   -2.6109    1.3659 H   0  0  0  0  0  0  0  0  0  0  0  0
    0.7308   -4.9159    0.9880 H   0  0  0  0  0  0  0  0  0  0  0  0
   -1.2744   -5.5855   -0.3106 H   0  0  0  0  0  0  0  0  0  0  0  0
   -2.7598   -3.8515   -1.2196 H   0  0  0  0  0  0  0  0  0  0  0  0
   -3.8291    1.4251   -1.7742 H   0  0  0  0  0  0  0  0  0  0  0  0
   -3.1830    3.7344   -1.2836 H   0  0  0  0  0  0  0  0  0  0  0  0
    0.2226    2.3370    0.8747 H   0  0  0  0  0  0  0  0  0  0  0  0
  1  2  1  0
  2  3  1  0
  3  4  1  0
  4  5  1  0
  5  6  1  0
  6  7  2  0
  7  8  1  0
  8  9  2  0
  9 10  1  0
 10 11  2  0
 11 12  1  0
 12 13  1  0
 13 14  2  0
 14 15  1  0
 15 16  2  0
 16 17  1  0
 17 18  1  0
 17 19  1  0
 17 20  1  0
 16 21  1  0
 21 22  2  0
 22  5  1  0
 11  6  1  0
 22 13  1  0
  1 23  1  0
  1 24  1  0
  2 25  1  0
  2 26  1  0
  3 27  1  0
  3 28  1  0
  4 29  1  0
  4 30  1  0
  7 31  1  0
  8 32  1  0
  9 33  1  0
 10 34  1  0
 14 35  1  0
 15 36  1  0
 21 37  1  0
M  END
$$$$
