
     RDKit          3D

 47 50  0  0  0  0  0  0  0  0999 V2000
   -2.9641    3.1180    0.9957 C   0  0  0  0  0  0  0  0  0  0  0  0
   -3.6087    1.8707    0.3941 C   0  0  0  0  0  0  0  0  0  0  0  0
   -3.7924    0.7668    1.4293 C   0  0  0  0  0  0  0  0  0  0  0  0
   -2.5234   -0.0327    1.6818 C   0  0  0  0  0  0  0  0  0  0  0  0
   -1.7658    0.2669    2.6096 O   0  0  0  0  0  0  0  0  0  0  0  0
   -2.3012   -1.1397    0.8636 N   0  0  0  0  0  0  0  0  0  0  0  0
   -1.1123   -1.9447    1.1476 C   0  0  0  0  0  0  0  0  0  0  0  0
    0.1140   -1.3499    0.4385 C   0  0  0  0  0  0  0  0  0  0  0  0
    0.1959   -1.3452   -0.7915 O   0  0  0  0  0  0  0  0  0  0  0  0
    1.0416   -0.8204    1.3213 N   0  0  0  0  0  0  0  0  0  0  0  0
    2.2977   -0.2631    1.0042 C   0  0  0  0  0  0  0  0  0  0  0  0
    3.0534    0.2550    2.0584 C   0  0  0  0  0  0  0  0  0  0  0  0
    4.3351    0.7741    1.8346 C   0  0  0  0  0  0  0  0  0  0  0  0
    4.8658    0.7810    0.5451 C   0  0  0  0  0  0  0  0  0  0  0  0
    4.0984    0.3109   -0.5177 C   0  0  0  0  0  0  0  0  0  0  0  0
    2.8276   -0.2180   -0.2879 C   0  0  0  0  0  0  0  0  0  0  0  0
    4.5397    0.3059   -1.8156 O   0  0  0  0  0  0  0  0  0  0  0  0
    5.7089    1.1159   -1.9748 C   0  0  0  0  0  0  0  0  0  0  0  0
    6.7031    0.8515   -0.8489 C   0  0  0  0  0  0  0  0  0  0  0  0
    6.1460    1.2637    0.3979 O   0  0  0  0  0  0  0  0  0  0  0  0
   -2.9693   -1.3523   -0.3884 C   0  0  0  0  0  0  0  0  0  0  0  0
   -3.3587   -2.6608   -0.7252 C   0  0  0  0  0  0  0  0  0  0  0  0
   -4.0063   -2.9247   -1.9355 C   0  0  0  0  0  0  0  0  0  0  0  0
   -4.2757   -1.8856   -2.8298 C   0  0  0  0  0  0  0  0  0  0  0  0
   -3.8852   -0.5837   -2.5189 C   0  0  0  0  0  0  0  0  0  0  0  0
   -3.2373   -0.3021   -1.3019 C   0  0  0  0  0  0  0  0  0  0  0  0
   -2.6410    1.3733   -1.0756 S   0  0  0  0  0  0  0  0  0  0  0  0
   -3.5517    3.4745    1.8504 H   0  0  0  0  0  0  0  0  0  0  0  0
   -1.9428    2.9320    1.3424 H   0  0  0  0  0  0  0  0  0  0  0  0
   -2.9293    3.9393    0.2622 H   0  0  0  0  0  0  0  0  0  0  0  0
   -4.6021    2.1533    0.0263 H   0  0  0  0  0  0  0  0  0  0  0  0
   -4.1512    1.1782    2.3814 H   0  0  0  0  0  0  0  0  0  0  0  0
   -4.5831    0.0801    1.1291 H   0  0  0  0  0  0  0  0  0  0  0  0
   -0.9489   -1.9919    2.2316 H   0  0  0  0  0  0  0  0  0  0  0  0
   -1.2318   -2.9793    0.8112 H   0  0  0  0  0  0  0  0  0  0  0  0
    0.7546   -0.7588    2.2952 H   0  0  0  0  0  0  0  0  0  0  0  0
    2.6598    0.2667    3.0727 H   0  0  0  0  0  0  0  0  0  0  0  0
    4.9243    1.1367    2.6636 H   0  0  0  0  0  0  0  0  0  0  0  0
    2.2790   -0.5880   -1.1520 H   0  0  0  0  0  0  0  0  0  0  0  0
    5.4005    2.1714   -2.0062 H   0  0  0  0  0  0  0  0  0  0  0  0
    6.1590    0.8577   -2.9394 H   0  0  0  0  0  0  0  0  0  0  0  0
    7.6248    1.4258   -1.0066 H   0  0  0  0  0  0  0  0  0  0  0  0
    6.9737   -0.2136   -0.7818 H   0  0  0  0  0  0  0  0  0  0  0  0
   -3.1905   -3.4917   -0.0393 H   0  0  0  0  0  0  0  0  0  0  0  0
   -4.2985   -3.9424   -2.1778 H   0  0  0  0  0  0  0  0  0  0  0  0
   -4.7656   -2.0911   -3.7809 H   0  0  0  0  0  0  0  0  0  0  0  0
   -4.0661    0.2102   -3.2465 H   0  0  0  0  0  0  0  0  0  0  0  0
  1  2  1  0
  2  3  1  0
  3  4  1  0
  4  5  2  0
  4  6  1  0
  6  7  1  0
  7  8  1  0
  8  9  2  0
  8 10  1  0
 10 11  1  0
 11 12  2  0
 12 13  1  0
 13 14  2  0
 14 15  1  0
 15 16  2  0
 15 17  1  0
 17 18  1  0
 18 19  1  0
 19 20  1  0
  6 21  1  0
 21 22  2  0
 22 23  1  0
 23 24  2  0
 24 25  1  0
 25 26  2  0
 26 27  1  0
 27  2  1  0
 16 11  1  0
 26 21  1  0
 20 14  1  0
  1 28  1  0
  1 29  1  0
  1 30  1  0
  2 31  1  0
  3 32  1  0
  3 33  1  0
  7 34  1  0
  7 35  1  0
 10 36  1  0
 12 37  1  0
 13 38  1  0
 16 39  1  0
 18 40  1  0
 18 41  1  0
 19 42  1  0
 19 43  1  0
 22 44  1  0
 23 45  1  0
 24 46  1  0
 25 47  1  0
M  END
$$$$
