
     RDKit          3D

 62 65  0  0  0  0  0  0  0  0999 V2000
   -6.3212   -0.8537   -1.3483 C   0  0  0  0  0  0  0  0  0  0  0  0
   -5.2033   -0.1134   -2.0304 C   0  0  0  0  0  0  0  0  0  0  0  0
   -5.2461    0.0391   -3.4273 C   0  0  0  0  0  0  0  0  0  0  0  0
   -4.2385    0.7264   -4.1046 C   0  0  0  0  0  0  0  0  0  0  0  0
   -3.1757    1.2768   -3.3967 C   0  0  0  0  0  0  0  0  0  0  0  0
   -3.1169    1.1336   -2.0103 C   0  0  0  0  0  0  0  0  0  0  0  0
   -4.1166    0.4325   -1.3199 C   0  0  0  0  0  0  0  0  0  0  0  0
   -3.9574    0.2822    0.4596 S   0  0  0  0  0  0  0  0  0  0  0  0
   -3.0278   -1.2900    0.5291 C   0  0  0  0  0  0  0  0  0  0  0  0
   -1.5861   -1.1317    0.0689 C   0  0  0  0  0  0  0  0  0  0  0  0
   -1.0817   -1.9375   -0.7095 O   0  0  0  0  0  0  0  0  0  0  0  0
   -0.9315   -0.0791    0.6717 N   0  0  0  0  0  0  0  0  0  0  0  0
    0.3938    0.3605    0.4982 C   0  0  0  0  0  0  0  0  0  0  0  0
    1.2952   -0.2095   -0.3969 C   0  0  0  0  0  0  0  0  0  0  0  0
    2.5954    0.2995   -0.4706 C   0  0  0  0  0  0  0  0  0  0  0  0
    3.7437   -0.4408   -1.6017 S   0  0  0  0  0  6  0  0  0  0  0  0
    5.0723    0.0468   -1.2895 O   0  0  0  0  0  0  0  0  0  0  0  0
    3.1886   -0.2974   -2.9307 O   0  0  0  0  0  0  0  0  0  0  0  0
    3.7108   -2.0902   -1.1770 N   0  0  0  0  0  0  0  0  0  0  0  0
    4.0898   -2.4048    0.2375 C   0  0  0  0  0  0  0  0  0  0  0  0
    4.4275   -3.8923    0.3807 C   0  0  0  0  0  0  0  0  0  0  0  0
    5.5591   -4.2911   -0.4030 O   0  0  0  0  0  0  0  0  0  0  0  0
    5.7306   -3.5032   -1.5903 C   0  0  0  0  0  0  0  0  0  0  0  0
    4.4074   -2.9855   -2.1608 C   0  0  0  0  0  0  0  0  0  0  0  0
    3.0014    1.3691    0.3312 C   0  0  0  0  0  0  0  0  0  0  0  0
    2.0911    1.9487    1.2155 C   0  0  0  0  0  0  0  0  0  0  0  0
    0.7795    1.4595    1.3085 C   0  0  0  0  0  0  0  0  0  0  0  0
   -0.1915    2.0137    2.1866 N   0  0  0  0  0  0  0  0  0  0  0  0
    0.1827    1.8535    3.6137 C   0  0  0  0  0  0  0  0  0  0  0  0
   -0.9466    2.4109    4.4963 C   0  0  0  0  0  0  0  0  0  0  0  0
   -1.2070    3.7932    4.1980 O   0  0  0  0  0  0  0  0  0  0  0  0
   -1.5905    3.9447    2.8192 C   0  0  0  0  0  0  0  0  0  0  0  0
   -0.4895    3.4354    1.8736 C   0  0  0  0  0  0  0  0  0  0  0  0
   -6.8172   -0.2087   -0.6143 H   0  0  0  0  0  0  0  0  0  0  0  0
   -5.9403   -1.7538   -0.8535 H   0  0  0  0  0  0  0  0  0  0  0  0
   -7.0856   -1.1760   -2.0654 H   0  0  0  0  0  0  0  0  0  0  0  0
   -6.0711   -0.3792   -4.0009 H   0  0  0  0  0  0  0  0  0  0  0  0
   -4.2866    0.8359   -5.1846 H   0  0  0  0  0  0  0  0  0  0  0  0
   -2.3896    1.8124   -3.9227 H   0  0  0  0  0  0  0  0  0  0  0  0
   -2.2760    1.5710   -1.4757 H   0  0  0  0  0  0  0  0  0  0  0  0
   -3.0190   -1.6454    1.5651 H   0  0  0  0  0  0  0  0  0  0  0  0
   -3.5254   -2.0476   -0.0852 H   0  0  0  0  0  0  0  0  0  0  0  0
   -1.4560    0.5048    1.3228 H   0  0  0  0  0  0  0  0  0  0  0  0
    1.0128   -1.0358   -1.0436 H   0  0  0  0  0  0  0  0  0  0  0  0
    4.9574   -1.8061    0.5386 H   0  0  0  0  0  0  0  0  0  0  0  0
    3.2480   -2.1663    0.8953 H   0  0  0  0  0  0  0  0  0  0  0  0
    4.6549   -4.1292    1.4252 H   0  0  0  0  0  0  0  0  0  0  0  0
    3.5745   -4.5134    0.0815 H   0  0  0  0  0  0  0  0  0  0  0  0
    6.2370   -4.1330   -2.3283 H   0  0  0  0  0  0  0  0  0  0  0  0
    6.4045   -2.6729   -1.3504 H   0  0  0  0  0  0  0  0  0  0  0  0
    4.5898   -2.4741   -3.1113 H   0  0  0  0  0  0  0  0  0  0  0  0
    3.7294   -3.8217   -2.3696 H   0  0  0  0  0  0  0  0  0  0  0  0
    4.0159    1.7593    0.2671 H   0  0  0  0  0  0  0  0  0  0  0  0
    2.4159    2.7853    1.8288 H   0  0  0  0  0  0  0  0  0  0  0  0
    0.3352    0.7935    3.8496 H   0  0  0  0  0  0  0  0  0  0  0  0
    1.1086    2.4007    3.8331 H   0  0  0  0  0  0  0  0  0  0  0  0
   -1.8715    1.8377    4.3598 H   0  0  0  0  0  0  0  0  0  0  0  0
   -0.6617    2.3420    5.5517 H   0  0  0  0  0  0  0  0  0  0  0  0
   -2.5369    3.4145    2.6496 H   0  0  0  0  0  0  0  0  0  0  0  0
   -1.7676    5.0108    2.6432 H   0  0  0  0  0  0  0  0  0  0  0  0
   -0.8271    3.5357    0.8349 H   0  0  0  0  0  0  0  0  0  0  0  0
    0.4069    4.0537    2.0145 H   0  0  0  0  0  0  0  0  0  0  0  0
  1  2  1  0
  2  3  2  0
  3  4  1  0
  4  5  2  0
  5  6  1  0
  6  7  2  0
  7  8  1  0
  8  9  1  0
  9 10  1  0
 10 11  2  0
 10 12  1  0
 12 13  1  0
 13 14  2  0
 14 15  1  0
 15 16  1  0
 16 17  2  0
 16 18  2  0
 16 19  1  0
 19 20  1  0
 20 21  1  0
 21 22  1  0
 22 23  1  0
 23 24  1  0
 15 25  2  0
 25 26  1  0
 26 27  2  0
 27 28  1  0
 28 29  1  0
 29 30  1  0
 30 31  1  0
 31 32  1  0
 32 33  1  0
  7  2  1  0
 27 13  1  0
 33 28  1  0
 24 19  1  0
  1 34  1  0
  1 35  1  0
  1 36  1  0
  3 37  1  0
  4 38  1  0
  5 39  1  0
  6 40  1  0
  9 41  1  0
  9 42  1  0
 12 43  1  0
 14 44  1  0
 20 45  1  0
 20 46  1  0
 21 47  1  0
 21 48  1  0
 23 49  1  0
 23 50  1  0
 24 51  1  0
 24 52  1  0
 25 53  1  0
 26 54  1  0
 29 55  1  0
 29 56  1  0
 30 57  1  0
 30 58  1  0
 32 59  1  0
 32 60  1  0
 33 61  1  0
 33 62  1  0
M  END
$$$$
