
     RDKit          3D

 30 31  0  0  0  0  0  0  0  0999 V2000
   -4.7772   -0.4957    0.7132 C   0  0  0  0  0  0  0  0  0  0  0  0
   -3.3045   -0.2354    0.3916 C   0  0  0  0  0  0  0  0  0  0  0  0
   -2.9413   -0.9485   -0.9144 C   0  0  0  0  0  0  0  0  0  0  0  0
   -2.5570   -0.7756    1.4913 O   0  0  0  0  0  0  0  0  0  0  0  0
   -1.3039   -0.3450    1.6922 C   0  0  0  0  0  0  0  0  0  0  0  0
   -0.5487   -0.7783    2.5467 O   0  0  0  0  0  0  0  0  0  0  0  0
   -0.8950    0.7594    0.7574 C   0  0  0  0  0  0  0  0  0  0  0  0
    0.2824    0.8649    0.2089 N   0  0  0  0  0  0  0  0  0  0  0  0
    1.2118   -0.0765    0.5436 N   0  0  0  0  0  0  0  0  0  0  0  0
    2.5249    0.0800    0.0438 C   0  0  0  0  0  0  0  0  0  0  0  0
    2.8299    0.9531   -1.0084 C   0  0  0  0  0  0  0  0  0  0  0  0
    4.1271    1.0341   -1.5230 C   0  0  0  0  0  0  0  0  0  0  0  0
    5.1343    0.2232   -1.0061 C   0  0  0  0  0  0  0  0  0  0  0  0
    4.8424   -0.6736    0.0184 C   0  0  0  0  0  0  0  0  0  0  0  0
    3.5442   -0.7511    0.5312 C   0  0  0  0  0  0  0  0  0  0  0  0
   -1.9647    1.7497    0.3876 C   0  0  0  0  0  0  0  0  0  0  0  0
   -1.7436    2.9403    0.2664 O   0  0  0  0  0  0  0  0  0  0  0  0
   -3.1751    1.1862    0.2478 O   0  0  0  0  0  0  0  0  0  0  0  0
   -5.4339   -0.1068   -0.0724 H   0  0  0  0  0  0  0  0  0  0  0  0
   -4.9746   -1.5642    0.8510 H   0  0  0  0  0  0  0  0  0  0  0  0
   -5.0578    0.0071    1.6464 H   0  0  0  0  0  0  0  0  0  0  0  0
   -1.8930   -0.7896   -1.1862 H   0  0  0  0  0  0  0  0  0  0  0  0
   -3.5438   -0.5735   -1.7486 H   0  0  0  0  0  0  0  0  0  0  0  0
   -3.0836   -2.0308   -0.8249 H   0  0  0  0  0  0  0  0  0  0  0  0
    1.2021   -0.4657    1.4953 H   0  0  0  0  0  0  0  0  0  0  0  0
    2.0545    1.5861   -1.4323 H   0  0  0  0  0  0  0  0  0  0  0  0
    4.3449    1.7285   -2.3299 H   0  0  0  0  0  0  0  0  0  0  0  0
    6.1424    0.2850   -1.4069 H   0  0  0  0  0  0  0  0  0  0  0  0
    5.6221   -1.3177    0.4160 H   0  0  0  0  0  0  0  0  0  0  0  0
    3.3344   -1.4696    1.3192 H   0  0  0  0  0  0  0  0  0  0  0  0
  1  2  1  0
  2  3  1  0
  2  4  1  0
  4  5  1  0
  5  6  2  0
  5  7  1  0
  7  8  2  3
  8  9  1  0
  9 10  1  0
 10 11  2  0
 11 12  1  0
 12 13  2  0
 13 14  1  0
 14 15  2  0
  7 16  1  0
 16 17  2  0
 16 18  1  0
 18  2  1  0
 15 10  1  0
  1 19  1  0
  1 20  1  0
  1 21  1  0
  3 22  1  0
  3 23  1  0
  3 24  1  0
  9 25  1  0
 11 26  1  0
 12 27  1  0
 13 28  1  0
 14 29  1  0
 15 30  1  0
M  END
$$$$
