
     RDKit          3D

 36 37  0  0  0  0  0  0  0  0999 V2000
    7.6639   -0.2097    0.2552 C   0  0  0  0  0  0  0  0  0  0  0  0
    6.2264   -0.6622    0.1855 C   0  0  0  0  0  0  0  0  0  0  0  0
    5.9487   -1.8360   -0.0324 O   0  0  0  0  0  0  0  0  0  0  0  0
    5.3381    0.3840    0.3594 N   0  0  0  0  0  0  0  0  0  0  0  0
    3.9297    0.3229    0.3570 C   0  0  0  0  0  0  0  0  0  0  0  0
    3.2373    1.5286    0.5256 C   0  0  0  0  0  0  0  0  0  0  0  0
    1.8388    1.5538    0.5343 C   0  0  0  0  0  0  0  0  0  0  0  0
    1.1113    0.3713    0.3661 C   0  0  0  0  0  0  0  0  0  0  0  0
   -0.3782    0.4420    0.3829 C   0  0  0  0  0  0  0  0  0  0  0  0
   -0.9202    1.3506    1.0051 O   0  0  0  0  0  0  0  0  0  0  0  0
   -1.0226   -0.5384   -0.3662 N   0  0  0  0  0  0  0  0  0  0  0  0
   -2.3725   -0.5821   -0.6095 N   0  0  0  0  0  0  0  0  0  0  0  0
   -3.1714   -0.2220    0.3452 C   0  0  0  0  0  0  0  0  0  0  0  0
   -4.6371   -0.1908    0.1575 C   0  0  0  0  0  0  0  0  0  0  0  0
   -5.2150   -0.5559   -1.0645 C   0  0  0  0  0  0  0  0  0  0  0  0
   -6.6025   -0.5181   -1.2131 C   0  0  0  0  0  0  0  0  0  0  0  0
   -7.3963   -0.1163   -0.1436 C   0  0  0  0  0  0  0  0  0  0  0  0
   -8.7273   -0.0806   -0.2878 F   0  0  0  0  0  0  0  0  0  0  0  0
   -6.8303    0.2501    1.0738 C   0  0  0  0  0  0  0  0  0  0  0  0
   -5.4431    0.2140    1.2283 C   0  0  0  0  0  0  0  0  0  0  0  0
    1.7978   -0.8384    0.2163 C   0  0  0  0  0  0  0  0  0  0  0  0
    3.1990   -0.8580    0.2080 C   0  0  0  0  0  0  0  0  0  0  0  0
    8.2959   -1.0535    0.5468 H   0  0  0  0  0  0  0  0  0  0  0  0
    7.7907    0.5809    1.0003 H   0  0  0  0  0  0  0  0  0  0  0  0
    7.9758    0.1564   -0.7264 H   0  0  0  0  0  0  0  0  0  0  0  0
    5.7410    1.3036    0.4904 H   0  0  0  0  0  0  0  0  0  0  0  0
    3.7711    2.4670    0.6542 H   0  0  0  0  0  0  0  0  0  0  0  0
    1.3185    2.5005    0.6700 H   0  0  0  0  0  0  0  0  0  0  0  0
   -0.4801   -1.0123   -1.0822 H   0  0  0  0  0  0  0  0  0  0  0  0
   -2.8122    0.0505    1.3524 H   0  0  0  0  0  0  0  0  0  0  0  0
   -4.5917   -0.8676   -1.8992 H   0  0  0  0  0  0  0  0  0  0  0  0
   -7.0669   -0.7975   -2.1534 H   0  0  0  0  0  0  0  0  0  0  0  0
   -7.4723    0.5623    1.8915 H   0  0  0  0  0  0  0  0  0  0  0  0
   -5.0024    0.5050    2.1785 H   0  0  0  0  0  0  0  0  0  0  0  0
    1.2681   -1.7839    0.1319 H   0  0  0  0  0  0  0  0  0  0  0  0
    3.6897   -1.8203    0.0939 H   0  0  0  0  0  0  0  0  0  0  0  0
  1  2  1  0
  2  3  2  0
  2  4  1  0
  4  5  1  0
  5  6  2  0
  6  7  1  0
  7  8  2  0
  8  9  1  0
  9 10  2  0
  9 11  1  0
 11 12  1  0
 12 13  2  3
 13 14  1  0
 14 15  2  0
 15 16  1  0
 16 17  2  0
 17 18  1  0
 17 19  1  0
 19 20  2  0
  8 21  1  0
 21 22  2  0
 22  5  1  0
 20 14  1  0
  1 23  1  0
  1 24  1  0
  1 25  1  0
  4 26  1  0
  6 27  1  0
  7 28  1  0
 11 29  1  0
 13 30  1  0
 15 31  1  0
 16 32  1  0
 19 33  1  0
 20 34  1  0
 21 35  1  0
 22 36  1  0
M  END
$$$$
