
     RDKit          3D

 34 35  0  0  0  0  0  0  0  0999 V2000
    7.0507   -0.5242   -0.3878 C   0  0  0  0  0  0  0  0  0  0  0  0
    6.0783   -0.2773    0.6198 O   0  0  0  0  0  0  0  0  0  0  0  0
    4.7928   -0.0724    0.2011 C   0  0  0  0  0  0  0  0  0  0  0  0
    4.3456   -0.0963   -1.1202 C   0  0  0  0  0  0  0  0  0  0  0  0
    2.9941    0.1304   -1.4075 C   0  0  0  0  0  0  0  0  0  0  0  0
    2.0776    0.3725   -0.3832 C   0  0  0  0  0  0  0  0  0  0  0  0
    0.7328    0.6123   -0.6977 N   0  0  0  0  0  0  0  0  0  0  0  0
   -0.0970   -0.3337   -0.3942 C   0  0  0  0  0  0  0  0  0  0  0  0
   -1.5605   -0.1794   -0.6905 C   0  0  0  0  0  0  0  0  0  0  0  0
   -2.4292   -0.4214    0.5199 C   0  0  0  0  0  0  0  0  0  0  0  0
   -1.9851   -0.9274    1.5491 O   0  0  0  0  0  0  0  0  0  0  0  0
   -3.8784   -0.0610    0.4513 C   0  0  0  0  0  0  0  0  0  0  0  0
   -4.6434   -0.1509    1.6244 C   0  0  0  0  0  0  0  0  0  0  0  0
   -6.0034    0.1720    1.6116 C   0  0  0  0  0  0  0  0  0  0  0  0
   -6.6040    0.5836    0.4248 C   0  0  0  0  0  0  0  0  0  0  0  0
   -8.2770    0.9808    0.4043 Cl  0  0  0  0  0  0  0  0  0  0  0  0
   -5.8564    0.6735   -0.7483 C   0  0  0  0  0  0  0  0  0  0  0  0
   -4.4944    0.3507   -0.7380 C   0  0  0  0  0  0  0  0  0  0  0  0
    2.5308    0.4125    0.9366 C   0  0  0  0  0  0  0  0  0  0  0  0
    3.8788    0.1851    1.2258 C   0  0  0  0  0  0  0  0  0  0  0  0
    8.0174   -0.6600    0.1068 H   0  0  0  0  0  0  0  0  0  0  0  0
    6.8254   -1.4445   -0.9367 H   0  0  0  0  0  0  0  0  0  0  0  0
    7.1415    0.3300   -1.0670 H   0  0  0  0  0  0  0  0  0  0  0  0
    5.0177   -0.2828   -1.9505 H   0  0  0  0  0  0  0  0  0  0  0  0
    2.6523    0.1219   -2.4389 H   0  0  0  0  0  0  0  0  0  0  0  0
    0.2277   -1.2894    0.0591 H   0  0  0  0  0  0  0  0  0  0  0  0
   -1.8183   -0.9206   -1.4539 H   0  0  0  0  0  0  0  0  0  0  0  0
   -1.7312    0.8305   -1.0768 H   0  0  0  0  0  0  0  0  0  0  0  0
   -4.1833   -0.4723    2.5579 H   0  0  0  0  0  0  0  0  0  0  0  0
   -6.5829    0.0991    2.5284 H   0  0  0  0  0  0  0  0  0  0  0  0
   -6.3279    0.9931   -1.6748 H   0  0  0  0  0  0  0  0  0  0  0  0
   -3.9449    0.4256   -1.6721 H   0  0  0  0  0  0  0  0  0  0  0  0
    1.8346    0.6249    1.7432 H   0  0  0  0  0  0  0  0  0  0  0  0
    4.2193    0.2149    2.2578 H   0  0  0  0  0  0  0  0  0  0  0  0
  1  2  1  0
  2  3  1  0
  3  4  2  0
  4  5  1  0
  5  6  2  0
  6  7  1  0
  7  8  2  3
  8  9  1  0
  9 10  1  0
 10 11  2  0
 10 12  1  0
 12 13  2  0
 13 14  1  0
 14 15  2  0
 15 16  1  0
 15 17  1  0
 17 18  2  0
  6 19  1  0
 19 20  2  0
 20  3  1  0
 18 12  1  0
  1 21  1  0
  1 22  1  0
  1 23  1  0
  4 24  1  0
  5 25  1  0
  8 26  1  0
  9 27  1  0
  9 28  1  0
 13 29  1  0
 14 30  1  0
 17 31  1  0
 18 32  1  0
 19 33  1  0
 20 34  1  0
M  END
$$$$
