
     RDKit          3D

 56 61  0  0  0  0  0  0  0  0999 V2000
    1.8402    2.5979   -2.3668 O   0  0  0  0  0  0  0  0  0  0  0  0
    1.2357    2.9513   -1.3639 C   0  0  0  0  0  0  0  0  0  0  0  0
    0.6913    4.2256   -1.1782 N   0  0  0  0  0  0  0  0  0  0  0  0
    0.0536    4.3295    0.0507 C   0  0  0  0  0  0  0  0  0  0  0  0
   -0.5994    5.4361    0.5523 C   0  0  0  0  0  0  0  0  0  0  0  0
   -1.1778    5.3220    1.8186 C   0  0  0  0  0  0  0  0  0  0  0  0
   -1.0925    4.1193    2.5433 C   0  0  0  0  0  0  0  0  0  0  0  0
   -0.4247    3.0099    2.0153 C   0  0  0  0  0  0  0  0  0  0  0  0
    0.1494    3.1268    0.7574 C   0  0  0  0  0  0  0  0  0  0  0  0
    0.9297    2.1433   -0.0695 C   0  0  0  0  0  0  0  0  0  0  0  0
    2.1930    1.6447    0.5939 N   0  0  0  0  0  0  0  0  0  0  0  0
    2.3098    0.1598    0.3301 C   0  0  2  0  0  0  0  0  0  0  0  0
    3.3746   -0.1061   -0.7484 C   0  0  0  0  0  0  0  0  0  0  0  0
    3.6849   -1.5781   -0.9180 C   0  0  0  0  0  0  0  0  0  0  0  0
    4.4017   -2.2753    0.0644 C   0  0  0  0  0  0  0  0  0  0  0  0
    4.6544   -3.6399   -0.0809 C   0  0  0  0  0  0  0  0  0  0  0  0
    4.1971   -4.3187   -1.2089 C   0  0  0  0  0  0  0  0  0  0  0  0
    3.4913   -3.6329   -2.1955 C   0  0  0  0  0  0  0  0  0  0  0  0
    3.2383   -2.2683   -2.0531 C   0  0  0  0  0  0  0  0  0  0  0  0
    0.9294   -0.2110   -0.0601 C   0  0  0  0  0  0  0  0  0  0  0  0
    0.1441    0.9226   -0.2875 C   0  0  0  0  0  0  0  0  0  0  0  0
   -1.1192    0.5255   -0.6355 C   0  0  0  0  0  0  0  0  0  0  0  0
   -2.1822    1.2630   -0.9324 O   0  0  0  0  0  0  0  0  0  0  0  0
   -1.1038   -0.8649   -0.6320 N   0  0  0  0  0  0  0  0  0  0  0  0
   -2.1899   -1.7360   -1.0751 C   0  0  0  0  0  0  0  0  0  0  0  0
   -3.3545   -1.7474   -0.1132 C   0  0  0  0  0  0  0  0  0  0  0  0
   -4.6518   -1.4701   -0.5717 C   0  0  0  0  0  0  0  0  0  0  0  0
   -5.7339   -1.4873    0.3099 C   0  0  0  0  0  0  0  0  0  0  0  0
   -5.5345   -1.7924    1.6546 C   0  0  0  0  0  0  0  0  0  0  0  0
   -4.2544   -2.0873    2.1188 C   0  0  0  0  0  0  0  0  0  0  0  0
   -3.1708   -2.0706    1.2397 C   0  0  0  0  0  0  0  0  0  0  0  0
    0.1536   -1.3216   -0.2589 C   0  0  0  0  0  0  0  0  0  0  0  0
    0.4166   -2.6189   -0.1703 O   0  0  0  0  0  0  0  0  0  0  0  0
    0.7496    4.9470   -1.8791 H   0  0  0  0  0  0  0  0  0  0  0  0
   -0.6677    6.3607   -0.0087 H   0  0  0  0  0  0  0  0  0  0  0  0
   -1.7052    6.1703    2.2490 H   0  0  0  0  0  0  0  0  0  0  0  0
   -1.5580    4.0506    3.5242 H   0  0  0  0  0  0  0  0  0  0  0  0
   -0.3742    2.0790    2.5712 H   0  0  0  0  0  0  0  0  0  0  0  0
    2.0242    1.7365    1.5939 H   0  0  0  0  0  0  0  0  0  0  0  0
    2.5826   -0.3304    1.2723 H   0  0  0  0  0  0  0  0  0  0  0  0
    3.0691    0.3159   -1.7140 H   0  0  0  0  0  0  0  0  0  0  0  0
    4.3106    0.4028   -0.4810 H   0  0  0  0  0  0  0  0  0  0  0  0
    4.7729   -1.7578    0.9465 H   0  0  0  0  0  0  0  0  0  0  0  0
    5.2146   -4.1732    0.6831 H   0  0  0  0  0  0  0  0  0  0  0  0
    4.3974   -5.3808   -1.3237 H   0  0  0  0  0  0  0  0  0  0  0  0
    3.1381   -4.1596   -3.0785 H   0  0  0  0  0  0  0  0  0  0  0  0
    2.6799   -1.7464   -2.8287 H   0  0  0  0  0  0  0  0  0  0  0  0
   -2.9882    0.7378   -0.7925 H   0  0  0  0  0  0  0  0  0  0  0  0
   -1.8113   -2.7546   -1.2092 H   0  0  0  0  0  0  0  0  0  0  0  0
   -2.4914   -1.3685   -2.0634 H   0  0  0  0  0  0  0  0  0  0  0  0
   -4.8323   -1.2415   -1.6204 H   0  0  0  0  0  0  0  0  0  0  0  0
   -6.7350   -1.2678   -0.0530 H   0  0  0  0  0  0  0  0  0  0  0  0
   -6.3778   -1.8076    2.3402 H   0  0  0  0  0  0  0  0  0  0  0  0
   -4.0989   -2.3341    3.1660 H   0  0  0  0  0  0  0  0  0  0  0  0
   -2.1780   -2.3113    1.6173 H   0  0  0  0  0  0  0  0  0  0  0  0
    1.3796   -2.7177   -0.0405 H   0  0  0  0  0  0  0  0  0  0  0  0
  1  2  2  0
  2  3  1  0
  3  4  1  0
  4  5  2  0
  5  6  1  0
  6  7  2  0
  7  8  1  0
  8  9  2  0
  9 10  1  0
 10 11  1  0
 11 12  1  0
 12 13  1  0
 13 14  1  0
 14 15  2  0
 15 16  1  0
 16 17  2  0
 17 18  1  0
 18 19  2  0
 12 20  1  0
 20 21  1  0
 21 22  2  0
 22 23  1  0
 22 24  1  0
 24 25  1  0
 25 26  1  0
 26 27  2  0
 27 28  1  0
 28 29  2  0
 29 30  1  0
 30 31  2  0
 24 32  1  0
 32 33  1  0
 10  2  1  0
 19 14  1  0
 32 20  2  0
  9  4  1  0
 21 10  1  0
 31 26  1  0
  3 34  1  0
  5 35  1  0
  6 36  1  0
  7 37  1  0
  8 38  1  0
 11 39  1  0
 12 40  1  1
 13 41  1  0
 13 42  1  0
 15 43  1  0
 16 44  1  0
 17 45  1  0
 18 46  1  0
 19 47  1  0
 23 48  1  0
 25 49  1  0
 25 50  1  0
 27 51  1  0
 28 52  1  0
 29 53  1  0
 30 54  1  0
 31 55  1  0
 33 56  1  0
M  END
$$$$
