
     RDKit          3D

 68 70  0  0  0  0  0  0  0  0999 V2000
   -5.8501    4.6104    1.1868 C   0  0  0  0  0  0  0  0  0  0  0  0
   -5.8074    3.2389    1.5687 O   0  0  0  0  0  0  0  0  0  0  0  0
   -4.7815    2.4912    1.0607 C   0  0  0  0  0  0  0  0  0  0  0  0
   -3.7759    2.9440    0.2083 C   0  0  0  0  0  0  0  0  0  0  0  0
   -2.7878    2.0618   -0.2428 C   0  0  0  0  0  0  0  0  0  0  0  0
   -2.7803    0.7129    0.1528 C   0  0  0  0  0  0  0  0  0  0  0  0
   -1.6767   -0.1998   -0.3720 C   0  0  0  0  0  0  0  0  0  0  0  0
   -2.0227   -1.7172   -0.2825 C   0  0  0  0  0  0  0  0  0  0  0  0
   -1.6897   -2.4179    0.6714 O   0  0  0  0  0  0  0  0  0  0  0  0
   -2.7790   -2.1863   -1.3419 N   0  0  0  0  0  0  0  0  0  0  0  0
   -3.1844   -3.5866   -1.5373 C   0  0  0  0  0  0  0  0  0  0  0  0
   -4.0561   -4.0845   -0.3714 C   0  0  0  0  0  0  0  0  0  0  0  0
   -1.9520   -4.4900   -1.6976 C   0  0  0  0  0  0  0  0  0  0  0  0
   -4.0234   -3.6602   -2.8276 C   0  0  0  0  0  0  0  0  0  0  0  0
   -0.3499    0.0335    0.2331 N   0  0  0  0  0  0  0  0  0  0  0  0
   -0.2561    0.1690    1.6902 C   0  0  0  0  0  0  0  0  0  0  0  0
   -0.3034    1.6001    2.0993 C   0  0  0  0  0  0  0  0  0  0  0  0
   -1.0936    2.2919    2.9958 C   0  0  0  0  0  0  0  0  0  0  0  0
   -0.6533    3.6363    2.9661 C   0  0  0  0  0  0  0  0  0  0  0  0
    0.3778    3.6807    2.0591 C   0  0  0  0  0  0  0  0  0  0  0  0
    0.5957    2.4509    1.5259 O   0  0  0  0  0  0  0  0  0  0  0  0
    0.7477   -0.2020   -0.5856 C   0  0  0  0  0  0  0  0  0  0  0  0
    0.6073   -0.5050   -1.7726 O   0  0  0  0  0  0  0  0  0  0  0  0
    2.1384   -0.0933    0.0174 C   0  0  0  0  0  0  0  0  0  0  0  0
    3.2183   -0.2718   -1.0492 C   0  0  0  0  0  0  0  0  0  0  0  0
    4.6144   -0.0868   -0.4869 C   0  0  0  0  0  0  0  0  0  0  0  0
    4.8215    0.2278    0.6802 O   0  0  0  0  0  0  0  0  0  0  0  0
    5.5787   -0.3067   -1.4465 N   0  0  0  0  0  0  0  0  0  0  0  0
    6.9371   -0.1896   -1.2521 C   0  0  0  0  0  0  0  0  0  0  0  0
    7.6516    0.1829   -0.0932 C   0  0  0  0  0  0  0  0  0  0  0  0
    8.9724    0.1213   -0.4651 C   0  0  0  0  0  0  0  0  0  0  0  0
   10.2495    0.3586    0.2275 C   0  0  0  0  0  0  0  0  0  0  0  0
    9.0481   -0.2518   -1.7693 O   0  0  0  0  0  0  0  0  0  0  0  0
    7.7718   -0.4521   -2.2649 N   0  0  0  0  0  0  0  0  0  0  0  0
   -3.7885    0.2732    1.0234 C   0  0  0  0  0  0  0  0  0  0  0  0
   -4.7800    1.1552    1.4650 C   0  0  0  0  0  0  0  0  0  0  0  0
   -4.9604    5.1460    1.5369 H   0  0  0  0  0  0  0  0  0  0  0  0
   -5.9757    4.7159    0.1027 H   0  0  0  0  0  0  0  0  0  0  0  0
   -6.7222    5.0642    1.6689 H   0  0  0  0  0  0  0  0  0  0  0  0
   -3.7221    3.9752   -0.1207 H   0  0  0  0  0  0  0  0  0  0  0  0
   -1.9991    2.4417   -0.8923 H   0  0  0  0  0  0  0  0  0  0  0  0
   -1.6017    0.0230   -1.4454 H   0  0  0  0  0  0  0  0  0  0  0  0
   -2.8853   -1.5650   -2.1378 H   0  0  0  0  0  0  0  0  0  0  0  0
   -4.9079   -3.4147   -0.2034 H   0  0  0  0  0  0  0  0  0  0  0  0
   -4.4507   -5.0881   -0.5704 H   0  0  0  0  0  0  0  0  0  0  0  0
   -3.4934   -4.1390    0.5674 H   0  0  0  0  0  0  0  0  0  0  0  0
   -1.3627   -4.5382   -0.7774 H   0  0  0  0  0  0  0  0  0  0  0  0
   -1.2901   -4.1175   -2.4863 H   0  0  0  0  0  0  0  0  0  0  0  0
   -2.2432   -5.5138   -1.9504 H   0  0  0  0  0  0  0  0  0  0  0  0
   -4.3577   -4.6838   -3.0347 H   0  0  0  0  0  0  0  0  0  0  0  0
   -3.4477   -3.3145   -3.6943 H   0  0  0  0  0  0  0  0  0  0  0  0
   -4.9135   -3.0240   -2.7528 H   0  0  0  0  0  0  0  0  0  0  0  0
   -1.0713   -0.3882    2.1617 H   0  0  0  0  0  0  0  0  0  0  0  0
    0.6700   -0.2758    2.0631 H   0  0  0  0  0  0  0  0  0  0  0  0
   -1.8919    1.8800    3.5966 H   0  0  0  0  0  0  0  0  0  0  0  0
   -1.0433    4.4649    3.5384 H   0  0  0  0  0  0  0  0  0  0  0  0
    1.0278    4.4656    1.6978 H   0  0  0  0  0  0  0  0  0  0  0  0
    2.2590   -0.8762    0.7757 H   0  0  0  0  0  0  0  0  0  0  0  0
    2.2536    0.8848    0.4927 H   0  0  0  0  0  0  0  0  0  0  0  0
    3.1499   -1.2766   -1.4838 H   0  0  0  0  0  0  0  0  0  0  0  0
    3.0759    0.4568   -1.8562 H   0  0  0  0  0  0  0  0  0  0  0  0
    5.3199   -0.5829   -2.3842 H   0  0  0  0  0  0  0  0  0  0  0  0
    7.2706    0.4403    0.8819 H   0  0  0  0  0  0  0  0  0  0  0  0
   10.8314   -0.5667    0.2804 H   0  0  0  0  0  0  0  0  0  0  0  0
   10.8406    1.1138   -0.3008 H   0  0  0  0  0  0  0  0  0  0  0  0
   10.0852    0.7132    1.2500 H   0  0  0  0  0  0  0  0  0  0  0  0
   -3.8189   -0.7587    1.3723 H   0  0  0  0  0  0  0  0  0  0  0  0
   -5.5634    0.7999    2.1315 H   0  0  0  0  0  0  0  0  0  0  0  0
  1  2  1  0
  2  3  1  0
  3  4  2  0
  4  5  1  0
  5  6  2  0
  6  7  1  0
  7  8  1  0
  8  9  2  0
  8 10  1  0
 10 11  1  0
 11 12  1  0
 11 13  1  0
 11 14  1  0
  7 15  1  0
 15 16  1  0
 16 17  1  0
 17 18  2  0
 18 19  1  0
 19 20  2  0
 20 21  1  0
 15 22  1  0
 22 23  2  0
 22 24  1  0
 24 25  1  0
 25 26  1  0
 26 27  2  0
 26 28  1  0
 28 29  1  0
 29 30  1  0
 30 31  2  0
 31 32  1  0
 31 33  1  0
 33 34  1  0
  6 35  1  0
 35 36  2  0
 36  3  1  0
 21 17  1  0
 34 29  2  0
  1 37  1  0
  1 38  1  0
  1 39  1  0
  4 40  1  0
  5 41  1  0
  7 42  1  0
 10 43  1  0
 12 44  1  0
 12 45  1  0
 12 46  1  0
 13 47  1  0
 13 48  1  0
 13 49  1  0
 14 50  1  0
 14 51  1  0
 14 52  1  0
 16 53  1  0
 16 54  1  0
 18 55  1  0
 19 56  1  0
 20 57  1  0
 24 58  1  0
 24 59  1  0
 25 60  1  0
 25 61  1  0
 28 62  1  0
 30 63  1  0
 32 64  1  0
 32 65  1  0
 32 66  1  0
 35 67  1  0
 36 68  1  0
M  END
$$$$
