
     RDKit          3D

 32 32  0  0  0  0  0  0  0  0999 V2000
    1.7820    0.5813   -4.8670 C   0  0  0  0  0  0  0  0  0  0  0  0
    1.0285    0.3551   -3.9590 C   0  0  0  0  0  0  0  0  0  0  0  0
    0.1047    0.0726   -2.8456 C   0  0  0  0  0  0  0  0  0  0  0  0
   -0.4413    1.3143   -2.2944 N   0  0  0  0  0  0  0  0  0  0  0  0
    0.5174    2.0086   -1.4405 C   0  0  0  0  0  0  0  0  0  0  0  0
   -1.7673    1.1769   -1.6897 C   0  0  0  0  0  0  0  0  0  0  0  0
   -1.9267    0.6120   -0.2663 C   0  0  0  0  0  0  0  0  0  0  0  0
   -1.6560   -0.8842   -0.1239 C   0  0  0  0  0  0  0  0  0  0  0  0
   -0.2737   -1.1654    0.0782 O   0  0  0  0  0  0  0  0  0  0  0  0
    0.2545   -1.1385    1.3413 C   0  0  0  0  0  0  0  0  0  0  0  0
   -0.4332   -0.7236    2.4861 C   0  0  0  0  0  0  0  0  0  0  0  0
    0.2064   -0.7264    3.7291 C   0  0  0  0  0  0  0  0  0  0  0  0
   -0.6542   -0.2118    5.1285 Cl  0  0  0  0  0  0  0  0  0  0  0  0
    1.5316   -1.1364    3.8503 C   0  0  0  0  0  0  0  0  0  0  0  0
    2.2291   -1.5461    2.7155 C   0  0  0  0  0  0  0  0  0  0  0  0
    1.5951   -1.5452    1.4690 C   0  0  0  0  0  0  0  0  0  0  0  0
    2.5151   -2.0595    0.0974 Cl  0  0  0  0  0  0  0  0  0  0  0  0
    2.4485    0.7885   -5.6715 H   0  0  0  0  0  0  0  0  0  0  0  0
   -0.7014   -0.5541   -3.2469 H   0  0  0  0  0  0  0  0  0  0  0  0
    0.6210   -0.5212   -2.0871 H   0  0  0  0  0  0  0  0  0  0  0  0
    0.8225    1.4078   -0.5776 H   0  0  0  0  0  0  0  0  0  0  0  0
    1.4205    2.2778   -1.9989 H   0  0  0  0  0  0  0  0  0  0  0  0
    0.0947    2.9500   -1.0718 H   0  0  0  0  0  0  0  0  0  0  0  0
   -2.4258    0.6218   -2.3710 H   0  0  0  0  0  0  0  0  0  0  0  0
   -2.1997    2.1871   -1.6698 H   0  0  0  0  0  0  0  0  0  0  0  0
   -1.3212    1.1944    0.4358 H   0  0  0  0  0  0  0  0  0  0  0  0
   -2.9741    0.7808    0.0167 H   0  0  0  0  0  0  0  0  0  0  0  0
   -1.9589   -1.4043   -1.0400 H   0  0  0  0  0  0  0  0  0  0  0  0
   -2.2663   -1.3278    0.6715 H   0  0  0  0  0  0  0  0  0  0  0  0
   -1.4619   -0.3838    2.4420 H   0  0  0  0  0  0  0  0  0  0  0  0
    2.0251   -1.1366    4.8188 H   0  0  0  0  0  0  0  0  0  0  0  0
    3.2649   -1.8640    2.8054 H   0  0  0  0  0  0  0  0  0  0  0  0
  1  2  3  0
  2  3  1  0
  3  4  1  0
  4  5  1  0
  4  6  1  0
  6  7  1  0
  7  8  1  0
  8  9  1  0
  9 10  1  0
 10 11  2  0
 11 12  1  0
 12 13  1  0
 12 14  2  0
 14 15  1  0
 15 16  2  0
 16 17  1  0
 16 10  1  0
  1 18  1  0
  3 19  1  0
  3 20  1  0
  5 21  1  0
  5 22  1  0
  5 23  1  0
  6 24  1  0
  6 25  1  0
  7 26  1  0
  7 27  1  0
  8 28  1  0
  8 29  1  0
 11 30  1  0
 14 31  1  0
 15 32  1  0
M  END
$$$$
