
     RDKit          3D

 67 72  0  0  0  0  0  0  0  0999 V2000
    2.8365    1.9190   -1.2117 O   0  0  0  0  0  0  0  0  0  0  0  0
    2.3975    1.2776   -0.2517 C   0  0  0  0  0  0  0  0  0  0  0  0
    3.1093    1.2896    1.1176 C   0  0  0  0  0  0  0  0  0  0  0  0
    4.6289    1.5152    0.9670 C   0  0  0  0  0  0  0  0  0  0  0  0
    5.3747    0.4899    0.1349 C   0  0  0  0  0  0  0  0  0  0  0  0
    5.6442   -0.7917    0.6339 C   0  0  0  0  0  0  0  0  0  0  0  0
    6.3253   -1.7296   -0.1451 C   0  0  0  0  0  0  0  0  0  0  0  0
    6.7504   -1.3961   -1.4295 C   0  0  0  0  0  0  0  0  0  0  0  0
    6.4933   -0.1248   -1.9367 C   0  0  0  0  0  0  0  0  0  0  0  0
    5.8100    0.8119   -1.1595 C   0  0  0  0  0  0  0  0  0  0  0  0
    2.8468    0.0794    1.8968 N   0  0  0  0  0  0  0  0  0  0  0  0
    1.5086   -0.2951    1.9398 C   0  0  0  0  0  0  0  0  0  0  0  0
    1.1420   -0.9358    3.0581 N   0  0  0  0  0  0  0  0  0  0  0  0
   -0.1170   -1.3713    3.0904 C   0  0  0  0  0  0  0  0  0  0  0  0
   -1.0456   -1.1704    2.1491 N   0  0  0  0  0  0  0  0  0  0  0  0
   -0.6723   -0.4849    1.0469 C   0  0  0  0  0  0  0  0  0  0  0  0
   -1.7047   -0.0897    0.1617 N   0  0  0  0  0  0  0  0  0  0  0  0
   -2.8876   -0.9888    0.1742 C   0  0  0  0  0  0  0  0  0  0  0  0
   -4.0422   -0.4699    1.0596 C   0  0  0  0  0  0  0  0  0  0  0  0
   -4.4823    0.8701    0.6218 N   0  0  0  0  0  0  0  0  0  0  0  0
   -5.7674    1.3283    0.8538 C   0  0  0  0  0  0  0  0  0  0  0  0
   -6.5880    0.7631    1.8440 C   0  0  0  0  0  0  0  0  0  0  0  0
   -7.8893    1.2239    2.0838 C   0  0  0  0  0  0  0  0  0  0  0  0
   -8.4087    2.2701    1.3310 C   0  0  0  0  0  0  0  0  0  0  0  0
   -7.6250    2.8513    0.3425 C   0  0  0  0  0  0  0  0  0  0  0  0
   -6.3245    2.3840    0.1116 C   0  0  0  0  0  0  0  0  0  0  0  0
   -3.4711    1.7025   -0.0554 C   0  0  0  0  0  0  0  0  0  0  0  0
   -2.0436    1.3409    0.4143 C   0  0  0  0  0  0  0  0  0  0  0  0
    0.6547   -0.0620    0.8590 C   0  0  0  0  0  0  0  0  0  0  0  0
    1.1746    0.5969   -0.3107 N   0  0  0  0  0  0  0  0  0  0  0  0
    0.6690    0.2654   -1.6431 C   0  0  0  0  0  0  0  0  0  0  0  0
    1.2383   -1.0499   -2.1431 C   0  0  0  0  0  0  0  0  0  0  0  0
    0.5405   -2.2521   -1.9515 C   0  0  0  0  0  0  0  0  0  0  0  0
    1.0969   -3.4668   -2.3586 C   0  0  0  0  0  0  0  0  0  0  0  0
    2.3536   -3.4862   -2.9625 C   0  0  0  0  0  0  0  0  0  0  0  0
    3.0438   -4.9848   -3.4529 Cl  0  0  0  0  0  0  0  0  0  0  0  0
    3.0588   -2.3024   -3.1630 C   0  0  0  0  0  0  0  0  0  0  0  0
    2.5027   -1.0890   -2.7548 C   0  0  0  0  0  0  0  0  0  0  0  0
    2.7003    2.1484    1.6682 H   0  0  0  0  0  0  0  0  0  0  0  0
    5.0951    1.5438    1.9613 H   0  0  0  0  0  0  0  0  0  0  0  0
    4.7995    2.5118    0.5376 H   0  0  0  0  0  0  0  0  0  0  0  0
    5.3163   -1.0772    1.6302 H   0  0  0  0  0  0  0  0  0  0  0  0
    6.5192   -2.7235    0.2507 H   0  0  0  0  0  0  0  0  0  0  0  0
    7.2779   -2.1280   -2.0346 H   0  0  0  0  0  0  0  0  0  0  0  0
    6.8183    0.1386   -2.9401 H   0  0  0  0  0  0  0  0  0  0  0  0
    5.6069    1.7953   -1.5789 H   0  0  0  0  0  0  0  0  0  0  0  0
    3.2404    0.0250    2.8299 H   0  0  0  0  0  0  0  0  0  0  0  0
   -0.4210   -1.9295    3.9687 H   0  0  0  0  0  0  0  0  0  0  0  0
   -2.6247   -2.0183    0.4466 H   0  0  0  0  0  0  0  0  0  0  0  0
   -3.2469   -1.0463   -0.8620 H   0  0  0  0  0  0  0  0  0  0  0  0
   -4.8650   -1.1900    0.9774 H   0  0  0  0  0  0  0  0  0  0  0  0
   -3.7305   -0.4227    2.1093 H   0  0  0  0  0  0  0  0  0  0  0  0
   -6.2187   -0.0415    2.4739 H   0  0  0  0  0  0  0  0  0  0  0  0
   -8.4906    0.7641    2.8632 H   0  0  0  0  0  0  0  0  0  0  0  0
   -9.4181    2.6291    1.5125 H   0  0  0  0  0  0  0  0  0  0  0  0
   -8.0214    3.6661   -0.2583 H   0  0  0  0  0  0  0  0  0  0  0  0
   -5.7608    2.8537   -0.6894 H   0  0  0  0  0  0  0  0  0  0  0  0
   -3.6256    2.7656    0.1657 H   0  0  0  0  0  0  0  0  0  0  0  0
   -3.5549    1.5624   -1.1405 H   0  0  0  0  0  0  0  0  0  0  0  0
   -1.9736    1.5722    1.4880 H   0  0  0  0  0  0  0  0  0  0  0  0
   -1.3276    1.9849   -0.1110 H   0  0  0  0  0  0  0  0  0  0  0  0
    0.9579    1.0545   -2.3490 H   0  0  0  0  0  0  0  0  0  0  0  0
   -0.4181    0.2529   -1.6995 H   0  0  0  0  0  0  0  0  0  0  0  0
   -0.4356   -2.2505   -1.4714 H   0  0  0  0  0  0  0  0  0  0  0  0
    0.5505   -4.3918   -2.1949 H   0  0  0  0  0  0  0  0  0  0  0  0
    4.0456   -2.3139   -3.6174 H   0  0  0  0  0  0  0  0  0  0  0  0
    3.0742   -0.1729   -2.8984 H   0  0  0  0  0  0  0  0  0  0  0  0
  1  2  2  0
  2  3  1  0
  3  4  1  0
  4  5  1  0
  5  6  2  0
  6  7  1  0
  7  8  2  0
  8  9  1  0
  9 10  2  0
  3 11  1  0
 11 12  1  0
 12 13  2  0
 13 14  1  0
 14 15  2  0
 15 16  1  0
 16 17  1  0
 17 18  1  0
 18 19  1  0
 19 20  1  0
 20 21  1  0
 21 22  2  0
 22 23  1  0
 23 24  2  0
 24 25  1  0
 25 26  2  0
 20 27  1  0
 27 28  1  0
 16 29  2  0
 29 30  1  0
 30 31  1  0
 31 32  1  0
 32 33  2  0
 33 34  1  0
 34 35  2  0
 35 36  1  0
 35 37  1  0
 37 38  2  0
 30  2  1  0
 38 32  1  0
 10  5  1  0
 29 12  1  0
 28 17  1  0
 26 21  1  0
  3 39  1  0
  4 40  1  0
  4 41  1  0
  6 42  1  0
  7 43  1  0
  8 44  1  0
  9 45  1  0
 10 46  1  0
 11 47  1  0
 14 48  1  0
 18 49  1  0
 18 50  1  0
 19 51  1  0
 19 52  1  0
 22 53  1  0
 23 54  1  0
 24 55  1  0
 25 56  1  0
 26 57  1  0
 27 58  1  0
 27 59  1  0
 28 60  1  0
 28 61  1  0
 31 62  1  0
 31 63  1  0
 33 64  1  0
 34 65  1  0
 37 66  1  0
 38 67  1  0
M  END
$$$$
