
     RDKit          3D

 43 47  0  0  0  0  0  0  0  0999 V2000
    2.3995   -2.0531    0.6275 O   0  0  0  0  0  0  0  0  0  0  0  0
    1.6698   -1.5449   -0.2206 C   0  0  0  0  0  0  0  0  0  0  0  0
    0.3291   -2.1686   -0.5527 C   0  0  0  0  0  0  0  0  0  0  0  0
   -0.7462   -1.6155    0.2582 N   0  0  0  0  0  0  0  0  0  0  0  0
   -1.1928   -2.1490    1.4612 C   0  0  0  0  0  0  0  0  0  0  0  0
   -0.7153   -3.2269    2.2272 C   0  0  0  0  0  0  0  0  0  0  0  0
   -1.3930   -3.5419    3.4088 C   0  0  0  0  0  0  0  0  0  0  0  0
   -2.5016   -2.8069    3.8067 C   0  0  0  0  0  0  0  0  0  0  0  0
   -3.1293   -3.1360    4.9442 F   0  0  0  0  0  0  0  0  0  0  0  0
   -2.9738   -1.7331    3.0566 C   0  0  0  0  0  0  0  0  0  0  0  0
   -2.3055   -1.3942    1.8656 C   0  0  0  0  0  0  0  0  0  0  0  0
   -2.4763   -0.3942    0.8892 C   0  0  0  0  0  0  0  0  0  0  0  0
   -3.4566    0.6029    0.8670 N   0  0  0  0  0  0  0  0  0  0  0  0
   -3.3230    1.4069   -0.1366 C   0  0  0  0  0  0  0  0  0  0  0  0
   -2.3580    1.3745   -1.1253 N   0  0  0  0  0  0  0  0  0  0  0  0
   -1.4034    0.3829   -1.1766 C   0  0  0  0  0  0  0  0  0  0  0  0
   -0.5523    0.2883   -2.0563 O   0  0  0  0  0  0  0  0  0  0  0  0
   -1.5096   -0.5206   -0.0716 C   0  0  0  0  0  0  0  0  0  0  0  0
   -2.5061    2.3633   -2.1671 C   0  0  0  0  0  0  0  0  0  0  0  0
   -3.2987    3.5259   -1.6012 C   0  0  0  0  0  0  0  0  0  0  0  0
   -4.4124    2.7485   -0.3998 S   0  0  0  0  0  0  0  0  0  0  0  0
    1.9440   -0.4034   -0.9527 N   0  0  0  0  0  0  0  0  0  0  0  0
    3.0935    0.4146   -0.8790 C   0  0  0  0  0  0  0  0  0  0  0  0
    4.1925    0.1583   -0.0582 C   0  0  0  0  0  0  0  0  0  0  0  0
    5.2900    1.0291   -0.0540 C   0  0  0  0  0  0  0  0  0  0  0  0
    5.3000    2.1616   -0.8685 C   0  0  0  0  0  0  0  0  0  0  0  0
    4.2095    2.4279   -1.6913 C   0  0  0  0  0  0  0  0  0  0  0  0
    3.1222    1.5580   -1.6895 C   0  0  0  0  0  0  0  0  0  0  0  0
    2.0769    1.8338   -2.4861 F   0  0  0  0  0  0  0  0  0  0  0  0
    0.0798   -2.0460   -1.6107 H   0  0  0  0  0  0  0  0  0  0  0  0
    0.3811   -3.2484   -0.3776 H   0  0  0  0  0  0  0  0  0  0  0  0
    0.1602   -3.7974    1.9305 H   0  0  0  0  0  0  0  0  0  0  0  0
   -1.0525   -4.3655    4.0297 H   0  0  0  0  0  0  0  0  0  0  0  0
   -3.8367   -1.1673    3.3915 H   0  0  0  0  0  0  0  0  0  0  0  0
   -1.5276    2.6812   -2.5424 H   0  0  0  0  0  0  0  0  0  0  0  0
   -3.0412    1.8888   -2.9993 H   0  0  0  0  0  0  0  0  0  0  0  0
   -2.6420    4.2184   -1.0649 H   0  0  0  0  0  0  0  0  0  0  0  0
   -3.8437    4.0756   -2.3728 H   0  0  0  0  0  0  0  0  0  0  0  0
    1.2247   -0.0699   -1.6017 H   0  0  0  0  0  0  0  0  0  0  0  0
    4.2320   -0.7099    0.5922 H   0  0  0  0  0  0  0  0  0  0  0  0
    6.1399    0.8170    0.5915 H   0  0  0  0  0  0  0  0  0  0  0  0
    6.1556    2.8320   -0.8592 H   0  0  0  0  0  0  0  0  0  0  0  0
    4.1972    3.3035   -2.3319 H   0  0  0  0  0  0  0  0  0  0  0  0
  1  2  2  0
  2  3  1  0
  3  4  1  0
  4  5  1  0
  5  6  2  0
  6  7  1  0
  7  8  2  0
  8  9  1  0
  8 10  1  0
 10 11  2  0
 11 12  1  0
 12 13  1  0
 13 14  2  0
 14 15  1  0
 15 16  1  0
 16 17  2  0
 16 18  1  0
 15 19  1  0
 19 20  1  0
 20 21  1  0
  2 22  1  0
 22 23  1  0
 23 24  2  0
 24 25  1  0
 25 26  2  0
 26 27  1  0
 27 28  2  0
 28 29  1  0
 18  4  1  0
 28 23  1  0
 11  5  1  0
 18 12  2  0
 21 14  1  0
  3 30  1  0
  3 31  1  0
  6 32  1  0
  7 33  1  0
 10 34  1  0
 19 35  1  0
 19 36  1  0
 20 37  1  0
 20 38  1  0
 22 39  1  0
 24 40  1  0
 25 41  1  0
 26 42  1  0
 27 43  1  0
M  END
$$$$
