
     RDKit          3D

 34 34  0  0  0  0  0  0  0  0999 V2000
    6.1458   -0.3586   -1.2110 C   0  0  0  0  0  0  0  0  0  0  0  0
    5.3761    0.1163    0.0110 C   0  0  0  0  0  0  0  0  0  0  0  0
    3.8787   -0.1380   -0.1377 C   0  0  0  0  0  0  0  0  0  0  0  0
    3.1048    0.3357    1.0889 C   0  0  0  0  0  0  0  0  0  0  0  0
    1.7089    0.0327    0.9357 O   0  0  0  0  0  0  0  0  0  0  0  0
    0.9719    0.9674    0.2847 C   0  0  0  0  0  0  0  0  0  0  0  0
    1.3899    2.0184   -0.1740 O   0  0  0  0  0  0  0  0  0  0  0  0
   -0.4505    0.5379    0.1925 C   0  0  0  0  0  0  0  0  0  0  0  0
   -1.3597    1.3848   -0.4509 C   0  0  0  0  0  0  0  0  0  0  0  0
   -2.7096    1.0274   -0.5651 C   0  0  0  0  0  0  0  0  0  0  0  0
   -3.1701   -0.1804   -0.0390 C   0  0  0  0  0  0  0  0  0  0  0  0
   -4.5100   -0.6134   -0.1105 N   0  0  0  0  0  0  0  0  0  0  0  0
   -5.5762    0.0413   -0.7011 C   0  0  0  0  0  0  0  0  0  0  0  0
   -6.8622   -0.7382   -0.5796 C   0  0  0  0  0  0  0  0  0  0  0  0
   -5.5480    1.1144   -1.2921 O   0  0  0  0  0  0  0  0  0  0  0  0
   -2.2585   -1.0270    0.6054 C   0  0  0  0  0  0  0  0  0  0  0  0
   -0.9085   -0.6737    0.7216 C   0  0  0  0  0  0  0  0  0  0  0  0
    5.8123    0.1651   -2.1127 H   0  0  0  0  0  0  0  0  0  0  0  0
    6.0095   -1.4334   -1.3673 H   0  0  0  0  0  0  0  0  0  0  0  0
    7.2158   -0.1669   -1.0831 H   0  0  0  0  0  0  0  0  0  0  0  0
    5.7558   -0.4024    0.8989 H   0  0  0  0  0  0  0  0  0  0  0  0
    5.5590    1.1872    0.1574 H   0  0  0  0  0  0  0  0  0  0  0  0
    3.4989    0.3677   -1.0336 H   0  0  0  0  0  0  0  0  0  0  0  0
    3.6882   -1.2071   -0.2944 H   0  0  0  0  0  0  0  0  0  0  0  0
    3.2584    1.4043    1.2811 H   0  0  0  0  0  0  0  0  0  0  0  0
    3.4483   -0.2014    1.9798 H   0  0  0  0  0  0  0  0  0  0  0  0
   -1.0262    2.3327   -0.8704 H   0  0  0  0  0  0  0  0  0  0  0  0
   -3.3732    1.7210   -1.0729 H   0  0  0  0  0  0  0  0  0  0  0  0
   -4.7088   -1.5107    0.3134 H   0  0  0  0  0  0  0  0  0  0  0  0
   -7.7112   -0.0545   -0.6700 H   0  0  0  0  0  0  0  0  0  0  0  0
   -6.9100   -1.4842   -1.3772 H   0  0  0  0  0  0  0  0  0  0  0  0
   -6.9289   -1.2339    0.3932 H   0  0  0  0  0  0  0  0  0  0  0  0
   -2.5819   -1.9754    1.0274 H   0  0  0  0  0  0  0  0  0  0  0  0
   -0.2289   -1.3550    1.2275 H   0  0  0  0  0  0  0  0  0  0  0  0
  1  2  1  0
  2  3  1  0
  3  4  1  0
  4  5  1  0
  5  6  1  0
  6  7  2  0
  6  8  1  0
  8  9  2  0
  9 10  1  0
 10 11  2  0
 11 12  1  0
 12 13  1  0
 13 14  1  0
 13 15  2  0
 11 16  1  0
 16 17  2  0
 17  8  1  0
  1 18  1  0
  1 19  1  0
  1 20  1  0
  2 21  1  0
  2 22  1  0
  3 23  1  0
  3 24  1  0
  4 25  1  0
  4 26  1  0
  9 27  1  0
 10 28  1  0
 12 29  1  0
 14 30  1  0
 14 31  1  0
 14 32  1  0
 16 33  1  0
 17 34  1  0
M  END
$$$$
