
     RDKit          3D

 37 39  0  0  0  0  0  0  0  0999 V2000
    2.2096    1.0957    5.5752 C   0  0  0  0  0  0  0  0  0  0  0  0
    1.6008    1.0738    4.2895 O   0  0  0  0  0  0  0  0  0  0  0  0
    1.8538   -0.0188    3.5030 C   0  0  0  0  0  0  0  0  0  0  0  0
    2.6567   -1.1048    3.8455 C   0  0  0  0  0  0  0  0  0  0  0  0
    2.8466   -2.1731    2.9590 C   0  0  0  0  0  0  0  0  0  0  0  0
    2.2043   -2.1152    1.7174 C   0  0  0  0  0  0  0  0  0  0  0  0
    2.2152   -3.0097    0.6727 N   0  0  0  0  0  0  0  0  0  0  0  0
    1.4397   -2.5451   -0.3590 C   0  0  0  0  0  0  0  0  0  0  0  0
    0.9129   -1.3283    0.0186 C   0  0  0  0  0  0  0  0  0  0  0  0
    0.0501   -0.4955   -0.7616 C   0  0  0  0  0  0  0  0  0  0  0  0
   -0.4382   -0.7817   -1.9808 C   0  0  0  0  0  0  0  0  0  0  0  0
   -1.3247    0.1170   -2.7279 C   0  0  0  0  0  0  0  0  0  0  0  0
   -2.4192   -0.4146   -3.4066 C   0  0  0  0  0  0  0  0  0  0  0  0
   -3.2553    0.4264   -4.1325 C   0  0  0  0  0  0  0  0  0  0  0  0
   -3.0061    1.7531   -4.2015 N   0  0  0  0  0  4  0  0  0  0  0  0
   -3.9123    2.6267   -4.9660 C   0  0  0  0  0  0  0  0  0  0  0  0
   -1.9447    2.2901   -3.5596 C   0  0  0  0  0  0  0  0  0  0  0  0
   -1.0838    1.4871   -2.8203 C   0  0  0  0  0  0  0  0  0  0  0  0
    1.3932   -1.0459    1.3371 C   0  0  0  0  0  0  0  0  0  0  0  0
    1.2210    0.0150    2.2525 C   0  0  0  0  0  0  0  0  0  0  0  0
    1.9081    2.0232    6.0716 H   0  0  0  0  0  0  0  0  0  0  0  0
    1.8613    0.2601    6.1912 H   0  0  0  0  0  0  0  0  0  0  0  0
    3.3016    1.1012    5.4946 H   0  0  0  0  0  0  0  0  0  0  0  0
    3.1593   -1.1581    4.8064 H   0  0  0  0  0  0  0  0  0  0  0  0
    3.4740   -3.0150    3.2352 H   0  0  0  0  0  0  0  0  0  0  0  0
    2.7262   -3.8822    0.6727 H   0  0  0  0  0  0  0  0  0  0  0  0
    1.3436   -3.1304   -1.2629 H   0  0  0  0  0  0  0  0  0  0  0  0
   -0.2310    0.4457   -0.2937 H   0  0  0  0  0  0  0  0  0  0  0  0
   -0.2031   -1.7289   -2.4607 H   0  0  0  0  0  0  0  0  0  0  0  0
   -2.6358   -1.4807   -3.3632 H   0  0  0  0  0  0  0  0  0  0  0  0
   -4.1260    0.0471   -4.6601 H   0  0  0  0  0  0  0  0  0  0  0  0
   -4.6863    2.9766   -4.2786 H   0  0  0  0  0  0  0  0  0  0  0  0
   -3.3422    3.4664   -5.3718 H   0  0  0  0  0  0  0  0  0  0  0  0
   -4.3510    2.0567   -5.7891 H   0  0  0  0  0  0  0  0  0  0  0  0
   -1.7909    3.3623   -3.6451 H   0  0  0  0  0  0  0  0  0  0  0  0
   -0.2247    1.9380   -2.3266 H   0  0  0  0  0  0  0  0  0  0  0  0
    0.5970    0.8659    1.9982 H   0  0  0  0  0  0  0  0  0  0  0  0
  1  2  1  0
  2  3  1  0
  3  4  2  0
  4  5  1  0
  5  6  2  0
  6  7  1  0
  7  8  1  0
  8  9  2  0
  9 10  1  0
 10 11  2  3
 11 12  1  0
 12 13  2  0
 13 14  1  0
 14 15  2  0
 15 16  1  0
 15 17  1  0
 17 18  2  0
  9 19  1  0
 19 20  2  0
 20  3  1  0
 19  6  1  0
 18 12  1  0
  1 21  1  0
  1 22  1  0
  1 23  1  0
  4 24  1  0
  5 25  1  0
  7 26  1  0
  8 27  1  0
 10 28  1  0
 11 29  1  0
 13 30  1  0
 14 31  1  0
 16 32  1  0
 16 33  1  0
 16 34  1  0
 17 35  1  0
 18 36  1  0
 20 37  1  0
M  CHG  1  15   1
M  END
$$$$
