
     RDKit          3D

 32 33  0  0  0  0  0  0  0  0999 V2000
    4.2676   -0.8145   -1.5686 C   0  0  0  0  0  0  0  0  0  0  0  0
    4.2948   -1.0506   -0.0682 C   0  0  0  0  0  0  0  0  0  0  0  0
    3.1422    0.0478    0.8080 S   0  0  0  0  0  0  0  0  0  0  0  0
    1.5891   -0.6123    0.4041 C   0  0  0  0  0  0  0  0  0  0  0  0
    1.1779   -1.8951    0.1321 C   0  0  0  0  0  0  0  0  0  0  0  0
   -0.1670   -1.9370   -0.1135 N   0  0  0  0  0  0  0  0  0  0  0  0
   -0.5989   -0.6940   -0.0029 C   0  0  0  0  0  0  0  0  0  0  0  0
   -1.9916   -0.2869   -0.1744 C   0  0  0  0  0  0  0  0  0  0  0  0
   -2.3887    0.4740   -1.2812 C   0  0  0  0  0  0  0  0  0  0  0  0
   -3.7232    0.8573   -1.4309 C   0  0  0  0  0  0  0  0  0  0  0  0
   -4.6696    0.4737   -0.4814 C   0  0  0  0  0  0  0  0  0  0  0  0
   -4.2860   -0.3003    0.6131 C   0  0  0  0  0  0  0  0  0  0  0  0
   -2.9520   -0.6842    0.7631 C   0  0  0  0  0  0  0  0  0  0  0  0
    0.4449    0.1514    0.3431 N   0  0  0  0  0  0  0  0  0  0  0  0
    0.3219    1.5710    0.6287 C   0  0  0  0  0  0  0  0  0  0  0  0
    0.0274    1.8449    2.0942 C   0  0  0  0  0  0  0  0  0  0  0  0
    5.0069   -1.4573   -2.0580 H   0  0  0  0  0  0  0  0  0  0  0  0
    4.5176    0.2229   -1.8156 H   0  0  0  0  0  0  0  0  0  0  0  0
    3.2908   -1.0493   -2.0029 H   0  0  0  0  0  0  0  0  0  0  0  0
    4.0812   -2.0977    0.1663 H   0  0  0  0  0  0  0  0  0  0  0  0
    5.3007   -0.8378    0.3086 H   0  0  0  0  0  0  0  0  0  0  0  0
    1.7713   -2.7987    0.1062 H   0  0  0  0  0  0  0  0  0  0  0  0
   -1.6625    0.7603   -2.0382 H   0  0  0  0  0  0  0  0  0  0  0  0
   -4.0261    1.4457   -2.2931 H   0  0  0  0  0  0  0  0  0  0  0  0
   -5.7096    0.7666   -0.6011 H   0  0  0  0  0  0  0  0  0  0  0  0
   -5.0256   -0.6135    1.3454 H   0  0  0  0  0  0  0  0  0  0  0  0
   -2.6608   -1.3013    1.6106 H   0  0  0  0  0  0  0  0  0  0  0  0
    1.2445    2.0718    0.3193 H   0  0  0  0  0  0  0  0  0  0  0  0
   -0.4698    1.9878    0.0003 H   0  0  0  0  0  0  0  0  0  0  0  0
   -0.0556    2.9221    2.2684 H   0  0  0  0  0  0  0  0  0  0  0  0
   -0.9128    1.3772    2.4042 H   0  0  0  0  0  0  0  0  0  0  0  0
    0.8211    1.4560    2.7402 H   0  0  0  0  0  0  0  0  0  0  0  0
  1  2  1  0
  2  3  1  0
  3  4  1  0
  4  5  2  0
  5  6  1  0
  6  7  2  0
  7  8  1  0
  8  9  2  0
  9 10  1  0
 10 11  2  0
 11 12  1  0
 12 13  2  0
  7 14  1  0
 14 15  1  0
 15 16  1  0
 14  4  1  0
 13  8  1  0
  1 17  1  0
  1 18  1  0
  1 19  1  0
  2 20  1  0
  2 21  1  0
  5 22  1  0
  9 23  1  0
 10 24  1  0
 11 25  1  0
 12 26  1  0
 13 27  1  0
 15 28  1  0
 15 29  1  0
 16 30  1  0
 16 31  1  0
 16 32  1  0
M  END
$$$$
