
     RDKit          3D

 68 70  0  0  0  0  0  0  0  0999 V2000
   -4.7919    5.0954   -0.7810 C   0  0  0  0  0  0  0  0  0  0  0  0
   -4.3723    4.7292    0.5280 O   0  0  0  0  0  0  0  0  0  0  0  0
   -3.7041    3.5425    0.6504 C   0  0  0  0  0  0  0  0  0  0  0  0
   -3.5185    2.5983   -0.3561 C   0  0  0  0  0  0  0  0  0  0  0  0
   -2.8051    1.4214   -0.0958 C   0  0  0  0  0  0  0  0  0  0  0  0
   -2.2736    1.1608    1.1763 C   0  0  0  0  0  0  0  0  0  0  0  0
   -1.4617   -0.0990    1.4966 C   0  0  0  0  0  0  0  0  0  0  0  0
   -1.9504   -1.4393    0.8719 C   0  0  0  0  0  0  0  0  0  0  0  0
   -1.1702   -2.3425    0.5688 O   0  0  0  0  0  0  0  0  0  0  0  0
   -3.3285   -1.5915    0.8045 N   0  0  0  0  0  0  0  0  0  0  0  0
   -4.0163   -2.7320    0.1802 C   0  0  0  0  0  0  0  0  0  0  0  0
   -5.5339   -2.4902    0.2968 C   0  0  0  0  0  0  0  0  0  0  0  0
   -3.6532   -2.8362   -1.3096 C   0  0  0  0  0  0  0  0  0  0  0  0
   -3.6872   -4.0487    0.9016 C   0  0  0  0  0  0  0  0  0  0  0  0
   -0.0056    0.1077    1.3005 N   0  0  0  0  0  0  0  0  0  0  0  0
    0.4820    0.1780   -0.0063 C   0  0  0  0  0  0  0  0  0  0  0  0
   -0.2585    0.1700   -0.9934 O   0  0  0  0  0  0  0  0  0  0  0  0
    1.9909    0.2063   -0.2048 C   0  0  0  0  0  0  0  0  0  0  0  0
    2.3795   -0.5192   -1.4910 C   0  0  0  0  0  0  0  0  0  0  0  0
    3.8462   -0.3317   -1.8245 C   0  0  0  0  0  0  0  0  0  0  0  0
    4.5452    0.5095   -1.2681 O   0  0  0  0  0  0  0  0  0  0  0  0
    4.2542   -1.1811   -2.8281 N   0  0  0  0  0  0  0  0  0  0  0  0
    5.4983   -1.1763   -3.4175 C   0  0  0  0  0  0  0  0  0  0  0  0
    6.5945   -0.3130   -3.1955 C   0  0  0  0  0  0  0  0  0  0  0  0
    7.5539   -0.7399   -4.0789 C   0  0  0  0  0  0  0  0  0  0  0  0
    8.9218   -0.3020   -4.4044 C   0  0  0  0  0  0  0  0  0  0  0  0
    7.0730   -1.8013   -4.7782 O   0  0  0  0  0  0  0  0  0  0  0  0
    5.7835   -2.0793   -4.3632 N   0  0  0  0  0  0  0  0  0  0  0  0
    0.7620    0.4201    2.4589 C   0  0  0  0  0  0  0  0  0  0  0  0
    1.5447    1.5819    2.5133 C   0  0  0  0  0  0  0  0  0  0  0  0
    2.2811    1.8935    3.6608 C   0  0  0  0  0  0  0  0  0  0  0  0
    2.2347    1.0500    4.7668 C   0  0  0  0  0  0  0  0  0  0  0  0
    1.4522   -0.0966    4.7149 C   0  0  0  0  0  0  0  0  0  0  0  0
    1.4149   -0.9165    5.7740 F   0  0  0  0  0  0  0  0  0  0  0  0
    0.7141   -0.4169    3.5794 C   0  0  0  0  0  0  0  0  0  0  0  0
   -2.4673    2.1222    2.1820 C   0  0  0  0  0  0  0  0  0  0  0  0
   -3.1794    3.2954    1.9197 C   0  0  0  0  0  0  0  0  0  0  0  0
   -5.5454    4.3980   -1.1643 H   0  0  0  0  0  0  0  0  0  0  0  0
   -3.9382    5.1706   -1.4640 H   0  0  0  0  0  0  0  0  0  0  0  0
   -5.2546    6.0850   -0.7184 H   0  0  0  0  0  0  0  0  0  0  0  0
   -3.9018    2.7479   -1.3613 H   0  0  0  0  0  0  0  0  0  0  0  0
   -2.6550    0.7177   -0.9149 H   0  0  0  0  0  0  0  0  0  0  0  0
   -1.6379   -0.2866    2.5661 H   0  0  0  0  0  0  0  0  0  0  0  0
   -3.8906   -0.7653    0.9782 H   0  0  0  0  0  0  0  0  0  0  0  0
   -6.1055   -3.3051   -0.1608 H   0  0  0  0  0  0  0  0  0  0  0  0
   -5.8243   -1.5567   -0.1996 H   0  0  0  0  0  0  0  0  0  0  0  0
   -5.8412   -2.4088    1.3455 H   0  0  0  0  0  0  0  0  0  0  0  0
   -4.2254   -3.6309   -1.8010 H   0  0  0  0  0  0  0  0  0  0  0  0
   -2.5914   -3.0588   -1.4573 H   0  0  0  0  0  0  0  0  0  0  0  0
   -3.8641   -1.8959   -1.8326 H   0  0  0  0  0  0  0  0  0  0  0  0
   -2.6333   -4.3263    0.7990 H   0  0  0  0  0  0  0  0  0  0  0  0
   -3.9043   -3.9734    1.9740 H   0  0  0  0  0  0  0  0  0  0  0  0
   -4.2801   -4.8784    0.4983 H   0  0  0  0  0  0  0  0  0  0  0  0
    2.5124   -0.2716    0.6297 H   0  0  0  0  0  0  0  0  0  0  0  0
    2.2994    1.2552   -0.2587 H   0  0  0  0  0  0  0  0  0  0  0  0
    2.1606   -1.5895   -1.3881 H   0  0  0  0  0  0  0  0  0  0  0  0
    1.8038   -0.1402   -2.3441 H   0  0  0  0  0  0  0  0  0  0  0  0
    3.6269   -1.8856   -3.1959 H   0  0  0  0  0  0  0  0  0  0  0  0
    6.6724    0.5140   -2.5050 H   0  0  0  0  0  0  0  0  0  0  0  0
    9.6484   -1.0729   -4.1260 H   0  0  0  0  0  0  0  0  0  0  0  0
    9.0170   -0.1042   -5.4761 H   0  0  0  0  0  0  0  0  0  0  0  0
    9.1763    0.6178   -3.8673 H   0  0  0  0  0  0  0  0  0  0  0  0
    1.5645    2.2815    1.6804 H   0  0  0  0  0  0  0  0  0  0  0  0
    2.8830    2.7993    3.6889 H   0  0  0  0  0  0  0  0  0  0  0  0
    2.8026    1.2758    5.6639 H   0  0  0  0  0  0  0  0  0  0  0  0
    0.1474   -1.3437    3.5732 H   0  0  0  0  0  0  0  0  0  0  0  0
   -2.0576    1.9722    3.1801 H   0  0  0  0  0  0  0  0  0  0  0  0
   -3.3130    4.0304    2.7093 H   0  0  0  0  0  0  0  0  0  0  0  0
  1  2  1  0
  2  3  1  0
  3  4  2  0
  4  5  1  0
  5  6  2  0
  6  7  1  0
  7  8  1  0
  8  9  2  0
  8 10  1  0
 10 11  1  0
 11 12  1  0
 11 13  1  0
 11 14  1  0
  7 15  1  0
 15 16  1  0
 16 17  2  0
 16 18  1  0
 18 19  1  0
 19 20  1  0
 20 21  2  0
 20 22  1  0
 22 23  1  0
 23 24  1  0
 24 25  2  0
 25 26  1  0
 25 27  1  0
 27 28  1  0
 15 29  1  0
 29 30  2  0
 30 31  1  0
 31 32  2  0
 32 33  1  0
 33 34  1  0
 33 35  2  0
  6 36  1  0
 36 37  2  0
 37  3  1  0
 28 23  2  0
 35 29  1  0
  1 38  1  0
  1 39  1  0
  1 40  1  0
  4 41  1  0
  5 42  1  0
  7 43  1  0
 10 44  1  0
 12 45  1  0
 12 46  1  0
 12 47  1  0
 13 48  1  0
 13 49  1  0
 13 50  1  0
 14 51  1  0
 14 52  1  0
 14 53  1  0
 18 54  1  0
 18 55  1  0
 19 56  1  0
 19 57  1  0
 22 58  1  0
 24 59  1  0
 26 60  1  0
 26 61  1  0
 26 62  1  0
 30 63  1  0
 31 64  1  0
 32 65  1  0
 35 66  1  0
 36 67  1  0
 37 68  1  0
M  END
$$$$
