
     RDKit          3D

 54 57  0  0  0  0  0  0  0  0999 V2000
   -5.5275    1.5721    2.7712 C   0  0  0  0  0  0  0  0  0  0  0  0
   -5.3707    1.7404    1.3686 O   0  0  0  0  0  0  0  0  0  0  0  0
   -4.0934    1.6772    0.8859 C   0  0  0  0  0  0  0  0  0  0  0  0
   -3.9925    1.7217   -0.5039 C   0  0  0  0  0  0  0  0  0  0  0  0
   -2.7517    1.5954   -1.1307 C   0  0  0  0  0  0  0  0  0  0  0  0
   -1.5937    1.4380   -0.3593 C   0  0  0  0  0  0  0  0  0  0  0  0
   -0.3390    1.2614   -0.9953 N   0  0  0  0  0  0  0  0  0  0  0  0
   -0.0345    0.3919   -2.0416 C   0  0  0  0  0  0  0  0  0  0  0  0
   -0.9325   -0.6779   -2.5827 C   0  0  0  0  0  0  0  0  0  0  0  0
   -1.3291   -1.6978   -1.5514 C   0  0  0  0  0  0  0  0  0  0  0  0
   -0.5458   -2.3229   -0.5883 C   0  0  0  0  0  0  0  0  0  0  0  0
   -1.3798   -3.1849    0.1567 C   0  0  0  0  0  0  0  0  0  0  0  0
   -2.6465   -3.0844   -0.3706 C   0  0  0  0  0  0  0  0  0  0  0  0
   -2.6040   -2.2095   -1.4236 N   0  0  0  0  0  0  0  0  0  0  0  0
   -3.7342   -1.9335   -2.2836 C   0  0  0  0  0  0  0  0  0  0  0  0
    1.2266    0.5578   -2.4009 N   0  0  0  0  0  0  0  0  0  0  0  0
    1.7812    1.4962   -1.5836 N   0  0  0  0  0  0  0  0  0  0  0  0
    0.8637    1.8888   -0.7293 C   0  0  0  0  0  0  0  0  0  0  0  0
    1.1239    3.1164    0.4680 S   0  0  0  0  0  0  0  0  0  0  0  0
    2.9332    3.2573    0.4476 C   0  0  0  0  0  0  0  0  0  0  0  0
    3.5884    2.0557    1.1082 C   0  0  0  0  0  0  0  0  0  0  0  0
    3.8461    2.0635    2.3105 O   0  0  0  0  0  0  0  0  0  0  0  0
    3.8447    1.0188    0.2266 N   0  0  0  0  0  0  0  0  0  0  0  0
    4.5325   -0.1849    0.4857 C   0  0  0  0  0  0  0  0  0  0  0  0
    4.5302   -1.1496   -0.5344 C   0  0  0  0  0  0  0  0  0  0  0  0
    5.2242   -2.3543   -0.3836 C   0  0  0  0  0  0  0  0  0  0  0  0
    5.9244   -2.6025    0.7963 C   0  0  0  0  0  0  0  0  0  0  0  0
    5.9154   -1.6515    1.8062 C   0  0  0  0  0  0  0  0  0  0  0  0
    6.5978   -1.8889    2.9348 F   0  0  0  0  0  0  0  0  0  0  0  0
    5.2254   -0.4515    1.6628 C   0  0  0  0  0  0  0  0  0  0  0  0
   -1.6892    1.4308    1.0353 C   0  0  0  0  0  0  0  0  0  0  0  0
   -2.9366    1.5485    1.6524 C   0  0  0  0  0  0  0  0  0  0  0  0
   -5.0982    0.6238    3.1079 H   0  0  0  0  0  0  0  0  0  0  0  0
   -5.0931    2.4107    3.3181 H   0  0  0  0  0  0  0  0  0  0  0  0
   -6.5978    1.5471    2.9872 H   0  0  0  0  0  0  0  0  0  0  0  0
   -4.8960    1.8380   -1.1031 H   0  0  0  0  0  0  0  0  0  0  0  0
   -2.7114    1.6512   -2.2152 H   0  0  0  0  0  0  0  0  0  0  0  0
   -0.3940   -1.2071   -3.3820 H   0  0  0  0  0  0  0  0  0  0  0  0
   -1.8015   -0.2222   -3.0673 H   0  0  0  0  0  0  0  0  0  0  0  0
    0.5146   -2.1657   -0.4364 H   0  0  0  0  0  0  0  0  0  0  0  0
   -1.0896   -3.8120    0.9897 H   0  0  0  0  0  0  0  0  0  0  0  0
   -3.5654   -3.5807   -0.0888 H   0  0  0  0  0  0  0  0  0  0  0  0
   -3.4767   -2.2506   -3.2971 H   0  0  0  0  0  0  0  0  0  0  0  0
   -3.9537   -0.8658   -2.2563 H   0  0  0  0  0  0  0  0  0  0  0  0
   -4.6044   -2.4920   -1.9350 H   0  0  0  0  0  0  0  0  0  0  0  0
    3.3161    3.3979   -0.5679 H   0  0  0  0  0  0  0  0  0  0  0  0
    3.2173    4.1493    1.0160 H   0  0  0  0  0  0  0  0  0  0  0  0
    3.4037    1.0891   -0.6887 H   0  0  0  0  0  0  0  0  0  0  0  0
    3.9898   -0.9729   -1.4618 H   0  0  0  0  0  0  0  0  0  0  0  0
    5.2188   -3.0885   -1.1846 H   0  0  0  0  0  0  0  0  0  0  0  0
    6.4756   -3.5321    0.9280 H   0  0  0  0  0  0  0  0  0  0  0  0
    5.2708    0.2581    2.4848 H   0  0  0  0  0  0  0  0  0  0  0  0
   -0.8142    1.2770    1.6677 H   0  0  0  0  0  0  0  0  0  0  0  0
   -2.9681    1.5097    2.7313 H   0  0  0  0  0  0  0  0  0  0  0  0
  1  2  1  0
  2  3  1  0
  3  4  2  0
  4  5  1  0
  5  6  2  0
  6  7  1  0
  7  8  1  0
  8  9  1  0
  9 10  1  0
 10 11  2  0
 11 12  1  0
 12 13  2  0
 13 14  1  0
 14 15  1  0
  8 16  2  0
 16 17  1  0
 17 18  2  0
 18 19  1  0
 19 20  1  0
 20 21  1  0
 21 22  2  0
 21 23  1  0
 23 24  1  0
 24 25  2  0
 25 26  1  0
 26 27  2  0
 27 28  1  0
 28 29  1  0
 28 30  2  0
  6 31  1  0
 31 32  2  0
 32  3  1  0
 18  7  1  0
 30 24  1  0
 14 10  1  0
  1 33  1  0
  1 34  1  0
  1 35  1  0
  4 36  1  0
  5 37  1  0
  9 38  1  0
  9 39  1  0
 11 40  1  0
 12 41  1  0
 13 42  1  0
 15 43  1  0
 15 44  1  0
 15 45  1  0
 20 46  1  0
 20 47  1  0
 23 48  1  0
 25 49  1  0
 26 50  1  0
 27 51  1  0
 30 52  1  0
 31 53  1  0
 32 54  1  0
M  END
$$$$
