
     RDKit          3D

 51 54  0  0  0  0  0  0  0  0999 V2000
   -7.8338   -0.1856    1.0169 C   0  0  0  0  0  0  0  0  0  0  0  0
   -6.5614   -0.1529    0.1806 C   0  0  0  0  0  0  0  0  0  0  0  0
   -5.6237    0.8833    0.6454 N   0  0  0  0  0  0  0  0  0  0  0  0
   -6.0742    2.2894    0.6027 C   0  0  0  0  0  0  0  0  0  0  0  0
   -6.1949    2.8261   -0.8177 C   0  0  0  0  0  0  0  0  0  0  0  0
   -4.2595    0.6981    0.3605 C   0  0  0  0  0  0  0  0  0  0  0  0
   -3.2880    1.3112    1.1744 C   0  0  0  0  0  0  0  0  0  0  0  0
   -1.9150    1.1570    0.9378 C   0  0  0  0  0  0  0  0  0  0  0  0
   -1.4794    0.3753   -0.1272 C   0  0  0  0  0  0  0  0  0  0  0  0
   -0.0727    0.1860   -0.4310 C   0  0  0  0  0  0  0  0  0  0  0  0
    0.3141   -0.5767   -1.4685 C   0  0  0  0  0  0  0  0  0  0  0  0
    1.7173   -0.7127   -1.7101 C   0  0  0  0  0  0  0  0  0  0  0  0
    2.6484   -0.7956   -0.7726 N   0  0  0  0  0  0  0  0  0  0  0  0
    3.9223   -0.8608   -1.3181 C   0  0  0  0  0  0  0  0  0  0  0  0
    5.0994   -0.9749   -0.4611 C   0  0  0  0  0  0  0  0  0  0  0  0
    6.3794   -0.6034   -0.8939 C   0  0  0  0  0  0  0  0  0  0  0  0
    7.4879   -0.7122   -0.0413 C   0  0  0  0  0  0  0  0  0  0  0  0
    7.3315   -1.1916    1.2585 C   0  0  0  0  0  0  0  0  0  0  0  0
    8.3235   -1.3418    2.1869 O   0  0  0  0  0  0  0  0  0  0  0  0
    9.6274   -0.9191    1.8095 C   0  0  0  0  0  0  0  0  0  0  0  0
    6.0601   -1.5630    1.6958 C   0  0  0  0  0  0  0  0  0  0  0  0
    4.9538   -1.4523    0.8478 C   0  0  0  0  0  0  0  0  0  0  0  0
    3.9530   -0.8157   -2.6957 C   0  0  0  0  0  0  0  0  0  0  0  0
    2.3676   -0.6511   -3.3173 S   0  0  0  0  0  0  0  0  0  0  0  0
   -0.6909   -1.2916   -2.3014 C   0  0  0  0  0  0  0  0  0  0  0  0
   -0.3893   -2.0704   -3.1995 O   0  0  0  0  0  0  0  0  0  0  0  0
   -2.0334   -1.0471   -2.0105 O   0  0  0  0  0  0  0  0  0  0  0  0
   -2.4283   -0.2389   -0.9291 C   0  0  0  0  0  0  0  0  0  0  0  0
   -3.7982   -0.0918   -0.7009 C   0  0  0  0  0  0  0  0  0  0  0  0
   -8.4519    0.7010    0.8474 H   0  0  0  0  0  0  0  0  0  0  0  0
   -8.4364   -1.0591    0.7486 H   0  0  0  0  0  0  0  0  0  0  0  0
   -7.6026   -0.2429    2.0855 H   0  0  0  0  0  0  0  0  0  0  0  0
   -6.1003   -1.1444    0.2800 H   0  0  0  0  0  0  0  0  0  0  0  0
   -6.8126   -0.0105   -0.8767 H   0  0  0  0  0  0  0  0  0  0  0  0
   -5.4035    2.9394    1.1762 H   0  0  0  0  0  0  0  0  0  0  0  0
   -7.0442    2.3820    1.1026 H   0  0  0  0  0  0  0  0  0  0  0  0
   -6.9254    2.2576   -1.4010 H   0  0  0  0  0  0  0  0  0  0  0  0
   -6.5251    3.8697   -0.7966 H   0  0  0  0  0  0  0  0  0  0  0  0
   -5.2370    2.7882   -1.3456 H   0  0  0  0  0  0  0  0  0  0  0  0
   -3.6005    1.8999    2.0344 H   0  0  0  0  0  0  0  0  0  0  0  0
   -1.2060    1.6468    1.6007 H   0  0  0  0  0  0  0  0  0  0  0  0
    0.6538    0.6903    0.2014 H   0  0  0  0  0  0  0  0  0  0  0  0
    6.5404   -0.2082   -1.8935 H   0  0  0  0  0  0  0  0  0  0  0  0
    8.4566   -0.4090   -0.4252 H   0  0  0  0  0  0  0  0  0  0  0  0
   10.2906   -1.0753    2.6652 H   0  0  0  0  0  0  0  0  0  0  0  0
    9.6426    0.1489    1.5680 H   0  0  0  0  0  0  0  0  0  0  0  0
   10.0103   -1.5179    0.9767 H   0  0  0  0  0  0  0  0  0  0  0  0
    5.9250   -1.9369    2.7077 H   0  0  0  0  0  0  0  0  0  0  0  0
    3.9734   -1.7448    1.2193 H   0  0  0  0  0  0  0  0  0  0  0  0
    4.7987   -0.8653   -3.3653 H   0  0  0  0  0  0  0  0  0  0  0  0
   -4.4886   -0.5867   -1.3755 H   0  0  0  0  0  0  0  0  0  0  0  0
  1  2  1  0
  2  3  1  0
  3  4  1  0
  4  5  1  0
  3  6  1  0
  6  7  2  0
  7  8  1  0
  8  9  2  0
  9 10  1  0
 10 11  2  0
 11 12  1  0
 12 13  2  0
 13 14  1  0
 14 15  1  0
 15 16  2  0
 16 17  1  0
 17 18  2  0
 18 19  1  0
 19 20  1  0
 18 21  1  0
 21 22  2  0
 14 23  2  0
 23 24  1  0
 11 25  1  0
 25 26  2  0
 25 27  1  0
 27 28  1  0
 28 29  2  0
 29  6  1  0
 28  9  1  0
 24 12  1  0
 22 15  1  0
  1 30  1  0
  1 31  1  0
  1 32  1  0
  2 33  1  0
  2 34  1  0
  4 35  1  0
  4 36  1  0
  5 37  1  0
  5 38  1  0
  5 39  1  0
  7 40  1  0
  8 41  1  0
 10 42  1  0
 16 43  1  0
 17 44  1  0
 20 45  1  0
 20 46  1  0
 20 47  1  0
 21 48  1  0
 22 49  1  0
 23 50  1  0
 29 51  1  0
M  END
$$$$
