
     RDKit          3D

 49 52  0  0  0  0  0  0  0  0999 V2000
   -0.0606    3.8022    1.8517 O   0  0  0  0  0  0  0  0  0  0  0  0
   -0.8914    3.0075    1.4527 C   0  0  0  0  0  0  0  0  0  0  0  0
   -1.9244    2.6244    2.2212 O   0  0  0  0  0  0  0  0  0  0  0  0
   -0.9640    2.4476    0.0847 C   0  0  0  0  0  0  0  0  0  0  0  0
   -0.6943    3.3855   -0.9335 C   0  0  0  0  0  0  0  0  0  0  0  0
   -0.8754    3.0559   -2.2718 C   0  0  0  0  0  0  0  0  0  0  0  0
   -1.3590    1.7968   -2.5989 C   0  0  0  0  0  0  0  0  0  0  0  0
   -1.6134    0.8563   -1.5875 C   0  0  0  0  0  0  0  0  0  0  0  0
   -2.1813   -0.4547   -1.9778 C   0  0  0  0  0  0  0  0  0  0  0  0
   -2.2921   -0.7638   -3.1601 O   0  0  0  0  0  0  0  0  0  0  0  0
   -2.6361   -1.3719   -0.9148 C   0  0  0  0  0  0  0  0  0  0  0  0
   -3.3670   -2.5182   -1.2545 C   0  0  0  0  0  0  0  0  0  0  0  0
   -3.7978   -3.3848   -0.2544 C   0  0  0  0  0  0  0  0  0  0  0  0
   -3.5008   -3.1022    1.0759 C   0  0  0  0  0  0  0  0  0  0  0  0
   -2.7630   -1.9597    1.4073 C   0  0  0  0  0  0  0  0  0  0  0  0
   -2.2995   -1.0797    0.4156 C   0  0  0  0  0  0  0  0  0  0  0  0
   -1.5427    0.0787    0.7172 N   0  0  0  0  0  0  0  0  0  0  0  0
   -0.5050   -0.0799    1.7730 C   0  0  0  0  0  0  0  0  0  0  0  0
    0.5135   -1.2227    1.5294 C   0  0  0  0  0  0  0  0  0  0  0  0
    1.3280   -1.3628    2.7087 O   0  0  0  0  0  0  0  0  0  0  0  0
    1.4270   -1.0049    0.3006 C   0  0  0  0  0  0  0  0  0  0  0  0
    2.3402    0.1489    0.4960 N   0  0  0  0  0  0  0  0  0  0  0  0
    3.7076   -0.2951    0.8435 C   0  0  0  0  0  0  0  0  0  0  0  0
    4.4271   -0.5813   -0.4692 C   0  0  0  0  0  0  0  0  0  0  0  0
    3.5877    0.0958   -1.5402 C   0  0  0  0  0  0  0  0  0  0  0  0
    2.5478    0.8860   -0.7659 C   0  0  0  0  0  0  0  0  0  0  0  0
   -1.3579    1.1250   -0.2245 C   0  0  0  0  0  0  0  0  0  0  0  0
   -1.7981    3.1102    3.0624 H   0  0  0  0  0  0  0  0  0  0  0  0
   -0.3696    4.3929   -0.6747 H   0  0  0  0  0  0  0  0  0  0  0  0
   -0.6780    3.7878   -3.0510 H   0  0  0  0  0  0  0  0  0  0  0  0
   -1.5483    1.5453   -3.6412 H   0  0  0  0  0  0  0  0  0  0  0  0
   -3.6030   -2.7299   -2.2952 H   0  0  0  0  0  0  0  0  0  0  0  0
   -4.3699   -4.2728   -0.5115 H   0  0  0  0  0  0  0  0  0  0  0  0
   -3.8474   -3.7685    1.8626 H   0  0  0  0  0  0  0  0  0  0  0  0
   -2.5726   -1.7644    2.4596 H   0  0  0  0  0  0  0  0  0  0  0  0
    0.0743    0.8325    1.9370 H   0  0  0  0  0  0  0  0  0  0  0  0
   -0.9984   -0.2398    2.7409 H   0  0  0  0  0  0  0  0  0  0  0  0
   -0.0024   -2.1796    1.4074 H   0  0  0  0  0  0  0  0  0  0  0  0
    1.9168   -0.5826    2.6972 H   0  0  0  0  0  0  0  0  0  0  0  0
    0.7914   -0.8693   -0.5813 H   0  0  0  0  0  0  0  0  0  0  0  0
    1.9987   -1.9242    0.1180 H   0  0  0  0  0  0  0  0  0  0  0  0
    3.7369   -1.1539    1.5229 H   0  0  0  0  0  0  0  0  0  0  0  0
    4.2129    0.5290    1.3627 H   0  0  0  0  0  0  0  0  0  0  0  0
    4.4870   -1.6581   -0.6625 H   0  0  0  0  0  0  0  0  0  0  0  0
    5.4476   -0.1847   -0.4513 H   0  0  0  0  0  0  0  0  0  0  0  0
    3.1066   -0.6620   -2.1701 H   0  0  0  0  0  0  0  0  0  0  0  0
    4.1909    0.7389   -2.1886 H   0  0  0  0  0  0  0  0  0  0  0  0
    1.6305    1.0417   -1.3413 H   0  0  0  0  0  0  0  0  0  0  0  0
    2.9410    1.8825   -0.5263 H   0  0  0  0  0  0  0  0  0  0  0  0
  1  2  2  0
  2  3  1  0
  2  4  1  0
  4  5  2  0
  5  6  1  0
  6  7  2  0
  7  8  1  0
  8  9  1  0
  9 10  2  0
  9 11  1  0
 11 12  2  0
 12 13  1  0
 13 14  2  0
 14 15  1  0
 15 16  2  0
 16 17  1  0
 17 18  1  0
 18 19  1  0
 19 20  1  0
 19 21  1  0
 21 22  1  0
 22 23  1  0
 23 24  1  0
 24 25  1  0
 25 26  1  0
 17 27  1  0
 27  4  1  0
 27  8  2  0
 16 11  1  0
 26 22  1  0
  3 28  1  0
  5 29  1  0
  6 30  1  0
  7 31  1  0
 12 32  1  0
 13 33  1  0
 14 34  1  0
 15 35  1  0
 18 36  1  0
 18 37  1  0
 19 38  1  0
 20 39  1  0
 21 40  1  0
 21 41  1  0
 23 42  1  0
 23 43  1  0
 24 44  1  0
 24 45  1  0
 25 46  1  0
 25 47  1  0
 26 48  1  0
 26 49  1  0
M  END
$$$$
