
     RDKit          3D

 33 35  0  0  0  0  0  0  0  0999 V2000
   -0.0982    1.6498   -1.6907 O   0  0  0  0  0  0  0  0  0  0  0  0
   -0.0364    0.8433   -0.7640 C   0  0  0  0  0  0  0  0  0  0  0  0
   -1.2848    0.2710   -0.1486 C   0  0  0  0  0  0  0  0  0  0  0  0
   -2.4371    0.8238   -0.5823 C   0  0  0  0  0  0  0  0  0  0  0  0
   -3.7365    0.4705   -0.1164 C   0  0  0  0  0  0  0  0  0  0  0  0
   -4.9645    0.8699   -0.6365 C   0  0  0  0  0  0  0  0  0  0  0  0
   -5.9874    0.2912    0.1507 C   0  0  0  0  0  0  0  0  0  0  0  0
   -5.3444   -0.4310    1.1212 C   0  0  0  0  0  0  0  0  0  0  0  0
   -4.0022   -0.3288    0.9743 O   0  0  0  0  0  0  0  0  0  0  0  0
   -1.1813   -0.8447    0.8547 C   0  0  0  0  0  0  0  0  0  0  0  0
    0.1818   -1.5205    0.8992 C   0  0  0  0  0  0  0  0  0  0  0  0
    1.2757   -0.4743    1.0069 C   0  0  0  0  0  0  0  0  0  0  0  0
    1.2900    0.3888   -0.2193 C   0  0  0  0  0  0  0  0  0  0  0  0
    2.3738    0.8279   -0.8898 C   0  0  0  0  0  0  0  0  0  0  0  0
    3.7178    0.5142   -0.5533 C   0  0  0  0  0  0  0  0  0  0  0  0
    4.3477   -0.7133   -0.3738 C   0  0  0  0  0  0  0  0  0  0  0  0
    5.7110   -0.4683   -0.0847 C   0  0  0  0  0  0  0  0  0  0  0  0
    5.8600    0.8935   -0.1212 C   0  0  0  0  0  0  0  0  0  0  0  0
    4.6799    1.4899   -0.4136 O   0  0  0  0  0  0  0  0  0  0  0  0
   -2.4097    1.6109   -1.3343 H   0  0  0  0  0  0  0  0  0  0  0  0
   -5.0971    1.5122   -1.4969 H   0  0  0  0  0  0  0  0  0  0  0  0
   -7.0562    0.3915    0.0263 H   0  0  0  0  0  0  0  0  0  0  0  0
   -5.6795   -1.0401    1.9489 H   0  0  0  0  0  0  0  0  0  0  0  0
   -1.9208   -1.6248    0.6402 H   0  0  0  0  0  0  0  0  0  0  0  0
   -1.4041   -0.4402    1.8505 H   0  0  0  0  0  0  0  0  0  0  0  0
    0.2245   -2.1951    1.7622 H   0  0  0  0  0  0  0  0  0  0  0  0
    0.3291   -2.1380    0.0036 H   0  0  0  0  0  0  0  0  0  0  0  0
    1.1065    0.1581    1.8877 H   0  0  0  0  0  0  0  0  0  0  0  0
    2.2247   -0.9876    1.1746 H   0  0  0  0  0  0  0  0  0  0  0  0
    2.2623    1.5122   -1.7290 H   0  0  0  0  0  0  0  0  0  0  0  0
    3.8702   -1.6800   -0.4563 H   0  0  0  0  0  0  0  0  0  0  0  0
    6.4878   -1.1934    0.1114 H   0  0  0  0  0  0  0  0  0  0  0  0
    6.6976    1.5616    0.0225 H   0  0  0  0  0  0  0  0  0  0  0  0
  1  2  2  0
  2  3  1  0
  3  4  2  3
  4  5  1  0
  5  6  2  0
  6  7  1  0
  7  8  2  0
  8  9  1  0
  3 10  1  0
 10 11  1  0
 11 12  1  0
 12 13  1  0
 13 14  2  3
 14 15  1  0
 15 16  2  0
 16 17  1  0
 17 18  2  0
 18 19  1  0
 13  2  1  0
 19 15  1  0
  9  5  1  0
  4 20  1  0
  6 21  1  0
  7 22  1  0
  8 23  1  0
 10 24  1  0
 10 25  1  0
 11 26  1  0
 11 27  1  0
 12 28  1  0
 12 29  1  0
 14 30  1  0
 16 31  1  0
 17 32  1  0
 18 33  1  0
M  END
$$$$
