
     RDKit          3D

 37 39  0  0  0  0  0  0  0  0999 V2000
   -0.4299   -1.4966    2.0939 C   0  0  0  0  0  0  0  0  0  0  0  0
   -0.8450   -0.5821    1.0507 N   0  0  0  0  0  0  0  0  0  0  0  0
   -0.0779    0.0071    0.0367 C   0  0  0  0  0  0  0  0  0  0  0  0
    1.2572    0.1082   -0.1268 C   0  0  0  0  0  0  0  0  0  0  0  0
    2.3005   -0.2991    0.7900 C   0  0  0  0  0  0  0  0  0  0  0  0
    3.6167   -0.3565    0.5377 C   0  0  0  0  0  0  0  0  0  0  0  0
    4.7740   -0.8347    1.7447 S   0  0  0  0  0  0  0  0  0  0  0  0
    6.1242   -0.6583    0.6513 C   0  0  0  0  0  0  0  0  0  0  0  0
    7.7184   -0.9324    1.0013 S   0  0  0  0  0  0  0  0  0  0  0  0
    5.6776   -0.2527   -0.5669 N   0  0  0  0  0  0  0  0  0  0  0  0
    4.3342   -0.0601   -0.7373 C   0  0  0  0  0  0  0  0  0  0  0  0
    3.8328    0.3011   -1.7891 O   0  0  0  0  0  0  0  0  0  0  0  0
   -1.0600    0.6467   -1.0060 C   0  0  0  0  0  0  0  0  0  0  0  0
   -0.9970   -0.0822   -2.3556 C   0  0  0  0  0  0  0  0  0  0  0  0
   -0.8207    2.1542   -1.1821 C   0  0  0  0  0  0  0  0  0  0  0  0
   -2.4047    0.4044   -0.3395 C   0  0  0  0  0  0  0  0  0  0  0  0
   -3.6724    0.7860   -0.7625 C   0  0  0  0  0  0  0  0  0  0  0  0
   -4.7649    0.4470    0.0337 C   0  0  0  0  0  0  0  0  0  0  0  0
   -4.5780   -0.2587    1.2297 C   0  0  0  0  0  0  0  0  0  0  0  0
   -3.2959   -0.6400    1.6434 C   0  0  0  0  0  0  0  0  0  0  0  0
   -2.2058   -0.3137    0.8520 C   0  0  0  0  0  0  0  0  0  0  0  0
   -1.2180   -2.2002    2.3823 H   0  0  0  0  0  0  0  0  0  0  0  0
    0.4030   -2.1243    1.7608 H   0  0  0  0  0  0  0  0  0  0  0  0
   -0.1230   -0.9421    2.9865 H   0  0  0  0  0  0  0  0  0  0  0  0
    1.6039    0.5968   -1.0358 H   0  0  0  0  0  0  0  0  0  0  0  0
    1.9723   -0.5412    1.7958 H   0  0  0  0  0  0  0  0  0  0  0  0
    6.3088   -0.0954   -1.3377 H   0  0  0  0  0  0  0  0  0  0  0  0
   -1.7576    0.2957   -3.0489 H   0  0  0  0  0  0  0  0  0  0  0  0
   -0.0215    0.0497   -2.8369 H   0  0  0  0  0  0  0  0  0  0  0  0
   -1.1676   -1.1596   -2.2412 H   0  0  0  0  0  0  0  0  0  0  0  0
    0.1510    2.3581   -1.6451 H   0  0  0  0  0  0  0  0  0  0  0  0
   -0.8484    2.6809   -0.2204 H   0  0  0  0  0  0  0  0  0  0  0  0
   -1.5848    2.6080   -1.8240 H   0  0  0  0  0  0  0  0  0  0  0  0
   -3.8146    1.3348   -1.6874 H   0  0  0  0  0  0  0  0  0  0  0  0
   -5.7679    0.7344   -0.2720 H   0  0  0  0  0  0  0  0  0  0  0  0
   -5.4384   -0.5105    1.8449 H   0  0  0  0  0  0  0  0  0  0  0  0
   -3.1804   -1.1728    2.5798 H   0  0  0  0  0  0  0  0  0  0  0  0
  1  2  1  0
  2  3  1  0
  3  4  2  3
  4  5  1  0
  5  6  2  3
  6  7  1  0
  7  8  1  0
  8  9  2  0
  8 10  1  0
 10 11  1  0
 11 12  2  0
  3 13  1  0
 13 14  1  0
 13 15  1  0
 13 16  1  0
 16 17  2  0
 17 18  1  0
 18 19  2  0
 19 20  1  0
 20 21  2  0
 21  2  1  0
 11  6  1  0
 21 16  1  0
  1 22  1  0
  1 23  1  0
  1 24  1  0
  4 25  1  0
  5 26  1  0
 10 27  1  0
 14 28  1  0
 14 29  1  0
 14 30  1  0
 15 31  1  0
 15 32  1  0
 15 33  1  0
 17 34  1  0
 18 35  1  0
 19 36  1  0
 20 37  1  0
M  END
$$$$
