
     RDKit          3D

 56 59  0  0  0  0  0  0  0  0999 V2000
   -4.2469   -1.0596    2.0343 C   0  0  0  0  0  0  0  0  0  0  0  0
   -3.2518   -2.1967    1.8090 C   0  0  0  0  0  0  0  0  0  0  0  0
   -2.1945   -1.9635    0.7081 C   0  0  0  0  0  0  0  0  0  0  0  0
   -2.8110   -1.3873   -0.5901 C   0  0  0  0  0  0  0  0  0  0  0  0
   -2.5813   -0.2438   -0.9785 O   0  0  0  0  0  0  0  0  0  0  0  0
   -3.6623   -2.2830   -1.2200 N   0  0  0  0  0  0  0  0  0  0  0  0
   -4.3901   -2.0851   -2.4154 C   0  0  0  0  0  0  0  0  0  0  0  0
   -4.3385   -0.9289   -3.1917 C   0  0  0  0  0  0  0  0  0  0  0  0
   -5.0971   -0.8499   -4.3616 C   0  0  0  0  0  0  0  0  0  0  0  0
   -5.0383    0.2613   -5.1064 F   0  0  0  0  0  0  0  0  0  0  0  0
   -5.9215   -1.8979   -4.7698 C   0  0  0  0  0  0  0  0  0  0  0  0
   -5.9795   -3.0578   -4.0046 C   0  0  0  0  0  0  0  0  0  0  0  0
   -5.2125   -3.1426   -2.8426 C   0  0  0  0  0  0  0  0  0  0  0  0
   -5.2727   -4.2664   -2.1111 F   0  0  0  0  0  0  0  0  0  0  0  0
   -1.0467   -1.1417    1.1121 N   0  0  0  0  0  0  0  0  0  0  0  0
   -1.2567   -0.1510    2.0792 N   0  0  0  0  0  0  0  0  0  0  0  0
   -0.3302    0.7145    2.3802 C   0  0  0  0  0  0  0  0  0  0  0  0
   -0.6358    1.7599    3.4173 C   0  0  0  0  0  0  0  0  0  0  0  0
    0.9475    0.6384    1.7199 C   0  0  0  0  0  0  0  0  0  0  0  0
    2.1336    1.3420    1.8332 C   0  0  0  0  0  0  0  0  0  0  0  0
    2.5411    2.3787    2.8194 C   0  0  0  0  0  0  0  0  0  0  0  0
    2.9616    0.8308    0.8239 N   0  0  0  0  0  0  0  0  0  0  0  0
    4.2063    1.3144    0.3186 C   0  0  0  0  0  0  0  0  0  0  0  0
    5.0462    0.4322   -0.3818 C   0  0  0  0  0  0  0  0  0  0  0  0
    6.2761    0.8686   -0.8832 C   0  0  0  0  0  0  0  0  0  0  0  0
    6.6836    2.1939   -0.7057 C   0  0  0  0  0  0  0  0  0  0  0  0
    7.9897    2.6714   -1.2730 C   0  0  0  0  0  0  0  0  0  0  0  0
    5.8251    3.0853   -0.0521 C   0  0  0  0  0  0  0  0  0  0  0  0
    4.5947    2.6514    0.4568 C   0  0  0  0  0  0  0  0  0  0  0  0
    2.4331   -0.3008    0.2825 N   0  0  0  0  0  0  0  0  0  0  0  0
    1.1849   -0.3519    0.7583 C   0  0  0  0  0  0  0  0  0  0  0  0
    0.1576   -1.3151    0.3880 C   0  0  0  0  0  0  0  0  0  0  0  0
    0.3125   -2.1929   -0.4626 O   0  0  0  0  0  0  0  0  0  0  0  0
   -4.8346   -0.8534    1.1317 H   0  0  0  0  0  0  0  0  0  0  0  0
   -3.7591   -0.1323    2.3452 H   0  0  0  0  0  0  0  0  0  0  0  0
   -4.9520   -1.3424    2.8284 H   0  0  0  0  0  0  0  0  0  0  0  0
   -3.8364   -3.0880    1.5454 H   0  0  0  0  0  0  0  0  0  0  0  0
   -2.7529   -2.4306    2.7587 H   0  0  0  0  0  0  0  0  0  0  0  0
   -1.7892   -2.9528    0.4487 H   0  0  0  0  0  0  0  0  0  0  0  0
   -3.7783   -3.2018   -0.8035 H   0  0  0  0  0  0  0  0  0  0  0  0
   -3.7151   -0.0777   -2.9343 H   0  0  0  0  0  0  0  0  0  0  0  0
   -6.4974   -1.8043   -5.6859 H   0  0  0  0  0  0  0  0  0  0  0  0
   -6.6007   -3.8948   -4.3100 H   0  0  0  0  0  0  0  0  0  0  0  0
   -0.3279    2.7480    3.0656 H   0  0  0  0  0  0  0  0  0  0  0  0
   -1.7111    1.7868    3.6205 H   0  0  0  0  0  0  0  0  0  0  0  0
   -0.1132    1.5180    4.3467 H   0  0  0  0  0  0  0  0  0  0  0  0
    3.6243    2.3981    2.9732 H   0  0  0  0  0  0  0  0  0  0  0  0
    2.2001    3.3688    2.5051 H   0  0  0  0  0  0  0  0  0  0  0  0
    2.1119    2.1684    3.8028 H   0  0  0  0  0  0  0  0  0  0  0  0
    4.7622   -0.6088   -0.5337 H   0  0  0  0  0  0  0  0  0  0  0  0
    6.9142    0.1602   -1.4116 H   0  0  0  0  0  0  0  0  0  0  0  0
    8.4164    3.4662   -0.6512 H   0  0  0  0  0  0  0  0  0  0  0  0
    8.7212    1.8597   -1.3066 H   0  0  0  0  0  0  0  0  0  0  0  0
    7.8410    3.0556   -2.2871 H   0  0  0  0  0  0  0  0  0  0  0  0
    6.1036    4.1319    0.0544 H   0  0  0  0  0  0  0  0  0  0  0  0
    3.9469    3.3980    0.9066 H   0  0  0  0  0  0  0  0  0  0  0  0
  1  2  1  0
  2  3  1  0
  3  4  1  0
  4  5  2  0
  4  6  1  0
  6  7  1  0
  7  8  2  0
  8  9  1  0
  9 10  1  0
  9 11  2  0
 11 12  1  0
 12 13  2  0
 13 14  1  0
  3 15  1  0
 15 16  1  0
 16 17  2  0
 17 18  1  0
 17 19  1  0
 19 20  2  0
 20 21  1  0
 20 22  1  0
 22 23  1  0
 23 24  2  0
 24 25  1  0
 25 26  2  0
 26 27  1  0
 26 28  1  0
 28 29  2  0
 22 30  1  0
 30 31  2  0
 31 32  1  0
 32 33  2  0
 13  7  1  0
 32 15  1  0
 31 19  1  0
 29 23  1  0
  1 34  1  0
  1 35  1  0
  1 36  1  0
  2 37  1  0
  2 38  1  0
  3 39  1  0
  6 40  1  0
  8 41  1  0
 11 42  1  0
 12 43  1  0
 18 44  1  0
 18 45  1  0
 18 46  1  0
 21 47  1  0
 21 48  1  0
 21 49  1  0
 24 50  1  0
 25 51  1  0
 27 52  1  0
 27 53  1  0
 27 54  1  0
 28 55  1  0
 29 56  1  0
M  END
$$$$
