
     RDKit          3D

 57 59  0  0  0  0  0  0  0  0999 V2000
   -5.2842   -2.0126    1.2373 C   0  0  0  0  0  0  0  0  0  0  0  0
   -5.4402   -1.3757   -0.1399 C   0  0  0  0  0  0  0  0  0  0  0  0
   -4.3146   -1.6385   -1.0540 N   0  0  0  0  0  0  0  0  0  0  0  0
   -4.6405   -1.1508   -2.4051 C   0  0  0  0  0  0  0  0  0  0  0  0
   -3.6305   -1.5628   -3.4711 C   0  0  0  0  0  0  0  0  0  0  0  0
   -3.0118   -1.1675   -0.5467 C   0  0  0  0  0  0  0  0  0  0  0  0
   -2.8414    0.3474   -0.3403 C   0  0  0  0  0  0  0  0  0  0  0  0
   -1.5244    0.5837    0.1706 O   0  0  0  0  0  0  0  0  0  0  0  0
   -1.1875    1.8691    0.5114 C   0  0  0  0  0  0  0  0  0  0  0  0
   -1.9267    2.9834    0.2996 C   0  0  0  0  0  0  0  0  0  0  0  0
   -1.3812    4.2971    0.7866 C   0  0  2  0  0  0  0  0  0  0  0  0
   -1.9068    5.4401    0.1287 O   0  0  0  0  0  0  0  0  0  0  0  0
   -1.0602    6.4790    0.4493 C   0  0  0  0  0  0  0  0  0  0  0  0
   -1.3219    7.6511    0.2347 O   0  0  0  0  0  0  0  0  0  0  0  0
    0.4908    5.9681    1.1579 S   0  0  0  0  0  0  0  0  0  0  0  0
    0.1356    4.3244    0.5684 C   0  0  1  0  0  0  0  0  0  0  0  0
    0.7822    3.1593    1.2337 C   0  0  0  0  0  0  0  0  0  0  0  0
    0.1213    1.9798    1.1788 C   0  0  0  0  0  0  0  0  0  0  0  0
    0.7300    0.7990    1.8527 C   0  0  0  0  0  0  0  0  0  0  0  0
    0.2709    0.3523    2.8974 O   0  0  0  0  0  0  0  0  0  0  0  0
    1.9324    0.2401    1.1792 C   0  0  0  0  0  0  0  0  0  0  0  0
    2.5741   -0.8025    1.7265 C   0  0  0  0  0  0  0  0  0  0  0  0
    3.7639   -1.4257    1.1360 C   0  0  0  0  0  0  0  0  0  0  0  0
    4.8168   -0.6700    0.6050 C   0  0  0  0  0  0  0  0  0  0  0  0
    5.9562   -1.2962    0.0823 C   0  0  0  0  0  0  0  0  0  0  0  0
    6.0593   -2.6867    0.0922 C   0  0  0  0  0  0  0  0  0  0  0  0
    7.1130   -3.4196   -0.3807 O   0  0  0  0  0  0  0  0  0  0  0  0
    8.2426   -2.6944   -0.8494 C   0  0  0  0  0  0  0  0  0  0  0  0
    5.0142   -3.4422    0.6272 C   0  0  0  0  0  0  0  0  0  0  0  0
    3.8784   -2.8190    1.1527 C   0  0  0  0  0  0  0  0  0  0  0  0
   -5.0606   -3.0816    1.1557 H   0  0  0  0  0  0  0  0  0  0  0  0
   -6.2162   -1.9081    1.8031 H   0  0  0  0  0  0  0  0  0  0  0  0
   -4.4931   -1.5325    1.8218 H   0  0  0  0  0  0  0  0  0  0  0  0
   -6.3541   -1.7983   -0.5769 H   0  0  0  0  0  0  0  0  0  0  0  0
   -5.6179   -0.2996   -0.0277 H   0  0  0  0  0  0  0  0  0  0  0  0
   -4.7623   -0.0611   -2.4163 H   0  0  0  0  0  0  0  0  0  0  0  0
   -5.6057   -1.5756   -2.7093 H   0  0  0  0  0  0  0  0  0  0  0  0
   -3.4488   -2.6425   -3.4482 H   0  0  0  0  0  0  0  0  0  0  0  0
   -4.0150   -1.3095   -4.4647 H   0  0  0  0  0  0  0  0  0  0  0  0
   -2.6752   -1.0445   -3.3498 H   0  0  0  0  0  0  0  0  0  0  0  0
   -2.2105   -1.5230   -1.2068 H   0  0  0  0  0  0  0  0  0  0  0  0
   -2.7780   -1.6787    0.3964 H   0  0  0  0  0  0  0  0  0  0  0  0
   -2.9564    0.8734   -1.2945 H   0  0  0  0  0  0  0  0  0  0  0  0
   -3.5813    0.7130    0.3808 H   0  0  0  0  0  0  0  0  0  0  0  0
   -2.9079    2.9738   -0.1574 H   0  0  0  0  0  0  0  0  0  0  0  0
   -1.6674    4.3695    1.8496 H   0  0  0  0  0  0  0  0  0  0  0  0
    0.3905    4.3137   -0.5003 H   0  0  0  0  0  0  0  0  0  0  0  0
    1.7440    3.2652    1.7252 H   0  0  0  0  0  0  0  0  0  0  0  0
    2.2466    0.6915    0.2462 H   0  0  0  0  0  0  0  0  0  0  0  0
    2.2067   -1.2555    2.6472 H   0  0  0  0  0  0  0  0  0  0  0  0
    4.7738    0.4163    0.6052 H   0  0  0  0  0  0  0  0  0  0  0  0
    6.7450   -0.6671   -0.3182 H   0  0  0  0  0  0  0  0  0  0  0  0
    9.0036   -3.4201   -1.1541 H   0  0  0  0  0  0  0  0  0  0  0  0
    8.6723   -2.0750   -0.0547 H   0  0  0  0  0  0  0  0  0  0  0  0
    7.9874   -2.0914   -1.7272 H   0  0  0  0  0  0  0  0  0  0  0  0
    5.0868   -4.5270    0.6417 H   0  0  0  0  0  0  0  0  0  0  0  0
    3.0838   -3.4350    1.5673 H   0  0  0  0  0  0  0  0  0  0  0  0
  1  2  1  0
  2  3  1  0
  3  4  1  0
  4  5  1  0
  3  6  1  0
  6  7  1  0
  7  8  1  0
  8  9  1  0
  9 10  2  0
 10 11  1  0
 11 12  1  0
 12 13  1  0
 13 14  2  0
 13 15  1  0
 15 16  1  0
 16 17  1  0
 17 18  2  0
 18 19  1  0
 19 20  2  0
 19 21  1  0
 21 22  2  0
 22 23  1  0
 23 24  2  0
 24 25  1  0
 25 26  2  0
 26 27  1  0
 27 28  1  0
 26 29  1  0
 29 30  2  0
 18  9  1  0
 30 23  1  0
 16 11  1  0
  1 31  1  0
  1 32  1  0
  1 33  1  0
  2 34  1  0
  2 35  1  0
  4 36  1  0
  4 37  1  0
  5 38  1  0
  5 39  1  0
  5 40  1  0
  6 41  1  0
  6 42  1  0
  7 43  1  0
  7 44  1  0
 10 45  1  0
 11 46  1  1
 16 47  1  6
 17 48  1  0
 21 49  1  0
 22 50  1  0
 24 51  1  0
 25 52  1  0
 28 53  1  0
 28 54  1  0
 28 55  1  0
 29 56  1  0
 30 57  1  0
M  END
$$$$
