
     RDKit          3D

 48 51  0  0  0  0  0  0  0  0999 V2000
    7.7534    1.6327   -0.4881 C   0  0  0  0  0  0  0  0  0  0  0  0
    6.3557    1.1679   -0.4973 C   0  0  0  0  0  0  0  0  0  0  0  0
    5.7535   -0.0590   -0.6128 C   0  0  0  0  0  0  0  0  0  0  0  0
    4.3647    0.2163   -0.5445 C   0  0  0  0  0  0  0  0  0  0  0  0
    3.2634   -0.7452   -0.6138 C   0  0  0  0  0  0  0  0  0  0  0  0
    3.4478   -1.9550   -0.7081 O   0  0  0  0  0  0  0  0  0  0  0  0
    2.0118   -0.1741   -0.5524 N   0  0  0  0  0  0  0  0  0  0  0  0
    0.8108   -0.9687   -0.4502 C   0  0  0  0  0  0  0  0  0  0  0  0
    0.6027   -1.4628    1.0014 C   0  0  0  0  0  0  0  0  0  0  0  0
   -0.8529   -1.9237    1.3070 C   0  0  0  0  0  0  0  0  0  0  0  0
   -0.9407   -2.3391    2.7879 C   0  0  0  0  0  0  0  0  0  0  0  0
   -1.2257   -3.1488    0.4472 C   0  0  0  0  0  0  0  0  0  0  0  0
   -1.8577   -0.7549    1.0550 C   0  0  0  0  0  0  0  0  0  0  0  0
   -1.5432   -0.0296   -0.2122 C   0  0  0  0  0  0  0  0  0  0  0  0
   -0.3434   -0.1382   -0.8941 C   0  0  0  0  0  0  0  0  0  0  0  0
   -0.5355    0.5969   -2.0683 C   0  0  0  0  0  0  0  0  0  0  0  0
   -1.7418    1.1544   -2.1245 N   0  0  0  0  0  0  0  0  0  0  0  0
   -2.3556    0.8225   -0.9508 N   0  0  0  0  0  0  0  0  0  0  0  0
   -3.6521    1.3630   -0.6769 C   0  0  0  0  0  0  0  0  0  0  0  0
   -4.2543    1.2885    0.5860 C   0  0  0  0  0  0  0  0  0  0  0  0
   -5.5254    1.8370    0.7966 C   0  0  0  0  0  0  0  0  0  0  0  0
   -6.1919    2.4661   -0.2469 C   0  0  0  0  0  0  0  0  0  0  0  0
   -7.4065    2.9887   -0.0354 F   0  0  0  0  0  0  0  0  0  0  0  0
   -5.6100    2.5667   -1.5013 C   0  0  0  0  0  0  0  0  0  0  0  0
   -4.3414    2.0215   -1.7158 C   0  0  0  0  0  0  0  0  0  0  0  0
    4.1477    1.5358   -0.3919 N   0  0  0  0  0  0  0  0  0  0  0  0
    5.3994    2.1245   -0.3650 O   0  0  0  0  0  0  0  0  0  0  0  0
    8.4472    0.7935   -0.5973 H   0  0  0  0  0  0  0  0  0  0  0  0
    7.9818    2.1430    0.4527 H   0  0  0  0  0  0  0  0  0  0  0  0
    7.9310    2.3307   -1.3120 H   0  0  0  0  0  0  0  0  0  0  0  0
    6.2291   -1.0216   -0.7309 H   0  0  0  0  0  0  0  0  0  0  0  0
    1.9763    0.8223   -0.3579 H   0  0  0  0  0  0  0  0  0  0  0  0
    0.9071   -1.8351   -1.1162 H   0  0  0  0  0  0  0  0  0  0  0  0
    0.8623   -0.6515    1.6979 H   0  0  0  0  0  0  0  0  0  0  0  0
    1.3123   -2.2736    1.2130 H   0  0  0  0  0  0  0  0  0  0  0  0
   -1.9569   -2.6546    3.0502 H   0  0  0  0  0  0  0  0  0  0  0  0
   -0.6686   -1.5095    3.4501 H   0  0  0  0  0  0  0  0  0  0  0  0
   -0.2641   -3.1731    3.0057 H   0  0  0  0  0  0  0  0  0  0  0  0
   -1.2410   -2.9194   -0.6227 H   0  0  0  0  0  0  0  0  0  0  0  0
   -2.2206   -3.5249    0.7119 H   0  0  0  0  0  0  0  0  0  0  0  0
   -0.5117   -3.9660    0.6004 H   0  0  0  0  0  0  0  0  0  0  0  0
   -2.8765   -1.1576    1.0332 H   0  0  0  0  0  0  0  0  0  0  0  0
   -1.7860   -0.0385    1.8830 H   0  0  0  0  0  0  0  0  0  0  0  0
    0.1481    0.7401   -2.8960 H   0  0  0  0  0  0  0  0  0  0  0  0
   -3.7643    0.8491    1.4442 H   0  0  0  0  0  0  0  0  0  0  0  0
   -5.9950    1.7855    1.7743 H   0  0  0  0  0  0  0  0  0  0  0  0
   -6.1400    3.0673   -2.3051 H   0  0  0  0  0  0  0  0  0  0  0  0
   -3.9031    2.1107   -2.7092 H   0  0  0  0  0  0  0  0  0  0  0  0
  1  2  1  0
  2  3  2  0
  3  4  1  0
  4  5  1  0
  5  6  2  0
  5  7  1  0
  7  8  1  0
  8  9  1  0
  9 10  1  0
 10 11  1  0
 10 12  1  0
 10 13  1  0
 13 14  1  0
 14 15  2  0
 15 16  1  0
 16 17  2  0
 17 18  1  0
 18 19  1  0
 19 20  2  0
 20 21  1  0
 21 22  2  0
 22 23  1  0
 22 24  1  0
 24 25  2  0
  4 26  2  0
 26 27  1  0
 27  2  1  0
 15  8  1  0
 25 19  1  0
 18 14  1  0
  1 28  1  0
  1 29  1  0
  1 30  1  0
  3 31  1  0
  7 32  1  0
  8 33  1  0
  9 34  1  0
  9 35  1  0
 11 36  1  0
 11 37  1  0
 11 38  1  0
 12 39  1  0
 12 40  1  0
 12 41  1  0
 13 42  1  0
 13 43  1  0
 16 44  1  0
 20 45  1  0
 21 46  1  0
 24 47  1  0
 25 48  1  0
M  END
$$$$
