
     RDKit          3D

 60 63  0  0  0  0  0  0  0  0999 V2000
   -6.4561    3.7713   -0.4020 C   0  0  0  0  0  0  0  0  0  0  0  0
   -5.2439    3.2751    0.1469 O   0  0  0  0  0  0  0  0  0  0  0  0
   -4.9188    1.9650   -0.0997 C   0  0  0  0  0  0  0  0  0  0  0  0
   -5.6576    1.1104   -0.9297 C   0  0  0  0  0  0  0  0  0  0  0  0
   -5.2409   -0.2055   -1.1374 C   0  0  0  0  0  0  0  0  0  0  0  0
   -4.0851   -0.6652   -0.5065 C   0  0  0  0  0  0  0  0  0  0  0  0
   -3.5249   -2.3242   -0.7825 S   0  0  0  0  0  6  0  0  0  0  0  0
   -3.3962   -2.9627    0.5079 O   0  0  0  0  0  0  0  0  0  0  0  0
   -4.3154   -2.9150   -1.8420 O   0  0  0  0  0  0  0  0  0  0  0  0
   -1.9737   -2.0851   -1.4025 N   0  0  0  0  0  0  0  0  0  0  0  0
   -1.8561   -1.4160   -2.7164 C   0  0  0  0  0  0  0  0  0  0  0  0
   -1.1997   -2.4569   -3.5961 C   0  0  0  0  0  0  0  0  0  0  0  0
   -0.3763   -3.1918   -2.6884 O   0  0  0  0  0  0  0  0  0  0  0  0
   -1.1789   -3.3394   -1.5032 C   0  0  0  0  0  0  0  0  0  0  0  0
   -0.2721   -3.5230   -0.2733 C   0  0  0  0  0  0  0  0  0  0  0  0
    0.3581   -2.2810    0.1439 N   0  0  0  0  0  0  0  0  0  0  0  0
    1.3381   -2.2388    1.1030 C   0  0  0  0  0  0  0  0  0  0  0  0
    1.9396   -3.1968    1.5666 O   0  0  0  0  0  0  0  0  0  0  0  0
    1.6476   -0.8067    1.5986 C   0  0  0  0  0  0  0  0  0  0  0  0
    0.9692    0.1367    1.2080 O   0  0  0  0  0  0  0  0  0  0  0  0
    2.7144   -0.7414    2.4614 N   0  0  0  0  0  0  0  0  0  0  0  0
    3.2751    0.5108    2.9033 C   0  0  0  0  0  0  0  0  0  0  0  0
    4.3802    0.9630    1.9812 C   0  0  0  0  0  0  0  0  0  0  0  0
    4.0695    1.6777    0.7994 C   0  0  0  0  0  0  0  0  0  0  0  0
    5.0734    2.0765   -0.0881 C   0  0  0  0  0  0  0  0  0  0  0  0
    6.3730    1.7479    0.2265 C   0  0  0  0  0  0  0  0  0  0  0  0
    6.6862    1.0512    1.3698 C   0  0  0  0  0  0  0  0  0  0  0  0
    5.7185    0.6427    2.2637 C   0  0  0  0  0  0  0  0  0  0  0  0
    8.0231    0.8286    1.4906 O   0  0  0  0  0  0  0  0  0  0  0  0
    8.5125    1.4489    0.2812 C   0  0  0  0  0  0  0  0  0  0  0  0
    7.4721    2.0505   -0.5168 O   0  0  0  0  0  0  0  0  0  0  0  0
   -3.3412    0.1687    0.3368 C   0  0  0  0  0  0  0  0  0  0  0  0
   -3.7489    1.4908    0.5357 C   0  0  0  0  0  0  0  0  0  0  0  0
   -3.0918    2.3915    1.3400 O   0  0  0  0  0  0  0  0  0  0  0  0
   -1.8106    2.0216    1.8390 C   0  0  0  0  0  0  0  0  0  0  0  0
   -6.5703    4.8100   -0.0748 H   0  0  0  0  0  0  0  0  0  0  0  0
   -6.4238    3.7693   -1.4970 H   0  0  0  0  0  0  0  0  0  0  0  0
   -7.3185    3.2081   -0.0290 H   0  0  0  0  0  0  0  0  0  0  0  0
   -6.5605    1.4426   -1.4332 H   0  0  0  0  0  0  0  0  0  0  0  0
   -5.8237   -0.8579   -1.7852 H   0  0  0  0  0  0  0  0  0  0  0  0
   -1.1996   -0.5492   -2.5854 H   0  0  0  0  0  0  0  0  0  0  0  0
   -2.8012   -1.0657   -3.1370 H   0  0  0  0  0  0  0  0  0  0  0  0
   -1.9344   -3.1397   -4.0364 H   0  0  0  0  0  0  0  0  0  0  0  0
   -0.5934   -2.0206   -4.3936 H   0  0  0  0  0  0  0  0  0  0  0  0
   -1.8092   -4.2252   -1.6486 H   0  0  0  0  0  0  0  0  0  0  0  0
    0.5161   -4.2562   -0.4757 H   0  0  0  0  0  0  0  0  0  0  0  0
   -0.8566   -3.8777    0.5815 H   0  0  0  0  0  0  0  0  0  0  0  0
   -0.1334   -1.4113   -0.0507 H   0  0  0  0  0  0  0  0  0  0  0  0
    3.2343   -1.6056    2.5986 H   0  0  0  0  0  0  0  0  0  0  0  0
    2.4926    1.2766    2.9625 H   0  0  0  0  0  0  0  0  0  0  0  0
    3.6591    0.3586    3.9191 H   0  0  0  0  0  0  0  0  0  0  0  0
    3.0325    1.9172    0.5675 H   0  0  0  0  0  0  0  0  0  0  0  0
    4.8386    2.6209   -0.9962 H   0  0  0  0  0  0  0  0  0  0  0  0
    5.9968    0.0871    3.1530 H   0  0  0  0  0  0  0  0  0  0  0  0
    9.2399    2.2247    0.5515 H   0  0  0  0  0  0  0  0  0  0  0  0
    9.0215    0.6858   -0.3221 H   0  0  0  0  0  0  0  0  0  0  0  0
   -2.4570   -0.2317    0.8241 H   0  0  0  0  0  0  0  0  0  0  0  0
   -1.1217    1.7946    1.0190 H   0  0  0  0  0  0  0  0  0  0  0  0
   -1.8878    1.1870    2.5466 H   0  0  0  0  0  0  0  0  0  0  0  0
   -1.4026    2.8789    2.3862 H   0  0  0  0  0  0  0  0  0  0  0  0
  1  2  1  0
  2  3  1  0
  3  4  2  0
  4  5  1  0
  5  6  2  0
  6  7  1  0
  7  8  2  0
  7  9  2  0
  7 10  1  0
 10 11  1  0
 11 12  1  0
 12 13  1  0
 13 14  1  0
 14 15  1  0
 15 16  1  0
 16 17  1  0
 17 18  2  0
 17 19  1  0
 19 20  2  0
 19 21  1  0
 21 22  1  0
 22 23  1  0
 23 24  2  0
 24 25  1  0
 25 26  2  0
 26 27  1  0
 27 28  2  0
 27 29  1  0
 29 30  1  0
 30 31  1  0
  6 32  1  0
 32 33  2  0
 33 34  1  0
 34 35  1  0
 33  3  1  0
 14 10  1  0
 28 23  1  0
 31 26  1  0
  1 36  1  0
  1 37  1  0
  1 38  1  0
  4 39  1  0
  5 40  1  0
 11 41  1  0
 11 42  1  0
 12 43  1  0
 12 44  1  0
 14 45  1  0
 15 46  1  0
 15 47  1  0
 16 48  1  0
 21 49  1  0
 22 50  1  0
 22 51  1  0
 24 52  1  0
 25 53  1  0
 28 54  1  0
 30 55  1  0
 30 56  1  0
 32 57  1  0
 35 58  1  0
 35 59  1  0
 35 60  1  0
M  END
$$$$
