
     RDKit          3D

 74 75  0  0  0  0  0  0  0  0999 V2000
    0.9547   -1.1543    6.3197 C   0  0  0  0  0  0  0  0  0  0  0  0
    0.9561   -0.8045    4.9416 O   0  0  0  0  0  0  0  0  0  0  0  0
    0.0041    0.0767    4.4973 C   0  0  0  0  0  0  0  0  0  0  0  0
   -0.9520    0.6661    5.3296 C   0  0  0  0  0  0  0  0  0  0  0  0
   -1.9371    1.4872    4.7937 C   0  0  0  0  0  0  0  0  0  0  0  0
   -1.9827    1.7159    3.4215 C   0  0  0  0  0  0  0  0  0  0  0  0
   -1.0288    1.1526    2.5429 C   0  0  0  0  0  0  0  0  0  0  0  0
   -1.2314    1.4125    1.0398 C   0  0  0  0  0  0  0  0  0  0  0  0
   -2.2451    0.4615    0.3241 C   0  0  0  0  0  0  0  0  0  0  0  0
   -2.7040    0.7478   -0.7829 O   0  0  0  0  0  0  0  0  0  0  0  0
   -2.5949   -0.6948    0.9991 N   0  0  0  0  0  0  0  0  0  0  0  0
   -3.4821   -1.7416    0.4658 C   0  0  0  0  0  0  0  0  0  0  0  0
   -2.8673   -2.4000   -0.7789 C   0  0  0  0  0  0  0  0  0  0  0  0
   -3.6478   -2.8168    1.5558 C   0  0  0  0  0  0  0  0  0  0  0  0
   -4.8759   -1.1801    0.1346 C   0  0  0  0  0  0  0  0  0  0  0  0
   -0.0426    1.8811    0.2586 N   0  0  0  0  0  0  0  0  0  0  0  0
    0.8396    0.9718   -0.3576 C   0  0  0  0  0  0  0  0  0  0  0  0
    1.9972    1.2743   -0.6646 O   0  0  0  0  0  0  0  0  0  0  0  0
    0.3389   -0.4227   -0.7132 C   0  0  0  0  0  0  0  0  0  0  0  0
    1.4654   -1.3340   -1.1997 C   0  0  0  0  0  0  0  0  0  0  0  0
    1.7258   -1.2260   -2.6922 C   0  0  0  0  0  0  0  0  0  0  0  0
    0.9633   -0.6544   -3.4635 O   0  0  0  0  0  0  0  0  0  0  0  0
    2.8629   -1.9166   -3.0554 N   0  0  0  0  0  0  0  0  0  0  0  0
    3.2844   -2.1325   -4.3474 C   0  0  0  0  0  0  0  0  0  0  0  0
    2.7058   -1.7157   -5.5663 C   0  0  0  0  0  0  0  0  0  0  0  0
    3.5281   -2.2340   -6.5342 C   0  0  0  0  0  0  0  0  0  0  0  0
    3.5298   -2.2064   -8.0061 C   0  0  0  0  0  0  0  0  0  0  0  0
    4.5319   -2.9295   -5.9397 O   0  0  0  0  0  0  0  0  0  0  0  0
    4.3842   -2.8623   -4.5667 N   0  0  0  0  0  0  0  0  0  0  0  0
    0.4228    3.3193    0.4154 C   0  0  0  0  0  0  0  0  0  0  0  0
    1.6018    3.4164    1.4063 C   0  0  0  0  0  0  0  0  0  0  0  0
   -0.6705    4.2926    0.9330 C   0  0  0  0  0  0  0  0  0  0  0  0
    0.8463    3.9090   -0.9544 C   0  0  0  0  0  0  0  0  0  0  0  0
   -0.0157    0.3505    3.1067 C   0  0  0  0  0  0  0  0  0  0  0  0
    0.8781   -0.2378    2.2495 O   0  0  0  0  0  0  0  0  0  0  0  0
    2.2484   -0.0437    2.6108 C   0  0  0  0  0  0  0  0  0  0  0  0
    1.1639   -0.2818    6.9488 H   0  0  0  0  0  0  0  0  0  0  0  0
    0.0126   -1.6352    6.6039 H   0  0  0  0  0  0  0  0  0  0  0  0
    1.7585   -1.8799    6.4809 H   0  0  0  0  0  0  0  0  0  0  0  0
   -0.9687    0.4925    6.4005 H   0  0  0  0  0  0  0  0  0  0  0  0
   -2.6923    1.9266    5.4439 H   0  0  0  0  0  0  0  0  0  0  0  0
   -2.7952    2.3329    3.0356 H   0  0  0  0  0  0  0  0  0  0  0  0
   -1.8804    2.2947    1.0267 H   0  0  0  0  0  0  0  0  0  0  0  0
   -1.9967   -0.9676    1.7710 H   0  0  0  0  0  0  0  0  0  0  0  0
   -1.8713   -2.8020   -0.5599 H   0  0  0  0  0  0  0  0  0  0  0  0
   -3.4913   -3.2260   -1.1401 H   0  0  0  0  0  0  0  0  0  0  0  0
   -2.7594   -1.6888   -1.6039 H   0  0  0  0  0  0  0  0  0  0  0  0
   -4.0908   -2.3942    2.4645 H   0  0  0  0  0  0  0  0  0  0  0  0
   -4.2914   -3.6359    1.2151 H   0  0  0  0  0  0  0  0  0  0  0  0
   -2.6796   -3.2477    1.8358 H   0  0  0  0  0  0  0  0  0  0  0  0
   -5.5681   -1.9815   -0.1517 H   0  0  0  0  0  0  0  0  0  0  0  0
   -5.3017   -0.6574    0.9991 H   0  0  0  0  0  0  0  0  0  0  0  0
   -4.8499   -0.4659   -0.6948 H   0  0  0  0  0  0  0  0  0  0  0  0
   -0.0731   -0.8974    0.1764 H   0  0  0  0  0  0  0  0  0  0  0  0
   -0.4465   -0.3339   -1.4700 H   0  0  0  0  0  0  0  0  0  0  0  0
    2.3970   -1.1588   -0.6488 H   0  0  0  0  0  0  0  0  0  0  0  0
    1.1692   -2.3759   -1.0173 H   0  0  0  0  0  0  0  0  0  0  0  0
    3.4453   -2.3540   -2.3550 H   0  0  0  0  0  0  0  0  0  0  0  0
    1.8215   -1.1147   -5.7198 H   0  0  0  0  0  0  0  0  0  0  0  0
    2.9076   -1.3875   -8.3820 H   0  0  0  0  0  0  0  0  0  0  0  0
    4.5457   -2.0633   -8.3919 H   0  0  0  0  0  0  0  0  0  0  0  0
    3.1394   -3.1477   -8.4045 H   0  0  0  0  0  0  0  0  0  0  0  0
    1.3138    3.0497    2.3965 H   0  0  0  0  0  0  0  0  0  0  0  0
    2.4742    2.8407    1.0853 H   0  0  0  0  0  0  0  0  0  0  0  0
    1.9322    4.4550    1.5260 H   0  0  0  0  0  0  0  0  0  0  0  0
   -1.5565    4.2866    0.2871 H   0  0  0  0  0  0  0  0  0  0  0  0
   -0.9802    4.0572    1.9543 H   0  0  0  0  0  0  0  0  0  0  0  0
   -0.3007    5.3247    0.9592 H   0  0  0  0  0  0  0  0  0  0  0  0
    1.0550    4.9838   -0.8775 H   0  0  0  0  0  0  0  0  0  0  0  0
    0.0506    3.7761   -1.6966 H   0  0  0  0  0  0  0  0  0  0  0  0
    1.7542    3.4567   -1.3588 H   0  0  0  0  0  0  0  0  0  0  0  0
    2.6272   -0.9332    3.1221 H   0  0  0  0  0  0  0  0  0  0  0  0
    2.8248    0.0707    1.6892 H   0  0  0  0  0  0  0  0  0  0  0  0
    2.4095    0.8549    3.2165 H   0  0  0  0  0  0  0  0  0  0  0  0
  1  2  1  0
  2  3  1  0
  3  4  2  0
  4  5  1  0
  5  6  2  0
  6  7  1  0
  7  8  1  0
  8  9  1  0
  9 10  2  0
  9 11  1  0
 11 12  1  0
 12 13  1  0
 12 14  1  0
 12 15  1  0
  8 16  1  0
 16 17  1  0
 17 18  2  0
 17 19  1  0
 19 20  1  0
 20 21  1  0
 21 22  2  0
 21 23  1  0
 23 24  1  0
 24 25  1  0
 25 26  2  0
 26 27  1  0
 26 28  1  0
 28 29  1  0
 16 30  1  0
 30 31  1  0
 30 32  1  0
 30 33  1  0
  7 34  2  0
 34 35  1  0
 35 36  1  0
 34  3  1  0
 29 24  2  0
  1 37  1  0
  1 38  1  0
  1 39  1  0
  4 40  1  0
  5 41  1  0
  6 42  1  0
  8 43  1  0
 11 44  1  0
 13 45  1  0
 13 46  1  0
 13 47  1  0
 14 48  1  0
 14 49  1  0
 14 50  1  0
 15 51  1  0
 15 52  1  0
 15 53  1  0
 19 54  1  0
 19 55  1  0
 20 56  1  0
 20 57  1  0
 23 58  1  0
 25 59  1  0
 27 60  1  0
 27 61  1  0
 27 62  1  0
 31 63  1  0
 31 64  1  0
 31 65  1  0
 32 66  1  0
 32 67  1  0
 32 68  1  0
 33 69  1  0
 33 70  1  0
 33 71  1  0
 36 72  1  0
 36 73  1  0
 36 74  1  0
M  END
$$$$
