
     RDKit          3D

 30 31  0  0  0  0  0  0  0  0999 V2000
    4.4242   -3.1466   -2.2598 C   0  0  0  0  0  0  0  0  0  0  0  0
    3.8514   -1.8817   -2.5674 O   0  0  0  0  0  0  0  0  0  0  0  0
    2.9098   -1.4021   -1.6999 C   0  0  0  0  0  0  0  0  0  0  0  0
    2.4147   -0.1356   -2.0182 C   0  0  0  0  0  0  0  0  0  0  0  0
    1.4464    0.4753   -1.2166 C   0  0  0  0  0  0  0  0  0  0  0  0
    0.9529   -0.1792   -0.0803 C   0  0  0  0  0  0  0  0  0  0  0  0
   -0.0743    0.4557    0.7755 C   0  0  0  0  0  0  0  0  0  0  0  0
    0.2648    0.7187    2.1420 C   0  0  0  0  0  0  0  0  0  0  0  0
    0.6116    0.8825    3.2388 N   0  0  0  0  0  0  0  0  0  0  0  0
   -1.2792    0.7111    0.2231 C   0  0  0  0  0  0  0  0  0  0  0  0
   -2.4631    1.3243    0.8454 C   0  0  0  0  0  0  0  0  0  0  0  0
   -3.6651    1.3927    0.1451 C   0  0  0  0  0  0  0  0  0  0  0  0
   -4.7695    1.9858    0.7543 C   0  0  0  0  0  0  0  0  0  0  0  0
   -4.6451    2.4946    2.0402 C   0  0  0  0  0  0  0  0  0  0  0  0
   -3.4150    2.3888    2.6633 C   0  0  0  0  0  0  0  0  0  0  0  0
   -2.3313    1.8197    2.0914 N   0  0  0  0  0  0  0  0  0  0  0  0
    1.4549   -1.4489    0.2374 C   0  0  0  0  0  0  0  0  0  0  0  0
    2.4263   -2.0571   -0.5678 C   0  0  0  0  0  0  0  0  0  0  0  0
    3.6675   -3.9377   -2.2828 H   0  0  0  0  0  0  0  0  0  0  0  0
    5.1665   -3.3737   -3.0311 H   0  0  0  0  0  0  0  0  0  0  0  0
    4.9426   -3.1222   -1.2956 H   0  0  0  0  0  0  0  0  0  0  0  0
    2.7923    0.3834   -2.8962 H   0  0  0  0  0  0  0  0  0  0  0  0
    1.0922    1.4686   -1.4840 H   0  0  0  0  0  0  0  0  0  0  0  0
   -1.4358    0.4343   -0.8181 H   0  0  0  0  0  0  0  0  0  0  0  0
   -3.7566    0.9924   -0.8593 H   0  0  0  0  0  0  0  0  0  0  0  0
   -5.7181    2.0488    0.2287 H   0  0  0  0  0  0  0  0  0  0  0  0
   -5.4834    2.9615    2.5447 H   0  0  0  0  0  0  0  0  0  0  0  0
   -3.2587    2.7689    3.6691 H   0  0  0  0  0  0  0  0  0  0  0  0
    1.0947   -1.9816    1.1163 H   0  0  0  0  0  0  0  0  0  0  0  0
    2.7824   -3.0407   -0.2797 H   0  0  0  0  0  0  0  0  0  0  0  0
  1  2  1  0
  2  3  1  0
  3  4  2  0
  4  5  1  0
  5  6  2  0
  6  7  1  0
  7  8  1  0
  8  9  3  0
  7 10  2  3
 10 11  1  0
 11 12  2  0
 12 13  1  0
 13 14  2  0
 14 15  1  0
 15 16  2  0
  6 17  1  0
 17 18  2  0
 18  3  1  0
 16 11  1  0
  1 19  1  0
  1 20  1  0
  1 21  1  0
  4 22  1  0
  5 23  1  0
 10 24  1  0
 12 25  1  0
 13 26  1  0
 14 27  1  0
 15 28  1  0
 17 29  1  0
 18 30  1  0
M  END
$$$$
