
     RDKit          3D

 47 50  0  0  0  0  0  0  0  0999 V2000
   -3.4663    2.3600   -2.1093 C   0  0  0  0  0  0  0  0  0  0  0  0
   -2.4181    1.8495   -1.1232 C   0  0  0  0  0  0  0  0  0  0  0  0
   -2.9973    1.7497    0.2793 C   0  0  0  0  0  0  0  0  0  0  0  0
   -2.0496    1.0425    1.2191 C   0  0  0  0  0  0  0  0  0  0  0  0
   -1.1955    1.6765    1.8449 O   0  0  0  0  0  0  0  0  0  0  0  0
   -2.1935   -0.3341    1.3520 N   0  0  0  0  0  0  0  0  0  0  0  0
   -1.4075   -1.0020    2.4007 C   0  0  0  0  0  0  0  0  0  0  0  0
   -0.0152   -1.4166    1.9064 C   0  0  0  0  0  0  0  0  0  0  0  0
    0.3297   -2.5957    1.9376 O   0  0  0  0  0  0  0  0  0  0  0  0
    0.7665   -0.3412    1.5207 N   0  0  0  0  0  0  0  0  0  0  0  0
    2.0713   -0.3603    0.9930 C   0  0  0  0  0  0  0  0  0  0  0  0
    2.8012   -1.5277    0.7561 C   0  0  0  0  0  0  0  0  0  0  0  0
    4.0910   -1.4616    0.2168 C   0  0  0  0  0  0  0  0  0  0  0  0
    4.6552   -0.2281   -0.0923 C   0  0  0  0  0  0  0  0  0  0  0  0
    3.9424    0.9448    0.1646 C   0  0  0  0  0  0  0  0  0  0  0  0
    2.6516    0.8785    0.6899 C   0  0  0  0  0  0  0  0  0  0  0  0
    4.4438    2.1983   -0.0824 O   0  0  0  0  0  0  0  0  0  0  0  0
    5.8609    2.1606   -0.2870 C   0  0  0  0  0  0  0  0  0  0  0  0
    6.2383    1.0246   -1.2232 C   0  0  0  0  0  0  0  0  0  0  0  0
    5.9127   -0.2412   -0.6383 O   0  0  0  0  0  0  0  0  0  0  0  0
   -2.8676   -1.1542    0.3878 C   0  0  0  0  0  0  0  0  0  0  0  0
   -3.6429   -2.2355    0.8408 C   0  0  0  0  0  0  0  0  0  0  0  0
   -4.3311   -3.0580   -0.0545 C   0  0  0  0  0  0  0  0  0  0  0  0
   -4.2477   -2.8222   -1.4209 C   0  0  0  0  0  0  0  0  0  0  0  0
   -3.4718   -1.7658   -1.8936 C   0  0  0  0  0  0  0  0  0  0  0  0
   -2.7850   -0.9230   -1.0050 C   0  0  0  0  0  0  0  0  0  0  0  0
   -1.7013    0.2891   -1.7579 S   0  0  0  0  0  0  0  0  0  0  0  0
   -3.8598    3.3281   -1.7799 H   0  0  0  0  0  0  0  0  0  0  0  0
   -4.3144    1.6716   -2.1963 H   0  0  0  0  0  0  0  0  0  0  0  0
   -3.0386    2.5065   -3.1075 H   0  0  0  0  0  0  0  0  0  0  0  0
   -1.5882    2.5662   -1.1078 H   0  0  0  0  0  0  0  0  0  0  0  0
   -3.1754    2.7556    0.6811 H   0  0  0  0  0  0  0  0  0  0  0  0
   -3.9800    1.2632    0.2925 H   0  0  0  0  0  0  0  0  0  0  0  0
   -1.9219   -1.8848    2.7887 H   0  0  0  0  0  0  0  0  0  0  0  0
   -1.2760   -0.3235    3.2527 H   0  0  0  0  0  0  0  0  0  0  0  0
    0.3412    0.5801    1.6308 H   0  0  0  0  0  0  0  0  0  0  0  0
    2.3928   -2.5098    0.9724 H   0  0  0  0  0  0  0  0  0  0  0  0
    4.6453   -2.3768    0.0285 H   0  0  0  0  0  0  0  0  0  0  0  0
    2.1107    1.8043    0.8673 H   0  0  0  0  0  0  0  0  0  0  0  0
    6.1590    3.1214   -0.7183 H   0  0  0  0  0  0  0  0  0  0  0  0
    6.3514    2.0569    0.6888 H   0  0  0  0  0  0  0  0  0  0  0  0
    7.3159    1.0340   -1.4146 H   0  0  0  0  0  0  0  0  0  0  0  0
    5.7193    1.1080   -2.1862 H   0  0  0  0  0  0  0  0  0  0  0  0
   -3.7616   -2.4386    1.9016 H   0  0  0  0  0  0  0  0  0  0  0  0
   -4.9314   -3.8844    0.3190 H   0  0  0  0  0  0  0  0  0  0  0  0
   -4.7720   -3.4684   -2.1206 H   0  0  0  0  0  0  0  0  0  0  0  0
   -3.3906   -1.6164   -2.9688 H   0  0  0  0  0  0  0  0  0  0  0  0
  1  2  1  0
  2  3  1  0
  3  4  1  0
  4  5  2  0
  4  6  1  0
  6  7  1  0
  7  8  1  0
  8  9  2  0
  8 10  1  0
 10 11  1  0
 11 12  2  0
 12 13  1  0
 13 14  2  0
 14 15  1  0
 15 16  2  0
 15 17  1  0
 17 18  1  0
 18 19  1  0
 19 20  1  0
  6 21  1  0
 21 22  2  0
 22 23  1  0
 23 24  2  0
 24 25  1  0
 25 26  2  0
 26 27  1  0
 27  2  1  0
 16 11  1  0
 26 21  1  0
 20 14  1  0
  1 28  1  0
  1 29  1  0
  1 30  1  0
  2 31  1  0
  3 32  1  0
  3 33  1  0
  7 34  1  0
  7 35  1  0
 10 36  1  0
 12 37  1  0
 13 38  1  0
 16 39  1  0
 18 40  1  0
 18 41  1  0
 19 42  1  0
 19 43  1  0
 22 44  1  0
 23 45  1  0
 24 46  1  0
 25 47  1  0
M  END
$$$$
