
     RDKit          3D

 60 63  0  0  0  0  0  0  0  0999 V2000
   -6.1106   -0.5782    4.9177 C   0  0  0  0  0  0  0  0  0  0  0  0
   -5.9314   -0.6978    3.5120 O   0  0  0  0  0  0  0  0  0  0  0  0
   -4.7111   -0.3447    3.0100 C   0  0  0  0  0  0  0  0  0  0  0  0
   -4.5753   -0.5160    1.6307 C   0  0  0  0  0  0  0  0  0  0  0  0
   -3.3828   -0.1862    0.9807 C   0  0  0  0  0  0  0  0  0  0  0  0
   -2.3080    0.3233    1.7136 C   0  0  0  0  0  0  0  0  0  0  0  0
   -1.0989    0.6802    1.0605 N   0  0  0  0  0  0  0  0  0  0  0  0
   -0.9448    1.4041   -0.1194 C   0  0  0  0  0  0  0  0  0  0  0  0
   -2.0393    2.0576   -0.9030 C   0  0  0  0  0  0  0  0  0  0  0  0
   -2.5461    1.2315   -2.0501 C   0  0  0  0  0  0  0  0  0  0  0  0
   -1.9006    0.2709   -2.8140 C   0  0  0  0  0  0  0  0  0  0  0  0
   -2.8199   -0.2196   -3.7678 C   0  0  0  0  0  0  0  0  0  0  0  0
   -3.9994    0.4630   -3.5848 C   0  0  0  0  0  0  0  0  0  0  0  0
   -3.8248    1.3509   -2.5559 N   0  0  0  0  0  0  0  0  0  0  0  0
   -4.8475    2.2616   -2.0864 C   0  0  0  0  0  0  0  0  0  0  0  0
    0.3434    1.5616   -0.3731 N   0  0  0  0  0  0  0  0  0  0  0  0
    1.0583    0.9561    0.6186 N   0  0  0  0  0  0  0  0  0  0  0  0
    0.2017    0.4308    1.4607 C   0  0  0  0  0  0  0  0  0  0  0  0
    0.6998   -0.5913    2.7699 S   0  0  0  0  0  0  0  0  0  0  0  0
    0.8247   -2.1860    1.9123 C   0  0  0  0  0  0  0  0  0  0  0  0
    1.9643   -2.3290    0.9112 C   0  0  0  0  0  0  0  0  0  0  0  0
    2.0273   -3.3274    0.1918 O   0  0  0  0  0  0  0  0  0  0  0  0
    2.9214   -1.3399    0.8830 N   0  0  0  0  0  0  0  0  0  0  0  0
    3.9120   -1.3098   -0.1790 C   0  0  0  0  0  0  0  0  0  0  0  0
    5.0330   -0.3209    0.1327 C   0  0  0  0  0  0  0  0  0  0  0  0
    6.0144   -0.2018   -1.0048 C   0  0  0  0  0  0  0  0  0  0  0  0
    5.8677    0.8097   -1.9630 C   0  0  0  0  0  0  0  0  0  0  0  0
    6.7628    0.9086   -3.0292 C   0  0  0  0  0  0  0  0  0  0  0  0
    7.8084   -0.0043   -3.1505 C   0  0  0  0  0  0  0  0  0  0  0  0
    7.9603   -1.0169   -2.2050 C   0  0  0  0  0  0  0  0  0  0  0  0
    7.0674   -1.1170   -1.1363 C   0  0  0  0  0  0  0  0  0  0  0  0
   -2.4352    0.4852    3.0986 C   0  0  0  0  0  0  0  0  0  0  0  0
   -3.6348    0.1543    3.7416 C   0  0  0  0  0  0  0  0  0  0  0  0
   -7.1284   -0.9008    5.1535 H   0  0  0  0  0  0  0  0  0  0  0  0
   -6.0086    0.4622    5.2426 H   0  0  0  0  0  0  0  0  0  0  0  0
   -5.4194   -1.2316    5.4596 H   0  0  0  0  0  0  0  0  0  0  0  0
   -5.4045   -0.9261    1.0568 H   0  0  0  0  0  0  0  0  0  0  0  0
   -3.3090   -0.3901   -0.0840 H   0  0  0  0  0  0  0  0  0  0  0  0
   -2.8561    2.3432   -0.2311 H   0  0  0  0  0  0  0  0  0  0  0  0
   -1.6506    2.9983   -1.3149 H   0  0  0  0  0  0  0  0  0  0  0  0
   -0.8712   -0.0473   -2.6924 H   0  0  0  0  0  0  0  0  0  0  0  0
   -2.6373   -0.9823   -4.5139 H   0  0  0  0  0  0  0  0  0  0  0  0
   -4.9417    0.3893   -4.1117 H   0  0  0  0  0  0  0  0  0  0  0  0
   -5.1563    1.9435   -1.0874 H   0  0  0  0  0  0  0  0  0  0  0  0
   -4.4308    3.2717   -2.0628 H   0  0  0  0  0  0  0  0  0  0  0  0
   -5.7029    2.2342   -2.7664 H   0  0  0  0  0  0  0  0  0  0  0  0
    0.9648   -2.9599    2.6741 H   0  0  0  0  0  0  0  0  0  0  0  0
   -0.1175   -2.3876    1.3918 H   0  0  0  0  0  0  0  0  0  0  0  0
    2.6024   -0.4308    1.2068 H   0  0  0  0  0  0  0  0  0  0  0  0
    3.3892   -1.0306   -1.1020 H   0  0  0  0  0  0  0  0  0  0  0  0
    4.3111   -2.3213   -0.3236 H   0  0  0  0  0  0  0  0  0  0  0  0
    5.5631   -0.6246    1.0443 H   0  0  0  0  0  0  0  0  0  0  0  0
    4.6104    0.6674    0.3575 H   0  0  0  0  0  0  0  0  0  0  0  0
    5.0525    1.5262   -1.8861 H   0  0  0  0  0  0  0  0  0  0  0  0
    6.6409    1.6962   -3.7670 H   0  0  0  0  0  0  0  0  0  0  0  0
    8.5027    0.0714   -3.9830 H   0  0  0  0  0  0  0  0  0  0  0  0
    8.7722   -1.7323   -2.3019 H   0  0  0  0  0  0  0  0  0  0  0  0
    7.1970   -1.9152   -0.4080 H   0  0  0  0  0  0  0  0  0  0  0  0
   -1.6330    0.9067    3.7004 H   0  0  0  0  0  0  0  0  0  0  0  0
   -3.6958    0.3076    4.8146 H   0  0  0  0  0  0  0  0  0  0  0  0
  1  2  1  0
  2  3  1  0
  3  4  2  0
  4  5  1  0
  5  6  2  0
  6  7  1  0
  7  8  1  0
  8  9  1  0
  9 10  1  0
 10 11  2  0
 11 12  1  0
 12 13  2  0
 13 14  1  0
 14 15  1  0
  8 16  2  0
 16 17  1  0
 17 18  2  0
 18 19  1  0
 19 20  1  0
 20 21  1  0
 21 22  2  0
 21 23  1  0
 23 24  1  0
 24 25  1  0
 25 26  1  0
 26 27  2  0
 27 28  1  0
 28 29  2  0
 29 30  1  0
 30 31  2  0
  6 32  1  0
 32 33  2  0
 33  3  1  0
 18  7  1  0
 31 26  1  0
 14 10  1  0
  1 34  1  0
  1 35  1  0
  1 36  1  0
  4 37  1  0
  5 38  1  0
  9 39  1  0
  9 40  1  0
 11 41  1  0
 12 42  1  0
 13 43  1  0
 15 44  1  0
 15 45  1  0
 15 46  1  0
 20 47  1  0
 20 48  1  0
 23 49  1  0
 24 50  1  0
 24 51  1  0
 25 52  1  0
 25 53  1  0
 27 54  1  0
 28 55  1  0
 29 56  1  0
 30 57  1  0
 31 58  1  0
 32 59  1  0
 33 60  1  0
M  END
$$$$
