
     RDKit          3D

 49 52  0  0  0  0  0  0  0  0999 V2000
   -2.2585    2.1742    2.3855 O   0  0  0  0  0  0  0  0  0  0  0  0
   -1.8799    2.8363    1.4399 C   0  0  0  0  0  0  0  0  0  0  0  0
   -1.1473    3.9524    1.6245 O   0  0  0  0  0  0  0  0  0  0  0  0
   -2.0941    2.5659   -0.0021 C   0  0  0  0  0  0  0  0  0  0  0  0
   -2.3986    3.6757   -0.8175 C   0  0  0  0  0  0  0  0  0  0  0  0
   -2.7618    3.5027   -2.1494 C   0  0  0  0  0  0  0  0  0  0  0  0
   -2.8597    2.2178   -2.6663 C   0  0  0  0  0  0  0  0  0  0  0  0
   -2.5593    1.1096   -1.8592 C   0  0  0  0  0  0  0  0  0  0  0  0
   -2.7367   -0.2453   -2.4309 C   0  0  0  0  0  0  0  0  0  0  0  0
   -3.0380   -0.3916   -3.6118 O   0  0  0  0  0  0  0  0  0  0  0  0
   -2.5937   -1.4112   -1.5385 C   0  0  0  0  0  0  0  0  0  0  0  0
   -2.9405   -2.6878   -2.0005 C   0  0  0  0  0  0  0  0  0  0  0  0
   -2.8316   -3.7854   -1.1505 C   0  0  0  0  0  0  0  0  0  0  0  0
   -2.3884   -3.6040    0.1571 C   0  0  0  0  0  0  0  0  0  0  0  0
   -2.0359   -2.3281    0.6098 C   0  0  0  0  0  0  0  0  0  0  0  0
   -2.1076   -1.2109   -0.2389 C   0  0  0  0  0  0  0  0  0  0  0  0
   -1.7386    0.0898    0.2049 N   0  0  0  0  0  0  0  0  0  0  0  0
   -0.3449    0.1339    0.7611 C   0  0  0  0  0  0  0  0  0  0  0  0
    0.7602    0.1671   -0.3313 C   0  0  0  0  0  0  0  0  0  0  0  0
    0.7960   -1.0424   -1.0966 O   0  0  0  0  0  0  0  0  0  0  0  0
    2.1525    0.4335    0.2923 C   0  0  0  0  0  0  0  0  0  0  0  0
    2.5516   -0.6206    1.2553 N   0  0  0  0  0  0  0  0  0  0  0  0
    3.4223   -0.0808    2.3158 C   0  0  0  0  0  0  0  0  0  0  0  0
    4.8120   -0.0098    1.7098 C   0  0  0  0  0  0  0  0  0  0  0  0
    4.8381   -1.1369    0.6899 C   0  0  0  0  0  0  0  0  0  0  0  0
    3.4023   -1.6456    0.6150 C   0  0  0  0  0  0  0  0  0  0  0  0
   -2.1164    1.2533   -0.5264 C   0  0  0  0  0  0  0  0  0  0  0  0
   -1.0851    4.0291    2.6004 H   0  0  0  0  0  0  0  0  0  0  0  0
   -2.3809    4.6830   -0.4048 H   0  0  0  0  0  0  0  0  0  0  0  0
   -3.0011    4.3619   -2.7712 H   0  0  0  0  0  0  0  0  0  0  0  0
   -3.1811    2.0729   -3.6965 H   0  0  0  0  0  0  0  0  0  0  0  0
   -3.3001   -2.8219   -3.0182 H   0  0  0  0  0  0  0  0  0  0  0  0
   -3.1053   -4.7762   -1.5039 H   0  0  0  0  0  0  0  0  0  0  0  0
   -2.3253   -4.4542    0.8319 H   0  0  0  0  0  0  0  0  0  0  0  0
   -1.7315   -2.2136    1.6471 H   0  0  0  0  0  0  0  0  0  0  0  0
   -0.1771   -0.7209    1.4255 H   0  0  0  0  0  0  0  0  0  0  0  0
   -0.2198    1.0069    1.4063 H   0  0  0  0  0  0  0  0  0  0  0  0
    0.5582    0.9765   -1.0411 H   0  0  0  0  0  0  0  0  0  0  0  0
    0.8642   -1.7688   -0.4506 H   0  0  0  0  0  0  0  0  0  0  0  0
    2.8970    0.5416   -0.5068 H   0  0  0  0  0  0  0  0  0  0  0  0
    2.0928    1.4063    0.7974 H   0  0  0  0  0  0  0  0  0  0  0  0
    3.0840    0.8820    2.7138 H   0  0  0  0  0  0  0  0  0  0  0  0
    3.4216   -0.7848    3.1579 H   0  0  0  0  0  0  0  0  0  0  0  0
    5.5957   -0.1220    2.4653 H   0  0  0  0  0  0  0  0  0  0  0  0
    4.9646    0.9519    1.2061 H   0  0  0  0  0  0  0  0  0  0  0  0
    5.1771   -0.7586   -0.2808 H   0  0  0  0  0  0  0  0  0  0  0  0
    5.5201   -1.9367    0.9972 H   0  0  0  0  0  0  0  0  0  0  0  0
    3.3151   -2.5729    1.1950 H   0  0  0  0  0  0  0  0  0  0  0  0
    3.1136   -1.8934   -0.4110 H   0  0  0  0  0  0  0  0  0  0  0  0
  1  2  2  0
  2  3  1  0
  2  4  1  0
  4  5  2  0
  5  6  1  0
  6  7  2  0
  7  8  1  0
  8  9  1  0
  9 10  2  0
  9 11  1  0
 11 12  2  0
 12 13  1  0
 13 14  2  0
 14 15  1  0
 15 16  2  0
 16 17  1  0
 17 18  1  0
 18 19  1  0
 19 20  1  0
 19 21  1  0
 21 22  1  0
 22 23  1  0
 23 24  1  0
 24 25  1  0
 25 26  1  0
 17 27  1  0
 27  4  1  0
 27  8  2  0
 16 11  1  0
 26 22  1  0
  3 28  1  0
  5 29  1  0
  6 30  1  0
  7 31  1  0
 12 32  1  0
 13 33  1  0
 14 34  1  0
 15 35  1  0
 18 36  1  0
 18 37  1  0
 19 38  1  0
 20 39  1  0
 21 40  1  0
 21 41  1  0
 23 42  1  0
 23 43  1  0
 24 44  1  0
 24 45  1  0
 25 46  1  0
 25 47  1  0
 26 48  1  0
 26 49  1  0
M  END
$$$$
