
     RDKit          3D

 40 41  0  0  0  0  0  0  0  0999 V2000
   -6.9267    0.0814   -0.1906 C   0  0  0  0  0  0  0  0  0  0  0  0
   -5.4402   -0.0385   -0.0216 C   0  0  0  0  0  0  0  0  0  0  0  0
   -4.7448    0.8553    0.7859 C   0  0  0  0  0  0  0  0  0  0  0  0
   -3.3653    0.7419    0.9018 C   0  0  0  0  0  0  0  0  0  0  0  0
   -2.6829   -0.2577    0.2003 C   0  0  0  0  0  0  0  0  0  0  0  0
   -1.2306   -0.3917    0.3395 C   0  0  0  0  0  0  0  0  0  0  0  0
   -0.3836    0.5389   -0.1286 C   0  0  0  0  0  0  0  0  0  0  0  0
    1.0799    0.4626   -0.0050 C   0  0  0  0  0  0  0  0  0  0  0  0
    1.7844   -0.7408    0.0010 C   0  0  0  0  0  0  0  0  0  0  0  0
    3.1868   -0.7516    0.0862 C   0  0  0  0  0  0  0  0  0  0  0  0
    3.9479    0.4265    0.1670 C   0  0  0  0  0  0  0  0  0  0  0  0
    5.3435    0.4050    0.2288 N   0  0  0  0  0  0  0  0  0  0  0  0
    6.0214   -0.8281    0.6295 C   0  0  0  0  0  0  0  0  0  0  0  0
    6.0718    1.6419    0.5115 C   0  0  0  0  0  0  0  0  0  0  0  0
    3.2156    1.6240    0.1305 C   0  0  0  0  0  0  0  0  0  0  0  0
    1.8140    1.6473    0.0464 C   0  0  0  0  0  0  0  0  0  0  0  0
   -3.3762   -1.1138   -0.5981 N   0  0  0  0  0  4  0  0  0  0  0  0
   -2.6716   -2.1523   -1.3771 C   0  0  0  0  0  0  0  0  0  0  0  0
   -4.7220   -1.0106   -0.7164 C   0  0  0  0  0  0  0  0  0  0  0  0
   -7.3934    0.4650    0.7227 H   0  0  0  0  0  0  0  0  0  0  0  0
   -7.1555    0.7602   -1.0179 H   0  0  0  0  0  0  0  0  0  0  0  0
   -7.3756   -0.8954   -0.3994 H   0  0  0  0  0  0  0  0  0  0  0  0
   -5.2694    1.6398    1.3313 H   0  0  0  0  0  0  0  0  0  0  0  0
   -2.8236    1.4332    1.5460 H   0  0  0  0  0  0  0  0  0  0  0  0
   -0.8798   -1.2785    0.8597 H   0  0  0  0  0  0  0  0  0  0  0  0
   -0.7557    1.4358   -0.6236 H   0  0  0  0  0  0  0  0  0  0  0  0
    1.2760   -1.6969   -0.0758 H   0  0  0  0  0  0  0  0  0  0  0  0
    3.6720   -1.7233    0.0728 H   0  0  0  0  0  0  0  0  0  0  0  0
    5.8491   -1.6283   -0.0981 H   0  0  0  0  0  0  0  0  0  0  0  0
    7.1077   -0.6915    0.6743 H   0  0  0  0  0  0  0  0  0  0  0  0
    5.6894   -1.1545    1.6213 H   0  0  0  0  0  0  0  0  0  0  0  0
    5.8713    2.4030   -0.2502 H   0  0  0  0  0  0  0  0  0  0  0  0
    5.8118    2.0329    1.5013 H   0  0  0  0  0  0  0  0  0  0  0  0
    7.1553    1.4785    0.4932 H   0  0  0  0  0  0  0  0  0  0  0  0
    3.7187    2.5862    0.1650 H   0  0  0  0  0  0  0  0  0  0  0  0
    1.3176    2.6152    0.0255 H   0  0  0  0  0  0  0  0  0  0  0  0
   -2.1827   -2.8326   -0.6749 H   0  0  0  0  0  0  0  0  0  0  0  0
   -1.9493   -1.6594   -2.0331 H   0  0  0  0  0  0  0  0  0  0  0  0
   -3.3849   -2.7137   -1.9859 H   0  0  0  0  0  0  0  0  0  0  0  0
   -5.2208   -1.7154   -1.3770 H   0  0  0  0  0  0  0  0  0  0  0  0
  1  2  1  0
  2  3  2  0
  3  4  1  0
  4  5  2  0
  5  6  1  0
  6  7  2  3
  7  8  1  0
  8  9  2  0
  9 10  1  0
 10 11  2  0
 11 12  1  0
 12 13  1  0
 12 14  1  0
 11 15  1  0
 15 16  2  0
  5 17  1  0
 17 18  1  0
 17 19  2  0
 19  2  1  0
 16  8  1  0
  1 20  1  0
  1 21  1  0
  1 22  1  0
  3 23  1  0
  4 24  1  0
  6 25  1  0
  7 26  1  0
  9 27  1  0
 10 28  1  0
 13 29  1  0
 13 30  1  0
 13 31  1  0
 14 32  1  0
 14 33  1  0
 14 34  1  0
 15 35  1  0
 16 36  1  0
 18 37  1  0
 18 38  1  0
 18 39  1  0
 19 40  1  0
M  CHG  1  17   1
M  END
$$$$
