
     RDKit          3D

 55 58  0  0  0  0  0  0  0  0999 V2000
    8.0184    2.8475    1.7534 C   0  0  0  0  0  0  0  0  0  0  0  0
    7.7701    1.7325    0.9084 O   0  0  0  0  0  0  0  0  0  0  0  0
    6.4633    1.3750    0.6946 C   0  0  0  0  0  0  0  0  0  0  0  0
    5.3574    2.0759    1.1834 C   0  0  0  0  0  0  0  0  0  0  0  0
    4.0613    1.6296    0.9070 C   0  0  0  0  0  0  0  0  0  0  0  0
    3.8581    0.4686    0.1538 C   0  0  0  0  0  0  0  0  0  0  0  0
    2.4589    0.0195   -0.0912 C   0  0  0  0  0  0  0  0  0  0  0  0
    2.2123   -1.4577   -0.0778 C   0  0  0  0  0  0  0  0  0  0  0  0
    0.9433   -1.8555   -0.2968 C   0  0  0  0  0  0  0  0  0  0  0  0
    0.5142   -3.2723   -0.3161 C   0  0  0  0  0  0  0  0  0  0  0  0
    0.0087   -3.6540   -1.5155 F   0  0  0  0  0  0  0  0  0  0  0  0
   -0.4132   -3.5580    0.6326 F   0  0  0  0  0  0  0  0  0  0  0  0
    1.5621   -4.1104   -0.0735 F   0  0  0  0  0  0  0  0  0  0  0  0
   -0.0481   -0.9055   -0.5120 N   0  0  0  0  0  0  0  0  0  0  0  0
   -1.3662   -1.1052   -0.7490 N   0  0  0  0  0  0  0  0  0  0  0  0
   -1.9105    0.1188   -0.8612 C   0  0  0  0  0  0  0  0  0  0  0  0
   -3.3414    0.3858   -1.1426 C   0  0  0  0  0  0  0  0  0  0  0  0
   -3.6628    1.4795   -1.6131 O   0  0  0  0  0  0  0  0  0  0  0  0
   -4.3047   -0.5966   -0.8714 N   0  0  0  0  0  0  0  0  0  0  0  0
   -4.0379   -1.8387   -0.1599 C   0  0  0  0  0  0  0  0  0  0  0  0
   -5.6726   -0.3721   -1.3261 C   0  0  0  0  0  0  0  0  0  0  0  0
   -6.5831    0.1071   -0.2187 C   0  0  0  0  0  0  0  0  0  0  0  0
   -6.5222    1.4375    0.2218 C   0  0  0  0  0  0  0  0  0  0  0  0
   -7.3561    1.8862    1.2476 C   0  0  0  0  0  0  0  0  0  0  0  0
   -8.2586    1.0103    1.8459 C   0  0  0  0  0  0  0  0  0  0  0  0
   -8.3301   -0.3146    1.4191 C   0  0  0  0  0  0  0  0  0  0  0  0
   -7.4968   -0.7652    0.3928 C   0  0  0  0  0  0  0  0  0  0  0  0
   -0.9133    1.1180   -0.7319 C   0  0  0  0  0  0  0  0  0  0  0  0
    0.2634    0.4543   -0.4921 C   0  0  0  0  0  0  0  0  0  0  0  0
    1.5289    0.9144   -0.2716 N   0  0  0  0  0  0  0  0  0  0  0  0
    4.9584   -0.2278   -0.3582 C   0  0  0  0  0  0  0  0  0  0  0  0
    6.2569    0.2289   -0.0981 C   0  0  0  0  0  0  0  0  0  0  0  0
    7.3786   -0.4308   -0.5403 O   0  0  0  0  0  0  0  0  0  0  0  0
    7.2778   -1.0061   -1.8369 C   0  0  0  0  0  0  0  0  0  0  0  0
    7.6088    3.7675    1.3225 H   0  0  0  0  0  0  0  0  0  0  0  0
    9.1019    2.9712    1.8331 H   0  0  0  0  0  0  0  0  0  0  0  0
    7.6287    2.6723    2.7617 H   0  0  0  0  0  0  0  0  0  0  0  0
    5.4671    2.9761    1.7803 H   0  0  0  0  0  0  0  0  0  0  0  0
    3.2105    2.1895    1.2933 H   0  0  0  0  0  0  0  0  0  0  0  0
    3.0173   -2.1508    0.1290 H   0  0  0  0  0  0  0  0  0  0  0  0
   -3.6422   -2.5704   -0.8692 H   0  0  0  0  0  0  0  0  0  0  0  0
   -4.9594   -2.2402    0.2724 H   0  0  0  0  0  0  0  0  0  0  0  0
   -3.3341   -1.6745    0.6585 H   0  0  0  0  0  0  0  0  0  0  0  0
   -5.6952    0.3596   -2.1424 H   0  0  0  0  0  0  0  0  0  0  0  0
   -6.0465   -1.3102   -1.7566 H   0  0  0  0  0  0  0  0  0  0  0  0
   -5.8229    2.1339   -0.2376 H   0  0  0  0  0  0  0  0  0  0  0  0
   -7.2986    2.9195    1.5800 H   0  0  0  0  0  0  0  0  0  0  0  0
   -8.9072    1.3611    2.6442 H   0  0  0  0  0  0  0  0  0  0  0  0
   -9.0365   -0.9992    1.8859 H   0  0  0  0  0  0  0  0  0  0  0  0
   -7.5669   -1.8028    0.0743 H   0  0  0  0  0  0  0  0  0  0  0  0
   -1.0462    2.1885   -0.7999 H   0  0  0  0  0  0  0  0  0  0  0  0
    4.8079   -1.1170   -0.9584 H   0  0  0  0  0  0  0  0  0  0  0  0
    6.8000   -0.3242   -2.5495 H   0  0  0  0  0  0  0  0  0  0  0  0
    6.7457   -1.9616   -1.7955 H   0  0  0  0  0  0  0  0  0  0  0  0
    8.2934   -1.2069   -2.1937 H   0  0  0  0  0  0  0  0  0  0  0  0
  1  2  1  0
  2  3  1  0
  3  4  2  0
  4  5  1  0
  5  6  2  0
  6  7  1  0
  7  8  1  0
  8  9  2  0
  9 10  1  0
 10 11  1  0
 10 12  1  0
 10 13  1  0
  9 14  1  0
 14 15  1  0
 15 16  2  0
 16 17  1  0
 17 18  2  0
 17 19  1  0
 19 20  1  0
 19 21  1  0
 21 22  1  0
 22 23  2  0
 23 24  1  0
 24 25  2  0
 25 26  1  0
 26 27  2  0
 16 28  1  0
 28 29  2  0
 29 30  1  0
  6 31  1  0
 31 32  2  0
 32 33  1  0
 33 34  1  0
 32  3  1  0
 30  7  2  0
 29 14  1  0
 27 22  1  0
  1 35  1  0
  1 36  1  0
  1 37  1  0
  4 38  1  0
  5 39  1  0
  8 40  1  0
 20 41  1  0
 20 42  1  0
 20 43  1  0
 21 44  1  0
 21 45  1  0
 23 46  1  0
 24 47  1  0
 25 48  1  0
 26 49  1  0
 27 50  1  0
 28 51  1  0
 31 52  1  0
 34 53  1  0
 34 54  1  0
 34 55  1  0
M  END
$$$$
