
     RDKit          3D

 39 40  0  0  0  0  0  0  0  0999 V2000
   -0.1940   -1.6829    0.0254 O   0  0  0  0  0  0  0  0  0  0  0  0
   -0.8882   -0.6977    0.2692 C   0  0  0  0  0  0  0  0  0  0  0  0
   -2.2751   -0.6730   -0.2778 C   0  0  0  0  0  0  0  0  0  0  0  0
   -3.0535    0.4190   -0.3195 C   0  0  0  0  0  0  0  0  0  0  0  0
   -4.4192    0.4441   -0.8714 C   0  0  0  0  0  0  0  0  0  0  0  0
   -4.8352   -0.3999   -1.9126 C   0  0  0  0  0  0  0  0  0  0  0  0
   -6.1313   -0.3077   -2.4280 C   0  0  0  0  0  0  0  0  0  0  0  0
   -7.0150    0.6295   -1.9099 C   0  0  0  0  0  0  0  0  0  0  0  0
   -8.2685    0.6828   -2.4423 O   0  0  0  0  0  0  0  0  0  0  0  0
   -6.6268    1.4786   -0.8796 C   0  0  0  0  0  0  0  0  0  0  0  0
   -5.3280    1.3882   -0.3684 C   0  0  0  0  0  0  0  0  0  0  0  0
   -0.3764    0.4826    1.0522 C   0  0  0  0  0  0  0  0  0  0  0  0
    0.8695    0.2095    1.8575 C   0  0  0  0  0  0  0  0  0  0  0  0
    0.8497    0.2476    3.0879 O   0  0  0  0  0  0  0  0  0  0  0  0
    2.1379   -0.0327    1.1122 C   0  0  0  0  0  0  0  0  0  0  0  0
    3.3046   -0.0969    1.7701 C   0  0  0  0  0  0  0  0  0  0  0  0
    4.5907   -0.3423    1.1072 C   0  0  0  0  0  0  0  0  0  0  0  0
    5.4862   -1.2547    1.6786 C   0  0  0  0  0  0  0  0  0  0  0  0
    6.7276   -1.4940    1.0871 C   0  0  0  0  0  0  0  0  0  0  0  0
    7.0809   -0.8127   -0.0711 C   0  0  0  0  0  0  0  0  0  0  0  0
    8.3045   -1.0735   -0.6131 O   0  0  0  0  0  0  0  0  0  0  0  0
    6.2130    0.1083   -0.6476 C   0  0  0  0  0  0  0  0  0  0  0  0
    4.9698    0.3460   -0.0545 C   0  0  0  0  0  0  0  0  0  0  0  0
   -2.6068   -1.6353   -0.6575 H   0  0  0  0  0  0  0  0  0  0  0  0
   -2.7034    1.3735    0.0655 H   0  0  0  0  0  0  0  0  0  0  0  0
   -4.1650   -1.1411   -2.3419 H   0  0  0  0  0  0  0  0  0  0  0  0
   -6.4480   -0.9660   -3.2324 H   0  0  0  0  0  0  0  0  0  0  0  0
   -8.7738    1.3752   -1.9853 H   0  0  0  0  0  0  0  0  0  0  0  0
   -7.3110    2.2107   -0.4642 H   0  0  0  0  0  0  0  0  0  0  0  0
   -5.0360    2.0609    0.4355 H   0  0  0  0  0  0  0  0  0  0  0  0
   -1.1494    0.8031    1.7611 H   0  0  0  0  0  0  0  0  0  0  0  0
   -0.1734    1.3142    0.3677 H   0  0  0  0  0  0  0  0  0  0  0  0
    2.0671   -0.1657    0.0396 H   0  0  0  0  0  0  0  0  0  0  0  0
    3.3385    0.0104    2.8522 H   0  0  0  0  0  0  0  0  0  0  0  0
    5.2204   -1.7956    2.5846 H   0  0  0  0  0  0  0  0  0  0  0  0
    7.4151   -2.2095    1.5296 H   0  0  0  0  0  0  0  0  0  0  0  0
    8.4125   -0.5351   -1.4140 H   0  0  0  0  0  0  0  0  0  0  0  0
    6.4842    0.6516   -1.5475 H   0  0  0  0  0  0  0  0  0  0  0  0
    4.3057    1.0807   -0.5023 H   0  0  0  0  0  0  0  0  0  0  0  0
  1  2  2  0
  2  3  1  0
  3  4  2  3
  4  5  1  0
  5  6  2  0
  6  7  1  0
  7  8  2  0
  8  9  1  0
  8 10  1  0
 10 11  2  0
  2 12  1  0
 12 13  1  0
 13 14  2  0
 13 15  1  0
 15 16  2  3
 16 17  1  0
 17 18  2  0
 18 19  1  0
 19 20  2  0
 20 21  1  0
 20 22  1  0
 22 23  2  0
 11  5  1  0
 23 17  1  0
  3 24  1  0
  4 25  1  0
  6 26  1  0
  7 27  1  0
  9 28  1  0
 10 29  1  0
 11 30  1  0
 12 31  1  0
 12 32  1  0
 15 33  1  0
 16 34  1  0
 18 35  1  0
 19 36  1  0
 21 37  1  0
 22 38  1  0
 23 39  1  0
M  END
$$$$
