
     RDKit          3D

 68 74  0  0  0  0  0  0  0  0999 V2000
   -4.7846   -2.2821   -4.7552 C   0  0  0  0  0  0  0  0  0  0  0  0
   -3.9864   -2.3759   -3.4900 C   0  0  0  0  0  0  0  0  0  0  0  0
   -4.0907   -3.4886   -2.6324 C   0  0  0  0  0  0  0  0  0  0  0  0
   -5.1525   -4.8059   -2.9995 Cl  0  0  0  0  0  0  0  0  0  0  0  0
   -3.3347   -3.5838   -1.4468 C   0  0  0  0  0  0  0  0  0  0  0  0
   -2.4525   -2.5684   -1.0790 C   0  0  0  0  0  0  0  0  0  0  0  0
   -2.3461   -1.4669   -1.9118 C   0  0  0  0  0  0  0  0  0  0  0  0
   -3.0929   -1.3868   -3.0975 C   0  0  0  0  0  0  0  0  0  0  0  0
   -2.7764   -0.2064   -3.7714 N   0  0  0  0  0  0  0  0  0  0  0  0
   -1.8260    0.5486   -3.0790 C   0  0  0  0  0  0  0  0  0  0  0  0
   -1.3591    1.6087   -3.4701 O   0  0  0  0  0  0  0  0  0  0  0  0
   -1.4945   -0.2386   -1.7887 C   0  0  1  0  0  0  0  0  0  0  0  0
   -1.8539    0.4974   -0.5503 C   0  0  0  0  0  0  0  0  0  0  0  0
   -0.6939    0.9546    0.0933 C   0  0  0  0  0  0  0  0  0  0  0  0
   -1.0438    1.5983    1.2457 C   0  0  0  0  0  0  0  0  0  0  0  0
   -0.2401    2.0788    2.1924 O   0  0  0  0  0  0  0  0  0  0  0  0
   -2.4518    1.6003    1.2972 N   0  0  0  0  0  0  0  0  0  0  0  0
   -3.2471    2.1825    2.3267 C   0  0  0  0  0  0  0  0  0  0  0  0
   -2.8824    3.4152    2.8840 C   0  0  0  0  0  0  0  0  0  0  0  0
   -3.6639    3.9801    3.8932 C   0  0  0  0  0  0  0  0  0  0  0  0
   -4.8036    3.3184    4.3490 C   0  0  0  0  0  0  0  0  0  0  0  0
   -5.1688    2.0917    3.7958 C   0  0  0  0  0  0  0  0  0  0  0  0
   -4.3950    1.5213    2.7838 C   0  0  0  0  0  0  0  0  0  0  0  0
   -2.9427    0.9313    0.1574 C   0  0  0  0  0  0  0  0  0  0  0  0
   -4.2307    0.8269   -0.1676 O   0  0  0  0  0  0  0  0  0  0  0  0
    0.5094    0.5786   -0.6739 C   0  0  1  0  0  0  0  0  0  0  0  0
    1.6913   -0.0154    0.0928 C   0  0  0  0  0  0  0  0  0  0  0  0
    2.5853   -0.8005   -0.7844 N   0  0  0  0  0  0  0  0  0  0  0  0
    3.7461   -1.3735   -0.3072 C   0  0  0  0  0  0  0  0  0  0  0  0
    4.5794   -1.9233   -1.0180 O   0  0  0  0  0  0  0  0  0  0  0  0
    3.8505   -1.2569    1.0427 O   0  0  0  0  0  0  0  0  0  0  0  0
    5.0433   -1.7872    1.6280 C   0  0  0  0  0  0  0  0  0  0  0  0
    6.0368   -0.6747    1.8401 C   0  0  0  0  0  0  0  0  0  0  0  0
    5.8941    0.2093    2.9188 C   0  0  0  0  0  0  0  0  0  0  0  0
    6.8037    1.2509    3.1045 C   0  0  0  0  0  0  0  0  0  0  0  0
    7.8595    1.4225    2.2108 C   0  0  0  0  0  0  0  0  0  0  0  0
    8.0023    0.5578    1.1270 C   0  0  0  0  0  0  0  0  0  0  0  0
    7.0930   -0.4839    0.9391 C   0  0  0  0  0  0  0  0  0  0  0  0
    2.3347   -0.7491   -2.2305 C   0  0  0  0  0  0  0  0  0  0  0  0
    0.8350   -0.8913   -2.6190 C   0  0  0  0  0  0  0  0  0  0  0  0
   -0.0566   -0.4817   -1.5511 N   0  0  0  0  0  0  0  0  0  0  0  0
   -4.4806   -3.0686   -5.4536 H   0  0  0  0  0  0  0  0  0  0  0  0
   -5.8537   -2.3803   -4.5407 H   0  0  0  0  0  0  0  0  0  0  0  0
   -4.6534   -1.3230   -5.2632 H   0  0  0  0  0  0  0  0  0  0  0  0
   -3.4347   -4.4569   -0.8055 H   0  0  0  0  0  0  0  0  0  0  0  0
   -1.8666   -2.6368   -0.1674 H   0  0  0  0  0  0  0  0  0  0  0  0
   -3.1624    0.0997   -4.6506 H   0  0  0  0  0  0  0  0  0  0  0  0
   -0.7385    2.1521    3.0261 H   0  0  0  0  0  0  0  0  0  0  0  0
   -2.0239    3.9739    2.5149 H   0  0  0  0  0  0  0  0  0  0  0  0
   -3.3905    4.9437    4.3175 H   0  0  0  0  0  0  0  0  0  0  0  0
   -5.4097    3.7607    5.1363 H   0  0  0  0  0  0  0  0  0  0  0  0
   -6.0526    1.5737    4.1615 H   0  0  0  0  0  0  0  0  0  0  0  0
   -4.6779    0.5433    2.3988 H   0  0  0  0  0  0  0  0  0  0  0  0
   -4.7332    1.5186    0.2985 H   0  0  0  0  0  0  0  0  0  0  0  0
    0.8321    1.4354   -1.2813 H   0  0  0  0  0  0  0  0  0  0  0  0
    1.3529   -0.6828    0.8960 H   0  0  0  0  0  0  0  0  0  0  0  0
    2.2802    0.7831    0.5606 H   0  0  0  0  0  0  0  0  0  0  0  0
    5.4729   -2.6135    1.0476 H   0  0  0  0  0  0  0  0  0  0  0  0
    4.7680   -2.2178    2.5986 H   0  0  0  0  0  0  0  0  0  0  0  0
    5.0673    0.0924    3.6161 H   0  0  0  0  0  0  0  0  0  0  0  0
    6.6855    1.9316    3.9433 H   0  0  0  0  0  0  0  0  0  0  0  0
    8.5663    2.2352    2.3540 H   0  0  0  0  0  0  0  0  0  0  0  0
    8.8186    0.6965    0.4231 H   0  0  0  0  0  0  0  0  0  0  0  0
    7.2054   -1.1423    0.0795 H   0  0  0  0  0  0  0  0  0  0  0  0
    2.7032    0.2292   -2.5648 H   0  0  0  0  0  0  0  0  0  0  0  0
    2.9239   -1.5114   -2.7517 H   0  0  0  0  0  0  0  0  0  0  0  0
    0.6732   -0.3241   -3.5422 H   0  0  0  0  0  0  0  0  0  0  0  0
    0.6344   -1.9439   -2.8501 H   0  0  0  0  0  0  0  0  0  0  0  0
  1  2  1  0
  2  3  2  0
  3  4  1  0
  3  5  1  0
  5  6  2  0
  6  7  1  0
  7  8  2  0
  8  9  1  0
  9 10  1  0
 10 11  2  0
 10 12  1  0
 12 13  1  0
 13 14  1  0
 14 15  2  0
 15 16  1  0
 15 17  1  0
 17 18  1  0
 18 19  2  0
 19 20  1  0
 20 21  2  0
 21 22  1  0
 22 23  2  0
 17 24  1  0
 24 25  1  0
 14 26  1  0
 26 27  1  0
 27 28  1  0
 28 29  1  0
 29 30  2  0
 29 31  1  0
 31 32  1  0
 32 33  1  0
 33 34  2  0
 34 35  1  0
 35 36  2  0
 36 37  1  0
 37 38  2  0
 28 39  1  0
 39 40  1  0
 40 41  1  0
  8  2  1  0
 12 41  1  1
 12  7  1  0
 24 13  2  0
 41 26  1  0
 23 18  1  0
 38 33  1  0
  1 42  1  0
  1 43  1  0
  1 44  1  0
  5 45  1  0
  6 46  1  0
  9 47  1  0
 16 48  1  0
 19 49  1  0
 20 50  1  0
 21 51  1  0
 22 52  1  0
 23 53  1  0
 25 54  1  0
 26 55  1  6
 27 56  1  0
 27 57  1  0
 32 58  1  0
 32 59  1  0
 34 60  1  0
 35 61  1  0
 36 62  1  0
 37 63  1  0
 38 64  1  0
 39 65  1  0
 39 66  1  0
 40 67  1  0
 40 68  1  0
M  END
$$$$
