
     RDKit          3D

 46 49  0  0  0  0  0  0  0  0999 V2000
   -3.7384   -3.5648   -1.7528 C   0  0  0  0  0  0  0  0  0  0  0  0
   -3.2305   -2.7857   -0.6765 O   0  0  0  0  0  0  0  0  0  0  0  0
   -2.6687   -1.5806   -0.9955 C   0  0  0  0  0  0  0  0  0  0  0  0
   -2.5049   -1.0650   -2.2810 C   0  0  0  0  0  0  0  0  0  0  0  0
   -1.9037    0.1833   -2.4656 C   0  0  0  0  0  0  0  0  0  0  0  0
   -1.4617    0.9211   -1.3677 C   0  0  0  0  0  0  0  0  0  0  0  0
   -1.6244    0.4146   -0.0751 C   0  0  0  0  0  0  0  0  0  0  0  0
   -1.1235    1.1583    1.0738 C   0  0  0  0  0  0  0  0  0  0  0  0
    0.1749    1.3191    1.5518 C   0  0  0  0  0  0  0  0  0  0  0  0
    1.4515    0.7909    1.0597 C   0  0  0  0  0  0  0  0  0  0  0  0
    2.5230    1.2798    1.4144 O   0  0  0  0  0  0  0  0  0  0  0  0
    1.3609   -0.2921    0.1779 N   0  0  0  0  0  0  0  0  0  0  0  0
    2.4658   -1.0507   -0.1271 N   0  0  0  0  0  0  0  0  0  0  0  0
    3.4673   -0.5131   -0.7685 C   0  0  0  0  0  0  0  0  0  0  0  0
    3.4542    0.8814   -1.3693 C   0  0  0  0  0  0  0  0  0  0  0  0
    4.6882   -1.2971   -0.9574 C   0  0  0  0  0  0  0  0  0  0  0  0
    5.9286   -0.8813   -1.4193 C   0  0  0  0  0  0  0  0  0  0  0  0
    6.8840   -1.9416   -1.4690 C   0  0  0  0  0  0  0  0  0  0  0  0
    6.3331   -3.1196   -1.0417 C   0  0  0  0  0  0  0  0  0  0  0  0
    7.1223   -4.6411   -0.9404 Cl  0  0  0  0  0  0  0  0  0  0  0  0
    4.7133   -2.9801   -0.5867 S   0  0  0  0  0  0  0  0  0  0  0  0
    0.1437    2.1418    2.6482 N   0  0  0  0  0  0  0  0  0  0  0  0
   -1.1080    2.4838    2.8871 N   0  0  0  0  0  0  0  0  0  0  0  0
   -1.9108    1.9346    1.9348 N   0  0  0  0  0  0  0  0  0  0  0  0
   -3.3032    2.2039    1.9028 C   0  0  0  0  0  0  0  0  0  0  0  0
   -4.0773    1.7419    0.9205 N   0  0  0  0  0  0  0  0  0  0  0  0
   -5.3459    2.2293    1.2286 O   0  0  0  0  0  0  0  0  0  0  0  0
   -5.3251    2.9907    2.3921 N   0  0  0  0  0  0  0  0  0  0  0  0
   -4.0607    2.9669    2.8115 C   0  0  0  0  0  0  0  0  0  0  0  0
   -3.6186    3.5799    3.9256 N   0  0  0  0  0  0  0  0  0  0  0  0
   -2.2257   -0.8379    0.1030 C   0  0  0  0  0  0  0  0  0  0  0  0
   -4.1687   -4.4778   -1.3304 H   0  0  0  0  0  0  0  0  0  0  0  0
   -4.5368   -3.0343   -2.2825 H   0  0  0  0  0  0  0  0  0  0  0  0
   -2.9368   -3.8602   -2.4376 H   0  0  0  0  0  0  0  0  0  0  0  0
   -2.8338   -1.6079   -3.1613 H   0  0  0  0  0  0  0  0  0  0  0  0
   -1.7811    0.5804   -3.4707 H   0  0  0  0  0  0  0  0  0  0  0  0
   -0.9950    1.8898   -1.5334 H   0  0  0  0  0  0  0  0  0  0  0  0
    0.5248   -0.8606    0.2748 H   0  0  0  0  0  0  0  0  0  0  0  0
    4.0506    1.5545   -0.7471 H   0  0  0  0  0  0  0  0  0  0  0  0
    3.8863    0.8586   -2.3749 H   0  0  0  0  0  0  0  0  0  0  0  0
    2.4418    1.2787   -1.4679 H   0  0  0  0  0  0  0  0  0  0  0  0
    6.1553    0.1398   -1.7028 H   0  0  0  0  0  0  0  0  0  0  0  0
    7.9109   -1.8362   -1.7955 H   0  0  0  0  0  0  0  0  0  0  0  0
   -4.2142    4.2589    4.3878 H   0  0  0  0  0  0  0  0  0  0  0  0
   -2.6224    3.6969    4.1073 H   0  0  0  0  0  0  0  0  0  0  0  0
   -2.3607   -1.2511    1.1009 H   0  0  0  0  0  0  0  0  0  0  0  0
  1  2  1  0
  2  3  1  0
  3  4  2  0
  4  5  1  0
  5  6  2  0
  6  7  1  0
  7  8  1  0
  8  9  2  0
  9 10  1  0
 10 11  2  0
 10 12  1  0
 12 13  1  0
 13 14  2  3
 14 15  1  0
 14 16  1  0
 16 17  2  0
 17 18  1  0
 18 19  2  0
 19 20  1  0
 19 21  1  0
  9 22  1  0
 22 23  2  0
 23 24  1  0
 24 25  1  0
 25 26  2  0
 26 27  1  0
 27 28  1  0
 28 29  2  0
 29 30  1  0
  7 31  2  0
 31  3  1  0
 24  8  1  0
 29 25  1  0
 21 16  1  0
  1 32  1  0
  1 33  1  0
  1 34  1  0
  4 35  1  0
  5 36  1  0
  6 37  1  0
 12 38  1  0
 15 39  1  0
 15 40  1  0
 15 41  1  0
 17 42  1  0
 18 43  1  0
 30 44  1  0
 30 45  1  0
 31 46  1  0
M  END
$$$$
