
     RDKit          3D

 41 43  0  0  0  0  0  0  0  0999 V2000
   -2.5405   -3.4767    3.4441 C   0  0  0  0  0  0  0  0  0  0  0  0
   -2.4326   -2.1452    2.7619 C   0  0  0  0  0  0  0  0  0  0  0  0
   -3.4999   -1.6365    2.0218 C   0  0  0  0  0  0  0  0  0  0  0  0
   -3.4124   -0.3787    1.4208 C   0  0  0  0  0  0  0  0  0  0  0  0
   -2.2597    0.4157    1.5449 C   0  0  0  0  0  0  0  0  0  0  0  0
   -2.2682    1.7670    0.8895 C   0  0  0  0  0  0  0  0  0  0  0  0
   -1.1862   -0.0964    2.2952 C   0  0  0  0  0  0  0  0  0  0  0  0
    0.3463    0.7888    2.5750 S   0  0  0  0  0  6  0  0  0  0  0  0
    0.2398    2.1462    2.0916 O   0  0  0  0  0  0  0  0  0  0  0  0
    0.7417    0.5253    3.9448 O   0  0  0  0  0  0  0  0  0  0  0  0
    1.4500   -0.0564    1.6152 N   0  0  0  0  0  0  0  0  0  0  0  0
    1.1923   -0.2423    0.2297 C   0  0  0  0  0  0  0  0  0  0  0  0
    0.9853   -1.5378   -0.2467 C   0  0  0  0  0  0  0  0  0  0  0  0
    0.7163   -1.7503   -1.6001 C   0  0  0  0  0  0  0  0  0  0  0  0
    0.6586   -0.6622   -2.4728 C   0  0  0  0  0  0  0  0  0  0  0  0
    0.3882   -0.8787   -3.7971 O   0  0  0  0  0  0  0  0  0  0  0  0
    0.8735    0.6435   -2.0065 C   0  0  0  0  0  0  0  0  0  0  0  0
    0.7876    2.0531   -3.0986 S   0  0  0  0  0  0  0  0  0  0  0  0
    2.4716    2.4564   -3.3184 C   0  0  0  0  0  0  0  0  0  0  0  0
    3.5099    1.8412   -2.6652 N   0  0  0  0  0  0  0  0  0  0  0  0
    4.5645    2.4768   -3.1155 C   0  0  0  0  0  0  0  0  0  0  0  0
    4.1738    3.4358   -3.9935 N   0  0  0  0  0  0  0  0  0  0  0  0
    2.8430    3.4426   -4.1452 N   0  0  0  0  0  0  0  0  0  0  0  0
    1.1363    0.8432   -0.6437 C   0  0  0  0  0  0  0  0  0  0  0  0
   -1.2847   -1.3612    2.9089 C   0  0  0  0  0  0  0  0  0  0  0  0
   -3.2298   -4.1365    2.9072 H   0  0  0  0  0  0  0  0  0  0  0  0
   -2.9034   -3.3442    4.4681 H   0  0  0  0  0  0  0  0  0  0  0  0
   -1.5678   -3.9784    3.4730 H   0  0  0  0  0  0  0  0  0  0  0  0
   -4.4161   -2.2125    1.9084 H   0  0  0  0  0  0  0  0  0  0  0  0
   -4.2680   -0.0164    0.8522 H   0  0  0  0  0  0  0  0  0  0  0  0
   -1.4327    1.8726    0.1944 H   0  0  0  0  0  0  0  0  0  0  0  0
   -2.2412    2.5575    1.6454 H   0  0  0  0  0  0  0  0  0  0  0  0
   -3.1801    1.9195    0.3002 H   0  0  0  0  0  0  0  0  0  0  0  0
    1.9067   -0.8078    2.1265 H   0  0  0  0  0  0  0  0  0  0  0  0
    1.0211   -2.3901    0.4268 H   0  0  0  0  0  0  0  0  0  0  0  0
    0.5472   -2.7635   -1.9544 H   0  0  0  0  0  0  0  0  0  0  0  0
    0.3847   -1.8331   -3.9739 H   0  0  0  0  0  0  0  0  0  0  0  0
    5.5953    2.2965   -2.8456 H   0  0  0  0  0  0  0  0  0  0  0  0
    4.7366    4.1093   -4.4987 H   0  0  0  0  0  0  0  0  0  0  0  0
    1.3147    1.8489   -0.2709 H   0  0  0  0  0  0  0  0  0  0  0  0
   -0.4615   -1.7350    3.5156 H   0  0  0  0  0  0  0  0  0  0  0  0
  1  2  1  0
  2  3  2  0
  3  4  1  0
  4  5  2  0
  5  6  1  0
  5  7  1  0
  7  8  1  0
  8  9  2  0
  8 10  2  0
  8 11  1  0
 11 12  1  0
 12 13  2  0
 13 14  1  0
 14 15  2  0
 15 16  1  0
 15 17  1  0
 17 18  1  0
 18 19  1  0
 19 20  1  0
 20 21  2  0
 21 22  1  0
 22 23  1  0
 17 24  2  0
  7 25  2  0
 25  2  1  0
 24 12  1  0
 23 19  2  0
  1 26  1  0
  1 27  1  0
  1 28  1  0
  3 29  1  0
  4 30  1  0
  6 31  1  0
  6 32  1  0
  6 33  1  0
 11 34  1  0
 13 35  1  0
 14 36  1  0
 16 37  1  0
 21 38  1  0
 22 39  1  0
 24 40  1  0
 25 41  1  0
M  END
$$$$
