
     RDKit          3D

 57 61  0  0  0  0  0  0  0  0999 V2000
    4.8669    1.6831   -0.5965 C   0  0  0  0  0  0  0  0  0  0  0  0
    4.3784    1.7083    0.8513 C   0  0  0  0  0  0  0  0  0  0  0  0
    5.5195    2.1467    1.7733 C   0  0  0  0  0  0  0  0  0  0  0  0
    3.8508    0.3272    1.2560 C   0  0  0  0  0  0  0  0  0  0  0  0
    4.5128   -0.3990    2.0015 O   0  0  0  0  0  0  0  0  0  0  0  0
    2.6350   -0.1017    0.7070 N   0  0  0  0  0  0  0  0  0  0  0  0
    2.1268   -1.3806    1.1903 C   0  0  0  0  0  0  0  0  0  0  0  0
    1.2308   -2.0609    0.1655 C   0  0  0  0  0  0  0  0  0  0  0  0
    0.0633   -1.1784   -0.3546 C   0  0  0  0  0  0  0  0  0  0  0  0
    0.6873    0.1689   -0.7997 C   0  0  0  0  0  0  0  0  0  0  0  0
    1.6193    0.8230    0.2149 C   0  0  0  0  0  0  0  0  0  0  0  0
   -0.4314   -1.7655   -1.5958 O   0  0  0  0  0  0  0  0  0  0  0  0
   -1.1672   -2.9105   -1.4640 C   0  0  0  0  0  0  0  0  0  0  0  0
   -1.2885   -3.7027   -2.6061 C   0  0  0  0  0  0  0  0  0  0  0  0
   -2.0098   -4.8962   -2.5499 C   0  0  0  0  0  0  0  0  0  0  0  0
   -2.6088   -5.2843   -1.3549 C   0  0  0  0  0  0  0  0  0  0  0  0
   -3.2999   -6.4298   -1.3084 F   0  0  0  0  0  0  0  0  0  0  0  0
   -2.5094   -4.4983   -0.2142 C   0  0  0  0  0  0  0  0  0  0  0  0
   -1.7919   -3.3019   -0.2790 C   0  0  0  0  0  0  0  0  0  0  0  0
   -1.6992   -2.4169    0.8982 C   0  0  0  0  0  0  0  0  0  0  0  0
   -2.1090   -2.8096    1.9850 O   0  0  0  0  0  0  0  0  0  0  0  0
   -1.1331   -1.0235    0.6313 C   0  0  0  0  0  0  0  0  0  0  0  0
   -2.2922   -0.1647    0.1254 C   0  0  0  0  0  0  0  0  0  0  0  0
   -2.1258    1.0210    1.0060 C   0  0  0  0  0  0  0  0  0  0  0  0
   -2.8959    2.2706    0.8016 C   0  0  0  0  0  0  0  0  0  0  0  0
   -3.8541    2.3841   -0.2130 C   0  0  0  0  0  0  0  0  0  0  0  0
   -4.5560    3.5827   -0.3809 C   0  0  0  0  0  0  0  0  0  0  0  0
   -4.3050    4.6628    0.4647 C   0  0  0  0  0  0  0  0  0  0  0  0
   -5.1749    6.1315    0.2548 Cl  0  0  0  0  0  0  0  0  0  0  0  0
   -3.3571    4.5568    1.4794 C   0  0  0  0  0  0  0  0  0  0  0  0
   -2.6529    3.3617    1.6478 C   0  0  0  0  0  0  0  0  0  0  0  0
   -1.2633    0.8734    1.9572 N   0  0  0  0  0  0  0  0  0  0  0  0
   -0.7361   -0.4340    1.8676 O   0  0  0  0  0  0  0  0  0  0  0  0
    5.6879    0.9675   -0.7211 H   0  0  0  0  0  0  0  0  0  0  0  0
    4.0762    1.3864   -1.2919 H   0  0  0  0  0  0  0  0  0  0  0  0
    5.2277    2.6708   -0.9011 H   0  0  0  0  0  0  0  0  0  0  0  0
    3.5793    2.4466    0.9712 H   0  0  0  0  0  0  0  0  0  0  0  0
    6.3856    1.4810    1.6895 H   0  0  0  0  0  0  0  0  0  0  0  0
    5.8480    3.1622    1.5276 H   0  0  0  0  0  0  0  0  0  0  0  0
    5.1955    2.1408    2.8196 H   0  0  0  0  0  0  0  0  0  0  0  0
    1.6052   -1.2040    2.1364 H   0  0  0  0  0  0  0  0  0  0  0  0
    2.9615   -2.0547    1.4148 H   0  0  0  0  0  0  0  0  0  0  0  0
    0.8687   -3.0059    0.5855 H   0  0  0  0  0  0  0  0  0  0  0  0
    1.8501   -2.3548   -0.6947 H   0  0  0  0  0  0  0  0  0  0  0  0
   -0.0846    0.8829   -1.1067 H   0  0  0  0  0  0  0  0  0  0  0  0
    1.2690   -0.0128   -1.7161 H   0  0  0  0  0  0  0  0  0  0  0  0
    1.0854    1.2146    1.0828 H   0  0  0  0  0  0  0  0  0  0  0  0
    2.0800    1.6860   -0.2691 H   0  0  0  0  0  0  0  0  0  0  0  0
   -0.8113   -3.4005   -3.5355 H   0  0  0  0  0  0  0  0  0  0  0  0
   -2.1057   -5.5285   -3.4278 H   0  0  0  0  0  0  0  0  0  0  0  0
   -2.9938   -4.8176    0.7042 H   0  0  0  0  0  0  0  0  0  0  0  0
   -3.2765   -0.6064    0.3175 H   0  0  0  0  0  0  0  0  0  0  0  0
   -2.2189    0.0936   -0.9332 H   0  0  0  0  0  0  0  0  0  0  0  0
   -4.0785    1.5588   -0.8818 H   0  0  0  0  0  0  0  0  0  0  0  0
   -5.2999    3.6669   -1.1695 H   0  0  0  0  0  0  0  0  0  0  0  0
   -3.1627    5.3952    2.1440 H   0  0  0  0  0  0  0  0  0  0  0  0
   -1.9179    3.2885    2.4482 H   0  0  0  0  0  0  0  0  0  0  0  0
  1  2  1  0
  2  3  1  0
  2  4  1  0
  4  5  2  0
  4  6  1  0
  6  7  1  0
  7  8  1  0
  8  9  1  0
  9 10  1  0
 10 11  1  0
  9 12  1  0
 12 13  1  0
 13 14  2  0
 14 15  1  0
 15 16  2  0
 16 17  1  0
 16 18  1  0
 18 19  2  0
 19 20  1  0
 20 21  2  0
 20 22  1  0
 22 23  1  0
 23 24  1  0
 24 25  1  0
 25 26  2  0
 26 27  1  0
 27 28  2  0
 28 29  1  0
 28 30  1  0
 30 31  2  0
 24 32  2  0
 32 33  1  0
 11  6  1  0
 19 13  1  0
 33 22  1  0
 22  9  1  0
 31 25  1  0
  1 34  1  0
  1 35  1  0
  1 36  1  0
  2 37  1  0
  3 38  1  0
  3 39  1  0
  3 40  1  0
  7 41  1  0
  7 42  1  0
  8 43  1  0
  8 44  1  0
 10 45  1  0
 10 46  1  0
 11 47  1  0
 11 48  1  0
 14 49  1  0
 15 50  1  0
 18 51  1  0
 23 52  1  0
 23 53  1  0
 26 54  1  0
 27 55  1  0
 30 56  1  0
 31 57  1  0
M  END
$$$$
