
     RDKit          3D

 58 60  0  0  0  0  0  0  0  0999 V2000
    8.5724    2.9028   -1.1241 C   0  0  0  0  0  0  0  0  0  0  0  0
    7.4709    2.4168   -0.2761 C   0  0  0  0  0  0  0  0  0  0  0  0
    6.2340    1.8782   -0.5323 C   0  0  0  0  0  0  0  0  0  0  0  0
    5.6816    1.6312    0.7425 C   0  0  0  0  0  0  0  0  0  0  0  0
    4.4592    1.0913    1.0774 N   0  0  0  0  0  0  0  0  0  0  0  0
    3.5014    0.6800    0.1790 C   0  0  0  0  0  0  0  0  0  0  0  0
    3.5983    0.7274   -1.0442 O   0  0  0  0  0  0  0  0  0  0  0  0
    2.2640    0.1460    0.8744 C   0  0  0  0  0  0  0  0  0  0  0  0
    1.2129   -0.3015   -0.1381 C   0  0  0  0  0  0  0  0  0  0  0  0
   -0.0619   -0.7750    0.5336 C   0  0  0  0  0  0  0  0  0  0  0  0
   -0.1766   -0.7675    1.7615 O   0  0  0  0  0  0  0  0  0  0  0  0
   -1.0901   -1.2206   -0.2881 N   0  0  0  0  0  0  0  0  0  0  0  0
   -2.3467   -1.5837    0.3628 C   0  0  0  0  0  0  0  0  0  0  0  0
   -3.2206   -0.3404    0.5789 C   0  0  0  0  0  0  0  0  0  0  0  0
   -3.4428    0.4710   -0.3176 O   0  0  0  0  0  0  0  0  0  0  0  0
   -3.7419   -0.2363    1.8568 N   0  0  0  0  0  0  0  0  0  0  0  0
   -4.4835    0.9430    2.2599 C   0  0  0  0  0  0  0  0  0  0  0  0
   -4.9629    0.8417    3.7050 C   0  0  0  0  0  0  0  0  0  0  0  0
   -6.0266    1.9223    3.7887 C   0  0  0  0  0  0  0  0  0  0  0  0
   -6.7479    1.8505    2.4472 C   0  0  0  0  0  0  0  0  0  0  0  0
   -5.7821    1.1653    1.4781 C   0  0  0  0  0  0  0  0  0  0  0  0
   -1.1244   -1.0368   -1.7426 C   0  0  0  0  0  0  0  0  0  0  0  0
   -0.3365   -2.0919   -2.4881 C   0  0  0  0  0  0  0  0  0  0  0  0
   -0.5768   -3.4608   -2.2739 C   0  0  0  0  0  0  0  0  0  0  0  0
    0.1400   -4.4262   -2.9837 C   0  0  0  0  0  0  0  0  0  0  0  0
    1.0928   -4.0262   -3.9134 C   0  0  0  0  0  0  0  0  0  0  0  0
    1.7774   -4.9538   -4.5956 F   0  0  0  0  0  0  0  0  0  0  0  0
    1.3437   -2.6791   -4.1478 C   0  0  0  0  0  0  0  0  0  0  0  0
    0.6264   -1.7123   -3.4401 C   0  0  0  0  0  0  0  0  0  0  0  0
    6.5295    2.0020    1.7095 N   0  0  0  0  0  0  0  0  0  0  0  0
    7.6494    2.4982    1.0682 O   0  0  0  0  0  0  0  0  0  0  0  0
    8.6746    2.2771   -2.0164 H   0  0  0  0  0  0  0  0  0  0  0  0
    9.5253    2.8818   -0.5861 H   0  0  0  0  0  0  0  0  0  0  0  0
    8.3827    3.9310   -1.4462 H   0  0  0  0  0  0  0  0  0  0  0  0
    5.8005    1.6881   -1.5040 H   0  0  0  0  0  0  0  0  0  0  0  0
    4.2985    1.0216    2.0731 H   0  0  0  0  0  0  0  0  0  0  0  0
    1.8606    0.9382    1.5185 H   0  0  0  0  0  0  0  0  0  0  0  0
    2.5573   -0.6974    1.5123 H   0  0  0  0  0  0  0  0  0  0  0  0
    0.9740    0.5388   -0.7998 H   0  0  0  0  0  0  0  0  0  0  0  0
    1.6222   -1.1224   -0.7360 H   0  0  0  0  0  0  0  0  0  0  0  0
   -2.1402   -2.0803    1.3166 H   0  0  0  0  0  0  0  0  0  0  0  0
   -2.8958   -2.2938   -0.2641 H   0  0  0  0  0  0  0  0  0  0  0  0
   -3.1683   -0.6628    2.5757 H   0  0  0  0  0  0  0  0  0  0  0  0
   -3.8252    1.8124    2.1441 H   0  0  0  0  0  0  0  0  0  0  0  0
   -5.4048   -0.1427    3.9020 H   0  0  0  0  0  0  0  0  0  0  0  0
   -4.1542    0.9959    4.4264 H   0  0  0  0  0  0  0  0  0  0  0  0
   -6.7065    1.7756    4.6334 H   0  0  0  0  0  0  0  0  0  0  0  0
   -5.5543    2.9053    3.9040 H   0  0  0  0  0  0  0  0  0  0  0  0
   -7.6679    1.2607    2.5353 H   0  0  0  0  0  0  0  0  0  0  0  0
   -7.0322    2.8491    2.0985 H   0  0  0  0  0  0  0  0  0  0  0  0
   -6.2117    0.2142    1.1403 H   0  0  0  0  0  0  0  0  0  0  0  0
   -5.6152    1.7777    0.5854 H   0  0  0  0  0  0  0  0  0  0  0  0
   -2.1610   -1.0740   -2.0989 H   0  0  0  0  0  0  0  0  0  0  0  0
   -0.7531   -0.0329   -1.9761 H   0  0  0  0  0  0  0  0  0  0  0  0
   -1.3230   -3.7847   -1.5510 H   0  0  0  0  0  0  0  0  0  0  0  0
   -0.0421   -5.4842   -2.8202 H   0  0  0  0  0  0  0  0  0  0  0  0
    2.0938   -2.3884   -4.8788 H   0  0  0  0  0  0  0  0  0  0  0  0
    0.8337   -0.6596   -3.6317 H   0  0  0  0  0  0  0  0  0  0  0  0
  1  2  1  0
  2  3  2  0
  3  4  1  0
  4  5  1  0
  5  6  1  0
  6  7  2  0
  6  8  1  0
  8  9  1  0
  9 10  1  0
 10 11  2  0
 10 12  1  0
 12 13  1  0
 13 14  1  0
 14 15  2  0
 14 16  1  0
 16 17  1  0
 17 18  1  0
 18 19  1  0
 19 20  1  0
 20 21  1  0
 12 22  1  0
 22 23  1  0
 23 24  2  0
 24 25  1  0
 25 26  2  0
 26 27  1  0
 26 28  1  0
 28 29  2  0
  4 30  2  0
 30 31  1  0
 31  2  1  0
 21 17  1  0
 29 23  1  0
  1 32  1  0
  1 33  1  0
  1 34  1  0
  3 35  1  0
  5 36  1  0
  8 37  1  0
  8 38  1  0
  9 39  1  0
  9 40  1  0
 13 41  1  0
 13 42  1  0
 16 43  1  0
 17 44  1  0
 18 45  1  0
 18 46  1  0
 19 47  1  0
 19 48  1  0
 20 49  1  0
 20 50  1  0
 21 51  1  0
 21 52  1  0
 22 53  1  0
 22 54  1  0
 24 55  1  0
 25 56  1  0
 28 57  1  0
 29 58  1  0
M  END
$$$$
