
     RDKit          3D

 48 50  0  0  0  0  0  0  0  0999 V2000
    3.8773   -3.9650    1.5722 C   0  0  0  0  0  0  0  0  0  0  0  0
    3.8428   -2.7954    0.7663 O   0  0  0  0  0  0  0  0  0  0  0  0
    2.6368   -2.1608    0.6203 C   0  0  0  0  0  0  0  0  0  0  0  0
    1.4824   -2.4884    1.3465 C   0  0  0  0  0  0  0  0  0  0  0  0
    0.2888   -1.7933    1.1302 C   0  0  0  0  0  0  0  0  0  0  0  0
    0.2381   -0.7755    0.1751 C   0  0  0  0  0  0  0  0  0  0  0  0
   -1.0285   -0.0801   -0.1216 C   0  0  0  0  0  0  0  0  0  0  0  0
   -2.0180   -0.0814    0.7168 N   0  0  0  0  0  0  0  0  0  0  0  0
   -3.1700    0.5113    0.2651 N   0  0  0  0  0  0  0  0  0  0  0  0
   -3.8180    0.0815   -0.8978 C   0  0  0  0  0  0  0  0  0  0  0  0
   -3.2957   -0.6048   -1.7676 O   0  0  0  0  0  0  0  0  0  0  0  0
   -5.2492    0.5512   -0.9777 C   0  0  0  0  0  0  0  0  0  0  0  0
   -5.5846    1.4241    0.0251 N   0  0  0  0  0  0  0  0  0  0  0  0
   -6.8366    1.9313    0.0121 C   0  0  0  0  0  0  0  0  0  0  0  0
   -7.1069    3.0372    1.3040 Cl  0  0  0  0  0  0  0  0  0  0  0  0
   -7.8013    1.6033   -0.9312 C   0  0  0  0  0  0  0  0  0  0  0  0
   -9.3903    2.2919   -0.8895 Cl  0  0  0  0  0  0  0  0  0  0  0  0
   -7.4696    0.6580   -1.9242 C   0  0  0  0  0  0  0  0  0  0  0  0
   -8.3735    0.3899   -2.9923 N   0  0  0  0  0  0  0  0  0  0  0  0
   -6.1503    0.1433   -1.9685 C   0  0  0  0  0  0  0  0  0  0  0  0
   -5.7610   -0.9962   -3.2144 Cl  0  0  0  0  0  0  0  0  0  0  0  0
    1.3819   -0.4341   -0.5489 C   0  0  0  0  0  0  0  0  0  0  0  0
    2.5974   -1.1076   -0.3190 C   0  0  0  0  0  0  0  0  0  0  0  0
    3.8188   -0.6988   -1.1163 C   0  0  0  0  0  0  0  0  0  0  0  0
    4.0243    0.7166   -1.0872 O   0  0  0  0  0  0  0  0  0  0  0  0
    4.6465    1.2760   -0.0033 C   0  0  0  0  0  0  0  0  0  0  0  0
    5.1651    0.5848    1.0960 C   0  0  0  0  0  0  0  0  0  0  0  0
    5.7717    1.2863    2.1453 C   0  0  0  0  0  0  0  0  0  0  0  0
    5.8598    2.6733    2.0940 C   0  0  0  0  0  0  0  0  0  0  0  0
    6.4375    3.3328    3.1067 F   0  0  0  0  0  0  0  0  0  0  0  0
    5.3560    3.3792    1.0115 C   0  0  0  0  0  0  0  0  0  0  0  0
    4.7549    2.6745   -0.0276 C   0  0  0  0  0  0  0  0  0  0  0  0
    4.2679    3.3673   -1.0700 F   0  0  0  0  0  0  0  0  0  0  0  0
    3.6585   -3.7296    2.6176 H   0  0  0  0  0  0  0  0  0  0  0  0
    4.8928   -4.3703    1.5298 H   0  0  0  0  0  0  0  0  0  0  0  0
    3.1962   -4.7302    1.1863 H   0  0  0  0  0  0  0  0  0  0  0  0
    1.4724   -3.2864    2.0853 H   0  0  0  0  0  0  0  0  0  0  0  0
   -0.6025   -2.0676    1.6870 H   0  0  0  0  0  0  0  0  0  0  0  0
   -1.0834    0.4519   -1.0931 H   0  0  0  0  0  0  0  0  0  0  0  0
   -3.7866    0.8579    0.9995 H   0  0  0  0  0  0  0  0  0  0  0  0
   -8.2070   -0.4967   -3.4719 H   0  0  0  0  0  0  0  0  0  0  0  0
   -9.3540    0.5510   -2.7696 H   0  0  0  0  0  0  0  0  0  0  0  0
    1.3433    0.3663   -1.2863 H   0  0  0  0  0  0  0  0  0  0  0  0
    3.6284   -0.9653   -2.1652 H   0  0  0  0  0  0  0  0  0  0  0  0
    4.7360   -1.2333   -0.8468 H   0  0  0  0  0  0  0  0  0  0  0  0
    5.1140   -0.4955    1.1768 H   0  0  0  0  0  0  0  0  0  0  0  0
    6.1725    0.7555    3.0050 H   0  0  0  0  0  0  0  0  0  0  0  0
    5.4250    4.4601    0.9747 H   0  0  0  0  0  0  0  0  0  0  0  0
  1  2  1  0
  2  3  1  0
  3  4  2  0
  4  5  1  0
  5  6  2  0
  6  7  1  0
  7  8  2  3
  8  9  1  0
  9 10  1  0
 10 11  2  0
 10 12  1  0
 12 13  2  0
 13 14  1  0
 14 15  1  0
 14 16  2  0
 16 17  1  0
 16 18  1  0
 18 19  1  0
 18 20  2  0
 20 21  1  0
  6 22  1  0
 22 23  2  0
 23 24  1  0
 24 25  1  0
 25 26  1  0
 26 27  2  0
 27 28  1  0
 28 29  2  0
 29 30  1  0
 29 31  1  0
 31 32  2  0
 32 33  1  0
 23  3  1  0
 32 26  1  0
 20 12  1  0
  1 34  1  0
  1 35  1  0
  1 36  1  0
  4 37  1  0
  5 38  1  0
  7 39  1  0
  9 40  1  0
 19 41  1  0
 19 42  1  0
 22 43  1  0
 24 44  1  0
 24 45  1  0
 27 46  1  0
 28 47  1  0
 31 48  1  0
M  END
$$$$
