
     RDKit          3D

 53 55  0  0  0  0  0  0  0  0999 V2000
   -6.2239   -3.2582   -3.7361 C   0  0  0  0  0  0  0  0  0  0  0  0
   -6.8424   -2.8294   -2.5303 O   0  0  0  0  0  0  0  0  0  0  0  0
   -6.0763   -2.1149   -1.6519 C   0  0  0  0  0  0  0  0  0  0  0  0
   -4.7101   -1.8491   -1.7755 C   0  0  0  0  0  0  0  0  0  0  0  0
   -4.0365   -1.0965   -0.7997 C   0  0  0  0  0  0  0  0  0  0  0  0
   -2.6594   -0.8515   -1.0165 N   0  0  0  0  0  0  0  0  0  0  0  0
   -1.7897   -0.1382   -0.2056 C   0  0  0  0  0  0  0  0  0  0  0  0
   -2.0434    0.3353    0.8979 O   0  0  0  0  0  0  0  0  0  0  0  0
   -0.3965   -0.0346   -0.8060 C   0  0  0  0  0  0  0  0  0  0  0  0
    0.3445    1.1996   -0.3009 C   0  0  0  0  0  0  0  0  0  0  0  0
    0.7065    1.0398    1.1185 N   0  0  0  0  0  0  0  0  0  0  0  0
    1.7042    2.2156    1.8025 S   0  0  0  0  0  6  0  0  0  0  0  0
    1.3991    2.2502    3.2168 O   0  0  0  0  0  0  0  0  0  0  0  0
    1.6535    3.4037    0.9757 O   0  0  0  0  0  0  0  0  0  0  0  0
    3.3078    1.4706    1.6245 C   0  0  0  0  0  0  0  0  0  0  0  0
    3.7392    0.5370    2.5729 C   0  0  0  0  0  0  0  0  0  0  0  0
    5.0140   -0.0214    2.4620 C   0  0  0  0  0  0  0  0  0  0  0  0
    5.8533    0.3741    1.4196 C   0  0  0  0  0  0  0  0  0  0  0  0
    5.4245    1.3085    0.4672 C   0  0  0  0  0  0  0  0  0  0  0  0
    4.1417    1.8588    0.5708 C   0  0  0  0  0  0  0  0  0  0  0  0
    6.3171    1.6247   -0.7018 C   0  0  0  0  0  0  0  0  0  0  0  0
    7.7834    1.5338   -0.3117 C   0  0  0  0  0  0  0  0  0  0  0  0
    8.0899    0.2560    0.4379 C   0  0  0  0  0  0  0  0  0  0  0  0
    9.1738   -0.3158    0.3495 O   0  0  0  0  0  0  0  0  0  0  0  0
    7.1310   -0.1823    1.3127 N   0  0  0  0  0  0  0  0  0  0  0  0
   -4.7468   -0.6206    0.3064 C   0  0  0  0  0  0  0  0  0  0  0  0
   -6.1109   -0.8921    0.4429 C   0  0  0  0  0  0  0  0  0  0  0  0
   -6.9110   -0.4720    1.4700 O   0  0  0  0  0  0  0  0  0  0  0  0
   -6.2503    0.0083    2.6374 C   0  0  0  0  0  0  0  0  0  0  0  0
   -6.7664   -1.6310   -0.5418 C   0  0  0  0  0  0  0  0  0  0  0  0
   -6.9763   -3.7887   -4.3279 H   0  0  0  0  0  0  0  0  0  0  0  0
   -5.4084   -3.9606   -3.5354 H   0  0  0  0  0  0  0  0  0  0  0  0
   -5.8781   -2.4082   -4.3325 H   0  0  0  0  0  0  0  0  0  0  0  0
   -4.1570   -2.2206   -2.6296 H   0  0  0  0  0  0  0  0  0  0  0  0
   -2.2738   -1.2430   -1.8667 H   0  0  0  0  0  0  0  0  0  0  0  0
   -0.4776    0.0256   -1.8968 H   0  0  0  0  0  0  0  0  0  0  0  0
    0.1501   -0.9499   -0.5522 H   0  0  0  0  0  0  0  0  0  0  0  0
   -0.2889    2.0873   -0.4148 H   0  0  0  0  0  0  0  0  0  0  0  0
    1.2541    1.3326   -0.8960 H   0  0  0  0  0  0  0  0  0  0  0  0
   -0.0907    0.8442    1.7400 H   0  0  0  0  0  0  0  0  0  0  0  0
    3.0910    0.2475    3.3968 H   0  0  0  0  0  0  0  0  0  0  0  0
    5.3443   -0.7455    3.2025 H   0  0  0  0  0  0  0  0  0  0  0  0
    3.7957    2.5831   -0.1643 H   0  0  0  0  0  0  0  0  0  0  0  0
    6.0971    0.9067   -1.5035 H   0  0  0  0  0  0  0  0  0  0  0  0
    6.1077    2.6307   -1.0866 H   0  0  0  0  0  0  0  0  0  0  0  0
    8.4078    1.5791   -1.2106 H   0  0  0  0  0  0  0  0  0  0  0  0
    8.0638    2.3712    0.3411 H   0  0  0  0  0  0  0  0  0  0  0  0
    7.4032   -0.9529    1.9099 H   0  0  0  0  0  0  0  0  0  0  0  0
   -4.2466   -0.0244    1.0572 H   0  0  0  0  0  0  0  0  0  0  0  0
   -7.0126    0.1861    3.4023 H   0  0  0  0  0  0  0  0  0  0  0  0
   -5.7444    0.9620    2.4456 H   0  0  0  0  0  0  0  0  0  0  0  0
   -5.5494   -0.7366    3.0325 H   0  0  0  0  0  0  0  0  0  0  0  0
   -7.8309   -1.8339   -0.4390 H   0  0  0  0  0  0  0  0  0  0  0  0
  1  2  1  0
  2  3  1  0
  3  4  2  0
  4  5  1  0
  5  6  1  0
  6  7  1  0
  7  8  2  0
  7  9  1  0
  9 10  1  0
 10 11  1  0
 11 12  1  0
 12 13  2  0
 12 14  2  0
 12 15  1  0
 15 16  2  0
 16 17  1  0
 17 18  2  0
 18 19  1  0
 19 20  2  0
 19 21  1  0
 21 22  1  0
 22 23  1  0
 23 24  2  0
 23 25  1  0
  5 26  2  0
 26 27  1  0
 27 28  1  0
 28 29  1  0
 27 30  2  0
 30  3  1  0
 20 15  1  0
 25 18  1  0
  1 31  1  0
  1 32  1  0
  1 33  1  0
  4 34  1  0
  6 35  1  0
  9 36  1  0
  9 37  1  0
 10 38  1  0
 10 39  1  0
 11 40  1  0
 16 41  1  0
 17 42  1  0
 20 43  1  0
 21 44  1  0
 21 45  1  0
 22 46  1  0
 22 47  1  0
 25 48  1  0
 26 49  1  0
 29 50  1  0
 29 51  1  0
 29 52  1  0
 30 53  1  0
M  END
$$$$
