
     RDKit          3D

 36 37  0  0  0  0  0  0  0  0999 V2000
   -0.0220   -0.5711    2.6225 O   0  0  0  0  0  0  0  0  0  0  0  0
    0.4472    0.4784    2.1842 C   0  0  0  0  0  0  0  0  0  0  0  0
   -0.4303    1.6769    1.8092 C   0  0  0  0  0  0  0  0  0  0  0  0
   -1.6851    1.2971    1.2433 O   0  0  0  0  0  0  0  0  0  0  0  0
   -1.5970    0.5271    0.1330 C   0  0  0  0  0  0  0  0  0  0  0  0
   -0.5829    0.1523   -0.4368 O   0  0  0  0  0  0  0  0  0  0  0  0
   -2.9463    0.0934   -0.2595 C   0  0  0  0  0  0  0  0  0  0  0  0
   -3.1821   -1.2877   -0.2975 C   0  0  0  0  0  0  0  0  0  0  0  0
   -4.4342   -1.7593   -0.6715 C   0  0  0  0  0  0  0  0  0  0  0  0
   -4.7330   -3.4507   -0.7166 Cl  0  0  0  0  0  0  0  0  0  0  0  0
   -5.4462   -0.8693   -1.0288 C   0  0  0  0  0  0  0  0  0  0  0  0
   -5.2021    0.5076   -1.0112 C   0  0  0  0  0  0  0  0  0  0  0  0
   -3.9501    0.9950   -0.6216 C   0  0  0  0  0  0  0  0  0  0  0  0
   -3.7014    2.7016   -0.6701 Cl  0  0  0  0  0  0  0  0  0  0  0  0
    1.7940    0.6533    1.9348 N   0  0  0  0  0  0  0  0  0  0  0  0
    2.6867   -0.4957    1.9363 C   0  0  0  0  0  0  0  0  0  0  0  0
    2.6435   -1.2478    0.5974 C   0  0  0  0  0  0  0  0  0  0  0  0
    3.4267   -0.5871   -0.4365 N   0  0  0  0  0  0  0  0  0  0  0  0
    3.0289    0.4911   -1.1937 C   0  0  0  0  0  0  0  0  0  0  0  0
    1.7826    1.0304   -1.1091 O   0  0  0  0  0  0  0  0  0  0  0  0
    3.9835    0.9990   -1.9825 C   0  0  0  0  0  0  0  0  0  0  0  0
    5.4771    0.1339   -1.8226 S   0  0  0  0  0  0  0  0  0  0  0  0
    4.7673   -0.9355   -0.6014 C   0  0  0  0  0  0  0  0  0  0  0  0
    5.3949   -1.7931   -0.0032 O   0  0  0  0  0  0  0  0  0  0  0  0
   -0.6410    2.2245    2.7332 H   0  0  0  0  0  0  0  0  0  0  0  0
    0.0866    2.3603    1.1273 H   0  0  0  0  0  0  0  0  0  0  0  0
   -2.3916   -1.9874   -0.0326 H   0  0  0  0  0  0  0  0  0  0  0  0
   -6.4243   -1.2381   -1.3309 H   0  0  0  0  0  0  0  0  0  0  0  0
   -5.9902    1.1916   -1.3125 H   0  0  0  0  0  0  0  0  0  0  0  0
    2.0857    1.4538    1.3815 H   0  0  0  0  0  0  0  0  0  0  0  0
    2.3840   -1.1747    2.7428 H   0  0  0  0  0  0  0  0  0  0  0  0
    3.6945   -0.1303    2.1556 H   0  0  0  0  0  0  0  0  0  0  0  0
    3.0695   -2.2462    0.7572 H   0  0  0  0  0  0  0  0  0  0  0  0
    1.6196   -1.3976    0.2396 H   0  0  0  0  0  0  0  0  0  0  0  0
    1.1280    0.3554   -0.8311 H   0  0  0  0  0  0  0  0  0  0  0  0
    3.8593    1.8488   -2.6374 H   0  0  0  0  0  0  0  0  0  0  0  0
  1  2  2  0
  2  3  1  0
  3  4  1  0
  4  5  1  0
  5  6  2  0
  5  7  1  0
  7  8  2  0
  8  9  1  0
  9 10  1  0
  9 11  2  0
 11 12  1  0
 12 13  2  0
 13 14  1  0
  2 15  1  0
 15 16  1  0
 16 17  1  0
 17 18  1  0
 18 19  1  0
 19 20  1  0
 19 21  2  0
 21 22  1  0
 22 23  1  0
 23 24  2  0
 13  7  1  0
 23 18  1  0
  3 25  1  0
  3 26  1  0
  8 27  1  0
 11 28  1  0
 12 29  1  0
 15 30  1  0
 16 31  1  0
 16 32  1  0
 17 33  1  0
 17 34  1  0
 20 35  1  0
 21 36  1  0
M  END
$$$$
