
     RDKit          3D

 59 61  0  0  0  0  0  0  0  0999 V2000
   -4.8055   -3.3486   -1.8104 C   0  0  0  0  0  0  0  0  0  0  0  0
   -5.0836   -2.0934   -1.4244 C   0  0  0  0  0  0  0  0  0  0  0  0
   -4.5540   -0.7784   -2.0159 C   0  0  0  0  0  0  0  0  0  0  0  0
   -5.8414   -0.0447   -2.4865 C   0  0  0  0  0  0  0  0  0  0  0  0
   -3.6414   -0.9967   -3.2525 C   0  0  0  0  0  0  0  0  0  0  0  0
   -3.7316    0.0159   -0.9697 C   0  0  0  0  0  0  0  0  0  0  0  0
   -3.0574   -0.6727    0.0663 C   0  0  0  0  0  0  0  0  0  0  0  0
   -2.3095   -0.0231    1.0816 C   0  0  0  0  0  0  0  0  0  0  0  0
   -1.7024   -0.9026    2.1728 C   0  0  2  0  0  0  0  0  0  0  0  0
   -1.3683   -0.3279    3.5450 C   0  0  0  0  0  0  0  0  0  0  0  0
   -0.0270    0.3442    3.5587 C   0  0  0  0  0  0  0  0  0  0  0  0
    0.2933    1.1641    4.4224 O   0  0  0  0  0  0  0  0  0  0  0  0
    0.9589   -0.0758    2.5437 C   0  0  0  0  0  0  0  0  0  0  0  0
    0.6069   -1.0921    1.6628 C   0  0  0  0  0  0  0  0  0  0  0  0
    1.5538   -1.5813    0.7676 C   0  0  0  0  0  0  0  0  0  0  0  0
    2.8393   -1.0314    0.7328 C   0  0  0  0  0  0  0  0  0  0  0  0
    3.6896   -1.6071   -0.1679 O   0  0  0  0  0  0  0  0  0  0  0  0
    3.2129    0.0252    1.5791 C   0  0  0  0  0  0  0  0  0  0  0  0
    4.6106    0.6294    1.5697 C   0  0  0  0  0  0  0  0  0  0  0  0
    5.0169    1.1898    0.2218 C   0  0  0  0  0  0  0  0  0  0  0  0
    6.1771    1.0030   -0.4419 C   0  0  0  0  0  0  0  0  0  0  0  0
    7.3430    0.1811    0.0529 C   0  0  0  0  0  0  0  0  0  0  0  0
    6.3890    1.6493   -1.7941 C   0  0  0  0  0  0  0  0  0  0  0  0
    2.2480    0.4836    2.4988 C   0  0  0  0  0  0  0  0  0  0  0  0
    2.6092    1.4889    3.3621 O   0  0  0  0  0  0  0  0  0  0  0  0
   -0.6191   -1.6946    1.6376 O   0  0  0  0  0  0  0  0  0  0  0  0
   -2.1923    1.3603    0.9930 C   0  0  0  0  0  0  0  0  0  0  0  0
   -1.4674    2.0383    1.9156 O   0  0  0  0  0  0  0  0  0  0  0  0
   -2.7946    2.0716   -0.0490 C   0  0  0  0  0  0  0  0  0  0  0  0
   -3.5499    1.4035   -1.0153 C   0  0  0  0  0  0  0  0  0  0  0  0
   -4.0925    2.1371   -2.0316 O   0  0  0  0  0  0  0  0  0  0  0  0
   -4.1334   -3.5759   -2.6270 H   0  0  0  0  0  0  0  0  0  0  0  0
   -5.2460   -4.1934   -1.2968 H   0  0  0  0  0  0  0  0  0  0  0  0
   -5.7723   -1.9660   -0.5861 H   0  0  0  0  0  0  0  0  0  0  0  0
   -6.3967    0.3772   -1.6364 H   0  0  0  0  0  0  0  0  0  0  0  0
   -6.5156   -0.7241   -3.0219 H   0  0  0  0  0  0  0  0  0  0  0  0
   -5.6363    0.7661   -3.1868 H   0  0  0  0  0  0  0  0  0  0  0  0
   -3.3342   -0.0412   -3.7008 H   0  0  0  0  0  0  0  0  0  0  0  0
   -2.7164   -1.5368   -2.9838 H   0  0  0  0  0  0  0  0  0  0  0  0
   -4.1630   -1.5641   -4.0369 H   0  0  0  0  0  0  0  0  0  0  0  0
   -3.1081   -1.7624    0.0995 H   0  0  0  0  0  0  0  0  0  0  0  0
   -2.4919   -1.6381    2.3912 H   0  0  0  0  0  0  0  0  0  0  0  0
   -2.1411    0.3642    3.8877 H   0  0  0  0  0  0  0  0  0  0  0  0
   -1.2930   -1.1452    4.2698 H   0  0  0  0  0  0  0  0  0  0  0  0
    1.2988   -2.3952    0.0971 H   0  0  0  0  0  0  0  0  0  0  0  0
    4.5867   -1.2352   -0.0636 H   0  0  0  0  0  0  0  0  0  0  0  0
    4.6780    1.4588    2.2731 H   0  0  0  0  0  0  0  0  0  0  0  0
    5.2963   -0.1308    1.9472 H   0  0  0  0  0  0  0  0  0  0  0  0
    4.2550    1.8278   -0.2357 H   0  0  0  0  0  0  0  0  0  0  0  0
    7.6267   -0.5683   -0.6956 H   0  0  0  0  0  0  0  0  0  0  0  0
    7.1197   -0.3562    0.9755 H   0  0  0  0  0  0  0  0  0  0  0  0
    8.2126    0.8285    0.2461 H   0  0  0  0  0  0  0  0  0  0  0  0
    5.4935    2.1705   -2.1493 H   0  0  0  0  0  0  0  0  0  0  0  0
    7.2032    2.3758   -1.7471 H   0  0  0  0  0  0  0  0  0  0  0  0
    6.6441    0.8904   -2.5442 H   0  0  0  0  0  0  0  0  0  0  0  0
    1.8585    1.6487    3.9871 H   0  0  0  0  0  0  0  0  0  0  0  0
   -1.5300    2.9939    1.7466 H   0  0  0  0  0  0  0  0  0  0  0  0
   -2.6744    3.1474   -0.1098 H   0  0  0  0  0  0  0  0  0  0  0  0
   -3.8316    3.0689   -1.9425 H   0  0  0  0  0  0  0  0  0  0  0  0
  1  2  2  0
  2  3  1  0
  3  4  1  0
  3  5  1  0
  3  6  1  0
  6  7  2  0
  7  8  1  0
  8  9  1  0
  9 10  1  0
 10 11  1  0
 11 12  2  0
 11 13  1  0
 13 14  2  0
 14 15  1  0
 15 16  2  0
 16 17  1  0
 16 18  1  0
 18 19  1  0
 19 20  1  0
 20 21  2  3
 21 22  1  0
 21 23  1  0
 18 24  2  0
 24 25  1  0
 14 26  1  0
  8 27  2  0
 27 28  1  0
 27 29  1  0
 29 30  2  0
 30 31  1  0
 30  6  1  0
 26  9  1  0
 24 13  1  0
  1 32  1  0
  1 33  1  0
  2 34  1  0
  4 35  1  0
  4 36  1  0
  4 37  1  0
  5 38  1  0
  5 39  1  0
  5 40  1  0
  7 41  1  0
  9 42  1  1
 10 43  1  0
 10 44  1  0
 15 45  1  0
 17 46  1  0
 19 47  1  0
 19 48  1  0
 20 49  1  0
 22 50  1  0
 22 51  1  0
 22 52  1  0
 23 53  1  0
 23 54  1  0
 23 55  1  0
 25 56  1  0
 28 57  1  0
 29 58  1  0
 31 59  1  0
M  END
$$$$
