
     RDKit          3D

 53 56  0  0  0  0  0  0  0  0999 V2000
    5.9725    3.4856   -0.1559 C   0  0  0  0  0  0  0  0  0  0  0  0
    5.6965    2.4947    0.8258 O   0  0  0  0  0  0  0  0  0  0  0  0
    4.9321    1.4338    0.4276 C   0  0  0  0  0  0  0  0  0  0  0  0
    4.8345    0.3990    1.3589 C   0  0  0  0  0  0  0  0  0  0  0  0
    4.0783   -0.7474    1.0861 C   0  0  0  0  0  0  0  0  0  0  0  0
    3.4033   -0.8682   -0.1260 C   0  0  0  0  0  0  0  0  0  0  0  0
    2.6043   -1.9708   -0.4846 N   0  0  0  0  0  0  0  0  0  0  0  0
    2.2691   -3.0679    0.2918 C   0  0  0  0  0  0  0  0  0  0  0  0
    2.6540   -3.2901    1.4372 O   0  0  0  0  0  0  0  0  0  0  0  0
    1.3166   -4.0289   -0.4092 C   0  0  0  0  0  0  0  0  0  0  0  0
   -0.4132   -3.5480   -0.1109 S   0  0  0  0  0  0  0  0  0  0  0  0
   -0.4861   -2.0620   -1.0072 C   0  0  0  0  0  0  0  0  0  0  0  0
    0.2356   -1.8368   -2.0828 N   0  0  0  0  0  0  0  0  0  0  0  0
    0.1257   -0.5138   -2.3908 N   0  0  0  0  0  0  0  0  0  0  0  0
   -0.6878    0.0523   -1.5155 C   0  0  0  0  0  0  0  0  0  0  0  0
   -1.1817    1.4601   -1.6278 C   0  0  0  0  0  0  0  0  0  0  0  0
   -2.6397    1.5449   -1.9854 C   0  0  0  0  0  0  0  0  0  0  0  0
   -3.2984    0.9602   -3.0513 C   0  0  0  0  0  0  0  0  0  0  0  0
   -4.6899    1.2651   -3.0626 C   0  0  0  0  0  0  0  0  0  0  0  0
   -5.0470    2.0832   -2.0151 C   0  0  0  0  0  0  0  0  0  0  0  0
   -3.7087    2.4892   -1.0340 S   0  0  0  0  0  0  0  0  0  0  0  0
   -1.1016   -0.8966   -0.5828 N   0  0  0  0  0  0  0  0  0  0  0  0
   -1.9467   -0.7067    0.5391 C   0  0  0  0  0  0  0  0  0  0  0  0
   -1.7605    0.3923    1.3838 C   0  0  0  0  0  0  0  0  0  0  0  0
   -2.6044    0.5781    2.4821 C   0  0  0  0  0  0  0  0  0  0  0  0
   -3.6311   -0.3334    2.7548 C   0  0  0  0  0  0  0  0  0  0  0  0
   -4.5576   -0.1070    3.9129 C   0  0  0  0  0  0  0  0  0  0  0  0
   -3.8135   -1.4278    1.9030 C   0  0  0  0  0  0  0  0  0  0  0  0
   -2.9719   -1.6213    0.8047 C   0  0  0  0  0  0  0  0  0  0  0  0
    3.5024    0.1711   -1.0598 C   0  0  0  0  0  0  0  0  0  0  0  0
    4.2619    1.3157   -0.7878 C   0  0  0  0  0  0  0  0  0  0  0  0
    6.6376    4.2275    0.2957 H   0  0  0  0  0  0  0  0  0  0  0  0
    6.4907    3.0507   -1.0176 H   0  0  0  0  0  0  0  0  0  0  0  0
    5.0581    4.0028   -0.4629 H   0  0  0  0  0  0  0  0  0  0  0  0
    5.3485    0.4853    2.3146 H   0  0  0  0  0  0  0  0  0  0  0  0
    4.0361   -1.5215    1.8457 H   0  0  0  0  0  0  0  0  0  0  0  0
    2.1231   -1.8863   -1.3805 H   0  0  0  0  0  0  0  0  0  0  0  0
    1.4785   -5.0308    0.0024 H   0  0  0  0  0  0  0  0  0  0  0  0
    1.5342   -4.0847   -1.4807 H   0  0  0  0  0  0  0  0  0  0  0  0
   -0.9433    2.0283   -0.7250 H   0  0  0  0  0  0  0  0  0  0  0  0
   -0.6185    1.9563   -2.4302 H   0  0  0  0  0  0  0  0  0  0  0  0
   -2.8048    0.3336   -3.7870 H   0  0  0  0  0  0  0  0  0  0  0  0
   -5.3927    0.9041   -3.8039 H   0  0  0  0  0  0  0  0  0  0  0  0
   -6.0296    2.4699   -1.7810 H   0  0  0  0  0  0  0  0  0  0  0  0
   -0.9422    1.0937    1.2441 H   0  0  0  0  0  0  0  0  0  0  0  0
   -2.4485    1.4364    3.1325 H   0  0  0  0  0  0  0  0  0  0  0  0
   -5.3844    0.5429    3.6086 H   0  0  0  0  0  0  0  0  0  0  0  0
   -4.0281    0.3594    4.7503 H   0  0  0  0  0  0  0  0  0  0  0  0
   -4.9701   -1.0534    4.2778 H   0  0  0  0  0  0  0  0  0  0  0  0
   -4.6173   -2.1381    2.0868 H   0  0  0  0  0  0  0  0  0  0  0  0
   -3.1642   -2.4707    0.1529 H   0  0  0  0  0  0  0  0  0  0  0  0
    2.9872    0.1036   -2.0165 H   0  0  0  0  0  0  0  0  0  0  0  0
    4.3026    2.0920   -1.5436 H   0  0  0  0  0  0  0  0  0  0  0  0
  1  2  1  0
  2  3  1  0
  3  4  2  0
  4  5  1  0
  5  6  2  0
  6  7  1  0
  7  8  1  0
  8  9  2  0
  8 10  1  0
 10 11  1  0
 11 12  1  0
 12 13  2  0
 13 14  1  0
 14 15  2  0
 15 16  1  0
 16 17  1  0
 17 18  2  0
 18 19  1  0
 19 20  2  0
 20 21  1  0
 15 22  1  0
 22 23  1  0
 23 24  2  0
 24 25  1  0
 25 26  2  0
 26 27  1  0
 26 28  1  0
 28 29  2  0
  6 30  1  0
 30 31  2  0
 31  3  1  0
 22 12  1  0
 29 23  1  0
 21 17  1  0
  1 32  1  0
  1 33  1  0
  1 34  1  0
  4 35  1  0
  5 36  1  0
  7 37  1  0
 10 38  1  0
 10 39  1  0
 16 40  1  0
 16 41  1  0
 18 42  1  0
 19 43  1  0
 20 44  1  0
 24 45  1  0
 25 46  1  0
 27 47  1  0
 27 48  1  0
 27 49  1  0
 28 50  1  0
 29 51  1  0
 30 52  1  0
 31 53  1  0
M  END
$$$$
