
     RDKit          3D

 39 40  0  0  0  0  0  0  0  0999 V2000
    6.3105   -2.7547    1.0585 C   0  0  0  0  0  0  0  0  0  0  0  0
    5.0882   -1.9320    1.3434 C   0  0  0  0  0  0  0  0  0  0  0  0
    4.9990   -1.1804    2.5209 C   0  0  0  0  0  0  0  0  0  0  0  0
    3.8745   -0.3897    2.7721 C   0  0  0  0  0  0  0  0  0  0  0  0
    2.8284   -0.3324    1.8428 C   0  0  0  0  0  0  0  0  0  0  0  0
    1.6540    0.5246    2.1581 C   0  0  0  0  0  0  0  0  0  0  0  0
    1.5451    1.1843    3.1798 O   0  0  0  0  0  0  0  0  0  0  0  0
    0.7379    0.4672    1.1631 O   0  0  0  0  0  0  0  0  0  0  0  0
   -0.4179    1.2659    1.3998 C   0  0  0  0  0  0  0  0  0  0  0  0
   -1.3885    1.1598    0.2266 C   0  0  0  0  0  0  0  0  0  0  0  0
   -1.1842    0.4909   -0.7859 O   0  0  0  0  0  0  0  0  0  0  0  0
   -2.5593    1.8773    0.3968 N   0  0  0  0  0  0  0  0  0  0  0  0
   -3.5119    1.9878   -0.6947 C   0  0  0  0  0  0  0  0  0  0  0  0
   -4.1939    0.6545   -1.0410 C   0  0  0  0  0  0  0  0  0  0  0  0
   -4.3746    0.4973   -2.4691 N   0  0  0  0  0  0  0  0  0  0  0  0
   -3.5089   -0.1596   -3.3114 C   0  0  0  0  0  0  0  0  0  0  0  0
   -2.3544   -0.7304   -2.8654 O   0  0  0  0  0  0  0  0  0  0  0  0
   -3.8968   -0.1883   -4.5898 C   0  0  0  0  0  0  0  0  0  0  0  0
   -5.3939    0.6589   -4.8222 S   0  0  0  0  0  0  0  0  0  0  0  0
   -5.4750    1.0620   -3.0998 C   0  0  0  0  0  0  0  0  0  0  0  0
   -6.3579    1.7375   -2.5957 O   0  0  0  0  0  0  0  0  0  0  0  0
    2.9218   -1.0719    0.6569 C   0  0  0  0  0  0  0  0  0  0  0  0
    4.0481   -1.8620    0.4086 C   0  0  0  0  0  0  0  0  0  0  0  0
    6.7556   -3.1273    1.9871 H   0  0  0  0  0  0  0  0  0  0  0  0
    7.0525   -2.1505    0.5276 H   0  0  0  0  0  0  0  0  0  0  0  0
    6.0598   -3.6272    0.4460 H   0  0  0  0  0  0  0  0  0  0  0  0
    5.8045   -1.2060    3.2520 H   0  0  0  0  0  0  0  0  0  0  0  0
    3.8210    0.1832    3.6959 H   0  0  0  0  0  0  0  0  0  0  0  0
   -0.1294    2.3182    1.5056 H   0  0  0  0  0  0  0  0  0  0  0  0
   -0.9337    0.9157    2.3013 H   0  0  0  0  0  0  0  0  0  0  0  0
   -2.6152    2.5525    1.1511 H   0  0  0  0  0  0  0  0  0  0  0  0
   -2.9673    2.3915   -1.5568 H   0  0  0  0  0  0  0  0  0  0  0  0
   -4.2628    2.7293   -0.4015 H   0  0  0  0  0  0  0  0  0  0  0  0
   -5.1813    0.6362   -0.5618 H   0  0  0  0  0  0  0  0  0  0  0  0
   -3.6600   -0.2172   -0.6474 H   0  0  0  0  0  0  0  0  0  0  0  0
   -2.0182   -0.2367   -2.0859 H   0  0  0  0  0  0  0  0  0  0  0  0
   -3.3508   -0.6610   -5.3936 H   0  0  0  0  0  0  0  0  0  0  0  0
    2.1284   -1.0430   -0.0868 H   0  0  0  0  0  0  0  0  0  0  0  0
    4.1069   -2.4244   -0.5214 H   0  0  0  0  0  0  0  0  0  0  0  0
  1  2  1  0
  2  3  2  0
  3  4  1  0
  4  5  2  0
  5  6  1  0
  6  7  2  0
  6  8  1  0
  8  9  1  0
  9 10  1  0
 10 11  2  0
 10 12  1  0
 12 13  1  0
 13 14  1  0
 14 15  1  0
 15 16  1  0
 16 17  1  0
 16 18  2  0
 18 19  1  0
 19 20  1  0
 20 21  2  0
  5 22  1  0
 22 23  2  0
 23  2  1  0
 20 15  1  0
  1 24  1  0
  1 25  1  0
  1 26  1  0
  3 27  1  0
  4 28  1  0
  9 29  1  0
  9 30  1  0
 12 31  1  0
 13 32  1  0
 13 33  1  0
 14 34  1  0
 14 35  1  0
 17 36  1  0
 18 37  1  0
 22 38  1  0
 23 39  1  0
M  END
$$$$
