
     RDKit          3D

 61 65  0  0  0  0  0  0  0  0999 V2000
    1.5933   -3.5862    3.7011 C   0  0  0  0  0  0  0  0  0  0  0  0
    2.3485   -2.5679    2.8995 C   0  0  0  0  0  0  0  0  0  0  0  0
    3.4848   -1.9516    3.4186 C   0  0  0  0  0  0  0  0  0  0  0  0
    4.1667   -0.9879    2.6688 C   0  0  0  0  0  0  0  0  0  0  0  0
    3.7409   -0.6005    1.4062 C   0  0  0  0  0  0  0  0  0  0  0  0
    4.4461    0.3340    0.7434 N   0  0  0  0  0  0  0  0  0  0  0  0
    4.0675    0.7162   -0.5035 C   0  0  0  0  0  0  0  0  0  0  0  0
    4.9266    1.7261   -1.1549 C   0  0  0  0  0  0  0  0  0  0  0  0
    5.5638    2.7231   -0.3941 C   0  0  0  0  0  0  0  0  0  0  0  0
    6.3708    3.6952   -0.9937 C   0  0  0  0  0  0  0  0  0  0  0  0
    6.5630    3.6876   -2.3719 C   0  0  0  0  0  0  0  0  0  0  0  0
    5.9557    2.7054   -3.1477 C   0  0  0  0  0  0  0  0  0  0  0  0
    5.1478    1.7348   -2.5449 C   0  0  0  0  0  0  0  0  0  0  0  0
    2.9318    0.1997   -1.1019 C   0  0  0  0  0  0  0  0  0  0  0  0
    2.1886   -0.7414   -0.3936 C   0  0  0  0  0  0  0  0  0  0  0  0
    0.9712   -1.2560   -1.0411 C   0  0  0  0  0  0  0  0  0  0  0  0
    1.0970   -2.1714   -1.8480 O   0  0  0  0  0  0  0  0  0  0  0  0
   -0.2460   -0.6730   -0.7149 N   0  0  0  0  0  0  0  0  0  0  0  0
   -1.4591   -1.2151   -1.3303 C   0  0  0  0  0  0  0  0  0  0  0  0
   -2.6015   -0.1955   -1.3717 C   0  0  0  0  0  0  0  0  0  0  0  0
   -2.9430    0.3403   -0.0114 N   0  0  0  0  0  0  0  0  0  0  0  0
   -4.3422   -0.3251    0.6970 S   0  0  0  0  0  6  0  0  0  0  0  0
   -4.5617    0.3338    1.9647 O   0  0  0  0  0  0  0  0  0  0  0  0
   -4.2439   -1.7637    0.5882 O   0  0  0  0  0  0  0  0  0  0  0  0
   -5.6898    0.1185   -0.2425 C   0  0  0  0  0  0  0  0  0  0  0  0
   -6.0246    1.4229   -0.6626 C   0  0  0  0  0  0  0  0  0  0  0  0
   -5.3296    2.7037   -0.3926 C   0  0  0  0  0  0  0  0  0  0  0  0
   -7.1330    1.4077   -1.4167 N   0  0  0  0  0  0  0  0  0  0  0  0
   -7.5432    0.0864   -1.4640 O   0  0  0  0  0  0  0  0  0  0  0  0
   -6.6776   -0.6869   -0.7523 C   0  0  0  0  0  0  0  0  0  0  0  0
   -6.9806   -2.1288   -0.6963 C   0  0  0  0  0  0  0  0  0  0  0  0
   -1.7788    0.3783    0.9354 C   0  0  0  0  0  0  0  0  0  0  0  0
   -0.4347    0.4599    0.2026 C   0  0  0  0  0  0  0  0  0  0  0  0
    2.5847   -1.1952    0.8788 C   0  0  0  0  0  0  0  0  0  0  0  0
    1.8970   -2.1788    1.6349 C   0  0  0  0  0  0  0  0  0  0  0  0
    2.2639   -4.1275    4.3773 H   0  0  0  0  0  0  0  0  0  0  0  0
    1.1231   -4.3280    3.0469 H   0  0  0  0  0  0  0  0  0  0  0  0
    0.8159   -3.0938    4.2942 H   0  0  0  0  0  0  0  0  0  0  0  0
    3.8579   -2.2178    4.4051 H   0  0  0  0  0  0  0  0  0  0  0  0
    5.0608   -0.5270    3.0838 H   0  0  0  0  0  0  0  0  0  0  0  0
    5.4301    2.7454    0.6865 H   0  0  0  0  0  0  0  0  0  0  0  0
    6.8491    4.4536   -0.3807 H   0  0  0  0  0  0  0  0  0  0  0  0
    7.1929    4.4403   -2.8396 H   0  0  0  0  0  0  0  0  0  0  0  0
    6.1144    2.6890   -4.2235 H   0  0  0  0  0  0  0  0  0  0  0  0
    4.7095    0.9683   -3.1793 H   0  0  0  0  0  0  0  0  0  0  0  0
    2.6109    0.5199   -2.0874 H   0  0  0  0  0  0  0  0  0  0  0  0
   -1.2348   -1.5633   -2.3449 H   0  0  0  0  0  0  0  0  0  0  0  0
   -1.7490   -2.0907   -0.7370 H   0  0  0  0  0  0  0  0  0  0  0  0
   -2.3168    0.6632   -1.9928 H   0  0  0  0  0  0  0  0  0  0  0  0
   -3.4780   -0.6427   -1.8516 H   0  0  0  0  0  0  0  0  0  0  0  0
   -5.9809    3.5612   -0.5943 H   0  0  0  0  0  0  0  0  0  0  0  0
   -5.0172    2.7700    0.6532 H   0  0  0  0  0  0  0  0  0  0  0  0
   -4.4430    2.7965   -1.0264 H   0  0  0  0  0  0  0  0  0  0  0  0
   -7.9352   -2.3547   -1.1849 H   0  0  0  0  0  0  0  0  0  0  0  0
   -6.1992   -2.7054   -1.2016 H   0  0  0  0  0  0  0  0  0  0  0  0
   -7.0491   -2.4675    0.3429 H   0  0  0  0  0  0  0  0  0  0  0  0
   -1.7811   -0.5214    1.5633 H   0  0  0  0  0  0  0  0  0  0  0  0
   -1.8918    1.2536    1.5842 H   0  0  0  0  0  0  0  0  0  0  0  0
    0.3766    0.5149    0.9321 H   0  0  0  0  0  0  0  0  0  0  0  0
   -0.3905    1.3697   -0.4078 H   0  0  0  0  0  0  0  0  0  0  0  0
    1.0052   -2.6540    1.2267 H   0  0  0  0  0  0  0  0  0  0  0  0
  1  2  1  0
  2  3  2  0
  3  4  1  0
  4  5  2  0
  5  6  1  0
  6  7  2  0
  7  8  1  0
  8  9  2  0
  9 10  1  0
 10 11  2  0
 11 12  1  0
 12 13  2  0
  7 14  1  0
 14 15  2  0
 15 16  1  0
 16 17  2  0
 16 18  1  0
 18 19  1  0
 19 20  1  0
 20 21  1  0
 21 22  1  0
 22 23  2  0
 22 24  2  0
 22 25  1  0
 25 26  1  0
 26 27  1  0
 26 28  2  0
 28 29  1  0
 29 30  1  0
 30 31  1  0
 21 32  1  0
 32 33  1  0
 15 34  1  0
 34 35  2  0
 35  2  1  0
 34  5  1  0
 13  8  1  0
 33 18  1  0
 30 25  2  0
  1 36  1  0
  1 37  1  0
  1 38  1  0
  3 39  1  0
  4 40  1  0
  9 41  1  0
 10 42  1  0
 11 43  1  0
 12 44  1  0
 13 45  1  0
 14 46  1  0
 19 47  1  0
 19 48  1  0
 20 49  1  0
 20 50  1  0
 27 51  1  0
 27 52  1  0
 27 53  1  0
 31 54  1  0
 31 55  1  0
 31 56  1  0
 32 57  1  0
 32 58  1  0
 33 59  1  0
 33 60  1  0
 35 61  1  0
M  END
$$$$
