
     RDKit          3D

 40 42  0  0  0  0  0  0  0  0999 V2000
    0.5738   -3.0219    0.1101 O   0  0  0  0  0  0  0  0  0  0  0  0
    1.2848   -2.2210   -0.4938 C   0  0  0  0  0  0  0  0  0  0  0  0
    2.8015   -2.3025   -0.4802 C   0  0  0  0  0  0  0  0  0  0  0  0
    3.4498   -1.1124    0.1869 C   0  0  0  0  0  0  0  0  0  0  0  0
    4.2940   -0.2556   -0.5345 C   0  0  0  0  0  0  0  0  0  0  0  0
    4.8730    0.8521    0.0872 C   0  0  0  0  0  0  0  0  0  0  0  0
    4.6175    1.1103    1.4327 C   0  0  0  0  0  0  0  0  0  0  0  0
    3.7870    0.2589    2.1614 C   0  0  0  0  0  0  0  0  0  0  0  0
    3.2077   -0.8493    1.5437 C   0  0  0  0  0  0  0  0  0  0  0  0
    0.7763   -1.1865   -1.2549 N   0  0  0  0  0  0  0  0  0  0  0  0
   -0.6519   -0.8973   -1.2338 C   0  0  0  0  0  0  0  0  0  0  0  0
   -1.0728   -0.1064    0.0306 C   0  0  0  0  0  0  0  0  0  0  0  0
   -0.3761    1.1617    0.0594 O   0  0  0  0  0  0  0  0  0  0  0  0
   -1.0126    2.1763   -0.7151 C   0  0  0  0  0  0  0  0  0  0  0  0
   -2.3644    2.5243   -0.1096 C   0  0  0  0  0  0  0  0  0  0  0  0
   -3.2058    1.2863    0.0494 C   0  0  0  0  0  0  0  0  0  0  0  0
   -4.5982    1.3882    0.1689 C   0  0  0  0  0  0  0  0  0  0  0  0
   -5.3736    0.2472    0.3692 C   0  0  0  0  0  0  0  0  0  0  0  0
   -4.7637   -0.9996    0.4674 C   0  0  0  0  0  0  0  0  0  0  0  0
   -3.3769   -1.1080    0.3627 C   0  0  0  0  0  0  0  0  0  0  0  0
   -2.5831    0.0306    0.1472 C   0  0  0  0  0  0  0  0  0  0  0  0
    3.1008   -3.2155    0.0479 H   0  0  0  0  0  0  0  0  0  0  0  0
    3.1462   -2.4123   -1.5160 H   0  0  0  0  0  0  0  0  0  0  0  0
    4.5084   -0.4449   -1.5841 H   0  0  0  0  0  0  0  0  0  0  0  0
    5.5210    1.5187   -0.4762 H   0  0  0  0  0  0  0  0  0  0  0  0
    5.0652    1.9764    1.9134 H   0  0  0  0  0  0  0  0  0  0  0  0
    3.5845    0.4623    3.2095 H   0  0  0  0  0  0  0  0  0  0  0  0
    2.5599   -1.5053    2.1240 H   0  0  0  0  0  0  0  0  0  0  0  0
    1.3872   -0.3903   -1.3977 H   0  0  0  0  0  0  0  0  0  0  0  0
   -0.8607   -0.3259   -2.1429 H   0  0  0  0  0  0  0  0  0  0  0  0
   -1.1923   -1.8468   -1.3058 H   0  0  0  0  0  0  0  0  0  0  0  0
   -0.7216   -0.6404    0.9238 H   0  0  0  0  0  0  0  0  0  0  0  0
   -0.3641    3.0596   -0.7034 H   0  0  0  0  0  0  0  0  0  0  0  0
   -1.1045    1.8559   -1.7594 H   0  0  0  0  0  0  0  0  0  0  0  0
   -2.2241    2.9638    0.8849 H   0  0  0  0  0  0  0  0  0  0  0  0
   -2.8712    3.2569   -0.7468 H   0  0  0  0  0  0  0  0  0  0  0  0
   -5.0850    2.3581    0.1134 H   0  0  0  0  0  0  0  0  0  0  0  0
   -6.4532    0.3319    0.4602 H   0  0  0  0  0  0  0  0  0  0  0  0
   -5.3672   -1.8883    0.6349 H   0  0  0  0  0  0  0  0  0  0  0  0
   -2.9157   -2.0895    0.4587 H   0  0  0  0  0  0  0  0  0  0  0  0
  1  2  2  0
  2  3  1  0
  3  4  1  0
  4  5  2  0
  5  6  1  0
  6  7  2  0
  7  8  1  0
  8  9  2  0
  2 10  1  0
 10 11  1  0
 11 12  1  0
 12 13  1  0
 13 14  1  0
 14 15  1  0
 15 16  1  0
 16 17  2  0
 17 18  1  0
 18 19  2  0
 19 20  1  0
 20 21  2  0
  9  4  1  0
 21 12  1  0
 21 16  1  0
  3 22  1  0
  3 23  1  0
  5 24  1  0
  6 25  1  0
  7 26  1  0
  8 27  1  0
  9 28  1  0
 10 29  1  0
 11 30  1  0
 11 31  1  0
 12 32  1  0
 14 33  1  0
 14 34  1  0
 15 35  1  0
 15 36  1  0
 17 37  1  0
 18 38  1  0
 19 39  1  0
 20 40  1  0
M  END
$$$$
