
     RDKit          3D

 60 65  0  0  0  0  0  0  0  0999 V2000
   -1.0523   -1.2370    4.2310 O   0  0  0  0  0  0  0  0  0  0  0  0
   -1.6196   -1.1106    3.1519 C   0  0  0  0  0  0  0  0  0  0  0  0
   -0.9683   -0.6033    2.0340 N   0  0  0  0  0  0  0  0  0  0  0  0
   -1.5592   -0.4503    0.7850 C   0  0  0  0  0  0  0  0  0  0  0  0
   -0.6797    0.1143   -0.3198 C   0  0  0  0  0  0  0  0  0  0  0  0
    0.5087   -0.8085   -0.6098 C   0  0  0  0  0  0  0  0  0  0  0  0
    1.4078   -0.2115   -1.6883 C   0  0  0  0  0  0  0  0  0  0  0  0
    1.8679    1.1334   -1.2398 N   0  0  0  0  0  0  0  0  0  0  0  0
    3.1314    1.8059   -2.1940 S   0  0  0  0  0  6  0  0  0  0  0  0
    2.7323    1.6682   -3.5789 O   0  0  0  0  0  0  0  0  0  0  0  0
    3.4876    3.0911   -1.6344 O   0  0  0  0  0  0  0  0  0  0  0  0
    4.4849    0.7047   -1.8791 C   0  0  0  0  0  0  0  0  0  0  0  0
    5.0692   -0.0112   -2.9288 C   0  0  0  0  0  0  0  0  0  0  0  0
    6.1291   -0.8783   -2.6586 C   0  0  0  0  0  0  0  0  0  0  0  0
    6.5971   -1.0192   -1.3516 C   0  0  0  0  0  0  0  0  0  0  0  0
    5.9908   -0.3147   -0.3040 C   0  0  0  0  0  0  0  0  0  0  0  0
    4.9444    0.5644   -0.5660 C   0  0  0  0  0  0  0  0  0  0  0  0
    6.3784   -0.4348    1.0056 O   0  0  0  0  0  0  0  0  0  0  0  0
    7.2196   -1.5777    1.2030 C   0  0  0  0  0  0  0  0  0  0  0  0
    8.2713   -1.6685    0.1097 C   0  0  0  0  0  0  0  0  0  0  0  0
    7.6538   -1.8735   -1.1668 O   0  0  0  0  0  0  0  0  0  0  0  0
    0.7198    2.0695   -1.0740 C   0  0  0  0  0  0  0  0  0  0  0  0
   -0.2041    1.5316    0.0151 C   0  0  0  0  0  0  0  0  0  0  0  0
   -2.7988   -0.7611    0.5187 N   0  0  0  0  0  0  0  0  0  0  0  0
   -3.4612   -1.2512    1.5964 C   0  0  0  0  0  0  0  0  0  0  0  0
   -2.9864   -1.4529    2.8701 C   0  0  0  0  0  0  0  0  0  0  0  0
   -3.9559   -1.9763    3.6667 N   0  0  0  0  0  0  0  0  0  0  0  0
   -5.0515   -2.1117    2.9194 N   0  0  0  0  0  0  0  0  0  0  0  0
   -4.7637   -1.6580    1.6745 N   0  0  0  0  0  0  0  0  0  0  0  0
   -5.7514   -1.7032    0.6157 C   0  0  0  0  0  0  0  0  0  0  0  0
   -6.5434   -0.4268    0.5435 C   0  0  0  0  0  0  0  0  0  0  0  0
   -6.0360    0.7088   -0.1066 C   0  0  0  0  0  0  0  0  0  0  0  0
   -6.7789    1.8916   -0.1476 C   0  0  0  0  0  0  0  0  0  0  0  0
   -8.0328    1.9541    0.4604 C   0  0  0  0  0  0  0  0  0  0  0  0
   -8.5451    0.8327    1.1098 C   0  0  0  0  0  0  0  0  0  0  0  0
   -7.8005   -0.3425    1.1472 C   0  0  0  0  0  0  0  0  0  0  0  0
   -8.3166   -1.4129    1.7669 F   0  0  0  0  0  0  0  0  0  0  0  0
   -0.0045   -0.3490    2.1945 H   0  0  0  0  0  0  0  0  0  0  0  0
   -1.2958    0.1698   -1.2286 H   0  0  0  0  0  0  0  0  0  0  0  0
    0.1484   -1.7933   -0.9305 H   0  0  0  0  0  0  0  0  0  0  0  0
    1.1006   -0.9729    0.2993 H   0  0  0  0  0  0  0  0  0  0  0  0
    0.8652   -0.1323   -2.6374 H   0  0  0  0  0  0  0  0  0  0  0  0
    2.2594   -0.8822   -1.8342 H   0  0  0  0  0  0  0  0  0  0  0  0
    4.7143    0.1038   -3.9508 H   0  0  0  0  0  0  0  0  0  0  0  0
    6.5999   -1.4336   -3.4659 H   0  0  0  0  0  0  0  0  0  0  0  0
    4.4876    1.1261    0.2450 H   0  0  0  0  0  0  0  0  0  0  0  0
    7.6985   -1.4716    2.1815 H   0  0  0  0  0  0  0  0  0  0  0  0
    6.5874   -2.4740    1.2267 H   0  0  0  0  0  0  0  0  0  0  0  0
    8.9383   -2.5162    0.2953 H   0  0  0  0  0  0  0  0  0  0  0  0
    8.8809   -0.7576    0.0609 H   0  0  0  0  0  0  0  0  0  0  0  0
    0.1792    2.1785   -2.0214 H   0  0  0  0  0  0  0  0  0  0  0  0
    1.0752    3.0572   -0.7632 H   0  0  0  0  0  0  0  0  0  0  0  0
    0.3301    1.5419    0.9735 H   0  0  0  0  0  0  0  0  0  0  0  0
   -1.0670    2.1983    0.1320 H   0  0  0  0  0  0  0  0  0  0  0  0
   -5.2297   -1.8853   -0.3311 H   0  0  0  0  0  0  0  0  0  0  0  0
   -6.3959   -2.5723    0.7916 H   0  0  0  0  0  0  0  0  0  0  0  0
   -5.0564    0.6811   -0.5809 H   0  0  0  0  0  0  0  0  0  0  0  0
   -6.3772    2.7676   -0.6518 H   0  0  0  0  0  0  0  0  0  0  0  0
   -8.6086    2.8757    0.4300 H   0  0  0  0  0  0  0  0  0  0  0  0
   -9.5187    0.8653    1.5890 H   0  0  0  0  0  0  0  0  0  0  0  0
  1  2  2  0
  2  3  1  0
  3  4  1  0
  4  5  1  0
  5  6  1  0
  6  7  1  0
  7  8  1  0
  8  9  1  0
  9 10  2  0
  9 11  2  0
  9 12  1  0
 12 13  2  0
 13 14  1  0
 14 15  2  0
 15 16  1  0
 16 17  2  0
 16 18  1  0
 18 19  1  0
 19 20  1  0
 20 21  1  0
  8 22  1  0
 22 23  1  0
  4 24  2  0
 24 25  1  0
 25 26  2  0
 26 27  1  0
 27 28  2  0
 28 29  1  0
 29 30  1  0
 30 31  1  0
 31 32  2  0
 32 33  1  0
 33 34  2  0
 34 35  1  0
 35 36  2  0
 36 37  1  0
 26  2  1  0
 36 31  1  0
 23  5  1  0
 29 25  1  0
 17 12  1  0
 21 15  1  0
  3 38  1  0
  5 39  1  0
  6 40  1  0
  6 41  1  0
  7 42  1  0
  7 43  1  0
 13 44  1  0
 14 45  1  0
 17 46  1  0
 19 47  1  0
 19 48  1  0
 20 49  1  0
 20 50  1  0
 22 51  1  0
 22 52  1  0
 23 53  1  0
 23 54  1  0
 30 55  1  0
 30 56  1  0
 32 57  1  0
 33 58  1  0
 34 59  1  0
 35 60  1  0
M  END
$$$$
