
     RDKit          3D

 72 74  0  0  0  0  0  0  0  0999 V2000
   -5.4573    4.1460    2.7819 C   0  0  0  0  0  0  0  0  0  0  0  0
   -4.8845    4.0895    1.4810 O   0  0  0  0  0  0  0  0  0  0  0  0
   -4.1830    2.9606    1.1633 C   0  0  0  0  0  0  0  0  0  0  0  0
   -4.0185    1.8417    1.9754 C   0  0  0  0  0  0  0  0  0  0  0  0
   -3.2545    0.7563    1.5337 C   0  0  0  0  0  0  0  0  0  0  0  0
   -2.6432    0.7694    0.2697 C   0  0  0  0  0  0  0  0  0  0  0  0
   -1.7763   -0.3816   -0.2374 C   0  0  0  0  0  0  0  0  0  0  0  0
   -2.1147   -1.7518    0.4237 C   0  0  0  0  0  0  0  0  0  0  0  0
   -1.4379   -2.2438    1.3258 O   0  0  0  0  0  0  0  0  0  0  0  0
   -3.2818   -2.3339   -0.0488 N   0  0  0  0  0  0  0  0  0  0  0  0
   -3.8591   -3.5899    0.4535 C   0  0  0  0  0  0  0  0  0  0  0  0
   -2.8853   -4.7641    0.2617 C   0  0  0  0  0  0  0  0  0  0  0  0
   -4.2475   -3.4568    1.9372 C   0  0  0  0  0  0  0  0  0  0  0  0
   -5.1361   -3.8891   -0.3554 C   0  0  0  0  0  0  0  0  0  0  0  0
   -0.3263   -0.1054   -0.1355 N   0  0  0  0  0  0  0  0  0  0  0  0
    0.2150    0.3662    1.1562 C   0  0  0  0  0  0  0  0  0  0  0  0
    0.6102    1.8534    1.1249 C   0  0  0  0  0  0  0  0  0  0  0  0
   -0.0934    2.7126    2.1674 C   0  0  0  0  0  0  0  0  0  0  0  0
    0.9013    3.8281    2.3680 C   0  0  0  0  0  0  0  0  0  0  0  0
    2.2144    3.0829    2.3061 C   0  0  0  0  0  0  0  0  0  0  0  0
    2.0253    1.9939    1.3915 O   0  0  0  0  0  0  0  0  0  0  0  0
    0.4713   -0.5524   -1.1824 C   0  0  0  0  0  0  0  0  0  0  0  0
   -0.0210   -1.0125   -2.2155 O   0  0  0  0  0  0  0  0  0  0  0  0
    1.9784   -0.4533   -1.0218 C   0  0  0  0  0  0  0  0  0  0  0  0
    2.6986   -0.8615   -2.3042 C   0  0  0  0  0  0  0  0  0  0  0  0
    4.2047   -0.8233   -2.1433 C   0  0  0  0  0  0  0  0  0  0  0  0
    4.7509   -0.9849   -1.0553 O   0  0  0  0  0  0  0  0  0  0  0  0
    4.8503   -0.6287   -3.3445 N   0  0  0  0  0  0  0  0  0  0  0  0
    6.2151   -0.5430   -3.5059 C   0  0  0  0  0  0  0  0  0  0  0  0
    7.2461   -0.7283   -2.5606 C   0  0  0  0  0  0  0  0  0  0  0  0
    8.4047   -0.5201   -3.2664 C   0  0  0  0  0  0  0  0  0  0  0  0
    9.8391   -0.5565   -2.9304 C   0  0  0  0  0  0  0  0  0  0  0  0
    8.0930   -0.2172   -4.5533 O   0  0  0  0  0  0  0  0  0  0  0  0
    6.7192   -0.2347   -4.7070 N   0  0  0  0  0  0  0  0  0  0  0  0
   -2.8205    1.8999   -0.5417 C   0  0  0  0  0  0  0  0  0  0  0  0
   -3.5872    2.9793   -0.0982 C   0  0  0  0  0  0  0  0  0  0  0  0
   -4.6887    4.0725    3.5584 H   0  0  0  0  0  0  0  0  0  0  0  0
   -5.9464    5.1191    2.8905 H   0  0  0  0  0  0  0  0  0  0  0  0
   -6.2230    3.3728    2.9078 H   0  0  0  0  0  0  0  0  0  0  0  0
   -4.4640    1.7818    2.9627 H   0  0  0  0  0  0  0  0  0  0  0  0
   -3.1357   -0.0941    2.2038 H   0  0  0  0  0  0  0  0  0  0  0  0
   -2.0357   -0.5097   -1.2975 H   0  0  0  0  0  0  0  0  0  0  0  0
   -3.8037   -1.8285   -0.7566 H   0  0  0  0  0  0  0  0  0  0  0  0
   -3.3475   -5.7130    0.5591 H   0  0  0  0  0  0  0  0  0  0  0  0
   -2.5793   -4.8559   -0.7880 H   0  0  0  0  0  0  0  0  0  0  0  0
   -1.9759   -4.6454    0.8587 H   0  0  0  0  0  0  0  0  0  0  0  0
   -3.3776   -3.2844    2.5779 H   0  0  0  0  0  0  0  0  0  0  0  0
   -4.9358   -2.6193    2.0883 H   0  0  0  0  0  0  0  0  0  0  0  0
   -4.7423   -4.3652    2.2986 H   0  0  0  0  0  0  0  0  0  0  0  0
   -5.8546   -3.0654   -0.2729 H   0  0  0  0  0  0  0  0  0  0  0  0
   -5.6295   -4.8050   -0.0035 H   0  0  0  0  0  0  0  0  0  0  0  0
   -4.9092   -4.0180   -1.4207 H   0  0  0  0  0  0  0  0  0  0  0  0
    1.0798   -0.2513    1.4153 H   0  0  0  0  0  0  0  0  0  0  0  0
   -0.5260    0.1764    1.9373 H   0  0  0  0  0  0  0  0  0  0  0  0
    0.4437    2.2815    0.1269 H   0  0  0  0  0  0  0  0  0  0  0  0
   -1.0666    3.0773    1.8305 H   0  0  0  0  0  0  0  0  0  0  0  0
   -0.2344    2.1646    3.1079 H   0  0  0  0  0  0  0  0  0  0  0  0
    0.8330    4.5371    1.5343 H   0  0  0  0  0  0  0  0  0  0  0  0
    0.7655    4.3787    3.3034 H   0  0  0  0  0  0  0  0  0  0  0  0
    3.0425    3.7099    1.9659 H   0  0  0  0  0  0  0  0  0  0  0  0
    2.4707    2.6583    3.2830 H   0  0  0  0  0  0  0  0  0  0  0  0
    2.2870   -1.1069   -0.1994 H   0  0  0  0  0  0  0  0  0  0  0  0
    2.2534    0.5769   -0.7807 H   0  0  0  0  0  0  0  0  0  0  0  0
    2.3956   -0.1980   -3.1218 H   0  0  0  0  0  0  0  0  0  0  0  0
    2.4274   -1.8847   -2.5867 H   0  0  0  0  0  0  0  0  0  0  0  0
    4.3263   -0.4253   -4.1856 H   0  0  0  0  0  0  0  0  0  0  0  0
    7.1622   -0.9875   -1.5145 H   0  0  0  0  0  0  0  0  0  0  0  0
   10.3529   -1.3123   -3.5326 H   0  0  0  0  0  0  0  0  0  0  0  0
    9.9904   -0.8009   -1.8734 H   0  0  0  0  0  0  0  0  0  0  0  0
   10.3038    0.4150   -3.1241 H   0  0  0  0  0  0  0  0  0  0  0  0
   -2.3548    1.9506   -1.5243 H   0  0  0  0  0  0  0  0  0  0  0  0
   -3.7130    3.8512   -0.7355 H   0  0  0  0  0  0  0  0  0  0  0  0
  1  2  1  0
  2  3  1  0
  3  4  2  0
  4  5  1  0
  5  6  2  0
  6  7  1  0
  7  8  1  0
  8  9  2  0
  8 10  1  0
 10 11  1  0
 11 12  1  0
 11 13  1  0
 11 14  1  0
  7 15  1  0
 15 16  1  0
 16 17  1  0
 17 18  1  0
 18 19  1  0
 19 20  1  0
 20 21  1  0
 15 22  1  0
 22 23  2  0
 22 24  1  0
 24 25  1  0
 25 26  1  0
 26 27  2  0
 26 28  1  0
 28 29  1  0
 29 30  1  0
 30 31  2  0
 31 32  1  0
 31 33  1  0
 33 34  1  0
  6 35  1  0
 35 36  2  0
 36  3  1  0
 21 17  1  0
 34 29  2  0
  1 37  1  0
  1 38  1  0
  1 39  1  0
  4 40  1  0
  5 41  1  0
  7 42  1  0
 10 43  1  0
 12 44  1  0
 12 45  1  0
 12 46  1  0
 13 47  1  0
 13 48  1  0
 13 49  1  0
 14 50  1  0
 14 51  1  0
 14 52  1  0
 16 53  1  0
 16 54  1  0
 17 55  1  0
 18 56  1  0
 18 57  1  0
 19 58  1  0
 19 59  1  0
 20 60  1  0
 20 61  1  0
 24 62  1  0
 24 63  1  0
 25 64  1  0
 25 65  1  0
 28 66  1  0
 30 67  1  0
 32 68  1  0
 32 69  1  0
 32 70  1  0
 35 71  1  0
 36 72  1  0
M  END
$$$$
