
     RDKit          3D

 36 38  0  0  0  0  0  0  0  0999 V2000
   -6.1227   -0.4742   -0.9256 C   0  0  0  0  0  0  0  0  0  0  0  0
   -5.2858   -0.0293    0.1873 N   0  0  0  0  0  0  0  0  0  0  0  0
   -5.8981   -0.1152    1.5117 C   0  0  0  0  0  0  0  0  0  0  0  0
   -3.8943   -0.1312    0.0729 C   0  0  0  0  0  0  0  0  0  0  0  0
   -3.2572   -0.3203   -1.1656 C   0  0  0  0  0  0  0  0  0  0  0  0
   -1.8610   -0.4055   -1.2888 C   0  0  0  0  0  0  0  0  0  0  0  0
   -1.0379   -0.2812   -0.1709 C   0  0  0  0  0  0  0  0  0  0  0  0
    0.4179   -0.4048   -0.3332 C   0  0  0  0  0  0  0  0  0  0  0  0
    1.2997    0.3573    0.3348 C   0  0  0  0  0  0  0  0  0  0  0  0
    2.7212    0.2814    0.2108 C   0  0  0  0  0  0  0  0  0  0  0  0
    3.5451    1.0505    0.8977 N   0  0  0  0  0  0  0  0  0  0  0  0
    4.8655    0.7738    0.5899 C   0  0  0  0  0  0  0  0  0  0  0  0
    5.9950    1.4118    1.1417 C   0  0  0  0  0  0  0  0  0  0  0  0
    7.2778    1.0286    0.7365 C   0  0  0  0  0  0  0  0  0  0  0  0
    7.4457    0.0211   -0.2081 C   0  0  0  0  0  0  0  0  0  0  0  0
    6.3404   -0.6262   -0.7695 C   0  0  0  0  0  0  0  0  0  0  0  0
    5.0574   -0.2319   -0.3540 C   0  0  0  0  0  0  0  0  0  0  0  0
    3.5252   -0.8261   -0.8500 S   0  0  0  0  0  0  0  0  0  0  0  0
   -1.6426   -0.0930    1.0709 C   0  0  0  0  0  0  0  0  0  0  0  0
   -3.0402   -0.0103    1.1827 C   0  0  0  0  0  0  0  0  0  0  0  0
   -7.1874   -0.3522   -0.6965 H   0  0  0  0  0  0  0  0  0  0  0  0
   -5.9395    0.1251   -1.8239 H   0  0  0  0  0  0  0  0  0  0  0  0
   -5.9525   -1.5335   -1.1476 H   0  0  0  0  0  0  0  0  0  0  0  0
   -5.6776   -1.0779    1.9860 H   0  0  0  0  0  0  0  0  0  0  0  0
   -6.9881   -0.0179    1.4527 H   0  0  0  0  0  0  0  0  0  0  0  0
   -5.5600    0.7011    2.1590 H   0  0  0  0  0  0  0  0  0  0  0  0
   -3.8321   -0.4041   -2.0826 H   0  0  0  0  0  0  0  0  0  0  0  0
   -1.4324   -0.5560   -2.2770 H   0  0  0  0  0  0  0  0  0  0  0  0
    0.7309   -1.1528   -1.0561 H   0  0  0  0  0  0  0  0  0  0  0  0
    0.9461    1.1147    1.0296 H   0  0  0  0  0  0  0  0  0  0  0  0
    5.8578    2.1972    1.8781 H   0  0  0  0  0  0  0  0  0  0  0  0
    8.1465    1.5233    1.1644 H   0  0  0  0  0  0  0  0  0  0  0  0
    8.4487   -0.2681   -0.5152 H   0  0  0  0  0  0  0  0  0  0  0  0
    6.4720   -1.4123   -1.5066 H   0  0  0  0  0  0  0  0  0  0  0  0
   -1.0448   -0.0137    1.9757 H   0  0  0  0  0  0  0  0  0  0  0  0
   -3.4384    0.1516    2.1796 H   0  0  0  0  0  0  0  0  0  0  0  0
  1  2  1  0
  2  3  1  0
  2  4  1  0
  4  5  2  0
  5  6  1  0
  6  7  2  0
  7  8  1  0
  8  9  2  3
  9 10  1  0
 10 11  2  0
 11 12  1  0
 12 13  2  0
 13 14  1  0
 14 15  2  0
 15 16  1  0
 16 17  2  0
 17 18  1  0
  7 19  1  0
 19 20  2  0
 20  4  1  0
 18 10  1  0
 17 12  1  0
  1 21  1  0
  1 22  1  0
  1 23  1  0
  3 24  1  0
  3 25  1  0
  3 26  1  0
  5 27  1  0
  6 28  1  0
  8 29  1  0
  9 30  1  0
 13 31  1  0
 14 32  1  0
 15 33  1  0
 16 34  1  0
 19 35  1  0
 20 36  1  0
M  END
$$$$
