
     RDKit          3D

 43 45  0  0  0  0  0  0  0  0999 V2000
   -7.6995   -0.5271    0.8512 C   0  0  0  0  0  0  0  0  0  0  0  0
   -6.8117   -0.3262   -0.2929 N   0  0  0  0  0  0  0  0  0  0  0  0
   -7.1891   -1.0352   -1.5145 C   0  0  0  0  0  0  0  0  0  0  0  0
   -5.4581   -0.0528   -0.0602 C   0  0  0  0  0  0  0  0  0  0  0  0
   -4.9819    0.3566    1.1972 C   0  0  0  0  0  0  0  0  0  0  0  0
   -3.6279    0.6464    1.4314 C   0  0  0  0  0  0  0  0  0  0  0  0
   -2.6871    0.5364    0.4089 C   0  0  0  0  0  0  0  0  0  0  0  0
   -1.2844    0.8761    0.6840 C   0  0  0  0  0  0  0  0  0  0  0  0
   -0.2376    0.2334    0.1414 C   0  0  0  0  0  0  0  0  0  0  0  0
    1.1362    0.5896    0.4410 C   0  0  0  0  0  0  0  0  0  0  0  0
    2.2398    0.0089   -0.0528 C   0  0  0  0  0  0  0  0  0  0  0  0
    2.3366   -1.2865   -1.1658 S   0  0  0  0  0  0  0  0  0  0  0  0
    4.0992   -1.3479   -1.0904 C   0  0  0  0  0  0  0  0  0  0  0  0
    4.9068   -2.6131   -1.8344 S   0  0  0  0  0  0  0  0  0  0  0  0
    4.5777   -0.3058   -0.3019 N   0  0  0  0  0  0  0  0  0  0  0  0
    5.9673   -0.0063   -0.1002 C   0  0  0  0  0  0  0  0  0  0  0  0
    6.8912   -0.0579   -1.1552 C   0  0  0  0  0  0  0  0  0  0  0  0
    8.2419    0.2443   -0.9497 C   0  0  0  0  0  0  0  0  0  0  0  0
    8.6916    0.6140    0.3134 C   0  0  0  0  0  0  0  0  0  0  0  0
    7.7898    0.6902    1.3692 C   0  0  0  0  0  0  0  0  0  0  0  0
    6.4398    0.3883    1.1624 C   0  0  0  0  0  0  0  0  0  0  0  0
    3.6039    0.4684    0.3315 C   0  0  0  0  0  0  0  0  0  0  0  0
    3.7689    1.4241    1.0814 O   0  0  0  0  0  0  0  0  0  0  0  0
   -3.1375    0.1654   -0.8571 C   0  0  0  0  0  0  0  0  0  0  0  0
   -4.4942   -0.1212   -1.0809 C   0  0  0  0  0  0  0  0  0  0  0  0
   -8.7242   -0.7402    0.5262 H   0  0  0  0  0  0  0  0  0  0  0  0
   -7.7635    0.3762    1.4672 H   0  0  0  0  0  0  0  0  0  0  0  0
   -7.3658   -1.3704    1.4658 H   0  0  0  0  0  0  0  0  0  0  0  0
   -8.2721   -1.1955   -1.5626 H   0  0  0  0  0  0  0  0  0  0  0  0
   -6.9336   -0.4529   -2.4063 H   0  0  0  0  0  0  0  0  0  0  0  0
   -6.7074   -2.0181   -1.5648 H   0  0  0  0  0  0  0  0  0  0  0  0
   -5.6557    0.4684    2.0408 H   0  0  0  0  0  0  0  0  0  0  0  0
   -3.3255    0.9543    2.4297 H   0  0  0  0  0  0  0  0  0  0  0  0
   -1.1316    1.6904    1.3891 H   0  0  0  0  0  0  0  0  0  0  0  0
   -0.4094   -0.5965   -0.5403 H   0  0  0  0  0  0  0  0  0  0  0  0
    1.2639    1.4164    1.1415 H   0  0  0  0  0  0  0  0  0  0  0  0
    6.5809   -0.2897   -2.1705 H   0  0  0  0  0  0  0  0  0  0  0  0
    8.9394    0.1998   -1.7828 H   0  0  0  0  0  0  0  0  0  0  0  0
    9.7404    0.8505    0.4728 H   0  0  0  0  0  0  0  0  0  0  0  0
    8.1325    0.9852    2.3580 H   0  0  0  0  0  0  0  0  0  0  0  0
    5.7724    0.4466    2.0196 H   0  0  0  0  0  0  0  0  0  0  0  0
   -2.4502    0.1070   -1.6973 H   0  0  0  0  0  0  0  0  0  0  0  0
   -4.7721   -0.3933   -2.0945 H   0  0  0  0  0  0  0  0  0  0  0  0
  1  2  1  0
  2  3  1  0
  2  4  1  0
  4  5  2  0
  5  6  1  0
  6  7  2  0
  7  8  1  0
  8  9  2  3
  9 10  1  0
 10 11  2  3
 11 12  1  0
 12 13  1  0
 13 14  2  0
 13 15  1  0
 15 16  1  0
 16 17  2  0
 17 18  1  0
 18 19  2  0
 19 20  1  0
 20 21  2  0
 15 22  1  0
 22 23  2  0
  7 24  1  0
 24 25  2  0
 25  4  1  0
 22 11  1  0
 21 16  1  0
  1 26  1  0
  1 27  1  0
  1 28  1  0
  3 29  1  0
  3 30  1  0
  3 31  1  0
  5 32  1  0
  6 33  1  0
  8 34  1  0
  9 35  1  0
 10 36  1  0
 17 37  1  0
 18 38  1  0
 19 39  1  0
 20 40  1  0
 21 41  1  0
 24 42  1  0
 25 43  1  0
M  END
$$$$
