
     RDKit          3D

 58 62  0  0  0  0  0  0  0  0999 V2000
    7.1401    3.6671    1.1786 C   0  0  0  0  0  0  0  0  0  0  0  0
    6.8750    2.4861    0.4216 O   0  0  0  0  0  0  0  0  0  0  0  0
    5.5889    2.0186    0.4923 C   0  0  0  0  0  0  0  0  0  0  0  0
    5.4314    0.6602    0.2250 C   0  0  0  0  0  0  0  0  0  0  0  0
    4.1679    0.0675    0.2919 C   0  0  0  0  0  0  0  0  0  0  0  0
    3.0404    0.8364    0.6015 C   0  0  0  0  0  0  0  0  0  0  0  0
    1.6767    0.2004    0.6922 C   0  0  0  0  0  0  0  0  0  0  0  0
    1.1302   -0.2424   -0.6780 C   0  0  0  0  0  0  0  0  0  0  0  0
   -0.2459   -0.7678   -0.5197 N   0  0  0  0  0  0  0  0  0  0  0  0
   -1.3376    0.1140   -0.4541 C   0  0  0  0  0  0  0  0  0  0  0  0
   -1.3382    1.3080   -0.9769 N   0  0  0  0  0  0  0  0  0  0  0  0
   -2.6030   -0.3139    0.2368 C   0  0  0  0  0  0  0  0  0  0  0  0
   -3.7849    0.5536    0.5263 C   0  0  0  0  0  0  0  0  0  0  0  0
   -4.5990    0.2653    1.4012 O   0  0  0  0  0  0  0  0  0  0  0  0
   -3.8675    1.6958   -0.2066 N   0  0  0  0  0  0  0  0  0  0  0  0
   -4.8185    2.7292    0.1146 C   0  0  0  0  0  0  0  0  0  0  0  0
   -5.2155    3.4174   -1.1336 C   0  0  0  0  0  0  0  0  0  0  0  0
   -6.4316    3.5622   -1.7690 C   0  0  0  0  0  0  0  0  0  0  0  0
   -6.1830    4.3107   -2.9433 C   0  0  0  0  0  0  0  0  0  0  0  0
   -4.8284    4.5822   -2.9513 C   0  0  0  0  0  0  0  0  0  0  0  0
   -4.2349    4.0482   -1.8530 O   0  0  0  0  0  0  0  0  0  0  0  0
   -2.6432   -1.5903    0.6372 C   0  0  0  0  0  0  0  0  0  0  0  0
   -1.5582   -2.5280    0.4041 C   0  0  0  0  0  0  0  0  0  0  0  0
   -1.7207   -3.9574    0.7960 C   0  0  0  0  0  0  0  0  0  0  0  0
   -2.7684   -4.3369    1.3160 O   0  0  0  0  0  0  0  0  0  0  0  0
   -0.6421   -4.7845    0.5385 N   0  0  0  0  0  0  0  0  0  0  0  0
   -0.7230   -6.1365    0.8443 C   0  0  0  0  0  0  0  0  0  0  0  0
    0.3002   -6.9718    0.6183 C   0  0  0  0  0  0  0  0  0  0  0  0
    1.5217   -6.4766    0.0495 C   0  0  0  0  0  0  0  0  0  0  0  0
    1.6455   -5.1811   -0.2499 C   0  0  0  0  0  0  0  0  0  0  0  0
    0.5077   -4.2479   -0.0088 C   0  0  0  0  0  0  0  0  0  0  0  0
    0.6559   -3.0028   -0.3202 N   0  0  0  0  0  0  0  0  0  0  0  0
   -0.3894   -2.1266   -0.1368 C   0  0  0  0  0  0  0  0  0  0  0  0
    3.1996    2.2045    0.8376 C   0  0  0  0  0  0  0  0  0  0  0  0
    4.4667    2.7919    0.7856 C   0  0  0  0  0  0  0  0  0  0  0  0
    6.7370    3.5872    2.1977 H   0  0  0  0  0  0  0  0  0  0  0  0
    8.2283    3.7766    1.2584 H   0  0  0  0  0  0  0  0  0  0  0  0
    6.7497    4.5570    0.6656 H   0  0  0  0  0  0  0  0  0  0  0  0
    6.3044    0.0603   -0.0178 H   0  0  0  0  0  0  0  0  0  0  0  0
    4.0738   -0.9984    0.1113 H   0  0  0  0  0  0  0  0  0  0  0  0
    0.9764    0.9039    1.1634 H   0  0  0  0  0  0  0  0  0  0  0  0
    1.7346   -0.6584    1.3793 H   0  0  0  0  0  0  0  0  0  0  0  0
    1.7893   -1.0005   -1.1218 H   0  0  0  0  0  0  0  0  0  0  0  0
    1.1667    0.5902   -1.3937 H   0  0  0  0  0  0  0  0  0  0  0  0
   -0.4776    1.4875   -1.4874 H   0  0  0  0  0  0  0  0  0  0  0  0
   -3.0149    1.9720   -0.6941 H   0  0  0  0  0  0  0  0  0  0  0  0
   -4.3482    3.4189    0.8179 H   0  0  0  0  0  0  0  0  0  0  0  0
   -5.7011    2.2948    0.6005 H   0  0  0  0  0  0  0  0  0  0  0  0
   -7.3809    3.1657   -1.4218 H   0  0  0  0  0  0  0  0  0  0  0  0
   -6.8979    4.6211   -3.6988 H   0  0  0  0  0  0  0  0  0  0  0  0
   -4.1703    5.1062   -3.6302 H   0  0  0  0  0  0  0  0  0  0  0  0
   -3.5151   -1.9655    1.1577 H   0  0  0  0  0  0  0  0  0  0  0  0
   -1.6577   -6.4884    1.2722 H   0  0  0  0  0  0  0  0  0  0  0  0
    0.2243   -8.0227    0.8573 H   0  0  0  0  0  0  0  0  0  0  0  0
    2.3346   -7.1745   -0.1211 H   0  0  0  0  0  0  0  0  0  0  0  0
    2.5419   -4.7707   -0.6717 H   0  0  0  0  0  0  0  0  0  0  0  0
    2.3405    2.8276    1.0754 H   0  0  0  0  0  0  0  0  0  0  0  0
    4.5473    3.8555    0.9730 H   0  0  0  0  0  0  0  0  0  0  0  0
  1  2  1  0
  2  3  1  0
  3  4  2  0
  4  5  1  0
  5  6  2  0
  6  7  1  0
  7  8  1  0
  8  9  1  0
  9 10  1  0
 10 11  2  3
 10 12  1  0
 12 13  1  0
 13 14  2  0
 13 15  1  0
 15 16  1  0
 16 17  1  0
 17 18  2  0
 18 19  1  0
 19 20  2  0
 20 21  1  0
 12 22  2  0
 22 23  1  0
 23 24  1  0
 24 25  2  0
 24 26  1  0
 26 27  1  0
 27 28  2  0
 28 29  1  0
 29 30  2  0
 30 31  1  0
 31 32  2  0
 32 33  1  0
  6 34  1  0
 34 35  2  0
 35  3  1  0
 33  9  1  0
 21 17  1  0
 33 23  2  0
 31 26  1  0
  1 36  1  0
  1 37  1  0
  1 38  1  0
  4 39  1  0
  5 40  1  0
  7 41  1  0
  7 42  1  0
  8 43  1  0
  8 44  1  0
 11 45  1  0
 15 46  1  0
 16 47  1  0
 16 48  1  0
 18 49  1  0
 19 50  1  0
 20 51  1  0
 22 52  1  0
 27 53  1  0
 28 54  1  0
 29 55  1  0
 30 56  1  0
 34 57  1  0
 35 58  1  0
M  END
$$$$
