
     RDKit          3D

 42 44  0  0  0  0  0  0  0  0999 V2000
   -5.7997   -1.6365   -2.1681 C   0  0  0  0  0  0  0  0  0  0  0  0
   -4.9452   -1.0669   -1.1853 O   0  0  0  0  0  0  0  0  0  0  0  0
   -5.5185   -0.6382   -0.0139 C   0  0  0  0  0  0  0  0  0  0  0  0
   -6.8971   -0.6461    0.2344 C   0  0  0  0  0  0  0  0  0  0  0  0
   -7.4011   -0.2135    1.4639 C   0  0  0  0  0  0  0  0  0  0  0  0
   -6.5348    0.2283    2.4581 C   0  0  0  0  0  0  0  0  0  0  0  0
   -5.1608    0.2453    2.2225 C   0  0  0  0  0  0  0  0  0  0  0  0
   -4.6393   -0.1720    0.9873 C   0  0  0  0  0  0  0  0  0  0  0  0
   -3.1750   -0.1324    0.8345 C   0  0  0  0  0  0  0  0  0  0  0  0
   -2.5651    0.4536   -0.2056 C   0  0  0  0  0  0  0  0  0  0  0  0
   -1.1038    0.4603   -0.2838 C   0  0  0  0  0  0  0  0  0  0  0  0
   -0.2266    0.0453    0.5641 N   0  0  0  0  0  0  0  0  0  0  0  0
    0.9639    0.3166   -0.0640 C   0  0  0  0  0  0  0  0  0  0  0  0
    2.1564    0.0343    0.4790 C   0  0  0  0  0  0  0  0  0  0  0  0
    3.4631    0.2716   -0.0976 C   0  0  0  0  0  0  0  0  0  0  0  0
    4.6015   -0.0322    0.5472 C   0  0  0  0  0  0  0  0  0  0  0  0
    5.9485    0.1840   -0.0039 C   0  0  0  0  0  0  0  0  0  0  0  0
    6.9700   -0.7123    0.3389 C   0  0  0  0  0  0  0  0  0  0  0  0
    8.2704   -0.5288   -0.1387 C   0  0  0  0  0  0  0  0  0  0  0  0
    8.5660    0.5597   -0.9559 C   0  0  0  0  0  0  0  0  0  0  0  0
    7.5636    1.4670   -1.2915 C   0  0  0  0  0  0  0  0  0  0  0  0
    6.2630    1.2834   -0.8140 C   0  0  0  0  0  0  0  0  0  0  0  0
    0.7021    0.9523   -1.3891 C   0  0  0  0  0  0  0  0  0  0  0  0
    1.4726    1.3489   -2.2393 O   0  0  0  0  0  0  0  0  0  0  0  0
   -0.6579    1.0018   -1.4404 O   0  0  0  0  0  0  0  0  0  0  0  0
   -6.3201   -2.5179   -1.7789 H   0  0  0  0  0  0  0  0  0  0  0  0
   -6.5070   -0.8942   -2.5521 H   0  0  0  0  0  0  0  0  0  0  0  0
   -5.1746   -1.9627   -3.0049 H   0  0  0  0  0  0  0  0  0  0  0  0
   -7.6105   -0.9864   -0.5087 H   0  0  0  0  0  0  0  0  0  0  0  0
   -8.4732   -0.2262    1.6449 H   0  0  0  0  0  0  0  0  0  0  0  0
   -6.9267    0.5602    3.4162 H   0  0  0  0  0  0  0  0  0  0  0  0
   -4.4962    0.5960    3.0096 H   0  0  0  0  0  0  0  0  0  0  0  0
   -2.6017   -0.5904    1.6378 H   0  0  0  0  0  0  0  0  0  0  0  0
   -3.1153    0.9266   -1.0106 H   0  0  0  0  0  0  0  0  0  0  0  0
    2.1466   -0.4281    1.4653 H   0  0  0  0  0  0  0  0  0  0  0  0
    3.5075    0.6987   -1.0967 H   0  0  0  0  0  0  0  0  0  0  0  0
    4.5709   -0.4847    1.5359 H   0  0  0  0  0  0  0  0  0  0  0  0
    6.7604   -1.5694    0.9749 H   0  0  0  0  0  0  0  0  0  0  0  0
    9.0510   -1.2363    0.1281 H   0  0  0  0  0  0  0  0  0  0  0  0
    9.5770    0.7034   -1.3278 H   0  0  0  0  0  0  0  0  0  0  0  0
    7.7923    2.3218   -1.9227 H   0  0  0  0  0  0  0  0  0  0  0  0
    5.5034    2.0157   -1.0770 H   0  0  0  0  0  0  0  0  0  0  0  0
  1  2  1  0
  2  3  1  0
  3  4  2  0
  4  5  1  0
  5  6  2  0
  6  7  1  0
  7  8  2  0
  8  9  1  0
  9 10  2  3
 10 11  1  0
 11 12  2  0
 12 13  1  0
 13 14  2  3
 14 15  1  0
 15 16  2  3
 16 17  1  0
 17 18  2  0
 18 19  1  0
 19 20  2  0
 20 21  1  0
 21 22  2  0
 13 23  1  0
 23 24  2  0
 23 25  1  0
  8  3  1  0
 25 11  1  0
 22 17  1  0
  1 26  1  0
  1 27  1  0
  1 28  1  0
  4 29  1  0
  5 30  1  0
  6 31  1  0
  7 32  1  0
  9 33  1  0
 10 34  1  0
 14 35  1  0
 15 36  1  0
 16 37  1  0
 18 38  1  0
 19 39  1  0
 20 40  1  0
 21 41  1  0
 22 42  1  0
M  END
$$$$
