
     RDKit          3D

 81 84  0  0  0  0  0  0  0  0999 V2000
   -6.2647    5.6073    2.0211 C   0  0  0  0  0  0  0  0  0  0  0  0
   -5.0776    5.7157    1.2442 O   0  0  0  0  0  0  0  0  0  0  0  0
   -4.2001    4.6698    1.3083 C   0  0  0  0  0  0  0  0  0  0  0  0
   -4.2762    3.5835    2.1850 C   0  0  0  0  0  0  0  0  0  0  0  0
   -3.3048    2.5769    2.1458 C   0  0  0  0  0  0  0  0  0  0  0  0
   -2.2595    2.6606    1.2198 C   0  0  0  0  0  0  0  0  0  0  0  0
   -1.0456    1.3728    1.1684 S   0  0  0  0  0  6  0  0  0  0  0  0
   -0.2181    1.5684   -0.0046 O   0  0  0  0  0  0  0  0  0  0  0  0
   -0.4634    1.2666    2.4880 O   0  0  0  0  0  0  0  0  0  0  0  0
   -1.9665   -0.0204    0.8849 N   0  0  0  0  0  0  0  0  0  0  0  0
   -2.6671   -0.1010   -0.4169 C   0  0  0  0  0  0  0  0  0  0  0  0
   -1.3812   -1.3213    1.3446 C   0  0  0  0  0  0  0  0  0  0  0  0
    0.0296   -1.6569    0.7797 C   0  0  0  0  0  0  0  0  0  0  0  0
   -0.1134   -1.7727   -0.6529 O   0  0  0  0  0  0  0  0  0  0  0  0
    1.0486   -2.1727   -1.2562 C   0  0  0  0  0  0  0  0  0  0  0  0
    2.0626   -1.2561   -1.5976 C   0  0  0  0  0  0  0  0  0  0  0  0
    1.8572    0.1195   -1.3447 N   0  0  0  0  0  0  0  0  0  0  0  0
    2.7620    1.1599   -1.5058 C   0  0  0  0  0  0  0  0  0  0  0  0
    3.9071    1.0331   -1.9181 O   0  0  0  0  0  0  0  0  0  0  0  0
    2.1940    2.3630   -1.1224 N   0  0  0  0  0  0  0  0  0  0  0  0
    2.7837    3.6434   -1.1340 C   0  0  0  0  0  0  0  0  0  0  0  0
    2.0194    4.7057   -0.6303 C   0  0  0  0  0  0  0  0  0  0  0  0
    2.5294    6.0081   -0.6002 C   0  0  0  0  0  0  0  0  0  0  0  0
    3.8219    6.2760   -1.0767 C   0  0  0  0  0  0  0  0  0  0  0  0
    4.3948    7.6710   -1.0122 C   0  0  0  0  0  0  0  0  0  0  0  0
    3.4575    8.6429   -1.2073 F   0  0  0  0  0  0  0  0  0  0  0  0
    4.9687    7.9430    0.1921 F   0  0  0  0  0  0  0  0  0  0  0  0
    5.3619    7.9008   -1.9471 F   0  0  0  0  0  0  0  0  0  0  0  0
    4.5870    5.2100   -1.5732 C   0  0  0  0  0  0  0  0  0  0  0  0
    4.0705    3.9088   -1.6064 C   0  0  0  0  0  0  0  0  0  0  0  0
    3.2396   -1.7493   -2.1760 C   0  0  0  0  0  0  0  0  0  0  0  0
    3.3995   -3.1115   -2.4413 C   0  0  0  0  0  0  0  0  0  0  0  0
    2.3799   -4.0010   -2.1364 C   0  0  0  0  0  0  0  0  0  0  0  0
    1.2076   -3.5318   -1.5330 C   0  0  0  0  0  0  0  0  0  0  0  0
    0.1545   -4.5272   -1.2794 C   0  0  0  0  0  0  0  0  0  0  0  0
   -0.3496   -5.0361   -2.2803 O   0  0  0  0  0  0  0  0  0  0  0  0
   -0.0177   -5.0342    0.0130 N   0  0  0  0  0  0  0  0  0  0  0  0
   -0.6468   -6.3783    0.1192 C   0  0  0  0  0  0  0  0  0  0  0  0
   -2.1632   -6.3531   -0.1122 C   0  0  0  0  0  0  0  0  0  0  0  0
    0.0280   -7.4553   -0.7619 C   0  0  0  0  0  0  0  0  0  0  0  0
   -0.2766   -8.7550   -0.2561 O   0  0  0  0  0  0  0  0  0  0  0  0
   -0.1526   -4.2140    1.2366 C   0  0  0  0  0  0  0  0  0  0  0  0
    0.6664   -2.9284    1.4366 C   0  0  0  0  0  0  0  0  0  0  0  0
    0.8923   -2.6898    2.9413 C   0  0  0  0  0  0  0  0  0  0  0  0
   -2.1714    3.7404    0.3402 C   0  0  0  0  0  0  0  0  0  0  0  0
   -3.1401    4.7448    0.3950 C   0  0  0  0  0  0  0  0  0  0  0  0
   -6.0388    5.6195    3.0913 H   0  0  0  0  0  0  0  0  0  0  0  0
   -6.8838    6.4827    1.8081 H   0  0  0  0  0  0  0  0  0  0  0  0
   -6.8380    4.7128    1.7459 H   0  0  0  0  0  0  0  0  0  0  0  0
   -5.0763    3.4922    2.9144 H   0  0  0  0  0  0  0  0  0  0  0  0
   -3.3696    1.7358    2.8348 H   0  0  0  0  0  0  0  0  0  0  0  0
   -1.9648   -0.1522   -1.2519 H   0  0  0  0  0  0  0  0  0  0  0  0
   -3.3078   -0.9869   -0.4454 H   0  0  0  0  0  0  0  0  0  0  0  0
   -3.3181    0.7668   -0.5527 H   0  0  0  0  0  0  0  0  0  0  0  0
   -2.0923   -2.1089    1.0686 H   0  0  0  0  0  0  0  0  0  0  0  0
   -1.3687   -1.2897    2.4384 H   0  0  0  0  0  0  0  0  0  0  0  0
    0.6987   -0.8143    0.9863 H   0  0  0  0  0  0  0  0  0  0  0  0
    0.9443    0.3737   -0.9747 H   0  0  0  0  0  0  0  0  0  0  0  0
    1.2614    2.2926   -0.7312 H   0  0  0  0  0  0  0  0  0  0  0  0
    1.0199    4.5303   -0.2445 H   0  0  0  0  0  0  0  0  0  0  0  0
    1.9200    6.8170   -0.1970 H   0  0  0  0  0  0  0  0  0  0  0  0
    5.5995    5.3832   -1.9368 H   0  0  0  0  0  0  0  0  0  0  0  0
    4.7096    3.1243   -2.0020 H   0  0  0  0  0  0  0  0  0  0  0  0
    4.0606   -1.0942   -2.4569 H   0  0  0  0  0  0  0  0  0  0  0  0
    4.3212   -3.4679   -2.8955 H   0  0  0  0  0  0  0  0  0  0  0  0
    2.4924   -5.0569   -2.3724 H   0  0  0  0  0  0  0  0  0  0  0  0
   -0.4928   -6.7080    1.1552 H   0  0  0  0  0  0  0  0  0  0  0  0
   -2.5951   -7.3459    0.0828 H   0  0  0  0  0  0  0  0  0  0  0  0
   -2.6525   -5.6442    0.5645 H   0  0  0  0  0  0  0  0  0  0  0  0
   -2.4175   -6.0684   -1.1389 H   0  0  0  0  0  0  0  0  0  0  0  0
    1.1152   -7.3370   -0.7409 H   0  0  0  0  0  0  0  0  0  0  0  0
   -0.3158   -7.4117   -1.7972 H   0  0  0  0  0  0  0  0  0  0  0  0
   -0.0890   -9.3837   -0.9708 H   0  0  0  0  0  0  0  0  0  0  0  0
    0.1158   -4.8932    2.0586 H   0  0  0  0  0  0  0  0  0  0  0  0
   -1.2216   -4.0054    1.3564 H   0  0  0  0  0  0  0  0  0  0  0  0
    1.6707   -3.0948    1.0277 H   0  0  0  0  0  0  0  0  0  0  0  0
    1.3959   -1.7322    3.1132 H   0  0  0  0  0  0  0  0  0  0  0  0
   -0.0448   -2.6969    3.5073 H   0  0  0  0  0  0  0  0  0  0  0  0
    1.5292   -3.4751    3.3586 H   0  0  0  0  0  0  0  0  0  0  0  0
   -1.3648    3.8151   -0.3881 H   0  0  0  0  0  0  0  0  0  0  0  0
   -3.0703    5.5959   -0.2799 H   0  0  0  0  0  0  0  0  0  0  0  0
  1  2  1  0
  2  3  1  0
  3  4  2  0
  4  5  1  0
  5  6  2  0
  6  7  1  0
  7  8  2  0
  7  9  2  0
  7 10  1  0
 10 11  1  0
 10 12  1  0
 12 13  1  0
 13 14  1  0
 14 15  1  0
 15 16  2  0
 16 17  1  0
 17 18  1  0
 18 19  2  0
 18 20  1  0
 20 21  1  0
 21 22  2  0
 22 23  1  0
 23 24  2  0
 24 25  1  0
 25 26  1  0
 25 27  1  0
 25 28  1  0
 24 29  1  0
 29 30  2  0
 16 31  1  0
 31 32  2  0
 32 33  1  0
 33 34  2  0
 34 35  1  0
 35 36  2  0
 35 37  1  0
 37 38  1  0
 38 39  1  0
 38 40  1  0
 40 41  1  0
 37 42  1  0
 42 43  1  0
 43 44  1  0
  6 45  1  0
 45 46  2  0
 46  3  1  0
 43 13  1  0
 34 15  1  0
 30 21  1  0
  1 47  1  0
  1 48  1  0
  1 49  1  0
  4 50  1  0
  5 51  1  0
 11 52  1  0
 11 53  1  0
 11 54  1  0
 12 55  1  0
 12 56  1  0
 13 57  1  0
 17 58  1  0
 20 59  1  0
 22 60  1  0
 23 61  1  0
 29 62  1  0
 30 63  1  0
 31 64  1  0
 32 65  1  0
 33 66  1  0
 38 67  1  0
 39 68  1  0
 39 69  1  0
 39 70  1  0
 40 71  1  0
 40 72  1  0
 41 73  1  0
 42 74  1  0
 42 75  1  0
 43 76  1  0
 44 77  1  0
 44 78  1  0
 44 79  1  0
 45 80  1  0
 46 81  1  0
M  END
$$$$
