
     RDKit          3D

 54 57  0  0  0  0  0  0  0  0999 V2000
   -2.0968   -5.8944    1.6715 C   0  0  0  0  0  0  0  0  0  0  0  0
   -2.9694   -5.0266    0.9583 O   0  0  0  0  0  0  0  0  0  0  0  0
   -2.6438   -3.6985    0.9408 C   0  0  0  0  0  0  0  0  0  0  0  0
   -3.5650   -2.8831    0.2730 C   0  0  0  0  0  0  0  0  0  0  0  0
   -3.3585   -1.5061    0.1745 C   0  0  0  0  0  0  0  0  0  0  0  0
   -2.2078   -0.9471    0.7312 C   0  0  0  0  0  0  0  0  0  0  0  0
   -1.9750    0.5126    0.6602 C   0  0  0  0  0  0  0  0  0  0  0  0
   -2.0908    1.1765    1.7665 N   0  0  0  0  0  0  0  0  0  0  0  0
   -1.8860    2.5582    1.7475 C   0  0  0  0  0  0  0  0  0  0  0  0
   -2.0000    3.2728    2.9427 C   0  0  0  0  0  0  0  0  0  0  0  0
   -1.8062    4.6568    2.9679 C   0  0  0  0  0  0  0  0  0  0  0  0
   -1.4958    5.3393    1.7924 C   0  0  0  0  0  0  0  0  0  0  0  0
   -1.3801    4.6363    0.5940 C   0  0  0  0  0  0  0  0  0  0  0  0
   -1.5773    3.2494    0.5815 C   0  0  0  0  0  0  0  0  0  0  0  0
   -1.4542    2.4742   -0.6637 C   0  0  0  0  0  0  0  0  0  0  0  0
   -1.2027    3.0695   -1.7095 O   0  0  0  0  0  0  0  0  0  0  0  0
   -1.6467    1.0936   -0.5637 N   0  0  0  0  0  0  0  0  0  0  0  0
   -1.3633    0.3116   -1.7808 C   0  0  0  0  0  0  0  0  0  0  0  0
    0.0431   -0.3042   -1.7760 C   0  0  0  0  0  0  0  0  0  0  0  0
    1.0157    0.7402   -1.7494 O   0  0  0  0  0  0  0  0  0  0  0  0
    2.2841    0.3857   -1.3732 C   0  0  0  0  0  0  0  0  0  0  0  0
    2.8224   -0.8948   -1.5428 C   0  0  0  0  0  0  0  0  0  0  0  0
    4.1326   -1.1806   -1.1331 C   0  0  0  0  0  0  0  0  0  0  0  0
    4.7130   -2.5470   -1.3481 C   0  0  0  0  0  0  0  0  0  0  0  0
    4.9109   -0.1598   -0.5807 C   0  0  0  0  0  0  0  0  0  0  0  0
    4.3846    1.1232   -0.4246 C   0  0  0  0  0  0  0  0  0  0  0  0
    3.0727    1.4097   -0.8251 C   0  0  0  0  0  0  0  0  0  0  0  0
    2.5166    2.7945   -0.6410 C   0  0  0  0  0  0  0  0  0  0  0  0
   -1.2960   -1.7455    1.4261 C   0  0  0  0  0  0  0  0  0  0  0  0
   -1.5104   -3.1239    1.5217 C   0  0  0  0  0  0  0  0  0  0  0  0
   -2.5072   -6.9068    1.6080 H   0  0  0  0  0  0  0  0  0  0  0  0
   -2.0459   -5.6215    2.7307 H   0  0  0  0  0  0  0  0  0  0  0  0
   -1.1005   -5.9099    1.2178 H   0  0  0  0  0  0  0  0  0  0  0  0
   -4.4573   -3.3271   -0.1629 H   0  0  0  0  0  0  0  0  0  0  0  0
   -4.0945   -0.8806   -0.3232 H   0  0  0  0  0  0  0  0  0  0  0  0
   -2.2429    2.7421    3.8598 H   0  0  0  0  0  0  0  0  0  0  0  0
   -1.8982    5.1992    3.9056 H   0  0  0  0  0  0  0  0  0  0  0  0
   -1.3443    6.4157    1.8092 H   0  0  0  0  0  0  0  0  0  0  0  0
   -1.1363    5.1637   -0.3254 H   0  0  0  0  0  0  0  0  0  0  0  0
   -2.1059   -0.4817   -1.8913 H   0  0  0  0  0  0  0  0  0  0  0  0
   -1.4644    0.9568   -2.6607 H   0  0  0  0  0  0  0  0  0  0  0  0
    0.1613   -0.9630   -0.9099 H   0  0  0  0  0  0  0  0  0  0  0  0
    0.1707   -0.8893   -2.6941 H   0  0  0  0  0  0  0  0  0  0  0  0
    2.2413   -1.6839   -2.0095 H   0  0  0  0  0  0  0  0  0  0  0  0
    5.4964   -2.7606   -0.6132 H   0  0  0  0  0  0  0  0  0  0  0  0
    5.1422   -2.6177   -2.3521 H   0  0  0  0  0  0  0  0  0  0  0  0
    3.9439   -3.3183   -1.2350 H   0  0  0  0  0  0  0  0  0  0  0  0
    5.9361   -0.3536   -0.2732 H   0  0  0  0  0  0  0  0  0  0  0  0
    5.0085    1.9020    0.0078 H   0  0  0  0  0  0  0  0  0  0  0  0
    2.1199    3.1781   -1.5865 H   0  0  0  0  0  0  0  0  0  0  0  0
    1.7207    2.7828    0.1100 H   0  0  0  0  0  0  0  0  0  0  0  0
    3.2879    3.4942   -0.3027 H   0  0  0  0  0  0  0  0  0  0  0  0
   -0.4219   -1.2965    1.8930 H   0  0  0  0  0  0  0  0  0  0  0  0
   -0.7795   -3.7168    2.0615 H   0  0  0  0  0  0  0  0  0  0  0  0
  1  2  1  0
  2  3  1  0
  3  4  2  0
  4  5  1  0
  5  6  2  0
  6  7  1  0
  7  8  2  0
  8  9  1  0
  9 10  2  0
 10 11  1  0
 11 12  2  0
 12 13  1  0
 13 14  2  0
 14 15  1  0
 15 16  2  0
 15 17  1  0
 17 18  1  0
 18 19  1  0
 19 20  1  0
 20 21  1  0
 21 22  2  0
 22 23  1  0
 23 24  1  0
 23 25  2  0
 25 26  1  0
 26 27  2  0
 27 28  1  0
  6 29  1  0
 29 30  2  0
 30  3  1  0
 17  7  1  0
 27 21  1  0
 14  9  1  0
  1 31  1  0
  1 32  1  0
  1 33  1  0
  4 34  1  0
  5 35  1  0
 10 36  1  0
 11 37  1  0
 12 38  1  0
 13 39  1  0
 18 40  1  0
 18 41  1  0
 19 42  1  0
 19 43  1  0
 22 44  1  0
 24 45  1  0
 24 46  1  0
 24 47  1  0
 25 48  1  0
 26 49  1  0
 28 50  1  0
 28 51  1  0
 28 52  1  0
 29 53  1  0
 30 54  1  0
M  END
$$$$
