
     RDKit          3D

 35 35  0  0  0  0  0  0  0  0999 V2000
   -4.7048   -0.3061   -1.0547 C   0  0  0  0  0  0  0  0  0  0  0  0
   -3.3428   -0.1927   -0.3464 C   0  0  0  0  0  0  0  0  0  0  0  0
   -3.4656    0.9387    0.6901 C   0  0  0  0  0  0  0  0  0  0  0  0
   -2.2020    0.0775   -1.2596 N   0  0  0  0  0  0  0  0  0  0  0  0
   -2.2726   -0.6916   -2.5075 C   0  0  0  0  0  0  0  0  0  0  0  0
   -0.9051   -0.1837   -0.5920 C   0  0  0  0  0  0  0  0  0  0  0  0
    0.2430    0.6607   -1.1709 C   0  0  0  0  0  0  0  0  0  0  0  0
    1.5007    0.2722   -0.5863 O   0  0  0  0  0  0  0  0  0  0  0  0
    1.7701    0.8145    0.6263 C   0  0  0  0  0  0  0  0  0  0  0  0
    1.0786    1.5902    1.2598 O   0  0  0  0  0  0  0  0  0  0  0  0
    3.0692    0.2908    1.0804 C   0  0  0  0  0  0  0  0  0  0  0  0
    4.2053    0.5714    0.3060 C   0  0  0  0  0  0  0  0  0  0  0  0
    5.4588    0.1163    0.7153 C   0  0  0  0  0  0  0  0  0  0  0  0
    5.5810   -0.6164    1.8950 C   0  0  0  0  0  0  0  0  0  0  0  0
    4.4509   -0.8991    2.6663 C   0  0  0  0  0  0  0  0  0  0  0  0
    3.1902   -0.4463    2.2623 C   0  0  0  0  0  0  0  0  0  0  0  0
    1.7004   -0.9183    3.3392 Br  0  0  0  0  0  0  0  0  0  0  0  0
   -4.7529   -1.1890   -1.7003 H   0  0  0  0  0  0  0  0  0  0  0  0
   -5.5144   -0.4096   -0.3232 H   0  0  0  0  0  0  0  0  0  0  0  0
   -4.9159    0.5820   -1.6609 H   0  0  0  0  0  0  0  0  0  0  0  0
   -3.1743   -1.1410    0.1815 H   0  0  0  0  0  0  0  0  0  0  0  0
   -2.5870    1.0176    1.3361 H   0  0  0  0  0  0  0  0  0  0  0  0
   -3.6110    1.9084    0.2004 H   0  0  0  0  0  0  0  0  0  0  0  0
   -4.3240    0.7667    1.3495 H   0  0  0  0  0  0  0  0  0  0  0  0
   -3.1244   -0.3751   -3.1181 H   0  0  0  0  0  0  0  0  0  0  0  0
   -1.3926   -0.5212   -3.1362 H   0  0  0  0  0  0  0  0  0  0  0  0
   -2.3497   -1.7688   -2.3207 H   0  0  0  0  0  0  0  0  0  0  0  0
   -0.6471   -1.2508   -0.6371 H   0  0  0  0  0  0  0  0  0  0  0  0
   -0.9539    0.0360    0.4790 H   0  0  0  0  0  0  0  0  0  0  0  0
    0.0644    1.7335   -1.0274 H   0  0  0  0  0  0  0  0  0  0  0  0
    0.3495    0.4970   -2.2473 H   0  0  0  0  0  0  0  0  0  0  0  0
    4.1152    1.1489   -0.6115 H   0  0  0  0  0  0  0  0  0  0  0  0
    6.3401    0.3355    0.1166 H   0  0  0  0  0  0  0  0  0  0  0  0
    6.5583   -0.9708    2.2156 H   0  0  0  0  0  0  0  0  0  0  0  0
    4.5644   -1.4773    3.5807 H   0  0  0  0  0  0  0  0  0  0  0  0
  1  2  1  0
  2  3  1  0
  2  4  1  0
  4  5  1  0
  4  6  1  0
  6  7  1  0
  7  8  1  0
  8  9  1  0
  9 10  2  0
  9 11  1  0
 11 12  2  0
 12 13  1  0
 13 14  2  0
 14 15  1  0
 15 16  2  0
 16 17  1  0
 16 11  1  0
  1 18  1  0
  1 19  1  0
  1 20  1  0
  2 21  1  0
  3 22  1  0
  3 23  1  0
  3 24  1  0
  5 25  1  0
  5 26  1  0
  5 27  1  0
  6 28  1  0
  6 29  1  0
  7 30  1  0
  7 31  1  0
 12 32  1  0
 13 33  1  0
 14 34  1  0
 15 35  1  0
M  END
$$$$
