
     RDKit          3D

 51 54  0  0  0  0  0  0  0  0999 V2000
   -3.7117   -4.3513    2.2101 C   0  0  0  0  0  0  0  0  0  0  0  0
   -2.3041   -4.3269    2.0024 O   0  0  0  0  0  0  0  0  0  0  0  0
   -1.7975   -3.3052    1.2460 C   0  0  0  0  0  0  0  0  0  0  0  0
   -2.5288   -2.2270    0.7565 C   0  0  0  0  0  0  0  0  0  0  0  0
   -1.8996   -1.2350   -0.0212 C   0  0  0  0  0  0  0  0  0  0  0  0
   -2.6964   -0.0968   -0.5054 C   0  0  0  0  0  0  0  0  0  0  0  0
   -3.9029   -0.0687   -0.2720 O   0  0  0  0  0  0  0  0  0  0  0  0
   -2.0217    0.8882   -1.2070 N   0  0  0  0  0  0  0  0  0  0  0  0
   -2.7799    2.0680   -1.5999 C   0  0  0  0  0  0  0  0  0  0  0  0
   -2.7750    3.0527   -0.4816 C   0  0  0  0  0  0  0  0  0  0  0  0
   -3.5339    3.1869    0.6641 C   0  0  0  0  0  0  0  0  0  0  0  0
   -3.0355    4.3254    1.3409 C   0  0  0  0  0  0  0  0  0  0  0  0
   -2.0092    4.8144    0.5660 C   0  0  0  0  0  0  0  0  0  0  0  0
   -1.8470    4.0523   -0.5443 O   0  0  0  0  0  0  0  0  0  0  0  0
   -0.6849    0.8275   -1.5695 C   0  0  0  0  0  0  0  0  0  0  0  0
   -0.1477    1.7040   -2.2516 O   0  0  0  0  0  0  0  0  0  0  0  0
    0.0327   -0.2918   -1.1553 N   0  0  0  0  0  0  0  0  0  0  0  0
    1.4510   -0.3293   -1.5247 C   0  0  0  0  0  0  0  0  0  0  0  0
    2.3183    0.3390   -0.4582 C   0  0  0  0  0  0  0  0  0  0  0  0
    2.0402    0.3007    0.7408 O   0  0  0  0  0  0  0  0  0  0  0  0
    3.5761    1.0237   -0.8788 C   0  0  0  0  0  0  0  0  0  0  0  0
    4.1903    0.7712   -2.1128 C   0  0  0  0  0  0  0  0  0  0  0  0
    5.3712    1.4354   -2.4576 C   0  0  0  0  0  0  0  0  0  0  0  0
    5.9450    2.3486   -1.5739 C   0  0  0  0  0  0  0  0  0  0  0  0
    5.3410    2.5910   -0.3419 C   0  0  0  0  0  0  0  0  0  0  0  0
    6.1235    3.8251    0.8573 Br  0  0  0  0  0  0  0  0  0  0  0  0
    4.1641    1.9332    0.0123 C   0  0  0  0  0  0  0  0  0  0  0  0
   -0.5432   -1.3020   -0.3383 C   0  0  0  0  0  0  0  0  0  0  0  0
    0.1911   -2.3810    0.1675 C   0  0  0  0  0  0  0  0  0  0  0  0
   -0.4279   -3.3547    0.9620 C   0  0  0  0  0  0  0  0  0  0  0  0
    0.3426   -4.4056    1.3942 O   0  0  0  0  0  0  0  0  0  0  0  0
    0.8435   -4.1383    2.7048 C   0  0  0  0  0  0  0  0  0  0  0  0
   -4.0330   -3.4924    2.8082 H   0  0  0  0  0  0  0  0  0  0  0  0
   -4.2538   -4.3988    1.2585 H   0  0  0  0  0  0  0  0  0  0  0  0
   -3.9522   -5.2584    2.7754 H   0  0  0  0  0  0  0  0  0  0  0  0
   -3.5901   -2.1251    0.9648 H   0  0  0  0  0  0  0  0  0  0  0  0
   -2.3592    2.5199   -2.5047 H   0  0  0  0  0  0  0  0  0  0  0  0
   -3.8120    1.7872   -1.8376 H   0  0  0  0  0  0  0  0  0  0  0  0
   -4.3397    2.5319    0.9708 H   0  0  0  0  0  0  0  0  0  0  0  0
   -3.3766    4.7372    2.2796 H   0  0  0  0  0  0  0  0  0  0  0  0
   -1.3302    5.6509    0.6605 H   0  0  0  0  0  0  0  0  0  0  0  0
    1.7901   -1.3546   -1.6948 H   0  0  0  0  0  0  0  0  0  0  0  0
    1.5708    0.1938   -2.4779 H   0  0  0  0  0  0  0  0  0  0  0  0
    3.7820    0.0566   -2.8221 H   0  0  0  0  0  0  0  0  0  0  0  0
    5.8435    1.2419   -3.4181 H   0  0  0  0  0  0  0  0  0  0  0  0
    6.8570    2.8655   -1.8566 H   0  0  0  0  0  0  0  0  0  0  0  0
    3.6982    2.1298    0.9762 H   0  0  0  0  0  0  0  0  0  0  0  0
    1.2550   -2.4952   -0.0127 H   0  0  0  0  0  0  0  0  0  0  0  0
    1.2976   -5.0596    3.0858 H   0  0  0  0  0  0  0  0  0  0  0  0
    1.6213   -3.3646    2.6690 H   0  0  0  0  0  0  0  0  0  0  0  0
    0.0479   -3.8397    3.3978 H   0  0  0  0  0  0  0  0  0  0  0  0
  1  2  1  0
  2  3  1  0
  3  4  2  0
  4  5  1  0
  5  6  1  0
  6  7  2  0
  6  8  1  0
  8  9  1  0
  9 10  1  0
 10 11  2  0
 11 12  1  0
 12 13  2  0
 13 14  1  0
  8 15  1  0
 15 16  2  0
 15 17  1  0
 17 18  1  0
 18 19  1  0
 19 20  2  0
 19 21  1  0
 21 22  2  0
 22 23  1  0
 23 24  2  0
 24 25  1  0
 25 26  1  0
 25 27  2  0
 17 28  1  0
 28 29  1  0
 29 30  2  0
 30 31  1  0
 31 32  1  0
 30  3  1  0
 28  5  2  0
 14 10  1  0
 27 21  1  0
  1 33  1  0
  1 34  1  0
  1 35  1  0
  4 36  1  0
  9 37  1  0
  9 38  1  0
 11 39  1  0
 12 40  1  0
 13 41  1  0
 18 42  1  0
 18 43  1  0
 22 44  1  0
 23 45  1  0
 24 46  1  0
 27 47  1  0
 29 48  1  0
 32 49  1  0
 32 50  1  0
 32 51  1  0
M  END
$$$$
