
     RDKit          3D

 43 45  0  0  0  0  0  0  0  0999 V2000
    1.4985   -2.6866    1.2082 O   0  0  0  0  0  0  0  0  0  0  0  0
    1.8960   -1.5730    0.8681 C   0  0  0  0  0  0  0  0  0  0  0  0
    3.3920   -1.3457    0.6516 C   0  0  0  0  0  0  0  0  0  0  0  0
    3.8684    0.4226    0.6430 S   0  0  0  0  0  0  0  0  0  0  0  0
    5.4911    0.3615   -0.1090 C   0  0  0  0  0  0  0  0  0  0  0  0
    5.8530    1.4313   -0.9399 C   0  0  0  0  0  0  0  0  0  0  0  0
    7.1074    1.4648   -1.5582 C   0  0  0  0  0  0  0  0  0  0  0  0
    8.0205    0.4333   -1.3469 C   0  0  0  0  0  0  0  0  0  0  0  0
    7.6805   -0.6285   -0.5123 C   0  0  0  0  0  0  0  0  0  0  0  0
    6.4285   -0.6567    0.1014 C   0  0  0  0  0  0  0  0  0  0  0  0
    6.1559   -1.6885    0.9128 F   0  0  0  0  0  0  0  0  0  0  0  0
    1.0923   -0.4834    0.5935 N   0  0  0  0  0  0  0  0  0  0  0  0
   -0.3109   -0.3958    0.6522 C   0  0  0  0  0  0  0  0  0  0  0  0
   -0.8880    0.8419    0.3589 C   0  0  0  0  0  0  0  0  0  0  0  0
   -2.2801    1.0144    0.3905 C   0  0  0  0  0  0  0  0  0  0  0  0
   -3.1401   -0.0413    0.7114 C   0  0  0  0  0  0  0  0  0  0  0  0
   -4.5333    0.0747    0.7531 N   0  0  0  0  0  0  0  0  0  0  0  0
   -5.2308   -0.8473   -0.1802 C   0  0  0  0  0  0  0  0  0  0  0  0
   -6.6914   -0.4142   -0.3875 C   0  0  0  0  0  0  0  0  0  0  0  0
   -6.8202    0.9107   -0.9284 O   0  0  0  0  0  0  0  0  0  0  0  0
   -5.8020    1.8143   -0.4644 C   0  0  0  0  0  0  0  0  0  0  0  0
   -5.1758    1.3988    0.8742 C   0  0  0  0  0  0  0  0  0  0  0  0
   -2.5400   -1.2758    1.0054 C   0  0  0  0  0  0  0  0  0  0  0  0
   -1.1493   -1.4559    0.9773 C   0  0  0  0  0  0  0  0  0  0  0  0
    3.9178   -1.8460    1.4701 H   0  0  0  0  0  0  0  0  0  0  0  0
    3.6586   -1.8090   -0.3038 H   0  0  0  0  0  0  0  0  0  0  0  0
    5.1602    2.2521   -1.1169 H   0  0  0  0  0  0  0  0  0  0  0  0
    7.3710    2.3004   -2.2029 H   0  0  0  0  0  0  0  0  0  0  0  0
    8.9965    0.4603   -1.8256 H   0  0  0  0  0  0  0  0  0  0  0  0
    8.3842   -1.4350   -0.3284 H   0  0  0  0  0  0  0  0  0  0  0  0
    1.5902    0.3709    0.3640 H   0  0  0  0  0  0  0  0  0  0  0  0
   -0.2686    1.6956    0.0967 H   0  0  0  0  0  0  0  0  0  0  0  0
   -2.6669    1.9938    0.1290 H   0  0  0  0  0  0  0  0  0  0  0  0
   -4.7255   -0.8384   -1.1552 H   0  0  0  0  0  0  0  0  0  0  0  0
   -5.2159   -1.8689    0.2148 H   0  0  0  0  0  0  0  0  0  0  0  0
   -7.2435   -0.4482    0.5590 H   0  0  0  0  0  0  0  0  0  0  0  0
   -7.1914   -1.0995   -1.0795 H   0  0  0  0  0  0  0  0  0  0  0  0
   -6.2626    2.8032   -0.3744 H   0  0  0  0  0  0  0  0  0  0  0  0
   -5.0361    1.8776   -1.2459 H   0  0  0  0  0  0  0  0  0  0  0  0
   -5.9706    1.3070    1.6255 H   0  0  0  0  0  0  0  0  0  0  0  0
   -4.4987    2.1715    1.2516 H   0  0  0  0  0  0  0  0  0  0  0  0
   -3.1582   -2.1236    1.2915 H   0  0  0  0  0  0  0  0  0  0  0  0
   -0.7626   -2.4393    1.2229 H   0  0  0  0  0  0  0  0  0  0  0  0
  1  2  2  0
  2  3  1  0
  3  4  1  0
  4  5  1  0
  5  6  2  0
  6  7  1  0
  7  8  2  0
  8  9  1  0
  9 10  2  0
 10 11  1  0
  2 12  1  0
 12 13  1  0
 13 14  2  0
 14 15  1  0
 15 16  2  0
 16 17  1  0
 17 18  1  0
 18 19  1  0
 19 20  1  0
 20 21  1  0
 21 22  1  0
 16 23  1  0
 23 24  2  0
 10  5  1  0
 24 13  1  0
 22 17  1  0
  3 25  1  0
  3 26  1  0
  6 27  1  0
  7 28  1  0
  8 29  1  0
  9 30  1  0
 12 31  1  0
 14 32  1  0
 15 33  1  0
 18 34  1  0
 18 35  1  0
 19 36  1  0
 19 37  1  0
 21 38  1  0
 21 39  1  0
 22 40  1  0
 22 41  1  0
 23 42  1  0
 24 43  1  0
M  END
$$$$
