
     RDKit          3D

 57 60  0  0  0  0  0  0  0  0999 V2000
   -6.3361   -0.7412   -0.2935 C   0  0  0  0  0  0  0  0  0  0  0  0
   -5.3417   -1.8764   -0.5285 C   0  0  0  0  0  0  0  0  0  0  0  0
   -6.0331   -3.2205   -0.2806 C   0  0  0  0  0  0  0  0  0  0  0  0
   -4.1181   -1.7225    0.3815 C   0  0  0  0  0  0  0  0  0  0  0  0
   -3.9509   -2.4766    1.3433 O   0  0  0  0  0  0  0  0  0  0  0  0
   -3.2190   -0.6997    0.1187 N   0  0  0  0  0  0  0  0  0  0  0  0
   -2.0986   -0.5185    1.0524 C   0  0  0  0  0  0  0  0  0  0  0  0
   -1.4369    0.8626    0.9255 C   0  0  0  0  0  0  0  0  0  0  0  0
   -0.9350    1.0840   -0.4553 N   0  0  0  0  0  0  0  0  0  0  0  0
   -0.5622    2.4426   -0.6453 C   0  0  0  0  0  0  0  0  0  0  0  0
   -1.5021    3.4569   -0.8799 C   0  0  0  0  0  0  0  0  0  0  0  0
   -1.0915    4.7820   -1.0350 C   0  0  0  0  0  0  0  0  0  0  0  0
    0.2606    5.1080   -0.9548 C   0  0  0  0  0  0  0  0  0  0  0  0
    1.2119    4.1136   -0.7186 C   0  0  0  0  0  0  0  0  0  0  0  0
    0.8102    2.7872   -0.5622 C   0  0  0  0  0  0  0  0  0  0  0  0
    1.6973    1.7134   -0.3398 N   0  0  0  0  0  0  0  0  0  0  0  0
    3.0603    1.7522   -0.1531 C   0  0  0  0  0  0  0  0  0  0  0  0
    3.7619    2.7546   -0.0874 O   0  0  0  0  0  0  0  0  0  0  0  0
    3.7068    0.4194    0.0189 C   0  0  0  0  0  0  0  0  0  0  0  0
    3.2356   -0.7232   -0.6457 C   0  0  0  0  0  0  0  0  0  0  0  0
    3.8740   -1.9525   -0.4614 C   0  0  0  0  0  0  0  0  0  0  0  0
    4.9860   -2.0401    0.3739 C   0  0  0  0  0  0  0  0  0  0  0  0
    5.4508   -0.9049    1.0464 C   0  0  0  0  0  0  0  0  0  0  0  0
    4.8272    0.3263    0.8546 C   0  0  0  0  0  0  0  0  0  0  0  0
    6.5209   -0.9269    1.9039 O   0  0  0  0  0  0  0  0  0  0  0  0
    6.8620   -2.2652    2.2823 C   0  0  0  0  0  0  0  0  0  0  0  0
    6.8794   -3.1783    1.0677 C   0  0  0  0  0  0  0  0  0  0  0  0
    5.5725   -3.2743    0.4888 O   0  0  0  0  0  0  0  0  0  0  0  0
   -1.7813    0.5185   -1.5341 C   0  0  0  0  0  0  0  0  0  0  0  0
   -3.2079    0.1686   -1.0680 C   0  0  0  0  0  0  0  0  0  0  0  0
   -5.9084    0.2351   -0.5351 H   0  0  0  0  0  0  0  0  0  0  0  0
   -6.6518   -0.7061    0.7553 H   0  0  0  0  0  0  0  0  0  0  0  0
   -7.2296   -0.8713   -0.9133 H   0  0  0  0  0  0  0  0  0  0  0  0
   -5.0135   -1.8814   -1.5722 H   0  0  0  0  0  0  0  0  0  0  0  0
   -6.4202   -3.2917    0.7420 H   0  0  0  0  0  0  0  0  0  0  0  0
   -6.8722   -3.3591   -0.9706 H   0  0  0  0  0  0  0  0  0  0  0  0
   -5.3341   -4.0507   -0.4304 H   0  0  0  0  0  0  0  0  0  0  0  0
   -1.3692   -1.3079    0.8323 H   0  0  0  0  0  0  0  0  0  0  0  0
   -2.4517   -0.6675    2.0790 H   0  0  0  0  0  0  0  0  0  0  0  0
   -0.6007    0.9269    1.6319 H   0  0  0  0  0  0  0  0  0  0  0  0
   -2.1717    1.6304    1.2027 H   0  0  0  0  0  0  0  0  0  0  0  0
   -2.5620    3.2304   -0.9299 H   0  0  0  0  0  0  0  0  0  0  0  0
   -1.8267    5.5624   -1.2137 H   0  0  0  0  0  0  0  0  0  0  0  0
    0.5813    6.1400   -1.0751 H   0  0  0  0  0  0  0  0  0  0  0  0
    2.2575    4.3997   -0.6667 H   0  0  0  0  0  0  0  0  0  0  0  0
    1.2031    0.8290   -0.2676 H   0  0  0  0  0  0  0  0  0  0  0  0
    2.3953   -0.6680   -1.3327 H   0  0  0  0  0  0  0  0  0  0  0  0
    3.5181   -2.8369   -0.9835 H   0  0  0  0  0  0  0  0  0  0  0  0
    5.2047    1.2091    1.3658 H   0  0  0  0  0  0  0  0  0  0  0  0
    6.1402   -2.6096    3.0333 H   0  0  0  0  0  0  0  0  0  0  0  0
    7.8518   -2.2361    2.7483 H   0  0  0  0  0  0  0  0  0  0  0  0
    7.1886   -4.1875    1.3570 H   0  0  0  0  0  0  0  0  0  0  0  0
    7.5745   -2.8142    0.3009 H   0  0  0  0  0  0  0  0  0  0  0  0
   -1.8250    1.1715   -2.4147 H   0  0  0  0  0  0  0  0  0  0  0  0
   -1.2910   -0.4057   -1.8655 H   0  0  0  0  0  0  0  0  0  0  0  0
   -3.7487   -0.2940   -1.8952 H   0  0  0  0  0  0  0  0  0  0  0  0
   -3.7417    1.0841   -0.7903 H   0  0  0  0  0  0  0  0  0  0  0  0
  1  2  1  0
  2  3  1  0
  2  4  1  0
  4  5  2  0
  4  6  1  0
  6  7  1  0
  7  8  1  0
  8  9  1  0
  9 10  1  0
 10 11  2  0
 11 12  1  0
 12 13  2  0
 13 14  1  0
 14 15  2  0
 15 16  1  0
 16 17  1  0
 17 18  2  0
 17 19  1  0
 19 20  2  0
 20 21  1  0
 21 22  2  0
 22 23  1  0
 23 24  2  0
 23 25  1  0
 25 26  1  0
 26 27  1  0
 27 28  1  0
  9 29  1  0
 29 30  1  0
 30  6  1  0
 15 10  1  0
 24 19  1  0
 28 22  1  0
  1 31  1  0
  1 32  1  0
  1 33  1  0
  2 34  1  0
  3 35  1  0
  3 36  1  0
  3 37  1  0
  7 38  1  0
  7 39  1  0
  8 40  1  0
  8 41  1  0
 11 42  1  0
 12 43  1  0
 13 44  1  0
 14 45  1  0
 16 46  1  0
 20 47  1  0
 21 48  1  0
 24 49  1  0
 26 50  1  0
 26 51  1  0
 27 52  1  0
 27 53  1  0
 29 54  1  0
 29 55  1  0
 30 56  1  0
 30 57  1  0
M  END
$$$$
