
     RDKit          3D

 35 36  0  0  0  0  0  0  0  0999 V2000
    5.3655   -1.7585    1.8309 C   0  0  0  0  0  0  0  0  0  0  0  0
    4.3446   -0.8696    1.1823 C   0  0  0  0  0  0  0  0  0  0  0  0
    3.6500    0.0812    1.9428 C   0  0  0  0  0  0  0  0  0  0  0  0
    2.6815    0.8925    1.3497 C   0  0  0  0  0  0  0  0  0  0  0  0
    2.3923    0.7343   -0.0070 C   0  0  0  0  0  0  0  0  0  0  0  0
    1.1588    1.7581   -0.7793 S   0  0  0  0  0  6  0  0  0  0  0  0
    0.7948    2.7950    0.1678 O   0  0  0  0  0  0  0  0  0  0  0  0
    1.6780    2.1062   -2.0894 O   0  0  0  0  0  0  0  0  0  0  0  0
   -0.2329    0.6720   -1.0062 C   0  0  0  0  0  0  0  0  0  0  0  0
   -0.8414    0.2512    0.3186 C   0  0  0  0  0  0  0  0  0  0  0  0
   -2.1553   -0.9921    0.0889 S   0  0  0  0  0  0  0  0  0  0  0  0
   -3.4617   -0.0030   -0.4697 C   0  0  0  0  0  0  0  0  0  0  0  0
   -3.3852    1.2815   -0.7284 N   0  0  0  0  0  0  0  0  0  0  0  0
   -4.6412    1.6437   -1.1406 C   0  0  0  0  0  0  0  0  0  0  0  0
   -5.4884    0.5603   -1.1334 C   0  0  0  0  0  0  0  0  0  0  0  0
   -4.7209   -0.4895   -0.7012 N   0  0  0  0  0  0  0  0  0  0  0  0
   -5.1844   -1.8443   -0.5289 C   0  0  0  0  0  0  0  0  0  0  0  0
    3.0782   -0.2054   -0.7800 C   0  0  0  0  0  0  0  0  0  0  0  0
    4.0456   -1.0124   -0.1797 C   0  0  0  0  0  0  0  0  0  0  0  0
    4.8844   -2.6655    2.2096 H   0  0  0  0  0  0  0  0  0  0  0  0
    6.1459   -2.0428    1.1172 H   0  0  0  0  0  0  0  0  0  0  0  0
    5.8585   -1.2448    2.6629 H   0  0  0  0  0  0  0  0  0  0  0  0
    3.8674    0.2013    3.0025 H   0  0  0  0  0  0  0  0  0  0  0  0
    2.1653    1.6384    1.9503 H   0  0  0  0  0  0  0  0  0  0  0  0
    0.1196   -0.1854   -1.5896 H   0  0  0  0  0  0  0  0  0  0  0  0
   -0.9456    1.2284   -1.6227 H   0  0  0  0  0  0  0  0  0  0  0  0
   -1.2292    1.1096    0.8775 H   0  0  0  0  0  0  0  0  0  0  0  0
   -0.0855   -0.2186    0.9546 H   0  0  0  0  0  0  0  0  0  0  0  0
   -4.8691    2.6643   -1.4207 H   0  0  0  0  0  0  0  0  0  0  0  0
   -6.5336    0.4573   -1.3893 H   0  0  0  0  0  0  0  0  0  0  0  0
   -5.0574   -2.1285    0.5187 H   0  0  0  0  0  0  0  0  0  0  0  0
   -4.6060   -2.4994   -1.1852 H   0  0  0  0  0  0  0  0  0  0  0  0
   -6.2428   -1.9038   -0.7963 H   0  0  0  0  0  0  0  0  0  0  0  0
    2.8754   -0.3094   -1.8436 H   0  0  0  0  0  0  0  0  0  0  0  0
    4.5749   -1.7476   -0.7829 H   0  0  0  0  0  0  0  0  0  0  0  0
  1  2  1  0
  2  3  2  0
  3  4  1  0
  4  5  2  0
  5  6  1  0
  6  7  2  0
  6  8  2  0
  6  9  1  0
  9 10  1  0
 10 11  1  0
 11 12  1  0
 12 13  2  0
 13 14  1  0
 14 15  2  0
 15 16  1  0
 16 17  1  0
  5 18  1  0
 18 19  2  0
 19  2  1  0
 16 12  1  0
  1 20  1  0
  1 21  1  0
  1 22  1  0
  3 23  1  0
  4 24  1  0
  9 25  1  0
  9 26  1  0
 10 27  1  0
 10 28  1  0
 14 29  1  0
 15 30  1  0
 17 31  1  0
 17 32  1  0
 17 33  1  0
 18 34  1  0
 19 35  1  0
M  END
$$$$
