
     RDKit          3D

 53 58  0  0  0  0  0  0  0  0999 V2000
   -0.8567   -1.8197    0.0269 O   0  0  0  0  0  0  0  0  0  0  0  0
   -1.4567   -0.7974    0.3730 C   0  0  0  0  0  0  0  0  0  0  0  0
   -0.6757    0.2590    1.1859 C   0  0  0  0  0  0  0  0  0  0  0  0
    0.7611    0.2409    0.8365 N   0  0  0  0  0  4  0  0  0  0  0  0
    1.8359    0.0923    1.7102 C   0  0  0  0  0  0  0  0  0  0  0  0
    3.0165    0.0692    0.9751 C   0  0  0  0  0  0  0  0  0  0  0  0
    4.4707   -0.1118    1.5477 C   0  0  0  0  0  0  0  0  0  0  0  0
    4.6737   -0.2061    2.9294 C   0  0  0  0  0  0  0  0  0  0  0  0
    5.9662   -0.3664    3.4421 C   0  0  0  0  0  0  0  0  0  0  0  0
    7.0646   -0.4368    2.5824 C   0  0  0  0  0  0  0  0  0  0  0  0
    8.6278   -0.6336    3.2838 Cl  0  0  0  0  0  0  0  0  0  0  0  0
    6.8632   -0.3483    1.2028 C   0  0  0  0  0  0  0  0  0  0  0  0
    8.1634   -0.4319    0.0683 Cl  0  0  0  0  0  0  0  0  0  0  0  0
    5.5687   -0.1875    0.6887 C   0  0  0  0  0  0  0  0  0  0  0  0
    2.5833    0.2350   -0.3283 N   0  0  0  0  0  0  0  0  0  0  0  0
    1.2553    0.2890   -0.3977 C   0  0  0  0  0  0  0  0  0  0  0  0
    0.7458    0.4185   -1.7840 C   0  0  0  0  0  0  0  0  0  0  0  0
    2.0249    0.7849   -2.5608 C   0  0  0  0  0  0  0  0  0  0  0  0
    3.1936    0.3203   -1.6493 C   0  0  0  0  0  0  0  0  0  0  0  0
   -2.7414   -0.4178   -0.0557 N   0  0  0  0  0  0  0  0  0  0  0  0
   -3.5497    0.5237    0.6721 C   0  0  0  0  0  0  0  0  0  0  0  0
   -3.5559    0.4870    2.0802 C   0  0  0  0  0  0  0  0  0  0  0  0
   -4.3162    1.3922    2.8246 C   0  0  0  0  0  0  0  0  0  0  0  0
   -5.0964    2.3407    2.1753 C   0  0  0  0  0  0  0  0  0  0  0  0
   -5.1351    2.3673    0.7830 C   0  0  0  0  0  0  0  0  0  0  0  0
   -4.3825    1.4542    0.0311 C   0  0  0  0  0  0  0  0  0  0  0  0
   -4.4842    1.5427   -1.7354 S   0  0  0  0  0  0  0  0  0  0  0  0
   -4.1377   -0.1636   -2.1010 C   0  0  0  0  0  0  0  0  0  0  0  0
   -4.6633   -0.6853   -3.2934 C   0  0  0  0  0  0  0  0  0  0  0  0
   -4.3825   -1.9928   -3.6774 C   0  0  0  0  0  0  0  0  0  0  0  0
   -3.5722   -2.7826   -2.8734 C   0  0  0  0  0  0  0  0  0  0  0  0
   -3.0403   -2.2647   -1.6875 C   0  0  0  0  0  0  0  0  0  0  0  0
   -3.3080   -0.9475   -1.2745 C   0  0  0  0  0  0  0  0  0  0  0  0
   -0.7728    0.0363    2.2520 H   0  0  0  0  0  0  0  0  0  0  0  0
   -1.0245    1.2738    0.9741 H   0  0  0  0  0  0  0  0  0  0  0  0
    1.6204    0.0033    2.7613 H   0  0  0  0  0  0  0  0  0  0  0  0
    3.8524   -0.1554    3.6394 H   0  0  0  0  0  0  0  0  0  0  0  0
    6.1128   -0.4362    4.5191 H   0  0  0  0  0  0  0  0  0  0  0  0
    5.4514   -0.1374   -0.3862 H   0  0  0  0  0  0  0  0  0  0  0  0
    0.3539   -0.5585   -2.0727 H   0  0  0  0  0  0  0  0  0  0  0  0
   -0.0201    1.1944   -1.8121 H   0  0  0  0  0  0  0  0  0  0  0  0
    2.0748    1.8743   -2.6751 H   0  0  0  0  0  0  0  0  0  0  0  0
    2.0616    0.3397   -3.5586 H   0  0  0  0  0  0  0  0  0  0  0  0
    4.0090    1.0470   -1.6584 H   0  0  0  0  0  0  0  0  0  0  0  0
    3.5494   -0.6730   -1.9378 H   0  0  0  0  0  0  0  0  0  0  0  0
   -3.0261   -0.2890    2.6281 H   0  0  0  0  0  0  0  0  0  0  0  0
   -4.3231    1.3409    3.9119 H   0  0  0  0  0  0  0  0  0  0  0  0
   -5.6981    3.0428    2.7494 H   0  0  0  0  0  0  0  0  0  0  0  0
   -5.7709    3.0998    0.2876 H   0  0  0  0  0  0  0  0  0  0  0  0
   -5.2968   -0.0738   -3.9339 H   0  0  0  0  0  0  0  0  0  0  0  0
   -4.7999   -2.3942   -4.5981 H   0  0  0  0  0  0  0  0  0  0  0  0
   -3.3608   -3.8113   -3.1591 H   0  0  0  0  0  0  0  0  0  0  0  0
   -2.4529   -2.9465   -1.0782 H   0  0  0  0  0  0  0  0  0  0  0  0
  1  2  2  0
  2  3  1  0
  3  4  1  0
  4  5  1  0
  5  6  2  0
  6  7  1  0
  7  8  2  0
  8  9  1  0
  9 10  2  0
 10 11  1  0
 10 12  1  0
 12 13  1  0
 12 14  2  0
  6 15  1  0
 15 16  1  0
 16 17  1  0
 17 18  1  0
 18 19  1  0
  2 20  1  0
 20 21  1  0
 21 22  2  0
 22 23  1  0
 23 24  2  0
 24 25  1  0
 25 26  2  0
 26 27  1  0
 27 28  1  0
 28 29  2  0
 29 30  1  0
 30 31  2  0
 31 32  1  0
 32 33  2  0
 16  4  2  0
 33 20  1  0
 14  7  1  0
 19 15  1  0
 26 21  1  0
 33 28  1  0
  3 34  1  0
  3 35  1  0
  5 36  1  0
  8 37  1  0
  9 38  1  0
 14 39  1  0
 17 40  1  0
 17 41  1  0
 18 42  1  0
 18 43  1  0
 19 44  1  0
 19 45  1  0
 22 46  1  0
 23 47  1  0
 24 48  1  0
 25 49  1  0
 29 50  1  0
 30 51  1  0
 31 52  1  0
 32 53  1  0
M  CHG  1   4   1
M  END
$$$$
