
     RDKit          3D

 57 59  0  0  0  0  0  0  0  0999 V2000
   11.3246    1.2447   -2.2124 C   0  0  0  0  0  0  0  0  0  0  0  0
   10.3736    0.3663   -2.7999 O   0  0  0  0  0  0  0  0  0  0  0  0
    9.1466    0.2974   -2.2018 C   0  0  0  0  0  0  0  0  0  0  0  0
    8.2382   -0.5584   -2.8284 C   0  0  0  0  0  0  0  0  0  0  0  0
    6.9445   -0.7321   -2.3224 C   0  0  0  0  0  0  0  0  0  0  0  0
    6.5463   -0.0472   -1.1763 C   0  0  0  0  0  0  0  0  0  0  0  0
    5.3245   -0.1123   -0.5721 O   0  0  0  0  0  0  0  0  0  0  0  0
    4.3587   -1.0517   -1.0542 C   0  0  0  0  0  0  0  0  0  0  0  0
    3.5122   -0.4663   -2.1856 C   0  0  0  0  0  0  0  0  0  0  0  0
    2.4040    0.8726   -1.6303 S   0  0  0  0  0  0  0  0  0  0  0  0
    1.1559   -0.0323   -0.8493 C   0  0  0  0  0  0  0  0  0  0  0  0
    1.1006   -1.3378   -0.7234 N   0  0  0  0  0  0  0  0  0  0  0  0
   -0.0319   -1.6401   -0.0105 N   0  0  0  0  0  0  0  0  0  0  0  0
   -0.6434   -0.5122    0.2908 C   0  0  0  0  0  0  0  0  0  0  0  0
   -1.8955   -0.4015    1.0857 C   0  0  0  0  0  0  0  0  0  0  0  0
   -3.1300   -0.3856    0.1888 C   0  0  0  0  0  0  0  0  0  0  0  0
   -4.3553   -0.3364    0.9692 N   0  0  0  0  0  0  0  0  0  0  0  0
   -5.5044    0.2205    0.4392 C   0  0  0  0  0  0  0  0  0  0  0  0
   -5.5361    0.8209   -0.6269 O   0  0  0  0  0  0  0  0  0  0  0  0
   -6.7510    0.0195    1.2285 C   0  0  0  0  0  0  0  0  0  0  0  0
   -6.7347   -0.1024    2.6217 C   0  0  0  0  0  0  0  0  0  0  0  0
   -7.9291   -0.2943    3.3274 C   0  0  0  0  0  0  0  0  0  0  0  0
   -9.1446   -0.3620    2.6477 C   0  0  0  0  0  0  0  0  0  0  0  0
  -10.3731   -0.5545    3.2162 O   0  0  0  0  0  0  0  0  0  0  0  0
  -10.4151   -0.7023    4.6274 C   0  0  0  0  0  0  0  0  0  0  0  0
   -9.1577   -0.2202    1.2587 C   0  0  0  0  0  0  0  0  0  0  0  0
   -7.9704   -0.0239    0.5496 C   0  0  0  0  0  0  0  0  0  0  0  0
    0.0714    0.5363   -0.2409 N   0  0  0  0  0  0  0  0  0  0  0  0
   -0.2408    1.9393   -0.1643 C   0  0  0  0  0  0  0  0  0  0  0  0
    7.4545    0.8136   -0.5531 C   0  0  0  0  0  0  0  0  0  0  0  0
    8.7479    0.9866   -1.0587 C   0  0  0  0  0  0  0  0  0  0  0  0
   10.9799    2.2824   -2.2566 H   0  0  0  0  0  0  0  0  0  0  0  0
   11.5584    0.9458   -1.1861 H   0  0  0  0  0  0  0  0  0  0  0  0
   12.2469    1.1762   -2.7951 H   0  0  0  0  0  0  0  0  0  0  0  0
    8.5382   -1.0938   -3.7264 H   0  0  0  0  0  0  0  0  0  0  0  0
    6.2813   -1.4022   -2.8574 H   0  0  0  0  0  0  0  0  0  0  0  0
    4.8339   -1.9891   -1.3633 H   0  0  0  0  0  0  0  0  0  0  0  0
    3.7315   -1.3236   -0.1991 H   0  0  0  0  0  0  0  0  0  0  0  0
    4.1561   -0.0307   -2.9548 H   0  0  0  0  0  0  0  0  0  0  0  0
    2.9163   -1.2519   -2.6637 H   0  0  0  0  0  0  0  0  0  0  0  0
   -1.8730    0.4875    1.7268 H   0  0  0  0  0  0  0  0  0  0  0  0
   -1.9538   -1.2568    1.7701 H   0  0  0  0  0  0  0  0  0  0  0  0
   -3.1800   -1.2905   -0.4289 H   0  0  0  0  0  0  0  0  0  0  0  0
   -3.0967    0.4713   -0.4949 H   0  0  0  0  0  0  0  0  0  0  0  0
   -4.4794   -1.0594    1.6697 H   0  0  0  0  0  0  0  0  0  0  0  0
   -5.8052   -0.0249    3.1783 H   0  0  0  0  0  0  0  0  0  0  0  0
   -7.8760   -0.3801    4.4056 H   0  0  0  0  0  0  0  0  0  0  0  0
   -9.8211   -1.5596    4.9567 H   0  0  0  0  0  0  0  0  0  0  0  0
  -11.4538   -0.8924    4.9136 H   0  0  0  0  0  0  0  0  0  0  0  0
  -10.0931    0.2212    5.1217 H   0  0  0  0  0  0  0  0  0  0  0  0
  -10.1021   -0.2573    0.7247 H   0  0  0  0  0  0  0  0  0  0  0  0
   -8.0017    0.0928   -0.5291 H   0  0  0  0  0  0  0  0  0  0  0  0
   -0.1324    2.3869   -1.1559 H   0  0  0  0  0  0  0  0  0  0  0  0
    0.4412    2.4079    0.5479 H   0  0  0  0  0  0  0  0  0  0  0  0
   -1.2715    2.0803    0.1663 H   0  0  0  0  0  0  0  0  0  0  0  0
    7.1520    1.3531    0.3436 H   0  0  0  0  0  0  0  0  0  0  0  0
    9.4136    1.6626   -0.5331 H   0  0  0  0  0  0  0  0  0  0  0  0
  1  2  1  0
  2  3  1  0
  3  4  2  0
  4  5  1  0
  5  6  2  0
  6  7  1  0
  7  8  1  0
  8  9  1  0
  9 10  1  0
 10 11  1  0
 11 12  2  0
 12 13  1  0
 13 14  2  0
 14 15  1  0
 15 16  1  0
 16 17  1  0
 17 18  1  0
 18 19  2  0
 18 20  1  0
 20 21  2  0
 21 22  1  0
 22 23  2  0
 23 24  1  0
 24 25  1  0
 23 26  1  0
 26 27  2  0
 14 28  1  0
 28 29  1  0
  6 30  1  0
 30 31  2  0
 31  3  1  0
 28 11  1  0
 27 20  1  0
  1 32  1  0
  1 33  1  0
  1 34  1  0
  4 35  1  0
  5 36  1  0
  8 37  1  0
  8 38  1  0
  9 39  1  0
  9 40  1  0
 15 41  1  0
 15 42  1  0
 16 43  1  0
 16 44  1  0
 17 45  1  0
 21 46  1  0
 22 47  1  0
 25 48  1  0
 25 49  1  0
 25 50  1  0
 26 51  1  0
 27 52  1  0
 29 53  1  0
 29 54  1  0
 29 55  1  0
 30 56  1  0
 31 57  1  0
M  END
$$$$
