
     RDKit          3D

 33 34  0  0  0  0  0  0  0  0999 V2000
   -2.5379   -1.6611   -1.2628 C   0  0  0  0  0  0  0  0  0  0  0  0
   -2.4325   -0.9758    0.0941 C   0  0  0  0  0  0  0  0  0  0  0  0
   -1.7944    0.3559   -0.0106 N   0  0  0  0  0  0  0  0  0  0  0  0
   -2.0078    1.1938    1.1911 C   0  0  0  0  0  0  0  0  0  0  0  0
   -1.6943    2.6604    0.9218 C   0  0  0  0  0  0  0  0  0  0  0  0
   -0.4116    0.2714   -0.3787 C   0  0  0  0  0  0  0  0  0  0  0  0
   -0.1047    0.8508   -1.6272 C   0  0  0  0  0  0  0  0  0  0  0  0
    1.1896    0.8427   -2.1160 C   0  0  0  0  0  0  0  0  0  0  0  0
    2.1836    0.2430   -1.3432 C   0  0  0  0  0  0  0  0  0  0  0  0
    3.5235    0.2466   -1.9007 N   0  0  0  0  0  4  0  0  0  0  0  0
    4.0368   -0.8508   -2.1554 O   0  0  0  0  0  0  0  0  0  0  0  0
    4.0471    1.3512   -2.0969 O   0  0  0  0  0  1  0  0  0  0  0  0
    1.9324   -0.3455   -0.0765 C   0  0  0  0  0  0  0  0  0  0  0  0
    2.9261   -0.9391    0.7435 C   0  0  0  0  0  0  0  0  0  0  0  0
    2.6018   -1.4938    1.9727 C   0  0  0  0  0  0  0  0  0  0  0  0
    1.2866   -1.4421    2.3639 C   0  0  0  0  0  0  0  0  0  0  0  0
    0.3114   -0.8819    1.6200 N   0  0  0  0  0  0  0  0  0  0  0  0
    0.6047   -0.3327    0.4152 C   0  0  0  0  0  0  0  0  0  0  0  0
   -3.0293   -1.0112   -1.9944 H   0  0  0  0  0  0  0  0  0  0  0  0
   -1.5536   -1.9328   -1.6569 H   0  0  0  0  0  0  0  0  0  0  0  0
   -3.1248   -2.5810   -1.1748 H   0  0  0  0  0  0  0  0  0  0  0  0
   -1.9296   -1.6297    0.8139 H   0  0  0  0  0  0  0  0  0  0  0  0
   -3.4566   -0.8427    0.4653 H   0  0  0  0  0  0  0  0  0  0  0  0
   -1.4456    0.8368    2.0600 H   0  0  0  0  0  0  0  0  0  0  0  0
   -3.0680    1.1395    1.4693 H   0  0  0  0  0  0  0  0  0  0  0  0
   -1.9822    3.2708    1.7838 H   0  0  0  0  0  0  0  0  0  0  0  0
   -2.2421    3.0253    0.0467 H   0  0  0  0  0  0  0  0  0  0  0  0
   -0.6261    2.8204    0.7449 H   0  0  0  0  0  0  0  0  0  0  0  0
   -0.9024    1.3090   -2.2091 H   0  0  0  0  0  0  0  0  0  0  0  0
    1.4112    1.2941   -3.0799 H   0  0  0  0  0  0  0  0  0  0  0  0
    3.9686   -0.9797    0.4324 H   0  0  0  0  0  0  0  0  0  0  0  0
    3.3560   -1.9527    2.6017 H   0  0  0  0  0  0  0  0  0  0  0  0
    0.9639   -1.8589    3.3135 H   0  0  0  0  0  0  0  0  0  0  0  0
  1  2  1  0
  2  3  1  0
  3  4  1  0
  4  5  1  0
  3  6  1  0
  6  7  2  0
  7  8  1  0
  8  9  2  0
  9 10  1  0
 10 11  2  0
 10 12  1  0
  9 13  1  0
 13 14  2  0
 14 15  1  0
 15 16  2  0
 16 17  1  0
 17 18  2  0
 18  6  1  0
 18 13  1  0
  1 19  1  0
  1 20  1  0
  1 21  1  0
  2 22  1  0
  2 23  1  0
  4 24  1  0
  4 25  1  0
  5 26  1  0
  5 27  1  0
  5 28  1  0
  7 29  1  0
  8 30  1  0
 14 31  1  0
 15 32  1  0
 16 33  1  0
M  CHG  2  10   1  12  -1
M  END
$$$$
