
     RDKit          3D

 38 40  0  0  0  0  0  0  0  0999 V2000
   -2.2849   -2.0436   -0.6035 C   0  0  0  0  0  0  0  0  0  0  0  0
   -1.5013   -0.8016   -0.1677 C   0  0  0  0  0  0  0  0  0  0  0  0
   -1.7693   -0.4745    1.3218 C   0  0  0  0  0  0  0  0  0  0  0  0
   -1.5345    1.0342    1.4410 C   0  0  0  0  0  0  0  0  0  0  0  0
   -1.1777    1.4856    0.0178 C   0  0  0  0  0  0  0  0  0  0  0  0
    0.3307    1.3832   -0.1438 C   0  0  0  0  0  0  0  0  0  0  0  0
    0.9795    2.4213   -0.2822 O   0  0  0  0  0  0  0  0  0  0  0  0
    0.8536    0.0754   -0.1578 N   0  0  0  0  0  0  0  0  0  0  0  0
    2.2949   -0.0812   -0.1768 C   0  0  0  0  0  0  0  0  0  0  0  0
    2.9252   -1.1095   -0.8986 C   0  0  0  0  0  0  0  0  0  0  0  0
    4.3179   -1.2548   -0.9010 C   0  0  0  0  0  0  0  0  0  0  0  0
    5.1129   -0.3729   -0.1776 C   0  0  0  0  0  0  0  0  0  0  0  0
    4.5100    0.6511    0.5431 C   0  0  0  0  0  0  0  0  0  0  0  0
    5.4867    1.7392    1.4526 Cl  0  0  0  0  0  0  0  0  0  0  0  0
    3.1202    0.7993    0.5456 C   0  0  0  0  0  0  0  0  0  0  0  0
    0.0231   -1.0611   -0.2835 C   0  0  0  0  0  0  0  0  0  0  0  0
    0.4261   -2.2214   -0.3890 O   0  0  0  0  0  0  0  0  0  0  0  0
   -1.8907    0.4951   -0.9142 C   0  0  0  0  0  0  0  0  0  0  0  0
   -1.4243    0.5595   -2.3808 C   0  0  0  0  0  0  0  0  0  0  0  0
   -3.4129    0.7756   -0.9277 C   0  0  0  0  0  0  0  0  0  0  0  0
   -2.0929   -2.2829   -1.6549 H   0  0  0  0  0  0  0  0  0  0  0  0
   -3.3643   -1.9140   -0.4765 H   0  0  0  0  0  0  0  0  0  0  0  0
   -1.9994   -2.9208   -0.0112 H   0  0  0  0  0  0  0  0  0  0  0  0
   -2.7986   -0.7138    1.6137 H   0  0  0  0  0  0  0  0  0  0  0  0
   -1.1064   -1.0271    1.9979 H   0  0  0  0  0  0  0  0  0  0  0  0
   -2.4488    1.5288    1.7880 H   0  0  0  0  0  0  0  0  0  0  0  0
   -0.7456    1.2580    2.1677 H   0  0  0  0  0  0  0  0  0  0  0  0
   -1.4802    2.5235   -0.1610 H   0  0  0  0  0  0  0  0  0  0  0  0
    2.3556   -1.8075   -1.5076 H   0  0  0  0  0  0  0  0  0  0  0  0
    4.7762   -2.0576   -1.4739 H   0  0  0  0  0  0  0  0  0  0  0  0
    6.1932   -0.4882   -0.1796 H   0  0  0  0  0  0  0  0  0  0  0  0
    2.6940    1.6008    1.1440 H   0  0  0  0  0  0  0  0  0  0  0  0
   -1.6127    1.5546   -2.8003 H   0  0  0  0  0  0  0  0  0  0  0  0
   -0.3595    0.3522   -2.5160 H   0  0  0  0  0  0  0  0  0  0  0  0
   -1.9677   -0.1674   -2.9949 H   0  0  0  0  0  0  0  0  0  0  0  0
   -3.9380    0.0810   -1.5928 H   0  0  0  0  0  0  0  0  0  0  0  0
   -3.8770    0.6917    0.0591 H   0  0  0  0  0  0  0  0  0  0  0  0
   -3.6131    1.7896   -1.2934 H   0  0  0  0  0  0  0  0  0  0  0  0
  1  2  1  0
  2  3  1  0
  3  4  1  0
  4  5  1  0
  5  6  1  0
  6  7  2  0
  6  8  1  0
  8  9  1  0
  9 10  2  0
 10 11  1  0
 11 12  2  0
 12 13  1  0
 13 14  1  0
 13 15  2  0
  8 16  1  0
 16 17  2  0
  5 18  1  0
 18 19  1  0
 18 20  1  0
 16  2  1  0
 18  2  1  0
 15  9  1  0
  1 21  1  0
  1 22  1  0
  1 23  1  0
  3 24  1  0
  3 25  1  0
  4 26  1  0
  4 27  1  0
  5 28  1  0
 10 29  1  0
 11 30  1  0
 12 31  1  0
 15 32  1  0
 19 33  1  0
 19 34  1  0
 19 35  1  0
 20 36  1  0
 20 37  1  0
 20 38  1  0
M  END
$$$$
