
     RDKit          3D

 29 29  0  0  0  0  0  0  0  0999 V2000
   -6.1976   -2.2646   -0.4896 C   0  0  0  0  0  0  0  0  0  0  0  0
   -4.9986   -2.2101   -0.4388 C   0  0  0  0  0  0  0  0  0  0  0  0
   -3.5324   -2.1427   -0.3760 C   0  0  0  0  0  0  0  0  0  0  0  0
   -3.0977   -0.7823   -0.6649 N   0  0  0  0  0  0  0  0  0  0  0  0
   -1.6434   -0.6246   -0.6711 C   0  0  0  0  0  0  0  0  0  0  0  0
   -1.0229   -0.6353    0.7308 C   0  0  0  0  0  0  0  0  0  0  0  0
    0.4921   -0.4337    0.6819 C   0  0  0  0  0  0  0  0  0  0  0  0
    0.7678    0.8626    0.1577 O   0  0  0  0  0  0  0  0  0  0  0  0
    2.0772    1.2324    0.0022 C   0  0  0  0  0  0  0  0  0  0  0  0
    3.1732    0.4474    0.3758 C   0  0  0  0  0  0  0  0  0  0  0  0
    4.4773    0.9146    0.1776 C   0  0  0  0  0  0  0  0  0  0  0  0
    4.6912    2.1671   -0.3932 C   0  0  0  0  0  0  0  0  0  0  0  0
    6.2982    2.7319   -0.6322 Cl  0  0  0  0  0  0  0  0  0  0  0  0
    3.6148    2.9626   -0.7694 C   0  0  0  0  0  0  0  0  0  0  0  0
    2.3135    2.4950   -0.5709 C   0  0  0  0  0  0  0  0  0  0  0  0
    1.0059    3.5199   -1.0549 Cl  0  0  0  0  0  0  0  0  0  0  0  0
   -7.2608   -2.3061   -0.5423 H   0  0  0  0  0  0  0  0  0  0  0  0
   -3.1090   -2.8398   -1.1079 H   0  0  0  0  0  0  0  0  0  0  0  0
   -3.2059   -2.4602    0.6196 H   0  0  0  0  0  0  0  0  0  0  0  0
   -3.5194   -0.1408    0.0051 H   0  0  0  0  0  0  0  0  0  0  0  0
   -1.4266    0.3362   -1.1521 H   0  0  0  0  0  0  0  0  0  0  0  0
   -1.1805   -1.3922   -1.3032 H   0  0  0  0  0  0  0  0  0  0  0  0
   -1.2283   -1.5855    1.2351 H   0  0  0  0  0  0  0  0  0  0  0  0
   -1.4747    0.1659    1.3288 H   0  0  0  0  0  0  0  0  0  0  0  0
    0.9441   -1.2075    0.0498 H   0  0  0  0  0  0  0  0  0  0  0  0
    0.8867   -0.5119    1.7019 H   0  0  0  0  0  0  0  0  0  0  0  0
    3.0510   -0.5323    0.8264 H   0  0  0  0  0  0  0  0  0  0  0  0
    5.3210    0.2949    0.4723 H   0  0  0  0  0  0  0  0  0  0  0  0
    3.7839    3.9393   -1.2139 H   0  0  0  0  0  0  0  0  0  0  0  0
  1  2  3  0
  2  3  1  0
  3  4  1  0
  4  5  1  0
  5  6  1  0
  6  7  1  0
  7  8  1  0
  8  9  1  0
  9 10  2  0
 10 11  1  0
 11 12  2  0
 12 13  1  0
 12 14  1  0
 14 15  2  0
 15 16  1  0
 15  9  1  0
  1 17  1  0
  3 18  1  0
  3 19  1  0
  4 20  1  0
  5 21  1  0
  5 22  1  0
  6 23  1  0
  6 24  1  0
  7 25  1  0
  7 26  1  0
 10 27  1  0
 11 28  1  0
 14 29  1  0
M  END
$$$$
