
     RDKit          3D

 43 45  0  0  0  0  0  0  0  0999 V2000
    1.3914   -0.3534   -2.4879 O   0  0  0  0  0  0  0  0  0  0  0  0
    1.8326   -0.0402   -1.3846 C   0  0  0  0  0  0  0  0  0  0  0  0
    3.3346    0.1123   -1.1736 C   0  0  0  0  0  0  0  0  0  0  0  0
    3.8711   -0.6735    0.3885 S   0  0  0  0  0  0  0  0  0  0  0  0
    5.6447   -0.6277    0.1798 C   0  0  0  0  0  0  0  0  0  0  0  0
    6.3679   -1.8063    0.4003 C   0  0  0  0  0  0  0  0  0  0  0  0
    7.7596   -1.8226    0.2617 C   0  0  0  0  0  0  0  0  0  0  0  0
    8.4431   -0.6590   -0.0895 C   0  0  0  0  0  0  0  0  0  0  0  0
    7.7354    0.5230   -0.2972 C   0  0  0  0  0  0  0  0  0  0  0  0
    6.3488    0.5332   -0.1580 C   0  0  0  0  0  0  0  0  0  0  0  0
    5.7037    1.6946   -0.3448 F   0  0  0  0  0  0  0  0  0  0  0  0
    1.0815    0.2803   -0.2661 N   0  0  0  0  0  0  0  0  0  0  0  0
   -0.3200    0.3115   -0.1417 C   0  0  0  0  0  0  0  0  0  0  0  0
   -1.2045    0.0944   -1.1934 C   0  0  0  0  0  0  0  0  0  0  0  0
   -2.5923    0.1492   -0.9844 C   0  0  0  0  0  0  0  0  0  0  0  0
   -3.1389    0.4105    0.2783 C   0  0  0  0  0  0  0  0  0  0  0  0
   -4.5174    0.4846    0.5314 N   0  0  0  0  0  0  0  0  0  0  0  0
   -4.9954   -0.5025    1.5318 C   0  0  0  0  0  0  0  0  0  0  0  0
   -6.4500   -0.1907    1.9231 C   0  0  0  0  0  0  0  0  0  0  0  0
   -7.3147   -0.1506    0.7767 O   0  0  0  0  0  0  0  0  0  0  0  0
   -6.8627    0.8575   -0.1422 C   0  0  0  0  0  0  0  0  0  0  0  0
   -5.4329    0.5715   -0.6275 C   0  0  0  0  0  0  0  0  0  0  0  0
   -2.2305    0.6425    1.3220 C   0  0  0  0  0  0  0  0  0  0  0  0
   -0.8449    0.5923    1.1206 C   0  0  0  0  0  0  0  0  0  0  0  0
    3.5653    1.1810   -1.1714 H   0  0  0  0  0  0  0  0  0  0  0  0
    3.8505   -0.3678   -2.0115 H   0  0  0  0  0  0  0  0  0  0  0  0
    5.8548   -2.7249    0.6782 H   0  0  0  0  0  0  0  0  0  0  0  0
    8.3093   -2.7460    0.4305 H   0  0  0  0  0  0  0  0  0  0  0  0
    9.5252   -0.6730   -0.1954 H   0  0  0  0  0  0  0  0  0  0  0  0
    8.2540    1.4394   -0.5615 H   0  0  0  0  0  0  0  0  0  0  0  0
    1.6130    0.4400    0.5834 H   0  0  0  0  0  0  0  0  0  0  0  0
   -0.8549   -0.1192   -2.1985 H   0  0  0  0  0  0  0  0  0  0  0  0
   -3.2278   -0.0370   -1.8447 H   0  0  0  0  0  0  0  0  0  0  0  0
   -4.3884   -0.4943    2.4433 H   0  0  0  0  0  0  0  0  0  0  0  0
   -4.9438   -1.5078    1.0940 H   0  0  0  0  0  0  0  0  0  0  0  0
   -6.8274   -0.9683    2.5946 H   0  0  0  0  0  0  0  0  0  0  0  0
   -6.5165    0.7679    2.4517 H   0  0  0  0  0  0  0  0  0  0  0  0
   -7.5501    0.8607   -0.9940 H   0  0  0  0  0  0  0  0  0  0  0  0
   -6.9267    1.8384    0.3439 H   0  0  0  0  0  0  0  0  0  0  0  0
   -5.4287   -0.3794   -1.1752 H   0  0  0  0  0  0  0  0  0  0  0  0
   -5.1265    1.3780   -1.3038 H   0  0  0  0  0  0  0  0  0  0  0  0
   -2.5990    0.8971    2.3126 H   0  0  0  0  0  0  0  0  0  0  0  0
   -0.1923    0.7841    1.9678 H   0  0  0  0  0  0  0  0  0  0  0  0
  1  2  2  0
  2  3  1  0
  3  4  1  0
  4  5  1  0
  5  6  2  0
  6  7  1  0
  7  8  2  0
  8  9  1  0
  9 10  2  0
 10 11  1  0
  2 12  1  0
 12 13  1  0
 13 14  2  0
 14 15  1  0
 15 16  2  0
 16 17  1  0
 17 18  1  0
 18 19  1  0
 19 20  1  0
 20 21  1  0
 21 22  1  0
 16 23  1  0
 23 24  2  0
 10  5  1  0
 24 13  1  0
 22 17  1  0
  3 25  1  0
  3 26  1  0
  6 27  1  0
  7 28  1  0
  8 29  1  0
  9 30  1  0
 12 31  1  0
 14 32  1  0
 15 33  1  0
 18 34  1  0
 18 35  1  0
 19 36  1  0
 19 37  1  0
 21 38  1  0
 21 39  1  0
 22 40  1  0
 22 41  1  0
 23 42  1  0
 24 43  1  0
M  END
$$$$
