
     RDKit          3D

 34 35  0  0  0  0  0  0  0  0999 V2000
    4.4300   -1.9368    0.6461 C   0  0  0  0  0  0  0  0  0  0  0  0
    4.0195   -0.6569   -0.0553 C   0  0  0  0  0  0  0  0  0  0  0  0
    2.6577   -0.3766    0.2864 O   0  0  0  0  0  0  0  0  0  0  0  0
    2.1674    0.7358   -0.2948 C   0  0  0  0  0  0  0  0  0  0  0  0
    2.7408    1.5311   -1.0143 O   0  0  0  0  0  0  0  0  0  0  0  0
    0.7205    0.9199    0.1337 C   0  0  0  0  0  0  0  0  0  0  0  0
   -0.1562    0.1774   -0.4562 N   0  0  0  0  0  0  0  0  0  0  0  0
   -1.4847    0.3034   -0.1058 N   0  0  0  0  0  0  0  0  0  0  0  0
   -2.3548   -0.5861   -0.8417 C   0  0  0  0  0  0  0  0  0  0  0  0
   -3.7440   -0.6374   -0.6525 C   0  0  0  0  0  0  0  0  0  0  0  0
   -4.5527   -1.5161   -1.3879 C   0  0  0  0  0  0  0  0  0  0  0  0
   -3.9912   -2.3666   -2.3326 C   0  0  0  0  0  0  0  0  0  0  0  0
   -2.6192   -2.3397   -2.5434 C   0  0  0  0  0  0  0  0  0  0  0  0
   -1.8149   -1.4614   -1.8075 C   0  0  0  0  0  0  0  0  0  0  0  0
   -1.9180    1.2115    0.8711 C   0  0  0  0  0  0  0  0  0  0  0  0
   -3.0771    1.3846    1.2437 O   0  0  0  0  0  0  0  0  0  0  0  0
   -0.8531    2.0413    1.5149 C   0  0  0  0  0  0  0  0  0  0  0  0
   -1.2781    2.9685    2.5099 C   0  0  0  0  0  0  0  0  0  0  0  0
   -1.5511    3.7424    3.3308 N   0  0  0  0  0  0  0  0  0  0  0  0
    0.4423    1.9256    1.1796 C   0  0  0  0  0  0  0  0  0  0  0  0
    1.5904    2.6983    1.7598 C   0  0  0  0  0  0  0  0  0  0  0  0
    3.7842   -2.7672    0.3417 H   0  0  0  0  0  0  0  0  0  0  0  0
    4.3245   -1.8326    1.7310 H   0  0  0  0  0  0  0  0  0  0  0  0
    5.4676   -2.1930    0.4149 H   0  0  0  0  0  0  0  0  0  0  0  0
    4.1110   -0.7829   -1.1401 H   0  0  0  0  0  0  0  0  0  0  0  0
    4.6603    0.1684    0.2752 H   0  0  0  0  0  0  0  0  0  0  0  0
   -4.2563   -0.0061    0.0648 H   0  0  0  0  0  0  0  0  0  0  0  0
   -5.6264   -1.5289   -1.2154 H   0  0  0  0  0  0  0  0  0  0  0  0
   -4.6207   -3.0457   -2.9010 H   0  0  0  0  0  0  0  0  0  0  0  0
   -2.1672   -2.9991   -3.2798 H   0  0  0  0  0  0  0  0  0  0  0  0
   -0.7465   -1.4772   -2.0096 H   0  0  0  0  0  0  0  0  0  0  0  0
    1.2912    3.3700    2.5693 H   0  0  0  0  0  0  0  0  0  0  0  0
    2.0644    3.3151    0.9894 H   0  0  0  0  0  0  0  0  0  0  0  0
    2.3406    2.0172    2.1754 H   0  0  0  0  0  0  0  0  0  0  0  0
  1  2  1  0
  2  3  1  0
  3  4  1  0
  4  5  2  0
  4  6  1  0
  6  7  2  0
  7  8  1  0
  8  9  1  0
  9 10  2  0
 10 11  1  0
 11 12  2  0
 12 13  1  0
 13 14  2  0
  8 15  1  0
 15 16  2  0
 15 17  1  0
 17 18  1  0
 18 19  3  0
 17 20  2  0
 20 21  1  0
 20  6  1  0
 14  9  1  0
  1 22  1  0
  1 23  1  0
  1 24  1  0
  2 25  1  0
  2 26  1  0
 10 27  1  0
 11 28  1  0
 12 29  1  0
 13 30  1  0
 14 31  1  0
 21 32  1  0
 21 33  1  0
 21 34  1  0
M  END
$$$$
