
     RDKit          3D

 57 59  0  0  0  0  0  0  0  0999 V2000
   -6.9225    0.1016    1.0968 C   0  0  0  0  0  0  0  0  0  0  0  0
   -5.5595   -0.0209    1.4686 O   0  0  0  0  0  0  0  0  0  0  0  0
   -4.6179    0.0250    0.4707 C   0  0  0  0  0  0  0  0  0  0  0  0
   -4.9179    0.1279   -0.8945 C   0  0  0  0  0  0  0  0  0  0  0  0
   -3.8940    0.1654   -1.8422 C   0  0  0  0  0  0  0  0  0  0  0  0
   -2.5695    0.0863   -1.4185 C   0  0  0  0  0  0  0  0  0  0  0  0
   -1.2461    0.1615   -2.5987 S   0  0  0  0  0  6  0  0  0  0  0  0
   -1.7962    0.5525   -3.8786 O   0  0  0  0  0  0  0  0  0  0  0  0
   -0.1748    0.9163   -1.9868 O   0  0  0  0  0  0  0  0  0  0  0  0
   -0.7736   -1.4636   -2.6947 N   0  0  0  0  0  0  0  0  0  0  0  0
   -1.7357   -2.3920   -3.3228 C   0  0  0  0  0  0  0  0  0  0  0  0
   -0.8452   -3.4227   -3.9733 C   0  0  0  0  0  0  0  0  0  0  0  0
    0.2967   -2.6751   -4.3969 O   0  0  0  0  0  0  0  0  0  0  0  0
    0.5263   -1.6688   -3.3917 C   0  0  0  0  0  0  0  0  0  0  0  0
    1.5919   -2.1968   -2.3962 C   0  0  0  0  0  0  0  0  0  0  0  0
    1.7089   -1.4323   -1.1736 N   0  0  0  0  0  0  0  0  0  0  0  0
    2.4125   -0.2508   -1.1260 C   0  0  0  0  0  0  0  0  0  0  0  0
    3.1747    0.1641   -1.9877 O   0  0  0  0  0  0  0  0  0  0  0  0
    2.1437    0.5695    0.1603 C   0  0  0  0  0  0  0  0  0  0  0  0
    1.3607    0.1493    1.0033 O   0  0  0  0  0  0  0  0  0  0  0  0
    2.8579    1.7403    0.2204 N   0  0  0  0  0  0  0  0  0  0  0  0
    2.8157    2.6205    1.3557 C   0  0  0  0  0  0  0  0  0  0  0  0
    3.9051    2.2855    2.3426 C   0  0  0  0  0  0  0  0  0  0  0  0
    5.1833    2.8508    2.2157 C   0  0  0  0  0  0  0  0  0  0  0  0
    6.1938    2.5178    3.1189 C   0  0  0  0  0  0  0  0  0  0  0  0
    5.9289    1.6179    4.1438 C   0  0  0  0  0  0  0  0  0  0  0  0
    6.9000    1.2960    5.0077 F   0  0  0  0  0  0  0  0  0  0  0  0
    4.6758    1.0409    4.2808 C   0  0  0  0  0  0  0  0  0  0  0  0
    3.6636    1.3698    3.3784 C   0  0  0  0  0  0  0  0  0  0  0  0
   -2.2506   -0.0027   -0.0597 C   0  0  0  0  0  0  0  0  0  0  0  0
   -3.2711   -0.0360    0.8908 C   0  0  0  0  0  0  0  0  0  0  0  0
   -3.0589   -0.1127    2.2448 O   0  0  0  0  0  0  0  0  0  0  0  0
   -1.7142   -0.1752    2.7022 C   0  0  0  0  0  0  0  0  0  0  0  0
   -7.1148    1.0658    0.6174 H   0  0  0  0  0  0  0  0  0  0  0  0
   -7.2340   -0.7291    0.4551 H   0  0  0  0  0  0  0  0  0  0  0  0
   -7.5230    0.0590    2.0108 H   0  0  0  0  0  0  0  0  0  0  0  0
   -5.9402    0.1906   -1.2500 H   0  0  0  0  0  0  0  0  0  0  0  0
   -4.1396    0.2603   -2.8973 H   0  0  0  0  0  0  0  0  0  0  0  0
   -2.4056   -2.8405   -2.5859 H   0  0  0  0  0  0  0  0  0  0  0  0
   -2.3326   -1.8916   -4.0916 H   0  0  0  0  0  0  0  0  0  0  0  0
   -0.5215   -4.1903   -3.2615 H   0  0  0  0  0  0  0  0  0  0  0  0
   -1.3153   -3.9123   -4.8303 H   0  0  0  0  0  0  0  0  0  0  0  0
    0.8840   -0.7648   -3.8942 H   0  0  0  0  0  0  0  0  0  0  0  0
    2.5659   -2.2307   -2.8986 H   0  0  0  0  0  0  0  0  0  0  0  0
    1.3598   -3.2249   -2.0974 H   0  0  0  0  0  0  0  0  0  0  0  0
    1.0078   -1.5516   -0.4473 H   0  0  0  0  0  0  0  0  0  0  0  0
    3.5039    1.9177   -0.5439 H   0  0  0  0  0  0  0  0  0  0  0  0
    2.9384    3.6453    0.9877 H   0  0  0  0  0  0  0  0  0  0  0  0
    1.8321    2.5650    1.8373 H   0  0  0  0  0  0  0  0  0  0  0  0
    5.3973    3.5466    1.4102 H   0  0  0  0  0  0  0  0  0  0  0  0
    7.1826    2.9477    3.0274 H   0  0  0  0  0  0  0  0  0  0  0  0
    4.4945    0.3374    5.0838 H   0  0  0  0  0  0  0  0  0  0  0  0
    2.6844    0.9025    3.4773 H   0  0  0  0  0  0  0  0  0  0  0  0
   -1.2048   -0.0322    0.2308 H   0  0  0  0  0  0  0  0  0  0  0  0
   -1.1617    0.7282    2.4286 H   0  0  0  0  0  0  0  0  0  0  0  0
   -1.2141   -1.0752    2.3310 H   0  0  0  0  0  0  0  0  0  0  0  0
   -1.7356   -0.2323    3.7947 H   0  0  0  0  0  0  0  0  0  0  0  0
  1  2  1  0
  2  3  1  0
  3  4  2  0
  4  5  1  0
  5  6  2  0
  6  7  1  0
  7  8  2  0
  7  9  2  0
  7 10  1  0
 10 11  1  0
 11 12  1  0
 12 13  1  0
 13 14  1  0
 14 15  1  0
 15 16  1  0
 16 17  1  0
 17 18  2  0
 17 19  1  0
 19 20  2  0
 19 21  1  0
 21 22  1  0
 22 23  1  0
 23 24  2  0
 24 25  1  0
 25 26  2  0
 26 27  1  0
 26 28  1  0
 28 29  2  0
  6 30  1  0
 30 31  2  0
 31 32  1  0
 32 33  1  0
 31  3  1  0
 14 10  1  0
 29 23  1  0
  1 34  1  0
  1 35  1  0
  1 36  1  0
  4 37  1  0
  5 38  1  0
 11 39  1  0
 11 40  1  0
 12 41  1  0
 12 42  1  0
 14 43  1  0
 15 44  1  0
 15 45  1  0
 16 46  1  0
 21 47  1  0
 22 48  1  0
 22 49  1  0
 24 50  1  0
 25 51  1  0
 28 52  1  0
 29 53  1  0
 30 54  1  0
 33 55  1  0
 33 56  1  0
 33 57  1  0
M  END
$$$$
