
     RDKit          3D

 42 44  0  0  0  0  0  0  0  0999 V2000
   -8.2527   -1.1580    1.2419 C   0  0  0  0  0  0  0  0  0  0  0  0
   -7.6281   -0.2498    0.2151 C   0  0  0  0  0  0  0  0  0  0  0  0
   -8.3235    0.4404   -0.5273 O   0  0  0  0  0  0  0  0  0  0  0  0
   -6.1393   -0.1961    0.1078 C   0  0  0  0  0  0  0  0  0  0  0  0
   -5.3015   -0.9537    0.9310 C   0  0  0  0  0  0  0  0  0  0  0  0
   -3.9104   -0.8663    0.7892 C   0  0  0  0  0  0  0  0  0  0  0  0
   -3.3354   -0.0271   -0.1740 C   0  0  0  0  0  0  0  0  0  0  0  0
   -1.9270    0.0030   -0.2443 N   0  0  0  0  0  0  0  0  0  0  0  0
   -1.1481    0.6920   -1.1570 C   0  0  0  0  0  0  0  0  0  0  0  0
   -1.5430    1.3463   -2.1143 O   0  0  0  0  0  0  0  0  0  0  0  0
    0.3235    0.5668   -0.9508 C   0  0  0  0  0  0  0  0  0  0  0  0
    0.8904    0.4795    0.3245 C   0  0  0  0  0  0  0  0  0  0  0  0
    2.2790    0.3608    0.4725 C   0  0  0  0  0  0  0  0  0  0  0  0
    3.1166    0.3388   -0.6452 C   0  0  0  0  0  0  0  0  0  0  0  0
    4.5215    0.2239   -0.5834 N   0  0  0  0  0  0  0  0  0  0  0  0
    5.3142    0.0443    0.5443 C   0  0  0  0  0  0  0  0  0  0  0  0
    4.8699   -0.0755    1.6826 O   0  0  0  0  0  0  0  0  0  0  0  0
    6.7447   -0.0053    0.2621 C   0  0  0  0  0  0  0  0  0  0  0  0
    7.5059    0.1700   -0.8840 C   0  0  0  0  0  0  0  0  0  0  0  0
    8.8631   -0.0043   -0.5128 C   0  0  0  0  0  0  0  0  0  0  0  0
    8.8579   -0.2733    0.8330 C   0  0  0  0  0  0  0  0  0  0  0  0
    7.5896   -0.2754    1.3099 O   0  0  0  0  0  0  0  0  0  0  0  0
    2.5435    0.4518   -1.9189 C   0  0  0  0  0  0  0  0  0  0  0  0
    1.1581    0.5683   -2.0722 C   0  0  0  0  0  0  0  0  0  0  0  0
   -4.1752    0.7301   -0.9904 C   0  0  0  0  0  0  0  0  0  0  0  0
   -5.5665    0.6459   -0.8519 C   0  0  0  0  0  0  0  0  0  0  0  0
   -7.9792   -2.1978    1.0449 H   0  0  0  0  0  0  0  0  0  0  0  0
   -7.9497   -0.8574    2.2481 H   0  0  0  0  0  0  0  0  0  0  0  0
   -9.3424   -1.0769    1.1778 H   0  0  0  0  0  0  0  0  0  0  0  0
   -5.6996   -1.6196    1.6908 H   0  0  0  0  0  0  0  0  0  0  0  0
   -3.2849   -1.4681    1.4444 H   0  0  0  0  0  0  0  0  0  0  0  0
   -1.4429   -0.6004    0.4073 H   0  0  0  0  0  0  0  0  0  0  0  0
    0.2778    0.5342    1.2204 H   0  0  0  0  0  0  0  0  0  0  0  0
    2.6722    0.3047    1.4833 H   0  0  0  0  0  0  0  0  0  0  0  0
    4.9987    0.2517   -1.4721 H   0  0  0  0  0  0  0  0  0  0  0  0
    7.1446    0.4030   -1.8750 H   0  0  0  0  0  0  0  0  0  0  0  0
    9.7369    0.0614   -1.1462 H   0  0  0  0  0  0  0  0  0  0  0  0
    9.6308   -0.4745    1.5623 H   0  0  0  0  0  0  0  0  0  0  0  0
    3.1614    0.4519   -2.8135 H   0  0  0  0  0  0  0  0  0  0  0  0
    0.7312    0.6591   -3.0696 H   0  0  0  0  0  0  0  0  0  0  0  0
   -3.7834    1.4037   -1.7468 H   0  0  0  0  0  0  0  0  0  0  0  0
   -6.1985    1.2479   -1.5033 H   0  0  0  0  0  0  0  0  0  0  0  0
  1  2  1  0
  2  3  2  0
  2  4  1  0
  4  5  2  0
  5  6  1  0
  6  7  2  0
  7  8  1  0
  8  9  1  0
  9 10  2  0
  9 11  1  0
 11 12  2  0
 12 13  1  0
 13 14  2  0
 14 15  1  0
 15 16  1  0
 16 17  2  0
 16 18  1  0
 18 19  2  0
 19 20  1  0
 20 21  2  0
 21 22  1  0
 14 23  1  0
 23 24  2  0
  7 25  1  0
 25 26  2  0
 26  4  1  0
 24 11  1  0
 22 18  1  0
  1 27  1  0
  1 28  1  0
  1 29  1  0
  5 30  1  0
  6 31  1  0
  8 32  1  0
 12 33  1  0
 13 34  1  0
 15 35  1  0
 19 36  1  0
 20 37  1  0
 21 38  1  0
 23 39  1  0
 24 40  1  0
 25 41  1  0
 26 42  1  0
M  END
$$$$
