
     RDKit          3D

 67 72  0  0  0  0  0  0  0  0999 V2000
    2.3463   -3.4187    0.6750 O   0  0  0  0  0  0  0  0  0  0  0  0
    2.0608   -2.2172    0.7068 C   0  0  0  0  0  0  0  0  0  0  0  0
    3.1194   -1.1954    1.1373 C   0  0  0  0  0  0  0  0  0  0  0  0
    3.9799   -0.8415   -0.0913 C   0  0  0  0  0  0  0  0  0  0  0  0
    5.1821    0.0088    0.2505 C   0  0  0  0  0  0  0  0  0  0  0  0
    6.3481   -0.5807    0.7579 C   0  0  0  0  0  0  0  0  0  0  0  0
    7.4476    0.2093    1.0965 C   0  0  0  0  0  0  0  0  0  0  0  0
    7.3915    1.5926    0.9333 C   0  0  0  0  0  0  0  0  0  0  0  0
    6.2369    2.1878    0.4290 C   0  0  0  0  0  0  0  0  0  0  0  0
    5.1365    1.4005    0.0886 C   0  0  0  0  0  0  0  0  0  0  0  0
    2.5218   -0.0187    1.7577 N   0  0  0  0  0  0  0  0  0  0  0  0
    1.4276    0.5112    1.0842 C   0  0  0  0  0  0  0  0  0  0  0  0
    1.3158    1.8433    1.1821 N   0  0  0  0  0  0  0  0  0  0  0  0
    0.2304    2.3746    0.6280 C   0  0  0  0  0  0  0  0  0  0  0  0
   -0.7673    1.6931    0.0602 N   0  0  0  0  0  0  0  0  0  0  0  0
   -0.6671    0.3472    0.0167 C   0  0  0  0  0  0  0  0  0  0  0  0
   -1.8302   -0.3498   -0.3583 N   0  0  0  0  0  0  0  0  0  0  0  0
   -2.7851    0.4017   -1.2166 C   0  0  0  0  0  0  0  0  0  0  0  0
   -3.7358    1.3576   -0.4532 C   0  0  0  0  0  0  0  0  0  0  0  0
   -4.3779    0.6740    0.7006 N   0  0  0  0  0  0  0  0  0  0  0  0
   -5.4040    1.4359    1.2853 C   0  0  0  0  0  0  0  0  0  0  0  0
   -6.5709    1.6919    0.5450 C   0  0  0  0  0  0  0  0  0  0  0  0
   -7.6297    2.4358    1.0744 C   0  0  0  0  0  0  0  0  0  0  0  0
   -7.5451    2.9388    2.3678 C   0  0  0  0  0  0  0  0  0  0  0  0
   -6.4033    2.6968    3.1245 C   0  0  0  0  0  0  0  0  0  0  0  0
   -5.3469    1.9499    2.5883 C   0  0  0  0  0  0  0  0  0  0  0  0
   -3.3796    0.0599    1.6016 C   0  0  0  0  0  0  0  0  0  0  0  0
   -2.5138   -0.9553    0.8221 C   0  0  0  0  0  0  0  0  0  0  0  0
    0.5061   -0.3133    0.4254 C   0  0  0  0  0  0  0  0  0  0  0  0
    0.8384   -1.7107    0.2376 N   0  0  0  0  0  0  0  0  0  0  0  0
    0.1056   -2.5895   -0.6699 C   0  0  0  0  0  0  0  0  0  0  0  0
    0.6696   -2.5510   -2.0808 C   0  0  0  0  0  0  0  0  0  0  0  0
    0.2741   -1.5589   -2.9893 C   0  0  0  0  0  0  0  0  0  0  0  0
    0.8167   -1.5124   -4.2759 C   0  0  0  0  0  0  0  0  0  0  0  0
    1.7604   -2.4597   -4.6646 C   0  0  0  0  0  0  0  0  0  0  0  0
    2.4280   -2.4016   -6.2491 Cl  0  0  0  0  0  0  0  0  0  0  0  0
    2.1666   -3.4524   -3.7773 C   0  0  0  0  0  0  0  0  0  0  0  0
    1.6236   -3.4974   -2.4908 C   0  0  0  0  0  0  0  0  0  0  0  0
    3.7380   -1.6820    1.9014 H   0  0  0  0  0  0  0  0  0  0  0  0
    3.3810   -0.3329   -0.8582 H   0  0  0  0  0  0  0  0  0  0  0  0
    4.3334   -1.7620   -0.5753 H   0  0  0  0  0  0  0  0  0  0  0  0
    6.4087   -1.6589    0.8920 H   0  0  0  0  0  0  0  0  0  0  0  0
    8.3486   -0.2544    1.4894 H   0  0  0  0  0  0  0  0  0  0  0  0
    8.2483    2.2064    1.1985 H   0  0  0  0  0  0  0  0  0  0  0  0
    6.1913    3.2665    0.3029 H   0  0  0  0  0  0  0  0  0  0  0  0
    4.2395    1.8817   -0.2979 H   0  0  0  0  0  0  0  0  0  0  0  0
    3.1622    0.7275    2.0160 H   0  0  0  0  0  0  0  0  0  0  0  0
    0.1356    3.4540    0.6599 H   0  0  0  0  0  0  0  0  0  0  0  0
   -3.4007   -0.3474   -1.7317 H   0  0  0  0  0  0  0  0  0  0  0  0
   -2.2546    0.9460   -2.0081 H   0  0  0  0  0  0  0  0  0  0  0  0
   -3.1967    2.2430   -0.0977 H   0  0  0  0  0  0  0  0  0  0  0  0
   -4.4853    1.7098   -1.1721 H   0  0  0  0  0  0  0  0  0  0  0  0
   -6.6708    1.2873   -0.4596 H   0  0  0  0  0  0  0  0  0  0  0  0
   -8.5195    2.6130    0.4765 H   0  0  0  0  0  0  0  0  0  0  0  0
   -8.3657    3.5162    2.7843 H   0  0  0  0  0  0  0  0  0  0  0  0
   -6.3278    3.0907    4.1343 H   0  0  0  0  0  0  0  0  0  0  0  0
   -4.4715    1.8013    3.2113 H   0  0  0  0  0  0  0  0  0  0  0  0
   -2.7364    0.8290    2.0459 H   0  0  0  0  0  0  0  0  0  0  0  0
   -3.8832   -0.4800    2.4127 H   0  0  0  0  0  0  0  0  0  0  0  0
   -3.1621   -1.7588    0.4493 H   0  0  0  0  0  0  0  0  0  0  0  0
   -1.7992   -1.4304    1.5051 H   0  0  0  0  0  0  0  0  0  0  0  0
   -0.9656   -2.4141   -0.6912 H   0  0  0  0  0  0  0  0  0  0  0  0
    0.1821   -3.6194   -0.2962 H   0  0  0  0  0  0  0  0  0  0  0  0
   -0.4630   -0.8135   -2.7035 H   0  0  0  0  0  0  0  0  0  0  0  0
    0.4976   -0.7367   -4.9662 H   0  0  0  0  0  0  0  0  0  0  0  0
    2.9036   -4.1925   -4.0769 H   0  0  0  0  0  0  0  0  0  0  0  0
    1.9550   -4.2759   -1.8044 H   0  0  0  0  0  0  0  0  0  0  0  0
  1  2  2  0
  2  3  1  0
  3  4  1  0
  4  5  1  0
  5  6  2  0
  6  7  1  0
  7  8  2  0
  8  9  1  0
  9 10  2  0
  3 11  1  0
 11 12  1  0
 12 13  2  0
 13 14  1  0
 14 15  2  0
 15 16  1  0
 16 17  1  0
 17 18  1  0
 18 19  1  0
 19 20  1  0
 20 21  1  0
 21 22  2  0
 22 23  1  0
 23 24  2  0
 24 25  1  0
 25 26  2  0
 20 27  1  0
 27 28  1  0
 16 29  2  0
 29 30  1  0
 30 31  1  0
 31 32  1  0
 32 33  2  0
 33 34  1  0
 34 35  2  0
 35 36  1  0
 35 37  1  0
 37 38  2  0
 30  2  1  0
 38 32  1  0
 10  5  1  0
 29 12  1  0
 28 17  1  0
 26 21  1  0
  3 39  1  0
  4 40  1  0
  4 41  1  0
  6 42  1  0
  7 43  1  0
  8 44  1  0
  9 45  1  0
 10 46  1  0
 11 47  1  0
 14 48  1  0
 18 49  1  0
 18 50  1  0
 19 51  1  0
 19 52  1  0
 22 53  1  0
 23 54  1  0
 24 55  1  0
 25 56  1  0
 26 57  1  0
 27 58  1  0
 27 59  1  0
 28 60  1  0
 28 61  1  0
 31 62  1  0
 31 63  1  0
 33 64  1  0
 34 65  1  0
 37 66  1  0
 38 67  1  0
M  END
$$$$
