
     RDKit          3D

 58 60  0  0  0  0  0  0  0  0999 V2000
    8.8706   -2.0360   -3.5681 C   0  0  0  0  0  0  0  0  0  0  0  0
    7.6118   -1.6532   -2.8486 C   0  0  0  0  0  0  0  0  0  0  0  0
    7.3811   -0.3245   -2.4771 C   0  0  0  0  0  0  0  0  0  0  0  0
    6.1945    0.0361   -1.8346 C   0  0  0  0  0  0  0  0  0  0  0  0
    5.2132   -0.9249   -1.5653 C   0  0  0  0  0  0  0  0  0  0  0  0
    3.9423   -0.5476   -0.8485 C   0  0  0  0  0  0  0  0  0  0  0  0
    4.0617   -0.7623    0.6612 C   0  0  0  0  0  0  0  0  0  0  0  0
    2.8634   -0.3506    1.3701 N   0  0  0  0  0  0  0  0  0  0  0  0
    1.7457   -1.1544    1.4246 C   0  0  0  0  0  0  0  0  0  0  0  0
    1.6892   -2.2678    0.9132 O   0  0  0  0  0  0  0  0  0  0  0  0
    0.5852   -0.5121    2.1561 C   0  0  0  0  0  0  0  0  0  0  0  0
   -0.5771   -1.4776    2.3579 C   0  0  0  0  0  0  0  0  0  0  0  0
   -1.2140   -1.7816    1.0672 N   0  0  0  0  0  0  0  0  0  0  0  0
   -2.7599   -2.4405    1.0808 S   0  0  0  0  0  6  0  0  0  0  0  0
   -2.9818   -3.0402   -0.2144 O   0  0  0  0  0  0  0  0  0  0  0  0
   -2.9256   -3.1778    2.3129 O   0  0  0  0  0  0  0  0  0  0  0  0
   -3.7748   -0.9874    1.1557 C   0  0  0  0  0  0  0  0  0  0  0  0
   -4.6829   -0.8204    2.1996 C   0  0  0  0  0  0  0  0  0  0  0  0
   -5.4800    0.3289    2.2447 C   0  0  0  0  0  0  0  0  0  0  0  0
   -5.3775    1.3207    1.2534 C   0  0  0  0  0  0  0  0  0  0  0  0
   -4.4576    1.1310    0.2215 C   0  0  0  0  0  0  0  0  0  0  0  0
   -3.6563   -0.0184    0.1609 C   0  0  0  0  0  0  0  0  0  0  0  0
   -4.3197    2.1629   -0.8168 C   0  0  0  0  0  0  0  0  0  0  0  0
   -3.4267    2.0521   -1.6537 O   0  0  0  0  0  0  0  0  0  0  0  0
   -5.2113    3.2229   -0.7654 N   0  0  0  0  0  0  0  0  0  0  0  0
   -5.1092    4.2332   -1.8027 C   0  0  0  0  0  0  0  0  0  0  0  0
   -6.0907    3.4708    0.2813 C   0  0  0  0  0  0  0  0  0  0  0  0
   -6.7607    4.5056    0.3273 O   0  0  0  0  0  0  0  0  0  0  0  0
   -6.1678    2.5008    1.2785 N   0  0  0  0  0  0  0  0  0  0  0  0
   -7.1021    2.7184    2.3766 C   0  0  0  0  0  0  0  0  0  0  0  0
    5.4397   -2.2522   -1.9480 C   0  0  0  0  0  0  0  0  0  0  0  0
    6.6259   -2.6115   -2.5902 C   0  0  0  0  0  0  0  0  0  0  0  0
    9.1744   -3.0552   -3.3059 H   0  0  0  0  0  0  0  0  0  0  0  0
    8.7155   -1.9793   -4.6500 H   0  0  0  0  0  0  0  0  0  0  0  0
    9.6962   -1.3707   -3.2944 H   0  0  0  0  0  0  0  0  0  0  0  0
    8.1258    0.4403   -2.6850 H   0  0  0  0  0  0  0  0  0  0  0  0
    6.0422    1.0742   -1.5509 H   0  0  0  0  0  0  0  0  0  0  0  0
    3.6964    0.5009   -1.0588 H   0  0  0  0  0  0  0  0  0  0  0  0
    3.1070   -1.1304   -1.2563 H   0  0  0  0  0  0  0  0  0  0  0  0
    4.8908   -0.1771    1.0732 H   0  0  0  0  0  0  0  0  0  0  0  0
    4.2554   -1.8174    0.8858 H   0  0  0  0  0  0  0  0  0  0  0  0
    2.8060    0.6058    1.6964 H   0  0  0  0  0  0  0  0  0  0  0  0
    0.9445   -0.1759    3.1358 H   0  0  0  0  0  0  0  0  0  0  0  0
    0.2611    0.3665    1.5858 H   0  0  0  0  0  0  0  0  0  0  0  0
   -1.3054   -1.0053    3.0262 H   0  0  0  0  0  0  0  0  0  0  0  0
   -0.2296   -2.4090    2.8184 H   0  0  0  0  0  0  0  0  0  0  0  0
   -0.6111   -2.2618    0.3885 H   0  0  0  0  0  0  0  0  0  0  0  0
   -4.7834   -1.5766    2.9765 H   0  0  0  0  0  0  0  0  0  0  0  0
   -6.1789    0.4180    3.0722 H   0  0  0  0  0  0  0  0  0  0  0  0
   -2.9489   -0.1553   -0.6555 H   0  0  0  0  0  0  0  0  0  0  0  0
   -4.4369    5.0214   -1.4496 H   0  0  0  0  0  0  0  0  0  0  0  0
   -4.7090    3.8135   -2.7306 H   0  0  0  0  0  0  0  0  0  0  0  0
   -6.0890    4.6723   -2.0132 H   0  0  0  0  0  0  0  0  0  0  0  0
   -7.6276    3.6732    2.2909 H   0  0  0  0  0  0  0  0  0  0  0  0
   -7.8545    1.9238    2.3743 H   0  0  0  0  0  0  0  0  0  0  0  0
   -6.5549    2.7251    3.3248 H   0  0  0  0  0  0  0  0  0  0  0  0
    4.6902   -3.0161   -1.7499 H   0  0  0  0  0  0  0  0  0  0  0  0
    6.7750   -3.6471   -2.8867 H   0  0  0  0  0  0  0  0  0  0  0  0
  1  2  1  0
  2  3  2  0
  3  4  1  0
  4  5  2  0
  5  6  1  0
  6  7  1  0
  7  8  1  0
  8  9  1  0
  9 10  2  0
  9 11  1  0
 11 12  1  0
 12 13  1  0
 13 14  1  0
 14 15  2  0
 14 16  2  0
 14 17  1  0
 17 18  2  0
 18 19  1  0
 19 20  2  0
 20 21  1  0
 21 22  2  0
 21 23  1  0
 23 24  2  0
 23 25  1  0
 25 26  1  0
 25 27  1  0
 27 28  2  0
 27 29  1  0
 29 30  1  0
  5 31  1  0
 31 32  2  0
 32  2  1  0
 22 17  1  0
 29 20  1  0
  1 33  1  0
  1 34  1  0
  1 35  1  0
  3 36  1  0
  4 37  1  0
  6 38  1  0
  6 39  1  0
  7 40  1  0
  7 41  1  0
  8 42  1  0
 11 43  1  0
 11 44  1  0
 12 45  1  0
 12 46  1  0
 13 47  1  0
 18 48  1  0
 19 49  1  0
 22 50  1  0
 26 51  1  0
 26 52  1  0
 26 53  1  0
 30 54  1  0
 30 55  1  0
 30 56  1  0
 31 57  1  0
 32 58  1  0
M  END
$$$$
