
     RDKit          3D

 39 40  0  0  0  0  0  0  0  0999 V2000
   -3.1443    1.4262   -3.2811 C   0  0  0  0  0  0  0  0  0  0  0  0
   -1.9542    0.7157   -2.7008 C   0  0  0  0  0  0  0  0  0  0  0  0
   -1.0182    0.3467   -3.4004 O   0  0  0  0  0  0  0  0  0  0  0  0
   -2.0667    0.4737   -1.3545 N   0  0  0  0  0  0  0  0  0  0  0  0
   -0.9866    0.5156   -0.6295 C   0  0  0  0  0  0  0  0  0  0  0  0
   -1.0095    0.2481    0.8584 C   0  0  0  0  0  0  0  0  0  0  0  0
   -2.0760   -0.7224    1.3012 C   0  0  0  0  0  0  0  0  0  0  0  0
   -3.2814   -0.2552    1.8427 C   0  0  0  0  0  0  0  0  0  0  0  0
   -4.2712   -1.1521    2.2437 C   0  0  0  0  0  0  0  0  0  0  0  0
   -4.0723   -2.5217    2.0957 C   0  0  0  0  0  0  0  0  0  0  0  0
   -2.8781   -2.9983    1.5561 C   0  0  0  0  0  0  0  0  0  0  0  0
   -1.8834   -2.1029    1.1605 C   0  0  0  0  0  0  0  0  0  0  0  0
    0.3694    0.9435   -1.1546 C   0  0  0  0  0  0  0  0  0  0  0  0
    0.6212    2.1127   -1.3830 O   0  0  0  0  0  0  0  0  0  0  0  0
    1.1625   -0.1387   -1.2544 O   0  0  0  0  0  0  0  0  0  0  0  0
    2.4910    0.1332   -1.7067 C   0  0  0  0  0  0  0  0  0  0  0  0
    3.3835    0.3530   -0.5115 C   0  0  0  0  0  0  0  0  0  0  0  0
    3.7191    1.6536   -0.1109 C   0  0  0  0  0  0  0  0  0  0  0  0
    4.5066    1.8634    1.0218 C   0  0  0  0  0  0  0  0  0  0  0  0
    4.9636    0.7758    1.7672 C   0  0  0  0  0  0  0  0  0  0  0  0
    4.6305   -0.5211    1.3826 C   0  0  0  0  0  0  0  0  0  0  0  0
    3.8427   -0.7335    0.2490 C   0  0  0  0  0  0  0  0  0  0  0  0
   -4.0043    0.7552   -3.2823 H   0  0  0  0  0  0  0  0  0  0  0  0
   -3.3660    2.3132   -2.6874 H   0  0  0  0  0  0  0  0  0  0  0  0
   -2.9288    1.7385   -4.3070 H   0  0  0  0  0  0  0  0  0  0  0  0
   -0.0323   -0.1323    1.1788 H   0  0  0  0  0  0  0  0  0  0  0  0
   -1.1399    1.2093    1.3695 H   0  0  0  0  0  0  0  0  0  0  0  0
   -3.4614    0.8128    1.9422 H   0  0  0  0  0  0  0  0  0  0  0  0
   -5.2009   -0.7827    2.6651 H   0  0  0  0  0  0  0  0  0  0  0  0
   -4.8481   -3.2194    2.3995 H   0  0  0  0  0  0  0  0  0  0  0  0
   -2.7234   -4.0680    1.4356 H   0  0  0  0  0  0  0  0  0  0  0  0
   -0.9599   -2.4923    0.7380 H   0  0  0  0  0  0  0  0  0  0  0  0
    2.8373   -0.7405   -2.2738 H   0  0  0  0  0  0  0  0  0  0  0  0
    2.5275    0.9811   -2.4062 H   0  0  0  0  0  0  0  0  0  0  0  0
    3.3574    2.5134   -0.6740 H   0  0  0  0  0  0  0  0  0  0  0  0
    4.7605    2.8779    1.3217 H   0  0  0  0  0  0  0  0  0  0  0  0
    5.5756    0.9408    2.6496 H   0  0  0  0  0  0  0  0  0  0  0  0
    4.9801   -1.3689    1.9720 H   0  0  0  0  0  0  0  0  0  0  0  0
    3.5784   -1.7534   -0.0326 H   0  0  0  0  0  0  0  0  0  0  0  0
  1  2  1  0
  2  3  2  0
  2  4  1  0
  4  5  2  3
  5  6  1  0
  6  7  1  0
  7  8  2  0
  8  9  1  0
  9 10  2  0
 10 11  1  0
 11 12  2  0
  5 13  1  0
 13 14  2  0
 13 15  1  0
 15 16  1  0
 16 17  1  0
 17 18  2  0
 18 19  1  0
 19 20  2  0
 20 21  1  0
 21 22  2  0
 12  7  1  0
 22 17  1  0
  1 23  1  0
  1 24  1  0
  1 25  1  0
  6 26  1  0
  6 27  1  0
  8 28  1  0
  9 29  1  0
 10 30  1  0
 11 31  1  0
 12 32  1  0
 16 33  1  0
 16 34  1  0
 18 35  1  0
 19 36  1  0
 20 37  1  0
 21 38  1  0
 22 39  1  0
M  END
$$$$
