
     RDKit          3D

 38 39  0  0  0  0  0  0  0  0999 V2000
    0.3022    3.1177    1.1956 C   0  0  0  0  0  0  0  0  0  0  0  0
    0.5904    1.7888    0.5302 C   0  0  0  0  0  0  0  0  0  0  0  0
    2.0306    1.4645    0.3054 C   0  0  0  0  0  0  0  0  0  0  0  0
    2.4275    0.1881    0.1930 C   0  0  0  0  0  0  0  0  0  0  0  0
    3.8254   -0.2222    0.0069 C   0  0  0  0  0  0  0  0  0  0  0  0
    4.7158    0.4921   -0.8057 C   0  0  0  0  0  0  0  0  0  0  0  0
    6.0315    0.0526   -0.9759 C   0  0  0  0  0  0  0  0  0  0  0  0
    6.4669   -1.1104   -0.3441 C   0  0  0  0  0  0  0  0  0  0  0  0
    5.5860   -1.8384    0.4525 C   0  0  0  0  0  0  0  0  0  0  0  0
    4.2705   -1.3996    0.6220 C   0  0  0  0  0  0  0  0  0  0  0  0
   -0.3379    0.9591    0.1504 N   0  0  0  0  0  0  0  0  0  0  0  0
   -1.6323    1.3334    0.3692 N   0  0  0  0  0  0  0  0  0  0  0  0
   -2.6497    0.4144    0.0467 C   0  0  0  0  0  0  0  0  0  0  0  0
   -2.4370   -0.9111    0.1233 N   0  0  0  0  0  0  0  0  0  0  0  0
   -3.4559   -1.7304   -0.1954 C   0  0  0  0  0  0  0  0  0  0  0  0
   -3.2023   -3.2047   -0.1129 C   0  0  0  0  0  0  0  0  0  0  0  0
   -4.6899   -1.2543   -0.5839 C   0  0  0  0  0  0  0  0  0  0  0  0
   -4.8309    0.1168   -0.6309 C   0  0  0  0  0  0  0  0  0  0  0  0
   -6.1371    0.7273   -1.0401 C   0  0  0  0  0  0  0  0  0  0  0  0
   -3.8250    0.9588   -0.3188 N   0  0  0  0  0  0  0  0  0  0  0  0
   -0.3225    2.9613    2.0798 H   0  0  0  0  0  0  0  0  0  0  0  0
    1.2247    3.6115    1.5133 H   0  0  0  0  0  0  0  0  0  0  0  0
   -0.2181    3.7736    0.4917 H   0  0  0  0  0  0  0  0  0  0  0  0
    2.7247    2.2952    0.2803 H   0  0  0  0  0  0  0  0  0  0  0  0
    1.6999   -0.6198    0.2619 H   0  0  0  0  0  0  0  0  0  0  0  0
    4.3930    1.3893   -1.3276 H   0  0  0  0  0  0  0  0  0  0  0  0
    6.7133    0.6151   -1.6084 H   0  0  0  0  0  0  0  0  0  0  0  0
    7.4894   -1.4531   -0.4785 H   0  0  0  0  0  0  0  0  0  0  0  0
    5.9199   -2.7502    0.9407 H   0  0  0  0  0  0  0  0  0  0  0  0
    3.5959   -1.9827    1.2455 H   0  0  0  0  0  0  0  0  0  0  0  0
   -1.9488    2.2265    0.0015 H   0  0  0  0  0  0  0  0  0  0  0  0
   -3.8829   -3.6658    0.6097 H   0  0  0  0  0  0  0  0  0  0  0  0
   -2.1757   -3.4070    0.2093 H   0  0  0  0  0  0  0  0  0  0  0  0
   -3.3493   -3.6694   -1.0928 H   0  0  0  0  0  0  0  0  0  0  0  0
   -5.5035   -1.9214   -0.8377 H   0  0  0  0  0  0  0  0  0  0  0  0
   -6.9312    0.4178   -0.3536 H   0  0  0  0  0  0  0  0  0  0  0  0
   -6.3983    0.4162   -2.0564 H   0  0  0  0  0  0  0  0  0  0  0  0
   -6.0791    1.8205   -1.0230 H   0  0  0  0  0  0  0  0  0  0  0  0
  1  2  1  0
  2  3  1  0
  3  4  2  3
  4  5  1  0
  5  6  2  0
  6  7  1  0
  7  8  2  0
  8  9  1  0
  9 10  2  0
  2 11  2  3
 11 12  1  0
 12 13  1  0
 13 14  2  0
 14 15  1  0
 15 16  1  0
 15 17  2  0
 17 18  1  0
 18 19  1  0
 18 20  2  0
 10  5  1  0
 20 13  1  0
  1 21  1  0
  1 22  1  0
  1 23  1  0
  3 24  1  0
  4 25  1  0
  6 26  1  0
  7 27  1  0
  8 28  1  0
  9 29  1  0
 10 30  1  0
 12 31  1  0
 16 32  1  0
 16 33  1  0
 16 34  1  0
 17 35  1  0
 19 36  1  0
 19 37  1  0
 19 38  1  0
M  END
$$$$
