
     RDKit          3D

 44 46  0  0  0  0  0  0  0  0999 V2000
   -2.7959   -3.8072    3.4814 C   0  0  0  0  0  0  0  0  0  0  0  0
   -2.4334   -3.1389    2.1879 C   0  0  0  0  0  0  0  0  0  0  0  0
   -1.6001   -3.7802    1.2715 C   0  0  0  0  0  0  0  0  0  0  0  0
   -1.2200   -3.1627    0.0654 C   0  0  0  0  0  0  0  0  0  0  0  0
   -0.3350   -3.9603   -0.8579 C   0  0  0  0  0  0  0  0  0  0  0  0
   -1.7038   -1.8598   -0.2253 C   0  0  0  0  0  0  0  0  0  0  0  0
   -1.2413   -1.0810   -1.7845 S   0  0  0  0  0  6  0  0  0  0  0  0
   -1.2887   -2.0928   -2.8205 O   0  0  0  0  0  0  0  0  0  0  0  0
   -1.9492    0.1645   -1.9800 O   0  0  0  0  0  0  0  0  0  0  0  0
    0.4020   -0.7268   -1.5508 N   0  0  0  0  0  0  0  0  0  0  0  0
    0.7283    0.4059   -0.7549 C   0  0  0  0  0  0  0  0  0  0  0  0
    0.8711    0.2557    0.6238 C   0  0  0  0  0  0  0  0  0  0  0  0
    1.1543    1.3658    1.4197 C   0  0  0  0  0  0  0  0  0  0  0  0
    1.2893    2.6231    0.8286 C   0  0  0  0  0  0  0  0  0  0  0  0
    1.5616    3.7095    1.6155 O   0  0  0  0  0  0  0  0  0  0  0  0
    1.1437    2.7839   -0.5577 C   0  0  0  0  0  0  0  0  0  0  0  0
    1.2881    4.3781   -1.3502 S   0  0  0  0  0  0  0  0  0  0  0  0
    3.0175    4.5464   -1.5259 C   0  0  0  0  0  0  0  0  0  0  0  0
    3.6207    5.7750   -1.6310 N   0  0  0  0  0  0  0  0  0  0  0  0
    4.8884    5.4759   -1.7802 C   0  0  0  0  0  0  0  0  0  0  0  0
    5.0358    4.1269   -1.7836 N   0  0  0  0  0  0  0  0  0  0  0  0
    3.8557    3.5063   -1.6396 N   0  0  0  0  0  0  0  0  0  0  0  0
    0.8494    1.6633   -1.3453 C   0  0  0  0  0  0  0  0  0  0  0  0
   -2.5372   -1.1917    0.7059 C   0  0  0  0  0  0  0  0  0  0  0  0
   -3.0957    0.1928    0.5096 C   0  0  0  0  0  0  0  0  0  0  0  0
   -2.8817   -1.8482    1.9037 C   0  0  0  0  0  0  0  0  0  0  0  0
   -2.9153   -4.8867    3.3410 H   0  0  0  0  0  0  0  0  0  0  0  0
   -2.0136   -3.6298    4.2259 H   0  0  0  0  0  0  0  0  0  0  0  0
   -3.7450   -3.4242    3.8705 H   0  0  0  0  0  0  0  0  0  0  0  0
   -1.2422   -4.7841    1.4990 H   0  0  0  0  0  0  0  0  0  0  0  0
    0.1058   -4.8198   -0.3398 H   0  0  0  0  0  0  0  0  0  0  0  0
    0.5076   -3.3668   -1.2208 H   0  0  0  0  0  0  0  0  0  0  0  0
   -0.9151   -4.3514   -1.6989 H   0  0  0  0  0  0  0  0  0  0  0  0
    0.9081   -0.8358   -2.4296 H   0  0  0  0  0  0  0  0  0  0  0  0
    0.7729   -0.7232    1.0857 H   0  0  0  0  0  0  0  0  0  0  0  0
    1.2652    1.2323    2.4913 H   0  0  0  0  0  0  0  0  0  0  0  0
    1.6123    3.4320    2.5437 H   0  0  0  0  0  0  0  0  0  0  0  0
    5.7104    6.1685   -1.8893 H   0  0  0  0  0  0  0  0  0  0  0  0
    5.8800    3.5746   -1.8805 H   0  0  0  0  0  0  0  0  0  0  0  0
    0.7095    1.7765   -2.4170 H   0  0  0  0  0  0  0  0  0  0  0  0
   -2.2923    0.9204    0.3643 H   0  0  0  0  0  0  0  0  0  0  0  0
   -3.7966    0.2086   -0.3303 H   0  0  0  0  0  0  0  0  0  0  0  0
   -3.6558    0.5289    1.3899 H   0  0  0  0  0  0  0  0  0  0  0  0
   -3.5200   -1.3436    2.6285 H   0  0  0  0  0  0  0  0  0  0  0  0
  1  2  1  0
  2  3  2  0
  3  4  1  0
  4  5  1  0
  4  6  2  0
  6  7  1  0
  7  8  2  0
  7  9  2  0
  7 10  1  0
 10 11  1  0
 11 12  2  0
 12 13  1  0
 13 14  2  0
 14 15  1  0
 14 16  1  0
 16 17  1  0
 17 18  1  0
 18 19  1  0
 19 20  2  0
 20 21  1  0
 21 22  1  0
 16 23  2  0
  6 24  1  0
 24 25  1  0
 24 26  2  0
 26  2  1  0
 23 11  1  0
 22 18  2  0
  1 27  1  0
  1 28  1  0
  1 29  1  0
  3 30  1  0
  5 31  1  0
  5 32  1  0
  5 33  1  0
 10 34  1  0
 12 35  1  0
 13 36  1  0
 15 37  1  0
 20 38  1  0
 21 39  1  0
 23 40  1  0
 25 41  1  0
 25 42  1  0
 25 43  1  0
 26 44  1  0
M  END
$$$$
