
     RDKit          3D

 68 74  0  0  0  0  0  0  0  0999 V2000
   -4.2681   -3.8856   -3.2406 C   0  0  0  0  0  0  0  0  0  0  0  0
   -3.3237   -3.3789   -2.1919 C   0  0  0  0  0  0  0  0  0  0  0  0
   -3.0271   -4.1323   -1.0392 C   0  0  0  0  0  0  0  0  0  0  0  0
   -3.7430   -5.6854   -0.7748 Cl  0  0  0  0  0  0  0  0  0  0  0  0
   -2.1413   -3.6562   -0.0519 C   0  0  0  0  0  0  0  0  0  0  0  0
   -1.5316   -2.4084   -0.1796 C   0  0  0  0  0  0  0  0  0  0  0  0
   -1.8321   -1.6506   -1.2990 C   0  0  0  0  0  0  0  0  0  0  0  0
   -2.7068   -2.1372   -2.2828 C   0  0  0  0  0  0  0  0  0  0  0  0
   -2.8257   -1.1976   -3.3065 N   0  0  0  0  0  0  0  0  0  0  0  0
   -2.0340   -0.0689   -3.0749 C   0  0  0  0  0  0  0  0  0  0  0  0
   -1.9294    0.8760   -3.8417 O   0  0  0  0  0  0  0  0  0  0  0  0
   -1.3452   -0.2913   -1.7062 C   0  0  1  0  0  0  0  0  0  0  0  0
   -1.7544    0.7058   -0.6798 C   0  0  0  0  0  0  0  0  0  0  0  0
   -0.7007    1.6046   -0.4516 C   0  0  0  0  0  0  0  0  0  0  0  0
   -1.0642    2.4835    0.5266 C   0  0  0  0  0  0  0  0  0  0  0  0
   -0.3039    3.3989    1.1256 O   0  0  0  0  0  0  0  0  0  0  0  0
   -2.4096    2.2067    0.8500 N   0  0  0  0  0  0  0  0  0  0  0  0
   -3.2340    2.9816    1.7272 C   0  0  0  0  0  0  0  0  0  0  0  0
   -4.2320    2.3719    2.4971 C   0  0  0  0  0  0  0  0  0  0  0  0
   -5.0245    3.1379    3.3567 C   0  0  0  0  0  0  0  0  0  0  0  0
   -4.8353    4.5154    3.4451 C   0  0  0  0  0  0  0  0  0  0  0  0
   -3.8573    5.1330    2.6691 C   0  0  0  0  0  0  0  0  0  0  0  0
   -3.0599    4.3720    1.8106 C   0  0  0  0  0  0  0  0  0  0  0  0
   -2.7996    1.0497    0.1412 C   0  0  0  0  0  0  0  0  0  0  0  0
   -4.0073    0.5044    0.2667 O   0  0  0  0  0  0  0  0  0  0  0  0
    0.4619    1.2834   -1.3026 C   0  0  1  0  0  0  0  0  0  0  0  0
    1.8441    1.2570   -0.6472 C   0  0  0  0  0  0  0  0  0  0  0  0
    2.8144    0.4652   -1.4325 N   0  0  0  0  0  0  0  0  0  0  0  0
    4.1193    0.2926   -1.0217 C   0  0  0  0  0  0  0  0  0  0  0  0
    4.9701   -0.2942   -1.6802 O   0  0  0  0  0  0  0  0  0  0  0  0
    4.3474    0.8557    0.1938 O   0  0  0  0  0  0  0  0  0  0  0  0
    5.6655    0.6865    0.7241 C   0  0  0  0  0  0  0  0  0  0  0  0
    5.6882   -0.4928    1.6620 C   0  0  0  0  0  0  0  0  0  0  0  0
    6.1755   -1.7340    1.2300 C   0  0  0  0  0  0  0  0  0  0  0  0
    6.1832   -2.8305    2.0933 C   0  0  0  0  0  0  0  0  0  0  0  0
    5.6959   -2.6992    3.3926 C   0  0  0  0  0  0  0  0  0  0  0  0
    5.1956   -1.4733    3.8283 C   0  0  0  0  0  0  0  0  0  0  0  0
    5.1876   -0.3754    2.9663 C   0  0  0  0  0  0  0  0  0  0  0  0
    2.3860   -0.0224   -2.7492 C   0  0  0  0  0  0  0  0  0  0  0  0
    0.9592   -0.6411   -2.7567 C   0  0  0  0  0  0  0  0  0  0  0  0
    0.1156   -0.1064   -1.7048 N   0  0  0  0  0  0  0  0  0  0  0  0
   -4.2866   -3.2471   -4.1287 H   0  0  0  0  0  0  0  0  0  0  0  0
   -5.2869   -3.9281   -2.8415 H   0  0  0  0  0  0  0  0  0  0  0  0
   -3.9678   -4.8823   -3.5805 H   0  0  0  0  0  0  0  0  0  0  0  0
   -1.9240   -4.2649    0.8238 H   0  0  0  0  0  0  0  0  0  0  0  0
   -0.8429   -2.0412    0.5767 H   0  0  0  0  0  0  0  0  0  0  0  0
   -3.3710   -1.2977   -4.1501 H   0  0  0  0  0  0  0  0  0  0  0  0
   -0.6986    3.6110    1.9914 H   0  0  0  0  0  0  0  0  0  0  0  0
   -4.3932    1.2976    2.4714 H   0  0  0  0  0  0  0  0  0  0  0  0
   -5.7909    2.6552    3.9580 H   0  0  0  0  0  0  0  0  0  0  0  0
   -5.4581    5.1084    4.1100 H   0  0  0  0  0  0  0  0  0  0  0  0
   -3.7260    6.2112    2.7187 H   0  0  0  0  0  0  0  0  0  0  0  0
   -2.3474    4.8948    1.1755 H   0  0  0  0  0  0  0  0  0  0  0  0
   -4.0557   -0.2675   -0.3240 H   0  0  0  0  0  0  0  0  0  0  0  0
    0.4599    1.9419   -2.1819 H   0  0  0  0  0  0  0  0  0  0  0  0
    1.8002    0.8201    0.3589 H   0  0  0  0  0  0  0  0  0  0  0  0
    2.2370    2.2752   -0.5421 H   0  0  0  0  0  0  0  0  0  0  0  0
    5.9143    1.5982    1.2799 H   0  0  0  0  0  0  0  0  0  0  0  0
    6.4296    0.5988   -0.0581 H   0  0  0  0  0  0  0  0  0  0  0  0
    6.5439   -1.8530    0.2122 H   0  0  0  0  0  0  0  0  0  0  0  0
    6.5645   -3.7879    1.7484 H   0  0  0  0  0  0  0  0  0  0  0  0
    5.7001   -3.5543    4.0630 H   0  0  0  0  0  0  0  0  0  0  0  0
    4.8074   -1.3731    4.8385 H   0  0  0  0  0  0  0  0  0  0  0  0
    4.7838    0.5730    3.3140 H   0  0  0  0  0  0  0  0  0  0  0  0
    3.1037   -0.7466   -3.1490 H   0  0  0  0  0  0  0  0  0  0  0  0
    2.4044    0.8510   -3.4133 H   0  0  0  0  0  0  0  0  0  0  0  0
    1.0491   -1.7236   -2.6076 H   0  0  0  0  0  0  0  0  0  0  0  0
    0.5327   -0.4889   -3.7545 H   0  0  0  0  0  0  0  0  0  0  0  0
  1  2  1  0
  2  3  2  0
  3  4  1  0
  3  5  1  0
  5  6  2  0
  6  7  1  0
  7  8  2  0
  8  9  1  0
  9 10  1  0
 10 11  2  0
 10 12  1  0
 12 13  1  0
 13 14  1  0
 14 15  2  0
 15 16  1  0
 15 17  1  0
 17 18  1  0
 18 19  2  0
 19 20  1  0
 20 21  2  0
 21 22  1  0
 22 23  2  0
 17 24  1  0
 24 25  1  0
 14 26  1  0
 26 27  1  0
 27 28  1  0
 28 29  1  0
 29 30  2  0
 29 31  1  0
 31 32  1  0
 32 33  1  0
 33 34  2  0
 34 35  1  0
 35 36  2  0
 36 37  1  0
 37 38  2  0
 28 39  1  0
 39 40  1  0
 40 41  1  0
  8  2  1  0
 12 41  1  6
 12  7  1  0
 24 13  2  0
 41 26  1  0
 23 18  1  0
 38 33  1  0
  1 42  1  0
  1 43  1  0
  1 44  1  0
  5 45  1  0
  6 46  1  0
  9 47  1  0
 16 48  1  0
 19 49  1  0
 20 50  1  0
 21 51  1  0
 22 52  1  0
 23 53  1  0
 25 54  1  0
 26 55  1  6
 27 56  1  0
 27 57  1  0
 32 58  1  0
 32 59  1  0
 34 60  1  0
 35 61  1  0
 36 62  1  0
 37 63  1  0
 38 64  1  0
 39 65  1  0
 39 66  1  0
 40 67  1  0
 40 68  1  0
M  END
$$$$
