
     RDKit          3D

 44 44  0  0  0  0  0  0  0  0999 V2000
   -3.8323    2.2856    1.0725 C   0  0  0  0  0  0  0  0  0  0  0  0
   -3.0045    2.0247   -0.1793 C   0  0  0  0  0  0  0  0  0  0  0  0
   -3.0360    0.6022   -0.5483 N   0  0  0  0  0  0  0  0  0  0  0  0
   -4.0992    0.2125   -1.4843 C   0  0  0  0  0  0  0  0  0  0  0  0
   -3.5908    0.2248   -2.9203 C   0  0  0  0  0  0  0  0  0  0  0  0
   -2.1528   -0.3264   -0.0018 C   0  0  0  0  0  0  0  0  0  0  0  0
   -2.1308   -1.6774   -0.4055 C   0  0  0  0  0  0  0  0  0  0  0  0
   -1.2446   -2.6218    0.1416 C   0  0  0  0  0  0  0  0  0  0  0  0
   -0.3342   -2.2391    1.1143 C   0  0  0  0  0  0  0  0  0  0  0  0
   -0.3137   -0.9138    1.5189 C   0  0  0  0  0  0  0  0  0  0  0  0
    0.5744   -0.5204    2.4851 O   0  0  0  0  0  0  0  0  0  0  0  0
    1.7569    0.0121    1.8868 C   0  0  0  0  0  0  0  0  0  0  0  0
    2.9087   -1.0050    1.7534 C   0  0  0  0  0  0  0  0  0  0  0  0
    2.8443   -2.1192    2.2738 O   0  0  0  0  0  0  0  0  0  0  0  0
    4.0409   -0.5998    1.0335 N   0  0  0  0  0  0  0  0  0  0  0  0
    5.1267   -1.5591    0.8778 C   0  0  0  0  0  0  0  0  0  0  0  0
    4.0911    0.5988    0.1862 C   0  0  0  0  0  0  0  0  0  0  0  0
    3.5695    0.3452   -1.2332 C   0  0  0  0  0  0  0  0  0  0  0  0
    3.5397    1.5982   -1.9972 C   0  0  0  0  0  0  0  0  0  0  0  0
    3.5266    2.5995   -2.5864 N   0  0  0  0  0  0  0  0  0  0  0  0
   -1.2169    0.0196    0.9892 C   0  0  0  0  0  0  0  0  0  0  0  0
   -3.4645    1.7184    1.9334 H   0  0  0  0  0  0  0  0  0  0  0  0
   -4.8793    2.0063    0.9140 H   0  0  0  0  0  0  0  0  0  0  0  0
   -3.8021    3.3491    1.3294 H   0  0  0  0  0  0  0  0  0  0  0  0
   -1.9786    2.3909   -0.0577 H   0  0  0  0  0  0  0  0  0  0  0  0
   -3.4199    2.6273   -0.9983 H   0  0  0  0  0  0  0  0  0  0  0  0
   -4.5354   -0.7603   -1.2263 H   0  0  0  0  0  0  0  0  0  0  0  0
   -4.9364    0.9212   -1.4093 H   0  0  0  0  0  0  0  0  0  0  0  0
   -3.2083    1.2150   -3.1944 H   0  0  0  0  0  0  0  0  0  0  0  0
   -4.4012   -0.0280   -3.6105 H   0  0  0  0  0  0  0  0  0  0  0  0
   -2.7803   -0.4964   -3.0713 H   0  0  0  0  0  0  0  0  0  0  0  0
   -2.8101   -2.0429   -1.1685 H   0  0  0  0  0  0  0  0  0  0  0  0
   -1.2756   -3.6546   -0.1972 H   0  0  0  0  0  0  0  0  0  0  0  0
    0.3497   -2.9619    1.5509 H   0  0  0  0  0  0  0  0  0  0  0  0
    2.1097    0.8111    2.5502 H   0  0  0  0  0  0  0  0  0  0  0  0
    1.5384    0.4647    0.9098 H   0  0  0  0  0  0  0  0  0  0  0  0
    5.1341   -2.2950    1.6875 H   0  0  0  0  0  0  0  0  0  0  0  0
    6.0825   -1.0285    0.8858 H   0  0  0  0  0  0  0  0  0  0  0  0
    5.0023   -2.0824   -0.0756 H   0  0  0  0  0  0  0  0  0  0  0  0
    3.5152    1.4006    0.6670 H   0  0  0  0  0  0  0  0  0  0  0  0
    5.1320    0.9520    0.1556 H   0  0  0  0  0  0  0  0  0  0  0  0
    2.5644   -0.0898   -1.1976 H   0  0  0  0  0  0  0  0  0  0  0  0
    4.2106   -0.3840   -1.7431 H   0  0  0  0  0  0  0  0  0  0  0  0
   -1.1704    1.0259    1.3895 H   0  0  0  0  0  0  0  0  0  0  0  0
  1  2  1  0
  2  3  1  0
  3  4  1  0
  4  5  1  0
  3  6  1  0
  6  7  2  0
  7  8  1  0
  8  9  2  0
  9 10  1  0
 10 11  1  0
 11 12  1  0
 12 13  1  0
 13 14  2  0
 13 15  1  0
 15 16  1  0
 15 17  1  0
 17 18  1  0
 18 19  1  0
 19 20  3  0
 10 21  2  0
 21  6  1  0
  1 22  1  0
  1 23  1  0
  1 24  1  0
  2 25  1  0
  2 26  1  0
  4 27  1  0
  4 28  1  0
  5 29  1  0
  5 30  1  0
  5 31  1  0
  7 32  1  0
  8 33  1  0
  9 34  1  0
 12 35  1  0
 12 36  1  0
 16 37  1  0
 16 38  1  0
 16 39  1  0
 17 40  1  0
 17 41  1  0
 18 42  1  0
 18 43  1  0
 21 44  1  0
M  END
$$$$
