
     RDKit          3D

 50 52  0  0  0  0  0  0  0  0999 V2000
    7.6704    2.6106    0.2010 C   0  0  0  0  0  0  0  0  0  0  0  0
    7.1787    1.8993   -0.9281 O   0  0  0  0  0  0  0  0  0  0  0  0
    5.8683    1.5130   -0.8908 C   0  0  0  0  0  0  0  0  0  0  0  0
    4.9661    1.7613    0.1415 C   0  0  0  0  0  0  0  0  0  0  0  0
    3.6418    1.3071    0.0519 C   0  0  0  0  0  0  0  0  0  0  0  0
    3.2056    0.5992   -1.0682 C   0  0  0  0  0  0  0  0  0  0  0  0
    1.8943    0.1127   -1.2356 N   0  0  0  0  0  0  0  0  0  0  0  0
    0.8429    0.1738   -0.3309 C   0  0  0  0  0  0  0  0  0  0  0  0
    0.8870    0.6502    0.8040 O   0  0  0  0  0  0  0  0  0  0  0  0
   -0.4655   -0.4534   -0.8820 C   0  0  0  0  0  0  0  0  0  0  0  0
   -1.5557   -0.1592    0.0349 N   0  0  0  0  0  0  0  0  0  0  0  0
   -2.8170    0.1435   -0.4183 C   0  0  0  0  0  0  0  0  0  0  0  0
   -3.1174    0.1517   -1.6075 O   0  0  0  0  0  0  0  0  0  0  0  0
   -3.8239    0.5105    0.6162 C   0  0  0  0  0  0  0  0  0  0  0  0
   -4.9069    1.3115    0.2357 C   0  0  0  0  0  0  0  0  0  0  0  0
   -5.8764    1.6796    1.1722 C   0  0  0  0  0  0  0  0  0  0  0  0
   -5.7792    1.2448    2.4988 C   0  0  0  0  0  0  0  0  0  0  0  0
   -6.8170    1.6265    3.5130 C   0  0  0  0  0  0  0  0  0  0  0  0
   -4.7039    0.4288    2.8730 C   0  0  0  0  0  0  0  0  0  0  0  0
   -3.7321    0.0595    1.9382 C   0  0  0  0  0  0  0  0  0  0  0  0
   -0.3526   -1.9532   -1.0989 C   0  0  0  0  0  0  0  0  0  0  0  0
   -0.9522   -2.5362   -2.2270 C   0  0  0  0  0  0  0  0  0  0  0  0
   -0.8695   -3.9120   -2.4462 C   0  0  0  0  0  0  0  0  0  0  0  0
   -0.1964   -4.7240   -1.5363 C   0  0  0  0  0  0  0  0  0  0  0  0
    0.3845   -4.1635   -0.4008 C   0  0  0  0  0  0  0  0  0  0  0  0
    0.3009   -2.7879   -0.1774 C   0  0  0  0  0  0  0  0  0  0  0  0
    4.1140    0.3547   -2.1033 C   0  0  0  0  0  0  0  0  0  0  0  0
    5.4335    0.8082   -2.0130 C   0  0  0  0  0  0  0  0  0  0  0  0
    7.6176    1.9977    1.1069 H   0  0  0  0  0  0  0  0  0  0  0  0
    7.1392    3.5590    0.3327 H   0  0  0  0  0  0  0  0  0  0  0  0
    8.7237    2.8425    0.0169 H   0  0  0  0  0  0  0  0  0  0  0  0
    5.2528    2.3068    1.0345 H   0  0  0  0  0  0  0  0  0  0  0  0
    2.9772    1.5308    0.8803 H   0  0  0  0  0  0  0  0  0  0  0  0
    1.7153   -0.3872   -2.0999 H   0  0  0  0  0  0  0  0  0  0  0  0
   -0.6639    0.0472   -1.8392 H   0  0  0  0  0  0  0  0  0  0  0  0
   -1.2814    0.0713    0.9829 H   0  0  0  0  0  0  0  0  0  0  0  0
   -4.9980    1.6536   -0.7933 H   0  0  0  0  0  0  0  0  0  0  0  0
   -6.7079    2.3051    0.8547 H   0  0  0  0  0  0  0  0  0  0  0  0
   -6.3483    2.1448    4.3560 H   0  0  0  0  0  0  0  0  0  0  0  0
   -7.3312    0.7324    3.8801 H   0  0  0  0  0  0  0  0  0  0  0  0
   -7.5697    2.2970    3.0853 H   0  0  0  0  0  0  0  0  0  0  0  0
   -4.6226    0.0684    3.8966 H   0  0  0  0  0  0  0  0  0  0  0  0
   -2.9291   -0.6001    2.2538 H   0  0  0  0  0  0  0  0  0  0  0  0
   -1.5072   -1.9195   -2.9335 H   0  0  0  0  0  0  0  0  0  0  0  0
   -1.3422   -4.3508   -3.3213 H   0  0  0  0  0  0  0  0  0  0  0  0
   -0.1369   -5.7961   -1.7051 H   0  0  0  0  0  0  0  0  0  0  0  0
    0.8969   -4.7994    0.3168 H   0  0  0  0  0  0  0  0  0  0  0  0
    0.7489   -2.3769    0.7258 H   0  0  0  0  0  0  0  0  0  0  0  0
    3.8156   -0.1922   -2.9938 H   0  0  0  0  0  0  0  0  0  0  0  0
    6.1288    0.6085   -2.8249 H   0  0  0  0  0  0  0  0  0  0  0  0
  1  2  1  0
  2  3  1  0
  3  4  2  0
  4  5  1  0
  5  6  2  0
  6  7  1  0
  7  8  1  0
  8  9  2  0
  8 10  1  0
 10 11  1  0
 11 12  1  0
 12 13  2  0
 12 14  1  0
 14 15  2  0
 15 16  1  0
 16 17  2  0
 17 18  1  0
 17 19  1  0
 19 20  2  0
 10 21  1  0
 21 22  2  0
 22 23  1  0
 23 24  2  0
 24 25  1  0
 25 26  2  0
  6 27  1  0
 27 28  2  0
 28  3  1  0
 20 14  1  0
 26 21  1  0
  1 29  1  0
  1 30  1  0
  1 31  1  0
  4 32  1  0
  5 33  1  0
  7 34  1  0
 10 35  1  0
 11 36  1  0
 15 37  1  0
 16 38  1  0
 18 39  1  0
 18 40  1  0
 18 41  1  0
 19 42  1  0
 20 43  1  0
 22 44  1  0
 23 45  1  0
 24 46  1  0
 25 47  1  0
 26 48  1  0
 27 49  1  0
 28 50  1  0
M  END
$$$$
