
     RDKit          3D

 29 30  0  0  0  0  0  0  0  0999 V2000
    3.8067    1.1455   -0.5713 C   0  0  0  0  0  0  0  0  0  0  0  0
    3.3390    0.1496    0.4744 C   0  0  0  0  0  0  0  0  0  0  0  0
    2.6523   -0.9546   -0.1937 N   0  0  0  0  0  0  0  0  0  0  0  0
    1.6353   -1.9361    0.7119 S   0  0  0  0  0  6  0  0  0  0  0  0
    2.1691   -2.0155    2.0537 O   0  0  0  0  0  0  0  0  0  0  0  0
    1.3956   -3.1199   -0.0835 O   0  0  0  0  0  0  0  0  0  0  0  0
    0.1346   -0.9947    0.7376 C   0  0  0  0  0  0  0  0  0  0  0  0
   -0.3109   -0.4206    1.9431 C   0  0  0  0  0  0  0  0  0  0  0  0
   -1.4860    0.3326    1.9639 C   0  0  0  0  0  0  0  0  0  0  0  0
   -2.1916    0.4685    0.7799 C   0  0  0  0  0  0  0  0  0  0  0  0
   -1.7610   -0.1271   -0.4078 C   0  0  0  0  0  0  0  0  0  0  0  0
   -0.5860   -0.8486   -0.4537 C   0  0  0  0  0  0  0  0  0  0  0  0
   -2.5822    0.1926   -1.5157 N   0  0  0  0  0  0  0  0  0  0  0  0
   -3.8137    0.6888   -0.8745 C   0  0  0  0  0  0  0  0  0  0  0  0
   -3.4349    1.2451    0.5108 C   0  0  0  0  0  0  0  0  0  0  0  0
    2.9591    1.5463   -1.1375 H   0  0  0  0  0  0  0  0  0  0  0  0
    4.3281    1.9819   -0.0959 H   0  0  0  0  0  0  0  0  0  0  0  0
    4.4922    0.6752   -1.2843 H   0  0  0  0  0  0  0  0  0  0  0  0
    4.2028   -0.2387    1.0232 H   0  0  0  0  0  0  0  0  0  0  0  0
    2.6707    0.6554    1.1780 H   0  0  0  0  0  0  0  0  0  0  0  0
    3.1404   -1.4665   -0.9271 H   0  0  0  0  0  0  0  0  0  0  0  0
    0.2601   -0.5489    2.8604 H   0  0  0  0  0  0  0  0  0  0  0  0
   -1.8303    0.7996    2.8810 H   0  0  0  0  0  0  0  0  0  0  0  0
   -0.2303   -1.2810   -1.3827 H   0  0  0  0  0  0  0  0  0  0  0  0
   -2.7137   -0.6126   -2.1235 H   0  0  0  0  0  0  0  0  0  0  0  0
   -4.2952    1.4518   -1.4946 H   0  0  0  0  0  0  0  0  0  0  0  0
   -4.5197   -0.1453   -0.7649 H   0  0  0  0  0  0  0  0  0  0  0  0
   -3.2074    2.3147    0.4577 H   0  0  0  0  0  0  0  0  0  0  0  0
   -4.2229    1.0623    1.2463 H   0  0  0  0  0  0  0  0  0  0  0  0
  1  2  1  0
  2  3  1  0
  3  4  1  0
  4  5  2  0
  4  6  2  0
  4  7  1  0
  7  8  2  0
  8  9  1  0
  9 10  2  0
 10 11  1  0
 11 12  2  0
 11 13  1  0
 13 14  1  0
 14 15  1  0
 12  7  1  0
 15 10  1  0
  1 16  1  0
  1 17  1  0
  1 18  1  0
  2 19  1  0
  2 20  1  0
  3 21  1  0
  8 22  1  0
  9 23  1  0
 12 24  1  0
 13 25  1  0
 14 26  1  0
 14 27  1  0
 15 28  1  0
 15 29  1  0
M  END
$$$$
