
     RDKit          3D

 31 32  0  0  0  0  0  0  0  0999 V2000
   -0.1242   -2.3693    2.2274 C   0  0  0  0  0  0  0  0  0  0  0  0
    1.6662   -2.3681    2.5162 S   0  0  0  0  0  0  0  0  0  0  0  0
    2.1767   -1.0819    1.3878 C   0  0  0  0  0  0  0  0  0  0  0  0
    3.0431   -0.0867    1.8530 C   0  0  0  0  0  0  0  0  0  0  0  0
    3.4610    0.9410    1.0053 C   0  0  0  0  0  0  0  0  0  0  0  0
    3.0209    0.9745   -0.3168 C   0  0  0  0  0  0  0  0  0  0  0  0
    2.1760   -0.0262   -0.7930 C   0  0  0  0  0  0  0  0  0  0  0  0
    1.7010    0.0200   -2.1415 N   0  0  0  0  0  0  0  0  0  0  0  0
    0.4783    1.1620   -2.4652 S   0  0  0  0  0  6  0  0  0  0  0  0
    0.8167    2.4498   -1.8967 O   0  0  0  0  0  0  0  0  0  0  0  0
    0.1147    1.0134   -3.8590 O   0  0  0  0  0  0  0  0  0  0  0  0
   -0.9644    0.6610   -1.6157 C   0  0  0  0  0  0  0  0  0  0  0  0
   -2.0019    1.4787   -1.2138 C   0  0  0  0  0  0  0  0  0  0  0  0
   -2.8981    0.6399   -0.6192 N   0  0  0  0  0  0  0  0  0  0  0  0
   -4.1618    1.0140   -0.0361 C   0  0  0  0  0  0  0  0  0  0  0  0
   -2.3948   -0.6297   -0.6758 C   0  0  0  0  0  0  0  0  0  0  0  0
   -1.2206   -0.6602   -1.2674 N   0  0  0  0  0  0  0  0  0  0  0  0
    1.7573   -1.0545    0.0540 C   0  0  0  0  0  0  0  0  0  0  0  0
   -0.5313   -1.3580    2.3152 H   0  0  0  0  0  0  0  0  0  0  0  0
   -0.3608   -2.7759    1.2410 H   0  0  0  0  0  0  0  0  0  0  0  0
   -0.6038   -3.0013    2.9798 H   0  0  0  0  0  0  0  0  0  0  0  0
    3.3940   -0.0990    2.8829 H   0  0  0  0  0  0  0  0  0  0  0  0
    4.1260    1.7169    1.3759 H   0  0  0  0  0  0  0  0  0  0  0  0
    3.3431    1.7806   -0.9717 H   0  0  0  0  0  0  0  0  0  0  0  0
    1.3738   -0.8807   -2.4952 H   0  0  0  0  0  0  0  0  0  0  0  0
   -2.1539    2.5454   -1.3111 H   0  0  0  0  0  0  0  0  0  0  0  0
   -4.1828    2.0952    0.1227 H   0  0  0  0  0  0  0  0  0  0  0  0
   -4.2735    0.4990    0.9215 H   0  0  0  0  0  0  0  0  0  0  0  0
   -4.9570    0.7183   -0.7249 H   0  0  0  0  0  0  0  0  0  0  0  0
   -2.9227   -1.4866   -0.2762 H   0  0  0  0  0  0  0  0  0  0  0  0
    1.1028   -1.8318   -0.3283 H   0  0  0  0  0  0  0  0  0  0  0  0
  1  2  1  0
  2  3  1  0
  3  4  2  0
  4  5  1  0
  5  6  2  0
  6  7  1  0
  7  8  1  0
  8  9  1  0
  9 10  2  0
  9 11  2  0
  9 12  1  0
 12 13  2  0
 13 14  1  0
 14 15  1  0
 14 16  1  0
 16 17  2  0
  7 18  2  0
 18  3  1  0
 17 12  1  0
  1 19  1  0
  1 20  1  0
  1 21  1  0
  4 22  1  0
  5 23  1  0
  6 24  1  0
  8 25  1  0
 13 26  1  0
 15 27  1  0
 15 28  1  0
 15 29  1  0
 16 30  1  0
 18 31  1  0
M  END
$$$$
