
     RDKit          3D

 40 42  0  0  0  0  0  0  0  0999 V2000
   -7.2643   -0.2318   -0.8737 C   0  0  0  0  0  0  0  0  0  0  0  0
   -6.4840    0.6819    0.4388 S   0  0  0  0  0  6  0  0  0  0  0  0
   -5.7380    1.7854   -0.1218 O   0  0  0  0  0  0  0  0  0  0  0  0
   -7.4729    0.8945    1.4748 O   0  0  0  0  0  0  0  0  0  0  0  0
   -5.4229   -0.4783    1.0723 N   0  0  0  0  0  0  0  0  0  0  0  0
   -4.0806   -0.4554    0.5964 C   0  0  0  0  0  0  0  0  0  0  0  0
   -3.1421    0.3941    1.1841 C   0  0  0  0  0  0  0  0  0  0  0  0
   -1.8373    0.4461    0.6834 C   0  0  0  0  0  0  0  0  0  0  0  0
   -1.4714   -0.3592   -0.4041 C   0  0  0  0  0  0  0  0  0  0  0  0
   -0.0935   -0.3379   -0.9768 C   0  0  0  0  0  0  0  0  0  0  0  0
    0.0346   -0.5327   -2.1793 O   0  0  0  0  0  0  0  0  0  0  0  0
    0.9196   -0.1370   -0.0564 N   0  0  0  0  0  0  0  0  0  0  0  0
    2.3030   -0.0304   -0.3158 C   0  0  0  0  0  0  0  0  0  0  0  0
    2.8596   -0.0277   -1.5976 C   0  0  0  0  0  0  0  0  0  0  0  0
    4.2430    0.0956   -1.7728 C   0  0  0  0  0  0  0  0  0  0  0  0
    5.0773    0.2227   -0.6674 C   0  0  0  0  0  0  0  0  0  0  0  0
    4.5329    0.1973    0.6178 C   0  0  0  0  0  0  0  0  0  0  0  0
    3.1526    0.0878    0.7924 C   0  0  0  0  0  0  0  0  0  0  0  0
    5.2921    0.2845    1.7578 O   0  0  0  0  0  0  0  0  0  0  0  0
    6.6778    0.0496    1.4790 C   0  0  0  0  0  0  0  0  0  0  0  0
    7.1170    0.8232    0.2467 C   0  0  0  0  0  0  0  0  0  0  0  0
    6.4182    0.3619   -0.9149 O   0  0  0  0  0  0  0  0  0  0  0  0
   -2.4291   -1.1880   -1.0044 C   0  0  0  0  0  0  0  0  0  0  0  0
   -3.7330   -1.2343   -0.5055 C   0  0  0  0  0  0  0  0  0  0  0  0
   -7.7069   -1.1399   -0.4604 H   0  0  0  0  0  0  0  0  0  0  0  0
   -6.5225   -0.4664   -1.6383 H   0  0  0  0  0  0  0  0  0  0  0  0
   -8.0467    0.3993   -1.3014 H   0  0  0  0  0  0  0  0  0  0  0  0
   -5.5224   -0.4824    2.0898 H   0  0  0  0  0  0  0  0  0  0  0  0
   -3.4249    1.0431    2.0090 H   0  0  0  0  0  0  0  0  0  0  0  0
   -1.1362    1.1491    1.1251 H   0  0  0  0  0  0  0  0  0  0  0  0
    0.6603   -0.1282    0.9209 H   0  0  0  0  0  0  0  0  0  0  0  0
    2.2437   -0.1113   -2.4878 H   0  0  0  0  0  0  0  0  0  0  0  0
    4.6615    0.1042   -2.7756 H   0  0  0  0  0  0  0  0  0  0  0  0
    2.7572    0.0843    1.8039 H   0  0  0  0  0  0  0  0  0  0  0  0
    6.8293   -1.0294    1.3511 H   0  0  0  0  0  0  0  0  0  0  0  0
    7.2510    0.3734    2.3534 H   0  0  0  0  0  0  0  0  0  0  0  0
    6.9326    1.8987    0.3607 H   0  0  0  0  0  0  0  0  0  0  0  0
    8.1872    0.6774    0.0697 H   0  0  0  0  0  0  0  0  0  0  0  0
   -2.1595   -1.7978   -1.8652 H   0  0  0  0  0  0  0  0  0  0  0  0
   -4.4627   -1.8861   -0.9767 H   0  0  0  0  0  0  0  0  0  0  0  0
  1  2  1  0
  2  3  2  0
  2  4  2  0
  2  5  1  0
  5  6  1  0
  6  7  2  0
  7  8  1  0
  8  9  2  0
  9 10  1  0
 10 11  2  0
 10 12  1  0
 12 13  1  0
 13 14  2  0
 14 15  1  0
 15 16  2  0
 16 17  1  0
 17 18  2  0
 17 19  1  0
 19 20  1  0
 20 21  1  0
 21 22  1  0
  9 23  1  0
 23 24  2  0
 24  6  1  0
 18 13  1  0
 22 16  1  0
  1 25  1  0
  1 26  1  0
  1 27  1  0
  5 28  1  0
  7 29  1  0
  8 30  1  0
 12 31  1  0
 14 32  1  0
 15 33  1  0
 18 34  1  0
 20 35  1  0
 20 36  1  0
 21 37  1  0
 21 38  1  0
 23 39  1  0
 24 40  1  0
M  END
$$$$
