
     RDKit          3D

 34 35  0  0  0  0  0  0  0  0999 V2000
   -1.4035    2.0078    1.6959 C   0  0  0  0  0  0  0  0  0  0  0  0
   -0.0619    1.4862    1.4749 N   0  0  0  0  0  0  0  0  0  0  0  0
    0.1446    0.5915    0.5620 C   0  0  0  0  0  0  0  0  0  0  0  0
    1.5443    0.0735    0.3595 C   0  0  0  0  0  0  0  0  0  0  0  0
    1.8525   -0.8947   -0.6070 C   0  0  0  0  0  0  0  0  0  0  0  0
    3.1663   -1.3476   -0.7611 C   0  0  0  0  0  0  0  0  0  0  0  0
    4.1821   -0.8394    0.0461 C   0  0  0  0  0  0  0  0  0  0  0  0
    3.8878    0.1226    1.0094 C   0  0  0  0  0  0  0  0  0  0  0  0
    2.5761    0.5767    1.1653 C   0  0  0  0  0  0  0  0  0  0  0  0
   -0.9381    0.0434   -0.3053 C   0  0  0  0  0  0  0  0  0  0  0  0
   -1.2246    0.6742   -1.5341 C   0  0  0  0  0  0  0  0  0  0  0  0
   -0.4619    1.8809   -2.0068 C   0  0  0  0  0  0  0  0  0  0  0  0
   -2.2287    0.1310   -2.3464 C   0  0  0  0  0  0  0  0  0  0  0  0
   -2.9324   -1.0040   -1.9435 C   0  0  0  0  0  0  0  0  0  0  0  0
   -2.6415   -1.6183   -0.7254 C   0  0  0  0  0  0  0  0  0  0  0  0
   -1.6443   -1.1038    0.1134 C   0  0  0  0  0  0  0  0  0  0  0  0
   -1.3315   -1.8033    1.4072 C   0  0  0  0  0  0  0  0  0  0  0  0
   -2.1004    1.2261    2.0125 H   0  0  0  0  0  0  0  0  0  0  0  0
   -1.3632    2.7463    2.5031 H   0  0  0  0  0  0  0  0  0  0  0  0
   -1.7948    2.5209    0.8125 H   0  0  0  0  0  0  0  0  0  0  0  0
    1.0881   -1.3143   -1.2545 H   0  0  0  0  0  0  0  0  0  0  0  0
    3.3957   -2.0985   -1.5131 H   0  0  0  0  0  0  0  0  0  0  0  0
    5.2029   -1.1927   -0.0752 H   0  0  0  0  0  0  0  0  0  0  0  0
    4.6766    0.5222    1.6415 H   0  0  0  0  0  0  0  0  0  0  0  0
    2.3632    1.3286    1.9226 H   0  0  0  0  0  0  0  0  0  0  0  0
   -0.4521    2.6641   -1.2433 H   0  0  0  0  0  0  0  0  0  0  0  0
    0.5665    1.6042   -2.2584 H   0  0  0  0  0  0  0  0  0  0  0  0
   -0.9193    2.3143   -2.9028 H   0  0  0  0  0  0  0  0  0  0  0  0
   -2.4706    0.5888   -3.3035 H   0  0  0  0  0  0  0  0  0  0  0  0
   -3.7100   -1.4139   -2.5839 H   0  0  0  0  0  0  0  0  0  0  0  0
   -3.2010   -2.5057   -0.4360 H   0  0  0  0  0  0  0  0  0  0  0  0
   -2.0741   -2.5771    1.6303 H   0  0  0  0  0  0  0  0  0  0  0  0
   -1.3405   -1.1016    2.2463 H   0  0  0  0  0  0  0  0  0  0  0  0
   -0.3523   -2.2885    1.3484 H   0  0  0  0  0  0  0  0  0  0  0  0
  1  2  1  0
  2  3  2  3
  3  4  1  0
  4  5  2  0
  5  6  1  0
  6  7  2  0
  7  8  1  0
  8  9  2  0
  3 10  1  0
 10 11  2  0
 11 12  1  0
 11 13  1  0
 13 14  2  0
 14 15  1  0
 15 16  2  0
 16 17  1  0
  9  4  1  0
 16 10  1  0
  1 18  1  0
  1 19  1  0
  1 20  1  0
  5 21  1  0
  6 22  1  0
  7 23  1  0
  8 24  1  0
  9 25  1  0
 12 26  1  0
 12 27  1  0
 12 28  1  0
 13 29  1  0
 14 30  1  0
 15 31  1  0
 17 32  1  0
 17 33  1  0
 17 34  1  0
M  END
$$$$
