
     RDKit          3D

 51 53  0  0  0  0  0  0  0  0999 V2000
    4.5984   -3.6761   -2.5232 C   0  0  0  0  0  0  0  0  0  0  0  0
    4.2396   -2.4168   -1.9692 O   0  0  0  0  0  0  0  0  0  0  0  0
    2.9117   -2.1809   -1.7302 C   0  0  0  0  0  0  0  0  0  0  0  0
    1.8835   -3.0919   -2.0075 C   0  0  0  0  0  0  0  0  0  0  0  0
    0.5493   -2.7692   -1.7358 C   0  0  0  0  0  0  0  0  0  0  0  0
    0.2349   -1.5278   -1.1859 C   0  0  0  0  0  0  0  0  0  0  0  0
   -1.1775   -1.2004   -0.9085 C   0  0  0  0  0  0  0  0  0  0  0  0
   -1.5285   -0.0367   -0.4659 N   0  0  0  0  0  0  0  0  0  0  0  0
   -2.8623    0.1275   -0.2487 N   0  0  0  0  0  0  0  0  0  0  0  0
   -3.3565    1.3360    0.2111 C   0  0  0  0  0  0  0  0  0  0  0  0
   -2.6730    2.3357    0.4214 O   0  0  0  0  0  0  0  0  0  0  0  0
   -4.8372    1.4015    0.4328 C   0  0  0  0  0  0  0  0  0  0  0  0
   -5.4035    2.6812    0.5715 C   0  0  0  0  0  0  0  0  0  0  0  0
   -6.7765    2.8408    0.7671 C   0  0  0  0  0  0  0  0  0  0  0  0
   -7.6033    1.7233    0.8211 C   0  0  0  0  0  0  0  0  0  0  0  0
   -7.0575    0.4449    0.6961 C   0  0  0  0  0  0  0  0  0  0  0  0
   -5.6759    0.2765    0.5263 C   0  0  0  0  0  0  0  0  0  0  0  0
   -5.1451   -0.9846    0.3933 O   0  0  0  0  0  0  0  0  0  0  0  0
   -5.5071   -1.8517    1.4714 C   0  0  0  0  0  0  0  0  0  0  0  0
    1.2497   -0.6122   -0.9045 C   0  0  0  0  0  0  0  0  0  0  0  0
    2.5958   -0.9285   -1.1713 C   0  0  0  0  0  0  0  0  0  0  0  0
    3.6540    0.1011   -0.8419 C   0  0  0  0  0  0  0  0  0  0  0  0
    3.6634    0.2825    0.5761 O   0  0  0  0  0  0  0  0  0  0  0  0
    4.4771    1.2499    1.0973 C   0  0  0  0  0  0  0  0  0  0  0  0
    4.3969    1.4083    2.4869 C   0  0  0  0  0  0  0  0  0  0  0  0
    3.5632    0.6356    3.2006 F   0  0  0  0  0  0  0  0  0  0  0  0
    5.1709    2.3553    3.1510 C   0  0  0  0  0  0  0  0  0  0  0  0
    5.0768    2.4860    4.4818 F   0  0  0  0  0  0  0  0  0  0  0  0
    6.0412    3.1612    2.4359 C   0  0  0  0  0  0  0  0  0  0  0  0
    6.7904    4.0730    3.0710 F   0  0  0  0  0  0  0  0  0  0  0  0
    6.1377    3.0181    1.0599 C   0  0  0  0  0  0  0  0  0  0  0  0
    6.9855    3.7916    0.3662 F   0  0  0  0  0  0  0  0  0  0  0  0
    5.3627    2.0701    0.3930 C   0  0  0  0  0  0  0  0  0  0  0  0
    5.5000    1.9686   -0.9367 F   0  0  0  0  0  0  0  0  0  0  0  0
    4.1567   -3.8104   -3.5158 H   0  0  0  0  0  0  0  0  0  0  0  0
    5.6864   -3.6922   -2.6387 H   0  0  0  0  0  0  0  0  0  0  0  0
    4.3232   -4.4955   -1.8513 H   0  0  0  0  0  0  0  0  0  0  0  0
    2.0875   -4.0673   -2.4384 H   0  0  0  0  0  0  0  0  0  0  0  0
   -0.2289   -3.4932   -1.9613 H   0  0  0  0  0  0  0  0  0  0  0  0
   -1.9193   -1.9959   -1.1033 H   0  0  0  0  0  0  0  0  0  0  0  0
   -3.5006   -0.6507   -0.3877 H   0  0  0  0  0  0  0  0  0  0  0  0
   -4.7700    3.5662    0.5196 H   0  0  0  0  0  0  0  0  0  0  0  0
   -7.1965    3.8388    0.8674 H   0  0  0  0  0  0  0  0  0  0  0  0
   -8.6751    1.8470    0.9567 H   0  0  0  0  0  0  0  0  0  0  0  0
   -7.7246   -0.4122    0.7179 H   0  0  0  0  0  0  0  0  0  0  0  0
   -4.7772   -2.6667    1.5005 H   0  0  0  0  0  0  0  0  0  0  0  0
   -5.4767   -1.3377    2.4394 H   0  0  0  0  0  0  0  0  0  0  0  0
   -6.4939   -2.2908    1.2955 H   0  0  0  0  0  0  0  0  0  0  0  0
    0.9990    0.3539   -0.4658 H   0  0  0  0  0  0  0  0  0  0  0  0
    4.6446   -0.2205   -1.1770 H   0  0  0  0  0  0  0  0  0  0  0  0
    3.3866    1.0354   -1.3514 H   0  0  0  0  0  0  0  0  0  0  0  0
  1  2  1  0
  2  3  1  0
  3  4  2  0
  4  5  1  0
  5  6  2  0
  6  7  1  0
  7  8  2  3
  8  9  1  0
  9 10  1  0
 10 11  2  0
 10 12  1  0
 12 13  2  0
 13 14  1  0
 14 15  2  0
 15 16  1  0
 16 17  2  0
 17 18  1  0
 18 19  1  0
  6 20  1  0
 20 21  2  0
 21 22  1  0
 22 23  1  0
 23 24  1  0
 24 25  2  0
 25 26  1  0
 25 27  1  0
 27 28  1  0
 27 29  2  0
 29 30  1  0
 29 31  1  0
 31 32  1  0
 31 33  2  0
 33 34  1  0
 21  3  1  0
 33 24  1  0
 17 12  1  0
  1 35  1  0
  1 36  1  0
  1 37  1  0
  4 38  1  0
  5 39  1  0
  7 40  1  0
  9 41  1  0
 13 42  1  0
 14 43  1  0
 15 44  1  0
 16 45  1  0
 19 46  1  0
 19 47  1  0
 19 48  1  0
 20 49  1  0
 22 50  1  0
 22 51  1  0
M  END
$$$$
