
     RDKit          3D

 42 44  0  0  0  0  0  0  0  0999 V2000
    4.8703    1.0018    5.6780 C   0  0  0  0  0  0  0  0  0  0  0  0
    3.4526    0.8843    5.6448 O   0  0  0  0  0  0  0  0  0  0  0  0
    2.8729    0.7051    4.4192 C   0  0  0  0  0  0  0  0  0  0  0  0
    3.5410    0.6272    3.2029 C   0  0  0  0  0  0  0  0  0  0  0  0
    2.8156    0.4413    2.0232 C   0  0  0  0  0  0  0  0  0  0  0  0
    1.4132    0.3303    2.0385 C   0  0  0  0  0  0  0  0  0  0  0  0
    0.7502    0.1328    0.7057 C   0  0  0  0  0  0  0  0  0  0  0  0
    1.4279    0.0763   -0.3207 O   0  0  0  0  0  0  0  0  0  0  0  0
   -0.6335    0.0191    0.6826 N   0  0  0  0  0  0  0  0  0  0  0  0
   -1.4992   -0.1663   -0.3889 C   0  0  0  0  0  0  0  0  0  0  0  0
   -3.1204   -0.2546   -0.0002 S   0  0  0  0  0  0  0  0  0  0  0  0
   -0.8737   -0.2483   -1.6113 N   0  0  0  0  0  0  0  0  0  0  0  0
   -1.3229   -0.4279   -2.9385 C   0  0  0  0  0  0  0  0  0  0  0  0
   -0.2979   -0.4526   -3.9279 C   0  0  0  0  0  0  0  0  0  0  0  0
   -0.5743   -0.6223   -5.2915 C   0  0  0  0  0  0  0  0  0  0  0  0
   -1.8934   -0.7651   -5.6314 C   0  0  0  0  0  0  0  0  0  0  0  0
   -2.4801   -0.9470   -6.8780 N   0  0  0  0  0  0  0  0  0  0  0  0
   -3.8696   -1.0407   -6.7117 C   0  0  0  0  0  0  0  0  0  0  0  0
   -4.6970   -1.2023   -7.5905 O   0  0  0  0  0  0  0  0  0  0  0  0
   -4.1183   -0.9121   -5.3379 N   0  0  0  0  0  0  0  0  0  0  0  0
   -2.9051   -0.7431   -4.6769 C   0  0  0  0  0  0  0  0  0  0  0  0
   -2.6563   -0.5775   -3.3308 C   0  0  0  0  0  0  0  0  0  0  0  0
    0.7341    0.4090    3.2707 C   0  0  0  0  0  0  0  0  0  0  0  0
   -0.6335    0.2971    3.2528 O   0  0  0  0  0  0  0  0  0  0  0  0
   -1.3278    0.3757    4.4953 C   0  0  0  0  0  0  0  0  0  0  0  0
    1.4774    0.5959    4.4461 C   0  0  0  0  0  0  0  0  0  0  0  0
    5.3503    0.0888    5.3104 H   0  0  0  0  0  0  0  0  0  0  0  0
    5.1698    1.1387    6.7215 H   0  0  0  0  0  0  0  0  0  0  0  0
    5.2063    1.8798    5.1166 H   0  0  0  0  0  0  0  0  0  0  0  0
    4.6211    0.7063    3.1317 H   0  0  0  0  0  0  0  0  0  0  0  0
    3.3602    0.3832    1.0812 H   0  0  0  0  0  0  0  0  0  0  0  0
   -1.1069    0.0780    1.5786 H   0  0  0  0  0  0  0  0  0  0  0  0
    0.1410   -0.1575   -1.5256 H   0  0  0  0  0  0  0  0  0  0  0  0
    0.7440   -0.3366   -3.6300 H   0  0  0  0  0  0  0  0  0  0  0  0
    0.2179   -0.6384   -6.0292 H   0  0  0  0  0  0  0  0  0  0  0  0
   -2.0179   -1.0064   -7.7699 H   0  0  0  0  0  0  0  0  0  0  0  0
   -5.0368   -0.9414   -4.9264 H   0  0  0  0  0  0  0  0  0  0  0  0
   -3.4888   -0.5705   -2.6469 H   0  0  0  0  0  0  0  0  0  0  0  0
   -2.3962    0.2671    4.2853 H   0  0  0  0  0  0  0  0  0  0  0  0
   -1.0351   -0.4416    5.1623 H   0  0  0  0  0  0  0  0  0  0  0  0
   -1.1792    1.3518    4.9683 H   0  0  0  0  0  0  0  0  0  0  0  0
    0.9981    0.6625    5.4185 H   0  0  0  0  0  0  0  0  0  0  0  0
  1  2  1  0
  2  3  1  0
  3  4  2  0
  4  5  1  0
  5  6  2  0
  6  7  1  0
  7  8  2  0
  7  9  1  0
  9 10  1  0
 10 11  2  0
 10 12  1  0
 12 13  1  0
 13 14  2  0
 14 15  1  0
 15 16  2  0
 16 17  1  0
 17 18  1  0
 18 19  2  0
 18 20  1  0
 20 21  1  0
 21 22  2  0
  6 23  1  0
 23 24  1  0
 24 25  1  0
 23 26  2  0
 26  3  1  0
 22 13  1  0
 21 16  1  0
  1 27  1  0
  1 28  1  0
  1 29  1  0
  4 30  1  0
  5 31  1  0
  9 32  1  0
 12 33  1  0
 14 34  1  0
 15 35  1  0
 17 36  1  0
 20 37  1  0
 22 38  1  0
 25 39  1  0
 25 40  1  0
 25 41  1  0
 26 42  1  0
M  END
$$$$
