
     RDKit          3D

 39 41  0  0  0  0  0  0  0  0999 V2000
   -2.0193    1.7383    4.1682 C   0  0  0  0  0  0  0  0  0  0  0  0
   -2.9808    1.4571    3.1586 O   0  0  0  0  0  0  0  0  0  0  0  0
   -2.5034    1.2306    1.8969 C   0  0  0  0  0  0  0  0  0  0  0  0
   -1.1664    1.3022    1.5004 C   0  0  0  0  0  0  0  0  0  0  0  0
   -0.8118    1.0455    0.1721 C   0  0  0  0  0  0  0  0  0  0  0  0
   -1.7987    0.6965   -0.7544 C   0  0  0  0  0  0  0  0  0  0  0  0
   -1.3495    0.3595   -2.4426 S   0  0  0  0  0  6  0  0  0  0  0  0
   -2.5285    0.5692   -3.2586 O   0  0  0  0  0  0  0  0  0  0  0  0
   -0.1147    1.0599   -2.7265 O   0  0  0  0  0  0  0  0  0  0  0  0
   -1.0778   -1.3122   -2.4394 N   0  0  0  0  0  0  0  0  0  0  0  0
   -0.1380   -1.8548   -1.5183 C   0  0  0  0  0  0  0  0  0  0  0  0
   -0.5919   -2.6559   -0.4702 C   0  0  0  0  0  0  0  0  0  0  0  0
    0.3112   -3.1242    0.4841 C   0  0  0  0  0  0  0  0  0  0  0  0
    1.6577   -2.7806    0.3898 C   0  0  0  0  0  0  0  0  0  0  0  0
    2.4885   -3.2594    1.3662 O   0  0  0  0  0  0  0  0  0  0  0  0
    2.1270   -1.9747   -0.6545 C   0  0  0  0  0  0  0  0  0  0  0  0
    3.8560   -1.5211   -0.7507 S   0  0  0  0  0  0  0  0  0  0  0  0
    3.7371    0.1917   -1.0680 C   0  0  0  0  0  0  0  0  0  0  0  0
    3.0276    1.0557   -0.2742 N   0  0  0  0  0  0  0  0  0  0  0  0
    3.1056    2.1883   -0.9341 C   0  0  0  0  0  0  0  0  0  0  0  0
    3.8295    2.0037   -2.0698 N   0  0  0  0  0  0  0  0  0  0  0  0
    4.2764    0.7414   -2.1603 N   0  0  0  0  0  0  0  0  0  0  0  0
    1.2158   -1.5360   -1.6236 C   0  0  0  0  0  0  0  0  0  0  0  0
   -3.1408    0.6427   -0.3739 C   0  0  0  0  0  0  0  0  0  0  0  0
   -3.4850    0.9078    0.9530 C   0  0  0  0  0  0  0  0  0  0  0  0
   -2.5555    1.8705    5.1133 H   0  0  0  0  0  0  0  0  0  0  0  0
   -1.4842    2.6692    3.9551 H   0  0  0  0  0  0  0  0  0  0  0  0
   -1.3211    0.9033    4.2951 H   0  0  0  0  0  0  0  0  0  0  0  0
   -0.3738    1.5562    2.1973 H   0  0  0  0  0  0  0  0  0  0  0  0
    0.2342    1.1051   -0.1226 H   0  0  0  0  0  0  0  0  0  0  0  0
   -1.9358   -1.8350   -2.6091 H   0  0  0  0  0  0  0  0  0  0  0  0
   -1.6437   -2.9086   -0.3729 H   0  0  0  0  0  0  0  0  0  0  0  0
   -0.0332   -3.7475    1.3052 H   0  0  0  0  0  0  0  0  0  0  0  0
    3.3825   -2.9208    1.1709 H   0  0  0  0  0  0  0  0  0  0  0  0
    2.6617    3.1344   -0.6600 H   0  0  0  0  0  0  0  0  0  0  0  0
    4.0340    2.6624   -2.8119 H   0  0  0  0  0  0  0  0  0  0  0  0
    1.5564   -0.9286   -2.4604 H   0  0  0  0  0  0  0  0  0  0  0  0
   -3.9191    0.4009   -1.0929 H   0  0  0  0  0  0  0  0  0  0  0  0
   -4.5283    0.8674    1.2581 H   0  0  0  0  0  0  0  0  0  0  0  0
  1  2  1  0
  2  3  1  0
  3  4  2  0
  4  5  1  0
  5  6  2  0
  6  7  1  0
  7  8  2  0
  7  9  2  0
  7 10  1  0
 10 11  1  0
 11 12  2  0
 12 13  1  0
 13 14  2  0
 14 15  1  0
 14 16  1  0
 16 17  1  0
 17 18  1  0
 18 19  1  0
 19 20  2  0
 20 21  1  0
 21 22  1  0
 16 23  2  0
  6 24  1  0
 24 25  2  0
 25  3  1  0
 23 11  1  0
 22 18  2  0
  1 26  1  0
  1 27  1  0
  1 28  1  0
  4 29  1  0
  5 30  1  0
 10 31  1  0
 12 32  1  0
 13 33  1  0
 15 34  1  0
 20 35  1  0
 21 36  1  0
 23 37  1  0
 24 38  1  0
 25 39  1  0
M  END
$$$$
