
     RDKit          3D

 56 58  0  0  0  0  0  0  0  0999 V2000
    3.5478    3.1252   -4.7836 C   0  0  0  0  0  0  0  0  0  0  0  0
    4.2554    1.8898   -4.7802 O   0  0  0  0  0  0  0  0  0  0  0  0
    4.0902    1.0886   -3.6828 C   0  0  0  0  0  0  0  0  0  0  0  0
    4.7372   -0.1451   -3.7619 C   0  0  0  0  0  0  0  0  0  0  0  0
    4.6514   -1.0676   -2.7164 C   0  0  0  0  0  0  0  0  0  0  0  0
    3.9087   -0.7589   -1.5763 C   0  0  0  0  0  0  0  0  0  0  0  0
    3.7590   -1.5876   -0.4869 O   0  0  0  0  0  0  0  0  0  0  0  0
    4.3514   -2.8784   -0.5715 C   0  0  0  0  0  0  0  0  0  0  0  0
    3.2539    0.4893   -1.4857 C   0  0  0  0  0  0  0  0  0  0  0  0
    2.5260    0.7403   -0.2996 N   0  0  0  0  0  0  0  0  0  0  0  0
    1.7936    1.8612    0.0434 C   0  0  0  0  0  0  0  0  0  0  0  0
    1.6090    2.8464   -0.6677 O   0  0  0  0  0  0  0  0  0  0  0  0
    1.2646    1.8125    1.4706 C   0  0  0  0  0  0  0  0  0  0  0  0
   -0.5438    1.8762    1.5281 S   0  0  0  0  0  0  0  0  0  0  0  0
   -0.9408    0.1889    1.2925 C   0  0  0  0  0  0  0  0  0  0  0  0
   -0.1725   -0.5038    0.5177 N   0  0  0  0  0  0  0  0  0  0  0  0
   -0.4980   -1.8402    0.2708 C   0  0  0  0  0  0  0  0  0  0  0  0
    0.2824   -2.5733   -0.6261 C   0  0  0  0  0  0  0  0  0  0  0  0
   -0.0069   -3.9137   -0.8919 C   0  0  0  0  0  0  0  0  0  0  0  0
   -1.0872   -4.5338   -0.2634 C   0  0  0  0  0  0  0  0  0  0  0  0
   -1.8820   -3.8084    0.6229 C   0  0  0  0  0  0  0  0  0  0  0  0
   -1.5821   -2.4651    0.8777 C   0  0  0  0  0  0  0  0  0  0  0  0
   -2.4160   -1.6562    1.7798 C   0  0  0  0  0  0  0  0  0  0  0  0
   -3.3830   -2.1756    2.3346 O   0  0  0  0  0  0  0  0  0  0  0  0
   -2.0520   -0.3202    1.9475 N   0  0  0  0  0  0  0  0  0  0  0  0
   -2.9533    0.4746    2.7933 C   0  0  0  0  0  0  0  0  0  0  0  0
   -4.1680    0.9856    2.0104 C   0  0  0  0  0  0  0  0  0  0  0  0
   -5.1038    1.7100    2.8543 N   0  0  0  0  0  0  0  0  0  0  0  0
   -6.0982    2.4710    2.2735 C   0  0  0  0  0  0  0  0  0  0  0  0
   -7.0921    3.0195    3.2607 C   0  0  0  0  0  0  0  0  0  0  0  0
   -6.1941    2.6682    1.0665 O   0  0  0  0  0  0  0  0  0  0  0  0
    3.3550    1.4056   -2.5389 C   0  0  0  0  0  0  0  0  0  0  0  0
    3.7393    3.6150   -5.7422 H   0  0  0  0  0  0  0  0  0  0  0  0
    3.9128    3.7889   -3.9939 H   0  0  0  0  0  0  0  0  0  0  0  0
    2.4675    2.9646   -4.7035 H   0  0  0  0  0  0  0  0  0  0  0  0
    5.3180   -0.3887   -4.6493 H   0  0  0  0  0  0  0  0  0  0  0  0
    5.1781   -2.0089   -2.8273 H   0  0  0  0  0  0  0  0  0  0  0  0
    4.1085   -3.4170    0.3498 H   0  0  0  0  0  0  0  0  0  0  0  0
    3.9358   -3.4495   -1.4082 H   0  0  0  0  0  0  0  0  0  0  0  0
    5.4422   -2.8071   -0.6388 H   0  0  0  0  0  0  0  0  0  0  0  0
    2.4925   -0.0579    0.3289 H   0  0  0  0  0  0  0  0  0  0  0  0
    1.6381    0.9438    2.0230 H   0  0  0  0  0  0  0  0  0  0  0  0
    1.6532    2.7004    1.9850 H   0  0  0  0  0  0  0  0  0  0  0  0
    1.1145   -2.0909   -1.1338 H   0  0  0  0  0  0  0  0  0  0  0  0
    0.6071   -4.4699   -1.5964 H   0  0  0  0  0  0  0  0  0  0  0  0
   -1.3157   -5.5769   -0.4713 H   0  0  0  0  0  0  0  0  0  0  0  0
   -2.7333   -4.2844    1.1063 H   0  0  0  0  0  0  0  0  0  0  0  0
   -3.2959   -0.1496    3.6296 H   0  0  0  0  0  0  0  0  0  0  0  0
   -2.4283    1.3137    3.2605 H   0  0  0  0  0  0  0  0  0  0  0  0
   -4.7186    0.1557    1.5540 H   0  0  0  0  0  0  0  0  0  0  0  0
   -3.8457    1.6420    1.1950 H   0  0  0  0  0  0  0  0  0  0  0  0
   -5.3230    1.3100    3.7582 H   0  0  0  0  0  0  0  0  0  0  0  0
   -6.6198    3.2033    4.2302 H   0  0  0  0  0  0  0  0  0  0  0  0
   -7.9112    2.3058    3.3833 H   0  0  0  0  0  0  0  0  0  0  0  0
   -7.4857    3.9690    2.8869 H   0  0  0  0  0  0  0  0  0  0  0  0
    2.8581    2.3638   -2.4670 H   0  0  0  0  0  0  0  0  0  0  0  0
  1  2  1  0
  2  3  1  0
  3  4  2  0
  4  5  1  0
  5  6  2  0
  6  7  1  0
  7  8  1  0
  6  9  1  0
  9 10  1  0
 10 11  1  0
 11 12  2  0
 11 13  1  0
 13 14  1  0
 14 15  1  0
 15 16  2  0
 16 17  1  0
 17 18  2  0
 18 19  1  0
 19 20  2  0
 20 21  1  0
 21 22  2  0
 22 23  1  0
 23 24  2  0
 23 25  1  0
 25 26  1  0
 26 27  1  0
 27 28  1  0
 28 29  1  0
 29 30  1  0
 29 31  2  0
  9 32  2  0
 32  3  1  0
 25 15  1  0
 22 17  1  0
  1 33  1  0
  1 34  1  0
  1 35  1  0
  4 36  1  0
  5 37  1  0
  8 38  1  0
  8 39  1  0
  8 40  1  0
 10 41  1  0
 13 42  1  0
 13 43  1  0
 18 44  1  0
 19 45  1  0
 20 46  1  0
 21 47  1  0
 26 48  1  0
 26 49  1  0
 27 50  1  0
 27 51  1  0
 28 52  1  0
 30 53  1  0
 30 54  1  0
 30 55  1  0
 32 56  1  0
M  END
$$$$
