
     RDKit          3D

 49 52  0  0  0  0  0  0  0  0999 V2000
   -3.6317    0.2788    3.4875 O   0  0  0  0  0  0  0  0  0  0  0  0
   -3.8408    0.3196    2.2749 C   0  0  0  0  0  0  0  0  0  0  0  0
   -2.7542    0.3532    1.3109 C   0  0  0  0  0  0  0  0  0  0  0  0
   -2.7120    0.0319   -0.0561 C   0  0  0  0  0  0  0  0  0  0  0  0
   -1.5068    0.2145   -0.5924 N   0  0  0  0  0  0  0  0  0  0  0  0
   -0.7045    0.5675    0.4475 N   0  0  0  0  0  0  0  0  0  0  0  0
    0.6852    0.7976    0.2117 C   0  0  0  0  0  0  0  0  0  0  0  0
    1.0983    0.9809   -1.1257 C   0  0  0  0  0  0  0  0  0  0  0  0
    2.4320    1.2632   -1.4425 C   0  0  0  0  0  0  0  0  0  0  0  0
    3.3832    1.3459   -0.4255 C   0  0  0  0  0  0  0  0  0  0  0  0
    5.0814    1.7064   -0.8232 S   0  0  0  0  0  6  0  0  0  0  0  0
    5.6351    2.4193    0.3082 O   0  0  0  0  0  0  0  0  0  0  0  0
    5.1168    2.2657   -2.1561 O   0  0  0  0  0  0  0  0  0  0  0  0
    5.8020    0.1839   -0.8217 N   0  0  0  0  0  0  0  0  0  0  0  0
    5.2455   -0.8666   -1.6012 C   0  0  0  0  0  0  0  0  0  0  0  0
    5.1494   -0.7638   -2.9885 C   0  0  0  0  0  0  0  0  0  0  0  0
    4.5604   -1.7932   -3.7243 C   0  0  0  0  0  0  0  0  0  0  0  0
    4.0707   -2.9253   -3.0738 C   0  0  0  0  0  0  0  0  0  0  0  0
    4.1747   -3.0321   -1.6874 C   0  0  0  0  0  0  0  0  0  0  0  0
    4.7646   -2.0041   -0.9500 C   0  0  0  0  0  0  0  0  0  0  0  0
    3.0125    1.1634    0.9071 C   0  0  0  0  0  0  0  0  0  0  0  0
    1.6693    0.8763    1.2095 C   0  0  0  0  0  0  0  0  0  0  0  0
    1.4097    0.5235    2.5874 N   0  0  0  0  0  4  0  0  0  0  0  0
    1.1207   -0.6569    2.8162 O   0  0  0  0  0  0  0  0  0  0  0  0
    1.5282    1.4231    3.4267 O   0  0  0  0  0  1  0  0  0  0  0  0
   -1.4450    0.6980    1.5995 C   0  0  0  0  0  0  0  0  0  0  0  0
   -5.2549    0.2852    1.8284 C   0  0  0  0  0  0  0  0  0  0  0  0
   -5.6895    1.0105    0.7130 C   0  0  0  0  0  0  0  0  0  0  0  0
   -7.0253    0.9368    0.3274 C   0  0  0  0  0  0  0  0  0  0  0  0
   -7.4343    1.6283   -0.7433 F   0  0  0  0  0  0  0  0  0  0  0  0
   -7.9415    0.1656    1.0339 C   0  0  0  0  0  0  0  0  0  0  0  0
   -7.5221   -0.5333    2.1642 C   0  0  0  0  0  0  0  0  0  0  0  0
   -6.1893   -0.4584    2.5679 C   0  0  0  0  0  0  0  0  0  0  0  0
   -5.8628   -1.1413    3.7086 O   0  0  0  0  0  0  0  0  0  0  0  0
   -3.5078   -0.3219   -0.7001 H   0  0  0  0  0  0  0  0  0  0  0  0
    0.3817    0.9275   -1.9470 H   0  0  0  0  0  0  0  0  0  0  0  0
    2.7149    1.4109   -2.4843 H   0  0  0  0  0  0  0  0  0  0  0  0
    6.2353   -0.0512    0.0694 H   0  0  0  0  0  0  0  0  0  0  0  0
    5.5376    0.1075   -3.5105 H   0  0  0  0  0  0  0  0  0  0  0  0
    4.4869   -1.7120   -4.8062 H   0  0  0  0  0  0  0  0  0  0  0  0
    3.6117   -3.7265   -3.6489 H   0  0  0  0  0  0  0  0  0  0  0  0
    3.7956   -3.9168   -1.1815 H   0  0  0  0  0  0  0  0  0  0  0  0
    4.8337   -2.1016    0.1296 H   0  0  0  0  0  0  0  0  0  0  0  0
    3.7593    1.2211    1.6981 H   0  0  0  0  0  0  0  0  0  0  0  0
   -1.0344    1.0400    2.5373 H   0  0  0  0  0  0  0  0  0  0  0  0
   -5.0241    1.6512    0.1432 H   0  0  0  0  0  0  0  0  0  0  0  0
   -8.9773    0.1259    0.7106 H   0  0  0  0  0  0  0  0  0  0  0  0
   -8.2315   -1.1250    2.7378 H   0  0  0  0  0  0  0  0  0  0  0  0
   -5.0067   -0.7933    4.0456 H   0  0  0  0  0  0  0  0  0  0  0  0
  1  2  2  0
  2  3  1  0
  3  4  1  0
  4  5  2  0
  5  6  1  0
  6  7  1  0
  7  8  2  0
  8  9  1  0
  9 10  2  0
 10 11  1  0
 11 12  2  0
 11 13  2  0
 11 14  1  0
 14 15  1  0
 15 16  2  0
 16 17  1  0
 17 18  2  0
 18 19  1  0
 19 20  2  0
 10 21  1  0
 21 22  2  0
 22 23  1  0
 23 24  2  0
 23 25  1  0
  6 26  1  0
  2 27  1  0
 27 28  2  0
 28 29  1  0
 29 30  1  0
 29 31  2  0
 31 32  1  0
 32 33  2  0
 33 34  1  0
 26  3  2  0
 33 27  1  0
 22  7  1  0
 20 15  1  0
  4 35  1  0
  8 36  1  0
  9 37  1  0
 14 38  1  0
 16 39  1  0
 17 40  1  0
 18 41  1  0
 19 42  1  0
 20 43  1  0
 21 44  1  0
 26 45  1  0
 28 46  1  0
 31 47  1  0
 32 48  1  0
 34 49  1  0
M  CHG  2  23   1  25  -1
M  END
$$$$
