
     RDKit          3D

 51 54  0  0  0  0  0  0  0  0999 V2000
    6.2880   -0.1884   -3.1943 C   0  0  0  0  0  0  0  0  0  0  0  0
    5.3627   -0.1861   -2.0161 C   0  0  0  0  0  0  0  0  0  0  0  0
    4.0189    0.1679   -2.1786 C   0  0  0  0  0  0  0  0  0  0  0  0
    3.1282    0.1961   -1.0863 C   0  0  0  0  0  0  0  0  0  0  0  0
    1.6962    0.5834   -1.3491 C   0  0  0  0  0  0  0  0  0  0  0  0
    3.5999   -0.1405    0.2024 C   0  0  0  0  0  0  0  0  0  0  0  0
    2.6897   -0.1094    1.2911 N   0  0  0  0  0  0  0  0  0  0  0  0
    2.5636   -1.1599    2.1918 C   0  0  0  0  0  0  0  0  0  0  0  0
    3.1416   -2.2435    2.1062 O   0  0  0  0  0  0  0  0  0  0  0  0
    1.5926   -0.8767    3.3229 C   0  0  0  0  0  0  0  0  0  0  0  0
   -0.0753   -1.4569    2.9037 S   0  0  0  0  0  0  0  0  0  0  0  0
   -0.6729   -0.1288    1.9833 C   0  0  0  0  0  0  0  0  0  0  0  0
    0.0379    0.9033    1.5969 N   0  0  0  0  0  0  0  0  0  0  0  0
   -0.7980    1.7615    0.9339 N   0  0  0  0  0  0  0  0  0  0  0  0
   -2.0079    1.2383    0.9251 C   0  0  0  0  0  0  0  0  0  0  0  0
   -3.1972    1.8674    0.3699 C   0  0  0  0  0  0  0  0  0  0  0  0
   -3.6582    1.5288   -0.9016 C   0  0  0  0  0  0  0  0  0  0  0  0
   -4.8041    2.1501   -1.3669 C   0  0  0  0  0  0  0  0  0  0  0  0
   -5.4989    3.0655   -0.6585 N   0  0  0  0  0  0  0  0  0  0  0  0
   -5.0138    3.3969    0.5582 C   0  0  0  0  0  0  0  0  0  0  0  0
   -3.8782    2.8330    1.1099 C   0  0  0  0  0  0  0  0  0  0  0  0
   -1.9668    0.0175    1.5716 N   0  0  0  0  0  0  0  0  0  0  0  0
   -3.0968   -0.8532    1.8355 C   0  0  0  0  0  0  0  0  0  0  0  0
   -3.4784   -1.6361    0.6335 C   0  0  0  0  0  0  0  0  0  0  0  0
   -4.6615   -1.7775   -0.0631 C   0  0  0  0  0  0  0  0  0  0  0  0
   -4.3948   -2.6803   -1.1225 C   0  0  0  0  0  0  0  0  0  0  0  0
   -3.0724   -3.0355   -1.0013 C   0  0  0  0  0  0  0  0  0  0  0  0
   -2.5093   -2.4078    0.0627 O   0  0  0  0  0  0  0  0  0  0  0  0
    4.9692   -0.4375    0.3728 C   0  0  0  0  0  0  0  0  0  0  0  0
    5.7113   -0.5967    1.9363 Cl  0  0  0  0  0  0  0  0  0  0  0  0
    5.8340   -0.4677   -0.7310 C   0  0  0  0  0  0  0  0  0  0  0  0
    6.5611    0.8384   -3.4588 H   0  0  0  0  0  0  0  0  0  0  0  0
    5.8114   -0.6697   -4.0532 H   0  0  0  0  0  0  0  0  0  0  0  0
    7.2047   -0.7487   -2.9776 H   0  0  0  0  0  0  0  0  0  0  0  0
    3.6564    0.4208   -3.1757 H   0  0  0  0  0  0  0  0  0  0  0  0
    1.0110   -0.1372   -0.8977 H   0  0  0  0  0  0  0  0  0  0  0  0
    1.5023    1.5825   -0.9504 H   0  0  0  0  0  0  0  0  0  0  0  0
    1.4720    0.6017   -2.4222 H   0  0  0  0  0  0  0  0  0  0  0  0
    1.8367    0.4370    1.1664 H   0  0  0  0  0  0  0  0  0  0  0  0
    1.5979    0.1864    3.5881 H   0  0  0  0  0  0  0  0  0  0  0  0
    1.9412   -1.4226    4.2052 H   0  0  0  0  0  0  0  0  0  0  0  0
   -3.1393    0.8054   -1.5221 H   0  0  0  0  0  0  0  0  0  0  0  0
   -5.2027    1.9251   -2.3523 H   0  0  0  0  0  0  0  0  0  0  0  0
   -5.5777    4.1550    1.0938 H   0  0  0  0  0  0  0  0  0  0  0  0
   -3.5268    3.1477    2.0882 H   0  0  0  0  0  0  0  0  0  0  0  0
   -2.8581   -1.5248    2.6642 H   0  0  0  0  0  0  0  0  0  0  0  0
   -3.9286   -0.2237    2.1732 H   0  0  0  0  0  0  0  0  0  0  0  0
   -5.6019   -1.2866    0.1607 H   0  0  0  0  0  0  0  0  0  0  0  0
   -5.0810   -3.0341   -1.8785 H   0  0  0  0  0  0  0  0  0  0  0  0
   -2.4164   -3.6925   -1.5594 H   0  0  0  0  0  0  0  0  0  0  0  0
    6.8882   -0.6872   -0.5774 H   0  0  0  0  0  0  0  0  0  0  0  0
  1  2  1  0
  2  3  2  0
  3  4  1  0
  4  5  1  0
  4  6  2  0
  6  7  1  0
  7  8  1  0
  8  9  2  0
  8 10  1  0
 10 11  1  0
 11 12  1  0
 12 13  2  0
 13 14  1  0
 14 15  2  0
 15 16  1  0
 16 17  2  0
 17 18  1  0
 18 19  2  0
 19 20  1  0
 20 21  2  0
 15 22  1  0
 22 23  1  0
 23 24  1  0
 24 25  2  0
 25 26  1  0
 26 27  2  0
 27 28  1  0
  6 29  1  0
 29 30  1  0
 29 31  2  0
 31  2  1  0
 22 12  1  0
 28 24  1  0
 21 16  1  0
  1 32  1  0
  1 33  1  0
  1 34  1  0
  3 35  1  0
  5 36  1  0
  5 37  1  0
  5 38  1  0
  7 39  1  0
 10 40  1  0
 10 41  1  0
 17 42  1  0
 18 43  1  0
 20 44  1  0
 21 45  1  0
 23 46  1  0
 23 47  1  0
 25 48  1  0
 26 49  1  0
 27 50  1  0
 31 51  1  0
M  END
$$$$
