
     RDKit          3D

 57 60  0  0  0  0  0  0  0  0999 V2000
   10.3868   -0.2450    1.1970 C   0  0  0  0  0  0  0  0  0  0  0  0
    9.0687   -0.1163    0.4520 C   0  0  0  0  0  0  0  0  0  0  0  0
    8.2238    0.7515    1.2069 O   0  0  0  0  0  0  0  0  0  0  0  0
    6.9384    0.9021    0.7708 C   0  0  0  0  0  0  0  0  0  0  0  0
    6.1069    1.6072    1.6403 C   0  0  0  0  0  0  0  0  0  0  0  0
    4.7602    1.8084    1.3300 C   0  0  0  0  0  0  0  0  0  0  0  0
    4.2249    1.3164    0.1356 C   0  0  0  0  0  0  0  0  0  0  0  0
    2.8493    1.5320   -0.0851 N   0  0  0  0  0  0  0  0  0  0  0  0
    2.0957    1.1485   -1.1854 C   0  0  0  0  0  0  0  0  0  0  0  0
    2.5139    0.5917   -2.1957 O   0  0  0  0  0  0  0  0  0  0  0  0
    0.6177    1.4684   -1.0230 C   0  0  0  0  0  0  0  0  0  0  0  0
   -0.2162    0.0130   -0.3313 S   0  0  0  0  0  0  0  0  0  0  0  0
   -1.7981    0.6585   -0.0337 C   0  0  0  0  0  0  0  0  0  0  0  0
   -2.0635    1.9401    0.0563 N   0  0  0  0  0  0  0  0  0  0  0  0
   -3.3611    2.0709    0.4591 N   0  0  0  0  0  0  0  0  0  0  0  0
   -3.8802    0.8638    0.5943 C   0  0  0  0  0  0  0  0  0  0  0  0
   -5.3287    0.6004    0.8480 C   0  0  0  0  0  0  0  0  0  0  0  0
   -6.0531    0.1332   -0.3797 C   0  0  0  0  0  0  0  0  0  0  0  0
   -6.5202   -1.1332   -0.6933 C   0  0  0  0  0  0  0  0  0  0  0  0
   -7.1329   -1.0692   -1.9653 C   0  0  0  0  0  0  0  0  0  0  0  0
   -7.0385    0.2324   -2.3974 C   0  0  0  0  0  0  0  0  0  0  0  0
   -6.3879    0.9598   -1.4330 N   0  0  0  0  0  0  0  0  0  0  0  0
   -6.0978    2.3750   -1.5479 C   0  0  0  0  0  0  0  0  0  0  0  0
   -2.9074   -0.0923    0.3176 N   0  0  0  0  0  0  0  0  0  0  0  0
   -3.0376   -1.5049    0.3716 C   0  0  0  0  0  0  0  0  0  0  0  0
   -2.5783   -2.2931   -0.6927 C   0  0  0  0  0  0  0  0  0  0  0  0
   -2.7225   -3.6818   -0.6431 C   0  0  0  0  0  0  0  0  0  0  0  0
   -3.3128   -4.2723    0.4672 C   0  0  0  0  0  0  0  0  0  0  0  0
   -3.4493   -5.6034    0.5120 F   0  0  0  0  0  0  0  0  0  0  0  0
   -3.7614   -3.5026    1.5344 C   0  0  0  0  0  0  0  0  0  0  0  0
   -3.6258   -2.1132    1.4896 C   0  0  0  0  0  0  0  0  0  0  0  0
    5.0663    0.6392   -0.7479 C   0  0  0  0  0  0  0  0  0  0  0  0
    6.4158    0.4286   -0.4307 C   0  0  0  0  0  0  0  0  0  0  0  0
   11.0683   -0.9215    0.6782 H   0  0  0  0  0  0  0  0  0  0  0  0
   10.2173   -0.6201    2.2091 H   0  0  0  0  0  0  0  0  0  0  0  0
   10.8704    0.7322    1.2986 H   0  0  0  0  0  0  0  0  0  0  0  0
    9.2557    0.3066   -0.5409 H   0  0  0  0  0  0  0  0  0  0  0  0
    8.6130   -1.1094    0.3585 H   0  0  0  0  0  0  0  0  0  0  0  0
    6.5075    1.9837    2.5781 H   0  0  0  0  0  0  0  0  0  0  0  0
    4.1390    2.3408    2.0453 H   0  0  0  0  0  0  0  0  0  0  0  0
    2.3531    1.9878    0.6715 H   0  0  0  0  0  0  0  0  0  0  0  0
    0.4951    2.3353   -0.3650 H   0  0  0  0  0  0  0  0  0  0  0  0
    0.2033    1.7258   -2.0006 H   0  0  0  0  0  0  0  0  0  0  0  0
   -5.7989    1.5246    1.2110 H   0  0  0  0  0  0  0  0  0  0  0  0
   -5.4664   -0.1166    1.6631 H   0  0  0  0  0  0  0  0  0  0  0  0
   -6.4268   -2.0158   -0.0728 H   0  0  0  0  0  0  0  0  0  0  0  0
   -7.5969   -1.8842   -2.5061 H   0  0  0  0  0  0  0  0  0  0  0  0
   -7.3837    0.6975   -3.3124 H   0  0  0  0  0  0  0  0  0  0  0  0
   -6.6858    2.8014   -2.3668 H   0  0  0  0  0  0  0  0  0  0  0  0
   -5.0331    2.4903   -1.7561 H   0  0  0  0  0  0  0  0  0  0  0  0
   -6.3735    2.8700   -0.6141 H   0  0  0  0  0  0  0  0  0  0  0  0
   -2.1444   -1.8498   -1.5862 H   0  0  0  0  0  0  0  0  0  0  0  0
   -2.3854   -4.3041   -1.4673 H   0  0  0  0  0  0  0  0  0  0  0  0
   -4.2069   -3.9894    2.3961 H   0  0  0  0  0  0  0  0  0  0  0  0
   -3.9431   -1.5350    2.3534 H   0  0  0  0  0  0  0  0  0  0  0  0
    4.7021    0.2469   -1.6944 H   0  0  0  0  0  0  0  0  0  0  0  0
    7.0250   -0.1109   -1.1492 H   0  0  0  0  0  0  0  0  0  0  0  0
  1  2  1  0
  2  3  1  0
  3  4  1  0
  4  5  2  0
  5  6  1  0
  6  7  2  0
  7  8  1  0
  8  9  1  0
  9 10  2  0
  9 11  1  0
 11 12  1  0
 12 13  1  0
 13 14  2  0
 14 15  1  0
 15 16  2  0
 16 17  1  0
 17 18  1  0
 18 19  2  0
 19 20  1  0
 20 21  2  0
 21 22  1  0
 22 23  1  0
 16 24  1  0
 24 25  1  0
 25 26  2  0
 26 27  1  0
 27 28  2  0
 28 29  1  0
 28 30  1  0
 30 31  2  0
  7 32  1  0
 32 33  2  0
 33  4  1  0
 24 13  1  0
 31 25  1  0
 22 18  1  0
  1 34  1  0
  1 35  1  0
  1 36  1  0
  2 37  1  0
  2 38  1  0
  5 39  1  0
  6 40  1  0
  8 41  1  0
 11 42  1  0
 11 43  1  0
 17 44  1  0
 17 45  1  0
 19 46  1  0
 20 47  1  0
 21 48  1  0
 23 49  1  0
 23 50  1  0
 23 51  1  0
 26 52  1  0
 27 53  1  0
 30 54  1  0
 31 55  1  0
 32 56  1  0
 33 57  1  0
M  END
$$$$
