
     RDKit          3D

 33 35  0  0  0  0  0  0  0  0999 V2000
   -1.6336    2.4589    2.2403 C   0  0  0  0  0  0  0  0  0  0  0  0
   -2.6927    1.5333    2.0253 O   0  0  0  0  0  0  0  0  0  0  0  0
   -2.6597    0.9521    0.7651 C   0  0  0  0  0  0  0  0  0  0  0  0
   -3.8905    0.8788    0.1052 C   0  0  0  0  0  0  0  0  0  0  0  0
   -4.0004    0.2842   -1.1515 C   0  0  0  0  0  0  0  0  0  0  0  0
   -2.8852   -0.2757   -1.7857 C   0  0  0  0  0  0  0  0  0  0  0  0
   -2.9067   -0.8874   -3.0071 O   0  0  0  0  0  0  0  0  0  0  0  0
   -4.1462   -0.9400   -3.7054 C   0  0  0  0  0  0  0  0  0  0  0  0
   -1.6519   -0.2079   -1.0970 C   0  0  0  0  0  0  0  0  0  0  0  0
   -0.1063   -0.7886   -1.5997 S   0  0  0  0  0  0  0  0  0  0  0  0
    0.5621   -0.2825   -0.1209 C   0  0  0  0  0  0  0  0  0  0  0  0
    1.8861   -0.5926    0.0162 N   0  0  0  0  0  0  0  0  0  0  0  0
    2.6273   -0.2779    1.1333 C   0  0  0  0  0  0  0  0  0  0  0  0
    2.1997    0.3210    2.1135 O   0  0  0  0  0  0  0  0  0  0  0  0
    4.0308   -0.7054    1.0723 C   0  0  0  0  0  0  0  0  0  0  0  0
    5.0177   -0.4489    2.0201 C   0  0  0  0  0  0  0  0  0  0  0  0
    6.2920   -0.9731    1.6519 C   0  0  0  0  0  0  0  0  0  0  0  0
    6.2208   -1.6400    0.4519 C   0  0  0  0  0  0  0  0  0  0  0  0
    7.7299   -2.4859   -0.3852 Br  0  0  0  0  0  0  0  0  0  0  0  0
    4.6761   -1.6246   -0.2429 S   0  0  0  0  0  0  0  0  0  0  0  0
   -0.2357    0.3276    0.7077 N   0  0  0  0  0  0  0  0  0  0  0  0
   -1.5137    0.3832    0.1692 C   0  0  0  0  0  0  0  0  0  0  0  0
   -0.7015    1.9552    2.4731 H   0  0  0  0  0  0  0  0  0  0  0  0
   -1.9189    3.0510    3.1006 H   0  0  0  0  0  0  0  0  0  0  0  0
   -1.5256    3.1400    1.4028 H   0  0  0  0  0  0  0  0  0  0  0  0
   -4.7676    1.2965    0.5815 H   0  0  0  0  0  0  0  0  0  0  0  0
   -4.9819    0.2765   -1.6205 H   0  0  0  0  0  0  0  0  0  0  0  0
   -3.9794   -1.4389   -4.6613 H   0  0  0  0  0  0  0  0  0  0  0  0
   -4.8852   -1.5291   -3.1576 H   0  0  0  0  0  0  0  0  0  0  0  0
   -4.5142    0.0673   -3.9153 H   0  0  0  0  0  0  0  0  0  0  0  0
    2.3309   -1.0712   -0.7536 H   0  0  0  0  0  0  0  0  0  0  0  0
    4.8244    0.1122    2.9296 H   0  0  0  0  0  0  0  0  0  0  0  0
    7.1991   -0.8681    2.2441 H   0  0  0  0  0  0  0  0  0  0  0  0
  1  2  1  0
  2  3  1  0
  3  4  2  0
  4  5  1  0
  5  6  2  0
  6  7  1  0
  7  8  1  0
  6  9  1  0
  9 10  1  0
 10 11  1  0
 11 12  1  0
 12 13  1  0
 13 14  2  0
 13 15  1  0
 15 16  2  0
 16 17  1  0
 17 18  2  0
 18 19  1  0
 18 20  1  0
 11 21  2  0
 21 22  1  0
 22  3  1  0
 22  9  2  0
 20 15  1  0
  1 23  1  0
  1 24  1  0
  1 25  1  0
  4 26  1  0
  5 27  1  0
  8 28  1  0
  8 29  1  0
  8 30  1  0
 12 31  1  0
 16 32  1  0
 17 33  1  0
M  END
$$$$
