
     RDKit          3D

 35 37  0  0  0  0  0  0  0  0999 V2000
   -0.2894   -1.1348   -0.0277 O   0  0  0  0  0  0  0  0  0  0  0  0
   -0.2175   -1.0069   -1.2410 C   0  0  0  0  0  0  0  0  0  0  0  0
   -1.3889   -0.8610   -2.1579 C   0  0  0  0  0  0  0  0  0  0  0  0
   -2.6794   -0.7149   -1.8248 C   0  0  0  0  0  0  0  0  0  0  0  0
   -3.2108   -0.6386   -0.4627 C   0  0  0  0  0  0  0  0  0  0  0  0
   -3.0040    0.5017    0.3257 C   0  0  0  0  0  0  0  0  0  0  0  0
   -3.5303    0.5650    1.6173 C   0  0  0  0  0  0  0  0  0  0  0  0
   -4.2641   -0.5068    2.1120 C   0  0  0  0  0  0  0  0  0  0  0  0
   -4.7704   -0.4439    3.3504 F   0  0  0  0  0  0  0  0  0  0  0  0
   -4.4843   -1.6412    1.3394 C   0  0  0  0  0  0  0  0  0  0  0  0
   -3.9588   -1.7076    0.0476 C   0  0  0  0  0  0  0  0  0  0  0  0
   -0.8653   -0.9224   -3.8090 S   0  0  0  0  0  0  0  0  0  0  0  0
    0.8339   -1.0894   -3.3787 C   0  0  0  0  0  0  0  0  0  0  0  0
    2.0390   -1.3065   -4.5121 S   0  0  0  0  0  0  0  0  0  0  0  0
    0.9456   -1.0202   -2.0031 N   0  0  0  0  0  0  0  0  0  0  0  0
    2.2021   -1.2219   -1.3778 N   0  0  0  0  0  0  0  0  0  0  0  0
    2.5846   -0.2484   -0.4325 C   0  0  0  0  0  0  0  0  0  0  0  0
    3.0408   -0.7796    0.7291 N   0  0  0  0  0  0  0  0  0  0  0  0
    3.4406    0.0590    1.7137 C   0  0  0  0  0  0  0  0  0  0  0  0
    3.4427    1.4376    1.5996 C   0  0  0  0  0  0  0  0  0  0  0  0
    3.8809    2.2932    2.7466 C   0  0  0  0  0  0  0  0  0  0  0  0
    4.4176    3.4791    2.3479 F   0  0  0  0  0  0  0  0  0  0  0  0
    4.8265    1.6997    3.5250 F   0  0  0  0  0  0  0  0  0  0  0  0
    2.8520    2.6083    3.5781 F   0  0  0  0  0  0  0  0  0  0  0  0
    2.9918    1.9796    0.3935 C   0  0  0  0  0  0  0  0  0  0  0  0
    2.5661    1.1377   -0.6385 C   0  0  0  0  0  0  0  0  0  0  0  0
    2.0572    1.8892   -2.1062 Cl  0  0  0  0  0  0  0  0  0  0  0  0
   -3.4404   -0.6441   -2.6000 H   0  0  0  0  0  0  0  0  0  0  0  0
   -2.4293    1.3428   -0.0539 H   0  0  0  0  0  0  0  0  0  0  0  0
   -3.3702    1.4392    2.2398 H   0  0  0  0  0  0  0  0  0  0  0  0
   -5.0599   -2.4654    1.7480 H   0  0  0  0  0  0  0  0  0  0  0  0
   -4.1320   -2.5991   -0.5506 H   0  0  0  0  0  0  0  0  0  0  0  0
    2.2249   -2.1015   -0.8557 H   0  0  0  0  0  0  0  0  0  0  0  0
    3.7712   -0.4378    2.6245 H   0  0  0  0  0  0  0  0  0  0  0  0
    2.9773    3.0598    0.2564 H   0  0  0  0  0  0  0  0  0  0  0  0
  1  2  2  0
  2  3  1  0
  3  4  2  3
  4  5  1  0
  5  6  2  0
  6  7  1  0
  7  8  2  0
  8  9  1  0
  8 10  1  0
 10 11  2  0
  3 12  1  0
 12 13  1  0
 13 14  2  0
 13 15  1  0
 15 16  1  0
 16 17  1  0
 17 18  2  0
 18 19  1  0
 19 20  2  0
 20 21  1  0
 21 22  1  0
 21 23  1  0
 21 24  1  0
 20 25  1  0
 25 26  2  0
 26 27  1  0
 15  2  1  0
 26 17  1  0
 11  5  1  0
  4 28  1  0
  6 29  1  0
  7 30  1  0
 10 31  1  0
 11 32  1  0
 16 33  1  0
 19 34  1  0
 25 35  1  0
M  END
$$$$
