
     RDKit          3D

 47 50  0  0  0  0  0  0  0  0999 V2000
   -8.4734   -0.4313   -2.0732 C   0  0  0  0  0  0  0  0  0  0  0  0
   -7.0850   -0.6427   -1.8078 O   0  0  0  0  0  0  0  0  0  0  0  0
   -6.6173    0.0028   -0.7106 C   0  0  0  0  0  0  0  0  0  0  0  0
   -7.2705    0.7185    0.0283 O   0  0  0  0  0  0  0  0  0  0  0  0
   -5.1875   -0.3326   -0.4633 C   0  0  0  0  0  0  0  0  0  0  0  0
   -4.4416   -1.1222   -1.3479 C   0  0  0  0  0  0  0  0  0  0  0  0
   -3.1161   -1.4419   -1.0520 C   0  0  0  0  0  0  0  0  0  0  0  0
   -2.5277   -0.9924    0.1383 C   0  0  0  0  0  0  0  0  0  0  0  0
   -3.2649   -0.2175    1.0451 C   0  0  0  0  0  0  0  0  0  0  0  0
   -2.7123    0.2463    2.2662 N   0  0  0  0  0  0  0  0  0  0  0  0
   -3.2622    1.3082    2.9163 N   0  0  0  0  0  0  0  0  0  0  0  0
   -2.4654    1.5816    3.9370 N   0  0  0  0  0  0  0  0  0  0  0  0
   -1.4599    0.6640    4.0323 N   0  0  0  0  0  0  0  0  0  0  0  0
   -1.6398   -0.1808    3.0422 C   0  0  0  0  0  0  0  0  0  0  0  0
   -0.8079   -1.6976    2.9105 S   0  0  0  0  0  0  0  0  0  0  0  0
    0.8921   -1.1543    3.2435 C   0  0  0  0  0  0  0  0  0  0  0  0
    1.5070   -0.5210    2.0004 C   0  0  0  0  0  0  0  0  0  0  0  0
    0.8910    0.3011    1.3301 O   0  0  0  0  0  0  0  0  0  0  0  0
    2.7846   -0.9826    1.7537 N   0  0  0  0  0  0  0  0  0  0  0  0
    3.5527   -0.4734    0.7421 C   0  0  0  0  0  0  0  0  0  0  0  0
    3.3126    0.5390   -0.0538 N   0  0  0  0  0  0  0  0  0  0  0  0
    4.3902    0.7184   -0.8925 C   0  0  0  0  0  0  0  0  0  0  0  0
    5.4360   -0.1663   -0.7047 C   0  0  0  0  0  0  0  0  0  0  0  0
    5.0590   -1.2674    0.5402 S   0  0  0  0  0  0  0  0  0  0  0  0
    6.7135   -0.1549   -1.4641 C   0  0  0  0  0  0  0  0  0  0  0  0
    6.9108    1.2304   -2.1273 C   0  0  0  0  0  0  0  0  0  0  0  0
    5.6273    1.7121   -2.8397 C   0  0  0  0  0  0  0  0  0  0  0  0
    4.4387    1.8503   -1.8643 C   0  0  0  0  0  0  0  0  0  0  0  0
   -4.5892    0.1326    0.7206 C   0  0  0  0  0  0  0  0  0  0  0  0
   -9.0722   -0.4340   -1.1579 H   0  0  0  0  0  0  0  0  0  0  0  0
   -8.8235   -1.2570   -2.7024 H   0  0  0  0  0  0  0  0  0  0  0  0
   -8.6038    0.5042   -2.6268 H   0  0  0  0  0  0  0  0  0  0  0  0
   -4.8790   -1.4979   -2.2654 H   0  0  0  0  0  0  0  0  0  0  0  0
   -2.5399   -2.0466   -1.7408 H   0  0  0  0  0  0  0  0  0  0  0  0
   -1.4770   -1.2210    0.2926 H   0  0  0  0  0  0  0  0  0  0  0  0
    1.4603   -2.0404    3.5429 H   0  0  0  0  0  0  0  0  0  0  0  0
    0.9432   -0.4325    4.0650 H   0  0  0  0  0  0  0  0  0  0  0  0
    3.1844   -1.7486    2.2755 H   0  0  0  0  0  0  0  0  0  0  0  0
    6.6742   -0.9319   -2.2418 H   0  0  0  0  0  0  0  0  0  0  0  0
    7.5657   -0.3727   -0.8094 H   0  0  0  0  0  0  0  0  0  0  0  0
    7.7419    1.1874   -2.8440 H   0  0  0  0  0  0  0  0  0  0  0  0
    7.1916    1.9665   -1.3551 H   0  0  0  0  0  0  0  0  0  0  0  0
    5.3673    0.9961   -3.6327 H   0  0  0  0  0  0  0  0  0  0  0  0
    5.8153    2.6742   -3.3272 H   0  0  0  0  0  0  0  0  0  0  0  0
    4.5426    2.7814   -1.2960 H   0  0  0  0  0  0  0  0  0  0  0  0
    3.4973    1.9087   -2.4294 H   0  0  0  0  0  0  0  0  0  0  0  0
   -5.1832    0.7373    1.4028 H   0  0  0  0  0  0  0  0  0  0  0  0
  1  2  1  0
  2  3  1  0
  3  4  2  0
  3  5  1  0
  5  6  2  0
  6  7  1  0
  7  8  2  0
  8  9  1  0
  9 10  1  0
 10 11  1  0
 11 12  2  0
 12 13  1  0
 13 14  2  0
 14 15  1  0
 15 16  1  0
 16 17  1  0
 17 18  2  0
 17 19  1  0
 19 20  1  0
 20 21  2  0
 21 22  1  0
 22 23  2  0
 23 24  1  0
 23 25  1  0
 25 26  1  0
 26 27  1  0
 27 28  1  0
  9 29  2  0
 29  5  1  0
 14 10  1  0
 24 20  1  0
 28 22  1  0
  1 30  1  0
  1 31  1  0
  1 32  1  0
  6 33  1  0
  7 34  1  0
  8 35  1  0
 16 36  1  0
 16 37  1  0
 19 38  1  0
 25 39  1  0
 25 40  1  0
 26 41  1  0
 26 42  1  0
 27 43  1  0
 27 44  1  0
 28 45  1  0
 28 46  1  0
 29 47  1  0
M  END
$$$$
