
     RDKit          3D

 59 62  0  0  0  0  0  0  0  0999 V2000
    9.4144   -0.9097    1.5193 C   0  0  0  0  0  0  0  0  0  0  0  0
    7.9487   -0.6422    1.3733 C   0  0  0  0  0  0  0  0  0  0  0  0
    7.4136   -0.3142    0.1280 C   0  0  0  0  0  0  0  0  0  0  0  0
    6.0521   -0.0306   -0.0030 C   0  0  0  0  0  0  0  0  0  0  0  0
    5.1985   -0.0789    1.1108 C   0  0  0  0  0  0  0  0  0  0  0  0
    3.8118    0.2129    0.9322 N   0  0  0  0  0  0  0  0  0  0  0  0
    3.4261    0.8748   -0.1911 N   0  0  0  0  0  0  0  0  0  0  0  0
    2.1504    1.2105    0.0225 C   0  0  0  0  0  0  0  0  0  0  0  0
    1.3078    2.0217   -0.8499 C   0  0  0  0  0  0  0  0  0  0  0  0
    1.7001    2.5289   -1.8984 O   0  0  0  0  0  0  0  0  0  0  0  0
   -0.0078    2.1553   -0.3600 N   0  0  0  0  0  0  0  0  0  0  0  0
   -0.9707    2.9584   -1.1074 C   0  0  0  0  0  0  0  0  0  0  0  0
   -1.5523    2.2280   -2.3217 C   0  0  0  0  0  0  0  0  0  0  0  0
   -2.2839    0.9272   -1.9874 C   0  0  0  0  0  0  0  0  0  0  0  0
   -3.5722    1.1348   -1.2063 C   0  0  0  0  0  0  0  0  0  0  0  0
   -4.0184    2.2352   -0.9006 O   0  0  0  0  0  0  0  0  0  0  0  0
   -4.1953   -0.0520   -0.8993 N   0  0  0  0  0  0  0  0  0  0  0  0
   -5.4689   -0.0977   -0.2122 C   0  0  0  0  0  0  0  0  0  0  0  0
   -6.3058   -1.1359   -0.8541 C   0  0  0  0  0  0  0  0  0  0  0  0
   -6.5199   -2.4779   -0.5945 C   0  0  0  0  0  0  0  0  0  0  0  0
   -7.4349   -2.9306   -1.5714 C   0  0  0  0  0  0  0  0  0  0  0  0
   -7.7234   -1.8405   -2.3674 C   0  0  0  0  0  0  0  0  0  0  0  0
   -8.5938   -1.6303   -3.5362 C   0  0  0  0  0  0  0  0  0  0  0  0
   -7.0376   -0.7464   -1.9363 O   0  0  0  0  0  0  0  0  0  0  0  0
   -0.4905    1.5767    0.8187 N   0  0  0  0  0  0  0  0  0  0  0  0
    0.2840    0.8643    1.5876 C   0  0  0  0  0  0  0  0  0  0  0  0
   -0.2948    0.2931    2.8502 C   0  0  0  0  0  0  0  0  0  0  0  0
    1.6579    0.6518    1.2062 C   0  0  0  0  0  0  0  0  0  0  0  0
    2.7086   -0.0709    1.7469 C   0  0  0  0  0  0  0  0  0  0  0  0
    2.7277   -1.0093    2.8979 C   0  0  0  0  0  0  0  0  0  0  0  0
    5.7449   -0.3635    2.3637 C   0  0  0  0  0  0  0  0  0  0  0  0
    7.1094   -0.6436    2.4913 C   0  0  0  0  0  0  0  0  0  0  0  0
    9.9524    0.0281    1.6648 H   0  0  0  0  0  0  0  0  0  0  0  0
    9.8097   -1.4093    0.6319 H   0  0  0  0  0  0  0  0  0  0  0  0
    9.6077   -1.5622    2.3725 H   0  0  0  0  0  0  0  0  0  0  0  0
    8.0502   -0.2731   -0.7534 H   0  0  0  0  0  0  0  0  0  0  0  0
    5.6687    0.2179   -0.9907 H   0  0  0  0  0  0  0  0  0  0  0  0
   -0.4573    3.8636   -1.4576 H   0  0  0  0  0  0  0  0  0  0  0  0
   -1.7579    3.2895   -0.4216 H   0  0  0  0  0  0  0  0  0  0  0  0
   -0.7423    1.9937   -3.0262 H   0  0  0  0  0  0  0  0  0  0  0  0
   -2.2330    2.9114   -2.8450 H   0  0  0  0  0  0  0  0  0  0  0  0
   -2.5525    0.4301   -2.9296 H   0  0  0  0  0  0  0  0  0  0  0  0
   -1.6324    0.2410   -1.4309 H   0  0  0  0  0  0  0  0  0  0  0  0
   -3.7857   -0.9231   -1.2074 H   0  0  0  0  0  0  0  0  0  0  0  0
   -5.9664    0.8779   -0.2283 H   0  0  0  0  0  0  0  0  0  0  0  0
   -5.2699   -0.3627    0.8290 H   0  0  0  0  0  0  0  0  0  0  0  0
   -6.0744   -3.0551    0.2074 H   0  0  0  0  0  0  0  0  0  0  0  0
   -7.8391   -3.9298   -1.6805 H   0  0  0  0  0  0  0  0  0  0  0  0
   -8.0236   -1.2007   -4.3676 H   0  0  0  0  0  0  0  0  0  0  0  0
   -9.4084   -0.9470   -3.2846 H   0  0  0  0  0  0  0  0  0  0  0  0
   -9.0359   -2.5681   -3.8744 H   0  0  0  0  0  0  0  0  0  0  0  0
    0.3299    0.5642    3.7014 H   0  0  0  0  0  0  0  0  0  0  0  0
   -0.3583   -0.7922    2.7695 H   0  0  0  0  0  0  0  0  0  0  0  0
   -1.3013    0.6842    3.0189 H   0  0  0  0  0  0  0  0  0  0  0  0
    1.7732   -1.5351    2.9883 H   0  0  0  0  0  0  0  0  0  0  0  0
    2.9058   -0.4689    3.8337 H   0  0  0  0  0  0  0  0  0  0  0  0
    3.4817   -1.7953    2.7799 H   0  0  0  0  0  0  0  0  0  0  0  0
    5.1572   -0.3285    3.2731 H   0  0  0  0  0  0  0  0  0  0  0  0
    7.5157   -0.8501    3.4769 H   0  0  0  0  0  0  0  0  0  0  0  0
  1  2  1  0
  2  3  2  0
  3  4  1  0
  4  5  2  0
  5  6  1  0
  6  7  1  0
  7  8  2  0
  8  9  1  0
  9 10  2  0
  9 11  1  0
 11 12  1  0
 12 13  1  0
 13 14  1  0
 14 15  1  0
 15 16  2  0
 15 17  1  0
 17 18  1  0
 18 19  1  0
 19 20  2  0
 20 21  1  0
 21 22  2  0
 22 23  1  0
 22 24  1  0
 11 25  1  0
 25 26  2  0
 26 27  1  0
 26 28  1  0
 28 29  2  0
 29 30  1  0
  5 31  1  0
 31 32  2  0
 32  2  1  0
 29  6  1  0
 28  8  1  0
 24 19  1  0
  1 33  1  0
  1 34  1  0
  1 35  1  0
  3 36  1  0
  4 37  1  0
 12 38  1  0
 12 39  1  0
 13 40  1  0
 13 41  1  0
 14 42  1  0
 14 43  1  0
 17 44  1  0
 18 45  1  0
 18 46  1  0
 20 47  1  0
 21 48  1  0
 23 49  1  0
 23 50  1  0
 23 51  1  0
 27 52  1  0
 27 53  1  0
 27 54  1  0
 30 55  1  0
 30 56  1  0
 30 57  1  0
 31 58  1  0
 32 59  1  0
M  END
$$$$
