
     RDKit          3D

 58 60  0  0  0  0  0  0  0  0999 V2000
   -1.2837    3.2975   -2.6413 C   0  0  0  0  0  0  0  0  0  0  0  0
   -2.2796    2.2235   -2.2903 C   0  0  0  0  0  0  0  0  0  0  0  0
   -3.6402    2.5748   -2.2095 C   0  0  0  0  0  0  0  0  0  0  0  0
   -4.6053    1.6284   -1.8685 C   0  0  0  0  0  0  0  0  0  0  0  0
   -4.2128    0.3156   -1.6161 C   0  0  0  0  0  0  0  0  0  0  0  0
   -5.4300   -0.9164   -1.2067 S   0  0  0  0  0  6  0  0  0  0  0  0
   -5.0527   -2.1415   -1.8788 O   0  0  0  0  0  0  0  0  0  0  0  0
   -6.7339   -0.3209   -1.4181 O   0  0  0  0  0  0  0  0  0  0  0  0
   -5.2369   -1.1336    0.4600 N   0  0  0  0  0  0  0  0  0  0  0  0
   -4.0473   -1.8853    0.9550 C   0  0  0  0  0  0  0  0  0  0  0  0
   -3.1619   -0.9923    1.8313 C   0  0  0  0  0  0  0  0  0  0  0  0
   -3.8405   -0.4550    2.9784 O   0  0  0  0  0  0  0  0  0  0  0  0
   -5.2580   -0.3207    2.7945 C   0  0  0  0  0  0  0  0  0  0  0  0
   -5.6465   -0.0100    1.3455 C   0  0  0  0  0  0  0  0  0  0  0  0
   -2.8715   -0.0579   -1.7261 C   0  0  0  0  0  0  0  0  0  0  0  0
   -1.8903    0.8946   -2.0182 C   0  0  0  0  0  0  0  0  0  0  0  0
   -0.5229    0.5454   -2.0688 N   0  0  0  0  0  0  0  0  0  0  0  0
    0.0648   -0.5801   -1.5137 C   0  0  0  0  0  0  0  0  0  0  0  0
   -0.4890   -1.3936   -0.7770 O   0  0  0  0  0  0  0  0  0  0  0  0
    1.5487   -0.7168   -1.8705 C   0  0  0  0  0  0  0  0  0  0  0  0
    2.4160   -0.0650   -0.9445 O   0  0  0  0  0  0  0  0  0  0  0  0
    2.5028    1.2877   -1.0821 C   0  0  0  0  0  0  0  0  0  0  0  0
    1.8218    1.9395   -1.8686 O   0  0  0  0  0  0  0  0  0  0  0  0
    3.4795    1.9075   -0.0838 C   0  0  0  0  0  0  0  0  0  0  0  0
    4.2887    0.9373    0.6403 N   0  0  0  0  0  0  0  0  0  0  0  0
    5.4386    0.4433    0.0554 C   0  0  0  0  0  0  0  0  0  0  0  0
    5.8685    0.8556   -1.0162 O   0  0  0  0  0  0  0  0  0  0  0  0
    6.1152   -0.6776    0.7640 C   0  0  0  0  0  0  0  0  0  0  0  0
    6.0060   -0.8526    2.1498 C   0  0  0  0  0  0  0  0  0  0  0  0
    6.6574   -1.9206    2.7715 C   0  0  0  0  0  0  0  0  0  0  0  0
    7.4230   -2.8091    2.0160 C   0  0  0  0  0  0  0  0  0  0  0  0
    7.5472   -2.6298    0.6387 C   0  0  0  0  0  0  0  0  0  0  0  0
    6.8983   -1.5639    0.0136 C   0  0  0  0  0  0  0  0  0  0  0  0
   -1.7795    4.2443   -2.8826 H   0  0  0  0  0  0  0  0  0  0  0  0
   -0.6139    3.4817   -1.7957 H   0  0  0  0  0  0  0  0  0  0  0  0
   -0.6997    3.0062   -3.5203 H   0  0  0  0  0  0  0  0  0  0  0  0
   -3.9576    3.5965   -2.4133 H   0  0  0  0  0  0  0  0  0  0  0  0
   -5.6518    1.9207   -1.8144 H   0  0  0  0  0  0  0  0  0  0  0  0
   -3.4613   -2.3107    0.1373 H   0  0  0  0  0  0  0  0  0  0  0  0
   -4.4254   -2.7284    1.5461 H   0  0  0  0  0  0  0  0  0  0  0  0
   -2.3000   -1.5593    2.1988 H   0  0  0  0  0  0  0  0  0  0  0  0
   -2.7732   -0.1450    1.2559 H   0  0  0  0  0  0  0  0  0  0  0  0
   -5.5978    0.4811    3.4576 H   0  0  0  0  0  0  0  0  0  0  0  0
   -5.7316   -1.2495    3.1334 H   0  0  0  0  0  0  0  0  0  0  0  0
   -5.1486    0.9126    1.0305 H   0  0  0  0  0  0  0  0  0  0  0  0
   -6.7313    0.1241    1.2810 H   0  0  0  0  0  0  0  0  0  0  0  0
   -2.6100   -1.1034   -1.5981 H   0  0  0  0  0  0  0  0  0  0  0  0
    0.1311    1.2714   -2.3648 H   0  0  0  0  0  0  0  0  0  0  0  0
    1.7339   -0.3689   -2.8943 H   0  0  0  0  0  0  0  0  0  0  0  0
    1.7961   -1.7841   -1.8619 H   0  0  0  0  0  0  0  0  0  0  0  0
    4.1344    2.5990   -0.6231 H   0  0  0  0  0  0  0  0  0  0  0  0
    2.8966    2.4534    0.6640 H   0  0  0  0  0  0  0  0  0  0  0  0
    3.8101    0.3417    1.3045 H   0  0  0  0  0  0  0  0  0  0  0  0
    5.4425   -0.1550    2.7626 H   0  0  0  0  0  0  0  0  0  0  0  0
    6.5766   -2.0556    3.8475 H   0  0  0  0  0  0  0  0  0  0  0  0
    7.9321   -3.6377    2.5024 H   0  0  0  0  0  0  0  0  0  0  0  0
    8.1521   -3.3167    0.0515 H   0  0  0  0  0  0  0  0  0  0  0  0
    7.0027   -1.4266   -1.0608 H   0  0  0  0  0  0  0  0  0  0  0  0
  1  2  1  0
  2  3  2  0
  3  4  1  0
  4  5  2  0
  5  6  1  0
  6  7  2  0
  6  8  2  0
  6  9  1  0
  9 10  1  0
 10 11  1  0
 11 12  1  0
 12 13  1  0
 13 14  1  0
  5 15  1  0
 15 16  2  0
 16 17  1  0
 17 18  1  0
 18 19  2  0
 18 20  1  0
 20 21  1  0
 21 22  1  0
 22 23  2  0
 22 24  1  0
 24 25  1  0
 25 26  1  0
 26 27  2  0
 26 28  1  0
 28 29  2  0
 29 30  1  0
 30 31  2  0
 31 32  1  0
 32 33  2  0
 16  2  1  0
 33 28  1  0
 14  9  1  0
  1 34  1  0
  1 35  1  0
  1 36  1  0
  3 37  1  0
  4 38  1  0
 10 39  1  0
 10 40  1  0
 11 41  1  0
 11 42  1  0
 13 43  1  0
 13 44  1  0
 14 45  1  0
 14 46  1  0
 15 47  1  0
 17 48  1  0
 20 49  1  0
 20 50  1  0
 24 51  1  0
 24 52  1  0
 25 53  1  0
 29 54  1  0
 30 55  1  0
 31 56  1  0
 32 57  1  0
 33 58  1  0
M  END
$$$$
