
     RDKit          3D

 33 34  0  0  0  0  0  0  0  0999 V2000
   -1.1940    2.4063    1.0634 C   0  0  0  0  0  0  0  0  0  0  0  0
   -1.8697    1.7992   -0.1591 C   0  0  0  0  0  0  0  0  0  0  0  0
   -1.6181    0.3549   -0.3313 N   0  0  0  0  0  0  0  0  0  0  0  0
   -2.2543   -0.5644    0.6261 C   0  0  0  0  0  0  0  0  0  0  0  0
   -3.7488   -0.6746    0.3470 C   0  0  0  0  0  0  0  0  0  0  0  0
   -0.2736    0.0586   -0.6941 C   0  0  0  0  0  0  0  0  0  0  0  0
    0.0471    0.2884   -2.0492 C   0  0  0  0  0  0  0  0  0  0  0  0
    1.3158    0.0330   -2.5401 C   0  0  0  0  0  0  0  0  0  0  0  0
    2.2794   -0.4517   -1.6579 C   0  0  0  0  0  0  0  0  0  0  0  0
    3.5980   -0.6933   -2.2133 N   0  0  0  0  0  4  0  0  0  0  0  0
    4.5326   -0.0073   -1.7789 O   0  0  0  0  0  0  0  0  0  0  0  0
    3.6858   -1.5558   -3.0970 O   0  0  0  0  0  1  0  0  0  0  0  0
    2.0182   -0.7009   -0.2868 C   0  0  0  0  0  0  0  0  0  0  0  0
    2.9764   -1.2049    0.6300 C   0  0  0  0  0  0  0  0  0  0  0  0
    2.6535   -1.4084    1.9631 C   0  0  0  0  0  0  0  0  0  0  0  0
    1.3741   -1.1051    2.3569 C   0  0  0  0  0  0  0  0  0  0  0  0
    0.4301   -0.6345    1.5171 N   0  0  0  0  0  0  0  0  0  0  0  0
    0.7164   -0.4363    0.2059 C   0  0  0  0  0  0  0  0  0  0  0  0
   -1.5094    1.9154    1.9885 H   0  0  0  0  0  0  0  0  0  0  0  0
   -1.4558    3.4664    1.1441 H   0  0  0  0  0  0  0  0  0  0  0  0
   -0.1038    2.3413    0.9980 H   0  0  0  0  0  0  0  0  0  0  0  0
   -1.5516    2.3481   -1.0544 H   0  0  0  0  0  0  0  0  0  0  0  0
   -2.9490    1.9720   -0.0858 H   0  0  0  0  0  0  0  0  0  0  0  0
   -2.1028   -0.2442    1.6620 H   0  0  0  0  0  0  0  0  0  0  0  0
   -1.8428   -1.5763    0.5195 H   0  0  0  0  0  0  0  0  0  0  0  0
   -4.1966   -1.4389    0.9902 H   0  0  0  0  0  0  0  0  0  0  0  0
   -4.2675    0.2684    0.5429 H   0  0  0  0  0  0  0  0  0  0  0  0
   -3.9344   -0.9528   -0.6958 H   0  0  0  0  0  0  0  0  0  0  0  0
   -0.7255    0.6514   -2.7248 H   0  0  0  0  0  0  0  0  0  0  0  0
    1.5397    0.2066   -3.5897 H   0  0  0  0  0  0  0  0  0  0  0  0
    3.9925   -1.4393    0.3175 H   0  0  0  0  0  0  0  0  0  0  0  0
    3.3830   -1.7869    2.6697 H   0  0  0  0  0  0  0  0  0  0  0  0
    1.0553   -1.2343    3.3871 H   0  0  0  0  0  0  0  0  0  0  0  0
  1  2  1  0
  2  3  1  0
  3  4  1  0
  4  5  1  0
  3  6  1  0
  6  7  2  0
  7  8  1  0
  8  9  2  0
  9 10  1  0
 10 11  2  0
 10 12  1  0
  9 13  1  0
 13 14  2  0
 14 15  1  0
 15 16  2  0
 16 17  1  0
 17 18  2  0
 18  6  1  0
 18 13  1  0
  1 19  1  0
  1 20  1  0
  1 21  1  0
  2 22  1  0
  2 23  1  0
  4 24  1  0
  4 25  1  0
  5 26  1  0
  5 27  1  0
  5 28  1  0
  7 29  1  0
  8 30  1  0
 14 31  1  0
 15 32  1  0
 16 33  1  0
M  CHG  2  10   1  12  -1
M  END
$$$$
