
     RDKit          3D

 74 78  0  0  0  0  0  0  0  0999 V2000
   -3.9530   -0.1663   -1.2262 C   0  0  0  0  0  0  0  0  0  0  0  0
   -2.8242    0.8685   -1.1857 C   0  0  0  0  0  0  0  0  0  0  0  0
   -3.2242    2.0576   -0.3096 C   0  0  0  0  0  0  0  0  0  0  0  0
   -2.6940    3.3031   -0.8471 N   0  0  0  0  0  0  0  0  0  0  0  0
   -3.5469    4.0136   -1.8291 C   0  0  0  0  0  0  0  0  0  0  0  0
   -2.7752    4.4228   -3.0866 C   0  0  0  0  0  0  0  0  0  0  0  0
   -4.2821    5.2172   -1.2179 C   0  0  0  0  0  0  0  0  0  0  0  0
   -5.2199    4.7764   -0.2326 O   0  0  0  0  0  0  0  0  0  0  0  0
   -1.5569    3.9265   -0.3470 C   0  0  0  0  0  0  0  0  0  0  0  0
   -1.3151    5.1176   -0.5551 O   0  0  0  0  0  0  0  0  0  0  0  0
   -0.5709    3.1842    0.4798 C   0  0  0  0  0  0  0  0  0  0  0  0
   -0.0564    3.8835    1.5850 C   0  0  0  0  0  0  0  0  0  0  0  0
    1.0381    3.3892    2.2898 C   0  0  0  0  0  0  0  0  0  0  0  0
    1.6774    2.2249    1.8625 C   0  0  0  0  0  0  0  0  0  0  0  0
    1.1950    1.5277    0.7517 C   0  0  0  0  0  0  0  0  0  0  0  0
    1.8343    0.3819    0.2303 N   0  0  0  0  0  0  0  0  0  0  0  0
    3.0812   -0.1210    0.5426 C   0  0  0  0  0  0  0  0  0  0  0  0
    3.9068    0.4342    1.2527 O   0  0  0  0  0  0  0  0  0  0  0  0
    3.2513   -1.3672   -0.0342 N   0  0  0  0  0  0  0  0  0  0  0  0
    4.4670   -2.0749   -0.1278 C   0  0  0  0  0  0  0  0  0  0  0  0
    4.3917   -3.4718   -0.3284 C   0  0  0  0  0  0  0  0  0  0  0  0
    5.5492   -4.2463   -0.4610 C   0  0  0  0  0  0  0  0  0  0  0  0
    6.7615   -3.5999   -0.3818 C   0  0  0  0  0  0  0  0  0  0  0  0
    6.8424   -2.2414   -0.1930 C   0  0  0  0  0  0  0  0  0  0  0  0
    5.7170   -1.4498   -0.0652 C   0  0  0  0  0  0  0  0  0  0  0  0
    8.1299   -1.8007   -0.1712 O   0  0  0  0  0  0  0  0  0  0  0  0
    8.8469   -3.0423   -0.3150 C   0  0  0  0  0  0  0  0  0  0  0  0
    7.9834   -4.1853   -0.4772 O   0  0  0  0  0  0  0  0  0  0  0  0
    0.0113    1.9628    0.1085 C   0  0  0  0  0  0  0  0  0  0  0  0
   -0.4165    1.2366   -0.9720 O   0  0  0  0  0  0  0  0  0  0  0  0
   -1.4666    0.2593   -0.7568 C   0  0  0  0  0  0  0  0  0  0  0  0
   -1.5292   -0.4663    0.6211 C   0  0  0  0  0  0  0  0  0  0  0  0
   -0.3980   -1.4120    0.8700 N   0  0  0  0  0  0  0  0  0  0  0  0
   -0.0315   -1.4651    2.3050 C   0  0  0  0  0  0  0  0  0  0  0  0
   -0.4394   -2.9257    0.0872 S   0  0  0  0  0  6  0  0  0  0  0  0
   -0.7792   -2.7018   -1.3012 O   0  0  0  0  0  0  0  0  0  0  0  0
    0.7705   -3.6383    0.4340 O   0  0  0  0  0  0  0  0  0  0  0  0
   -1.8161   -3.8619    0.7178 C   0  0  0  0  0  0  0  0  0  0  0  0
   -3.0935   -4.0487    0.2146 C   0  0  0  0  0  0  0  0  0  0  0  0
   -3.9106   -4.8372    1.0727 C   0  0  0  0  0  0  0  0  0  0  0  0
   -3.2234   -5.2392    2.1989 C   0  0  0  0  0  0  0  0  0  0  0  0
   -1.6036   -4.6781    2.2031 S   0  0  0  0  0  0  0  0  0  0  0  0
   -4.8131    0.2450   -1.7656 H   0  0  0  0  0  0  0  0  0  0  0  0
   -4.2969   -0.4432   -0.2249 H   0  0  0  0  0  0  0  0  0  0  0  0
   -3.6365   -1.0755   -1.7497 H   0  0  0  0  0  0  0  0  0  0  0  0
   -2.6994    1.2217   -2.2205 H   0  0  0  0  0  0  0  0  0  0  0  0
   -2.8963    1.9322    0.7252 H   0  0  0  0  0  0  0  0  0  0  0  0
   -4.3160    2.1532   -0.2556 H   0  0  0  0  0  0  0  0  0  0  0  0
   -4.3075    3.2908   -2.1534 H   0  0  0  0  0  0  0  0  0  0  0  0
   -2.0364    5.2078   -2.8919 H   0  0  0  0  0  0  0  0  0  0  0  0
   -2.2565    3.5668   -3.5327 H   0  0  0  0  0  0  0  0  0  0  0  0
   -3.4626    4.8143   -3.8446 H   0  0  0  0  0  0  0  0  0  0  0  0
   -3.6011    5.9291   -0.7467 H   0  0  0  0  0  0  0  0  0  0  0  0
   -4.8495    5.7503   -1.9889 H   0  0  0  0  0  0  0  0  0  0  0  0
   -5.5479    5.5809    0.2068 H   0  0  0  0  0  0  0  0  0  0  0  0
   -0.4891    4.8434    1.8701 H   0  0  0  0  0  0  0  0  0  0  0  0
    1.4352    3.9402    3.1391 H   0  0  0  0  0  0  0  0  0  0  0  0
    2.5550    1.8927    2.4108 H   0  0  0  0  0  0  0  0  0  0  0  0
    1.3869   -0.0203   -0.5838 H   0  0  0  0  0  0  0  0  0  0  0  0
    2.4067   -1.9180   -0.1195 H   0  0  0  0  0  0  0  0  0  0  0  0
    3.4230   -3.9726   -0.3604 H   0  0  0  0  0  0  0  0  0  0  0  0
    5.4955   -5.3192   -0.5985 H   0  0  0  0  0  0  0  0  0  0  0  0
    5.8241   -0.3776    0.0528 H   0  0  0  0  0  0  0  0  0  0  0  0
    9.4618   -3.1967    0.5759 H   0  0  0  0  0  0  0  0  0  0  0  0
    9.5046   -2.9699   -1.1871 H   0  0  0  0  0  0  0  0  0  0  0  0
   -1.2495   -0.4876   -1.5207 H   0  0  0  0  0  0  0  0  0  0  0  0
   -1.5519    0.2780    1.4225 H   0  0  0  0  0  0  0  0  0  0  0  0
   -2.4516   -1.0380    0.7329 H   0  0  0  0  0  0  0  0  0  0  0  0
    0.8193   -2.1223    2.4889 H   0  0  0  0  0  0  0  0  0  0  0  0
   -0.8835   -1.7985    2.9026 H   0  0  0  0  0  0  0  0  0  0  0  0
    0.2576   -0.4709    2.6575 H   0  0  0  0  0  0  0  0  0  0  0  0
   -3.4212   -3.6319   -0.7339 H   0  0  0  0  0  0  0  0  0  0  0  0
   -4.9457   -5.1008    0.8729 H   0  0  0  0  0  0  0  0  0  0  0  0
   -3.5865   -5.8500    3.0152 H   0  0  0  0  0  0  0  0  0  0  0  0
  1  2  1  0
  2  3  1  0
  3  4  1  0
  4  5  1  0
  5  6  1  0
  5  7  1  0
  7  8  1  0
  4  9  1  0
  9 10  2  0
  9 11  1  0
 11 12  2  0
 12 13  1  0
 13 14  2  0
 14 15  1  0
 15 16  1  0
 16 17  1  0
 17 18  2  0
 17 19  1  0
 19 20  1  0
 20 21  2  0
 21 22  1  0
 22 23  2  0
 23 24  1  0
 24 25  2  0
 24 26  1  0
 26 27  1  0
 27 28  1  0
 15 29  2  0
 29 30  1  0
 30 31  1  0
 31 32  1  0
 32 33  1  0
 33 34  1  0
 33 35  1  0
 35 36  2  0
 35 37  2  0
 35 38  1  0
 38 39  2  0
 39 40  1  0
 40 41  2  0
 41 42  1  0
 31  2  1  0
 42 38  1  0
 29 11  1  0
 25 20  1  0
 28 23  1  0
  1 43  1  0
  1 44  1  0
  1 45  1  0
  2 46  1  0
  3 47  1  0
  3 48  1  0
  5 49  1  0
  6 50  1  0
  6 51  1  0
  6 52  1  0
  7 53  1  0
  7 54  1  0
  8 55  1  0
 12 56  1  0
 13 57  1  0
 14 58  1  0
 16 59  1  0
 19 60  1  0
 21 61  1  0
 22 62  1  0
 25 63  1  0
 27 64  1  0
 27 65  1  0
 31 66  1  0
 32 67  1  0
 32 68  1  0
 34 69  1  0
 34 70  1  0
 34 71  1  0
 39 72  1  0
 40 73  1  0
 41 74  1  0
M  END
$$$$
