
     RDKit          3D

 38 38  0  0  0  0  0  0  0  0999 V2000
    5.6577    3.3472    2.0014 C   0  0  0  0  0  0  0  0  0  0  0  0
    4.2962    3.5589    2.3615 O   0  0  0  0  0  0  0  0  0  0  0  0
    3.4049    2.7022    1.6465 C   0  0  0  0  0  0  0  0  0  0  0  0
    3.2440    1.3570    2.3566 C   0  0  0  0  0  0  0  0  0  0  0  0
    2.2537    0.5012    1.7289 N   0  0  0  0  0  0  0  0  0  0  0  0
    2.5371   -0.1785    0.5635 C   0  0  0  0  0  0  0  0  0  0  0  0
    3.6105   -0.0985   -0.0222 O   0  0  0  0  0  0  0  0  0  0  0  0
    1.4395   -1.0560    0.0677 C   0  0  0  0  0  0  0  0  0  0  0  0
    1.8035   -2.3878   -0.2673 C   0  0  0  0  0  0  0  0  0  0  0  0
    2.0763   -3.4877   -0.5197 N   0  0  0  0  0  0  0  0  0  0  0  0
    0.2228   -0.4973   -0.1010 C   0  0  0  0  0  0  0  0  0  0  0  0
   -1.0454   -1.0720   -0.5664 C   0  0  0  0  0  0  0  0  0  0  0  0
   -1.2146   -2.5726   -0.6031 C   0  0  0  0  0  0  0  0  0  0  0  0
   -2.0412   -0.2202   -0.8963 C   0  0  0  0  0  0  0  0  0  0  0  0
   -3.3703   -0.5954   -1.3921 C   0  0  0  0  0  0  0  0  0  0  0  0
   -3.5272   -1.1920   -2.6493 C   0  0  0  0  0  0  0  0  0  0  0  0
   -4.7998   -1.5301   -3.1131 C   0  0  0  0  0  0  0  0  0  0  0  0
   -5.9218   -1.2645   -2.3273 C   0  0  0  0  0  0  0  0  0  0  0  0
   -5.7728   -0.6615   -1.0786 C   0  0  0  0  0  0  0  0  0  0  0  0
   -4.5003   -0.3253   -0.6118 C   0  0  0  0  0  0  0  0  0  0  0  0
    5.9650    2.3166    2.2039 H   0  0  0  0  0  0  0  0  0  0  0  0
    6.2772    4.0187    2.6018 H   0  0  0  0  0  0  0  0  0  0  0  0
    5.8102    3.5872    0.9434 H   0  0  0  0  0  0  0  0  0  0  0  0
    2.4327    3.2072    1.6146 H   0  0  0  0  0  0  0  0  0  0  0  0
    3.7290    2.5802    0.6068 H   0  0  0  0  0  0  0  0  0  0  0  0
    4.1987    0.8218    2.3888 H   0  0  0  0  0  0  0  0  0  0  0  0
    2.9347    1.5148    3.3957 H   0  0  0  0  0  0  0  0  0  0  0  0
    1.3798    0.3446    2.2159 H   0  0  0  0  0  0  0  0  0  0  0  0
    0.1488    0.5714    0.1164 H   0  0  0  0  0  0  0  0  0  0  0  0
   -0.8442   -3.0286    0.3211 H   0  0  0  0  0  0  0  0  0  0  0  0
   -2.2607   -2.8827   -0.6811 H   0  0  0  0  0  0  0  0  0  0  0  0
   -0.6835   -3.0001   -1.4594 H   0  0  0  0  0  0  0  0  0  0  0  0
   -1.9057    0.8583   -0.8272 H   0  0  0  0  0  0  0  0  0  0  0  0
   -2.6608   -1.3976   -3.2749 H   0  0  0  0  0  0  0  0  0  0  0  0
   -4.9151   -2.0000   -4.0878 H   0  0  0  0  0  0  0  0  0  0  0  0
   -6.9125   -1.5272   -2.6900 H   0  0  0  0  0  0  0  0  0  0  0  0
   -6.6476   -0.4532   -0.4675 H   0  0  0  0  0  0  0  0  0  0  0  0
   -4.3988    0.1417    0.3653 H   0  0  0  0  0  0  0  0  0  0  0  0
  1  2  1  0
  2  3  1  0
  3  4  1  0
  4  5  1  0
  5  6  1  0
  6  7  2  0
  6  8  1  0
  8  9  1  0
  9 10  3  0
  8 11  2  3
 11 12  1  0
 12 13  1  0
 12 14  2  3
 14 15  1  0
 15 16  2  0
 16 17  1  0
 17 18  2  0
 18 19  1  0
 19 20  2  0
 20 15  1  0
  1 21  1  0
  1 22  1  0
  1 23  1  0
  3 24  1  0
  3 25  1  0
  4 26  1  0
  4 27  1  0
  5 28  1  0
 11 29  1  0
 13 30  1  0
 13 31  1  0
 13 32  1  0
 14 33  1  0
 16 34  1  0
 17 35  1  0
 18 36  1  0
 19 37  1  0
 20 38  1  0
M  END
$$$$
