
     RDKit          3D

 58 62  0  0  0  0  0  0  0  0999 V2000
    7.5339    2.6162    1.7281 C   0  0  0  0  0  0  0  0  0  0  0  0
    6.2981    3.3095    1.6100 O   0  0  0  0  0  0  0  0  0  0  0  0
    5.1759    2.5478    1.4343 C   0  0  0  0  0  0  0  0  0  0  0  0
    3.9888    3.2745    1.3211 C   0  0  0  0  0  0  0  0  0  0  0  0
    2.7667    2.6238    1.1354 C   0  0  0  0  0  0  0  0  0  0  0  0
    2.7164    1.2279    1.0622 C   0  0  0  0  0  0  0  0  0  0  0  0
    1.4051    0.5171    0.8376 C   0  0  0  0  0  0  0  0  0  0  0  0
    1.2414    0.0769   -0.6213 C   0  0  0  0  0  0  0  0  0  0  0  0
   -0.0891   -0.5236   -0.8372 N   0  0  0  0  0  0  0  0  0  0  0  0
   -1.1940    0.2693   -1.1931 C   0  0  0  0  0  0  0  0  0  0  0  0
   -1.1615    1.5716   -1.2699 N   0  0  0  0  0  0  0  0  0  0  0  0
   -2.5180   -0.3878   -1.5023 C   0  0  0  0  0  0  0  0  0  0  0  0
   -3.7611    0.3011   -1.9735 C   0  0  0  0  0  0  0  0  0  0  0  0
   -4.8084   -0.3122   -2.1667 O   0  0  0  0  0  0  0  0  0  0  0  0
   -3.6451    1.6489   -2.1652 N   0  0  0  0  0  0  0  0  0  0  0  0
   -4.7694    2.5003   -2.4596 C   0  0  0  0  0  0  0  0  0  0  0  0
   -5.3200    3.0267   -1.1869 C   0  0  0  0  0  0  0  0  0  0  0  0
   -6.1628    2.4953   -0.2316 C   0  0  0  0  0  0  0  0  0  0  0  0
   -6.3189    3.4898    0.7624 C   0  0  0  0  0  0  0  0  0  0  0  0
   -5.5628    4.5625    0.3522 C   0  0  0  0  0  0  0  0  0  0  0  0
   -4.9502    4.2915   -0.8292 O   0  0  0  0  0  0  0  0  0  0  0  0
   -2.5664   -1.7193   -1.3258 C   0  0  0  0  0  0  0  0  0  0  0  0
   -1.4312   -2.4984   -0.8614 C   0  0  0  0  0  0  0  0  0  0  0  0
   -1.5894   -3.9649   -0.6414 C   0  0  0  0  0  0  0  0  0  0  0  0
   -2.6732   -4.5090   -0.8609 O   0  0  0  0  0  0  0  0  0  0  0  0
   -0.4662   -4.6351   -0.1892 N   0  0  0  0  0  0  0  0  0  0  0  0
   -0.5349   -6.0041    0.0492 C   0  0  0  0  0  0  0  0  0  0  0  0
    0.5238   -6.6977    0.4849 C   0  0  0  0  0  0  0  0  0  0  0  0
    1.7739   -6.0251    0.7166 C   0  0  0  0  0  0  0  0  0  0  0  0
    1.8844   -4.7091    0.5000 C   0  0  0  0  0  0  0  0  0  0  0  0
    0.7062   -3.9338    0.0162 C   0  0  0  0  0  0  0  0  0  0  0  0
    0.8435   -2.6622   -0.1826 N   0  0  0  0  0  0  0  0  0  0  0  0
   -0.2304   -1.9223   -0.6270 C   0  0  0  0  0  0  0  0  0  0  0  0
    3.9079    0.5003    1.1768 C   0  0  0  0  0  0  0  0  0  0  0  0
    5.1304    1.1559    1.3623 C   0  0  0  0  0  0  0  0  0  0  0  0
    7.7586    2.0511    0.8172 H   0  0  0  0  0  0  0  0  0  0  0  0
    8.3243    3.3618    1.8604 H   0  0  0  0  0  0  0  0  0  0  0  0
    7.5390    1.9658    2.6091 H   0  0  0  0  0  0  0  0  0  0  0  0
    4.0166    4.3600    1.3794 H   0  0  0  0  0  0  0  0  0  0  0  0
    1.8601    3.2189    1.0534 H   0  0  0  0  0  0  0  0  0  0  0  0
    1.3475   -0.3481    1.5101 H   0  0  0  0  0  0  0  0  0  0  0  0
    0.5758    1.1721    1.1333 H   0  0  0  0  0  0  0  0  0  0  0  0
    1.4000    0.9197   -1.3055 H   0  0  0  0  0  0  0  0  0  0  0  0
    2.0362   -0.6292   -0.8963 H   0  0  0  0  0  0  0  0  0  0  0  0
   -0.2439    1.9405   -1.0246 H   0  0  0  0  0  0  0  0  0  0  0  0
   -2.7704    2.0835   -1.8617 H   0  0  0  0  0  0  0  0  0  0  0  0
   -5.5352    1.9429   -3.0084 H   0  0  0  0  0  0  0  0  0  0  0  0
   -4.4094    3.3136   -3.0970 H   0  0  0  0  0  0  0  0  0  0  0  0
   -6.6000    1.5061   -0.2591 H   0  0  0  0  0  0  0  0  0  0  0  0
   -6.9070    3.4322    1.6669 H   0  0  0  0  0  0  0  0  0  0  0  0
   -5.3635    5.5404    0.7672 H   0  0  0  0  0  0  0  0  0  0  0  0
   -3.4870   -2.2659   -1.5257 H   0  0  0  0  0  0  0  0  0  0  0  0
   -1.4901   -6.4911   -0.1333 H   0  0  0  0  0  0  0  0  0  0  0  0
    0.4594   -7.7655    0.6689 H   0  0  0  0  0  0  0  0  0  0  0  0
    2.6188   -6.6083    1.0691 H   0  0  0  0  0  0  0  0  0  0  0  0
    2.8070   -4.1663    0.6624 H   0  0  0  0  0  0  0  0  0  0  0  0
    3.8936   -0.5865    1.1231 H   0  0  0  0  0  0  0  0  0  0  0  0
    6.0260    0.5499    1.4460 H   0  0  0  0  0  0  0  0  0  0  0  0
  1  2  1  0
  2  3  1  0
  3  4  2  0
  4  5  1  0
  5  6  2  0
  6  7  1  0
  7  8  1  0
  8  9  1  0
  9 10  1  0
 10 11  2  3
 10 12  1  0
 12 13  1  0
 13 14  2  0
 13 15  1  0
 15 16  1  0
 16 17  1  0
 17 18  2  0
 18 19  1  0
 19 20  2  0
 20 21  1  0
 12 22  2  0
 22 23  1  0
 23 24  1  0
 24 25  2  0
 24 26  1  0
 26 27  1  0
 27 28  2  0
 28 29  1  0
 29 30  2  0
 30 31  1  0
 31 32  2  0
 32 33  1  0
  6 34  1  0
 34 35  2  0
 35  3  1  0
 33  9  1  0
 21 17  1  0
 33 23  2  0
 31 26  1  0
  1 36  1  0
  1 37  1  0
  1 38  1  0
  4 39  1  0
  5 40  1  0
  7 41  1  0
  7 42  1  0
  8 43  1  0
  8 44  1  0
 11 45  1  0
 15 46  1  0
 16 47  1  0
 16 48  1  0
 18 49  1  0
 19 50  1  0
 20 51  1  0
 22 52  1  0
 27 53  1  0
 28 54  1  0
 29 55  1  0
 30 56  1  0
 34 57  1  0
 35 58  1  0
M  END
$$$$
