
     RDKit          3D

 48 50  0  0  0  0  0  0  0  0999 V2000
    4.3915   -4.0194    2.0704 C   0  0  0  0  0  0  0  0  0  0  0  0
    4.1953   -2.9737    1.1262 O   0  0  0  0  0  0  0  0  0  0  0  0
    2.9048   -2.6351    0.8141 C   0  0  0  0  0  0  0  0  0  0  0  0
    1.7709   -3.2364    1.3728 C   0  0  0  0  0  0  0  0  0  0  0  0
    0.4891   -2.8292    0.9916 C   0  0  0  0  0  0  0  0  0  0  0  0
    0.3330   -1.8209    0.0418 C   0  0  0  0  0  0  0  0  0  0  0  0
   -1.0348   -1.4108   -0.3386 C   0  0  0  0  0  0  0  0  0  0  0  0
   -1.2480   -0.4740   -1.2070 N   0  0  0  0  0  0  0  0  0  0  0  0
   -2.5451   -0.1098   -1.4575 N   0  0  0  0  0  0  0  0  0  0  0  0
   -3.5620   -0.0153   -0.5060 C   0  0  0  0  0  0  0  0  0  0  0  0
   -3.4969   -0.4406    0.6399 O   0  0  0  0  0  0  0  0  0  0  0  0
   -4.7819    0.7038   -1.0322 C   0  0  0  0  0  0  0  0  0  0  0  0
   -4.6270    1.1503   -2.3160 N   0  0  0  0  0  0  0  0  0  0  0  0
   -5.6596    1.8271   -2.8645 C   0  0  0  0  0  0  0  0  0  0  0  0
   -5.3197    2.3436   -4.4701 Cl  0  0  0  0  0  0  0  0  0  0  0  0
   -6.8600    2.0845   -2.2152 C   0  0  0  0  0  0  0  0  0  0  0  0
   -8.1447    2.9597   -2.9803 Cl  0  0  0  0  0  0  0  0  0  0  0  0
   -7.0289    1.5875   -0.9079 C   0  0  0  0  0  0  0  0  0  0  0  0
   -8.1777    1.9410   -0.1556 N   0  0  0  0  0  0  0  0  0  0  0  0
   -5.9483    0.9124   -0.2906 C   0  0  0  0  0  0  0  0  0  0  0  0
   -6.1672    0.3608    1.3395 Cl  0  0  0  0  0  0  0  0  0  0  0  0
    1.4563   -1.2142   -0.5233 C   0  0  0  0  0  0  0  0  0  0  0  0
    2.7518   -1.6024   -0.1323 C   0  0  0  0  0  0  0  0  0  0  0  0
    3.9587   -0.9463   -0.7738 C   0  0  0  0  0  0  0  0  0  0  0  0
    3.7528    0.4385   -1.0725 O   0  0  0  0  0  0  0  0  0  0  0  0
    3.9329    1.3612   -0.0785 C   0  0  0  0  0  0  0  0  0  0  0  0
    4.1888    1.0762    1.2654 C   0  0  0  0  0  0  0  0  0  0  0  0
    4.3472    2.1191    2.1830 C   0  0  0  0  0  0  0  0  0  0  0  0
    4.2498    3.4399    1.7573 C   0  0  0  0  0  0  0  0  0  0  0  0
    4.4093    4.4296    2.6443 F   0  0  0  0  0  0  0  0  0  0  0  0
    3.9910    3.7439    0.4303 C   0  0  0  0  0  0  0  0  0  0  0  0
    3.8328    2.7019   -0.4753 C   0  0  0  0  0  0  0  0  0  0  0  0
    3.5869    3.0046   -1.7591 F   0  0  0  0  0  0  0  0  0  0  0  0
    3.9740   -4.9641    1.7063 H   0  0  0  0  0  0  0  0  0  0  0  0
    5.4696   -4.1582    2.1940 H   0  0  0  0  0  0  0  0  0  0  0  0
    3.9762   -3.7514    3.0477 H   0  0  0  0  0  0  0  0  0  0  0  0
    1.8470   -4.0272    2.1120 H   0  0  0  0  0  0  0  0  0  0  0  0
   -0.3782   -3.3042    1.4440 H   0  0  0  0  0  0  0  0  0  0  0  0
   -1.8522   -1.9720    0.1447 H   0  0  0  0  0  0  0  0  0  0  0  0
   -2.6665    0.4636   -2.2936 H   0  0  0  0  0  0  0  0  0  0  0  0
   -8.3663    1.3208    0.6305 H   0  0  0  0  0  0  0  0  0  0  0  0
   -9.0029    2.1484   -0.7162 H   0  0  0  0  0  0  0  0  0  0  0  0
    1.3275   -0.4284   -1.2667 H   0  0  0  0  0  0  0  0  0  0  0  0
    4.8836   -1.0724   -0.1992 H   0  0  0  0  0  0  0  0  0  0  0  0
    4.1294   -1.4508   -1.7321 H   0  0  0  0  0  0  0  0  0  0  0  0
    4.2619    0.0586    1.6357 H   0  0  0  0  0  0  0  0  0  0  0  0
    4.5440    1.9073    3.2294 H   0  0  0  0  0  0  0  0  0  0  0  0
    3.9116    4.7727    0.1023 H   0  0  0  0  0  0  0  0  0  0  0  0
  1  2  1  0
  2  3  1  0
  3  4  2  0
  4  5  1  0
  5  6  2  0
  6  7  1  0
  7  8  2  3
  8  9  1  0
  9 10  1  0
 10 11  2  0
 10 12  1  0
 12 13  2  0
 13 14  1  0
 14 15  1  0
 14 16  2  0
 16 17  1  0
 16 18  1  0
 18 19  1  0
 18 20  2  0
 20 21  1  0
  6 22  1  0
 22 23  2  0
 23 24  1  0
 24 25  1  0
 25 26  1  0
 26 27  2  0
 27 28  1  0
 28 29  2  0
 29 30  1  0
 29 31  1  0
 31 32  2  0
 32 33  1  0
 23  3  1  0
 32 26  1  0
 20 12  1  0
  1 34  1  0
  1 35  1  0
  1 36  1  0
  4 37  1  0
  5 38  1  0
  7 39  1  0
  9 40  1  0
 19 41  1  0
 19 42  1  0
 22 43  1  0
 24 44  1  0
 24 45  1  0
 27 46  1  0
 28 47  1  0
 31 48  1  0
M  END
$$$$
