
     RDKit          3D

 37 39  0  0  0  0  0  0  0  0999 V2000
    3.8948    0.7109   -0.7483 N   0  0  0  0  0  0  0  0  0  0  0  0
    2.5447    0.7683   -0.1916 C   0  0  0  0  0  0  0  0  0  0  0  0
    2.3093   -0.4201    0.7359 C   0  0  0  0  0  0  0  0  0  0  0  0
    0.9465   -0.3949    1.4467 C   0  0  0  0  0  0  0  0  0  0  0  0
   -0.1975   -0.5807    0.5178 N   0  0  0  0  0  0  0  0  0  0  0  0
   -0.4887   -1.9307    0.1297 C   0  0  0  0  0  0  0  0  0  0  0  0
    0.2642   -3.0384    0.5919 C   0  0  0  0  0  0  0  0  0  0  0  0
   -0.0135   -4.3609    0.2195 C   0  0  0  0  0  0  0  0  0  0  0  0
   -1.0640   -4.6318   -0.6365 C   0  0  0  0  0  0  0  0  0  0  0  0
   -1.8283   -3.5760   -1.1142 C   0  0  0  0  0  0  0  0  0  0  0  0
   -1.5519   -2.2427   -0.7417 C   0  0  0  0  0  0  0  0  0  0  0  0
   -2.6366   -1.0373   -1.4558 S   0  0  0  0  0  0  0  0  0  0  0  0
   -2.0370    0.4808   -0.7641 C   0  0  0  0  0  0  0  0  0  0  0  0
   -2.7569    1.6263   -1.1649 C   0  0  0  0  0  0  0  0  0  0  0  0
   -2.4070    2.8936   -0.7177 C   0  0  0  0  0  0  0  0  0  0  0  0
   -1.3272    3.0359    0.1453 C   0  0  0  0  0  0  0  0  0  0  0  0
   -0.8968    4.3975    0.6338 C   0  0  0  0  0  0  0  0  0  0  0  0
    0.1819    4.8710   -0.0483 F   0  0  0  0  0  0  0  0  0  0  0  0
   -1.8642    5.3484    0.5149 F   0  0  0  0  0  0  0  0  0  0  0  0
   -0.5360    4.3954    1.9475 F   0  0  0  0  0  0  0  0  0  0  0  0
   -0.6086    1.8845    0.5358 C   0  0  0  0  0  0  0  0  0  0  0  0
   -0.9327    0.5739    0.1078 C   0  0  0  0  0  0  0  0  0  0  0  0
    4.0251    1.4940   -1.3889 H   0  0  0  0  0  0  0  0  0  0  0  0
    3.9899   -0.1304   -1.3177 H   0  0  0  0  0  0  0  0  0  0  0  0
    1.8231    0.7706   -1.0142 H   0  0  0  0  0  0  0  0  0  0  0  0
    2.4399    1.7068    0.3612 H   0  0  0  0  0  0  0  0  0  0  0  0
    3.0880   -0.4289    1.5101 H   0  0  0  0  0  0  0  0  0  0  0  0
    2.4319   -1.3476    0.1653 H   0  0  0  0  0  0  0  0  0  0  0  0
    0.9267   -1.1653    2.2278 H   0  0  0  0  0  0  0  0  0  0  0  0
    0.8692    0.5065    2.0596 H   0  0  0  0  0  0  0  0  0  0  0  0
    1.1093   -2.9231    1.2619 H   0  0  0  0  0  0  0  0  0  0  0  0
    0.5992   -5.1722    0.6049 H   0  0  0  0  0  0  0  0  0  0  0  0
   -1.2893   -5.6524   -0.9321 H   0  0  0  0  0  0  0  0  0  0  0  0
   -2.6543   -3.7966   -1.7883 H   0  0  0  0  0  0  0  0  0  0  0  0
   -3.6060    1.5303   -1.8407 H   0  0  0  0  0  0  0  0  0  0  0  0
   -2.9792    3.7588   -1.0472 H   0  0  0  0  0  0  0  0  0  0  0  0
    0.2318    2.0767    1.1946 H   0  0  0  0  0  0  0  0  0  0  0  0
  1  2  1  0
  2  3  1  0
  3  4  1  0
  4  5  1  0
  5  6  1  0
  6  7  2  0
  7  8  1  0
  8  9  2  0
  9 10  1  0
 10 11  2  0
 11 12  1  0
 12 13  1  0
 13 14  2  0
 14 15  1  0
 15 16  2  0
 16 17  1  0
 17 18  1  0
 17 19  1  0
 17 20  1  0
 16 21  1  0
 21 22  2  0
 22  5  1  0
 11  6  1  0
 22 13  1  0
  1 23  1  0
  1 24  1  0
  2 25  1  0
  2 26  1  0
  3 27  1  0
  3 28  1  0
  4 29  1  0
  4 30  1  0
  7 31  1  0
  8 32  1  0
  9 33  1  0
 10 34  1  0
 14 35  1  0
 15 36  1  0
 21 37  1  0
M  END
$$$$
