
     RDKit          3D

 60 63  0  0  0  0  0  0  0  0999 V2000
   -4.5267    4.8419    2.7253 C   0  0  0  0  0  0  0  0  0  0  0  0
   -4.6320    4.3246    1.4033 O   0  0  0  0  0  0  0  0  0  0  0  0
   -3.7606    3.3260    1.0650 C   0  0  0  0  0  0  0  0  0  0  0  0
   -2.9290    2.6363    1.9424 C   0  0  0  0  0  0  0  0  0  0  0  0
   -2.0848    1.6293    1.4655 C   0  0  0  0  0  0  0  0  0  0  0  0
   -2.0744    1.3044    0.1037 C   0  0  0  0  0  0  0  0  0  0  0  0
   -1.2296    0.2736   -0.3759 N   0  0  0  0  0  0  0  0  0  0  0  0
   -1.0775   -1.0104    0.1428 C   0  0  0  0  0  0  0  0  0  0  0  0
   -1.9231   -1.6388    1.2074 C   0  0  0  0  0  0  0  0  0  0  0  0
   -3.0251   -2.4828    0.6329 C   0  0  0  0  0  0  0  0  0  0  0  0
   -2.9239   -3.7135    0.0026 C   0  0  0  0  0  0  0  0  0  0  0  0
   -4.2209   -4.1276   -0.3627 C   0  0  0  0  0  0  0  0  0  0  0  0
   -5.0897   -3.1456    0.0494 C   0  0  0  0  0  0  0  0  0  0  0  0
   -4.3648   -2.1554    0.6620 N   0  0  0  0  0  0  0  0  0  0  0  0
   -4.9569   -0.9679    1.2343 C   0  0  0  0  0  0  0  0  0  0  0  0
   -0.1478   -1.6495   -0.5441 N   0  0  0  0  0  0  0  0  0  0  0  0
    0.2681   -0.8459   -1.5649 N   0  0  0  0  0  0  0  0  0  0  0  0
   -0.3809    0.2903   -1.4732 C   0  0  0  0  0  0  0  0  0  0  0  0
   -0.0670    1.6744   -2.4713 S   0  0  0  0  0  0  0  0  0  0  0  0
    1.0934    0.9948   -3.6882 C   0  0  0  0  0  0  0  0  0  0  0  0
    2.4897    0.8802   -3.1043 C   0  0  0  0  0  0  0  0  0  0  0  0
    3.2566    1.8391   -3.0342 O   0  0  0  0  0  0  0  0  0  0  0  0
    2.8217   -0.3930   -2.6774 N   0  0  0  0  0  0  0  0  0  0  0  0
    4.0854   -0.6626   -2.0177 C   0  0  0  0  0  0  0  0  0  0  0  0
    4.0407   -0.3318   -0.5259 C   0  0  0  0  0  0  0  0  0  0  0  0
    5.3496   -0.6617    0.1503 C   0  0  0  0  0  0  0  0  0  0  0  0
    6.2947    0.3410    0.3956 C   0  0  0  0  0  0  0  0  0  0  0  0
    7.5207    0.0282    0.9861 C   0  0  0  0  0  0  0  0  0  0  0  0
    7.8156   -1.2875    1.3309 C   0  0  0  0  0  0  0  0  0  0  0  0
    6.8821   -2.2918    1.0913 C   0  0  0  0  0  0  0  0  0  0  0  0
    5.6541   -1.9803    0.5042 C   0  0  0  0  0  0  0  0  0  0  0  0
   -2.9005    1.9993   -0.7784 C   0  0  0  0  0  0  0  0  0  0  0  0
   -3.7450    2.9977   -0.2926 C   0  0  0  0  0  0  0  0  0  0  0  0
   -3.5121    5.1855    2.9387 H   0  0  0  0  0  0  0  0  0  0  0  0
   -5.1930    5.7042    2.8010 H   0  0  0  0  0  0  0  0  0  0  0  0
   -4.8533    4.1052    3.4638 H   0  0  0  0  0  0  0  0  0  0  0  0
   -2.9094    2.8634    3.0043 H   0  0  0  0  0  0  0  0  0  0  0  0
   -1.4155    1.1410    2.1669 H   0  0  0  0  0  0  0  0  0  0  0  0
   -1.2791   -2.2884    1.8156 H   0  0  0  0  0  0  0  0  0  0  0  0
   -2.3270   -0.9084    1.9096 H   0  0  0  0  0  0  0  0  0  0  0  0
   -2.0018   -4.2510   -0.1777 H   0  0  0  0  0  0  0  0  0  0  0  0
   -4.4957   -5.0430   -0.8747 H   0  0  0  0  0  0  0  0  0  0  0  0
   -6.1653   -3.0771   -0.0402 H   0  0  0  0  0  0  0  0  0  0  0  0
   -4.6202   -0.8678    2.2668 H   0  0  0  0  0  0  0  0  0  0  0  0
   -6.0438   -1.0600    1.2171 H   0  0  0  0  0  0  0  0  0  0  0  0
   -4.6561   -0.1109    0.6300 H   0  0  0  0  0  0  0  0  0  0  0  0
    0.7434    0.0301   -4.0729 H   0  0  0  0  0  0  0  0  0  0  0  0
    1.1474    1.6768   -4.5434 H   0  0  0  0  0  0  0  0  0  0  0  0
    2.0434   -1.0089   -2.4371 H   0  0  0  0  0  0  0  0  0  0  0  0
    4.8755   -0.0915   -2.5092 H   0  0  0  0  0  0  0  0  0  0  0  0
    4.2990   -1.7271   -2.1710 H   0  0  0  0  0  0  0  0  0  0  0  0
    3.7964    0.7277   -0.3772 H   0  0  0  0  0  0  0  0  0  0  0  0
    3.2308   -0.8880   -0.0393 H   0  0  0  0  0  0  0  0  0  0  0  0
    6.0848    1.3716    0.1220 H   0  0  0  0  0  0  0  0  0  0  0  0
    8.2498    0.8125    1.1699 H   0  0  0  0  0  0  0  0  0  0  0  0
    8.7753   -1.5276    1.7826 H   0  0  0  0  0  0  0  0  0  0  0  0
    7.1107   -3.3176    1.3580 H   0  0  0  0  0  0  0  0  0  0  0  0
    4.9365   -2.7759    0.3183 H   0  0  0  0  0  0  0  0  0  0  0  0
   -2.9374    1.7611   -1.8381 H   0  0  0  0  0  0  0  0  0  0  0  0
   -4.3953    3.5292   -0.9786 H   0  0  0  0  0  0  0  0  0  0  0  0
  1  2  1  0
  2  3  1  0
  3  4  2  0
  4  5  1  0
  5  6  2  0
  6  7  1  0
  7  8  1  0
  8  9  1  0
  9 10  1  0
 10 11  2  0
 11 12  1  0
 12 13  2  0
 13 14  1  0
 14 15  1  0
  8 16  2  0
 16 17  1  0
 17 18  2  0
 18 19  1  0
 19 20  1  0
 20 21  1  0
 21 22  2  0
 21 23  1  0
 23 24  1  0
 24 25  1  0
 25 26  1  0
 26 27  2  0
 27 28  1  0
 28 29  2  0
 29 30  1  0
 30 31  2  0
  6 32  1  0
 32 33  2  0
 33  3  1  0
 18  7  1  0
 31 26  1  0
 14 10  1  0
  1 34  1  0
  1 35  1  0
  1 36  1  0
  4 37  1  0
  5 38  1  0
  9 39  1  0
  9 40  1  0
 11 41  1  0
 12 42  1  0
 13 43  1  0
 15 44  1  0
 15 45  1  0
 15 46  1  0
 20 47  1  0
 20 48  1  0
 23 49  1  0
 24 50  1  0
 24 51  1  0
 25 52  1  0
 25 53  1  0
 27 54  1  0
 28 55  1  0
 29 56  1  0
 30 57  1  0
 31 58  1  0
 32 59  1  0
 33 60  1  0
M  END
$$$$
