
     RDKit          3D

 43 45  0  0  0  0  0  0  0  0999 V2000
   -7.9424    1.1573    0.0440 C   0  0  0  0  0  0  0  0  0  0  0  0
   -6.5495    0.7795    0.2093 N   0  0  0  0  0  0  0  0  0  0  0  0
   -6.2130    0.1243    1.4661 C   0  0  0  0  0  0  0  0  0  0  0  0
   -5.6149    1.3518   -0.6535 C   0  0  0  0  0  0  0  0  0  0  0  0
   -5.8961    2.2022   -1.4946 O   0  0  0  0  0  0  0  0  0  0  0  0
   -4.2074    0.9016   -0.5844 C   0  0  0  0  0  0  0  0  0  0  0  0
   -3.1960    1.8494   -0.4272 C   0  0  0  0  0  0  0  0  0  0  0  0
   -1.8570    1.4430   -0.3853 C   0  0  0  0  0  0  0  0  0  0  0  0
   -1.5193    0.0932   -0.5187 C   0  0  0  0  0  0  0  0  0  0  0  0
   -0.1975   -0.4010   -0.4942 N   0  0  0  0  0  0  0  0  0  0  0  0
    0.9745    0.3088   -0.2615 C   0  0  0  0  0  0  0  0  0  0  0  0
    1.0132    1.5062    0.0051 O   0  0  0  0  0  0  0  0  0  0  0  0
    2.1841   -0.5020   -0.3439 C   0  0  0  0  0  0  0  0  0  0  0  0
    2.4401   -1.8151   -0.7004 C   0  0  0  0  0  0  0  0  0  0  0  0
    3.8400   -2.0115   -0.5776 C   0  0  0  0  0  0  0  0  0  0  0  0
    4.3754   -0.8122   -0.1552 C   0  0  0  0  0  0  0  0  0  0  0  0
    5.7234   -0.3412    0.1563 C   0  0  0  0  0  0  0  0  0  0  0  0
    6.8239   -1.2081    0.0631 C   0  0  0  0  0  0  0  0  0  0  0  0
    8.1170   -0.7627    0.3607 C   0  0  0  0  0  0  0  0  0  0  0  0
    8.3224    0.5566    0.7547 C   0  0  0  0  0  0  0  0  0  0  0  0
    9.9118    1.1030    1.1202 Cl  0  0  0  0  0  0  0  0  0  0  0  0
    7.2471    1.4337    0.8537 C   0  0  0  0  0  0  0  0  0  0  0  0
    5.9557    0.9855    0.5557 C   0  0  0  0  0  0  0  0  0  0  0  0
    3.3707    0.1001   -0.0158 O   0  0  0  0  0  0  0  0  0  0  0  0
   -2.5446   -0.8469   -0.7066 C   0  0  0  0  0  0  0  0  0  0  0  0
   -3.8841   -0.4477   -0.7439 C   0  0  0  0  0  0  0  0  0  0  0  0
   -8.1628    1.9911    0.7170 H   0  0  0  0  0  0  0  0  0  0  0  0
   -8.1525    1.4647   -0.9844 H   0  0  0  0  0  0  0  0  0  0  0  0
   -8.5789    0.3032    0.2925 H   0  0  0  0  0  0  0  0  0  0  0  0
   -6.5949    0.7350    2.2905 H   0  0  0  0  0  0  0  0  0  0  0  0
   -5.1392    0.0027    1.6112 H   0  0  0  0  0  0  0  0  0  0  0  0
   -6.6968   -0.8563    1.4883 H   0  0  0  0  0  0  0  0  0  0  0  0
   -3.4443    2.9051   -0.3417 H   0  0  0  0  0  0  0  0  0  0  0  0
   -1.1038    2.2152   -0.2613 H   0  0  0  0  0  0  0  0  0  0  0  0
   -0.1032   -1.3949   -0.6383 H   0  0  0  0  0  0  0  0  0  0  0  0
    1.7212   -2.5547   -1.0210 H   0  0  0  0  0  0  0  0  0  0  0  0
    4.3879   -2.9212   -0.7791 H   0  0  0  0  0  0  0  0  0  0  0  0
    6.6921   -2.2430   -0.2421 H   0  0  0  0  0  0  0  0  0  0  0  0
    8.9552   -1.4500    0.2824 H   0  0  0  0  0  0  0  0  0  0  0  0
    7.4001    2.4650    1.1601 H   0  0  0  0  0  0  0  0  0  0  0  0
    5.1277    1.6884    0.6386 H   0  0  0  0  0  0  0  0  0  0  0  0
   -2.3176   -1.9027   -0.8312 H   0  0  0  0  0  0  0  0  0  0  0  0
   -4.6675   -1.1831   -0.9076 H   0  0  0  0  0  0  0  0  0  0  0  0
  1  2  1  0
  2  3  1  0
  2  4  1  0
  4  5  2  0
  4  6  1  0
  6  7  2  0
  7  8  1  0
  8  9  2  0
  9 10  1  0
 10 11  1  0
 11 12  2  0
 11 13  1  0
 13 14  2  0
 14 15  1  0
 15 16  2  0
 16 17  1  0
 17 18  2  0
 18 19  1  0
 19 20  2  0
 20 21  1  0
 20 22  1  0
 22 23  2  0
 16 24  1  0
  9 25  1  0
 25 26  2  0
 26  6  1  0
 24 13  1  0
 23 17  1  0
  1 27  1  0
  1 28  1  0
  1 29  1  0
  3 30  1  0
  3 31  1  0
  3 32  1  0
  7 33  1  0
  8 34  1  0
 10 35  1  0
 14 36  1  0
 15 37  1  0
 18 38  1  0
 19 39  1  0
 22 40  1  0
 23 41  1  0
 25 42  1  0
 26 43  1  0
M  END
$$$$
