
     RDKit          3D

 36 37  0  0  0  0  0  0  0  0999 V2000
    7.5609   -0.7490    0.2808 C   0  0  0  0  0  0  0  0  0  0  0  0
    6.0909   -0.8413   -0.0453 C   0  0  0  0  0  0  0  0  0  0  0  0
    5.6554   -1.7686   -0.7186 O   0  0  0  0  0  0  0  0  0  0  0  0
    5.3612    0.1873    0.5230 N   0  0  0  0  0  0  0  0  0  0  0  0
    3.9742    0.4156    0.4163 C   0  0  0  0  0  0  0  0  0  0  0  0
    3.1115   -0.3657   -0.3559 C   0  0  0  0  0  0  0  0  0  0  0  0
    1.7417   -0.0755   -0.4133 C   0  0  0  0  0  0  0  0  0  0  0  0
    1.2190    0.9987    0.3140 C   0  0  0  0  0  0  0  0  0  0  0  0
   -0.2295    1.3458    0.2903 C   0  0  0  0  0  0  0  0  0  0  0  0
   -0.5635    2.5175    0.4379 O   0  0  0  0  0  0  0  0  0  0  0  0
   -1.0948    0.2726    0.1345 N   0  0  0  0  0  0  0  0  0  0  0  0
   -2.4405    0.4893    0.1206 N   0  0  0  0  0  0  0  0  0  0  0  0
   -3.1804   -0.5683    0.0326 C   0  0  0  0  0  0  0  0  0  0  0  0
   -4.6543   -0.4797    0.0088 C   0  0  0  0  0  0  0  0  0  0  0  0
   -5.4015   -1.6593   -0.0901 C   0  0  0  0  0  0  0  0  0  0  0  0
   -6.7961   -1.5917   -0.1137 C   0  0  0  0  0  0  0  0  0  0  0  0
   -7.4272   -0.3532   -0.0385 C   0  0  0  0  0  0  0  0  0  0  0  0
   -8.7649   -0.2948   -0.0614 F   0  0  0  0  0  0  0  0  0  0  0  0
   -6.6915    0.8230    0.0600 C   0  0  0  0  0  0  0  0  0  0  0  0
   -5.2973    0.7621    0.0839 C   0  0  0  0  0  0  0  0  0  0  0  0
    2.0823    1.7967    1.0714 C   0  0  0  0  0  0  0  0  0  0  0  0
    3.4489    1.5040    1.1239 C   0  0  0  0  0  0  0  0  0  0  0  0
    7.8901    0.2934    0.3198 H   0  0  0  0  0  0  0  0  0  0  0  0
    7.7483   -1.2298    1.2444 H   0  0  0  0  0  0  0  0  0  0  0  0
    8.1375   -1.2564   -0.4980 H   0  0  0  0  0  0  0  0  0  0  0  0
    5.8746    0.8447    1.0970 H   0  0  0  0  0  0  0  0  0  0  0  0
    3.4755   -1.2041   -0.9425 H   0  0  0  0  0  0  0  0  0  0  0  0
    1.1129   -0.6823   -1.0587 H   0  0  0  0  0  0  0  0  0  0  0  0
   -0.7496   -0.6790    0.1480 H   0  0  0  0  0  0  0  0  0  0  0  0
   -2.7426   -1.5809   -0.0290 H   0  0  0  0  0  0  0  0  0  0  0  0
   -4.9143   -2.6286   -0.1492 H   0  0  0  0  0  0  0  0  0  0  0  0
   -7.3960   -2.4933   -0.1900 H   0  0  0  0  0  0  0  0  0  0  0  0
   -7.2044    1.7780    0.1173 H   0  0  0  0  0  0  0  0  0  0  0  0
   -4.7181    1.6809    0.1610 H   0  0  0  0  0  0  0  0  0  0  0  0
    1.6911    2.6491    1.6245 H   0  0  0  0  0  0  0  0  0  0  0  0
    4.0903    2.1429    1.7259 H   0  0  0  0  0  0  0  0  0  0  0  0
  1  2  1  0
  2  3  2  0
  2  4  1  0
  4  5  1  0
  5  6  2  0
  6  7  1  0
  7  8  2  0
  8  9  1  0
  9 10  2  0
  9 11  1  0
 11 12  1  0
 12 13  2  3
 13 14  1  0
 14 15  2  0
 15 16  1  0
 16 17  2  0
 17 18  1  0
 17 19  1  0
 19 20  2  0
  8 21  1  0
 21 22  2  0
 22  5  1  0
 20 14  1  0
  1 23  1  0
  1 24  1  0
  1 25  1  0
  4 26  1  0
  6 27  1  0
  7 28  1  0
 11 29  1  0
 13 30  1  0
 15 31  1  0
 16 32  1  0
 19 33  1  0
 20 34  1  0
 21 35  1  0
 22 36  1  0
M  END
$$$$
