
     RDKit          3D

 45 47  0  0  0  0  0  0  0  0999 V2000
   -3.9631   -2.8367    2.0962 C   0  0  0  0  0  0  0  0  0  0  0  0
   -4.8543   -2.1123    1.1026 C   0  0  0  0  0  0  0  0  0  0  0  0
   -4.6466   -0.7047    1.1719 O   0  0  0  0  0  0  0  0  0  0  0  0
   -3.7124   -0.1167    0.3578 C   0  0  0  0  0  0  0  0  0  0  0  0
   -2.7907   -0.8123   -0.4292 C   0  0  0  0  0  0  0  0  0  0  0  0
   -1.8702   -0.1207   -1.2218 C   0  0  0  0  0  0  0  0  0  0  0  0
   -1.8500    1.2751   -1.2264 C   0  0  0  0  0  0  0  0  0  0  0  0
   -0.9149    2.0186   -2.0759 C   0  0  0  0  0  0  0  0  0  0  0  0
    0.4223    2.0249   -1.9766 C   0  0  0  0  0  0  0  0  0  0  0  0
    1.4209    2.9455   -3.0589 S   0  0  0  0  0  0  0  0  0  0  0  0
    2.9208    2.4090   -2.3088 C   0  0  0  0  0  0  0  0  0  0  0  0
    4.4289    2.9269   -2.7983 S   0  0  0  0  0  0  0  0  0  0  0  0
    2.6076    1.5588   -1.2706 N   0  0  0  0  0  0  0  0  0  0  0  0
    3.5935    0.8968   -0.5103 N   0  0  0  0  0  0  0  0  0  0  0  0
    3.9616   -0.3589   -0.9670 C   0  0  0  0  0  0  0  0  0  0  0  0
    3.6268   -0.8090   -2.0585 O   0  0  0  0  0  0  0  0  0  0  0  0
    4.7718   -1.1823   -0.0328 C   0  0  0  0  0  0  0  0  0  0  0  0
    4.7181   -2.5707   -0.1585 C   0  0  0  0  0  0  0  0  0  0  0  0
    5.4756   -3.3309    0.7117 C   0  0  0  0  0  0  0  0  0  0  0  0
    6.2677   -2.8024    1.6691 N   0  0  0  0  0  0  0  0  0  0  0  0
    6.3174   -1.4566    1.7551 C   0  0  0  0  0  0  0  0  0  0  0  0
    5.5960   -0.6068    0.9353 C   0  0  0  0  0  0  0  0  0  0  0  0
    1.2758    1.3129   -0.9797 C   0  0  0  0  0  0  0  0  0  0  0  0
    0.8766    0.6569   -0.0276 O   0  0  0  0  0  0  0  0  0  0  0  0
   -2.7731    1.9784   -0.4429 C   0  0  0  0  0  0  0  0  0  0  0  0
   -3.6989    1.2935    0.3552 C   0  0  0  0  0  0  0  0  0  0  0  0
   -4.6355    1.9054    1.1530 O   0  0  0  0  0  0  0  0  0  0  0  0
   -4.5927    3.3207    1.2566 C   0  0  0  0  0  0  0  0  0  0  0  0
   -4.1716   -3.9104    2.0910 H   0  0  0  0  0  0  0  0  0  0  0  0
   -2.9037   -2.6863    1.8691 H   0  0  0  0  0  0  0  0  0  0  0  0
   -4.1271   -2.4519    3.1084 H   0  0  0  0  0  0  0  0  0  0  0  0
   -4.7547   -2.5055    0.0849 H   0  0  0  0  0  0  0  0  0  0  0  0
   -5.8985   -2.2851    1.3875 H   0  0  0  0  0  0  0  0  0  0  0  0
   -2.7489   -1.8956   -0.4425 H   0  0  0  0  0  0  0  0  0  0  0  0
   -1.1645   -0.6881   -1.8247 H   0  0  0  0  0  0  0  0  0  0  0  0
   -1.4031    2.6140   -2.8461 H   0  0  0  0  0  0  0  0  0  0  0  0
    3.5014    1.0299    0.4925 H   0  0  0  0  0  0  0  0  0  0  0  0
    4.1008   -3.0480   -0.9129 H   0  0  0  0  0  0  0  0  0  0  0  0
    5.4681   -4.4163    0.6616 H   0  0  0  0  0  0  0  0  0  0  0  0
    6.9810   -1.0683    2.5233 H   0  0  0  0  0  0  0  0  0  0  0  0
    5.7095    0.4651    1.0439 H   0  0  0  0  0  0  0  0  0  0  0  0
   -2.7533    3.0627   -0.4680 H   0  0  0  0  0  0  0  0  0  0  0  0
   -5.3668    3.6278    1.9664 H   0  0  0  0  0  0  0  0  0  0  0  0
   -4.8187    3.7926    0.2949 H   0  0  0  0  0  0  0  0  0  0  0  0
   -3.6287    3.6614    1.6488 H   0  0  0  0  0  0  0  0  0  0  0  0
  1  2  1  0
  2  3  1  0
  3  4  1  0
  4  5  2  0
  5  6  1  0
  6  7  2  0
  7  8  1  0
  8  9  2  3
  9 10  1  0
 10 11  1  0
 11 12  2  0
 11 13  1  0
 13 14  1  0
 14 15  1  0
 15 16  2  0
 15 17  1  0
 17 18  2  0
 18 19  1  0
 19 20  2  0
 20 21  1  0
 21 22  2  0
 13 23  1  0
 23 24  2  0
  7 25  1  0
 25 26  2  0
 26 27  1  0
 27 28  1  0
 26  4  1  0
 23  9  1  0
 22 17  1  0
  1 29  1  0
  1 30  1  0
  1 31  1  0
  2 32  1  0
  2 33  1  0
  5 34  1  0
  6 35  1  0
  8 36  1  0
 14 37  1  0
 18 38  1  0
 19 39  1  0
 21 40  1  0
 22 41  1  0
 25 42  1  0
 28 43  1  0
 28 44  1  0
 28 45  1  0
M  END
$$$$
