
     RDKit          3D

 64 69  0  0  0  0  0  0  0  0999 V2000
    5.8529    0.7154    3.3140 C   0  0  0  0  0  0  0  0  0  0  0  0
    5.8772    0.5706    1.9012 O   0  0  0  0  0  0  0  0  0  0  0  0
    4.6788    0.4866    1.2390 C   0  0  0  0  0  0  0  0  0  0  0  0
    3.4259    0.4857    1.8616 C   0  0  0  0  0  0  0  0  0  0  0  0
    2.2318    0.3701    1.1223 C   0  0  0  0  0  0  0  0  0  0  0  0
    2.3018    0.3105   -0.2726 C   0  0  0  0  0  0  0  0  0  0  0  0
    3.5684    0.3131   -0.8972 C   0  0  0  0  0  0  0  0  0  0  0  0
    4.7510    0.3910   -0.1581 C   0  0  0  0  0  0  0  0  0  0  0  0
    6.0100    0.3930   -0.7019 O   0  0  0  0  0  0  0  0  0  0  0  0
    6.1197    0.3855   -2.1189 C   0  0  0  0  0  0  0  0  0  0  0  0
    1.1408    0.3940   -1.1965 C   0  0  0  0  0  0  0  0  0  0  0  0
    1.3382    0.8766   -2.3123 O   0  0  0  0  0  0  0  0  0  0  0  0
   -0.1149   -0.0227   -0.8073 N   0  0  0  0  0  0  0  0  0  0  0  0
   -1.2468    0.1647   -1.7202 C   0  0  0  0  0  0  0  0  0  0  0  0
   -1.9471    1.4983   -1.6151 C   0  0  0  0  0  0  0  0  0  0  0  0
   -1.3582    2.6764   -1.1416 C   0  0  0  0  0  0  0  0  0  0  0  0
   -2.0597    3.8921   -1.1749 C   0  0  0  0  0  0  0  0  0  0  0  0
   -1.4284    5.1407   -0.6324 C   0  0  0  0  0  0  0  0  0  0  0  0
   -3.3638    3.9210   -1.6859 C   0  0  0  0  0  0  0  0  0  0  0  0
   -3.9542    2.7571   -2.1753 C   0  0  0  0  0  0  0  0  0  0  0  0
   -3.2507    1.5598   -2.1200 C   0  0  0  0  0  0  0  0  0  0  0  0
   -3.8499    0.4312   -2.6175 O   0  0  0  0  0  0  0  0  0  0  0  0
   -3.6783   -0.6639   -1.7126 C   0  0  0  0  0  0  0  0  0  0  0  0
   -2.2158   -0.9636   -1.3709 C   0  0  0  0  0  0  0  0  0  0  0  0
   -1.9946   -1.1512    0.1488 C   0  0  0  0  0  0  0  0  0  0  0  0
   -2.5915   -2.4240    0.7339 C   0  0  0  0  0  0  0  0  0  0  0  0
   -2.6276   -3.6455    0.0427 C   0  0  0  0  0  0  0  0  0  0  0  0
   -3.1894   -4.7852    0.6257 C   0  0  0  0  0  0  0  0  0  0  0  0
   -3.7250   -4.7246    1.9085 C   0  0  0  0  0  0  0  0  0  0  0  0
   -3.6984   -3.5242    2.6103 C   0  0  0  0  0  0  0  0  0  0  0  0
   -3.1372   -2.3857    2.0279 C   0  0  0  0  0  0  0  0  0  0  0  0
   -0.4481   -0.9184    0.3179 C   0  0  0  0  0  0  0  0  0  0  0  0
    0.3405   -2.2390    0.2570 C   0  0  0  0  0  0  0  0  0  0  0  0
   -0.1740   -0.1641    1.6325 C   0  0  0  0  0  0  0  0  0  0  0  0
   -0.9980   -0.0909    2.5489 O   0  0  0  0  0  0  0  0  0  0  0  0
    1.0656    0.3367    1.8995 N   0  0  0  0  0  0  0  0  0  0  0  0
    6.8881    0.7916    3.6606 H   0  0  0  0  0  0  0  0  0  0  0  0
    5.4062   -0.1626    3.7921 H   0  0  0  0  0  0  0  0  0  0  0  0
    5.3350    1.6343    3.6087 H   0  0  0  0  0  0  0  0  0  0  0  0
    3.3620    0.5458    2.9439 H   0  0  0  0  0  0  0  0  0  0  0  0
    3.6030    0.2729   -1.9832 H   0  0  0  0  0  0  0  0  0  0  0  0
    5.6443    1.2688   -2.5578 H   0  0  0  0  0  0  0  0  0  0  0  0
    5.7093   -0.5377   -2.5409 H   0  0  0  0  0  0  0  0  0  0  0  0
    7.1839    0.4216   -2.3716 H   0  0  0  0  0  0  0  0  0  0  0  0
   -0.9028    0.0535   -2.7569 H   0  0  0  0  0  0  0  0  0  0  0  0
   -0.3395    2.6666   -0.7632 H   0  0  0  0  0  0  0  0  0  0  0  0
   -1.8471    6.0327   -1.1104 H   0  0  0  0  0  0  0  0  0  0  0  0
   -1.5984    5.2066    0.4468 H   0  0  0  0  0  0  0  0  0  0  0  0
   -0.3500    5.1461   -0.8238 H   0  0  0  0  0  0  0  0  0  0  0  0
   -3.9228    4.8533   -1.7152 H   0  0  0  0  0  0  0  0  0  0  0  0
   -4.9586    2.7817   -2.5867 H   0  0  0  0  0  0  0  0  0  0  0  0
   -4.2884   -0.4729   -0.8197 H   0  0  0  0  0  0  0  0  0  0  0  0
   -4.1219   -1.5452   -2.1905 H   0  0  0  0  0  0  0  0  0  0  0  0
   -1.8919   -1.8558   -1.9204 H   0  0  0  0  0  0  0  0  0  0  0  0
   -2.5210   -0.3129    0.6323 H   0  0  0  0  0  0  0  0  0  0  0  0
   -2.2129   -3.7451   -0.9565 H   0  0  0  0  0  0  0  0  0  0  0  0
   -3.2070   -5.7230    0.0759 H   0  0  0  0  0  0  0  0  0  0  0  0
   -4.1618   -5.6110    2.3607 H   0  0  0  0  0  0  0  0  0  0  0  0
   -4.1145   -3.4693    3.6130 H   0  0  0  0  0  0  0  0  0  0  0  0
   -3.1334   -1.4596    2.6016 H   0  0  0  0  0  0  0  0  0  0  0  0
    1.4229   -2.1031    0.3097 H   0  0  0  0  0  0  0  0  0  0  0  0
    0.1448   -2.7758   -0.6776 H   0  0  0  0  0  0  0  0  0  0  0  0
    0.0857   -2.8923    1.0987 H   0  0  0  0  0  0  0  0  0  0  0  0
    1.1357    0.6237    2.8700 H   0  0  0  0  0  0  0  0  0  0  0  0
  1  2  1  0
  2  3  1  0
  3  4  2  0
  4  5  1  0
  5  6  2  0
  6  7  1  0
  7  8  2  0
  8  9  1  0
  9 10  1  0
  6 11  1  0
 11 12  2  0
 11 13  1  0
 13 14  1  0
 14 15  1  0
 15 16  2  0
 16 17  1  0
 17 18  1  0
 17 19  2  0
 19 20  1  0
 20 21  2  0
 21 22  1  0
 22 23  1  0
 23 24  1  0
 24 25  1  0
 25 26  1  0
 26 27  2  0
 27 28  1  0
 28 29  2  0
 29 30  1  0
 30 31  2  0
 25 32  1  0
 32 33  1  0
 32 34  1  0
 34 35  2  0
 34 36  1  0
  8  3  1  0
 32 13  1  0
 36  5  1  0
 24 14  1  0
 31 26  1  0
 21 15  1  0
  1 37  1  0
  1 38  1  0
  1 39  1  0
  4 40  1  0
  7 41  1  0
 10 42  1  0
 10 43  1  0
 10 44  1  0
 14 45  1  0
 16 46  1  0
 18 47  1  0
 18 48  1  0
 18 49  1  0
 19 50  1  0
 20 51  1  0
 23 52  1  0
 23 53  1  0
 24 54  1  0
 25 55  1  0
 27 56  1  0
 28 57  1  0
 29 58  1  0
 30 59  1  0
 31 60  1  0
 33 61  1  0
 33 62  1  0
 33 63  1  0
 36 64  1  0
M  END
$$$$
