
     RDKit          3D

 49 52  0  0  0  0  0  0  0  0999 V2000
   -4.5745   -1.2772   -0.8053 C   0  0  0  0  0  0  0  0  0  0  0  0
   -4.2536   -0.0923    0.0830 C   0  0  0  0  0  0  0  0  0  0  0  0
   -3.0482    0.2344    0.4500 N   0  0  0  0  0  0  0  0  0  0  0  0
   -2.0001   -0.5398    0.0584 N   0  0  0  0  0  0  0  0  0  0  0  0
   -0.7001   -0.1923    0.3971 C   0  0  0  0  0  0  0  0  0  0  0  0
   -0.3743    0.8131    1.0203 O   0  0  0  0  0  0  0  0  0  0  0  0
    0.2732   -1.1786   -0.0667 C   0  0  0  0  0  0  0  0  0  0  0  0
   -0.1090   -2.3345   -0.6950 N   0  0  0  0  0  0  0  0  0  0  0  0
    0.9776   -3.0203   -0.9980 N   0  0  0  0  0  0  0  0  0  0  0  0
    2.0793   -2.3376   -0.5609 N   0  0  0  0  0  0  0  0  0  0  0  0
    3.3852   -2.8662   -0.7305 C   0  0  0  0  0  0  0  0  0  0  0  0
    4.4604   -2.2193   -0.2801 N   0  0  0  0  0  0  0  0  0  0  0  0
    5.5285   -3.0368   -0.6433 O   0  0  0  0  0  0  0  0  0  0  0  0
    5.0877   -4.1814   -1.2983 N   0  0  0  0  0  0  0  0  0  0  0  0
    3.7602   -4.0777   -1.3432 C   0  0  0  0  0  0  0  0  0  0  0  0
    2.9468   -5.0004   -1.8910 N   0  0  0  0  0  0  0  0  0  0  0  0
    1.6564   -1.1448    0.0202 C   0  0  0  0  0  0  0  0  0  0  0  0
    2.5630   -0.0985    0.5551 C   0  0  0  0  0  0  0  0  0  0  0  0
    3.1335    0.5309   -0.5889 O   0  0  0  0  0  0  0  0  0  0  0  0
    4.0764    1.4955   -0.3648 C   0  0  0  0  0  0  0  0  0  0  0  0
    4.4327    2.0239    0.8789 C   0  0  0  0  0  0  0  0  0  0  0  0
    5.4172    3.0135    0.9616 C   0  0  0  0  0  0  0  0  0  0  0  0
    6.0369    3.4698   -0.1958 C   0  0  0  0  0  0  0  0  0  0  0  0
    6.9794    4.4174   -0.1107 F   0  0  0  0  0  0  0  0  0  0  0  0
    5.6901    2.9576   -1.4385 C   0  0  0  0  0  0  0  0  0  0  0  0
    4.7070    1.9706   -1.5207 C   0  0  0  0  0  0  0  0  0  0  0  0
   -5.3865    0.7575    0.5664 C   0  0  0  0  0  0  0  0  0  0  0  0
   -5.1442    2.1084    0.8555 C   0  0  0  0  0  0  0  0  0  0  0  0
   -6.1780    2.9293    1.3146 C   0  0  0  0  0  0  0  0  0  0  0  0
   -7.4533    2.3989    1.4936 C   0  0  0  0  0  0  0  0  0  0  0  0
   -8.7280    3.4060    2.0588 Cl  0  0  0  0  0  0  0  0  0  0  0  0
   -7.7021    1.0538    1.2235 C   0  0  0  0  0  0  0  0  0  0  0  0
   -6.6688    0.2302    0.7638 C   0  0  0  0  0  0  0  0  0  0  0  0
   -5.5920   -1.2357   -1.2001 H   0  0  0  0  0  0  0  0  0  0  0  0
   -4.4465   -2.2018   -0.2356 H   0  0  0  0  0  0  0  0  0  0  0  0
   -3.9038   -1.2863   -1.6699 H   0  0  0  0  0  0  0  0  0  0  0  0
   -2.1517   -1.4115   -0.4378 H   0  0  0  0  0  0  0  0  0  0  0  0
    1.9651   -4.7999   -2.0726 H   0  0  0  0  0  0  0  0  0  0  0  0
    3.3475   -5.7247   -2.4779 H   0  0  0  0  0  0  0  0  0  0  0  0
    2.0081    0.6379    1.1428 H   0  0  0  0  0  0  0  0  0  0  0  0
    3.3287   -0.5370    1.2044 H   0  0  0  0  0  0  0  0  0  0  0  0
    3.9624    1.6972    1.8005 H   0  0  0  0  0  0  0  0  0  0  0  0
    5.7014    3.4325    1.9217 H   0  0  0  0  0  0  0  0  0  0  0  0
    6.1827    3.3267   -2.3318 H   0  0  0  0  0  0  0  0  0  0  0  0
    4.4309    1.5656   -2.4912 H   0  0  0  0  0  0  0  0  0  0  0  0
   -4.1483    2.5297    0.7251 H   0  0  0  0  0  0  0  0  0  0  0  0
   -5.9776    3.9751    1.5328 H   0  0  0  0  0  0  0  0  0  0  0  0
   -8.6953    0.6390    1.3761 H   0  0  0  0  0  0  0  0  0  0  0  0
   -6.8827   -0.8203    0.5888 H   0  0  0  0  0  0  0  0  0  0  0  0
  1  2  1  0
  2  3  2  3
  3  4  1  0
  4  5  1  0
  5  6  2  0
  5  7  1  0
  7  8  1  0
  8  9  2  0
  9 10  1  0
 10 11  1  0
 11 12  2  0
 12 13  1  0
 13 14  1  0
 14 15  2  0
 15 16  1  0
 10 17  1  0
 17 18  1  0
 18 19  1  0
 19 20  1  0
 20 21  2  0
 21 22  1  0
 22 23  2  0
 23 24  1  0
 23 25  1  0
 25 26  2  0
  2 27  1  0
 27 28  2  0
 28 29  1  0
 29 30  2  0
 30 31  1  0
 30 32  1  0
 32 33  2  0
 17  7  2  0
 26 20  1  0
 33 27  1  0
 15 11  1  0
  1 34  1  0
  1 35  1  0
  1 36  1  0
  4 37  1  0
 16 38  1  0
 16 39  1  0
 18 40  1  0
 18 41  1  0
 21 42  1  0
 22 43  1  0
 25 44  1  0
 26 45  1  0
 28 46  1  0
 29 47  1  0
 32 48  1  0
 33 49  1  0
M  END
$$$$
