
     RDKit          3D

 44 46  0  0  0  0  0  0  0  0999 V2000
    2.2027    2.4755    2.7047 C   0  0  0  0  0  0  0  0  0  0  0  0
    2.1168    1.1581    1.9921 C   0  0  0  0  0  0  0  0  0  0  0  0
    0.9764    0.3578    2.1293 C   0  0  0  0  0  0  0  0  0  0  0  0
    0.8730   -0.8508    1.4380 C   0  0  0  0  0  0  0  0  0  0  0  0
    1.9029   -1.2621    0.5871 C   0  0  0  0  0  0  0  0  0  0  0  0
    1.7369   -2.5373   -0.1596 C   0  0  0  0  0  0  0  0  0  0  0  0
    1.0928   -3.4633    0.3181 O   0  0  0  0  0  0  0  0  0  0  0  0
    2.2809   -2.5654   -1.4316 N   0  0  0  0  0  0  0  0  0  0  0  0
    1.8300   -3.5948   -2.3628 C   0  0  0  0  0  0  0  0  0  0  0  0
    0.5230   -3.2228   -3.0673 C   0  0  0  0  0  0  0  0  0  0  0  0
   -0.1035   -3.9759   -3.8023 O   0  0  0  0  0  0  0  0  0  0  0  0
    0.1870   -1.9278   -2.8251 O   0  0  0  0  0  0  0  0  0  0  0  0
   -1.1140   -1.5470   -3.2837 C   0  0  0  0  0  0  0  0  0  0  0  0
   -1.4665   -0.2128   -2.7048 C   0  0  0  0  0  0  0  0  0  0  0  0
   -1.4831    0.9998   -3.3636 C   0  0  0  0  0  0  0  0  0  0  0  0
   -1.8696    2.2581   -2.2701 S   0  0  0  0  0  0  0  0  0  0  0  0
   -1.9807    1.1150   -0.9834 C   0  0  0  0  0  0  0  0  0  0  0  0
   -2.3082    1.5188    0.3971 C   0  0  0  0  0  0  0  0  0  0  0  0
   -2.1010    2.8178    0.8891 C   0  0  0  0  0  0  0  0  0  0  0  0
   -2.4146    3.1431    2.2133 C   0  0  0  0  0  0  0  0  0  0  0  0
   -2.9371    2.1752    3.0674 C   0  0  0  0  0  0  0  0  0  0  0  0
   -3.1436    0.8801    2.6016 C   0  0  0  0  0  0  0  0  0  0  0  0
   -2.8288    0.5560    1.2793 C   0  0  0  0  0  0  0  0  0  0  0  0
   -1.7775   -0.1354   -1.3540 N   0  0  0  0  0  0  0  0  0  0  0  0
    3.0470   -0.4689    0.4455 C   0  0  0  0  0  0  0  0  0  0  0  0
    3.1479    0.7394    1.1412 C   0  0  0  0  0  0  0  0  0  0  0  0
    3.2446    2.7424    2.9102 H   0  0  0  0  0  0  0  0  0  0  0  0
    1.7504    3.2615    2.0921 H   0  0  0  0  0  0  0  0  0  0  0  0
    1.6824    2.4328    3.6674 H   0  0  0  0  0  0  0  0  0  0  0  0
    0.1555    0.6726    2.7703 H   0  0  0  0  0  0  0  0  0  0  0  0
   -0.0225   -1.4594    1.5464 H   0  0  0  0  0  0  0  0  0  0  0  0
    2.4872   -1.6632   -1.8414 H   0  0  0  0  0  0  0  0  0  0  0  0
    1.6880   -4.5402   -1.8315 H   0  0  0  0  0  0  0  0  0  0  0  0
    2.6089   -3.7000   -3.1231 H   0  0  0  0  0  0  0  0  0  0  0  0
   -1.1076   -1.4971   -4.3786 H   0  0  0  0  0  0  0  0  0  0  0  0
   -1.8610   -2.2828   -2.9620 H   0  0  0  0  0  0  0  0  0  0  0  0
   -1.2771    1.2044   -4.4043 H   0  0  0  0  0  0  0  0  0  0  0  0
   -1.6806    3.5966    0.2579 H   0  0  0  0  0  0  0  0  0  0  0  0
   -2.2478    4.1542    2.5766 H   0  0  0  0  0  0  0  0  0  0  0  0
   -3.1814    2.4292    4.0957 H   0  0  0  0  0  0  0  0  0  0  0  0
   -3.5474    0.1184    3.2639 H   0  0  0  0  0  0  0  0  0  0  0  0
   -2.9905   -0.4646    0.9335 H   0  0  0  0  0  0  0  0  0  0  0  0
    3.8708   -0.7861   -0.1874 H   0  0  0  0  0  0  0  0  0  0  0  0
    4.0391    1.3513    1.0191 H   0  0  0  0  0  0  0  0  0  0  0  0
  1  2  1  0
  2  3  2  0
  3  4  1  0
  4  5  2  0
  5  6  1  0
  6  7  2  0
  6  8  1  0
  8  9  1  0
  9 10  1  0
 10 11  2  0
 10 12  1  0
 12 13  1  0
 13 14  1  0
 14 15  2  0
 15 16  1  0
 16 17  1  0
 17 18  1  0
 18 19  2  0
 19 20  1  0
 20 21  2  0
 21 22  1  0
 22 23  2  0
 17 24  2  0
  5 25  1  0
 25 26  2  0
 26  2  1  0
 24 14  1  0
 23 18  1  0
  1 27  1  0
  1 28  1  0
  1 29  1  0
  3 30  1  0
  4 31  1  0
  8 32  1  0
  9 33  1  0
  9 34  1  0
 13 35  1  0
 13 36  1  0
 15 37  1  0
 19 38  1  0
 20 39  1  0
 21 40  1  0
 22 41  1  0
 23 42  1  0
 25 43  1  0
 26 44  1  0
M  END
$$$$
