
     RDKit          3D

 64 69  0  0  0  0  0  0  0  0999 V2000
    6.1463    2.6894   -2.8148 F   0  0  0  0  0  0  0  0  0  0  0  0
    5.7604    1.5892   -2.1084 C   0  0  0  0  0  0  0  0  0  0  0  0
    5.8780    0.5379   -2.9693 F   0  0  0  0  0  0  0  0  0  0  0  0
    4.4223    1.7508   -1.8911 F   0  0  0  0  0  0  0  0  0  0  0  0
    6.5462    1.3825   -0.8287 C   0  0  0  0  0  0  0  0  0  0  0  0
    7.6660    2.1999   -0.5742 C   0  0  0  0  0  0  0  0  0  0  0  0
    8.4311    2.0348    0.5812 C   0  0  0  0  0  0  0  0  0  0  0  0
    8.0947    1.0476    1.5007 C   0  0  0  0  0  0  0  0  0  0  0  0
    6.9941    0.2234    1.2656 C   0  0  0  0  0  0  0  0  0  0  0  0
    6.2092    0.3756    0.1072 C   0  0  0  0  0  0  0  0  0  0  0  0
    5.0080   -0.5352   -0.0692 C   0  0  0  0  0  0  0  0  0  0  0  0
    3.7809   -0.0018    0.6955 C   0  0  0  0  0  0  0  0  0  0  0  0
    2.6093   -0.8830    0.5647 N   0  0  0  0  0  0  0  0  0  0  0  0
    1.6285   -0.5886    1.6391 C   0  0  0  0  0  0  0  0  0  0  0  0
    0.2112   -1.0995    1.3220 C   0  0  0  0  0  0  0  0  0  0  0  0
   -0.3491   -0.4219    0.1318 N   0  0  0  0  0  0  0  0  0  0  0  0
   -1.4891   -1.0062   -0.4011 C   0  0  0  0  0  0  0  0  0  0  0  0
   -1.3804   -2.0124   -1.2311 N   0  0  0  0  0  0  0  0  0  0  0  0
   -2.5410   -2.6058   -1.7711 C   0  0  0  0  0  0  0  0  0  0  0  0
   -2.3862   -3.6664   -2.6656 C   0  0  0  0  0  0  0  0  0  0  0  0
   -3.5002   -4.2772   -3.2451 C   0  0  0  0  0  0  0  0  0  0  0  0
   -4.7863   -3.8347   -2.9304 C   0  0  0  0  0  0  0  0  0  0  0  0
   -4.9663   -2.7819   -2.0328 C   0  0  0  0  0  0  0  0  0  0  0  0
   -3.8433   -2.1782   -1.4624 C   0  0  0  0  0  0  0  0  0  0  0  0
   -3.9332   -1.0977   -0.5674 N   0  0  0  0  0  0  0  0  0  0  0  0
   -5.0407   -0.4416   -0.0816 C   0  0  0  0  0  0  0  0  0  0  0  0
   -4.6171    0.6006    0.7307 C   0  0  0  0  0  0  0  0  0  0  0  0
   -5.5112    1.5494    1.3836 C   0  0  0  0  0  0  0  0  0  0  0  0
   -6.7969    1.1752    1.7988 C   0  0  0  0  0  0  0  0  0  0  0  0
   -7.6424    2.0990    2.4206 C   0  0  0  0  0  0  0  0  0  0  0  0
   -7.2101    3.4055    2.6383 C   0  0  0  0  0  0  0  0  0  0  0  0
   -5.9323    3.7899    2.2359 C   0  0  0  0  0  0  0  0  0  0  0  0
   -5.0879    2.8673    1.6123 C   0  0  0  0  0  0  0  0  0  0  0  0
   -3.1945    0.5457    0.7452 C   0  0  0  0  0  0  0  0  0  0  0  0
   -2.8026   -0.5141   -0.0520 C   0  0  0  0  0  0  0  0  0  0  0  0
    0.6754    0.0465   -0.8253 C   0  0  0  0  0  0  0  0  0  0  0  0
    1.9647   -0.8010   -0.7735 C   0  0  0  0  0  0  0  0  0  0  0  0
    7.9511    2.9766   -1.2849 H   0  0  0  0  0  0  0  0  0  0  0  0
    9.2910    2.6766    0.7593 H   0  0  0  0  0  0  0  0  0  0  0  0
    8.6899    0.9172    2.4017 H   0  0  0  0  0  0  0  0  0  0  0  0
    6.7495   -0.5469    1.9963 H   0  0  0  0  0  0  0  0  0  0  0  0
    4.7930   -0.6682   -1.1352 H   0  0  0  0  0  0  0  0  0  0  0  0
    5.2657   -1.5388    0.2965 H   0  0  0  0  0  0  0  0  0  0  0  0
    3.5336    1.0206    0.3775 H   0  0  0  0  0  0  0  0  0  0  0  0
    4.0591    0.0633    1.7582 H   0  0  0  0  0  0  0  0  0  0  0  0
    1.9791   -1.0531    2.5709 H   0  0  0  0  0  0  0  0  0  0  0  0
    1.5662    0.4961    1.8163 H   0  0  0  0  0  0  0  0  0  0  0  0
   -0.4428   -0.9067    2.1820 H   0  0  0  0  0  0  0  0  0  0  0  0
    0.2385   -2.1870    1.1674 H   0  0  0  0  0  0  0  0  0  0  0  0
   -1.3850   -4.0096   -2.9148 H   0  0  0  0  0  0  0  0  0  0  0  0
   -3.3614   -5.0968   -3.9437 H   0  0  0  0  0  0  0  0  0  0  0  0
   -5.6491   -4.3097   -3.3893 H   0  0  0  0  0  0  0  0  0  0  0  0
   -5.9740   -2.4515   -1.8064 H   0  0  0  0  0  0  0  0  0  0  0  0
   -6.0388   -0.7449   -0.3674 H   0  0  0  0  0  0  0  0  0  0  0  0
   -7.1530    0.1587    1.6552 H   0  0  0  0  0  0  0  0  0  0  0  0
   -8.6373    1.7951    2.7348 H   0  0  0  0  0  0  0  0  0  0  0  0
   -7.8656    4.1249    3.1225 H   0  0  0  0  0  0  0  0  0  0  0  0
   -5.5930    4.8102    2.4037 H   0  0  0  0  0  0  0  0  0  0  0  0
   -4.1000    3.1957    1.2958 H   0  0  0  0  0  0  0  0  0  0  0  0
   -2.5175    1.2081    1.2731 H   0  0  0  0  0  0  0  0  0  0  0  0
    0.9179    1.0875   -0.5799 H   0  0  0  0  0  0  0  0  0  0  0  0
    0.2827    0.0591   -1.8492 H   0  0  0  0  0  0  0  0  0  0  0  0
    1.7283   -1.8297   -1.0849 H   0  0  0  0  0  0  0  0  0  0  0  0
    2.6565   -0.4100   -1.5335 H   0  0  0  0  0  0  0  0  0  0  0  0
  1  2  1  0
  2  3  1  0
  2  4  1  0
  2  5  1  0
  5  6  2  0
  6  7  1  0
  7  8  2  0
  8  9  1  0
  9 10  2  0
 10 11  1  0
 11 12  1  0
 12 13  1  0
 13 14  1  0
 14 15  1  0
 15 16  1  0
 16 17  1  0
 17 18  2  0
 18 19  1  0
 19 20  2  0
 20 21  1  0
 21 22  2  0
 22 23  1  0
 23 24  2  0
 24 25  1  0
 25 26  1  0
 26 27  2  0
 27 28  1  0
 28 29  2  0
 29 30  1  0
 30 31  2  0
 31 32  1  0
 32 33  2  0
 27 34  1  0
 34 35  2  0
 16 36  1  0
 36 37  1  0
 10  5  1  0
 37 13  1  0
 35 17  1  0
 24 19  1  0
 35 25  1  0
 33 28  1  0
  6 38  1  0
  7 39  1  0
  8 40  1  0
  9 41  1  0
 11 42  1  0
 11 43  1  0
 12 44  1  0
 12 45  1  0
 14 46  1  0
 14 47  1  0
 15 48  1  0
 15 49  1  0
 20 50  1  0
 21 51  1  0
 22 52  1  0
 23 53  1  0
 26 54  1  0
 29 55  1  0
 30 56  1  0
 31 57  1  0
 32 58  1  0
 33 59  1  0
 34 60  1  0
 36 61  1  0
 36 62  1  0
 37 63  1  0
 37 64  1  0
M  END
$$$$
