
     RDKit          3D

 32 33  0  0  0  0  0  0  0  0999 V2000
    4.1390   -1.2338   -1.4716 C   0  0  0  0  0  0  0  0  0  0  0  0
    4.3704   -0.3313   -0.2717 C   0  0  0  0  0  0  0  0  0  0  0  0
    3.0443   -0.4948    0.9601 S   0  0  0  0  0  0  0  0  0  0  0  0
    1.7061    0.3101    0.2034 C   0  0  0  0  0  0  0  0  0  0  0  0
    1.6448    1.3635   -0.6771 C   0  0  0  0  0  0  0  0  0  0  0  0
    0.3493    1.6480   -1.0112 N   0  0  0  0  0  0  0  0  0  0  0  0
   -0.3997    0.8077   -0.3210 C   0  0  0  0  0  0  0  0  0  0  0  0
   -1.8580    0.7578   -0.3856 C   0  0  0  0  0  0  0  0  0  0  0  0
   -2.6411    1.2216    0.6781 C   0  0  0  0  0  0  0  0  0  0  0  0
   -4.0344    1.1596    0.6067 C   0  0  0  0  0  0  0  0  0  0  0  0
   -4.6522    0.6431   -0.5317 C   0  0  0  0  0  0  0  0  0  0  0  0
   -3.8797    0.1970   -1.6032 C   0  0  0  0  0  0  0  0  0  0  0  0
   -2.4867    0.2588   -1.5325 C   0  0  0  0  0  0  0  0  0  0  0  0
    0.3945   -0.0368    0.4401 N   0  0  0  0  0  0  0  0  0  0  0  0
   -0.0864   -1.1357    1.2610 C   0  0  0  0  0  0  0  0  0  0  0  0
   -0.1940   -0.7755    2.7337 C   0  0  0  0  0  0  0  0  0  0  0  0
    3.2301   -0.9639   -2.0184 H   0  0  0  0  0  0  0  0  0  0  0  0
    4.9791   -1.1458   -2.1686 H   0  0  0  0  0  0  0  0  0  0  0  0
    4.0662   -2.2854   -1.1739 H   0  0  0  0  0  0  0  0  0  0  0  0
    5.3078   -0.6188    0.2158 H   0  0  0  0  0  0  0  0  0  0  0  0
    4.4795    0.7119   -0.5830 H   0  0  0  0  0  0  0  0  0  0  0  0
    2.4608    1.9347   -1.0979 H   0  0  0  0  0  0  0  0  0  0  0  0
   -2.1704    1.6504    1.5593 H   0  0  0  0  0  0  0  0  0  0  0  0
   -4.6373    1.5250    1.4341 H   0  0  0  0  0  0  0  0  0  0  0  0
   -5.7370    0.6012   -0.5898 H   0  0  0  0  0  0  0  0  0  0  0  0
   -4.3605   -0.1906   -2.4976 H   0  0  0  0  0  0  0  0  0  0  0  0
   -1.8890   -0.0765   -2.3775 H   0  0  0  0  0  0  0  0  0  0  0  0
    0.5866   -1.9878    1.1191 H   0  0  0  0  0  0  0  0  0  0  0  0
   -1.0617   -1.4548    0.8797 H   0  0  0  0  0  0  0  0  0  0  0  0
   -0.8764    0.0647    2.8915 H   0  0  0  0  0  0  0  0  0  0  0  0
    0.7772   -0.4935    3.1517 H   0  0  0  0  0  0  0  0  0  0  0  0
   -0.5713   -1.6302    3.3039 H   0  0  0  0  0  0  0  0  0  0  0  0
  1  2  1  0
  2  3  1  0
  3  4  1  0
  4  5  2  0
  5  6  1  0
  6  7  2  0
  7  8  1  0
  8  9  2  0
  9 10  1  0
 10 11  2  0
 11 12  1  0
 12 13  2  0
  7 14  1  0
 14 15  1  0
 15 16  1  0
 14  4  1  0
 13  8  1  0
  1 17  1  0
  1 18  1  0
  1 19  1  0
  2 20  1  0
  2 21  1  0
  5 22  1  0
  9 23  1  0
 10 24  1  0
 11 25  1  0
 12 26  1  0
 13 27  1  0
 15 28  1  0
 15 29  1  0
 16 30  1  0
 16 31  1  0
 16 32  1  0
M  END
$$$$
