
     RDKit          3D

 51 53  0  0  0  0  0  0  0  0999 V2000
    5.2122   -3.2570    0.6997 C   0  0  0  0  0  0  0  0  0  0  0  0
    4.8089   -1.9841    1.1899 O   0  0  0  0  0  0  0  0  0  0  0  0
    3.4813   -1.6658    1.0894 C   0  0  0  0  0  0  0  0  0  0  0  0
    2.4656   -2.5864    0.8121 C   0  0  0  0  0  0  0  0  0  0  0  0
    1.1326   -2.1719    0.7467 C   0  0  0  0  0  0  0  0  0  0  0  0
    0.8067   -0.8339    0.9674 C   0  0  0  0  0  0  0  0  0  0  0  0
   -0.5950   -0.3757    0.9001 C   0  0  0  0  0  0  0  0  0  0  0  0
   -1.5612   -1.1930    0.6330 N   0  0  0  0  0  0  0  0  0  0  0  0
   -2.8032   -0.6353    0.5969 N   0  0  0  0  0  0  0  0  0  0  0  0
   -3.9154   -1.4092    0.3162 C   0  0  0  0  0  0  0  0  0  0  0  0
   -3.8753   -2.6188    0.0970 O   0  0  0  0  0  0  0  0  0  0  0  0
   -5.2419   -0.6999    0.2944 C   0  0  0  0  0  0  0  0  0  0  0  0
   -6.3768   -1.5183    0.1305 C   0  0  0  0  0  0  0  0  0  0  0  0
   -7.6596   -0.9742    0.0970 C   0  0  0  0  0  0  0  0  0  0  0  0
   -7.8269    0.3980    0.2287 C   0  0  0  0  0  0  0  0  0  0  0  0
   -6.7142    1.2278    0.3893 C   0  0  0  0  0  0  0  0  0  0  0  0
   -5.4146    0.6965    0.4178 C   0  0  0  0  0  0  0  0  0  0  0  0
   -4.2923    1.4742    0.5744 O   0  0  0  0  0  0  0  0  0  0  0  0
   -4.4500    2.8877    0.4845 C   0  0  0  0  0  0  0  0  0  0  0  0
    1.8104    0.0934    1.2531 C   0  0  0  0  0  0  0  0  0  0  0  0
    3.1563   -0.3130    1.3104 C   0  0  0  0  0  0  0  0  0  0  0  0
    4.2338    0.7145    1.5977 C   0  0  0  0  0  0  0  0  0  0  0  0
    5.1848    0.8753    0.5356 O   0  0  0  0  0  0  0  0  0  0  0  0
    4.7123    1.2555   -0.6899 C   0  0  0  0  0  0  0  0  0  0  0  0
    5.3477    0.6851   -1.7981 C   0  0  0  0  0  0  0  0  0  0  0  0
    6.3447   -0.1953   -1.6200 F   0  0  0  0  0  0  0  0  0  0  0  0
    4.9523    1.0067   -3.0925 C   0  0  0  0  0  0  0  0  0  0  0  0
    5.5665    0.4423   -4.1416 F   0  0  0  0  0  0  0  0  0  0  0  0
    3.9241    1.9139   -3.2967 C   0  0  0  0  0  0  0  0  0  0  0  0
    3.5408    2.2275   -4.5420 F   0  0  0  0  0  0  0  0  0  0  0  0
    3.2988    2.5043   -2.2081 C   0  0  0  0  0  0  0  0  0  0  0  0
    2.3138    3.3928   -2.4022 F   0  0  0  0  0  0  0  0  0  0  0  0
    3.6946    2.1847   -0.9115 C   0  0  0  0  0  0  0  0  0  0  0  0
    3.0900    2.8063    0.1113 F   0  0  0  0  0  0  0  0  0  0  0  0
    4.8988   -3.4024   -0.3396 H   0  0  0  0  0  0  0  0  0  0  0  0
    6.3056   -3.2934    0.7258 H   0  0  0  0  0  0  0  0  0  0  0  0
    4.8372   -4.0595    1.3429 H   0  0  0  0  0  0  0  0  0  0  0  0
    2.6745   -3.6394    0.6509 H   0  0  0  0  0  0  0  0  0  0  0  0
    0.3527   -2.9002    0.5288 H   0  0  0  0  0  0  0  0  0  0  0  0
   -0.7771    0.6983    1.0864 H   0  0  0  0  0  0  0  0  0  0  0  0
   -2.9201    0.3615    0.7553 H   0  0  0  0  0  0  0  0  0  0  0  0
   -6.2622   -2.5969    0.0283 H   0  0  0  0  0  0  0  0  0  0  0  0
   -8.5219   -1.6240   -0.0294 H   0  0  0  0  0  0  0  0  0  0  0  0
   -8.8263    0.8266    0.2076 H   0  0  0  0  0  0  0  0  0  0  0  0
   -6.9023    2.2917    0.4952 H   0  0  0  0  0  0  0  0  0  0  0  0
   -3.4520    3.3351    0.5204 H   0  0  0  0  0  0  0  0  0  0  0  0
   -4.9101    3.1776   -0.4661 H   0  0  0  0  0  0  0  0  0  0  0  0
   -5.0170    3.2729    1.3380 H   0  0  0  0  0  0  0  0  0  0  0  0
    1.5533    1.1361    1.4269 H   0  0  0  0  0  0  0  0  0  0  0  0
    3.8187    1.6851    1.8903 H   0  0  0  0  0  0  0  0  0  0  0  0
    4.7965    0.3762    2.4769 H   0  0  0  0  0  0  0  0  0  0  0  0
  1  2  1  0
  2  3  1  0
  3  4  2  0
  4  5  1  0
  5  6  2  0
  6  7  1  0
  7  8  2  3
  8  9  1  0
  9 10  1  0
 10 11  2  0
 10 12  1  0
 12 13  2  0
 13 14  1  0
 14 15  2  0
 15 16  1  0
 16 17  2  0
 17 18  1  0
 18 19  1  0
  6 20  1  0
 20 21  2  0
 21 22  1  0
 22 23  1  0
 23 24  1  0
 24 25  2  0
 25 26  1  0
 25 27  1  0
 27 28  1  0
 27 29  2  0
 29 30  1  0
 29 31  1  0
 31 32  1  0
 31 33  2  0
 33 34  1  0
 21  3  1  0
 33 24  1  0
 17 12  1  0
  1 35  1  0
  1 36  1  0
  1 37  1  0
  4 38  1  0
  5 39  1  0
  7 40  1  0
  9 41  1  0
 13 42  1  0
 14 43  1  0
 15 44  1  0
 16 45  1  0
 19 46  1  0
 19 47  1  0
 19 48  1  0
 20 49  1  0
 22 50  1  0
 22 51  1  0
M  END
$$$$
