
     RDKit          3D

 42 44  0  0  0  0  0  0  0  0999 V2000
   -4.2698   -0.7878    3.6971 C   0  0  0  0  0  0  0  0  0  0  0  0
   -4.2433   -0.0091    2.5084 O   0  0  0  0  0  0  0  0  0  0  0  0
   -3.8949   -0.6499    1.3446 C   0  0  0  0  0  0  0  0  0  0  0  0
   -3.7402   -2.0355    1.2197 C   0  0  0  0  0  0  0  0  0  0  0  0
   -3.3982   -2.6026   -0.0111 C   0  0  0  0  0  0  0  0  0  0  0  0
   -3.2159   -1.7935   -1.1286 C   0  0  0  0  0  0  0  0  0  0  0  0
   -3.3722   -0.4126   -1.0182 C   0  0  0  0  0  0  0  0  0  0  0  0
   -3.6993    0.1710    0.2155 C   0  0  0  0  0  0  0  0  0  0  0  0
   -3.8765    1.6292    0.3067 C   0  0  0  0  0  0  0  0  0  0  0  0
   -2.9519    2.5728    0.0728 C   0  0  0  0  0  0  0  0  0  0  0  0
   -1.5559    2.3095   -0.2940 C   0  0  0  0  0  0  0  0  0  0  0  0
   -0.7794    1.3260    0.0009 N   0  0  0  0  0  0  0  0  0  0  0  0
    0.3889    1.6622   -0.6285 C   0  0  0  0  0  0  0  0  0  0  0  0
    1.5263    0.9569   -0.6613 C   0  0  0  0  0  0  0  0  0  0  0  0
    1.6969   -0.3272   -0.0104 C   0  0  0  0  0  0  0  0  0  0  0  0
    2.8147   -1.0709    0.0041 C   0  0  0  0  0  0  0  0  0  0  0  0
    4.0909   -0.7166   -0.6208 C   0  0  0  0  0  0  0  0  0  0  0  0
    4.9186    0.2581   -0.0523 C   0  0  0  0  0  0  0  0  0  0  0  0
    6.1333    0.5877   -0.6563 C   0  0  0  0  0  0  0  0  0  0  0  0
    6.5270   -0.0566   -1.8285 C   0  0  0  0  0  0  0  0  0  0  0  0
    5.7078   -1.0311   -2.3975 C   0  0  0  0  0  0  0  0  0  0  0  0
    4.4925   -1.3619   -1.7947 C   0  0  0  0  0  0  0  0  0  0  0  0
    0.2448    2.9690   -1.3204 C   0  0  0  0  0  0  0  0  0  0  0  0
    1.0545    3.5966   -1.9721 O   0  0  0  0  0  0  0  0  0  0  0  0
   -1.0442    3.3138   -1.0492 O   0  0  0  0  0  0  0  0  0  0  0  0
   -4.4769   -0.1131    4.5334 H   0  0  0  0  0  0  0  0  0  0  0  0
   -5.0745   -1.5293    3.6624 H   0  0  0  0  0  0  0  0  0  0  0  0
   -3.3005   -1.2617    3.8848 H   0  0  0  0  0  0  0  0  0  0  0  0
   -3.8835   -2.7051    2.0608 H   0  0  0  0  0  0  0  0  0  0  0  0
   -3.2777   -3.6797   -0.0967 H   0  0  0  0  0  0  0  0  0  0  0  0
   -2.9524   -2.2357   -2.0857 H   0  0  0  0  0  0  0  0  0  0  0  0
   -3.2329    0.2056   -1.9014 H   0  0  0  0  0  0  0  0  0  0  0  0
   -4.8715    1.9346    0.6246 H   0  0  0  0  0  0  0  0  0  0  0  0
   -3.2201    3.6192    0.1749 H   0  0  0  0  0  0  0  0  0  0  0  0
    2.3733    1.3587   -1.2142 H   0  0  0  0  0  0  0  0  0  0  0  0
    0.8194   -0.7222    0.5035 H   0  0  0  0  0  0  0  0  0  0  0  0
    2.8064   -2.0329    0.5117 H   0  0  0  0  0  0  0  0  0  0  0  0
    4.6204    0.7663    0.8617 H   0  0  0  0  0  0  0  0  0  0  0  0
    6.7709    1.3479   -0.2127 H   0  0  0  0  0  0  0  0  0  0  0  0
    7.4719    0.2019   -2.2994 H   0  0  0  0  0  0  0  0  0  0  0  0
    6.0138   -1.5320   -3.3121 H   0  0  0  0  0  0  0  0  0  0  0  0
    3.8594   -2.1198   -2.2496 H   0  0  0  0  0  0  0  0  0  0  0  0
  1  2  1  0
  2  3  1  0
  3  4  2  0
  4  5  1  0
  5  6  2  0
  6  7  1  0
  7  8  2  0
  8  9  1  0
  9 10  2  3
 10 11  1  0
 11 12  2  0
 12 13  1  0
 13 14  2  3
 14 15  1  0
 15 16  2  3
 16 17  1  0
 17 18  2  0
 18 19  1  0
 19 20  2  0
 20 21  1  0
 21 22  2  0
 13 23  1  0
 23 24  2  0
 23 25  1  0
  8  3  1  0
 25 11  1  0
 22 17  1  0
  1 26  1  0
  1 27  1  0
  1 28  1  0
  4 29  1  0
  5 30  1  0
  6 31  1  0
  7 32  1  0
  9 33  1  0
 10 34  1  0
 14 35  1  0
 15 36  1  0
 16 37  1  0
 18 38  1  0
 19 39  1  0
 20 40  1  0
 21 41  1  0
 22 42  1  0
M  END
$$$$
