
     RDKit          3D

 53 58  0  0  0  0  0  0  0  0999 V2000
    1.3595   -0.4655   -1.1641 C   0  0  0  0  0  0  0  0  0  0  0  0
    0.5870   -0.3891    0.1639 C   0  0  0  0  0  0  0  0  0  0  0  0
    1.3988   -0.9791    1.3526 C   0  0  0  0  0  0  0  0  0  0  0  0
    1.0082   -1.8964    2.0739 O   0  0  0  0  0  0  0  0  0  0  0  0
    2.6471   -0.4868    1.6206 N   0  0  0  0  0  0  0  0  0  0  0  0
    3.2472    0.7020    1.1902 C   0  0  0  0  0  0  0  0  0  0  0  0
    4.6493    0.7346    1.2360 C   0  0  0  0  0  0  0  0  0  0  0  0
    5.3390    1.8676    0.8145 C   0  0  0  0  0  0  0  0  0  0  0  0
    6.6781    1.8670    0.8428 F   0  0  0  0  0  0  0  0  0  0  0  0
    4.6488    2.9843    0.3701 C   0  0  0  0  0  0  0  0  0  0  0  0
    5.3147    4.0756   -0.0286 F   0  0  0  0  0  0  0  0  0  0  0  0
    3.2607    2.9869    0.3575 C   0  0  0  0  0  0  0  0  0  0  0  0
    2.5485    1.8453    0.7697 C   0  0  0  0  0  0  0  0  0  0  0  0
    1.0853    2.0112    0.9032 C   0  0  0  0  0  0  0  0  0  0  0  0
    0.6939    3.0873    1.3528 O   0  0  0  0  0  0  0  0  0  0  0  0
    0.2214    0.9918    0.5596 N   0  0  0  0  0  0  0  0  0  0  0  0
   -1.2247    1.1267    0.8101 C   0  0  0  0  0  0  0  0  0  0  0  0
   -1.9860    1.8041   -0.3213 C   0  0  0  0  0  0  0  0  0  0  0  0
   -1.6141    3.0681   -0.8115 C   0  0  0  0  0  0  0  0  0  0  0  0
   -2.3146    3.6684   -1.8608 C   0  0  0  0  0  0  0  0  0  0  0  0
   -1.8191    5.2081   -2.4489 Cl  0  0  0  0  0  0  0  0  0  0  0  0
   -3.4063    3.0306   -2.4375 C   0  0  0  0  0  0  0  0  0  0  0  0
   -3.8058    1.7897   -1.9492 C   0  0  0  0  0  0  0  0  0  0  0  0
   -3.1146    1.1939   -0.8901 C   0  0  0  0  0  0  0  0  0  0  0  0
   -3.5949   -0.0269   -0.5022 O   0  0  0  0  0  0  0  0  0  0  0  0
   -3.1851   -0.4309    0.8012 C   0  0  0  0  0  0  0  0  0  0  0  0
   -1.6861   -0.3239    1.0067 C   0  0  0  0  0  0  0  0  0  0  0  0
   -0.8165   -1.0745   -0.0308 C   0  0  0  0  0  0  0  0  0  0  0  0
   -0.9085   -2.5889   -0.0820 C   0  0  0  0  0  0  0  0  0  0  0  0
   -1.2446   -3.3757    1.0284 C   0  0  0  0  0  0  0  0  0  0  0  0
   -1.3377   -4.7666    0.9249 C   0  0  0  0  0  0  0  0  0  0  0  0
   -1.1052   -5.3959   -0.2940 C   0  0  0  0  0  0  0  0  0  0  0  0
   -0.7796   -4.6343   -1.4112 C   0  0  0  0  0  0  0  0  0  0  0  0
   -0.6842   -3.2447   -1.3059 C   0  0  0  0  0  0  0  0  0  0  0  0
    1.6532   -1.4970   -1.3849 H   0  0  0  0  0  0  0  0  0  0  0  0
    2.2773    0.1234   -1.1829 H   0  0  0  0  0  0  0  0  0  0  0  0
    0.7497   -0.0956   -1.9965 H   0  0  0  0  0  0  0  0  0  0  0  0
    3.1733   -1.0917    2.2433 H   0  0  0  0  0  0  0  0  0  0  0  0
    5.2263   -0.1224    1.5730 H   0  0  0  0  0  0  0  0  0  0  0  0
    2.7376    3.8914    0.0550 H   0  0  0  0  0  0  0  0  0  0  0  0
   -1.3938    1.7052    1.7270 H   0  0  0  0  0  0  0  0  0  0  0  0
   -0.7763    3.6056   -0.3794 H   0  0  0  0  0  0  0  0  0  0  0  0
   -3.9508    3.4923   -3.2560 H   0  0  0  0  0  0  0  0  0  0  0  0
   -4.6631    1.2847   -2.3875 H   0  0  0  0  0  0  0  0  0  0  0  0
   -3.7258    0.1698    1.5442 H   0  0  0  0  0  0  0  0  0  0  0  0
   -3.5170   -1.4653    0.9360 H   0  0  0  0  0  0  0  0  0  0  0  0
   -1.4329   -0.6485    2.0238 H   0  0  0  0  0  0  0  0  0  0  0  0
   -1.1841   -0.7599   -1.0197 H   0  0  0  0  0  0  0  0  0  0  0  0
   -1.4163   -2.9261    2.0032 H   0  0  0  0  0  0  0  0  0  0  0  0
   -1.5868   -5.3574    1.8026 H   0  0  0  0  0  0  0  0  0  0  0  0
   -1.1789   -6.4771   -0.3721 H   0  0  0  0  0  0  0  0  0  0  0  0
   -0.6048   -5.1201   -2.3675 H   0  0  0  0  0  0  0  0  0  0  0  0
   -0.4466   -2.6752   -2.2023 H   0  0  0  0  0  0  0  0  0  0  0  0
  1  2  1  0
  2  3  1  0
  3  4  2  0
  3  5  1  0
  5  6  1  0
  6  7  2  0
  7  8  1  0
  8  9  1  0
  8 10  2  0
 10 11  1  0
 10 12  1  0
 12 13  2  0
 13 14  1  0
 14 15  2  0
 14 16  1  0
 16 17  1  0
 17 18  1  0
 18 19  2  0
 19 20  1  0
 20 21  1  0
 20 22  2  0
 22 23  1  0
 23 24  2  0
 24 25  1  0
 25 26  1  0
 26 27  1  0
 27 28  1  0
 28 29  1  0
 29 30  2  0
 30 31  1  0
 31 32  2  0
 32 33  1  0
 33 34  2  0
 16  2  1  0
 27 17  1  0
 34 29  1  0
 28  2  1  0
 13  6  1  0
 24 18  1  0
  1 35  1  0
  1 36  1  0
  1 37  1  0
  5 38  1  0
  7 39  1  0
 12 40  1  0
 17 41  1  0
 19 42  1  0
 22 43  1  0
 23 44  1  0
 26 45  1  0
 26 46  1  0
 27 47  1  0
 28 48  1  0
 30 49  1  0
 31 50  1  0
 32 51  1  0
 33 52  1  0
 34 53  1  0
M  END
$$$$
