
     RDKit          3D

 38 39  0  0  0  0  0  0  0  0999 V2000
    1.0178   -0.5524   -2.1841 O   0  0  0  0  0  0  0  0  0  0  0  0
    0.8444    0.4340   -1.4748 C   0  0  0  0  0  0  0  0  0  0  0  0
   -0.0857    1.5758   -1.8877 C   0  0  0  0  0  0  0  0  0  0  0  0
   -1.4282    1.3872   -1.4303 O   0  0  0  0  0  0  0  0  0  0  0  0
   -1.6253    1.6699   -0.1176 C   0  0  0  0  0  0  0  0  0  0  0  0
   -0.7542    2.0396    0.6563 O   0  0  0  0  0  0  0  0  0  0  0  0
   -3.0510    1.4777    0.2656 C   0  0  0  0  0  0  0  0  0  0  0  0
   -3.4162    1.8842    1.5611 C   0  0  0  0  0  0  0  0  0  0  0  0
   -4.7329    1.7428    2.0070 C   0  0  0  0  0  0  0  0  0  0  0  0
   -5.6882    1.1925    1.1604 C   0  0  0  0  0  0  0  0  0  0  0  0
   -6.9614    1.0740    1.6327 O   0  0  0  0  0  0  0  0  0  0  0  0
   -5.3505    0.7781   -0.1219 C   0  0  0  0  0  0  0  0  0  0  0  0
   -4.0340    0.9209   -0.5686 C   0  0  0  0  0  0  0  0  0  0  0  0
   -3.8092    0.4800   -1.8454 O   0  0  0  0  0  0  0  0  0  0  0  0
    1.4558    0.6144   -0.2520 N   0  0  0  0  0  0  0  0  0  0  0  0
    2.2498   -0.4347    0.3644 C   0  0  0  0  0  0  0  0  0  0  0  0
    3.5532   -0.7473   -0.3818 C   0  0  0  0  0  0  0  0  0  0  0  0
    4.4252   -1.6202    0.3873 N   0  0  0  0  0  0  0  0  0  0  0  0
    4.3112   -2.9879    0.3988 C   0  0  0  0  0  0  0  0  0  0  0  0
    3.3493   -3.5741   -0.3658 O   0  0  0  0  0  0  0  0  0  0  0  0
    5.1827   -3.6127    1.1985 C   0  0  0  0  0  0  0  0  0  0  0  0
    6.2127   -2.4754    2.0156 S   0  0  0  0  0  0  0  0  0  0  0  0
    5.3948   -1.1079    1.2326 C   0  0  0  0  0  0  0  0  0  0  0  0
    5.6732    0.0603    1.4475 O   0  0  0  0  0  0  0  0  0  0  0  0
    0.3143    2.5428   -1.5574 H   0  0  0  0  0  0  0  0  0  0  0  0
   -0.1102    1.6105   -2.9822 H   0  0  0  0  0  0  0  0  0  0  0  0
   -2.6776    2.3192    2.2321 H   0  0  0  0  0  0  0  0  0  0  0  0
   -5.0119    2.0580    3.0102 H   0  0  0  0  0  0  0  0  0  0  0  0
   -7.5117    0.6527    0.9521 H   0  0  0  0  0  0  0  0  0  0  0  0
   -6.0913    0.3473   -0.7889 H   0  0  0  0  0  0  0  0  0  0  0  0
   -2.8733    0.6370   -2.0779 H   0  0  0  0  0  0  0  0  0  0  0  0
    0.9977    1.2751    0.3776 H   0  0  0  0  0  0  0  0  0  0  0  0
    1.6273   -1.3342    0.4420 H   0  0  0  0  0  0  0  0  0  0  0  0
    2.4732   -0.0972    1.3829 H   0  0  0  0  0  0  0  0  0  0  0  0
    4.0885    0.1907   -0.5770 H   0  0  0  0  0  0  0  0  0  0  0  0
    3.3600   -1.2034   -1.3590 H   0  0  0  0  0  0  0  0  0  0  0  0
    3.4234   -4.5386   -0.2743 H   0  0  0  0  0  0  0  0  0  0  0  0
    5.2587   -4.6788    1.3539 H   0  0  0  0  0  0  0  0  0  0  0  0
  1  2  2  0
  2  3  1  0
  3  4  1  0
  4  5  1  0
  5  6  2  0
  5  7  1  0
  7  8  2  0
  8  9  1  0
  9 10  2  0
 10 11  1  0
 10 12  1  0
 12 13  2  0
 13 14  1  0
  2 15  1  0
 15 16  1  0
 16 17  1  0
 17 18  1  0
 18 19  1  0
 19 20  1  0
 19 21  2  0
 21 22  1  0
 22 23  1  0
 23 24  2  0
 13  7  1  0
 23 18  1  0
  3 25  1  0
  3 26  1  0
  8 27  1  0
  9 28  1  0
 11 29  1  0
 12 30  1  0
 14 31  1  0
 15 32  1  0
 16 33  1  0
 16 34  1  0
 17 35  1  0
 17 36  1  0
 20 37  1  0
 21 38  1  0
M  END
$$$$
