
     RDKit          3D

 47 49  0  0  0  0  0  0  0  0999 V2000
   -2.6966    0.9429    0.4432 O   0  0  0  0  0  0  0  0  0  0  0  0
   -2.9207   -0.2231    0.1361 C   0  0  0  0  0  0  0  0  0  0  0  0
   -4.3439   -0.7729   -0.0420 C   0  0  0  0  0  0  0  0  0  0  0  0
   -5.3226    0.2304    0.1795 O   0  0  0  0  0  0  0  0  0  0  0  0
   -6.6341   -0.1297    0.0503 C   0  0  0  0  0  0  0  0  0  0  0  0
   -7.5446    0.9068    0.2779 C   0  0  0  0  0  0  0  0  0  0  0  0
   -8.9197    0.6836    0.1804 C   0  0  0  0  0  0  0  0  0  0  0  0
   -9.3859   -0.5860   -0.1470 C   0  0  0  0  0  0  0  0  0  0  0  0
  -11.2446   -0.9000   -0.2819 Br  0  0  0  0  0  0  0  0  0  0  0  0
   -8.4892   -1.6281   -0.3760 C   0  0  0  0  0  0  0  0  0  0  0  0
   -7.1117   -1.4000   -0.2773 C   0  0  0  0  0  0  0  0  0  0  0  0
   -1.9608   -1.2044   -0.0943 N   0  0  0  0  0  0  0  0  0  0  0  0
   -0.5587   -1.0687   -0.0188 C   0  0  0  0  0  0  0  0  0  0  0  0
    0.0974    0.1137    0.3282 C   0  0  0  0  0  0  0  0  0  0  0  0
    1.4976    0.1671    0.3820 C   0  0  0  0  0  0  0  0  0  0  0  0
    2.2602   -0.9656    0.0779 C   0  0  0  0  0  0  0  0  0  0  0  0
    3.7539   -0.9681    0.1255 C   0  0  0  0  0  0  0  0  0  0  0  0
    4.3210   -2.0272    0.3692 O   0  0  0  0  0  0  0  0  0  0  0  0
    4.3571    0.2434   -0.1497 N   0  0  0  0  0  0  0  0  0  0  0  0
    5.7409    0.5620   -0.1468 C   0  0  0  0  0  0  0  0  0  0  0  0
    6.7190   -0.3702    0.2220 C   0  0  0  0  0  0  0  0  0  0  0  0
    8.0764   -0.0327    0.2180 C   0  0  0  0  0  0  0  0  0  0  0  0
    8.4813    1.2444   -0.1522 C   0  0  0  0  0  0  0  0  0  0  0  0
    7.5270    2.1913   -0.5179 C   0  0  0  0  0  0  0  0  0  0  0  0
    6.1592    1.8631   -0.5173 C   0  0  0  0  0  0  0  0  0  0  0  0
    5.1575    2.8953   -0.9034 C   0  0  0  0  0  0  0  0  0  0  0  0
    3.9478    2.7383   -0.9138 O   0  0  0  0  0  0  0  0  0  0  0  0
    5.7044    4.0715   -1.2584 O   0  0  0  0  0  0  0  0  0  0  0  0
    1.6049   -2.1561   -0.2548 C   0  0  0  0  0  0  0  0  0  0  0  0
    0.2077   -2.2050   -0.3063 C   0  0  0  0  0  0  0  0  0  0  0  0
   -4.4710   -1.5875    0.6815 H   0  0  0  0  0  0  0  0  0  0  0  0
   -4.4213   -1.1518   -1.0686 H   0  0  0  0  0  0  0  0  0  0  0  0
   -7.1767    1.8983    0.5339 H   0  0  0  0  0  0  0  0  0  0  0  0
   -9.6098    1.5030    0.3612 H   0  0  0  0  0  0  0  0  0  0  0  0
   -8.8509   -2.6207   -0.6316 H   0  0  0  0  0  0  0  0  0  0  0  0
   -6.4457   -2.2354   -0.4621 H   0  0  0  0  0  0  0  0  0  0  0  0
   -2.2978   -2.1241   -0.3493 H   0  0  0  0  0  0  0  0  0  0  0  0
   -0.4488    1.0197    0.5740 H   0  0  0  0  0  0  0  0  0  0  0  0
    1.9626    1.1011    0.6877 H   0  0  0  0  0  0  0  0  0  0  0  0
    3.7491    1.0057   -0.4505 H   0  0  0  0  0  0  0  0  0  0  0  0
    6.4587   -1.3799    0.5249 H   0  0  0  0  0  0  0  0  0  0  0  0
    8.8152   -0.7766    0.5080 H   0  0  0  0  0  0  0  0  0  0  0  0
    9.5372    1.5032   -0.1538 H   0  0  0  0  0  0  0  0  0  0  0  0
    7.8618    3.1866   -0.8011 H   0  0  0  0  0  0  0  0  0  0  0  0
    4.9392    4.6418   -1.4832 H   0  0  0  0  0  0  0  0  0  0  0  0
    2.1822   -3.0520   -0.4772 H   0  0  0  0  0  0  0  0  0  0  0  0
   -0.2641   -3.1474   -0.5725 H   0  0  0  0  0  0  0  0  0  0  0  0
  1  2  2  0
  2  3  1  0
  3  4  1  0
  4  5  1  0
  5  6  2  0
  6  7  1  0
  7  8  2  0
  8  9  1  0
  8 10  1  0
 10 11  2  0
  2 12  1  0
 12 13  1  0
 13 14  2  0
 14 15  1  0
 15 16  2  0
 16 17  1  0
 17 18  2  0
 17 19  1  0
 19 20  1  0
 20 21  2  0
 21 22  1  0
 22 23  2  0
 23 24  1  0
 24 25  2  0
 25 26  1  0
 26 27  2  0
 26 28  1  0
 16 29  1  0
 29 30  2  0
 11  5  1  0
 30 13  1  0
 25 20  1  0
  3 31  1  0
  3 32  1  0
  6 33  1  0
  7 34  1  0
 10 35  1  0
 11 36  1  0
 12 37  1  0
 14 38  1  0
 15 39  1  0
 19 40  1  0
 21 41  1  0
 22 42  1  0
 23 43  1  0
 24 44  1  0
 28 45  1  0
 29 46  1  0
 30 47  1  0
M  END
$$$$
