
     RDKit          3D

 32 32  0  0  0  0  0  0  0  0999 V2000
   -3.9157   -0.0594   -2.9082 C   0  0  0  0  0  0  0  0  0  0  0  0
   -3.2008    0.8856   -2.7098 C   0  0  0  0  0  0  0  0  0  0  0  0
   -2.3318    2.0491   -2.4631 C   0  0  0  0  0  0  0  0  0  0  0  0
   -0.9063    1.8191   -2.7462 N   0  0  0  0  0  0  0  0  0  0  0  0
   -0.6688    1.6282   -4.1780 C   0  0  0  0  0  0  0  0  0  0  0  0
   -0.2922    0.7339   -1.9667 C   0  0  0  0  0  0  0  0  0  0  0  0
   -0.3297    0.9655   -0.4535 C   0  0  0  0  0  0  0  0  0  0  0  0
    0.4437   -0.1226    0.2870 C   0  0  0  0  0  0  0  0  0  0  0  0
    0.3502    0.1480    1.6928 O   0  0  0  0  0  0  0  0  0  0  0  0
    1.1309   -0.7271    2.4029 C   0  0  0  0  0  0  0  0  0  0  0  0
    0.5863   -1.9607    2.7661 C   0  0  0  0  0  0  0  0  0  0  0  0
    1.3482   -2.8497    3.5215 C   0  0  0  0  0  0  0  0  0  0  0  0
    0.6906   -4.3775    3.9605 Cl  0  0  0  0  0  0  0  0  0  0  0  0
    2.6395   -2.5107    3.9275 C   0  0  0  0  0  0  0  0  0  0  0  0
    3.1733   -1.2661    3.5817 C   0  0  0  0  0  0  0  0  0  0  0  0
    2.4164   -0.3689    2.8250 C   0  0  0  0  0  0  0  0  0  0  0  0
    3.1019    1.1628    2.4272 Cl  0  0  0  0  0  0  0  0  0  0  0  0
   -4.5506   -0.8967   -3.0849 H   0  0  0  0  0  0  0  0  0  0  0  0
   -2.6837    2.8948   -3.0680 H   0  0  0  0  0  0  0  0  0  0  0  0
   -2.4537    2.3854   -1.4272 H   0  0  0  0  0  0  0  0  0  0  0  0
   -1.0788    2.4643   -4.7557 H   0  0  0  0  0  0  0  0  0  0  0  0
   -1.1047    0.6974   -4.5574 H   0  0  0  0  0  0  0  0  0  0  0  0
    0.4068    1.6082   -4.3870 H   0  0  0  0  0  0  0  0  0  0  0  0
   -0.7497   -0.2346   -2.2056 H   0  0  0  0  0  0  0  0  0  0  0  0
    0.7635    0.6564   -2.2592 H   0  0  0  0  0  0  0  0  0  0  0  0
    0.0967    1.9455   -0.2046 H   0  0  0  0  0  0  0  0  0  0  0  0
   -1.3597    0.9752   -0.0784 H   0  0  0  0  0  0  0  0  0  0  0  0
    0.0047   -1.1039    0.0677 H   0  0  0  0  0  0  0  0  0  0  0  0
    1.4925   -0.1188   -0.0357 H   0  0  0  0  0  0  0  0  0  0  0  0
   -0.4255   -2.2170    2.4656 H   0  0  0  0  0  0  0  0  0  0  0  0
    3.2310   -3.2052    4.5189 H   0  0  0  0  0  0  0  0  0  0  0  0
    4.1753   -1.0006    3.9094 H   0  0  0  0  0  0  0  0  0  0  0  0
  1  2  3  0
  2  3  1  0
  3  4  1  0
  4  5  1  0
  4  6  1  0
  6  7  1  0
  7  8  1  0
  8  9  1  0
  9 10  1  0
 10 11  2  0
 11 12  1  0
 12 13  1  0
 12 14  2  0
 14 15  1  0
 15 16  2  0
 16 17  1  0
 16 10  1  0
  1 18  1  0
  3 19  1  0
  3 20  1  0
  5 21  1  0
  5 22  1  0
  5 23  1  0
  6 24  1  0
  6 25  1  0
  7 26  1  0
  7 27  1  0
  8 28  1  0
  8 29  1  0
 11 30  1  0
 14 31  1  0
 15 32  1  0
M  END
$$$$
