
     RDKit          3D

 62 65  0  0  0  0  0  0  0  0999 V2000
   -2.0310   -1.1810   -2.1117 C   0  0  0  0  0  0  0  0  0  0  0  0
   -2.3223   -1.5285   -0.6588 C   0  0  0  0  0  0  0  0  0  0  0  0
   -2.9071   -0.3961    0.0401 N   0  0  0  0  0  0  0  0  0  0  0  0
   -2.3118    0.5600    0.8762 C   0  0  0  0  0  0  0  0  0  0  0  0
   -1.0231    0.8714    1.1258 C   0  0  0  0  0  0  0  0  0  0  0  0
    0.1798    0.3373    0.5283 C   0  0  0  0  0  0  0  0  0  0  0  0
    1.4019    0.6904    0.9523 C   0  0  0  0  0  0  0  0  0  0  0  0
    2.6233    0.1849    0.2925 C   0  0  0  0  0  0  0  0  0  0  0  0
    2.9800   -1.0578    0.1422 N   0  0  0  0  0  4  0  0  0  0  0  0
    2.3308   -2.2977    0.6158 C   0  0  0  0  0  0  0  0  0  0  0  0
    1.6468   -3.0133   -0.5357 C   0  0  0  0  0  0  0  0  0  0  0  0
    4.2912   -1.1111   -0.5328 C   0  0  0  0  0  0  0  0  0  0  0  0
    5.0554   -2.2158   -0.8650 C   0  0  0  0  0  0  0  0  0  0  0  0
    6.2755   -1.9882   -1.5076 C   0  0  0  0  0  0  0  0  0  0  0  0
    6.7006   -0.6812   -1.7973 C   0  0  0  0  0  0  0  0  0  0  0  0
    5.9171    0.4208   -1.4479 C   0  0  0  0  0  0  0  0  0  0  0  0
    4.7094    0.1865   -0.8103 C   0  0  0  0  0  0  0  0  0  0  0  0
    3.6758    1.1542   -0.3046 C   0  0  0  0  0  0  0  0  0  0  0  0
    3.0657    1.9671   -1.4501 C   0  0  0  0  0  0  0  0  0  0  0  0
    4.2588    2.0696    0.7756 C   0  0  0  0  0  0  0  0  0  0  0  0
   -3.4616    1.3715    1.5814 C   0  0  0  0  0  0  0  0  0  0  0  0
   -3.3979    2.8706    1.2498 C   0  0  0  0  0  0  0  0  0  0  0  0
   -3.4643    1.1424    3.1002 C   0  0  0  0  0  0  0  0  0  0  0  0
   -4.6973    0.7510    0.9577 C   0  0  0  0  0  0  0  0  0  0  0  0
   -6.0342    1.0682    1.1691 C   0  0  0  0  0  0  0  0  0  0  0  0
   -7.0036    0.3460    0.4761 C   0  0  0  0  0  0  0  0  0  0  0  0
   -6.6285   -0.6712   -0.4104 C   0  0  0  0  0  0  0  0  0  0  0  0
   -5.2786   -0.9816   -0.6136 C   0  0  0  0  0  0  0  0  0  0  0  0
   -4.3080   -0.2698    0.0765 C   0  0  0  0  0  0  0  0  0  0  0  0
   -1.5436   -2.0243   -2.6115 H   0  0  0  0  0  0  0  0  0  0  0  0
   -1.3743   -0.3090   -2.1938 H   0  0  0  0  0  0  0  0  0  0  0  0
   -2.9517   -0.9512   -2.6579 H   0  0  0  0  0  0  0  0  0  0  0  0
   -1.4055   -1.8553   -0.1587 H   0  0  0  0  0  0  0  0  0  0  0  0
   -2.9733   -2.4107   -0.6149 H   0  0  0  0  0  0  0  0  0  0  0  0
   -0.8479    1.6621    1.8570 H   0  0  0  0  0  0  0  0  0  0  0  0
    0.0611   -0.3213   -0.3204 H   0  0  0  0  0  0  0  0  0  0  0  0
    1.5403    1.4169    1.7488 H   0  0  0  0  0  0  0  0  0  0  0  0
    1.6007   -2.0360    1.3880 H   0  0  0  0  0  0  0  0  0  0  0  0
    3.0880   -2.9308    1.0904 H   0  0  0  0  0  0  0  0  0  0  0  0
    1.1114   -3.8932   -0.1639 H   0  0  0  0  0  0  0  0  0  0  0  0
    0.9234   -2.3691   -1.0451 H   0  0  0  0  0  0  0  0  0  0  0  0
    2.3638   -3.3564   -1.2884 H   0  0  0  0  0  0  0  0  0  0  0  0
    4.7522   -3.2345   -0.6505 H   0  0  0  0  0  0  0  0  0  0  0  0
    6.9095   -2.8288   -1.7890 H   0  0  0  0  0  0  0  0  0  0  0  0
    7.6566   -0.5270   -2.2986 H   0  0  0  0  0  0  0  0  0  0  0  0
    6.2603    1.4278   -1.6735 H   0  0  0  0  0  0  0  0  0  0  0  0
    2.2821    2.6409   -1.0859 H   0  0  0  0  0  0  0  0  0  0  0  0
    3.8219    2.5788   -1.9550 H   0  0  0  0  0  0  0  0  0  0  0  0
    2.6082    1.3163   -2.2051 H   0  0  0  0  0  0  0  0  0  0  0  0
    3.5037    2.7638    1.1608 H   0  0  0  0  0  0  0  0  0  0  0  0
    4.6363    1.4931    1.6289 H   0  0  0  0  0  0  0  0  0  0  0  0
    5.0901    2.6695    0.3878 H   0  0  0  0  0  0  0  0  0  0  0  0
   -2.5060    3.3411    1.6776 H   0  0  0  0  0  0  0  0  0  0  0  0
   -4.2673    3.4060    1.6489 H   0  0  0  0  0  0  0  0  0  0  0  0
   -3.3782    3.0429    0.1669 H   0  0  0  0  0  0  0  0  0  0  0  0
   -4.3296    1.6203    3.5744 H   0  0  0  0  0  0  0  0  0  0  0  0
   -3.5065    0.0745    3.3470 H   0  0  0  0  0  0  0  0  0  0  0  0
   -2.5658    1.5564    3.5710 H   0  0  0  0  0  0  0  0  0  0  0  0
   -6.3254    1.8569    1.8554 H   0  0  0  0  0  0  0  0  0  0  0  0
   -8.0572    0.5734    0.6217 H   0  0  0  0  0  0  0  0  0  0  0  0
   -7.3962   -1.2238   -0.9479 H   0  0  0  0  0  0  0  0  0  0  0  0
   -5.0240   -1.7677   -1.3145 H   0  0  0  0  0  0  0  0  0  0  0  0
  1  2  1  0
  2  3  1  0
  3  4  1  0
  4  5  2  3
  5  6  1  0
  6  7  2  3
  7  8  1  0
  8  9  2  0
  9 10  1  0
 10 11  1  0
  9 12  1  0
 12 13  2  0
 13 14  1  0
 14 15  2  0
 15 16  1  0
 16 17  2  0
 17 18  1  0
 18 19  1  0
 18 20  1  0
  4 21  1  0
 21 22  1  0
 21 23  1  0
 21 24  1  0
 24 25  2  0
 25 26  1  0
 26 27  2  0
 27 28  1  0
 28 29  2  0
 29  3  1  0
 18  8  1  0
 29 24  1  0
 17 12  1  0
  1 30  1  0
  1 31  1  0
  1 32  1  0
  2 33  1  0
  2 34  1  0
  5 35  1  0
  6 36  1  0
  7 37  1  0
 10 38  1  0
 10 39  1  0
 11 40  1  0
 11 41  1  0
 11 42  1  0
 13 43  1  0
 14 44  1  0
 15 45  1  0
 16 46  1  0
 19 47  1  0
 19 48  1  0
 19 49  1  0
 20 50  1  0
 20 51  1  0
 20 52  1  0
 22 53  1  0
 22 54  1  0
 22 55  1  0
 23 56  1  0
 23 57  1  0
 23 58  1  0
 25 59  1  0
 26 60  1  0
 27 61  1  0
 28 62  1  0
M  CHG  1   9   1
M  END
$$$$
