
     RDKit          3D

 56 61  0  0  0  0  0  0  0  0999 V2000
   -5.2464   -1.4427    2.9529 C   0  0  0  0  0  0  0  0  0  0  0  0
   -4.3811   -1.6834    1.7522 C   0  0  0  0  0  0  0  0  0  0  0  0
   -4.9119   -2.1969    0.5536 C   0  0  0  0  0  0  0  0  0  0  0  0
   -6.5948   -2.5727    0.4066 Cl  0  0  0  0  0  0  0  0  0  0  0  0
   -4.1001   -2.4285   -0.5743 C   0  0  0  0  0  0  0  0  0  0  0  0
   -2.7322   -2.1561   -0.5397 C   0  0  0  0  0  0  0  0  0  0  0  0
   -2.1977   -1.6480    0.6346 C   0  0  0  0  0  0  0  0  0  0  0  0
   -3.0156   -1.4240    1.7519 C   0  0  0  0  0  0  0  0  0  0  0  0
   -2.2451   -0.9253    2.7980 N   0  0  0  0  0  0  0  0  0  0  0  0
   -0.8967   -0.8042    2.4493 C   0  0  0  0  0  0  0  0  0  0  0  0
   -0.0374   -0.3914    3.2117 O   0  0  0  0  0  0  0  0  0  0  0  0
   -0.7751   -1.2724    0.9770 C   0  0  0  0  0  0  0  0  0  0  0  0
    0.2083   -2.3878    0.8099 N   0  0  0  0  0  0  0  0  0  0  0  0
    1.0716   -2.1166   -0.3924 C   0  0  2  0  0  0  0  0  0  0  0  0
    2.5686   -2.3659   -0.1344 C   0  0  0  0  0  0  0  0  0  0  0  0
    3.2749   -1.3888    0.7804 C   0  0  0  0  0  0  0  0  0  0  0  0
    4.1282   -0.4114    0.2471 C   0  0  0  0  0  0  0  0  0  0  0  0
    4.7748    0.5008    1.0826 C   0  0  0  0  0  0  0  0  0  0  0  0
    4.5736    0.4478    2.4599 C   0  0  0  0  0  0  0  0  0  0  0  0
    3.7267   -0.5171    3.0008 C   0  0  0  0  0  0  0  0  0  0  0  0
    3.0837   -1.4329    2.1664 C   0  0  0  0  0  0  0  0  0  0  0  0
    0.7104   -0.7322   -0.7586 C   0  0  0  0  0  0  0  0  0  0  0  0
   -0.3374   -0.2454    0.0188 C   0  0  0  0  0  0  0  0  0  0  0  0
   -0.6266    1.0341   -0.3861 C   0  0  0  0  0  0  0  0  0  0  0  0
   -1.5252    1.8993    0.0779 O   0  0  0  0  0  0  0  0  0  0  0  0
    0.2917    1.3615   -1.4041 N   0  0  0  0  0  0  0  0  0  0  0  0
    0.4549    2.6407   -2.0235 C   0  0  0  0  0  0  0  0  0  0  0  0
   -0.6383    3.4967   -2.2022 C   0  0  0  0  0  0  0  0  0  0  0  0
   -0.4646    4.7401   -2.8161 C   0  0  0  0  0  0  0  0  0  0  0  0
    0.7995    5.1417   -3.2434 C   0  0  0  0  0  0  0  0  0  0  0  0
    1.8961    4.3044   -3.0517 C   0  0  0  0  0  0  0  0  0  0  0  0
    1.7281    3.0592   -2.4415 C   0  0  0  0  0  0  0  0  0  0  0  0
    1.0407    0.2036   -1.6979 C   0  0  0  0  0  0  0  0  0  0  0  0
    1.8668    0.0690   -2.7353 O   0  0  0  0  0  0  0  0  0  0  0  0
   -5.6802   -2.3852    3.3027 H   0  0  0  0  0  0  0  0  0  0  0  0
   -6.0500   -0.7401    2.7088 H   0  0  0  0  0  0  0  0  0  0  0  0
   -4.6909   -1.0118    3.7903 H   0  0  0  0  0  0  0  0  0  0  0  0
   -4.5401   -2.8231   -1.4883 H   0  0  0  0  0  0  0  0  0  0  0  0
   -2.1117   -2.3300   -1.4140 H   0  0  0  0  0  0  0  0  0  0  0  0
   -2.5684   -0.6957    3.7259 H   0  0  0  0  0  0  0  0  0  0  0  0
   -0.2932   -3.2603    0.6757 H   0  0  0  0  0  0  0  0  0  0  0  0
    0.7388   -2.7914   -1.1919 H   0  0  0  0  0  0  0  0  0  0  0  0
    2.7088   -3.3794    0.2654 H   0  0  0  0  0  0  0  0  0  0  0  0
    3.0877   -2.3696   -1.1030 H   0  0  0  0  0  0  0  0  0  0  0  0
    4.2822   -0.3470   -0.8278 H   0  0  0  0  0  0  0  0  0  0  0  0
    5.4276    1.2576    0.6574 H   0  0  0  0  0  0  0  0  0  0  0  0
    5.0669    1.1635    3.1112 H   0  0  0  0  0  0  0  0  0  0  0  0
    3.5508   -0.5504    4.0726 H   0  0  0  0  0  0  0  0  0  0  0  0
    2.4129   -2.1672    2.6065 H   0  0  0  0  0  0  0  0  0  0  0  0
   -1.9472    1.5078    0.8621 H   0  0  0  0  0  0  0  0  0  0  0  0
   -1.6414    3.2083   -1.9002 H   0  0  0  0  0  0  0  0  0  0  0  0
   -1.3199    5.3959   -2.9584 H   0  0  0  0  0  0  0  0  0  0  0  0
    0.9312    6.1129   -3.7134 H   0  0  0  0  0  0  0  0  0  0  0  0
    2.8869    4.6288   -3.3601 H   0  0  0  0  0  0  0  0  0  0  0  0
    2.6138    2.4563   -2.2497 H   0  0  0  0  0  0  0  0  0  0  0  0
    1.6626    0.7652   -3.3856 H   0  0  0  0  0  0  0  0  0  0  0  0
  1  2  1  0
  2  3  2  0
  3  4  1  0
  3  5  1  0
  5  6  2  0
  6  7  1  0
  7  8  2  0
  8  9  1  0
  9 10  1  0
 10 11  2  0
 10 12  1  0
 12 13  1  0
 13 14  1  0
 14 15  1  0
 15 16  1  0
 16 17  2  0
 17 18  1  0
 18 19  2  0
 19 20  1  0
 20 21  2  0
 14 22  1  0
 22 23  1  0
 23 24  2  0
 24 25  1  0
 24 26  1  0
 26 27  1  0
 27 28  2  0
 28 29  1  0
 29 30  2  0
 30 31  1  0
 31 32  2  0
 26 33  1  0
 33 34  1  0
  8  2  1  0
 23 12  1  0
 32 27  1  0
 12  7  1  0
 21 16  1  0
 33 22  2  0
  1 35  1  0
  1 36  1  0
  1 37  1  0
  5 38  1  0
  6 39  1  0
  9 40  1  0
 13 41  1  0
 14 42  1  6
 15 43  1  0
 15 44  1  0
 17 45  1  0
 18 46  1  0
 19 47  1  0
 20 48  1  0
 21 49  1  0
 25 50  1  0
 28 51  1  0
 29 52  1  0
 30 53  1  0
 31 54  1  0
 32 55  1  0
 34 56  1  0
M  END
$$$$
