
     RDKit          3D

 68 70  0  0  0  0  0  0  0  0999 V2000
   -6.4246   -1.1903    3.6903 C   0  0  0  0  0  0  0  0  0  0  0  0
   -5.7199    0.0225    3.4564 O   0  0  0  0  0  0  0  0  0  0  0  0
   -4.6056   -0.0543    2.6676 C   0  0  0  0  0  0  0  0  0  0  0  0
   -3.8822    1.1342    2.5612 C   0  0  0  0  0  0  0  0  0  0  0  0
   -2.7199    1.1954    1.7887 C   0  0  0  0  0  0  0  0  0  0  0  0
   -2.2635    0.0654    1.0926 C   0  0  0  0  0  0  0  0  0  0  0  0
   -0.9854    0.1687    0.2655 C   0  0  0  0  0  0  0  0  0  0  0  0
   -0.9514   -0.7972   -0.9570 C   0  0  0  0  0  0  0  0  0  0  0  0
   -0.1742   -1.7444   -1.0413 O   0  0  0  0  0  0  0  0  0  0  0  0
   -1.8861   -0.4895   -1.9360 N   0  0  0  0  0  0  0  0  0  0  0  0
   -2.1011   -1.2735   -3.1626 C   0  0  0  0  0  0  0  0  0  0  0  0
   -3.1780   -0.5572   -3.9982 C   0  0  0  0  0  0  0  0  0  0  0  0
   -0.8185   -1.3536   -4.0068 C   0  0  0  0  0  0  0  0  0  0  0  0
   -2.6038   -2.6850   -2.8237 C   0  0  0  0  0  0  0  0  0  0  0  0
    0.2484    0.0751    1.0756 N   0  0  0  0  0  0  0  0  0  0  0  0
    0.4277   -1.1107    1.9220 C   0  0  0  0  0  0  0  0  0  0  0  0
    0.0379   -0.8021    3.3263 C   0  0  0  0  0  0  0  0  0  0  0  0
    0.5047    0.0900    4.2706 C   0  0  0  0  0  0  0  0  0  0  0  0
   -0.2989   -0.0868    5.4215 C   0  0  0  0  0  0  0  0  0  0  0  0
   -1.1932   -1.0835    5.1142 C   0  0  0  0  0  0  0  0  0  0  0  0
   -0.9890   -1.5336    3.8508 O   0  0  0  0  0  0  0  0  0  0  0  0
    1.3482    0.9092    0.9147 C   0  0  0  0  0  0  0  0  0  0  0  0
    2.3971    0.7438    1.5420 O   0  0  0  0  0  0  0  0  0  0  0  0
    1.2079    2.0937   -0.0307 C   0  0  0  0  0  0  0  0  0  0  0  0
    2.5134    2.8794   -0.1394 C   0  0  0  0  0  0  0  0  0  0  0  0
    3.5161    2.1628   -1.0277 C   0  0  0  0  0  0  0  0  0  0  0  0
    3.1546    1.4953   -1.9921 O   0  0  0  0  0  0  0  0  0  0  0  0
    4.8182    2.4214   -0.6714 N   0  0  0  0  0  0  0  0  0  0  0  0
    5.9318    1.9294   -1.3144 C   0  0  0  0  0  0  0  0  0  0  0  0
    6.0179    1.0728   -2.4332 C   0  0  0  0  0  0  0  0  0  0  0  0
    7.3645    0.9113   -2.6422 C   0  0  0  0  0  0  0  0  0  0  0  0
    8.1715    0.1607   -3.6183 C   0  0  0  0  0  0  0  0  0  0  0  0
    8.0479    1.6316   -1.7144 O   0  0  0  0  0  0  0  0  0  0  0  0
    7.1505    2.2690   -0.8774 N   0  0  0  0  0  0  0  0  0  0  0  0
   -2.9941   -1.1272    1.2099 C   0  0  0  0  0  0  0  0  0  0  0  0
   -4.1567   -1.1852    1.9886 C   0  0  0  0  0  0  0  0  0  0  0  0
   -7.2492   -0.9705    4.3758 H   0  0  0  0  0  0  0  0  0  0  0  0
   -5.7823   -1.9361    4.1708 H   0  0  0  0  0  0  0  0  0  0  0  0
   -6.8574   -1.5788    2.7624 H   0  0  0  0  0  0  0  0  0  0  0  0
   -4.2218    2.0181    3.0951 H   0  0  0  0  0  0  0  0  0  0  0  0
   -2.1670    2.1311    1.7469 H   0  0  0  0  0  0  0  0  0  0  0  0
   -1.0227    1.1636   -0.1914 H   0  0  0  0  0  0  0  0  0  0  0  0
   -2.6288    0.1469   -1.6687 H   0  0  0  0  0  0  0  0  0  0  0  0
   -2.8633    0.4599   -4.2592 H   0  0  0  0  0  0  0  0  0  0  0  0
   -4.1191   -0.4726   -3.4419 H   0  0  0  0  0  0  0  0  0  0  0  0
   -3.3857   -1.0948   -4.9303 H   0  0  0  0  0  0  0  0  0  0  0  0
   -0.4157   -0.3542   -4.2044 H   0  0  0  0  0  0  0  0  0  0  0  0
   -1.0094   -1.8365   -4.9715 H   0  0  0  0  0  0  0  0  0  0  0  0
   -0.0319   -1.9297   -3.5104 H   0  0  0  0  0  0  0  0  0  0  0  0
   -2.8410   -3.2498   -3.7320 H   0  0  0  0  0  0  0  0  0  0  0  0
   -3.5096   -2.6419   -2.2082 H   0  0  0  0  0  0  0  0  0  0  0  0
   -1.8581   -3.2603   -2.2659 H   0  0  0  0  0  0  0  0  0  0  0  0
    1.4765   -1.4292    1.9050 H   0  0  0  0  0  0  0  0  0  0  0  0
   -0.1571   -1.9476    1.5281 H   0  0  0  0  0  0  0  0  0  0  0  0
    1.3221    0.7842    4.1324 H   0  0  0  0  0  0  0  0  0  0  0  0
   -0.2347    0.4458    6.3585 H   0  0  0  0  0  0  0  0  0  0  0  0
   -1.9960   -1.5631    5.6558 H   0  0  0  0  0  0  0  0  0  0  0  0
    0.4396    2.7580    0.3814 H   0  0  0  0  0  0  0  0  0  0  0  0
    0.8865    1.7436   -1.0166 H   0  0  0  0  0  0  0  0  0  0  0  0
    2.9404    3.0778    0.8501 H   0  0  0  0  0  0  0  0  0  0  0  0
    2.3141    3.8495   -0.6109 H   0  0  0  0  0  0  0  0  0  0  0  0
    5.0318    2.9790    0.1435 H   0  0  0  0  0  0  0  0  0  0  0  0
    5.2167    0.6286   -3.0045 H   0  0  0  0  0  0  0  0  0  0  0  0
    7.5601   -0.5776   -4.1462 H   0  0  0  0  0  0  0  0  0  0  0  0
    8.6026    0.8412   -4.3589 H   0  0  0  0  0  0  0  0  0  0  0  0
    8.9892   -0.3698   -3.1200 H   0  0  0  0  0  0  0  0  0  0  0  0
   -2.6610   -2.0383    0.7149 H   0  0  0  0  0  0  0  0  0  0  0  0
   -4.6799   -2.1340    2.0490 H   0  0  0  0  0  0  0  0  0  0  0  0
  1  2  1  0
  2  3  1  0
  3  4  2  0
  4  5  1  0
  5  6  2  0
  6  7  1  0
  7  8  1  0
  8  9  2  0
  8 10  1  0
 10 11  1  0
 11 12  1  0
 11 13  1  0
 11 14  1  0
  7 15  1  0
 15 16  1  0
 16 17  1  0
 17 18  2  0
 18 19  1  0
 19 20  2  0
 20 21  1  0
 15 22  1  0
 22 23  2  0
 22 24  1  0
 24 25  1  0
 25 26  1  0
 26 27  2  0
 26 28  1  0
 28 29  1  0
 29 30  1  0
 30 31  2  0
 31 32  1  0
 31 33  1  0
 33 34  1  0
  6 35  1  0
 35 36  2  0
 36  3  1  0
 21 17  1  0
 34 29  2  0
  1 37  1  0
  1 38  1  0
  1 39  1  0
  4 40  1  0
  5 41  1  0
  7 42  1  0
 10 43  1  0
 12 44  1  0
 12 45  1  0
 12 46  1  0
 13 47  1  0
 13 48  1  0
 13 49  1  0
 14 50  1  0
 14 51  1  0
 14 52  1  0
 16 53  1  0
 16 54  1  0
 18 55  1  0
 19 56  1  0
 20 57  1  0
 24 58  1  0
 24 59  1  0
 25 60  1  0
 25 61  1  0
 28 62  1  0
 30 63  1  0
 32 64  1  0
 32 65  1  0
 32 66  1  0
 35 67  1  0
 36 68  1  0
M  END
$$$$
