
     RDKit          3D

 58 60  0  0  0  0  0  0  0  0999 V2000
    7.7741    0.6427   -1.9593 C   0  0  0  0  0  0  0  0  0  0  0  0
    6.7299    0.8358   -0.9395 C   0  0  0  0  0  0  0  0  0  0  0  0
    5.4681    1.3750   -0.9429 C   0  0  0  0  0  0  0  0  0  0  0  0
    5.0136    1.2354    0.3915 C   0  0  0  0  0  0  0  0  0  0  0  0
    3.7684    1.6546    0.8106 N   0  0  0  0  0  0  0  0  0  0  0  0
    3.2540    1.4855    2.0761 C   0  0  0  0  0  0  0  0  0  0  0  0
    3.8001    0.9532    3.0362 O   0  0  0  0  0  0  0  0  0  0  0  0
    1.8339    2.0100    2.2012 C   0  0  0  0  0  0  0  0  0  0  0  0
    0.8306    1.0141    1.6254 C   0  0  0  0  0  0  0  0  0  0  0  0
    0.7169    1.1089    0.1099 C   0  0  0  0  0  0  0  0  0  0  0  0
    1.4741    1.8472   -0.5276 O   0  0  0  0  0  0  0  0  0  0  0  0
   -0.2267    0.3053   -0.5103 N   0  0  0  0  0  0  0  0  0  0  0  0
   -1.1666   -0.5637    0.2076 C   0  0  0  0  0  0  0  0  0  0  0  0
   -2.4738    0.1535    0.5710 C   0  0  0  0  0  0  0  0  0  0  0  0
   -2.6702    1.3477    0.3633 O   0  0  0  0  0  0  0  0  0  0  0  0
   -3.4069   -0.6756    1.1659 N   0  0  0  0  0  0  0  0  0  0  0  0
   -4.6508   -0.1438    1.6848 C   0  0  0  0  0  0  0  0  0  0  0  0
   -5.6908   -1.2325    1.9317 C   0  0  0  0  0  0  0  0  0  0  0  0
   -6.6253   -0.5874    2.9409 C   0  0  0  0  0  0  0  0  0  0  0  0
   -5.6772    0.1261    3.8935 C   0  0  0  0  0  0  0  0  0  0  0  0
   -4.4795    0.5515    3.0426 C   0  0  0  0  0  0  0  0  0  0  0  0
   -0.4497    0.4692   -1.9471 C   0  0  0  0  0  0  0  0  0  0  0  0
   -0.0456   -0.7605   -2.7307 C   0  0  0  0  0  0  0  0  0  0  0  0
    1.2700   -1.2496   -2.6610 C   0  0  0  0  0  0  0  0  0  0  0  0
    1.6423   -2.3825   -3.3856 C   0  0  0  0  0  0  0  0  0  0  0  0
    0.7041   -3.0217   -4.1859 C   0  0  0  0  0  0  0  0  0  0  0  0
    1.0617   -4.1089   -4.8816 F   0  0  0  0  0  0  0  0  0  0  0  0
   -0.5983   -2.5473   -4.2798 C   0  0  0  0  0  0  0  0  0  0  0  0
   -0.9744   -1.4154   -3.5545 C   0  0  0  0  0  0  0  0  0  0  0  0
    5.9478    0.6508    1.1462 N   0  0  0  0  0  0  0  0  0  0  0  0
    7.0208    0.4009    0.3132 O   0  0  0  0  0  0  0  0  0  0  0  0
    8.0114   -0.4198   -2.0681 H   0  0  0  0  0  0  0  0  0  0  0  0
    8.6891    1.1744   -1.6794 H   0  0  0  0  0  0  0  0  0  0  0  0
    7.4459    1.0196   -2.9331 H   0  0  0  0  0  0  0  0  0  0  0  0
    4.9467    1.8058   -1.7838 H   0  0  0  0  0  0  0  0  0  0  0  0
    3.1568    2.0410    0.0927 H   0  0  0  0  0  0  0  0  0  0  0  0
    1.6340    2.1532    3.2699 H   0  0  0  0  0  0  0  0  0  0  0  0
    1.7588    2.9982    1.7334 H   0  0  0  0  0  0  0  0  0  0  0  0
   -0.1532    1.2346    2.0532 H   0  0  0  0  0  0  0  0  0  0  0  0
    1.1208   -0.0071    1.8950 H   0  0  0  0  0  0  0  0  0  0  0  0
   -1.3994   -1.4330   -0.4161 H   0  0  0  0  0  0  0  0  0  0  0  0
   -0.7140   -0.9322    1.1320 H   0  0  0  0  0  0  0  0  0  0  0  0
   -3.1052   -1.5837    1.4982 H   0  0  0  0  0  0  0  0  0  0  0  0
   -5.0464    0.5816    0.9616 H   0  0  0  0  0  0  0  0  0  0  0  0
   -5.2316   -2.1316    2.3618 H   0  0  0  0  0  0  0  0  0  0  0  0
   -6.2077   -1.5272    1.0133 H   0  0  0  0  0  0  0  0  0  0  0  0
   -7.2560   -1.3190    3.4539 H   0  0  0  0  0  0  0  0  0  0  0  0
   -7.2784    0.1392    2.4432 H   0  0  0  0  0  0  0  0  0  0  0  0
   -6.1558    0.9776    4.3881 H   0  0  0  0  0  0  0  0  0  0  0  0
   -5.3429   -0.5667    4.6759 H   0  0  0  0  0  0  0  0  0  0  0  0
   -4.4600    1.6400    2.9122 H   0  0  0  0  0  0  0  0  0  0  0  0
   -3.5442    0.2704    3.5413 H   0  0  0  0  0  0  0  0  0  0  0  0
    0.1068    1.3259   -2.3444 H   0  0  0  0  0  0  0  0  0  0  0  0
   -1.5117    0.6968   -2.0984 H   0  0  0  0  0  0  0  0  0  0  0  0
    2.0099   -0.7442   -2.0427 H   0  0  0  0  0  0  0  0  0  0  0  0
    2.6562   -2.7661   -3.3330 H   0  0  0  0  0  0  0  0  0  0  0  0
   -1.3102   -3.0591   -4.9191 H   0  0  0  0  0  0  0  0  0  0  0  0
   -1.9944   -1.0472   -3.6395 H   0  0  0  0  0  0  0  0  0  0  0  0
  1  2  1  0
  2  3  2  0
  3  4  1  0
  4  5  1  0
  5  6  1  0
  6  7  2  0
  6  8  1  0
  8  9  1  0
  9 10  1  0
 10 11  2  0
 10 12  1  0
 12 13  1  0
 13 14  1  0
 14 15  2  0
 14 16  1  0
 16 17  1  0
 17 18  1  0
 18 19  1  0
 19 20  1  0
 20 21  1  0
 12 22  1  0
 22 23  1  0
 23 24  2  0
 24 25  1  0
 25 26  2  0
 26 27  1  0
 26 28  1  0
 28 29  2  0
  4 30  2  0
 30 31  1  0
 31  2  1  0
 21 17  1  0
 29 23  1  0
  1 32  1  0
  1 33  1  0
  1 34  1  0
  3 35  1  0
  5 36  1  0
  8 37  1  0
  8 38  1  0
  9 39  1  0
  9 40  1  0
 13 41  1  0
 13 42  1  0
 16 43  1  0
 17 44  1  0
 18 45  1  0
 18 46  1  0
 19 47  1  0
 19 48  1  0
 20 49  1  0
 20 50  1  0
 21 51  1  0
 21 52  1  0
 22 53  1  0
 22 54  1  0
 24 55  1  0
 25 56  1  0
 28 57  1  0
 29 58  1  0
M  END
$$$$
