
     RDKit          3D

 43 45  0  0  0  0  0  0  0  0999 V2000
   -2.3832   -1.8476   -1.2784 C   0  0  0  0  0  0  0  0  0  0  0  0
   -2.2903   -0.3997   -0.7549 C   0  0  0  0  0  0  0  0  0  0  0  0
   -2.1697    0.5061   -1.9988 C   0  0  0  0  0  0  0  0  0  0  0  0
   -3.4463   -0.0113    0.2101 C   0  0  0  0  0  0  0  0  0  0  0  0
   -3.2280   -0.9587    1.4107 C   0  0  0  0  0  0  0  0  0  0  0  0
   -1.6902   -1.0368    1.5204 C   0  0  0  0  0  0  0  0  0  0  0  0
   -1.1998   -0.1649    0.3384 C   0  0  0  0  0  0  0  0  0  0  0  0
    0.2429   -0.2858   -0.1132 C   0  0  0  0  0  0  0  0  0  0  0  0
    1.4054   -0.5719    1.2261 S   0  0  0  0  0  6  0  0  0  0  0  0
    1.0893    0.2792    2.3498 O   0  0  0  0  0  0  0  0  0  0  0  0
    1.5139   -2.0068    1.3928 O   0  0  0  0  0  0  0  0  0  0  0  0
    2.8573   -0.0304    0.5741 N   0  0  0  0  0  0  0  0  0  0  0  0
    3.0813    1.4383    0.4532 C   0  0  0  0  0  0  0  0  0  0  0  0
    3.3866    1.8269   -0.9979 C   0  0  0  0  0  0  0  0  0  0  0  0
    4.5131    1.1441   -1.5660 O   0  0  0  0  0  0  0  0  0  0  0  0
    4.7734   -0.1346   -0.9701 C   0  0  0  0  0  0  0  0  0  0  0  0
    3.5012   -0.8391   -0.4897 C   0  0  0  0  0  0  0  0  0  0  0  0
   -1.5793    1.2664    0.7298 C   0  0  0  0  0  0  0  0  0  0  0  0
   -0.7959    2.1731    0.9649 O   0  0  0  0  0  0  0  0  0  0  0  0
   -3.0862    1.4174    0.6829 C   0  0  0  0  0  0  0  0  0  0  0  0
   -2.3945   -2.6100   -0.4965 H   0  0  0  0  0  0  0  0  0  0  0  0
   -1.5324   -2.0827   -1.9279 H   0  0  0  0  0  0  0  0  0  0  0  0
   -3.2970   -1.9797   -1.8692 H   0  0  0  0  0  0  0  0  0  0  0  0
   -2.0147    1.5638   -1.7698 H   0  0  0  0  0  0  0  0  0  0  0  0
   -3.0767    0.4367   -2.6100 H   0  0  0  0  0  0  0  0  0  0  0  0
   -1.3225    0.1974   -2.6222 H   0  0  0  0  0  0  0  0  0  0  0  0
   -4.4524   -0.0798   -0.2109 H   0  0  0  0  0  0  0  0  0  0  0  0
   -3.6811   -0.5785    2.3325 H   0  0  0  0  0  0  0  0  0  0  0  0
   -3.6550   -1.9494    1.2228 H   0  0  0  0  0  0  0  0  0  0  0  0
   -1.3692   -0.6500    2.4935 H   0  0  0  0  0  0  0  0  0  0  0  0
   -1.3515   -2.0748    1.4403 H   0  0  0  0  0  0  0  0  0  0  0  0
    0.3730   -1.1243   -0.8047 H   0  0  0  0  0  0  0  0  0  0  0  0
    0.5562    0.6259   -0.6296 H   0  0  0  0  0  0  0  0  0  0  0  0
    2.2162    2.0078    0.8056 H   0  0  0  0  0  0  0  0  0  0  0  0
    3.9312    1.6921    1.0972 H   0  0  0  0  0  0  0  0  0  0  0  0
    2.5224    1.6173   -1.6382 H   0  0  0  0  0  0  0  0  0  0  0  0
    3.5856    2.9012   -1.0660 H   0  0  0  0  0  0  0  0  0  0  0  0
    5.2843   -0.7467   -1.7200 H   0  0  0  0  0  0  0  0  0  0  0  0
    5.4715    0.0173   -0.1385 H   0  0  0  0  0  0  0  0  0  0  0  0
    3.7621   -1.8249   -0.0925 H   0  0  0  0  0  0  0  0  0  0  0  0
    2.8075   -0.9582   -1.3288 H   0  0  0  0  0  0  0  0  0  0  0  0
   -3.4914    1.6614    1.6673 H   0  0  0  0  0  0  0  0  0  0  0  0
   -3.3671    2.1740   -0.0533 H   0  0  0  0  0  0  0  0  0  0  0  0
  1  2  1  0
  2  3  1  0
  2  4  1  0
  4  5  1  0
  5  6  1  0
  6  7  1  0
  7  8  1  0
  8  9  1  0
  9 10  2  0
  9 11  2  0
  9 12  1  0
 12 13  1  0
 13 14  1  0
 14 15  1  0
 15 16  1  0
 16 17  1  0
  7 18  1  0
 18 19  2  0
 18 20  1  0
  7  2  1  0
 17 12  1  0
 20  4  1  0
  1 21  1  0
  1 22  1  0
  1 23  1  0
  3 24  1  0
  3 25  1  0
  3 26  1  0
  4 27  1  0
  5 28  1  0
  5 29  1  0
  6 30  1  0
  6 31  1  0
  8 32  1  0
  8 33  1  0
 13 34  1  0
 13 35  1  0
 14 36  1  0
 14 37  1  0
 16 38  1  0
 16 39  1  0
 17 40  1  0
 17 41  1  0
 20 42  1  0
 20 43  1  0
M  END
$$$$
