
     RDKit          3D

 67 72  0  0  0  0  0  0  0  0999 V2000
   -4.2536   -4.6484    1.5940 C   0  0  0  0  0  0  0  0  0  0  0  0
   -3.3727   -3.4473    1.7658 C   0  0  0  0  0  0  0  0  0  0  0  0
   -3.1289   -2.8880    3.0345 C   0  0  0  0  0  0  0  0  0  0  0  0
   -3.8303   -3.5669    4.4641 Cl  0  0  0  0  0  0  0  0  0  0  0  0
   -2.3122   -1.7520    3.1965 C   0  0  0  0  0  0  0  0  0  0  0  0
   -1.7141   -1.1381    2.0957 C   0  0  0  0  0  0  0  0  0  0  0  0
   -1.9422   -1.6800    0.8390 C   0  0  0  0  0  0  0  0  0  0  0  0
   -2.7662   -2.8075    0.6905 C   0  0  0  0  0  0  0  0  0  0  0  0
   -2.8736   -3.1353   -0.6592 N   0  0  0  0  0  0  0  0  0  0  0  0
   -2.1659   -2.2466   -1.4716 C   0  0  0  0  0  0  0  0  0  0  0  0
   -2.1389   -2.3067   -2.6923 O   0  0  0  0  0  0  0  0  0  0  0  0
   -1.4571   -1.2434   -0.5235 C   0  0  1  0  0  0  0  0  0  0  0  0
   -1.8734    0.1616   -0.7081 C   0  0  0  0  0  0  0  0  0  0  0  0
   -0.7759    0.9799   -0.9673 C   0  0  0  0  0  0  0  0  0  0  0  0
   -1.2026    2.2724   -1.0948 C   0  0  0  0  0  0  0  0  0  0  0  0
   -0.4580    3.3682   -1.2266 O   0  0  0  0  0  0  0  0  0  0  0  0
   -2.6070    2.2516   -0.9983 N   0  0  0  0  0  0  0  0  0  0  0  0
   -3.4735    3.3784   -1.1239 C   0  0  0  0  0  0  0  0  0  0  0  0
   -4.6133    3.4837   -0.3123 C   0  0  0  0  0  0  0  0  0  0  0  0
   -5.4597    4.5873   -0.4412 C   0  0  0  0  0  0  0  0  0  0  0  0
   -5.1681    5.5736   -1.3766 C   0  0  0  0  0  0  0  0  0  0  0  0
   -5.9831    6.6290   -1.4977 F   0  0  0  0  0  0  0  0  0  0  0  0
   -4.0435    5.4804   -2.1878 C   0  0  0  0  0  0  0  0  0  0  0  0
   -3.1909    4.3811   -2.0641 C   0  0  0  0  0  0  0  0  0  0  0  0
   -3.0103    0.9234   -0.7604 C   0  0  0  0  0  0  0  0  0  0  0  0
   -4.2756    0.5136   -0.6846 O   0  0  0  0  0  0  0  0  0  0  0  0
    0.4848    0.2146   -1.0125 C   0  0  1  0  0  0  0  0  0  0  0  0
    1.5583    0.6708   -0.0095 C   0  0  0  0  0  0  0  0  0  0  0  0
    2.6834   -0.2699    0.0395 N   0  0  0  0  0  0  0  0  0  0  0  0
    3.9734    0.2089    0.1509 C   0  0  0  0  0  0  0  0  0  0  0  0
    4.2490    1.3913    0.3119 O   0  0  0  0  0  0  0  0  0  0  0  0
    4.8893   -0.7877    0.0491 O   0  0  0  0  0  0  0  0  0  0  0  0
    6.3107   -0.5070    0.0992 C   0  0  0  0  0  0  0  0  0  0  0  0
    6.9817   -1.8821   -0.0441 C   0  0  0  0  0  0  0  0  0  0  0  0
    6.7173    0.0949    1.4486 C   0  0  0  0  0  0  0  0  0  0  0  0
    6.7451    0.3751   -1.0759 C   0  0  0  0  0  0  0  0  0  0  0  0
    2.3807   -1.6832   -0.2053 C   0  0  0  0  0  0  0  0  0  0  0  0
    0.8947   -2.0145    0.0334 C   0  0  0  0  0  0  0  0  0  0  0  0
    0.0136   -1.1979   -0.7955 N   0  0  0  0  0  0  0  0  0  0  0  0
   -5.2808   -4.4106    1.8895 H   0  0  0  0  0  0  0  0  0  0  0  0
   -3.8837   -5.4819    2.1997 H   0  0  0  0  0  0  0  0  0  0  0  0
   -4.2846   -5.0018    0.5592 H   0  0  0  0  0  0  0  0  0  0  0  0
   -2.1479   -1.3388    4.1899 H   0  0  0  0  0  0  0  0  0  0  0  0
   -1.0952   -0.2555    2.2238 H   0  0  0  0  0  0  0  0  0  0  0  0
   -3.4324   -3.8760   -1.0532 H   0  0  0  0  0  0  0  0  0  0  0  0
   -0.9696    4.1450   -0.9408 H   0  0  0  0  0  0  0  0  0  0  0  0
   -4.8365    2.7436    0.4543 H   0  0  0  0  0  0  0  0  0  0  0  0
   -6.3396    4.6884    0.1861 H   0  0  0  0  0  0  0  0  0  0  0  0
   -3.8446    6.2586   -2.9190 H   0  0  0  0  0  0  0  0  0  0  0  0
   -2.3434    4.3023   -2.7428 H   0  0  0  0  0  0  0  0  0  0  0  0
   -4.8322    1.1172   -1.2081 H   0  0  0  0  0  0  0  0  0  0  0  0
    0.9051    0.2607   -2.0257 H   0  0  0  0  0  0  0  0  0  0  0  0
    1.9112    1.6777   -0.2619 H   0  0  0  0  0  0  0  0  0  0  0  0
    1.1463    0.7222    1.0070 H   0  0  0  0  0  0  0  0  0  0  0  0
    8.0744   -1.8021   -0.0476 H   0  0  0  0  0  0  0  0  0  0  0  0
    6.6849   -2.5458    0.7776 H   0  0  0  0  0  0  0  0  0  0  0  0
    6.6671   -2.3792   -0.9700 H   0  0  0  0  0  0  0  0  0  0  0  0
    7.8074    0.1457    1.5500 H   0  0  0  0  0  0  0  0  0  0  0  0
    6.3323    1.1117    1.5766 H   0  0  0  0  0  0  0  0  0  0  0  0
    6.3160   -0.5004    2.2773 H   0  0  0  0  0  0  0  0  0  0  0  0
    6.3763   -0.0300   -2.0245 H   0  0  0  0  0  0  0  0  0  0  0  0
    6.3470    1.3913   -0.9954 H   0  0  0  0  0  0  0  0  0  0  0  0
    7.8369    0.4545   -1.1322 H   0  0  0  0  0  0  0  0  0  0  0  0
    3.0092   -2.3025    0.4430 H   0  0  0  0  0  0  0  0  0  0  0  0
    2.6586   -1.9007   -1.2433 H   0  0  0  0  0  0  0  0  0  0  0  0
    0.7042   -1.8556    1.0998 H   0  0  0  0  0  0  0  0  0  0  0  0
    0.7224   -3.0752   -0.1796 H   0  0  0  0  0  0  0  0  0  0  0  0
  1  2  1  0
  2  3  2  0
  3  4  1  0
  3  5  1  0
  5  6  2  0
  6  7  1  0
  7  8  2  0
  8  9  1  0
  9 10  1  0
 10 11  2  0
 10 12  1  0
 12 13  1  0
 13 14  1  0
 14 15  2  0
 15 16  1  0
 15 17  1  0
 17 18  1  0
 18 19  2  0
 19 20  1  0
 20 21  2  0
 21 22  1  0
 21 23  1  0
 23 24  2  0
 17 25  1  0
 25 26  1  0
 14 27  1  0
 27 28  1  0
 28 29  1  0
 29 30  1  0
 30 31  2  0
 30 32  1  0
 32 33  1  0
 33 34  1  0
 33 35  1  0
 33 36  1  0
 29 37  1  0
 37 38  1  0
 38 39  1  0
  8  2  1  0
 12 39  1  1
 12  7  1  0
 25 13  2  0
 39 27  1  0
 24 18  1  0
  1 40  1  0
  1 41  1  0
  1 42  1  0
  5 43  1  0
  6 44  1  0
  9 45  1  0
 16 46  1  0
 19 47  1  0
 20 48  1  0
 23 49  1  0
 24 50  1  0
 26 51  1  0
 27 52  1  6
 28 53  1  0
 28 54  1  0
 34 55  1  0
 34 56  1  0
 34 57  1  0
 35 58  1  0
 35 59  1  0
 35 60  1  0
 36 61  1  0
 36 62  1  0
 36 63  1  0
 37 64  1  0
 37 65  1  0
 38 66  1  0
 38 67  1  0
M  END
$$$$
