
     RDKit          3D

 28 29  0  0  0  0  0  0  0  0999 V2000
    4.6560   -1.5607    1.2497 C   0  0  0  0  0  0  0  0  0  0  0  0
    4.1257   -0.1594    1.4884 C   0  0  0  0  0  0  0  0  0  0  0  0
    2.8200   -0.0190    0.9100 O   0  0  0  0  0  0  0  0  0  0  0  0
    2.7942    0.3429   -0.4050 C   0  0  0  0  0  0  0  0  0  0  0  0
    3.7798    0.5439   -1.1006 O   0  0  0  0  0  0  0  0  0  0  0  0
    1.4238    0.4469   -0.8444 C   0  0  0  0  0  0  0  0  0  0  0  0
    0.9402    0.7857   -2.0970 C   0  0  0  0  0  0  0  0  0  0  0  0
   -0.4757    0.7536   -2.0460 C   0  0  0  0  0  0  0  0  0  0  0  0
   -0.8369    0.3956   -0.7635 C   0  0  0  0  0  0  0  0  0  0  0  0
   -2.1232    0.2153   -0.1693 C   0  0  0  0  0  0  0  0  0  0  0  0
   -3.3757    0.3532   -0.7285 C   0  0  0  0  0  0  0  0  0  0  0  0
   -4.2809    0.0545    0.3132 C   0  0  0  0  0  0  0  0  0  0  0  0
   -5.7596    0.0458    0.2754 C   0  0  0  0  0  0  0  0  0  0  0  0
   -3.6340   -0.2483    1.4429 N   0  0  0  0  0  0  0  0  0  0  0  0
   -2.2895   -0.1478    1.1409 O   0  0  0  0  0  0  0  0  0  0  0  0
    0.3220    0.2140   -0.0501 N   0  0  0  0  0  0  0  0  0  0  0  0
    5.6249   -1.6972    1.7382 H   0  0  0  0  0  0  0  0  0  0  0  0
    4.7730   -1.7600    0.1798 H   0  0  0  0  0  0  0  0  0  0  0  0
    3.9560   -2.3079    1.6380 H   0  0  0  0  0  0  0  0  0  0  0  0
    4.0185    0.0143    2.5641 H   0  0  0  0  0  0  0  0  0  0  0  0
    4.8160    0.6021    1.1078 H   0  0  0  0  0  0  0  0  0  0  0  0
    1.5540    1.0300   -2.9562 H   0  0  0  0  0  0  0  0  0  0  0  0
   -1.1507    0.9702   -2.8639 H   0  0  0  0  0  0  0  0  0  0  0  0
   -3.6036    0.6306   -1.7463 H   0  0  0  0  0  0  0  0  0  0  0  0
   -6.1453   -0.9486    0.5222 H   0  0  0  0  0  0  0  0  0  0  0  0
   -6.1307    0.3149   -0.7188 H   0  0  0  0  0  0  0  0  0  0  0  0
   -6.1675    0.7640    0.9939 H   0  0  0  0  0  0  0  0  0  0  0  0
    0.3694   -0.0544    0.9253 H   0  0  0  0  0  0  0  0  0  0  0  0
  1  2  1  0
  2  3  1  0
  3  4  1  0
  4  5  2  0
  4  6  1  0
  6  7  2  0
  7  8  1  0
  8  9  2  0
  9 10  1  0
 10 11  2  0
 11 12  1  0
 12 13  1  0
 12 14  2  0
 14 15  1  0
  9 16  1  0
 16  6  1  0
 15 10  1  0
  1 17  1  0
  1 18  1  0
  1 19  1  0
  2 20  1  0
  2 21  1  0
  7 22  1  0
  8 23  1  0
 11 24  1  0
 13 25  1  0
 13 26  1  0
 13 27  1  0
 16 28  1  0
M  END
$$$$
