
     RDKit          3D

 34 36  0  0  0  0  0  0  0  0999 V2000
    4.2825   -1.1826    1.0728 N   0  0  0  0  0  0  0  0  0  0  0  0
    3.4352   -0.7975   -0.0485 C   0  0  0  0  0  0  0  0  0  0  0  0
    1.9986   -0.5721    0.4180 C   0  0  0  0  0  0  0  0  0  0  0  0
    1.0958   -0.2205   -0.7733 C   0  0  0  0  0  0  0  0  0  0  0  0
   -0.2956    0.0627   -0.3495 N   0  0  0  0  0  0  0  0  0  0  0  0
   -1.2138   -1.0286   -0.3662 C   0  0  0  0  0  0  0  0  0  0  0  0
   -0.7844   -2.3752   -0.4077 C   0  0  0  0  0  0  0  0  0  0  0  0
   -1.6776   -3.4539   -0.4115 C   0  0  0  0  0  0  0  0  0  0  0  0
   -3.0416   -3.2232   -0.3703 C   0  0  0  0  0  0  0  0  0  0  0  0
   -3.5035   -1.9136   -0.3218 C   0  0  0  0  0  0  0  0  0  0  0  0
   -2.6080   -0.8250   -0.3147 C   0  0  0  0  0  0  0  0  0  0  0  0
   -3.3656    0.7816   -0.2779 S   0  0  0  0  0  0  0  0  0  0  0  0
   -1.9747    1.8498    0.0019 C   0  0  0  0  0  0  0  0  0  0  0  0
   -2.2956    3.1936    0.2832 C   0  0  0  0  0  0  0  0  0  0  0  0
   -1.2994    4.1386    0.4994 C   0  0  0  0  0  0  0  0  0  0  0  0
    0.0238    3.7389    0.4347 C   0  0  0  0  0  0  0  0  0  0  0  0
    1.2768    4.8880    0.7068 Cl  0  0  0  0  0  0  0  0  0  0  0  0
    0.3522    2.4086    0.1539 C   0  0  0  0  0  0  0  0  0  0  0  0
   -0.6327    1.4213   -0.0777 C   0  0  0  0  0  0  0  0  0  0  0  0
    4.2766   -0.4521    1.7845 H   0  0  0  0  0  0  0  0  0  0  0  0
    5.2493   -1.2680    0.7603 H   0  0  0  0  0  0  0  0  0  0  0  0
    3.8318    0.1157   -0.5057 H   0  0  0  0  0  0  0  0  0  0  0  0
    3.4665   -1.5900   -0.8039 H   0  0  0  0  0  0  0  0  0  0  0  0
    1.6291   -1.4699    0.9264 H   0  0  0  0  0  0  0  0  0  0  0  0
    1.9751    0.2263    1.1688 H   0  0  0  0  0  0  0  0  0  0  0  0
    1.5143    0.6283   -1.3300 H   0  0  0  0  0  0  0  0  0  0  0  0
    1.1248   -1.0235   -1.5216 H   0  0  0  0  0  0  0  0  0  0  0  0
    0.2684   -2.6373   -0.4191 H   0  0  0  0  0  0  0  0  0  0  0  0
   -1.2971   -4.4719   -0.4404 H   0  0  0  0  0  0  0  0  0  0  0  0
   -3.7426   -4.0529   -0.3723 H   0  0  0  0  0  0  0  0  0  0  0  0
   -4.5775   -1.7401   -0.2894 H   0  0  0  0  0  0  0  0  0  0  0  0
   -3.3361    3.5101    0.3337 H   0  0  0  0  0  0  0  0  0  0  0  0
   -1.5634    5.1693    0.7165 H   0  0  0  0  0  0  0  0  0  0  0  0
    1.4085    2.1651    0.1402 H   0  0  0  0  0  0  0  0  0  0  0  0
  1  2  1  0
  2  3  1  0
  3  4  1  0
  4  5  1  0
  5  6  1  0
  6  7  2  0
  7  8  1  0
  8  9  2  0
  9 10  1  0
 10 11  2  0
 11 12  1  0
 12 13  1  0
 13 14  2  0
 14 15  1  0
 15 16  2  0
 16 17  1  0
 16 18  1  0
 18 19  2  0
 19  5  1  0
 11  6  1  0
 19 13  1  0
  1 20  1  0
  1 21  1  0
  2 22  1  0
  2 23  1  0
  3 24  1  0
  3 25  1  0
  4 26  1  0
  4 27  1  0
  7 28  1  0
  8 29  1  0
  9 30  1  0
 10 31  1  0
 14 32  1  0
 15 33  1  0
 18 34  1  0
M  END
$$$$
