
     RDKit          3D

 56 61  0  0  0  0  0  0  0  0999 V2000
    6.8889   -0.9077   -3.3350 C   0  0  0  0  0  0  0  0  0  0  0  0
    5.7195   -0.4593   -2.5078 C   0  0  0  0  0  0  0  0  0  0  0  0
    5.8574   -0.2578   -1.1308 C   0  0  0  0  0  0  0  0  0  0  0  0
    4.7614    0.1294   -0.3519 C   0  0  0  0  0  0  0  0  0  0  0  0
    3.5108    0.3100   -0.9422 C   0  0  0  0  0  0  0  0  0  0  0  0
    2.2707    0.7434   -0.0810 C   0  0  0  0  0  0  0  0  0  0  0  0
    0.9597    0.8637   -0.5269 C   0  0  0  0  0  0  0  0  0  0  0  0
    0.1500    1.2514    0.5411 N   0  0  0  0  0  4  0  0  0  0  0  0
   -1.3122    1.4484    0.5107 C   0  0  0  0  0  0  0  0  0  0  0  0
   -2.0309    0.2812    1.2199 C   0  0  0  0  0  0  0  0  0  0  0  0
   -1.5823   -0.0951    2.3059 O   0  0  0  0  0  0  0  0  0  0  0  0
   -3.0595   -0.3383    0.4892 N   0  0  0  0  0  0  0  0  0  0  0  0
   -3.3174   -1.7563    0.6014 C   0  0  0  0  0  0  0  0  0  0  0  0
   -3.0628   -2.4534    1.7969 C   0  0  0  0  0  0  0  0  0  0  0  0
   -3.2897   -3.8299    1.9101 C   0  0  0  0  0  0  0  0  0  0  0  0
   -3.7684   -4.5482    0.8242 C   0  0  0  0  0  0  0  0  0  0  0  0
   -4.0267   -3.8869   -0.3718 C   0  0  0  0  0  0  0  0  0  0  0  0
   -3.8113   -2.5030   -0.4865 C   0  0  0  0  0  0  0  0  0  0  0  0
   -4.0984   -1.7747   -2.0846 S   0  0  0  0  0  0  0  0  0  0  0  0
   -4.4598   -0.1215   -1.5637 C   0  0  0  0  0  0  0  0  0  0  0  0
   -5.2752    0.6644   -2.3913 C   0  0  0  0  0  0  0  0  0  0  0  0
   -5.5970    1.9723   -2.0364 C   0  0  0  0  0  0  0  0  0  0  0  0
   -5.1163    2.4997   -0.8453 C   0  0  0  0  0  0  0  0  0  0  0  0
   -4.2932    1.7264   -0.0227 C   0  0  0  0  0  0  0  0  0  0  0  0
   -3.9239    0.4138   -0.3829 C   0  0  0  0  0  0  0  0  0  0  0  0
    0.9278    1.3463    1.6166 C   0  0  0  0  0  0  0  0  0  0  0  0
    2.1833    1.0893    1.2556 N   0  0  0  0  0  0  0  0  0  0  0  0
    3.1077    1.2351    2.3712 C   0  0  0  0  0  0  0  0  0  0  0  0
    2.2642    1.9814    3.4406 C   0  0  0  0  0  0  0  0  0  0  0  0
    0.7990    1.7023    3.0501 C   0  0  0  0  0  0  0  0  0  0  0  0
    3.3629    0.0899   -2.3171 C   0  0  0  0  0  0  0  0  0  0  0  0
    4.4610   -0.2951   -3.0926 C   0  0  0  0  0  0  0  0  0  0  0  0
    7.8296   -0.5427   -2.9121 H   0  0  0  0  0  0  0  0  0  0  0  0
    6.9206   -2.0006   -3.3757 H   0  0  0  0  0  0  0  0  0  0  0  0
    6.8183   -0.5151   -4.3549 H   0  0  0  0  0  0  0  0  0  0  0  0
    6.8251   -0.4058   -0.6548 H   0  0  0  0  0  0  0  0  0  0  0  0
    4.9217    0.2591    0.7108 H   0  0  0  0  0  0  0  0  0  0  0  0
    0.4910    0.7067   -1.4845 H   0  0  0  0  0  0  0  0  0  0  0  0
   -1.5410    2.3826    1.0326 H   0  0  0  0  0  0  0  0  0  0  0  0
   -1.5999    1.5426   -0.5396 H   0  0  0  0  0  0  0  0  0  0  0  0
   -2.7270   -1.9478    2.6965 H   0  0  0  0  0  0  0  0  0  0  0  0
   -3.0985   -4.3357    2.8546 H   0  0  0  0  0  0  0  0  0  0  0  0
   -3.9451   -5.6184    0.9094 H   0  0  0  0  0  0  0  0  0  0  0  0
   -4.3961   -4.4623   -1.2194 H   0  0  0  0  0  0  0  0  0  0  0  0
   -5.6770    0.2571   -3.3174 H   0  0  0  0  0  0  0  0  0  0  0  0
   -6.2447    2.5671   -2.6782 H   0  0  0  0  0  0  0  0  0  0  0  0
   -5.4046    3.5052   -0.5453 H   0  0  0  0  0  0  0  0  0  0  0  0
   -4.0029    2.1533    0.9340 H   0  0  0  0  0  0  0  0  0  0  0  0
    3.9830    1.8210    2.0835 H   0  0  0  0  0  0  0  0  0  0  0  0
    3.3984    0.2399    2.7200 H   0  0  0  0  0  0  0  0  0  0  0  0
    2.4578    3.0573    3.3585 H   0  0  0  0  0  0  0  0  0  0  0  0
    2.5020    1.6718    4.4615 H   0  0  0  0  0  0  0  0  0  0  0  0
    0.1460    2.5704    3.1473 H   0  0  0  0  0  0  0  0  0  0  0  0
    0.4037    0.8255    3.5655 H   0  0  0  0  0  0  0  0  0  0  0  0
    2.4104    0.2135   -2.8239 H   0  0  0  0  0  0  0  0  0  0  0  0
    4.3297   -0.4662   -4.1609 H   0  0  0  0  0  0  0  0  0  0  0  0
  1  2  1  0
  2  3  2  0
  3  4  1  0
  4  5  2  0
  5  6  1  0
  6  7  2  0
  7  8  1  0
  8  9  1  0
  9 10  1  0
 10 11  2  0
 10 12  1  0
 12 13  1  0
 13 14  2  0
 14 15  1  0
 15 16  2  0
 16 17  1  0
 17 18  2  0
 18 19  1  0
 19 20  1  0
 20 21  2  0
 21 22  1  0
 22 23  2  0
 23 24  1  0
 24 25  2  0
  8 26  2  0
 26 27  1  0
 27 28  1  0
 28 29  1  0
 29 30  1  0
  5 31  1  0
 31 32  2  0
 32  2  1  0
 27  6  1  0
 25 12  1  0
 30 26  1  0
 18 13  1  0
 25 20  1  0
  1 33  1  0
  1 34  1  0
  1 35  1  0
  3 36  1  0
  4 37  1  0
  7 38  1  0
  9 39  1  0
  9 40  1  0
 14 41  1  0
 15 42  1  0
 16 43  1  0
 17 44  1  0
 21 45  1  0
 22 46  1  0
 23 47  1  0
 24 48  1  0
 28 49  1  0
 28 50  1  0
 29 51  1  0
 29 52  1  0
 30 53  1  0
 30 54  1  0
 31 55  1  0
 32 56  1  0
M  CHG  1   8   1
M  END
$$$$
