
     RDKit          3D

 57 61  0  0  0  0  0  0  0  0999 V2000
   -5.2492    4.3177    1.0136 C   0  0  0  0  0  0  0  0  0  0  0  0
   -4.9932    3.1254    0.1404 C   0  0  0  0  0  0  0  0  0  0  0  0
   -6.0116    2.2001   -0.1124 C   0  0  0  0  0  0  0  0  0  0  0  0
   -5.7662    1.0730   -0.8999 C   0  0  0  0  0  0  0  0  0  0  0  0
   -4.4940    0.8475   -1.4431 C   0  0  0  0  0  0  0  0  0  0  0  0
   -4.2253   -0.3744   -2.2850 C   0  0  0  0  0  0  0  0  0  0  0  0
   -4.0321   -1.5532   -1.4667 N   0  0  0  0  0  0  0  0  0  0  0  0
   -5.0299   -2.4575   -1.2982 N   0  0  0  0  0  0  0  0  0  0  0  0
   -4.5610   -3.4413   -0.5298 N   0  0  0  0  0  0  0  0  0  0  0  0
   -3.2653   -3.1447   -0.2400 C   0  0  0  0  0  0  0  0  0  0  0  0
   -2.2894   -3.8500    0.5440 C   0  0  0  0  0  0  0  0  0  0  0  0
   -2.4650   -4.9126    1.1297 O   0  0  0  0  0  0  0  0  0  0  0  0
   -1.0699   -3.1840    0.5822 N   0  0  0  0  0  0  0  0  0  0  0  0
   -0.8167   -1.9710   -0.0566 C   0  0  0  0  0  0  0  0  0  0  0  0
    0.5984   -1.4407    0.1301 C   0  0  0  0  0  0  0  0  0  0  0  0
    0.7186    0.0410   -0.2496 C   0  0  0  0  0  0  0  0  0  0  0  0
    2.1562    0.5316   -0.1163 C   0  0  0  0  0  0  0  0  0  0  0  0
    3.0356   -0.3191   -0.9492 N   0  0  0  0  0  0  0  0  0  0  0  0
    4.5486    0.3393   -1.3832 S   0  0  0  0  0  6  0  0  0  0  0  0
    5.2554   -0.6152   -2.2083 O   0  0  0  0  0  0  0  0  0  0  0  0
    4.3042    1.6838   -1.8675 O   0  0  0  0  0  0  0  0  0  0  0  0
    5.4065    0.4930    0.1544 C   0  0  0  0  0  0  0  0  0  0  0  0
    5.5252    1.7483    0.7647 C   0  0  0  0  0  0  0  0  0  0  0  0
    6.2362    1.8726    1.9599 C   0  0  0  0  0  0  0  0  0  0  0  0
    6.8345    0.7516    2.5371 C   0  0  0  0  0  0  0  0  0  0  0  0
    6.7239   -0.4939    1.9180 C   0  0  0  0  0  0  0  0  0  0  0  0
    6.0146   -0.6174    0.7251 C   0  0  0  0  0  0  0  0  0  0  0  0
    5.9105   -1.8342    0.1758 F   0  0  0  0  0  0  0  0  0  0  0  0
    3.0102   -1.7459   -0.5602 C   0  0  0  0  0  0  0  0  0  0  0  0
    1.5853   -2.2786   -0.6942 C   0  0  0  0  0  0  0  0  0  0  0  0
   -1.6939   -1.3339   -0.7813 N   0  0  0  0  0  0  0  0  0  0  0  0
   -2.8953   -1.9600   -0.8289 C   0  0  0  0  0  0  0  0  0  0  0  0
   -3.4693    1.7637   -1.1692 C   0  0  0  0  0  0  0  0  0  0  0  0
   -3.7168    2.8910   -0.3826 C   0  0  0  0  0  0  0  0  0  0  0  0
   -4.6236    5.1641    0.7112 H   0  0  0  0  0  0  0  0  0  0  0  0
   -6.2924    4.6420    0.9373 H   0  0  0  0  0  0  0  0  0  0  0  0
   -5.0311    4.0708    2.0571 H   0  0  0  0  0  0  0  0  0  0  0  0
   -7.0053    2.3489    0.3048 H   0  0  0  0  0  0  0  0  0  0  0  0
   -6.5747    0.3655   -1.0787 H   0  0  0  0  0  0  0  0  0  0  0  0
   -3.3287   -0.2449   -2.9022 H   0  0  0  0  0  0  0  0  0  0  0  0
   -5.0607   -0.5612   -2.9701 H   0  0  0  0  0  0  0  0  0  0  0  0
   -0.3597   -3.6440    1.1318 H   0  0  0  0  0  0  0  0  0  0  0  0
    0.8505   -1.5511    1.1939 H   0  0  0  0  0  0  0  0  0  0  0  0
    0.3847    0.1946   -1.2845 H   0  0  0  0  0  0  0  0  0  0  0  0
    0.0621    0.6466    0.3868 H   0  0  0  0  0  0  0  0  0  0  0  0
    2.1965    1.5742   -0.4466 H   0  0  0  0  0  0  0  0  0  0  0  0
    2.4767    0.4915    0.9310 H   0  0  0  0  0  0  0  0  0  0  0  0
    5.0783    2.6326    0.3137 H   0  0  0  0  0  0  0  0  0  0  0  0
    6.3337    2.8464    2.4359 H   0  0  0  0  0  0  0  0  0  0  0  0
    7.3940    0.8504    3.4648 H   0  0  0  0  0  0  0  0  0  0  0  0
    7.1913   -1.3711    2.3565 H   0  0  0  0  0  0  0  0  0  0  0  0
    3.6605   -2.3380   -1.2112 H   0  0  0  0  0  0  0  0  0  0  0  0
    3.3534   -1.8619    0.4734 H   0  0  0  0  0  0  0  0  0  0  0  0
    1.2856   -2.2671   -1.7507 H   0  0  0  0  0  0  0  0  0  0  0  0
    1.5604   -3.3273   -0.3751 H   0  0  0  0  0  0  0  0  0  0  0  0
   -2.4664    1.6013   -1.5600 H   0  0  0  0  0  0  0  0  0  0  0  0
   -2.9050    3.5858   -0.1795 H   0  0  0  0  0  0  0  0  0  0  0  0
  1  2  1  0
  2  3  2  0
  3  4  1  0
  4  5  2  0
  5  6  1  0
  6  7  1  0
  7  8  1  0
  8  9  2  0
  9 10  1  0
 10 11  1  0
 11 12  2  0
 11 13  1  0
 13 14  1  0
 14 15  1  0
 15 16  1  0
 16 17  1  0
 17 18  1  0
 18 19  1  0
 19 20  2  0
 19 21  2  0
 19 22  1  0
 22 23  2  0
 23 24  1  0
 24 25  2  0
 25 26  1  0
 26 27  2  0
 27 28  1  0
 18 29  1  0
 29 30  1  0
 14 31  2  0
 31 32  1  0
  5 33  1  0
 33 34  2  0
 34  2  1  0
 32  7  1  0
 32 10  2  0
 30 15  1  0
 27 22  1  0
  1 35  1  0
  1 36  1  0
  1 37  1  0
  3 38  1  0
  4 39  1  0
  6 40  1  0
  6 41  1  0
 13 42  1  0
 15 43  1  0
 16 44  1  0
 16 45  1  0
 17 46  1  0
 17 47  1  0
 23 48  1  0
 24 49  1  0
 25 50  1  0
 26 51  1  0
 29 52  1  0
 29 53  1  0
 30 54  1  0
 30 55  1  0
 33 56  1  0
 34 57  1  0
M  END
$$$$
