
     RDKit          3D

 61 65  0  0  0  0  0  0  0  0999 V2000
   -8.2626    3.3668   -2.8199 C   0  0  0  0  0  0  0  0  0  0  0  0
   -7.3147    2.3633   -2.2361 C   0  0  0  0  0  0  0  0  0  0  0  0
   -6.0269    2.7318   -1.8430 C   0  0  0  0  0  0  0  0  0  0  0  0
   -5.1369    1.7766   -1.3320 C   0  0  0  0  0  0  0  0  0  0  0  0
   -5.5006    0.4243   -1.2110 C   0  0  0  0  0  0  0  0  0  0  0  0
   -4.5707   -0.6051   -0.6971 C   0  0  0  0  0  0  0  0  0  0  0  0
   -3.1989   -0.5385   -0.8649 C   0  0  0  0  0  0  0  0  0  0  0  0
   -2.4140   -1.5695   -0.3503 C   0  0  0  0  0  0  0  0  0  0  0  0
   -0.9524   -1.4335   -0.5301 C   0  0  0  0  0  0  0  0  0  0  0  0
   -0.5201   -1.3805   -1.6736 O   0  0  0  0  0  0  0  0  0  0  0  0
   -0.2463   -1.3419    0.6549 N   0  0  0  0  0  0  0  0  0  0  0  0
    1.1512   -1.2352    0.8075 C   0  0  0  0  0  0  0  0  0  0  0  0
    1.6502   -1.1607    2.1169 C   0  0  0  0  0  0  0  0  0  0  0  0
    3.0253   -1.0710    2.3540 C   0  0  0  0  0  0  0  0  0  0  0  0
    3.9089   -1.0421    1.2726 C   0  0  0  0  0  0  0  0  0  0  0  0
    5.6568   -0.9792    1.5655 S   0  0  0  0  0  6  0  0  0  0  0  0
    5.9126   -1.6805    2.8088 O   0  0  0  0  0  0  0  0  0  0  0  0
    6.3589   -1.3511    0.3555 O   0  0  0  0  0  0  0  0  0  0  0  0
    5.9138    0.6476    1.9068 N   0  0  0  0  0  0  0  0  0  0  0  0
    6.2138    1.4689    0.7518 C   0  0  0  0  0  0  0  0  0  0  0  0
    5.4244    1.5572   -0.3513 O   0  0  0  0  0  0  0  0  0  0  0  0
    5.9789    2.4443   -1.2522 N   0  0  0  0  0  0  0  0  0  0  0  0
    7.1113    2.8776   -0.6820 C   0  0  0  0  0  0  0  0  0  0  0  0
    7.9769    3.8361   -1.4134 C   0  0  0  0  0  0  0  0  0  0  0  0
    7.3064    2.2979    0.6073 C   0  0  0  0  0  0  0  0  0  0  0  0
    8.4343    2.5017    1.5438 C   0  0  0  0  0  0  0  0  0  0  0  0
    3.4281   -1.1262   -0.0340 C   0  0  0  0  0  0  0  0  0  0  0  0
    2.0506   -1.2197   -0.2618 C   0  0  0  0  0  0  0  0  0  0  0  0
   -2.9923   -2.6846    0.2886 C   0  0  0  0  0  0  0  0  0  0  0  0
   -2.2766   -3.8103    0.7731 C   0  0  0  0  0  0  0  0  0  0  0  0
   -2.9378   -4.8688    1.3913 C   0  0  0  0  0  0  0  0  0  0  0  0
   -4.3173   -4.8222    1.5298 C   0  0  0  0  0  0  0  0  0  0  0  0
   -5.0250   -3.7216    1.0407 C   0  0  0  0  0  0  0  0  0  0  0  0
   -4.3914   -2.6572    0.4151 C   0  0  0  0  0  0  0  0  0  0  0  0
   -5.1477   -1.6495   -0.0514 N   0  0  0  0  0  0  0  0  0  0  0  0
   -6.8031    0.0760   -1.6088 C   0  0  0  0  0  0  0  0  0  0  0  0
   -7.6958    1.0264   -2.1177 C   0  0  0  0  0  0  0  0  0  0  0  0
   -7.9476    4.3922   -2.5925 H   0  0  0  0  0  0  0  0  0  0  0  0
   -8.3058    3.2507   -3.9083 H   0  0  0  0  0  0  0  0  0  0  0  0
   -9.2681    3.2319   -2.4049 H   0  0  0  0  0  0  0  0  0  0  0  0
   -5.7017    3.7652   -1.9311 H   0  0  0  0  0  0  0  0  0  0  0  0
   -4.1528    2.1155   -1.0224 H   0  0  0  0  0  0  0  0  0  0  0  0
   -2.7316    0.2813   -1.3996 H   0  0  0  0  0  0  0  0  0  0  0  0
   -0.7894   -1.3475    1.5109 H   0  0  0  0  0  0  0  0  0  0  0  0
    0.9775   -1.1785    2.9703 H   0  0  0  0  0  0  0  0  0  0  0  0
    3.3972   -1.0303    3.3754 H   0  0  0  0  0  0  0  0  0  0  0  0
    6.4719    0.7690    2.7462 H   0  0  0  0  0  0  0  0  0  0  0  0
    8.7759    3.3023   -1.9384 H   0  0  0  0  0  0  0  0  0  0  0  0
    7.4029    4.4067   -2.1524 H   0  0  0  0  0  0  0  0  0  0  0  0
    8.4349    4.5555   -0.7285 H   0  0  0  0  0  0  0  0  0  0  0  0
    9.1405    1.6687    1.4659 H   0  0  0  0  0  0  0  0  0  0  0  0
    8.9751    3.4289    1.3303 H   0  0  0  0  0  0  0  0  0  0  0  0
    8.0806    2.5571    2.5799 H   0  0  0  0  0  0  0  0  0  0  0  0
    4.1094   -1.1226   -0.8828 H   0  0  0  0  0  0  0  0  0  0  0  0
    1.7158   -1.2858   -1.2927 H   0  0  0  0  0  0  0  0  0  0  0  0
   -1.1970   -3.8828    0.6492 H   0  0  0  0  0  0  0  0  0  0  0  0
   -2.3788   -5.7300    1.7499 H   0  0  0  0  0  0  0  0  0  0  0  0
   -4.8517   -5.6442    2.0022 H   0  0  0  0  0  0  0  0  0  0  0  0
   -6.1085   -3.6998    1.1401 H   0  0  0  0  0  0  0  0  0  0  0  0
   -7.1310   -0.9592   -1.5328 H   0  0  0  0  0  0  0  0  0  0  0  0
   -8.6890    0.7077   -2.4244 H   0  0  0  0  0  0  0  0  0  0  0  0
  1  2  1  0
  2  3  2  0
  3  4  1  0
  4  5  2  0
  5  6  1  0
  6  7  2  0
  7  8  1  0
  8  9  1  0
  9 10  2  0
  9 11  1  0
 11 12  1  0
 12 13  2  0
 13 14  1  0
 14 15  2  0
 15 16  1  0
 16 17  2  0
 16 18  2  0
 16 19  1  0
 19 20  1  0
 20 21  1  0
 21 22  1  0
 22 23  2  0
 23 24  1  0
 23 25  1  0
 25 26  1  0
 15 27  1  0
 27 28  2  0
  8 29  2  0
 29 30  1  0
 30 31  2  0
 31 32  1  0
 32 33  2  0
 33 34  1  0
 34 35  2  0
  5 36  1  0
 36 37  2  0
 37  2  1  0
 35  6  1  0
 28 12  1  0
 34 29  1  0
 25 20  2  0
  1 38  1  0
  1 39  1  0
  1 40  1  0
  3 41  1  0
  4 42  1  0
  7 43  1  0
 11 44  1  0
 13 45  1  0
 14 46  1  0
 19 47  1  0
 24 48  1  0
 24 49  1  0
 24 50  1  0
 26 51  1  0
 26 52  1  0
 26 53  1  0
 27 54  1  0
 28 55  1  0
 30 56  1  0
 31 57  1  0
 32 58  1  0
 33 59  1  0
 36 60  1  0
 37 61  1  0
M  END
$$$$
