
     RDKit          3D

 59 64  0  0  0  0  0  0  0  0999 V2000
   -4.0791    1.4432   -2.0879 C   0  0  0  0  0  0  0  0  0  0  0  0
   -3.9218    1.4836   -0.6113 C   0  0  0  0  0  0  0  0  0  0  0  0
   -3.5889    2.5562    0.0742 N   0  0  0  0  0  0  0  0  0  0  0  0
   -3.6464    2.1929    1.3920 C   0  0  0  0  0  0  0  0  0  0  0  0
   -3.4192    2.9740    2.5327 C   0  0  0  0  0  0  0  0  0  0  0  0
   -3.5819    2.3919    3.7945 C   0  0  0  0  0  0  0  0  0  0  0  0
   -3.9593    1.0558    3.9147 C   0  0  0  0  0  0  0  0  0  0  0  0
   -4.1783    0.2571    2.7870 C   0  0  0  0  0  0  0  0  0  0  0  0
   -4.0095    0.8574    1.5299 C   0  0  0  0  0  0  0  0  0  0  0  0
   -4.1354    0.4084    0.2299 N   0  0  0  0  0  0  0  0  0  0  0  0
   -4.5287   -0.9300   -0.1730 C   0  0  0  0  0  0  0  0  0  0  0  0
   -3.5479   -2.0412    0.1935 C   0  0  0  0  0  0  0  0  0  0  0  0
   -2.2083   -1.9399   -0.4439 C   0  0  0  0  0  0  0  0  0  0  0  0
   -1.9089   -1.0484   -1.4430 N   0  0  0  0  0  0  0  0  0  0  0  0
   -0.6301   -1.2631   -1.6592 C   0  0  0  0  0  0  0  0  0  0  0  0
    0.3310   -0.6143   -2.5229 C   0  0  0  0  0  0  0  0  0  0  0  0
    0.0037    0.4620   -3.3453 C   0  0  0  0  0  0  0  0  0  0  0  0
    0.9950    1.0501   -4.1330 C   0  0  0  0  0  0  0  0  0  0  0  0
    2.3028    0.5609   -4.0990 C   0  0  0  0  0  0  0  0  0  0  0  0
    2.6277   -0.5187   -3.2749 C   0  0  0  0  0  0  0  0  0  0  0  0
    1.6504   -1.1156   -2.4783 C   0  0  0  0  0  0  0  0  0  0  0  0
    2.0201   -2.2010   -1.6434 N   0  0  0  0  0  0  0  0  0  0  0  0
    1.1227   -2.7583   -0.8787 C   0  0  0  0  0  0  0  0  0  0  0  0
    1.6038   -4.1079    0.1345 S   0  0  0  0  0  0  0  0  0  0  0  0
    2.5545   -3.1980    1.3829 C   0  0  0  0  0  0  0  0  0  0  0  0
    3.8356   -2.6256    0.7976 C   0  0  0  0  0  0  0  0  0  0  0  0
    4.7087   -3.3225    0.2893 O   0  0  0  0  0  0  0  0  0  0  0  0
    3.9438   -1.2564    0.8991 N   0  0  0  0  0  0  0  0  0  0  0  0
    5.0603   -0.5692    0.2917 C   0  0  0  0  0  0  0  0  0  0  0  0
    5.0179    0.8549    0.6901 C   0  0  0  0  0  0  0  0  0  0  0  0
    4.4164    1.9699    0.1452 C   0  0  0  0  0  0  0  0  0  0  0  0
    4.7500    3.0544    0.9896 C   0  0  0  0  0  0  0  0  0  0  0  0
    5.5302    2.5287    1.9944 C   0  0  0  0  0  0  0  0  0  0  0  0
    5.6929    1.1937    1.8237 O   0  0  0  0  0  0  0  0  0  0  0  0
   -0.1981   -2.2926   -0.8697 N   0  0  0  0  0  0  0  0  0  0  0  0
   -1.1957   -2.7349   -0.0706 N   0  0  0  0  0  0  0  0  0  0  0  0
   -3.3799    0.7385   -2.5426 H   0  0  0  0  0  0  0  0  0  0  0  0
   -5.1009    1.1580   -2.3635 H   0  0  0  0  0  0  0  0  0  0  0  0
   -3.8819    2.4299   -2.5207 H   0  0  0  0  0  0  0  0  0  0  0  0
   -3.1382    4.0168    2.4257 H   0  0  0  0  0  0  0  0  0  0  0  0
   -3.4214    2.9951    4.6845 H   0  0  0  0  0  0  0  0  0  0  0  0
   -4.0884    0.6292    4.9083 H   0  0  0  0  0  0  0  0  0  0  0  0
   -4.4787   -0.7766    2.8999 H   0  0  0  0  0  0  0  0  0  0  0  0
   -5.4968   -1.1213    0.3080 H   0  0  0  0  0  0  0  0  0  0  0  0
   -4.7137   -0.9315   -1.2515 H   0  0  0  0  0  0  0  0  0  0  0  0
   -3.9946   -2.9981   -0.1058 H   0  0  0  0  0  0  0  0  0  0  0  0
   -3.4160   -2.0893    1.2801 H   0  0  0  0  0  0  0  0  0  0  0  0
   -1.0115    0.8499   -3.3692 H   0  0  0  0  0  0  0  0  0  0  0  0
    0.7489    1.8919   -4.7752 H   0  0  0  0  0  0  0  0  0  0  0  0
    3.0723    1.0203   -4.7170 H   0  0  0  0  0  0  0  0  0  0  0  0
    3.6461   -0.9000   -3.2548 H   0  0  0  0  0  0  0  0  0  0  0  0
    1.9261   -2.4097    1.8146 H   0  0  0  0  0  0  0  0  0  0  0  0
    2.8331   -3.8805    2.1939 H   0  0  0  0  0  0  0  0  0  0  0  0
    3.1955   -0.7033    1.2875 H   0  0  0  0  0  0  0  0  0  0  0  0
    4.9764   -0.6646   -0.7970 H   0  0  0  0  0  0  0  0  0  0  0  0
    5.9939   -1.0485    0.6042 H   0  0  0  0  0  0  0  0  0  0  0  0
    3.8139    1.9974   -0.7555 H   0  0  0  0  0  0  0  0  0  0  0  0
    4.4604    4.0898    0.8735 H   0  0  0  0  0  0  0  0  0  0  0  0
    6.0254    2.9491    2.8577 H   0  0  0  0  0  0  0  0  0  0  0  0
  1  2  1  0
  2  3  2  0
  3  4  1  0
  4  5  2  0
  5  6  1  0
  6  7  2  0
  7  8  1  0
  8  9  2  0
  9 10  1  0
 10 11  1  0
 11 12  1  0
 12 13  1  0
 13 14  1  0
 14 15  2  0
 15 16  1  0
 16 17  2  0
 17 18  1  0
 18 19  2  0
 19 20  1  0
 20 21  2  0
 21 22  1  0
 22 23  2  0
 23 24  1  0
 24 25  1  0
 25 26  1  0
 26 27  2  0
 26 28  1  0
 28 29  1  0
 29 30  1  0
 30 31  2  0
 31 32  1  0
 32 33  2  0
 33 34  1  0
 23 35  1  0
 35 36  1  0
 10  2  1  0
 36 13  2  0
  9  4  1  0
 35 15  1  0
 21 16  1  0
 34 30  1  0
  1 37  1  0
  1 38  1  0
  1 39  1  0
  5 40  1  0
  6 41  1  0
  7 42  1  0
  8 43  1  0
 11 44  1  0
 11 45  1  0
 12 46  1  0
 12 47  1  0
 17 48  1  0
 18 49  1  0
 19 50  1  0
 20 51  1  0
 25 52  1  0
 25 53  1  0
 28 54  1  0
 29 55  1  0
 29 56  1  0
 31 57  1  0
 32 58  1  0
 33 59  1  0
M  END
$$$$
