
     RDKit          3D

 47 49  0  0  0  0  0  0  0  0999 V2000
   -3.3923   -0.5422   -2.5208 C   0  0  0  0  0  0  0  0  0  0  0  0
   -2.8946   -0.9507   -1.1445 C   0  0  0  0  0  0  0  0  0  0  0  0
   -3.4381   -0.0819   -0.0917 N   0  0  0  0  0  4  0  0  0  0  0  0
   -2.8091    1.0006    0.3466 C   0  0  0  0  0  0  0  0  0  0  0  0
   -1.5547    1.4966   -0.0773 C   0  0  0  0  0  0  0  0  0  0  0  0
   -0.3781    0.9818    0.3150 C   0  0  0  0  0  0  0  0  0  0  0  0
   -0.1585   -0.1129    1.2430 C   0  0  0  0  0  0  0  0  0  0  0  0
    1.0296   -0.6801    1.5109 C   0  0  0  0  0  0  0  0  0  0  0  0
    2.3064   -0.3094    0.8980 C   0  0  0  0  0  0  0  0  0  0  0  0
    2.8010   -1.0299   -0.1847 C   0  0  0  0  0  0  0  0  0  0  0  0
    4.0106   -0.6562   -0.7885 C   0  0  0  0  0  0  0  0  0  0  0  0
    4.7737    0.4353   -0.3356 C   0  0  0  0  0  0  0  0  0  0  0  0
    5.9644    0.8127   -0.9675 N   0  0  0  0  0  0  0  0  0  0  0  0
    6.7779    1.8815   -0.3881 C   0  0  0  0  0  0  0  0  0  0  0  0
    6.7144   -0.2100   -1.7002 C   0  0  0  0  0  0  0  0  0  0  0  0
    4.2406    1.1448    0.7552 C   0  0  0  0  0  0  0  0  0  0  0  0
    3.0335    0.7801    1.3697 C   0  0  0  0  0  0  0  0  0  0  0  0
   -3.7416    1.8244    1.5249 S   0  0  0  0  0  0  0  0  0  0  0  0
   -4.9985    0.6531    1.4479 C   0  0  0  0  0  0  0  0  0  0  0  0
   -6.1997    0.6078    2.1724 C   0  0  0  0  0  0  0  0  0  0  0  0
   -7.0790   -0.4487    1.9240 C   0  0  0  0  0  0  0  0  0  0  0  0
   -6.7736   -1.4264    0.9828 C   0  0  0  0  0  0  0  0  0  0  0  0
   -5.5735   -1.3764    0.2626 C   0  0  0  0  0  0  0  0  0  0  0  0
   -4.6719   -0.3196    0.5055 C   0  0  0  0  0  0  0  0  0  0  0  0
   -4.4838   -0.5959   -2.5778 H   0  0  0  0  0  0  0  0  0  0  0  0
   -3.0972    0.4857   -2.7542 H   0  0  0  0  0  0  0  0  0  0  0  0
   -2.9760   -1.2020   -3.2877 H   0  0  0  0  0  0  0  0  0  0  0  0
   -3.1691   -1.9900   -0.9343 H   0  0  0  0  0  0  0  0  0  0  0  0
   -1.8010   -0.9357   -1.1321 H   0  0  0  0  0  0  0  0  0  0  0  0
   -1.5512    2.3584   -0.7430 H   0  0  0  0  0  0  0  0  0  0  0  0
    0.5204    1.4519   -0.0909 H   0  0  0  0  0  0  0  0  0  0  0  0
   -1.0141   -0.5015    1.7911 H   0  0  0  0  0  0  0  0  0  0  0  0
    1.0956   -1.4913    2.2339 H   0  0  0  0  0  0  0  0  0  0  0  0
    2.2582   -1.8847   -0.5789 H   0  0  0  0  0  0  0  0  0  0  0  0
    4.3361   -1.2434   -1.6420 H   0  0  0  0  0  0  0  0  0  0  0  0
    6.2059    2.8111   -0.2962 H   0  0  0  0  0  0  0  0  0  0  0  0
    7.6316    2.1191   -1.0328 H   0  0  0  0  0  0  0  0  0  0  0  0
    7.1704    1.5910    0.5920 H   0  0  0  0  0  0  0  0  0  0  0  0
    6.9432   -1.0675   -1.0576 H   0  0  0  0  0  0  0  0  0  0  0  0
    6.1636   -0.5493   -2.5836 H   0  0  0  0  0  0  0  0  0  0  0  0
    7.6665    0.1843   -2.0729 H   0  0  0  0  0  0  0  0  0  0  0  0
    4.7582    2.0053    1.1684 H   0  0  0  0  0  0  0  0  0  0  0  0
    2.6755    1.3618    2.2158 H   0  0  0  0  0  0  0  0  0  0  0  0
   -6.4473    1.3714    2.9067 H   0  0  0  0  0  0  0  0  0  0  0  0
   -8.0187   -0.5042    2.4745 H   0  0  0  0  0  0  0  0  0  0  0  0
   -7.4794   -2.2380    0.8064 H   0  0  0  0  0  0  0  0  0  0  0  0
   -5.3764   -2.1586   -0.4644 H   0  0  0  0  0  0  0  0  0  0  0  0
  1  2  1  0
  2  3  1  0
  3  4  2  0
  4  5  1  0
  5  6  2  3
  6  7  1  0
  7  8  2  3
  8  9  1  0
  9 10  2  0
 10 11  1  0
 11 12  2  0
 12 13  1  0
 13 14  1  0
 13 15  1  0
 12 16  1  0
 16 17  2  0
  4 18  1  0
 18 19  1  0
 19 20  2  0
 20 21  1  0
 21 22  2  0
 22 23  1  0
 23 24  2  0
 24  3  1  0
 17  9  1  0
 24 19  1  0
  1 25  1  0
  1 26  1  0
  1 27  1  0
  2 28  1  0
  2 29  1  0
  5 30  1  0
  6 31  1  0
  7 32  1  0
  8 33  1  0
 10 34  1  0
 11 35  1  0
 14 36  1  0
 14 37  1  0
 14 38  1  0
 15 39  1  0
 15 40  1  0
 15 41  1  0
 16 42  1  0
 17 43  1  0
 20 44  1  0
 21 45  1  0
 22 46  1  0
 23 47  1  0
M  CHG  1   3   1
M  END
$$$$
