
     RDKit          3D

 39 40  0  0  0  0  0  0  0  0999 V2000
    6.3405    0.6927   -2.1301 C   0  0  0  0  0  0  0  0  0  0  0  0
    4.9868    0.3256   -1.5393 C   0  0  0  0  0  0  0  0  0  0  0  0
    4.7113    0.9870   -0.1770 C   0  0  0  0  0  0  0  0  0  0  0  0
    5.7059    0.5367    0.8947 C   0  0  0  0  0  0  0  0  0  0  0  0
    3.2728    0.6828    0.2653 C   0  0  0  0  0  0  0  0  0  0  0  0
    3.0341   -0.0958    1.1816 O   0  0  0  0  0  0  0  0  0  0  0  0
    2.3440    1.3664   -0.4893 N   0  0  0  0  0  0  0  0  0  0  0  0
    0.9782    1.3125   -0.3683 C   0  0  0  0  0  0  0  0  0  0  0  0
    0.1845    2.0201   -1.1419 N   0  0  0  0  0  0  0  0  0  0  0  0
   -1.1490    1.8140   -0.8509 N   0  0  0  0  0  0  0  0  0  0  0  0
   -1.3088    0.9545    0.1342 C   0  0  0  0  0  0  0  0  0  0  0  0
   -2.6291    0.5189    0.6767 C   0  0  0  0  0  0  0  0  0  0  0  0
   -3.2334   -0.5932   -0.1819 C   0  0  0  0  0  0  0  0  0  0  0  0
   -4.5701   -1.0424    0.3542 C   0  0  0  0  0  0  0  0  0  0  0  0
   -5.7487   -0.4032   -0.0531 C   0  0  0  0  0  0  0  0  0  0  0  0
   -6.9831   -0.8044    0.4597 C   0  0  0  0  0  0  0  0  0  0  0  0
   -7.0502   -1.8437    1.3856 C   0  0  0  0  0  0  0  0  0  0  0  0
   -5.8831   -2.4825    1.8006 C   0  0  0  0  0  0  0  0  0  0  0  0
   -4.6474   -2.0831    1.2893 C   0  0  0  0  0  0  0  0  0  0  0  0
    0.1641    0.3411    0.7683 S   0  0  0  0  0  0  0  0  0  0  0  0
    7.1632    0.2953   -1.5288 H   0  0  0  0  0  0  0  0  0  0  0  0
    6.4554    1.7786   -2.2039 H   0  0  0  0  0  0  0  0  0  0  0  0
    6.4362    0.2730   -3.1368 H   0  0  0  0  0  0  0  0  0  0  0  0
    4.9169   -0.7654   -1.4450 H   0  0  0  0  0  0  0  0  0  0  0  0
    4.2135    0.6168   -2.2604 H   0  0  0  0  0  0  0  0  0  0  0  0
    4.7982    2.0773   -0.2762 H   0  0  0  0  0  0  0  0  0  0  0  0
    6.7187    0.8837    0.6689 H   0  0  0  0  0  0  0  0  0  0  0  0
    5.7297   -0.5549    0.9838 H   0  0  0  0  0  0  0  0  0  0  0  0
    5.4326    0.9433    1.8749 H   0  0  0  0  0  0  0  0  0  0  0  0
    2.6532    1.9993   -1.2139 H   0  0  0  0  0  0  0  0  0  0  0  0
   -3.3026    1.3853    0.6968 H   0  0  0  0  0  0  0  0  0  0  0  0
   -2.5286    0.1868    1.7178 H   0  0  0  0  0  0  0  0  0  0  0  0
   -3.3528   -0.2552   -1.2200 H   0  0  0  0  0  0  0  0  0  0  0  0
   -2.5540   -1.4544   -0.2305 H   0  0  0  0  0  0  0  0  0  0  0  0
   -5.7127    0.4112   -0.7736 H   0  0  0  0  0  0  0  0  0  0  0  0
   -7.8930   -0.3054    0.1365 H   0  0  0  0  0  0  0  0  0  0  0  0
   -8.0120   -2.1558    1.7839 H   0  0  0  0  0  0  0  0  0  0  0  0
   -5.9354   -3.2926    2.5233 H   0  0  0  0  0  0  0  0  0  0  0  0
   -3.7460   -2.5911    1.6250 H   0  0  0  0  0  0  0  0  0  0  0  0
  1  2  1  0
  2  3  1  0
  3  4  1  0
  3  5  1  0
  5  6  2  0
  5  7  1  0
  7  8  1  0
  8  9  2  0
  9 10  1  0
 10 11  2  0
 11 12  1  0
 12 13  1  0
 13 14  1  0
 14 15  2  0
 15 16  1  0
 16 17  2  0
 17 18  1  0
 18 19  2  0
 11 20  1  0
 20  8  1  0
 19 14  1  0
  1 21  1  0
  1 22  1  0
  1 23  1  0
  2 24  1  0
  2 25  1  0
  3 26  1  0
  4 27  1  0
  4 28  1  0
  4 29  1  0
  7 30  1  0
 12 31  1  0
 12 32  1  0
 13 33  1  0
 13 34  1  0
 15 35  1  0
 16 36  1  0
 17 37  1  0
 18 38  1  0
 19 39  1  0
M  END
$$$$
