
     RDKit          3D

 56 61  0  0  0  0  0  0  0  0999 V2000
    5.8604   -1.0134    0.5993 C   0  0  0  0  0  0  0  0  0  0  0  0
    4.6141   -0.6908   -0.1697 C   0  0  0  0  0  0  0  0  0  0  0  0
    4.6668   -0.2564   -1.5079 C   0  0  0  0  0  0  0  0  0  0  0  0
    6.1774   -0.0691   -2.3309 Cl  0  0  0  0  0  0  0  0  0  0  0  0
    3.4972    0.0486   -2.2324 C   0  0  0  0  0  0  0  0  0  0  0  0
    2.2378   -0.0733   -1.6445 C   0  0  0  0  0  0  0  0  0  0  0  0
    2.1735   -0.4984   -0.3270 C   0  0  0  0  0  0  0  0  0  0  0  0
    3.3451   -0.7980    0.3865 C   0  0  0  0  0  0  0  0  0  0  0  0
    3.0146   -1.1894    1.6818 N   0  0  0  0  0  0  0  0  0  0  0  0
    1.6340   -1.1831    1.8958 C   0  0  0  0  0  0  0  0  0  0  0  0
    1.0951   -1.4778    2.9519 O   0  0  0  0  0  0  0  0  0  0  0  0
    0.9833   -0.7280    0.5620 C   0  0  0  0  0  0  0  0  0  0  0  0
    0.0034   -1.7363    0.0539 N   0  0  0  0  0  0  0  0  0  0  0  0
   -1.3861   -1.2424    0.3721 C   0  0  2  0  0  0  0  0  0  0  0  0
   -2.3955   -1.5526   -0.7501 C   0  0  0  0  0  0  0  0  0  0  0  0
   -2.5868   -3.0246   -1.0350 C   0  0  0  0  0  0  0  0  0  0  0  0
   -2.2831   -3.5459   -2.3008 C   0  0  0  0  0  0  0  0  0  0  0  0
   -2.4672   -4.9029   -2.5717 C   0  0  0  0  0  0  0  0  0  0  0  0
   -2.9602   -5.7518   -1.5834 C   0  0  0  0  0  0  0  0  0  0  0  0
   -3.2721   -5.2442   -0.3241 C   0  0  0  0  0  0  0  0  0  0  0  0
   -3.0897   -3.8874   -0.0510 C   0  0  0  0  0  0  0  0  0  0  0  0
   -1.1649    0.2136    0.5715 C   0  0  0  0  0  0  0  0  0  0  0  0
    0.1927    0.5082    0.6771 C   0  0  0  0  0  0  0  0  0  0  0  0
    0.3404    1.8601    0.8567 C   0  0  0  0  0  0  0  0  0  0  0  0
    1.4507    2.5894    0.9428 O   0  0  0  0  0  0  0  0  0  0  0  0
   -0.9536    2.4278    0.8796 N   0  0  0  0  0  0  0  0  0  0  0  0
   -1.2718    3.8229    1.0357 C   0  0  0  0  0  0  0  0  0  0  0  0
   -2.4849    4.3401    0.5507 C   0  0  0  0  0  0  0  0  0  0  0  0
   -2.7929    5.6966    0.6990 C   0  0  0  0  0  0  0  0  0  0  0  0
   -1.8926    6.5405    1.3326 C   0  0  0  0  0  0  0  0  0  0  0  0
   -2.1889    7.8390    1.4740 F   0  0  0  0  0  0  0  0  0  0  0  0
   -0.6888    6.0543    1.8212 C   0  0  0  0  0  0  0  0  0  0  0  0
   -0.3772    4.6986    1.6731 C   0  0  0  0  0  0  0  0  0  0  0  0
   -1.8803    1.3718    0.7257 C   0  0  0  0  0  0  0  0  0  0  0  0
   -3.1967    1.5531    0.7952 O   0  0  0  0  0  0  0  0  0  0  0  0
    5.6492   -1.3526    1.6171 H   0  0  0  0  0  0  0  0  0  0  0  0
    6.4965   -0.1259    0.6807 H   0  0  0  0  0  0  0  0  0  0  0  0
    6.4163   -1.8160    0.1036 H   0  0  0  0  0  0  0  0  0  0  0  0
    3.5714    0.3851   -3.2650 H   0  0  0  0  0  0  0  0  0  0  0  0
    1.3403    0.1694   -2.2062 H   0  0  0  0  0  0  0  0  0  0  0  0
    3.6572   -1.4702    2.4073 H   0  0  0  0  0  0  0  0  0  0  0  0
    0.0893   -1.7684   -0.9589 H   0  0  0  0  0  0  0  0  0  0  0  0
   -1.7008   -1.6960    1.3196 H   0  0  0  0  0  0  0  0  0  0  0  0
   -3.3778   -1.1349   -0.4934 H   0  0  0  0  0  0  0  0  0  0  0  0
   -2.0939   -1.0346   -1.6713 H   0  0  0  0  0  0  0  0  0  0  0  0
   -1.9007   -2.9008   -3.0882 H   0  0  0  0  0  0  0  0  0  0  0  0
   -2.2262   -5.2983   -3.5550 H   0  0  0  0  0  0  0  0  0  0  0  0
   -3.1017   -6.8085   -1.7940 H   0  0  0  0  0  0  0  0  0  0  0  0
   -3.6566   -5.9059    0.4478 H   0  0  0  0  0  0  0  0  0  0  0  0
   -3.3419   -3.5138    0.9387 H   0  0  0  0  0  0  0  0  0  0  0  0
    2.2182    1.9993    0.8456 H   0  0  0  0  0  0  0  0  0  0  0  0
   -3.1998    3.7191    0.0195 H   0  0  0  0  0  0  0  0  0  0  0  0
   -3.7274    6.0953    0.3178 H   0  0  0  0  0  0  0  0  0  0  0  0
    0.0001    6.7272    2.3213 H   0  0  0  0  0  0  0  0  0  0  0  0
    0.5577    4.3503    2.1014 H   0  0  0  0  0  0  0  0  0  0  0  0
   -3.6231    0.6815    0.8570 H   0  0  0  0  0  0  0  0  0  0  0  0
  1  2  1  0
  2  3  2  0
  3  4  1  0
  3  5  1  0
  5  6  2  0
  6  7  1  0
  7  8  2  0
  8  9  1  0
  9 10  1  0
 10 11  2  0
 10 12  1  0
 12 13  1  0
 13 14  1  0
 14 15  1  0
 15 16  1  0
 16 17  2  0
 17 18  1  0
 18 19  2  0
 19 20  1  0
 20 21  2  0
 14 22  1  0
 22 23  1  0
 23 24  2  0
 24 25  1  0
 24 26  1  0
 26 27  1  0
 27 28  2  0
 28 29  1  0
 29 30  2  0
 30 31  1  0
 30 32  1  0
 32 33  2  0
 26 34  1  0
 34 35  1  0
  8  2  1  0
 23 12  1  0
 33 27  1  0
 12  7  1  0
 21 16  1  0
 34 22  2  0
  1 36  1  0
  1 37  1  0
  1 38  1  0
  5 39  1  0
  6 40  1  0
  9 41  1  0
 13 42  1  0
 14 43  1  1
 15 44  1  0
 15 45  1  0
 17 46  1  0
 18 47  1  0
 19 48  1  0
 20 49  1  0
 21 50  1  0
 25 51  1  0
 28 52  1  0
 29 53  1  0
 32 54  1  0
 33 55  1  0
 35 56  1  0
M  END
$$$$
