
     RDKit          3D

 43 45  0  0  0  0  0  0  0  0999 V2000
    4.9605    2.3201   -2.5912 C   0  0  0  0  0  0  0  0  0  0  0  0
    5.2625    1.2704   -1.6798 O   0  0  0  0  0  0  0  0  0  0  0  0
    4.2139    0.7267   -0.9898 C   0  0  0  0  0  0  0  0  0  0  0  0
    2.8805    1.1151   -1.0886 C   0  0  0  0  0  0  0  0  0  0  0  0
    1.9007    0.4737   -0.3216 C   0  0  0  0  0  0  0  0  0  0  0  0
    2.2354   -0.5700    0.5503 C   0  0  0  0  0  0  0  0  0  0  0  0
    1.2939   -1.2161    1.3947 N   0  0  0  0  0  0  0  0  0  0  0  0
   -0.0483   -0.9918    1.4913 C   0  0  0  0  0  0  0  0  0  0  0  0
   -0.8762   -1.9922    1.4676 N   0  0  0  0  0  0  0  0  0  0  0  0
   -2.1994   -1.6308    1.6151 C   0  0  0  0  0  0  0  0  0  0  0  0
   -3.1017   -2.4609    1.6546 O   0  0  0  0  0  0  0  0  0  0  0  0
   -2.6021   -0.1629    1.7728 C   0  0  0  0  0  0  0  0  0  0  0  0
   -4.0689    0.1639    1.8510 C   0  0  0  0  0  0  0  0  0  0  0  0
   -4.6796    0.3479    0.4841 C   0  0  0  0  0  0  0  0  0  0  0  0
   -4.5631    1.5742   -0.1853 C   0  0  0  0  0  0  0  0  0  0  0  0
   -5.1081    1.7391   -1.4594 C   0  0  0  0  0  0  0  0  0  0  0  0
   -5.7682    0.6795   -2.0785 C   0  0  0  0  0  0  0  0  0  0  0  0
   -5.8817   -0.5463   -1.4255 C   0  0  0  0  0  0  0  0  0  0  0  0
   -5.3384   -0.7133   -0.1509 C   0  0  0  0  0  0  0  0  0  0  0  0
   -1.6974    0.7758    1.8273 N   0  0  0  0  0  0  0  0  0  0  0  0
   -0.4218    0.3165    1.6936 N   0  0  0  0  0  0  0  0  0  0  0  0
    3.5913   -0.9598    0.6456 C   0  0  0  0  0  0  0  0  0  0  0  0
    3.8391   -1.9990    1.5129 O   0  0  0  0  0  0  0  0  0  0  0  0
    5.1953   -2.3939    1.6817 C   0  0  0  0  0  0  0  0  0  0  0  0
    4.5640   -0.3121   -0.1227 C   0  0  0  0  0  0  0  0  0  0  0  0
    5.8978    2.6365   -3.0588 H   0  0  0  0  0  0  0  0  0  0  0  0
    4.2923    1.9726   -3.3860 H   0  0  0  0  0  0  0  0  0  0  0  0
    4.5394    3.1860   -2.0698 H   0  0  0  0  0  0  0  0  0  0  0  0
    2.5630    1.9097   -1.7563 H   0  0  0  0  0  0  0  0  0  0  0  0
    0.8693    0.7898   -0.4531 H   0  0  0  0  0  0  0  0  0  0  0  0
    1.5449   -2.2003    1.4751 H   0  0  0  0  0  0  0  0  0  0  0  0
   -4.1930    1.0880    2.4297 H   0  0  0  0  0  0  0  0  0  0  0  0
   -4.6006   -0.6112    2.4140 H   0  0  0  0  0  0  0  0  0  0  0  0
   -4.0432    2.4082    0.2823 H   0  0  0  0  0  0  0  0  0  0  0  0
   -5.0154    2.6939   -1.9700 H   0  0  0  0  0  0  0  0  0  0  0  0
   -6.1914    0.8073   -3.0712 H   0  0  0  0  0  0  0  0  0  0  0  0
   -6.3909   -1.3758   -1.9096 H   0  0  0  0  0  0  0  0  0  0  0  0
   -5.4288   -1.6809    0.3407 H   0  0  0  0  0  0  0  0  0  0  0  0
    0.3341    0.9744    1.8747 H   0  0  0  0  0  0  0  0  0  0  0  0
    5.2177   -3.2023    2.4189 H   0  0  0  0  0  0  0  0  0  0  0  0
    5.8016   -1.5703    2.0730 H   0  0  0  0  0  0  0  0  0  0  0  0
    5.6106   -2.7849    0.7472 H   0  0  0  0  0  0  0  0  0  0  0  0
    5.6104   -0.5947   -0.0733 H   0  0  0  0  0  0  0  0  0  0  0  0
  1  2  1  0
  2  3  1  0
  3  4  2  0
  4  5  1  0
  5  6  2  0
  6  7  1  0
  7  8  1  0
  8  9  2  0
  9 10  1  0
 10 11  2  0
 10 12  1  0
 12 13  1  0
 13 14  1  0
 14 15  2  0
 15 16  1  0
 16 17  2  0
 17 18  1  0
 18 19  2  0
 12 20  2  0
 20 21  1  0
  6 22  1  0
 22 23  1  0
 23 24  1  0
 22 25  2  0
 25  3  1  0
 21  8  1  0
 19 14  1  0
  1 26  1  0
  1 27  1  0
  1 28  1  0
  4 29  1  0
  5 30  1  0
  7 31  1  0
 13 32  1  0
 13 33  1  0
 15 34  1  0
 16 35  1  0
 17 36  1  0
 18 37  1  0
 19 38  1  0
 21 39  1  0
 24 40  1  0
 24 41  1  0
 24 42  1  0
 25 43  1  0
M  END
$$$$
