
     RDKit          3D

 23 24  0  0  0  0  0  0  0  0999 V2000
    0.5387   -0.5983   -2.1994 O   0  0  0  0  0  0  0  0  0  0  0  0
    1.4628   -0.1911   -1.5239 C   0  0  0  0  0  0  0  0  0  0  0  0
    2.7807   -0.2967   -1.8647 O   0  0  0  0  0  0  0  0  0  0  0  0
    3.5963    0.1543   -0.7835 C   0  0  0  0  0  0  0  0  0  0  0  0
    2.7425    1.1066    0.0120 C   0  0  0  0  0  0  0  0  0  0  0  0
    1.3948    0.5294   -0.2262 C   0  0  0  0  0  0  0  0  0  0  0  0
    0.3511    0.6512    0.6081 C   0  0  0  0  0  0  0  0  0  0  0  0
   -0.9907    0.0808    0.4480 C   0  0  0  0  0  0  0  0  0  0  0  0
   -2.1035    0.9254    0.5471 C   0  0  0  0  0  0  0  0  0  0  0  0
   -3.3973    0.4081    0.4476 C   0  0  0  0  0  0  0  0  0  0  0  0
   -3.5890   -0.9589    0.2585 C   0  0  0  0  0  0  0  0  0  0  0  0
   -2.4882   -1.8090    0.1720 C   0  0  0  0  0  0  0  0  0  0  0  0
   -1.1941   -1.2926    0.2731 C   0  0  0  0  0  0  0  0  0  0  0  0
    4.4893    0.6470   -1.1801 H   0  0  0  0  0  0  0  0  0  0  0  0
    3.9113   -0.7161   -0.1962 H   0  0  0  0  0  0  0  0  0  0  0  0
    2.7905    2.1158   -0.4125 H   0  0  0  0  0  0  0  0  0  0  0  0
    3.0411    1.1452    1.0630 H   0  0  0  0  0  0  0  0  0  0  0  0
    0.4701    1.2415    1.5152 H   0  0  0  0  0  0  0  0  0  0  0  0
   -1.9730    1.9950    0.6926 H   0  0  0  0  0  0  0  0  0  0  0  0
   -4.2545    1.0728    0.5138 H   0  0  0  0  0  0  0  0  0  0  0  0
   -4.5947   -1.3618    0.1744 H   0  0  0  0  0  0  0  0  0  0  0  0
   -2.6343   -2.8751    0.0195 H   0  0  0  0  0  0  0  0  0  0  0  0
   -0.3499   -1.9736    0.2024 H   0  0  0  0  0  0  0  0  0  0  0  0
  1  2  2  0
  2  3  1  0
  3  4  1  0
  4  5  1  0
  5  6  1  0
  6  7  2  3
  7  8  1  0
  8  9  2  0
  9 10  1  0
 10 11  2  0
 11 12  1  0
 12 13  2  0
  6  2  1  0
 13  8  1  0
  4 14  1  0
  4 15  1  0
  5 16  1  0
  5 17  1  0
  7 18  1  0
  9 19  1  0
 10 20  1  0
 11 21  1  0
 12 22  1  0
 13 23  1  0
M  END
$$$$
