
     RDKit          3D

 70 75  0  0  0  0  0  0  0  0999 V2000
   -5.3507   -3.5631    2.3862 C   0  0  0  0  0  0  0  0  0  0  0  0
   -4.2497   -2.9747    1.5410 C   0  0  0  0  0  0  0  0  0  0  0  0
   -3.4044   -1.9981    2.1197 C   0  0  0  0  0  0  0  0  0  0  0  0
   -2.3664   -1.4080    1.3950 C   0  0  0  0  0  0  0  0  0  0  0  0
   -2.1719   -1.8023    0.0804 C   0  0  0  0  0  0  0  0  0  0  0  0
   -3.0185   -2.7607   -0.4950 C   0  0  0  0  0  0  0  0  0  0  0  0
   -4.0439   -3.3891    0.2053 C   0  0  0  0  0  0  0  0  0  0  0  0
   -4.9305   -4.4045   -0.4553 C   0  0  0  0  0  0  0  0  0  0  0  0
   -2.6952   -2.9312   -1.8373 N   0  0  0  0  0  0  0  0  0  0  0  0
   -1.6389   -2.1071   -2.2272 C   0  0  0  0  0  0  0  0  0  0  0  0
   -1.2024   -2.0453   -3.3675 O   0  0  0  0  0  0  0  0  0  0  0  0
   -1.1764   -1.3348   -0.9522 C   0  0  1  0  0  0  0  0  0  0  0  0
   -1.2960    0.1330   -1.0899 C   0  0  0  0  0  0  0  0  0  0  0  0
   -0.0326    0.7192   -1.1215 C   0  0  0  0  0  0  0  0  0  0  0  0
   -0.1707    2.0764   -1.1993 C   0  0  0  0  0  0  0  0  0  0  0  0
    0.7847    2.9993   -1.0977 O   0  0  0  0  0  0  0  0  0  0  0  0
   -1.5474    2.3454   -1.3355 N   0  0  0  0  0  0  0  0  0  0  0  0
   -2.1274    3.6290   -1.5893 C   0  0  0  0  0  0  0  0  0  0  0  0
   -3.3865    3.9621   -1.0743 C   0  0  0  0  0  0  0  0  0  0  0  0
   -3.9349    5.2247   -1.3174 C   0  0  0  0  0  0  0  0  0  0  0  0
   -3.2378    6.1565   -2.0834 C   0  0  0  0  0  0  0  0  0  0  0  0
   -1.9929    5.8267   -2.6151 C   0  0  0  0  0  0  0  0  0  0  0  0
   -1.4388    4.5671   -2.3741 C   0  0  0  0  0  0  0  0  0  0  0  0
   -2.2396    1.1275   -1.1822 C   0  0  0  0  0  0  0  0  0  0  0  0
   -3.5678    1.0499   -1.1993 O   0  0  0  0  0  0  0  0  0  0  0  0
    1.0508   -0.2784   -0.9907 C   0  0  1  0  0  0  0  0  0  0  0  0
    2.0935    0.0892    0.0876 C   0  0  0  0  0  0  0  0  0  0  0  0
    2.8977   -1.0595    0.5193 N   0  0  0  0  0  0  0  0  0  0  0  0
    4.2058   -0.9580    0.9478 C   0  0  0  0  0  0  0  0  0  0  0  0
    4.8658   -1.9185    1.3227 O   0  0  0  0  0  0  0  0  0  0  0  0
    4.6571    0.3217    0.9143 O   0  0  0  0  0  0  0  0  0  0  0  0
    6.0027    0.6569    1.3365 C   0  0  0  0  0  0  0  0  0  0  0  0
    6.1120    2.1751    1.1196 C   0  0  0  0  0  0  0  0  0  0  0  0
    7.0573   -0.0343    0.4649 C   0  0  0  0  0  0  0  0  0  0  0  0
    6.2041    0.3602    2.8265 C   0  0  0  0  0  0  0  0  0  0  0  0
    2.2401   -2.3637    0.5463 C   0  0  0  0  0  0  0  0  0  0  0  0
    0.7068   -2.2551    0.4687 C   0  0  0  0  0  0  0  0  0  0  0  0
    0.2893   -1.5600   -0.7467 N   0  0  0  0  0  0  0  0  0  0  0  0
   -5.4747   -3.0121    3.3243 H   0  0  0  0  0  0  0  0  0  0  0  0
   -5.1189   -4.6037    2.6356 H   0  0  0  0  0  0  0  0  0  0  0  0
   -6.3078   -3.5166    1.8555 H   0  0  0  0  0  0  0  0  0  0  0  0
   -3.5633   -1.6843    3.1517 H   0  0  0  0  0  0  0  0  0  0  0  0
   -1.7423   -0.6453    1.8533 H   0  0  0  0  0  0  0  0  0  0  0  0
   -4.4067   -4.9347   -1.2576 H   0  0  0  0  0  0  0  0  0  0  0  0
   -5.2545   -5.1737    0.2532 H   0  0  0  0  0  0  0  0  0  0  0  0
   -5.8138   -3.9136   -0.8756 H   0  0  0  0  0  0  0  0  0  0  0  0
   -3.1618   -3.5404   -2.4925 H   0  0  0  0  0  0  0  0  0  0  0  0
    0.3758    3.8491   -0.8531 H   0  0  0  0  0  0  0  0  0  0  0  0
   -3.9487    3.2692   -0.4542 H   0  0  0  0  0  0  0  0  0  0  0  0
   -4.9100    5.4791   -0.9076 H   0  0  0  0  0  0  0  0  0  0  0  0
   -3.6712    7.1344   -2.2766 H   0  0  0  0  0  0  0  0  0  0  0  0
   -1.4598    6.5445   -3.2340 H   0  0  0  0  0  0  0  0  0  0  0  0
   -0.4934    4.3216   -2.8555 H   0  0  0  0  0  0  0  0  0  0  0  0
   -3.8199    0.1167   -1.0829 H   0  0  0  0  0  0  0  0  0  0  0  0
    1.5619   -0.3964   -1.9546 H   0  0  0  0  0  0  0  0  0  0  0  0
    1.6008    0.4723    0.9917 H   0  0  0  0  0  0  0  0  0  0  0  0
    2.7381    0.8930   -0.2857 H   0  0  0  0  0  0  0  0  0  0  0  0
    5.3524    2.7097    1.7045 H   0  0  0  0  0  0  0  0  0  0  0  0
    7.0995    2.5579    1.4022 H   0  0  0  0  0  0  0  0  0  0  0  0
    5.9311    2.4322    0.0695 H   0  0  0  0  0  0  0  0  0  0  0  0
    6.8526    0.1322   -0.5985 H   0  0  0  0  0  0  0  0  0  0  0  0
    7.0697   -1.1180    0.6163 H   0  0  0  0  0  0  0  0  0  0  0  0
    8.0627    0.3375    0.6892 H   0  0  0  0  0  0  0  0  0  0  0  0
    6.1929   -0.7143    3.0338 H   0  0  0  0  0  0  0  0  0  0  0  0
    7.1606    0.7559    3.1859 H   0  0  0  0  0  0  0  0  0  0  0  0
    5.3987    0.8022    3.4236 H   0  0  0  0  0  0  0  0  0  0  0  0
    2.5298   -2.8953    1.4599 H   0  0  0  0  0  0  0  0  0  0  0  0
    2.6261   -2.9394   -0.3039 H   0  0  0  0  0  0  0  0  0  0  0  0
    0.2854   -3.2671    0.4857 H   0  0  0  0  0  0  0  0  0  0  0  0
    0.3621   -1.7262    1.3656 H   0  0  0  0  0  0  0  0  0  0  0  0
  1  2  1  0
  2  3  2  0
  3  4  1  0
  4  5  2  0
  5  6  1  0
  6  7  2  0
  7  8  1  0
  6  9  1  0
  9 10  1  0
 10 11  2  0
 10 12  1  0
 12 13  1  0
 13 14  1  0
 14 15  2  0
 15 16  1  0
 15 17  1  0
 17 18  1  0
 18 19  2  0
 19 20  1  0
 20 21  2  0
 21 22  1  0
 22 23  2  0
 17 24  1  0
 24 25  1  0
 14 26  1  0
 26 27  1  0
 27 28  1  0
 28 29  1  0
 29 30  2  0
 29 31  1  0
 31 32  1  0
 32 33  1  0
 32 34  1  0
 32 35  1  0
 28 36  1  0
 36 37  1  0
 37 38  1  0
  7  2  1  0
 12 38  1  1
 12  5  1  0
 24 13  2  0
 38 26  1  0
 23 18  1  0
  1 39  1  0
  1 40  1  0
  1 41  1  0
  3 42  1  0
  4 43  1  0
  8 44  1  0
  8 45  1  0
  8 46  1  0
  9 47  1  0
 16 48  1  0
 19 49  1  0
 20 50  1  0
 21 51  1  0
 22 52  1  0
 23 53  1  0
 25 54  1  0
 26 55  1  6
 27 56  1  0
 27 57  1  0
 33 58  1  0
 33 59  1  0
 33 60  1  0
 34 61  1  0
 34 62  1  0
 34 63  1  0
 35 64  1  0
 35 65  1  0
 35 66  1  0
 36 67  1  0
 36 68  1  0
 37 69  1  0
 37 70  1  0
M  END
$$$$
