
     RDKit          3D

 35 38  0  0  0  0  0  0  0  0999 V2000
    3.4227    3.7320   -0.0549 N   0  0  0  0  0  0  0  0  0  0  0  0
    2.0627    3.6555    0.0754 C   0  0  0  0  0  0  0  0  0  0  0  0
    1.3709    4.6485    0.2624 O   0  0  0  0  0  0  0  0  0  0  0  0
    1.4825    2.2880   -0.0246 C   0  0  0  0  0  0  0  0  0  0  0  0
    2.3498    1.2668   -0.2270 N   0  0  0  0  0  0  0  0  0  0  0  0
    1.8056    0.0341   -0.3031 C   0  0  0  0  0  0  0  0  0  0  0  0
    2.7047   -1.1074   -0.5080 C   0  0  0  0  0  0  0  0  0  0  0  0
    2.3902   -2.4572   -0.5523 C   0  0  0  0  0  0  0  0  0  0  0  0
    3.5261   -3.2893   -0.7723 C   0  0  0  0  0  0  0  0  0  0  0  0
    4.6826   -2.5548   -0.8912 C   0  0  0  0  0  0  0  0  0  0  0  0
    4.3951   -0.8782   -0.7373 S   0  0  0  0  0  0  0  0  0  0  0  0
    0.4914   -0.2592   -0.2021 N   0  0  0  0  0  0  0  0  0  0  0  0
   -0.3173    0.7889   -0.0145 C   0  0  0  0  0  0  0  0  0  0  0  0
    0.1396    2.0819    0.0897 C   0  0  0  0  0  0  0  0  0  0  0  0
   -0.9253    2.9393    0.3123 N   0  0  0  0  0  0  0  0  0  0  0  0
   -2.1054    2.1861    0.3581 C   0  0  0  0  0  0  0  0  0  0  0  0
   -3.2062    2.6803    0.5371 O   0  0  0  0  0  0  0  0  0  0  0  0
   -1.7271    0.8238    0.1458 N   0  0  0  0  0  0  0  0  0  0  0  0
   -2.5883   -0.3064    0.1121 C   0  0  0  0  0  0  0  0  0  0  0  0
   -2.1636   -1.5765   -0.3167 C   0  0  0  0  0  0  0  0  0  0  0  0
   -3.0347   -2.6742   -0.3402 C   0  0  0  0  0  0  0  0  0  0  0  0
   -4.3498   -2.5169    0.0635 C   0  0  0  0  0  0  0  0  0  0  0  0
   -5.1821   -3.5652    0.0408 F   0  0  0  0  0  0  0  0  0  0  0  0
   -4.8088   -1.2818    0.4866 C   0  0  0  0  0  0  0  0  0  0  0  0
   -3.9342   -0.1876    0.5078 C   0  0  0  0  0  0  0  0  0  0  0  0
    3.8801    4.6310    0.0048 H   0  0  0  0  0  0  0  0  0  0  0  0
    3.9738    2.8940   -0.2071 H   0  0  0  0  0  0  0  0  0  0  0  0
    1.3806   -2.8323   -0.4288 H   0  0  0  0  0  0  0  0  0  0  0  0
    3.4948   -4.3702   -0.8390 H   0  0  0  0  0  0  0  0  0  0  0  0
    5.6859   -2.9217   -1.0608 H   0  0  0  0  0  0  0  0  0  0  0  0
   -0.8652    3.9446    0.4288 H   0  0  0  0  0  0  0  0  0  0  0  0
   -1.1557   -1.7570   -0.6713 H   0  0  0  0  0  0  0  0  0  0  0  0
   -2.6895   -3.6460   -0.6786 H   0  0  0  0  0  0  0  0  0  0  0  0
   -5.8416   -1.1676    0.8005 H   0  0  0  0  0  0  0  0  0  0  0  0
   -4.3441    0.7547    0.8607 H   0  0  0  0  0  0  0  0  0  0  0  0
  1  2  1  0
  2  3  2  0
  2  4  1  0
  4  5  2  0
  5  6  1  0
  6  7  1  0
  7  8  2  0
  8  9  1  0
  9 10  2  0
 10 11  1  0
  6 12  2  0
 12 13  1  0
 13 14  2  0
 14 15  1  0
 15 16  1  0
 16 17  2  0
 16 18  1  0
 18 19  1  0
 19 20  2  0
 20 21  1  0
 21 22  2  0
 22 23  1  0
 22 24  1  0
 24 25  2  0
 14  4  1  0
 25 19  1  0
 11  7  1  0
 18 13  1  0
  1 26  1  0
  1 27  1  0
  8 28  1  0
  9 29  1  0
 10 30  1  0
 15 31  1  0
 20 32  1  0
 21 33  1  0
 24 34  1  0
 25 35  1  0
M  END
$$$$
