
     RDKit          3D

 57 59  0  0  0  0  0  0  0  0999 V2000
   -8.3194   -0.7940   -3.0991 C   0  0  0  0  0  0  0  0  0  0  0  0
   -6.9393   -1.1338   -3.1643 O   0  0  0  0  0  0  0  0  0  0  0  0
   -6.0948   -0.4583   -2.3267 C   0  0  0  0  0  0  0  0  0  0  0  0
   -6.4642    0.5328   -1.4147 C   0  0  0  0  0  0  0  0  0  0  0  0
   -5.4970    1.1443   -0.6109 C   0  0  0  0  0  0  0  0  0  0  0  0
   -4.1594    0.7496   -0.7086 C   0  0  0  0  0  0  0  0  0  0  0  0
   -2.9271    1.5628    0.2838 S   0  0  0  0  0  6  0  0  0  0  0  0
   -1.6549    1.4182   -0.3906 O   0  0  0  0  0  0  0  0  0  0  0  0
   -3.4434    2.8699    0.6304 O   0  0  0  0  0  0  0  0  0  0  0  0
   -2.8520    0.6638    1.6895 N   0  0  0  0  0  0  0  0  0  0  0  0
   -3.9770    0.6722    2.6222 C   0  0  0  0  0  0  0  0  0  0  0  0
   -3.6094   -0.4631    3.5502 C   0  0  0  0  0  0  0  0  0  0  0  0
   -3.0187   -1.4364    2.6822 O   0  0  0  0  0  0  0  0  0  0  0  0
   -2.3168   -0.7069    1.6524 C   0  0  0  0  0  0  0  0  0  0  0  0
   -0.8049   -0.7283    1.9565 C   0  0  0  0  0  0  0  0  0  0  0  0
    0.0380   -0.3861    0.8268 N   0  0  0  0  0  0  0  0  0  0  0  0
    1.3937   -0.6279    0.8618 C   0  0  0  0  0  0  0  0  0  0  0  0
    1.9813   -1.2514    1.7361 O   0  0  0  0  0  0  0  0  0  0  0  0
    2.1862   -0.0153   -0.3172 C   0  0  0  0  0  0  0  0  0  0  0  0
    1.6104    0.5902   -1.2087 O   0  0  0  0  0  0  0  0  0  0  0  0
    3.5426   -0.2155   -0.2245 N   0  0  0  0  0  0  0  0  0  0  0  0
    4.4589    0.4860   -1.0858 C   0  0  0  0  0  0  0  0  0  0  0  0
    5.8564   -0.0619   -0.9530 C   0  0  0  0  0  0  0  0  0  0  0  0
    6.2723   -1.0911   -1.8150 C   0  0  0  0  0  0  0  0  0  0  0  0
    7.5507   -1.6343   -1.7082 C   0  0  0  0  0  0  0  0  0  0  0  0
    8.4234   -1.1608   -0.7345 C   0  0  0  0  0  0  0  0  0  0  0  0
    8.0189   -0.1483    0.1390 C   0  0  0  0  0  0  0  0  0  0  0  0
    6.7370    0.4030    0.0417 C   0  0  0  0  0  0  0  0  0  0  0  0
    6.2463    1.3847    0.8616 O   0  0  0  0  0  0  0  0  0  0  0  0
    7.0991    1.8657    1.8927 C   0  0  0  0  0  0  0  0  0  0  0  0
   -3.7761   -0.2159   -1.6411 C   0  0  0  0  0  0  0  0  0  0  0  0
   -4.7488   -0.8227   -2.4378 C   0  0  0  0  0  0  0  0  0  0  0  0
   -8.7296   -0.9949   -2.1032 H   0  0  0  0  0  0  0  0  0  0  0  0
   -8.4819    0.2488   -3.3914 H   0  0  0  0  0  0  0  0  0  0  0  0
   -8.8551   -1.4282   -3.8124 H   0  0  0  0  0  0  0  0  0  0  0  0
   -7.4941    0.8595   -1.3118 H   0  0  0  0  0  0  0  0  0  0  0  0
   -5.7952    1.9303    0.0796 H   0  0  0  0  0  0  0  0  0  0  0  0
   -4.0732    1.6195    3.1565 H   0  0  0  0  0  0  0  0  0  0  0  0
   -4.9115    0.4366    2.1061 H   0  0  0  0  0  0  0  0  0  0  0  0
   -4.4726   -0.8919    4.0655 H   0  0  0  0  0  0  0  0  0  0  0  0
   -2.8625   -0.1593    4.2917 H   0  0  0  0  0  0  0  0  0  0  0  0
   -2.5289   -1.2170    0.7097 H   0  0  0  0  0  0  0  0  0  0  0  0
   -0.5624   -0.0365    2.7721 H   0  0  0  0  0  0  0  0  0  0  0  0
   -0.5164   -1.7273    2.3055 H   0  0  0  0  0  0  0  0  0  0  0  0
   -0.2666    0.3422    0.1691 H   0  0  0  0  0  0  0  0  0  0  0  0
    3.8829   -0.5849    0.6583 H   0  0  0  0  0  0  0  0  0  0  0  0
    4.1086    0.4020   -2.1216 H   0  0  0  0  0  0  0  0  0  0  0  0
    4.4213    1.5535   -0.8397 H   0  0  0  0  0  0  0  0  0  0  0  0
    5.5936   -1.4747   -2.5739 H   0  0  0  0  0  0  0  0  0  0  0  0
    7.8635   -2.4273   -2.3820 H   0  0  0  0  0  0  0  0  0  0  0  0
    9.4212   -1.5832   -0.6490 H   0  0  0  0  0  0  0  0  0  0  0  0
    8.7302    0.1851    0.8868 H   0  0  0  0  0  0  0  0  0  0  0  0
    6.5517    2.6339    2.4471 H   0  0  0  0  0  0  0  0  0  0  0  0
    7.3555    1.0676    2.5974 H   0  0  0  0  0  0  0  0  0  0  0  0
    7.9980    2.3331    1.4760 H   0  0  0  0  0  0  0  0  0  0  0  0
   -2.7323   -0.4972   -1.7636 H   0  0  0  0  0  0  0  0  0  0  0  0
   -4.4562   -1.5805   -3.1613 H   0  0  0  0  0  0  0  0  0  0  0  0
  1  2  1  0
  2  3  1  0
  3  4  2  0
  4  5  1  0
  5  6  2  0
  6  7  1  0
  7  8  2  0
  7  9  2  0
  7 10  1  0
 10 11  1  0
 11 12  1  0
 12 13  1  0
 13 14  1  0
 14 15  1  0
 15 16  1  0
 16 17  1  0
 17 18  2  0
 17 19  1  0
 19 20  2  0
 19 21  1  0
 21 22  1  0
 22 23  1  0
 23 24  2  0
 24 25  1  0
 25 26  2  0
 26 27  1  0
 27 28  2  0
 28 29  1  0
 29 30  1  0
  6 31  1  0
 31 32  2  0
 32  3  1  0
 14 10  1  0
 28 23  1  0
  1 33  1  0
  1 34  1  0
  1 35  1  0
  4 36  1  0
  5 37  1  0
 11 38  1  0
 11 39  1  0
 12 40  1  0
 12 41  1  0
 14 42  1  0
 15 43  1  0
 15 44  1  0
 16 45  1  0
 21 46  1  0
 22 47  1  0
 22 48  1  0
 24 49  1  0
 25 50  1  0
 26 51  1  0
 27 52  1  0
 30 53  1  0
 30 54  1  0
 30 55  1  0
 31 56  1  0
 32 57  1  0
M  END
$$$$
