
     RDKit          3D

 46 48  0  0  0  0  0  0  0  0999 V2000
   -3.2413    1.0022    2.4237 O   0  0  0  0  0  0  0  0  0  0  0  0
   -2.7371    0.6153    1.3772 C   0  0  0  0  0  0  0  0  0  0  0  0
   -3.3550   -0.1317    0.3894 N   0  0  0  0  0  0  0  0  0  0  0  0
   -4.7091   -0.5333    0.3493 C   0  0  0  0  0  0  0  0  0  0  0  0
   -5.1000   -1.3569   -0.7136 C   0  0  0  0  0  0  0  0  0  0  0  0
   -6.4217   -1.7875   -0.8172 C   0  0  0  0  0  0  0  0  0  0  0  0
   -6.7744   -2.5769   -1.8401 F   0  0  0  0  0  0  0  0  0  0  0  0
   -7.3740   -1.4140    0.1162 C   0  0  0  0  0  0  0  0  0  0  0  0
   -6.9844   -0.5950    1.1645 C   0  0  0  0  0  0  0  0  0  0  0  0
   -7.8936   -0.2208    2.0745 F   0  0  0  0  0  0  0  0  0  0  0  0
   -5.6676   -0.1513    1.2903 C   0  0  0  0  0  0  0  0  0  0  0  0
   -1.3003    0.9319    1.1330 C   0  0  0  0  0  0  0  0  0  0  0  0
   -0.4440    1.0383    2.2303 C   0  0  0  0  0  0  0  0  0  0  0  0
    0.9117    1.3400    2.0485 C   0  0  0  0  0  0  0  0  0  0  0  0
    1.4641    1.5391    0.7718 C   0  0  0  0  0  0  0  0  0  0  0  0
    2.8172    1.8685    0.6405 N   0  0  0  0  0  0  0  0  0  0  0  0
    3.8425    1.1899    1.4412 C   0  0  0  0  0  0  0  0  0  0  0  0
    3.9383   -0.3179    1.1568 C   0  0  0  0  0  0  0  0  0  0  0  0
    4.1591   -0.6621   -0.2983 C   0  0  0  0  0  0  0  0  0  0  0  0
    3.1823   -1.3708   -1.0125 C   0  0  0  0  0  0  0  0  0  0  0  0
    3.3674   -1.6662   -2.3636 C   0  0  0  0  0  0  0  0  0  0  0  0
    4.5333   -1.2650   -3.0117 C   0  0  0  0  0  0  0  0  0  0  0  0
    5.5170   -0.5726   -2.3087 C   0  0  0  0  0  0  0  0  0  0  0  0
    5.3332   -0.2741   -0.9578 C   0  0  0  0  0  0  0  0  0  0  0  0
    0.5705    1.4624   -0.3226 C   0  0  0  0  0  0  0  0  0  0  0  0
    1.0347    1.6395   -1.7065 N   0  0  0  0  0  4  0  0  0  0  0  0
    0.3692    1.0886   -2.5982 O   0  0  0  0  0  0  0  0  0  0  0  0
    2.0486    2.3217   -1.9100 O   0  0  0  0  0  1  0  0  0  0  0  0
   -0.7978    1.1640   -0.1479 C   0  0  0  0  0  0  0  0  0  0  0  0
   -2.7735   -0.4896   -0.3578 H   0  0  0  0  0  0  0  0  0  0  0  0
   -4.3957   -1.6795   -1.4742 H   0  0  0  0  0  0  0  0  0  0  0  0
   -8.3996   -1.7515    0.0296 H   0  0  0  0  0  0  0  0  0  0  0  0
   -5.4349    0.4916    2.1320 H   0  0  0  0  0  0  0  0  0  0  0  0
   -0.8289    0.8988    3.2401 H   0  0  0  0  0  0  0  0  0  0  0  0
    1.5275    1.4452    2.9389 H   0  0  0  0  0  0  0  0  0  0  0  0
    3.1144    1.9685   -0.3379 H   0  0  0  0  0  0  0  0  0  0  0  0
    4.8029    1.6665    1.2107 H   0  0  0  0  0  0  0  0  0  0  0  0
    3.6807    1.3591    2.5113 H   0  0  0  0  0  0  0  0  0  0  0  0
    4.7657   -0.7414    1.7402 H   0  0  0  0  0  0  0  0  0  0  0  0
    3.0321   -0.8176    1.5210 H   0  0  0  0  0  0  0  0  0  0  0  0
    2.2665   -1.6936   -0.5234 H   0  0  0  0  0  0  0  0  0  0  0  0
    2.6014   -2.2072   -2.9130 H   0  0  0  0  0  0  0  0  0  0  0  0
    4.6756   -1.4917   -4.0651 H   0  0  0  0  0  0  0  0  0  0  0  0
    6.4272   -0.2615   -2.8149 H   0  0  0  0  0  0  0  0  0  0  0  0
    6.1134    0.2673   -0.4280 H   0  0  0  0  0  0  0  0  0  0  0  0
   -1.4635    1.1472   -1.0080 H   0  0  0  0  0  0  0  0  0  0  0  0
  1  2  2  0
  2  3  1  0
  3  4  1  0
  4  5  2  0
  5  6  1  0
  6  7  1  0
  6  8  2  0
  8  9  1  0
  9 10  1  0
  9 11  2  0
  2 12  1  0
 12 13  2  0
 13 14  1  0
 14 15  2  0
 15 16  1  0
 16 17  1  0
 17 18  1  0
 18 19  1  0
 19 20  2  0
 20 21  1  0
 21 22  2  0
 22 23  1  0
 23 24  2  0
 15 25  1  0
 25 26  1  0
 26 27  2  0
 26 28  1  0
 25 29  2  0
 11  4  1  0
 29 12  1  0
 24 19  1  0
  3 30  1  0
  5 31  1  0
  8 32  1  0
 11 33  1  0
 13 34  1  0
 14 35  1  0
 16 36  1  0
 17 37  1  0
 17 38  1  0
 18 39  1  0
 18 40  1  0
 20 41  1  0
 21 42  1  0
 22 43  1  0
 23 44  1  0
 24 45  1  0
 29 46  1  0
M  CHG  2  26   1  28  -1
M  END
$$$$
