
     RDKit          3D

 44 47  0  0  0  0  0  0  0  0999 V2000
   -3.5615   -1.3762    0.9643 O   0  0  0  0  0  0  0  0  0  0  0  0
   -2.8561   -0.8160    0.1392 C   0  0  0  0  0  0  0  0  0  0  0  0
   -1.8843   -1.3876   -0.6592 O   0  0  0  0  0  0  0  0  0  0  0  0
   -1.6535   -2.7438   -0.3900 C   0  0  0  0  0  0  0  0  0  0  0  0
   -2.1452   -3.6710   -1.3097 C   0  0  0  0  0  0  0  0  0  0  0  0
   -1.9004   -5.0292   -1.1094 C   0  0  0  0  0  0  0  0  0  0  0  0
   -1.1625   -5.4498   -0.0020 C   0  0  0  0  0  0  0  0  0  0  0  0
   -0.6572   -4.5135    0.9066 C   0  0  0  0  0  0  0  0  0  0  0  0
   -0.8874   -3.1451    0.7156 C   0  0  0  0  0  0  0  0  0  0  0  0
   -0.3397   -2.1915    1.6842 C   0  0  0  0  0  0  0  0  0  0  0  0
    0.6749   -1.3344    1.4885 C   0  0  0  0  0  0  0  0  0  0  0  0
    1.5022   -1.2030    0.2458 C   0  0  0  0  0  0  0  0  0  0  0  0
    1.5116   -2.0874   -0.6069 O   0  0  0  0  0  0  0  0  0  0  0  0
    2.3063   -0.0012    0.1111 C   0  0  0  0  0  0  0  0  0  0  0  0
    3.1942    0.3737   -0.8838 C   0  0  0  0  0  0  0  0  0  0  0  0
    3.7141    1.6430   -0.5237 C   0  0  0  0  0  0  0  0  0  0  0  0
    4.6343    2.5490   -1.0808 C   0  0  0  0  0  0  0  0  0  0  0  0
    4.8892    3.7506   -0.4039 C   0  0  0  0  0  0  0  0  0  0  0  0
    4.2456    4.0484    0.8013 C   0  0  0  0  0  0  0  0  0  0  0  0
    3.3239    3.1605    1.3702 C   0  0  0  0  0  0  0  0  0  0  0  0
    3.0943    1.9755    0.6750 C   0  0  0  0  0  0  0  0  0  0  0  0
    2.2440    0.9842    1.0614 O   0  0  0  0  0  0  0  0  0  0  0  0
   -2.9351    0.6472   -0.1402 C   0  0  0  0  0  0  0  0  0  0  0  0
   -3.8961    1.3962    0.5548 C   0  0  0  0  0  0  0  0  0  0  0  0
   -4.0119    2.7700    0.3361 C   0  0  0  0  0  0  0  0  0  0  0  0
   -3.1687    3.4045   -0.5768 C   0  0  0  0  0  0  0  0  0  0  0  0
   -2.2075    2.6693   -1.2706 C   0  0  0  0  0  0  0  0  0  0  0  0
   -2.0873    1.2945   -1.0544 C   0  0  0  0  0  0  0  0  0  0  0  0
   -2.7050   -3.3382   -2.1757 H   0  0  0  0  0  0  0  0  0  0  0  0
   -2.2781   -5.7590   -1.8213 H   0  0  0  0  0  0  0  0  0  0  0  0
   -0.9671   -6.5083    0.1498 H   0  0  0  0  0  0  0  0  0  0  0  0
   -0.0703   -4.8602    1.7542 H   0  0  0  0  0  0  0  0  0  0  0  0
   -0.8631   -2.1838    2.6401 H   0  0  0  0  0  0  0  0  0  0  0  0
    0.9336   -0.6547    2.2928 H   0  0  0  0  0  0  0  0  0  0  0  0
    3.4344   -0.2149   -1.7597 H   0  0  0  0  0  0  0  0  0  0  0  0
    5.1338    2.3311   -2.0200 H   0  0  0  0  0  0  0  0  0  0  0  0
    5.5963    4.4599   -0.8251 H   0  0  0  0  0  0  0  0  0  0  0  0
    4.4585    4.9890    1.3052 H   0  0  0  0  0  0  0  0  0  0  0  0
    2.8060    3.3835    2.2971 H   0  0  0  0  0  0  0  0  0  0  0  0
   -4.5600    0.9109    1.2700 H   0  0  0  0  0  0  0  0  0  0  0  0
   -4.7606    3.3435    0.8775 H   0  0  0  0  0  0  0  0  0  0  0  0
   -3.2621    4.4733   -0.7480 H   0  0  0  0  0  0  0  0  0  0  0  0
   -1.5498    3.1654   -1.9801 H   0  0  0  0  0  0  0  0  0  0  0  0
   -1.3268    0.7460   -1.6062 H   0  0  0  0  0  0  0  0  0  0  0  0
  1  2  2  0
  2  3  1  0
  3  4  1  0
  4  5  2  0
  5  6  1  0
  6  7  2  0
  7  8  1  0
  8  9  2  0
  9 10  1  0
 10 11  2  3
 11 12  1  0
 12 13  2  0
 12 14  1  0
 14 15  2  0
 15 16  1  0
 16 17  2  0
 17 18  1  0
 18 19  2  0
 19 20  1  0
 20 21  2  0
 21 22  1  0
  2 23  1  0
 23 24  2  0
 24 25  1  0
 25 26  2  0
 26 27  1  0
 27 28  2  0
  9  4  1  0
 22 14  1  0
 28 23  1  0
 21 16  1  0
  5 29  1  0
  6 30  1  0
  7 31  1  0
  8 32  1  0
 10 33  1  0
 11 34  1  0
 15 35  1  0
 17 36  1  0
 18 37  1  0
 19 38  1  0
 20 39  1  0
 24 40  1  0
 25 41  1  0
 26 42  1  0
 27 43  1  0
 28 44  1  0
M  END
$$$$
