
     RDKit          3D

 49 51  0  0  0  0  0  0  0  0999 V2000
    3.4192   -1.2551    1.5863 O   0  0  0  0  0  0  0  0  0  0  0  0
    3.0623   -0.3496    0.8459 C   0  0  0  0  0  0  0  0  0  0  0  0
    3.6341    0.0023   -0.3529 N   0  0  0  0  0  0  0  0  0  0  0  0
    4.6484   -0.8002   -0.9856 C   0  0  0  0  0  0  0  0  0  0  0  0
    4.0382   -1.7217   -2.0089 C   0  0  0  0  0  0  0  0  0  0  0  0
    3.5205   -2.9661   -1.6210 C   0  0  0  0  0  0  0  0  0  0  0  0
    2.9313   -3.8124   -2.5612 C   0  0  0  0  0  0  0  0  0  0  0  0
    2.8477   -3.4212   -3.8961 C   0  0  0  0  0  0  0  0  0  0  0  0
    3.3497   -2.1826   -4.2917 C   0  0  0  0  0  0  0  0  0  0  0  0
    3.9392   -1.3342   -3.3528 C   0  0  0  0  0  0  0  0  0  0  0  0
    1.8413    0.5205    1.2217 C   0  0  0  0  0  0  0  0  0  0  0  0
    1.4050    1.3494    0.4343 O   0  0  0  0  0  0  0  0  0  0  0  0
    1.3190    0.2409    2.4629 N   0  0  0  0  0  0  0  0  0  0  0  0
    0.0897    0.8598    2.9307 C   0  0  0  0  0  0  0  0  0  0  0  0
   -1.1559    0.4132    2.1364 C   0  0  0  0  0  0  0  0  0  0  0  0
   -1.3481   -1.0115    2.3245 O   0  0  0  0  0  0  0  0  0  0  0  0
   -2.5334   -1.1813    3.1098 C   0  0  0  0  0  0  0  0  0  0  0  0
   -3.3915    0.0120    2.7592 C   0  0  0  0  0  0  0  0  0  0  0  0
   -2.3812    1.0583    2.6288 N   0  0  0  0  0  0  0  0  0  0  0  0
   -2.8138    2.5573    2.0187 S   0  0  0  0  0  6  0  0  0  0  0  0
   -4.0695    2.9293    2.6368 O   0  0  0  0  0  0  0  0  0  0  0  0
   -1.6613    3.4264    2.1036 O   0  0  0  0  0  0  0  0  0  0  0  0
   -3.1397    2.2662    0.2916 C   0  0  0  0  0  0  0  0  0  0  0  0
   -2.1118    2.4298   -0.6444 C   0  0  0  0  0  0  0  0  0  0  0  0
   -2.3758    2.2307   -2.0008 C   0  0  0  0  0  0  0  0  0  0  0  0
   -3.6651    1.8923   -2.4132 C   0  0  0  0  0  0  0  0  0  0  0  0
   -4.0199    1.6246   -4.2506 Br  0  0  0  0  0  0  0  0  0  0  0  0
   -4.6977    1.7583   -1.4837 C   0  0  0  0  0  0  0  0  0  0  0  0
   -4.4383    1.9540   -0.1256 C   0  0  0  0  0  0  0  0  0  0  0  0
    3.1333    0.6939   -0.9026 H   0  0  0  0  0  0  0  0  0  0  0  0
    5.3589   -0.1165   -1.4629 H   0  0  0  0  0  0  0  0  0  0  0  0
    5.2037   -1.3766   -0.2369 H   0  0  0  0  0  0  0  0  0  0  0  0
    3.5720   -3.2789   -0.5792 H   0  0  0  0  0  0  0  0  0  0  0  0
    2.5353   -4.7757   -2.2504 H   0  0  0  0  0  0  0  0  0  0  0  0
    2.3882   -4.0807   -4.6277 H   0  0  0  0  0  0  0  0  0  0  0  0
    3.2801   -1.8767   -5.3324 H   0  0  0  0  0  0  0  0  0  0  0  0
    4.3210   -0.3689   -3.6775 H   0  0  0  0  0  0  0  0  0  0  0  0
    1.6833   -0.5849    2.9319 H   0  0  0  0  0  0  0  0  0  0  0  0
    0.2264    1.9429    2.8688 H   0  0  0  0  0  0  0  0  0  0  0  0
   -0.0112    0.5870    3.9869 H   0  0  0  0  0  0  0  0  0  0  0  0
   -1.0192    0.5543    1.0631 H   0  0  0  0  0  0  0  0  0  0  0  0
   -2.2466   -1.1779    4.1674 H   0  0  0  0  0  0  0  0  0  0  0  0
   -3.0098   -2.1359    2.8718 H   0  0  0  0  0  0  0  0  0  0  0  0
   -3.8981   -0.1606    1.8053 H   0  0  0  0  0  0  0  0  0  0  0  0
   -4.1244    0.2276    3.5397 H   0  0  0  0  0  0  0  0  0  0  0  0
   -1.1066    2.7089   -0.3301 H   0  0  0  0  0  0  0  0  0  0  0  0
   -1.5731    2.3482   -2.7250 H   0  0  0  0  0  0  0  0  0  0  0  0
   -5.7058    1.5117   -1.8082 H   0  0  0  0  0  0  0  0  0  0  0  0
   -5.2498    1.8696    0.5941 H   0  0  0  0  0  0  0  0  0  0  0  0
  1  2  2  0
  2  3  1  0
  3  4  1  0
  4  5  1  0
  5  6  2  0
  6  7  1  0
  7  8  2  0
  8  9  1  0
  9 10  2  0
  2 11  1  0
 11 12  2  0
 11 13  1  0
 13 14  1  0
 14 15  1  0
 15 16  1  0
 16 17  1  0
 17 18  1  0
 18 19  1  0
 19 20  1  0
 20 21  2  0
 20 22  2  0
 20 23  1  0
 23 24  2  0
 24 25  1  0
 25 26  2  0
 26 27  1  0
 26 28  1  0
 28 29  2  0
 10  5  1  0
 19 15  1  0
 29 23  1  0
  3 30  1  0
  4 31  1  0
  4 32  1  0
  6 33  1  0
  7 34  1  0
  8 35  1  0
  9 36  1  0
 10 37  1  0
 13 38  1  0
 14 39  1  0
 14 40  1  0
 15 41  1  0
 17 42  1  0
 17 43  1  0
 18 44  1  0
 18 45  1  0
 24 46  1  0
 25 47  1  0
 28 48  1  0
 29 49  1  0
M  END
$$$$
