
     RDKit          3D

 47 50  0  0  0  0  0  0  0  0999 V2000
   -9.4463   -0.1319    0.4808 C   0  0  0  0  0  0  0  0  0  0  0  0
   -8.0420   -0.3796    0.4022 O   0  0  0  0  0  0  0  0  0  0  0  0
   -7.5876   -0.5855   -0.8584 C   0  0  0  0  0  0  0  0  0  0  0  0
   -8.2641   -0.5672   -1.8744 O   0  0  0  0  0  0  0  0  0  0  0  0
   -6.1211   -0.8458   -0.8547 C   0  0  0  0  0  0  0  0  0  0  0  0
   -5.4942   -1.0883   -2.0800 C   0  0  0  0  0  0  0  0  0  0  0  0
   -4.1259   -1.3460   -2.1267 C   0  0  0  0  0  0  0  0  0  0  0  0
   -3.3660   -1.3575   -0.9523 C   0  0  0  0  0  0  0  0  0  0  0  0
   -3.9674   -1.1028    0.2855 C   0  0  0  0  0  0  0  0  0  0  0  0
   -3.2423   -1.1036    1.5154 N   0  0  0  0  0  0  0  0  0  0  0  0
   -3.9234   -1.0906    2.6972 N   0  0  0  0  0  0  0  0  0  0  0  0
   -3.0223   -1.1712    3.6611 N   0  0  0  0  0  0  0  0  0  0  0  0
   -1.7599   -1.1859    3.1505 N   0  0  0  0  0  0  0  0  0  0  0  0
   -1.8889   -1.1226    1.8426 C   0  0  0  0  0  0  0  0  0  0  0  0
   -0.5432   -0.9574    0.7655 S   0  0  0  0  0  0  0  0  0  0  0  0
    0.8330   -1.3383    1.8893 C   0  0  0  0  0  0  0  0  0  0  0  0
    2.1336   -1.3203    1.1036 C   0  0  0  0  0  0  0  0  0  0  0  0
    2.5721   -2.3526    0.6052 O   0  0  0  0  0  0  0  0  0  0  0  0
    2.6879   -0.0605    1.0318 N   0  0  0  0  0  0  0  0  0  0  0  0
    3.8499    0.3019    0.4026 C   0  0  0  0  0  0  0  0  0  0  0  0
    4.2261    1.5619    0.3701 N   0  0  0  0  0  0  0  0  0  0  0  0
    5.4191    1.6599   -0.3150 C   0  0  0  0  0  0  0  0  0  0  0  0
    5.9298    0.4653   -0.7783 C   0  0  0  0  0  0  0  0  0  0  0  0
    4.8928   -0.8142   -0.3585 S   0  0  0  0  0  0  0  0  0  0  0  0
    7.1873    0.3092   -1.5614 C   0  0  0  0  0  0  0  0  0  0  0  0
    8.0409    1.5866   -1.4485 C   0  0  0  0  0  0  0  0  0  0  0  0
    7.1963    2.8660   -1.5924 C   0  0  0  0  0  0  0  0  0  0  0  0
    6.1110    2.9671   -0.5049 C   0  0  0  0  0  0  0  0  0  0  0  0
   -5.3571   -0.8588    0.3234 C   0  0  0  0  0  0  0  0  0  0  0  0
   -9.7061    0.0114    1.5343 H   0  0  0  0  0  0  0  0  0  0  0  0
  -10.0093   -0.9899    0.0986 H   0  0  0  0  0  0  0  0  0  0  0  0
   -9.7054    0.7798   -0.0681 H   0  0  0  0  0  0  0  0  0  0  0  0
   -6.0708   -1.0872   -3.0030 H   0  0  0  0  0  0  0  0  0  0  0  0
   -3.6481   -1.5496   -3.0831 H   0  0  0  0  0  0  0  0  0  0  0  0
   -2.3175   -1.6061   -1.0634 H   0  0  0  0  0  0  0  0  0  0  0  0
    0.7078   -2.3323    2.3303 H   0  0  0  0  0  0  0  0  0  0  0  0
    0.8790   -0.6075    2.7029 H   0  0  0  0  0  0  0  0  0  0  0  0
    2.1958    0.7321    1.4211 H   0  0  0  0  0  0  0  0  0  0  0  0
    6.9334    0.1354   -2.6141 H   0  0  0  0  0  0  0  0  0  0  0  0
    7.7681   -0.5517   -1.2123 H   0  0  0  0  0  0  0  0  0  0  0  0
    8.5455    1.6027   -0.4737 H   0  0  0  0  0  0  0  0  0  0  0  0
    8.8254    1.5690   -2.2134 H   0  0  0  0  0  0  0  0  0  0  0  0
    6.7227    2.8689   -2.5826 H   0  0  0  0  0  0  0  0  0  0  0  0
    7.8440    3.7487   -1.5446 H   0  0  0  0  0  0  0  0  0  0  0  0
    6.5735    3.2593    0.4459 H   0  0  0  0  0  0  0  0  0  0  0  0
    5.3886    3.7460   -0.7737 H   0  0  0  0  0  0  0  0  0  0  0  0
   -5.8550   -0.6663    1.2733 H   0  0  0  0  0  0  0  0  0  0  0  0
  1  2  1  0
  2  3  1  0
  3  4  2  0
  3  5  1  0
  5  6  2  0
  6  7  1  0
  7  8  2  0
  8  9  1  0
  9 10  1  0
 10 11  1  0
 11 12  2  0
 12 13  1  0
 13 14  2  0
 14 15  1  0
 15 16  1  0
 16 17  1  0
 17 18  2  0
 17 19  1  0
 19 20  1  0
 20 21  2  0
 21 22  1  0
 22 23  2  0
 23 24  1  0
 23 25  1  0
 25 26  1  0
 26 27  1  0
 27 28  1  0
  9 29  2  0
 29  5  1  0
 14 10  1  0
 24 20  1  0
 28 22  1  0
  1 30  1  0
  1 31  1  0
  1 32  1  0
  6 33  1  0
  7 34  1  0
  8 35  1  0
 16 36  1  0
 16 37  1  0
 19 38  1  0
 25 39  1  0
 25 40  1  0
 26 41  1  0
 26 42  1  0
 27 43  1  0
 27 44  1  0
 28 45  1  0
 28 46  1  0
 29 47  1  0
M  END
$$$$
