
     RDKit          3D

 51 53  0  0  0  0  0  0  0  0999 V2000
    5.9459    3.6196   -1.1624 C   0  0  0  0  0  0  0  0  0  0  0  0
    6.0207    2.5364   -0.2470 O   0  0  0  0  0  0  0  0  0  0  0  0
    5.3710    1.3740   -0.5807 C   0  0  0  0  0  0  0  0  0  0  0  0
    4.6566    1.1801   -1.7668 C   0  0  0  0  0  0  0  0  0  0  0  0
    4.0214   -0.0378   -2.0199 C   0  0  0  0  0  0  0  0  0  0  0  0
    4.0839   -1.0787   -1.0876 C   0  0  0  0  0  0  0  0  0  0  0  0
    3.3732   -2.3864   -1.3542 C   0  0  0  0  0  0  0  0  0  0  0  0
    1.8606   -2.2682   -1.5051 C   0  0  0  0  0  0  0  0  0  0  0  0
    1.2845   -2.8590   -2.4154 O   0  0  0  0  0  0  0  0  0  0  0  0
    1.2592   -1.5116   -0.5133 N   0  0  0  0  0  0  0  0  0  0  0  0
   -0.1139   -1.2451   -0.3443 C   0  0  0  0  0  0  0  0  0  0  0  0
   -0.4747   -0.3901    0.7022 C   0  0  0  0  0  0  0  0  0  0  0  0
   -1.8180   -0.0727    0.9436 C   0  0  0  0  0  0  0  0  0  0  0  0
   -2.8249   -0.6087    0.1438 C   0  0  0  0  0  0  0  0  0  0  0  0
   -4.1984   -0.3373    0.3128 N   0  0  0  0  0  0  0  0  0  0  0  0
   -4.7874    0.4080    1.3182 C   0  0  0  0  0  0  0  0  0  0  0  0
   -4.2296    0.9111    2.2857 O   0  0  0  0  0  0  0  0  0  0  0  0
   -6.2658    0.5606    1.2011 C   0  0  0  0  0  0  0  0  0  0  0  0
   -6.8966    0.7095   -0.0421 C   0  0  0  0  0  0  0  0  0  0  0  0
   -8.2857    0.8547   -0.1070 C   0  0  0  0  0  0  0  0  0  0  0  0
   -9.0387    0.8598    1.0675 C   0  0  0  0  0  0  0  0  0  0  0  0
  -10.9164    1.0569    0.9748 Br  0  0  0  0  0  0  0  0  0  0  0  0
   -8.4176    0.7301    2.3088 C   0  0  0  0  0  0  0  0  0  0  0  0
   -7.0297    0.5862    2.3756 C   0  0  0  0  0  0  0  0  0  0  0  0
   -2.4639   -1.4618   -0.9043 C   0  0  0  0  0  0  0  0  0  0  0  0
   -1.1204   -1.7789   -1.1460 C   0  0  0  0  0  0  0  0  0  0  0  0
    4.8114   -0.8907    0.0978 C   0  0  0  0  0  0  0  0  0  0  0  0
    5.4556    0.3259    0.3574 C   0  0  0  0  0  0  0  0  0  0  0  0
    6.1743    0.5930    1.4966 O   0  0  0  0  0  0  0  0  0  0  0  0
    6.4206   -0.4819    2.3911 C   0  0  0  0  0  0  0  0  0  0  0  0
    6.4139    3.3619   -2.1182 H   0  0  0  0  0  0  0  0  0  0  0  0
    6.5046    4.4578   -0.7349 H   0  0  0  0  0  0  0  0  0  0  0  0
    4.9108    3.9481   -1.3032 H   0  0  0  0  0  0  0  0  0  0  0  0
    4.5742    1.9583   -2.5184 H   0  0  0  0  0  0  0  0  0  0  0  0
    3.4713   -0.1635   -2.9517 H   0  0  0  0  0  0  0  0  0  0  0  0
    3.5667   -3.1083   -0.5517 H   0  0  0  0  0  0  0  0  0  0  0  0
    3.7831   -2.8181   -2.2757 H   0  0  0  0  0  0  0  0  0  0  0  0
    1.8785   -1.0462    0.1405 H   0  0  0  0  0  0  0  0  0  0  0  0
    0.2798    0.0506    1.3494 H   0  0  0  0  0  0  0  0  0  0  0  0
   -2.0396    0.6024    1.7642 H   0  0  0  0  0  0  0  0  0  0  0  0
   -4.8164   -0.8000   -0.3405 H   0  0  0  0  0  0  0  0  0  0  0  0
   -6.3214    0.7469   -0.9635 H   0  0  0  0  0  0  0  0  0  0  0  0
   -8.7690    0.9744   -1.0736 H   0  0  0  0  0  0  0  0  0  0  0  0
   -8.9995    0.7446    3.2269 H   0  0  0  0  0  0  0  0  0  0  0  0
   -6.5432    0.4933    3.3452 H   0  0  0  0  0  0  0  0  0  0  0  0
   -3.2178   -1.8998   -1.5535 H   0  0  0  0  0  0  0  0  0  0  0  0
   -0.8994   -2.4501   -1.9698 H   0  0  0  0  0  0  0  0  0  0  0  0
    4.8607   -1.7072    0.8114 H   0  0  0  0  0  0  0  0  0  0  0  0
    5.4905   -0.8288    2.8528 H   0  0  0  0  0  0  0  0  0  0  0  0
    7.0690   -0.1102    3.1905 H   0  0  0  0  0  0  0  0  0  0  0  0
    6.9457   -1.3029    1.8919 H   0  0  0  0  0  0  0  0  0  0  0  0
  1  2  1  0
  2  3  1  0
  3  4  2  0
  4  5  1  0
  5  6  2  0
  6  7  1  0
  7  8  1  0
  8  9  2  0
  8 10  1  0
 10 11  1  0
 11 12  2  0
 12 13  1  0
 13 14  2  0
 14 15  1  0
 15 16  1  0
 16 17  2  0
 16 18  1  0
 18 19  2  0
 19 20  1  0
 20 21  2  0
 21 22  1  0
 21 23  1  0
 23 24  2  0
 14 25  1  0
 25 26  2  0
  6 27  1  0
 27 28  2  0
 28 29  1  0
 29 30  1  0
 28  3  1  0
 26 11  1  0
 24 18  1  0
  1 31  1  0
  1 32  1  0
  1 33  1  0
  4 34  1  0
  5 35  1  0
  7 36  1  0
  7 37  1  0
 10 38  1  0
 12 39  1  0
 13 40  1  0
 15 41  1  0
 19 42  1  0
 20 43  1  0
 23 44  1  0
 24 45  1  0
 25 46  1  0
 26 47  1  0
 27 48  1  0
 30 49  1  0
 30 50  1  0
 30 51  1  0
M  END
$$$$
