
     RDKit          3D

 33 34  0  0  0  0  0  0  0  0999 V2000
   -2.1920   -2.4209   -0.1660 N   0  0  0  0  0  0  0  0  0  0  0  0
   -2.1631   -1.1959    0.2686 C   0  0  0  0  0  0  0  0  0  0  0  0
   -0.9844   -0.5335    0.5364 N   0  0  0  0  0  0  0  0  0  0  0  0
    0.1177   -1.0887   -0.1380 O   0  0  0  0  0  0  0  0  0  0  0  0
    1.0239   -0.1315   -0.5143 C   0  0  0  0  0  0  0  0  0  0  0  0
    0.8654    1.0686   -0.3154 O   0  0  0  0  0  0  0  0  0  0  0  0
    2.1759   -0.7783   -1.2460 C   0  0  0  0  0  0  0  0  0  0  0  0
    3.5020   -0.1025   -0.9966 C   0  0  0  0  0  0  0  0  0  0  0  0
    3.9100    0.9831   -1.7840 C   0  0  0  0  0  0  0  0  0  0  0  0
    5.1323    1.6125   -1.5418 C   0  0  0  0  0  0  0  0  0  0  0  0
    5.9551    1.1673   -0.5088 C   0  0  0  0  0  0  0  0  0  0  0  0
    5.5547    0.0949    0.2861 C   0  0  0  0  0  0  0  0  0  0  0  0
    4.3330   -0.5364    0.0465 C   0  0  0  0  0  0  0  0  0  0  0  0
   -3.4463   -0.4875    0.5435 C   0  0  0  0  0  0  0  0  0  0  0  0
   -4.3627   -1.1203    1.3975 C   0  0  0  0  0  0  0  0  0  0  0  0
   -5.5748   -0.5020    1.7068 C   0  0  0  0  0  0  0  0  0  0  0  0
   -5.8768    0.7461    1.1654 C   0  0  0  0  0  0  0  0  0  0  0  0
   -4.9687    1.3779    0.3123 C   0  0  0  0  0  0  0  0  0  0  0  0
   -3.7516    0.7645   -0.0022 C   0  0  0  0  0  0  0  0  0  0  0  0
   -2.6970    1.5892   -1.0922 Cl  0  0  0  0  0  0  0  0  0  0  0  0
   -3.1526   -2.7427   -0.3154 H   0  0  0  0  0  0  0  0  0  0  0  0
   -0.9994    0.4893    0.4839 H   0  0  0  0  0  0  0  0  0  0  0  0
    2.2543   -1.8306   -0.9438 H   0  0  0  0  0  0  0  0  0  0  0  0
    1.9437   -0.7761   -2.3179 H   0  0  0  0  0  0  0  0  0  0  0  0
    3.2743    1.3539   -2.5856 H   0  0  0  0  0  0  0  0  0  0  0  0
    5.4398    2.4555   -2.1557 H   0  0  0  0  0  0  0  0  0  0  0  0
    6.9048    1.6605   -0.3199 H   0  0  0  0  0  0  0  0  0  0  0  0
    6.1931   -0.2486    1.0961 H   0  0  0  0  0  0  0  0  0  0  0  0
    4.0351   -1.3687    0.6814 H   0  0  0  0  0  0  0  0  0  0  0  0
   -4.1251   -2.0868    1.8383 H   0  0  0  0  0  0  0  0  0  0  0  0
   -6.2809   -0.9918    2.3742 H   0  0  0  0  0  0  0  0  0  0  0  0
   -6.8211    1.2299    1.4067 H   0  0  0  0  0  0  0  0  0  0  0  0
   -5.2188    2.3495   -0.1079 H   0  0  0  0  0  0  0  0  0  0  0  0
  1  2  2  3
  2  3  1  0
  3  4  1  0
  4  5  1  0
  5  6  2  0
  5  7  1  0
  7  8  1  0
  8  9  2  0
  9 10  1  0
 10 11  2  0
 11 12  1  0
 12 13  2  0
  2 14  1  0
 14 15  2  0
 15 16  1  0
 16 17  2  0
 17 18  1  0
 18 19  2  0
 19 20  1  0
 13  8  1  0
 19 14  1  0
  1 21  1  0
  3 22  1  0
  7 23  1  0
  7 24  1  0
  9 25  1  0
 10 26  1  0
 11 27  1  0
 12 28  1  0
 13 29  1  0
 15 30  1  0
 16 31  1  0
 17 32  1  0
 18 33  1  0
M  END
$$$$
