
     RDKit          3D

 45 47  0  0  0  0  0  0  0  0999 V2000
    6.1879   -0.1595    2.1182 C   0  0  0  0  0  0  0  0  0  0  0  0
    7.3998    0.1533    1.2557 C   0  0  0  0  0  0  0  0  0  0  0  0
    7.1025    1.0419    0.0429 C   0  0  0  0  0  0  0  0  0  0  0  0
    6.4479    0.3295   -1.1448 C   0  0  0  0  0  0  0  0  0  0  0  0
    4.9920    0.0457   -0.9735 C   0  0  0  0  0  0  0  0  0  0  0  0
    4.4768   -1.1568   -0.8180 N   0  0  0  0  0  0  0  0  0  0  0  0
    3.1023   -1.1182   -0.6975 N   0  0  0  0  0  0  0  0  0  0  0  0
    2.6299    0.1054   -0.7848 C   0  0  0  0  0  0  0  0  0  0  0  0
    1.2913    0.3782   -0.6942 N   0  0  0  0  0  0  0  0  0  0  0  0
    0.6764    1.6058   -0.7667 C   0  0  0  0  0  0  0  0  0  0  0  0
    1.2181    2.6955   -0.9280 O   0  0  0  0  0  0  0  0  0  0  0  0
   -0.8464    1.5155   -0.6216 C   0  0  0  0  0  0  0  0  0  0  0  0
   -1.2675    0.1646   -0.4401 O   0  0  0  0  0  0  0  0  0  0  0  0
   -2.6094   -0.0521   -0.2974 C   0  0  0  0  0  0  0  0  0  0  0  0
   -2.9702   -1.3907   -0.1223 C   0  0  0  0  0  0  0  0  0  0  0  0
   -4.3121   -1.7617    0.0368 C   0  0  0  0  0  0  0  0  0  0  0  0
   -5.3230   -0.7963    0.0239 C   0  0  0  0  0  0  0  0  0  0  0  0
   -6.7496   -1.1073    0.1842 C   0  0  0  0  0  0  0  0  0  0  0  0
   -7.1967   -2.5265    0.3755 C   0  0  0  0  0  0  0  0  0  0  0  0
   -7.6289   -0.0949    0.1545 C   0  0  0  0  0  0  0  0  0  0  0  0
   -7.2419    1.3121   -0.0301 C   0  0  0  0  0  0  0  0  0  0  0  0
   -8.0887    2.1976   -0.0492 O   0  0  0  0  0  0  0  0  0  0  0  0
   -5.8912    1.5742   -0.1785 O   0  0  0  0  0  0  0  0  0  0  0  0
   -4.9396    0.5345   -0.1523 C   0  0  0  0  0  0  0  0  0  0  0  0
   -3.6044    0.9200   -0.3124 C   0  0  0  0  0  0  0  0  0  0  0  0
    3.8187    1.3007   -1.0211 S   0  0  0  0  0  0  0  0  0  0  0  0
    6.5073   -0.6400    3.0490 H   0  0  0  0  0  0  0  0  0  0  0  0
    5.5022   -0.8476    1.6200 H   0  0  0  0  0  0  0  0  0  0  0  0
    5.6416    0.7519    2.3806 H   0  0  0  0  0  0  0  0  0  0  0  0
    8.1288    0.6787    1.8853 H   0  0  0  0  0  0  0  0  0  0  0  0
    7.8789   -0.7794    0.9367 H   0  0  0  0  0  0  0  0  0  0  0  0
    6.5199    1.9176    0.3524 H   0  0  0  0  0  0  0  0  0  0  0  0
    8.0676    1.4284   -0.3109 H   0  0  0  0  0  0  0  0  0  0  0  0
    6.9786   -0.6082   -1.3506 H   0  0  0  0  0  0  0  0  0  0  0  0
    6.5764    0.9513   -2.0404 H   0  0  0  0  0  0  0  0  0  0  0  0
    0.7029   -0.4358   -0.5552 H   0  0  0  0  0  0  0  0  0  0  0  0
   -1.2812    1.9264   -1.5401 H   0  0  0  0  0  0  0  0  0  0  0  0
   -1.1217    2.1173    0.2522 H   0  0  0  0  0  0  0  0  0  0  0  0
   -2.2013   -2.1606   -0.1087 H   0  0  0  0  0  0  0  0  0  0  0  0
   -4.5389   -2.8163    0.1696 H   0  0  0  0  0  0  0  0  0  0  0  0
   -6.7550   -2.9547    1.2816 H   0  0  0  0  0  0  0  0  0  0  0  0
   -8.2850   -2.5999    0.4804 H   0  0  0  0  0  0  0  0  0  0  0  0
   -6.9123   -3.1431   -0.4837 H   0  0  0  0  0  0  0  0  0  0  0  0
   -8.6952   -0.2567    0.2668 H   0  0  0  0  0  0  0  0  0  0  0  0
   -3.3875    1.9743   -0.4443 H   0  0  0  0  0  0  0  0  0  0  0  0
  1  2  1  0
  2  3  1  0
  3  4  1  0
  4  5  1  0
  5  6  2  0
  6  7  1  0
  7  8  2  0
  8  9  1  0
  9 10  1  0
 10 11  2  0
 10 12  1  0
 12 13  1  0
 13 14  1  0
 14 15  2  0
 15 16  1  0
 16 17  2  0
 17 18  1  0
 18 19  1  0
 18 20  2  0
 20 21  1  0
 21 22  2  0
 21 23  1  0
 23 24  1  0
 24 25  2  0
  8 26  1  0
 26  5  1  0
 25 14  1  0
 24 17  1  0
  1 27  1  0
  1 28  1  0
  1 29  1  0
  2 30  1  0
  2 31  1  0
  3 32  1  0
  3 33  1  0
  4 34  1  0
  4 35  1  0
  9 36  1  0
 12 37  1  0
 12 38  1  0
 15 39  1  0
 16 40  1  0
 19 41  1  0
 19 42  1  0
 19 43  1  0
 20 44  1  0
 25 45  1  0
M  END
$$$$
