
     RDKit          3D

 61 65  0  0  0  0  0  0  0  0999 V2000
    6.3291   -4.1761    2.4921 C   0  0  0  0  0  0  0  0  0  0  0  0
    5.1464   -3.3688    2.0428 C   0  0  0  0  0  0  0  0  0  0  0  0
    5.2429   -2.5288    0.9303 C   0  0  0  0  0  0  0  0  0  0  0  0
    4.1324   -1.7998    0.4927 C   0  0  0  0  0  0  0  0  0  0  0  0
    2.8948   -1.9003    1.1487 C   0  0  0  0  0  0  0  0  0  0  0  0
    1.7281   -1.1338    0.6877 C   0  0  0  0  0  0  0  0  0  0  0  0
    1.7944    0.2435    0.4932 C   0  0  0  0  0  0  0  0  0  0  0  0
    0.6806    0.9708    0.0492 C   0  0  0  0  0  0  0  0  0  0  0  0
    0.7834    2.4158   -0.1798 C   0  0  0  0  0  0  0  0  0  0  0  0
    0.9456    2.9334   -1.4752 C   0  0  0  0  0  0  0  0  0  0  0  0
    1.0436    4.3110   -1.6866 C   0  0  0  0  0  0  0  0  0  0  0  0
    0.9854    5.2000   -0.6092 C   0  0  0  0  0  0  0  0  0  0  0  0
    1.1268    6.6777   -0.8360 C   0  0  0  0  0  0  0  0  0  0  0  0
    0.8613    4.6907    0.6867 C   0  0  0  0  0  0  0  0  0  0  0  0
    0.7619    3.3135    0.9002 C   0  0  0  0  0  0  0  0  0  0  0  0
   -0.5065    0.3350   -0.1979 N   0  0  0  0  0  4  0  0  0  0  0  0
   -1.6518    1.0878   -0.6536 C   0  0  0  0  0  0  0  0  0  0  0  0
   -2.3660    1.8544    0.2695 C   0  0  0  0  0  0  0  0  0  0  0  0
   -3.4691    2.5779   -0.1779 C   0  0  0  0  0  0  0  0  0  0  0  0
   -3.8404    2.5253   -1.5246 C   0  0  0  0  0  0  0  0  0  0  0  0
   -3.1138    1.7516   -2.4345 C   0  0  0  0  0  0  0  0  0  0  0  0
   -2.0073    1.0239   -2.0026 C   0  0  0  0  0  0  0  0  0  0  0  0
   -0.6024   -1.0179   -0.0119 C   0  0  0  0  0  0  0  0  0  0  0  0
   -1.8854   -1.6873   -0.2507 C   0  0  0  0  0  0  0  0  0  0  0  0
   -2.0932   -2.4362   -1.4206 C   0  0  0  0  0  0  0  0  0  0  0  0
   -3.3127   -3.0777   -1.6513 C   0  0  0  0  0  0  0  0  0  0  0  0
   -4.3497   -2.9857   -0.7184 C   0  0  0  0  0  0  0  0  0  0  0  0
   -5.6479   -3.7039   -0.9499 C   0  0  0  0  0  0  0  0  0  0  0  0
   -4.1386   -2.2714    0.4648 C   0  0  0  0  0  0  0  0  0  0  0  0
   -2.9193   -1.6302    0.6980 C   0  0  0  0  0  0  0  0  0  0  0  0
    0.5087   -1.7531    0.4258 C   0  0  0  0  0  0  0  0  0  0  0  0
    2.8063   -2.7594    2.2560 C   0  0  0  0  0  0  0  0  0  0  0  0
    3.9164   -3.4883    2.6948 C   0  0  0  0  0  0  0  0  0  0  0  0
    6.3467   -5.1368    1.9685 H   0  0  0  0  0  0  0  0  0  0  0  0
    6.2888   -4.3612    3.5707 H   0  0  0  0  0  0  0  0  0  0  0  0
    7.2644   -3.6441    2.2889 H   0  0  0  0  0  0  0  0  0  0  0  0
    6.1862   -2.4378    0.3946 H   0  0  0  0  0  0  0  0  0  0  0  0
    4.2500   -1.1622   -0.3811 H   0  0  0  0  0  0  0  0  0  0  0  0
    2.7284    0.7726    0.6898 H   0  0  0  0  0  0  0  0  0  0  0  0
    1.0061    2.2744   -2.3397 H   0  0  0  0  0  0  0  0  0  0  0  0
    1.1719    4.6903   -2.6996 H   0  0  0  0  0  0  0  0  0  0  0  0
    0.6071    7.2445   -0.0565 H   0  0  0  0  0  0  0  0  0  0  0  0
    2.1847    6.9571   -0.8309 H   0  0  0  0  0  0  0  0  0  0  0  0
    0.6872    6.9678   -1.7960 H   0  0  0  0  0  0  0  0  0  0  0  0
    0.8461    5.3678    1.5397 H   0  0  0  0  0  0  0  0  0  0  0  0
    0.6706    2.9556    1.9248 H   0  0  0  0  0  0  0  0  0  0  0  0
   -2.0863    1.8946    1.3172 H   0  0  0  0  0  0  0  0  0  0  0  0
   -4.0465    3.1864    0.5163 H   0  0  0  0  0  0  0  0  0  0  0  0
   -4.7048    3.0928   -1.8686 H   0  0  0  0  0  0  0  0  0  0  0  0
   -3.4182    1.7219   -3.4795 H   0  0  0  0  0  0  0  0  0  0  0  0
   -1.4439    0.4297   -2.7147 H   0  0  0  0  0  0  0  0  0  0  0  0
   -1.3086   -2.5350   -2.1696 H   0  0  0  0  0  0  0  0  0  0  0  0
   -3.4499   -3.6561   -2.5641 H   0  0  0  0  0  0  0  0  0  0  0  0
   -5.6029   -4.7070   -0.5144 H   0  0  0  0  0  0  0  0  0  0  0  0
   -5.8608   -3.7919   -2.0206 H   0  0  0  0  0  0  0  0  0  0  0  0
   -6.4813   -3.1569   -0.4967 H   0  0  0  0  0  0  0  0  0  0  0  0
   -4.9258   -2.2164    1.2157 H   0  0  0  0  0  0  0  0  0  0  0  0
   -2.7915   -1.0933    1.6365 H   0  0  0  0  0  0  0  0  0  0  0  0
    0.4104   -2.8317    0.5602 H   0  0  0  0  0  0  0  0  0  0  0  0
    1.8723   -2.8693    2.8033 H   0  0  0  0  0  0  0  0  0  0  0  0
    3.8153   -4.1493    3.5539 H   0  0  0  0  0  0  0  0  0  0  0  0
  1  2  1  0
  2  3  2  0
  3  4  1  0
  4  5  2  0
  5  6  1  0
  6  7  2  0
  7  8  1  0
  8  9  1  0
  9 10  2  0
 10 11  1  0
 11 12  2  0
 12 13  1  0
 12 14  1  0
 14 15  2  0
  8 16  2  0
 16 17  1  0
 17 18  2  0
 18 19  1  0
 19 20  2  0
 20 21  1  0
 21 22  2  0
 16 23  1  0
 23 24  1  0
 24 25  2  0
 25 26  1  0
 26 27  2  0
 27 28  1  0
 27 29  1  0
 29 30  2  0
 23 31  2  0
  5 32  1  0
 32 33  2  0
 33  2  1  0
 31  6  1  0
 15  9  1  0
 22 17  1  0
 30 24  1  0
  1 34  1  0
  1 35  1  0
  1 36  1  0
  3 37  1  0
  4 38  1  0
  7 39  1  0
 10 40  1  0
 11 41  1  0
 13 42  1  0
 13 43  1  0
 13 44  1  0
 14 45  1  0
 15 46  1  0
 18 47  1  0
 19 48  1  0
 20 49  1  0
 21 50  1  0
 22 51  1  0
 25 52  1  0
 26 53  1  0
 28 54  1  0
 28 55  1  0
 28 56  1  0
 29 57  1  0
 30 58  1  0
 31 59  1  0
 32 60  1  0
 33 61  1  0
M  CHG  1  16   1
M  END
$$$$
