
     RDKit          3D

 46 48  0  0  0  0  0  0  0  0999 V2000
    1.9534    3.1325    1.6991 O   0  0  0  0  0  0  0  0  0  0  0  0
    1.3863    2.0483    1.5533 C   0  0  0  0  0  0  0  0  0  0  0  0
   -0.0720    1.9311    1.1188 C   0  0  0  0  0  0  0  0  0  0  0  0
   -0.5135    0.5774    1.1471 O   0  0  0  0  0  0  0  0  0  0  0  0
   -1.8206    0.3489    0.8185 C   0  0  0  0  0  0  0  0  0  0  0  0
   -2.7057    1.2812    0.2788 C   0  0  0  0  0  0  0  0  0  0  0  0
   -4.0236    0.9075   -0.0195 C   0  0  0  0  0  0  0  0  0  0  0  0
   -4.4823   -0.3992    0.2146 C   0  0  0  0  0  0  0  0  0  0  0  0
   -5.8667   -0.7820   -0.0976 C   0  0  0  0  0  0  0  0  0  0  0  0
   -6.3745   -0.6577   -1.4007 C   0  0  0  0  0  0  0  0  0  0  0  0
   -7.6904   -1.0220   -1.6966 C   0  0  0  0  0  0  0  0  0  0  0  0
   -8.5219   -1.5113   -0.6918 C   0  0  0  0  0  0  0  0  0  0  0  0
   -8.0375   -1.6412    0.6067 C   0  0  0  0  0  0  0  0  0  0  0  0
   -6.7194   -1.2826    0.8999 C   0  0  0  0  0  0  0  0  0  0  0  0
   -3.5788   -1.3267    0.7527 C   0  0  0  0  0  0  0  0  0  0  0  0
   -2.2619   -0.9565    1.0464 C   0  0  0  0  0  0  0  0  0  0  0  0
    2.0329    0.8425    1.7530 N   0  0  0  0  0  0  0  0  0  0  0  0
    3.4537    0.8874    1.7678 N   0  0  0  0  0  0  0  0  0  0  0  0
    4.0747    0.2299    0.7095 C   0  0  0  0  0  0  0  0  0  0  0  0
    3.4568   -0.5117   -0.0477 O   0  0  0  0  0  0  0  0  0  0  0  0
    5.4314    0.4828    0.6971 N   0  0  0  0  0  0  0  0  0  0  0  0
    6.3133    0.1041   -0.3378 C   0  0  0  0  0  0  0  0  0  0  0  0
    7.6529   -0.1214    0.0052 C   0  0  0  0  0  0  0  0  0  0  0  0
    8.5740   -0.5066   -0.9737 C   0  0  0  0  0  0  0  0  0  0  0  0
    8.1594   -0.6470   -2.2941 C   0  0  0  0  0  0  0  0  0  0  0  0
    9.0463   -1.0143   -3.2281 F   0  0  0  0  0  0  0  0  0  0  0  0
    6.8480   -0.3894   -2.6616 C   0  0  0  0  0  0  0  0  0  0  0  0
    5.9338   -0.0071   -1.6853 C   0  0  0  0  0  0  0  0  0  0  0  0
    4.7055    0.3437   -2.0941 F   0  0  0  0  0  0  0  0  0  0  0  0
   -0.6671    2.5356    1.8133 H   0  0  0  0  0  0  0  0  0  0  0  0
   -0.1279    2.3251    0.0984 H   0  0  0  0  0  0  0  0  0  0  0  0
   -2.4112    2.3044    0.0689 H   0  0  0  0  0  0  0  0  0  0  0  0
   -4.6999    1.6537   -0.4331 H   0  0  0  0  0  0  0  0  0  0  0  0
   -5.7381   -0.2834   -2.2007 H   0  0  0  0  0  0  0  0  0  0  0  0
   -8.0639   -0.9241   -2.7134 H   0  0  0  0  0  0  0  0  0  0  0  0
   -9.5456   -1.7933   -0.9217 H   0  0  0  0  0  0  0  0  0  0  0  0
   -8.6841   -2.0196    1.3939 H   0  0  0  0  0  0  0  0  0  0  0  0
   -6.3627   -1.3882    1.9220 H   0  0  0  0  0  0  0  0  0  0  0  0
   -3.8909   -2.3523    0.9346 H   0  0  0  0  0  0  0  0  0  0  0  0
   -1.5784   -1.6954    1.4595 H   0  0  0  0  0  0  0  0  0  0  0  0
    1.6365    0.0241    1.2821 H   0  0  0  0  0  0  0  0  0  0  0  0
    3.8091    1.8249    1.9586 H   0  0  0  0  0  0  0  0  0  0  0  0
    5.8267    0.6301    1.6150 H   0  0  0  0  0  0  0  0  0  0  0  0
    7.9912   -0.0235    1.0329 H   0  0  0  0  0  0  0  0  0  0  0  0
    9.6111   -0.6964   -0.7180 H   0  0  0  0  0  0  0  0  0  0  0  0
    6.5416   -0.4622   -3.6991 H   0  0  0  0  0  0  0  0  0  0  0  0
  1  2  2  0
  2  3  1  0
  3  4  1  0
  4  5  1  0
  5  6  2  0
  6  7  1  0
  7  8  2  0
  8  9  1  0
  9 10  2  0
 10 11  1  0
 11 12  2  0
 12 13  1  0
 13 14  2  0
  8 15  1  0
 15 16  2  0
  2 17  1  0
 17 18  1  0
 18 19  1  0
 19 20  2  0
 19 21  1  0
 21 22  1  0
 22 23  2  0
 23 24  1  0
 24 25  2  0
 25 26  1  0
 25 27  1  0
 27 28  2  0
 28 29  1  0
 16  5  1  0
 28 22  1  0
 14  9  1  0
  3 30  1  0
  3 31  1  0
  6 32  1  0
  7 33  1  0
 10 34  1  0
 11 35  1  0
 12 36  1  0
 13 37  1  0
 14 38  1  0
 15 39  1  0
 16 40  1  0
 17 41  1  0
 18 42  1  0
 21 43  1  0
 23 44  1  0
 24 45  1  0
 27 46  1  0
M  END
$$$$
