
     RDKit          3D

 47 48  0  0  0  0  0  0  0  0999 V2000
   -5.2577    0.1112    0.5378 C   0  0  0  0  0  0  0  0  0  0  0  0
   -4.3703   -0.7521    1.4214 C   0  0  0  0  0  0  0  0  0  0  0  0
   -3.3188    0.0481    2.0665 N   0  0  0  0  0  0  0  0  0  0  0  0
   -3.6938    0.7143    3.3250 C   0  0  0  0  0  0  0  0  0  0  0  0
   -3.7577    2.2272    3.1624 C   0  0  0  0  0  0  0  0  0  0  0  0
   -2.0301    0.1195    1.5464 C   0  0  0  0  0  0  0  0  0  0  0  0
   -0.9367    0.5340    2.3213 C   0  0  0  0  0  0  0  0  0  0  0  0
    0.3638    0.6018    1.8073 C   0  0  0  0  0  0  0  0  0  0  0  0
    0.6220    0.2505    0.4826 C   0  0  0  0  0  0  0  0  0  0  0  0
    2.0088    0.3530    0.0060 C   0  0  0  0  0  0  0  0  0  0  0  0
    2.6447   -0.6985   -0.5312 C   0  0  0  0  0  0  0  0  0  0  0  0
    3.9927   -0.5925   -1.0810 C   0  0  0  0  0  0  0  0  0  0  0  0
    5.0976   -0.4791   -0.2307 C   0  0  0  0  0  0  0  0  0  0  0  0
    6.3769   -0.3922   -0.7638 C   0  0  0  0  0  0  0  0  0  0  0  0
    6.5381   -0.4187   -2.1404 C   0  0  0  0  0  0  0  0  0  0  0  0
    5.4190   -0.5284   -2.9568 C   0  0  0  0  0  0  0  0  0  0  0  0
    4.1749   -0.6130   -2.4296 N   0  0  0  0  0  4  0  0  0  0  0  0
    3.0138   -0.6940   -3.3409 C   0  0  0  0  0  0  0  0  0  0  0  0
   -0.4478   -0.1449   -0.3380 C   0  0  0  0  0  0  0  0  0  0  0  0
   -0.1401   -0.4390   -1.6488 O   0  0  0  0  0  0  0  0  0  0  0  0
   -1.2343   -0.6777   -2.5296 C   0  0  0  0  0  0  0  0  0  0  0  0
   -1.7435   -0.2123    0.2067 C   0  0  0  0  0  0  0  0  0  0  0  0
   -4.6793    0.6364   -0.2282 H   0  0  0  0  0  0  0  0  0  0  0  0
   -6.0065   -0.5088    0.0348 H   0  0  0  0  0  0  0  0  0  0  0  0
   -5.7891    0.8637    1.1290 H   0  0  0  0  0  0  0  0  0  0  0  0
   -4.9929   -1.2317    2.1873 H   0  0  0  0  0  0  0  0  0  0  0  0
   -3.9512   -1.5858    0.8460 H   0  0  0  0  0  0  0  0  0  0  0  0
   -3.0169    0.4345    4.1395 H   0  0  0  0  0  0  0  0  0  0  0  0
   -4.6848    0.3739    3.6507 H   0  0  0  0  0  0  0  0  0  0  0  0
   -4.4608    2.5106    2.3729 H   0  0  0  0  0  0  0  0  0  0  0  0
   -2.7833    2.6539    2.9075 H   0  0  0  0  0  0  0  0  0  0  0  0
   -4.0917    2.6914    4.0958 H   0  0  0  0  0  0  0  0  0  0  0  0
   -1.0641    0.8047    3.3655 H   0  0  0  0  0  0  0  0  0  0  0  0
    1.1669    0.9244    2.4663 H   0  0  0  0  0  0  0  0  0  0  0  0
    2.4724    1.3311    0.1119 H   0  0  0  0  0  0  0  0  0  0  0  0
    2.1573   -1.6668   -0.6202 H   0  0  0  0  0  0  0  0  0  0  0  0
    4.9628   -0.4645    0.8498 H   0  0  0  0  0  0  0  0  0  0  0  0
    7.2419   -0.3061   -0.1077 H   0  0  0  0  0  0  0  0  0  0  0  0
    7.5325   -0.3514   -2.5771 H   0  0  0  0  0  0  0  0  0  0  0  0
    5.5136   -0.5455   -4.0392 H   0  0  0  0  0  0  0  0  0  0  0  0
    2.3883    0.1874   -3.1782 H   0  0  0  0  0  0  0  0  0  0  0  0
    2.4745   -1.6213   -3.1313 H   0  0  0  0  0  0  0  0  0  0  0  0
    3.3556   -0.7061   -4.3790 H   0  0  0  0  0  0  0  0  0  0  0  0
   -1.7632   -1.5970   -2.2582 H   0  0  0  0  0  0  0  0  0  0  0  0
   -1.9126    0.1812   -2.5643 H   0  0  0  0  0  0  0  0  0  0  0  0
   -0.8248   -0.8168   -3.5349 H   0  0  0  0  0  0  0  0  0  0  0  0
   -2.5662   -0.5087   -0.4313 H   0  0  0  0  0  0  0  0  0  0  0  0
  1  2  1  0
  2  3  1  0
  3  4  1  0
  4  5  1  0
  3  6  1  0
  6  7  2  0
  7  8  1  0
  8  9  2  0
  9 10  1  0
 10 11  2  3
 11 12  1  0
 12 13  2  0
 13 14  1  0
 14 15  2  0
 15 16  1  0
 16 17  2  0
 17 18  1  0
  9 19  1  0
 19 20  1  0
 20 21  1  0
 19 22  2  0
 22  6  1  0
 17 12  1  0
  1 23  1  0
  1 24  1  0
  1 25  1  0
  2 26  1  0
  2 27  1  0
  4 28  1  0
  4 29  1  0
  5 30  1  0
  5 31  1  0
  5 32  1  0
  7 33  1  0
  8 34  1  0
 10 35  1  0
 11 36  1  0
 13 37  1  0
 14 38  1  0
 15 39  1  0
 16 40  1  0
 18 41  1  0
 18 42  1  0
 18 43  1  0
 21 44  1  0
 21 45  1  0
 21 46  1  0
 22 47  1  0
M  CHG  1  17   1
M  END
$$$$
