
     RDKit          3D

 60 62  0  0  0  0  0  0  0  0999 V2000
   -8.4282   -2.5969   -0.9853 C   0  0  0  0  0  0  0  0  0  0  0  0
   -7.2218   -3.4736   -1.2841 C   0  0  0  0  0  0  0  0  0  0  0  0
   -5.9278   -2.7825   -0.9400 C   0  0  0  0  0  0  0  0  0  0  0  0
   -5.3670   -2.9163    0.3345 C   0  0  0  0  0  0  0  0  0  0  0  0
   -4.1724   -2.2644    0.6630 C   0  0  0  0  0  0  0  0  0  0  0  0
   -3.5202   -1.4659   -0.2760 C   0  0  0  0  0  0  0  0  0  0  0  0
   -2.3219   -0.7664   -0.0237 N   0  0  0  0  0  0  0  0  0  0  0  0
   -1.5476   -0.8087    1.1224 C   0  0  0  0  0  0  0  0  0  0  0  0
   -1.7428   -1.5114    2.1137 O   0  0  0  0  0  0  0  0  0  0  0  0
   -0.3496    0.1655    1.0905 C   0  0  0  0  0  0  0  0  0  0  0  0
    0.7788   -0.4882    1.8031 N   0  0  0  0  0  0  0  0  0  0  0  0
    1.7412   -1.5322    0.8968 S   0  0  0  0  0  6  0  0  0  0  0  0
    0.9885   -1.9468   -0.2663 O   0  0  0  0  0  0  0  0  0  0  0  0
    2.3322   -2.4729    1.8191 O   0  0  0  0  0  0  0  0  0  0  0  0
    3.0346   -0.4356    0.3680 C   0  0  0  0  0  0  0  0  0  0  0  0
    3.8775    0.1382    1.3322 C   0  0  0  0  0  0  0  0  0  0  0  0
    4.9071    1.0076    0.9465 C   0  0  0  0  0  0  0  0  0  0  0  0
    5.0835    1.2870   -0.3999 C   0  0  0  0  0  0  0  0  0  0  0  0
    4.2339    0.7009   -1.3487 C   0  0  0  0  0  0  0  0  0  0  0  0
    3.2088   -0.1645   -0.9886 C   0  0  0  0  0  0  0  0  0  0  0  0
    4.6063    1.0952   -2.7423 C   0  0  0  0  0  0  0  0  0  0  0  0
    5.7051    2.1262   -2.4924 C   0  0  0  0  0  0  0  0  0  0  0  0
    6.0149    2.1139   -1.0551 N   0  0  0  0  0  0  0  0  0  0  0  0
    7.0564    2.8916   -0.5968 C   0  0  0  0  0  0  0  0  0  0  0  0
    7.4165    2.8757    0.8613 C   0  0  0  0  0  0  0  0  0  0  0  0
    7.7092    3.6046   -1.3668 O   0  0  0  0  0  0  0  0  0  0  0  0
   -0.6526    1.5277    1.7544 C   0  0  0  0  0  0  0  0  0  0  0  0
   -1.1734    1.4210    3.1914 C   0  0  0  0  0  0  0  0  0  0  0  0
   -1.6249    2.3592    0.9126 C   0  0  0  0  0  0  0  0  0  0  0  0
   -4.0857   -1.3247   -1.5493 C   0  0  0  0  0  0  0  0  0  0  0  0
   -5.2789   -1.9750   -1.8790 C   0  0  0  0  0  0  0  0  0  0  0  0
   -8.3953   -1.6655   -1.5606 H   0  0  0  0  0  0  0  0  0  0  0  0
   -9.3522   -3.1233   -1.2449 H   0  0  0  0  0  0  0  0  0  0  0  0
   -8.4743   -2.3334    0.0767 H   0  0  0  0  0  0  0  0  0  0  0  0
   -7.2991   -4.4137   -0.7243 H   0  0  0  0  0  0  0  0  0  0  0  0
   -7.2194   -3.7524   -2.3449 H   0  0  0  0  0  0  0  0  0  0  0  0
   -5.8542   -3.5319    1.0880 H   0  0  0  0  0  0  0  0  0  0  0  0
   -3.7822   -2.4041    1.6660 H   0  0  0  0  0  0  0  0  0  0  0  0
   -1.9571   -0.2368   -0.8053 H   0  0  0  0  0  0  0  0  0  0  0  0
   -0.0499    0.3601    0.0535 H   0  0  0  0  0  0  0  0  0  0  0  0
    0.4970   -0.9501    2.6758 H   0  0  0  0  0  0  0  0  0  0  0  0
    3.7347   -0.0924    2.3868 H   0  0  0  0  0  0  0  0  0  0  0  0
    5.5245    1.4285    1.7269 H   0  0  0  0  0  0  0  0  0  0  0  0
    2.5750   -0.6198   -1.7440 H   0  0  0  0  0  0  0  0  0  0  0  0
    3.7636    1.5320   -3.2860 H   0  0  0  0  0  0  0  0  0  0  0  0
    4.9947    0.2330   -3.2937 H   0  0  0  0  0  0  0  0  0  0  0  0
    6.6089    1.9045   -3.0716 H   0  0  0  0  0  0  0  0  0  0  0  0
    5.3719    3.1358   -2.7632 H   0  0  0  0  0  0  0  0  0  0  0  0
    7.6430    1.8585    1.1893 H   0  0  0  0  0  0  0  0  0  0  0  0
    6.6169    3.3272    1.4529 H   0  0  0  0  0  0  0  0  0  0  0  0
    8.3205    3.4752    1.0131 H   0  0  0  0  0  0  0  0  0  0  0  0
    0.2925    2.0873    1.7978 H   0  0  0  0  0  0  0  0  0  0  0  0
   -0.4837    0.8571    3.8267 H   0  0  0  0  0  0  0  0  0  0  0  0
   -1.2815    2.4182    3.6323 H   0  0  0  0  0  0  0  0  0  0  0  0
   -2.1541    0.9366    3.2332 H   0  0  0  0  0  0  0  0  0  0  0  0
   -1.2650    2.4583   -0.1171 H   0  0  0  0  0  0  0  0  0  0  0  0
   -1.7254    3.3685    1.3269 H   0  0  0  0  0  0  0  0  0  0  0  0
   -2.6235    1.9113    0.8859 H   0  0  0  0  0  0  0  0  0  0  0  0
   -3.6083   -0.7094   -2.3072 H   0  0  0  0  0  0  0  0  0  0  0  0
   -5.6974   -1.8477   -2.8749 H   0  0  0  0  0  0  0  0  0  0  0  0
  1  2  1  0
  2  3  1  0
  3  4  2  0
  4  5  1  0
  5  6  2  0
  6  7  1  0
  7  8  1  0
  8  9  2  0
  8 10  1  0
 10 11  1  0
 11 12  1  0
 12 13  2  0
 12 14  2  0
 12 15  1  0
 15 16  2  0
 16 17  1  0
 17 18  2  0
 18 19  1  0
 19 20  2  0
 19 21  1  0
 21 22  1  0
 22 23  1  0
 23 24  1  0
 24 25  1  0
 24 26  2  0
 10 27  1  0
 27 28  1  0
 27 29  1  0
  6 30  1  0
 30 31  2  0
 31  3  1  0
 20 15  1  0
 23 18  1  0
  1 32  1  0
  1 33  1  0
  1 34  1  0
  2 35  1  0
  2 36  1  0
  4 37  1  0
  5 38  1  0
  7 39  1  0
 10 40  1  0
 11 41  1  0
 16 42  1  0
 17 43  1  0
 20 44  1  0
 21 45  1  0
 21 46  1  0
 22 47  1  0
 22 48  1  0
 25 49  1  0
 25 50  1  0
 25 51  1  0
 27 52  1  0
 28 53  1  0
 28 54  1  0
 28 55  1  0
 29 56  1  0
 29 57  1  0
 29 58  1  0
 30 59  1  0
 31 60  1  0
M  END
$$$$
