
     RDKit          3D

 31 32  0  0  0  0  0  0  0  0999 V2000
    4.2370    0.2468    1.6761 C   0  0  0  0  0  0  0  0  0  0  0  0
    4.4510   -1.3472    0.8311 S   0  0  0  0  0  0  0  0  0  0  0  0
    2.8002   -1.5827    0.1986 C   0  0  0  0  0  0  0  0  0  0  0  0
    2.6245   -1.7866   -1.1753 C   0  0  0  0  0  0  0  0  0  0  0  0
    1.3448   -1.9590   -1.7054 C   0  0  0  0  0  0  0  0  0  0  0  0
    0.2353   -1.9394   -0.8611 C   0  0  0  0  0  0  0  0  0  0  0  0
    0.4097   -1.7737    0.5119 C   0  0  0  0  0  0  0  0  0  0  0  0
   -0.7386   -1.7215    1.3591 N   0  0  0  0  0  0  0  0  0  0  0  0
   -1.3586   -0.1679    1.6740 S   0  0  0  0  0  6  0  0  0  0  0  0
   -0.2607    0.7166    2.0119 O   0  0  0  0  0  0  0  0  0  0  0  0
   -2.4744   -0.3393    2.5813 O   0  0  0  0  0  0  0  0  0  0  0  0
   -2.0669    0.5146    0.2329 C   0  0  0  0  0  0  0  0  0  0  0  0
   -2.1232    1.8589   -0.0850 C   0  0  0  0  0  0  0  0  0  0  0  0
   -2.7770    1.9109   -1.2826 N   0  0  0  0  0  0  0  0  0  0  0  0
   -3.0875    3.1071   -2.0218 C   0  0  0  0  0  0  0  0  0  0  0  0
   -3.0932    0.6345   -1.6498 C   0  0  0  0  0  0  0  0  0  0  0  0
   -2.6777   -0.2395   -0.7600 N   0  0  0  0  0  0  0  0  0  0  0  0
    1.6858   -1.5881    1.0437 C   0  0  0  0  0  0  0  0  0  0  0  0
    3.8485    1.0019    0.9825 H   0  0  0  0  0  0  0  0  0  0  0  0
    3.5572    0.1560    2.5314 H   0  0  0  0  0  0  0  0  0  0  0  0
    5.2084    0.5811    2.0499 H   0  0  0  0  0  0  0  0  0  0  0  0
    3.4819   -1.7988   -1.8450 H   0  0  0  0  0  0  0  0  0  0  0  0
    1.2126   -2.1058   -2.7752 H   0  0  0  0  0  0  0  0  0  0  0  0
   -0.7610   -2.0696   -1.2759 H   0  0  0  0  0  0  0  0  0  0  0  0
   -0.6222   -2.2007    2.2527 H   0  0  0  0  0  0  0  0  0  0  0  0
   -1.7578    2.7354    0.4319 H   0  0  0  0  0  0  0  0  0  0  0  0
   -3.8153    2.8752   -2.8030 H   0  0  0  0  0  0  0  0  0  0  0  0
   -2.1637    3.4848   -2.4670 H   0  0  0  0  0  0  0  0  0  0  0  0
   -3.5088    3.8441   -1.3334 H   0  0  0  0  0  0  0  0  0  0  0  0
   -3.6202    0.3972   -2.5670 H   0  0  0  0  0  0  0  0  0  0  0  0
    1.8098   -1.4455    2.1135 H   0  0  0  0  0  0  0  0  0  0  0  0
  1  2  1  0
  2  3  1  0
  3  4  2  0
  4  5  1  0
  5  6  2  0
  6  7  1  0
  7  8  1  0
  8  9  1  0
  9 10  2  0
  9 11  2  0
  9 12  1  0
 12 13  2  0
 13 14  1  0
 14 15  1  0
 14 16  1  0
 16 17  2  0
  7 18  2  0
 18  3  1  0
 17 12  1  0
  1 19  1  0
  1 20  1  0
  1 21  1  0
  4 22  1  0
  5 23  1  0
  6 24  1  0
  8 25  1  0
 13 26  1  0
 15 27  1  0
 15 28  1  0
 15 29  1  0
 16 30  1  0
 18 31  1  0
M  END
$$$$
