
     RDKit          3D

 36 37  0  0  0  0  0  0  0  0999 V2000
    4.2535   -0.3747    1.7859 C   0  0  0  0  0  0  0  0  0  0  0  0
    4.6125    0.1314    0.4508 N   0  0  0  0  0  0  0  0  0  0  0  0
    4.5674    1.5996    0.3513 C   0  0  0  0  0  0  0  0  0  0  0  0
    4.0523   -0.7531   -0.8893 S   0  0  0  0  0  6  0  0  0  0  0  0
    4.2501   -2.1618   -0.6217 O   0  0  0  0  0  0  0  0  0  0  0  0
    4.5756   -0.1394   -2.0915 O   0  0  0  0  0  0  0  0  0  0  0  0
    2.2936   -0.4523   -0.8652 C   0  0  0  0  0  0  0  0  0  0  0  0
    1.7641    0.6132   -1.5994 C   0  0  0  0  0  0  0  0  0  0  0  0
    0.3835    0.8277   -1.6042 C   0  0  0  0  0  0  0  0  0  0  0  0
   -0.4700   -0.0258   -0.8885 C   0  0  0  0  0  0  0  0  0  0  0  0
   -1.9323    0.2479   -0.9314 C   0  0  0  0  0  0  0  0  0  0  0  0
   -2.4415    1.1114   -1.6271 O   0  0  0  0  0  0  0  0  0  0  0  0
   -2.5961   -0.5725   -0.0843 O   0  0  0  0  0  0  0  0  0  0  0  0
   -4.0099   -0.4210   -0.0919 C   0  0  0  0  0  0  0  0  0  0  0  0
   -4.4715    0.7671    0.7204 C   0  0  0  0  0  0  0  0  0  0  0  0
   -5.8709    0.3584    1.0981 C   0  0  0  0  0  0  0  0  0  0  0  0
   -5.8124   -1.0559    1.2893 O   0  0  0  0  0  0  0  0  0  0  0  0
   -4.7104   -1.5481    0.6407 C   0  0  0  0  0  0  0  0  0  0  0  0
   -4.3758   -2.7219    0.6595 O   0  0  0  0  0  0  0  0  0  0  0  0
    0.0705   -1.1075   -0.1763 C   0  0  0  0  0  0  0  0  0  0  0  0
    1.4514   -1.3259   -0.1699 C   0  0  0  0  0  0  0  0  0  0  0  0
    3.2192   -0.1235    2.0368 H   0  0  0  0  0  0  0  0  0  0  0  0
    4.3926   -1.4571    1.8512 H   0  0  0  0  0  0  0  0  0  0  0  0
    4.9107    0.0745    2.5379 H   0  0  0  0  0  0  0  0  0  0  0  0
    4.9357    1.9434   -0.6189 H   0  0  0  0  0  0  0  0  0  0  0  0
    3.5521    1.9735    0.5100 H   0  0  0  0  0  0  0  0  0  0  0  0
    5.2209    2.0396    1.1118 H   0  0  0  0  0  0  0  0  0  0  0  0
    2.4135    1.2708   -2.1742 H   0  0  0  0  0  0  0  0  0  0  0  0
   -0.0258    1.6584   -2.1779 H   0  0  0  0  0  0  0  0  0  0  0  0
   -4.4063   -0.4085   -1.1157 H   0  0  0  0  0  0  0  0  0  0  0  0
   -4.4401    1.7127    0.1721 H   0  0  0  0  0  0  0  0  0  0  0  0
   -3.8458    0.8839    1.6142 H   0  0  0  0  0  0  0  0  0  0  0  0
   -6.2012    0.8412    2.0223 H   0  0  0  0  0  0  0  0  0  0  0  0
   -6.5959    0.5739    0.3060 H   0  0  0  0  0  0  0  0  0  0  0  0
   -0.5720   -1.7992    0.3657 H   0  0  0  0  0  0  0  0  0  0  0  0
    1.8584   -2.1804    0.3678 H   0  0  0  0  0  0  0  0  0  0  0  0
  1  2  1  0
  2  3  1  0
  2  4  1  0
  4  5  2  0
  4  6  2  0
  4  7  1  0
  7  8  2  0
  8  9  1  0
  9 10  2  0
 10 11  1  0
 11 12  2  0
 11 13  1  0
 13 14  1  0
 14 15  1  0
 15 16  1  0
 16 17  1  0
 17 18  1  0
 18 19  2  0
 10 20  1  0
 20 21  2  0
 21  7  1  0
 18 14  1  0
  1 22  1  0
  1 23  1  0
  1 24  1  0
  3 25  1  0
  3 26  1  0
  3 27  1  0
  8 28  1  0
  9 29  1  0
 14 30  1  0
 15 31  1  0
 15 32  1  0
 16 33  1  0
 16 34  1  0
 20 35  1  0
 21 36  1  0
M  END
$$$$
