
     RDKit          3D

 51 54  0  0  0  0  0  0  0  0999 V2000
    6.5539    1.8533    1.7545 C   0  0  0  0  0  0  0  0  0  0  0  0
    5.3190    1.0088    1.6496 C   0  0  0  0  0  0  0  0  0  0  0  0
    5.3970   -0.3818    1.7826 C   0  0  0  0  0  0  0  0  0  0  0  0
    4.2567   -1.2036    1.6690 C   0  0  0  0  0  0  0  0  0  0  0  0
    4.4472   -2.6731    1.9336 C   0  0  0  0  0  0  0  0  0  0  0  0
    3.0170   -0.6147    1.3481 C   0  0  0  0  0  0  0  0  0  0  0  0
    1.8226   -1.3683    1.1878 N   0  0  0  0  0  0  0  0  0  0  0  0
    1.7282   -2.4921    0.3793 C   0  0  0  0  0  0  0  0  0  0  0  0
    2.6378   -2.9454   -0.3137 O   0  0  0  0  0  0  0  0  0  0  0  0
    0.3550   -3.1432    0.3814 C   0  0  0  0  0  0  0  0  0  0  0  0
   -0.6804   -2.4421   -0.9388 S   0  0  0  0  0  0  0  0  0  0  0  0
   -1.3099   -1.0432   -0.1474 C   0  0  0  0  0  0  0  0  0  0  0  0
   -1.0976   -0.7249    1.1066 N   0  0  0  0  0  0  0  0  0  0  0  0
   -1.7175    0.4730    1.3412 N   0  0  0  0  0  0  0  0  0  0  0  0
   -2.3076    0.8668    0.2257 C   0  0  0  0  0  0  0  0  0  0  0  0
   -3.0155    2.1277    0.0524 C   0  0  0  0  0  0  0  0  0  0  0  0
   -2.3180    3.3317    0.1557 C   0  0  0  0  0  0  0  0  0  0  0  0
   -3.0145    4.5124   -0.0322 C   0  0  0  0  0  0  0  0  0  0  0  0
   -4.3344    4.5678   -0.3085 N   0  0  0  0  0  0  0  0  0  0  0  0
   -4.9944    3.3906   -0.3711 C   0  0  0  0  0  0  0  0  0  0  0  0
   -4.3881    2.1587   -0.1962 C   0  0  0  0  0  0  0  0  0  0  0  0
   -2.0609   -0.0741   -0.7557 N   0  0  0  0  0  0  0  0  0  0  0  0
   -2.3922    0.0314   -2.1647 C   0  0  0  0  0  0  0  0  0  0  0  0
   -3.5142   -0.8680   -2.5331 C   0  0  0  0  0  0  0  0  0  0  0  0
   -3.5960   -2.0154   -3.2959 C   0  0  0  0  0  0  0  0  0  0  0  0
   -4.9582   -2.4003   -3.2944 C   0  0  0  0  0  0  0  0  0  0  0  0
   -5.6209   -1.4625   -2.5383 C   0  0  0  0  0  0  0  0  0  0  0  0
   -4.7544   -0.5242   -2.0793 O   0  0  0  0  0  0  0  0  0  0  0  0
    2.9444    0.7880    1.2346 C   0  0  0  0  0  0  0  0  0  0  0  0
    1.4606    1.5883    0.8431 Cl  0  0  0  0  0  0  0  0  0  0  0  0
    4.0820    1.5883    1.3710 C   0  0  0  0  0  0  0  0  0  0  0  0
    7.2484    1.4360    2.4913 H   0  0  0  0  0  0  0  0  0  0  0  0
    7.0548    1.9051    0.7833 H   0  0  0  0  0  0  0  0  0  0  0  0
    6.3085    2.8699    2.0790 H   0  0  0  0  0  0  0  0  0  0  0  0
    6.3626   -0.8395    1.9989 H   0  0  0  0  0  0  0  0  0  0  0  0
    3.5381   -3.1386    2.3252 H   0  0  0  0  0  0  0  0  0  0  0  0
    5.2165   -2.8273    2.6990 H   0  0  0  0  0  0  0  0  0  0  0  0
    4.7684   -3.1879    1.0230 H   0  0  0  0  0  0  0  0  0  0  0  0
    0.9567   -0.8306    1.2707 H   0  0  0  0  0  0  0  0  0  0  0  0
    0.4922   -4.2120    0.1820 H   0  0  0  0  0  0  0  0  0  0  0  0
   -0.1162   -3.0672    1.3672 H   0  0  0  0  0  0  0  0  0  0  0  0
   -1.2556    3.3531    0.3779 H   0  0  0  0  0  0  0  0  0  0  0  0
   -2.5149    5.4737    0.0339 H   0  0  0  0  0  0  0  0  0  0  0  0
   -6.0607    3.4657   -0.5666 H   0  0  0  0  0  0  0  0  0  0  0  0
   -4.9785    1.2508   -0.2381 H   0  0  0  0  0  0  0  0  0  0  0  0
   -2.6468    1.0706   -2.3981 H   0  0  0  0  0  0  0  0  0  0  0  0
   -1.4888   -0.2041   -2.7397 H   0  0  0  0  0  0  0  0  0  0  0  0
   -2.7742   -2.5150   -3.7920 H   0  0  0  0  0  0  0  0  0  0  0  0
   -5.4044   -3.2509   -3.7880 H   0  0  0  0  0  0  0  0  0  0  0  0
   -6.6541   -1.3269   -2.2510 H   0  0  0  0  0  0  0  0  0  0  0  0
    4.0013    2.6652    1.2482 H   0  0  0  0  0  0  0  0  0  0  0  0
  1  2  1  0
  2  3  2  0
  3  4  1  0
  4  5  1  0
  4  6  2  0
  6  7  1  0
  7  8  1  0
  8  9  2  0
  8 10  1  0
 10 11  1  0
 11 12  1  0
 12 13  2  0
 13 14  1  0
 14 15  2  0
 15 16  1  0
 16 17  2  0
 17 18  1  0
 18 19  2  0
 19 20  1  0
 20 21  2  0
 15 22  1  0
 22 23  1  0
 23 24  1  0
 24 25  2  0
 25 26  1  0
 26 27  2  0
 27 28  1  0
  6 29  1  0
 29 30  1  0
 29 31  2  0
 31  2  1  0
 22 12  1  0
 28 24  1  0
 21 16  1  0
  1 32  1  0
  1 33  1  0
  1 34  1  0
  3 35  1  0
  5 36  1  0
  5 37  1  0
  5 38  1  0
  7 39  1  0
 10 40  1  0
 10 41  1  0
 17 42  1  0
 18 43  1  0
 20 44  1  0
 21 45  1  0
 23 46  1  0
 23 47  1  0
 25 48  1  0
 26 49  1  0
 27 50  1  0
 31 51  1  0
M  END
$$$$
