
     RDKit          3D

 59 62  0  0  0  0  0  0  0  0999 V2000
    6.6794   -2.8669    1.5439 C   0  0  0  0  0  0  0  0  0  0  0  0
    5.6228   -1.8390    1.9092 C   0  0  0  0  0  0  0  0  0  0  0  0
    4.3117   -2.3511    1.6688 O   0  0  0  0  0  0  0  0  0  0  0  0
    3.8710   -2.2138    0.3148 C   0  0  0  0  0  0  0  0  0  0  0  0
    3.1636   -0.8756    0.1100 C   0  0  0  0  0  0  0  0  0  0  0  0
    1.8458   -0.7953    0.8925 C   0  0  0  0  0  0  0  0  0  0  0  0
    0.7114   -0.5381   -0.0242 N   0  0  0  0  0  0  0  0  0  0  0  0
    0.0119   -1.6341   -0.5592 C   0  0  0  0  0  0  0  0  0  0  0  0
    0.3771   -2.8445   -0.2436 N   0  0  0  0  0  0  0  0  0  0  0  0
   -1.1349   -1.3710   -1.4831 C   0  0  0  0  0  0  0  0  0  0  0  0
   -2.2048   -2.6072   -2.0300 S   0  0  0  0  0  6  0  0  0  0  0  0
   -1.6258   -3.9205   -1.7985 O   0  0  0  0  0  0  0  0  0  0  0  0
   -2.7177   -2.2680   -3.3476 O   0  0  0  0  0  0  0  0  0  0  0  0
   -3.5567   -2.4456   -0.8789 C   0  0  0  0  0  0  0  0  0  0  0  0
   -4.7838   -1.9402   -1.3136 C   0  0  0  0  0  0  0  0  0  0  0  0
   -5.8229   -1.7785   -0.3963 C   0  0  0  0  0  0  0  0  0  0  0  0
   -5.6446   -2.1280    0.9468 C   0  0  0  0  0  0  0  0  0  0  0  0
   -6.7538   -1.9118    1.9368 C   0  0  0  0  0  0  0  0  0  0  0  0
   -4.4046   -2.6328    1.3684 C   0  0  0  0  0  0  0  0  0  0  0  0
   -3.3627   -2.8050    0.4571 C   0  0  0  0  0  0  0  0  0  0  0  0
   -1.3711   -0.0913   -1.8233 C   0  0  0  0  0  0  0  0  0  0  0  0
   -0.5585    1.0054   -1.3212 C   0  0  0  0  0  0  0  0  0  0  0  0
   -0.8525    2.3966   -1.7606 C   0  0  0  0  0  0  0  0  0  0  0  0
   -1.7894    2.6048   -2.5330 O   0  0  0  0  0  0  0  0  0  0  0  0
   -0.0309    3.3844   -1.2491 N   0  0  0  0  0  0  0  0  0  0  0  0
   -0.2354    4.7089   -1.6247 C   0  0  0  0  0  0  0  0  0  0  0  0
    0.5276    5.7104   -1.1573 C   0  0  0  0  0  0  0  0  0  0  0  0
    0.3307    7.1432   -1.5507 C   0  0  0  0  0  0  0  0  0  0  0  0
    1.5921    5.4050   -0.2292 C   0  0  0  0  0  0  0  0  0  0  0  0
    1.8195    4.1447    0.1600 C   0  0  0  0  0  0  0  0  0  0  0  0
    0.9726    3.0388   -0.3653 C   0  0  0  0  0  0  0  0  0  0  0  0
    1.2173    1.8312    0.0300 N   0  0  0  0  0  0  0  0  0  0  0  0
    0.4492    0.7915   -0.4431 C   0  0  0  0  0  0  0  0  0  0  0  0
    6.6818   -3.0587    0.4660 H   0  0  0  0  0  0  0  0  0  0  0  0
    7.6753   -2.5143    1.8267 H   0  0  0  0  0  0  0  0  0  0  0  0
    6.4877   -3.8345    2.0329 H   0  0  0  0  0  0  0  0  0  0  0  0
    5.7000   -1.6112    2.9793 H   0  0  0  0  0  0  0  0  0  0  0  0
    5.7818   -0.8939    1.3696 H   0  0  0  0  0  0  0  0  0  0  0  0
    3.1878   -3.0427    0.1051 H   0  0  0  0  0  0  0  0  0  0  0  0
    4.7100   -2.3073   -0.3850 H   0  0  0  0  0  0  0  0  0  0  0  0
    3.0034   -0.7211   -0.9650 H   0  0  0  0  0  0  0  0  0  0  0  0
    3.8110   -0.0598    0.4548 H   0  0  0  0  0  0  0  0  0  0  0  0
    1.6652   -1.6993    1.4864 H   0  0  0  0  0  0  0  0  0  0  0  0
    1.9118    0.0078    1.6400 H   0  0  0  0  0  0  0  0  0  0  0  0
   -0.1754   -3.5762   -0.7235 H   0  0  0  0  0  0  0  0  0  0  0  0
   -4.9408   -1.6665   -2.3529 H   0  0  0  0  0  0  0  0  0  0  0  0
   -6.7759   -1.3755   -0.7342 H   0  0  0  0  0  0  0  0  0  0  0  0
   -7.7325   -2.0120    1.4528 H   0  0  0  0  0  0  0  0  0  0  0  0
   -6.7133   -2.6544    2.7414 H   0  0  0  0  0  0  0  0  0  0  0  0
   -6.6741   -0.9097    2.3768 H   0  0  0  0  0  0  0  0  0  0  0  0
   -4.2475   -2.8975    2.4122 H   0  0  0  0  0  0  0  0  0  0  0  0
   -2.4094   -3.2101    0.8001 H   0  0  0  0  0  0  0  0  0  0  0  0
   -2.1996    0.1708   -2.4808 H   0  0  0  0  0  0  0  0  0  0  0  0
   -1.0490    4.8983   -2.3226 H   0  0  0  0  0  0  0  0  0  0  0  0
    1.2311    7.5399   -2.0305 H   0  0  0  0  0  0  0  0  0  0  0  0
   -0.4997    7.2645   -2.2547 H   0  0  0  0  0  0  0  0  0  0  0  0
    0.1053    7.7578   -0.6709 H   0  0  0  0  0  0  0  0  0  0  0  0
    2.2046    6.2157    0.1544 H   0  0  0  0  0  0  0  0  0  0  0  0
    2.6065    3.8829    0.8545 H   0  0  0  0  0  0  0  0  0  0  0  0
  1  2  1  0
  2  3  1  0
  3  4  1  0
  4  5  1  0
  5  6  1  0
  6  7  1  0
  7  8  1  0
  8  9  2  3
  8 10  1  0
 10 11  1  0
 11 12  2  0
 11 13  2  0
 11 14  1  0
 14 15  2  0
 15 16  1  0
 16 17  2  0
 17 18  1  0
 17 19  1  0
 19 20  2  0
 10 21  2  0
 21 22  1  0
 22 23  1  0
 23 24  2  0
 23 25  1  0
 25 26  1  0
 26 27  2  0
 27 28  1  0
 27 29  1  0
 29 30  2  0
 30 31  1  0
 31 32  2  0
 32 33  1  0
 33  7  1  0
 20 14  1  0
 33 22  2  0
 31 25  1  0
  1 34  1  0
  1 35  1  0
  1 36  1  0
  2 37  1  0
  2 38  1  0
  4 39  1  0
  4 40  1  0
  5 41  1  0
  5 42  1  0
  6 43  1  0
  6 44  1  0
  9 45  1  0
 15 46  1  0
 16 47  1  0
 18 48  1  0
 18 49  1  0
 18 50  1  0
 19 51  1  0
 20 52  1  0
 21 53  1  0
 26 54  1  0
 28 55  1  0
 28 56  1  0
 28 57  1  0
 29 58  1  0
 30 59  1  0
M  END
$$$$
