
     RDKit          3D

 38 41  0  0  0  0  0  0  0  0999 V2000
    6.9055   -1.1529    0.4567 C   0  0  0  0  0  0  0  0  0  0  0  0
    5.5328   -0.6421    0.1339 C   0  0  0  0  0  0  0  0  0  0  0  0
    5.2798    0.7331    0.0909 C   0  0  0  0  0  0  0  0  0  0  0  0
    4.0088    1.2101   -0.2434 C   0  0  0  0  0  0  0  0  0  0  0  0
    2.9691    0.3217   -0.5385 C   0  0  0  0  0  0  0  0  0  0  0  0
    1.6550    0.8611   -0.9085 C   0  0  0  0  0  0  0  0  0  0  0  0
    0.4925    0.3594   -0.4588 C   0  0  0  0  0  0  0  0  0  0  0  0
   -0.8109    0.9137   -0.8255 C   0  0  0  0  0  0  0  0  0  0  0  0
   -0.8816    1.9374   -1.7125 N   0  0  0  0  0  0  0  0  0  0  0  0
   -2.0872    2.4386   -2.0515 C   0  0  0  0  0  0  0  0  0  0  0  0
   -3.2978    1.9845   -1.5560 C   0  0  0  0  0  0  0  0  0  0  0  0
   -3.2454    0.9278   -0.6351 C   0  0  0  0  0  0  0  0  0  0  0  0
   -1.9966    0.4094   -0.2844 C   0  0  0  0  0  0  0  0  0  0  0  0
   -2.2315   -0.5984    0.6244 N   0  0  0  0  0  0  0  0  0  0  0  0
   -3.5761   -0.7508    0.8661 C   0  0  0  0  0  0  0  0  0  0  0  0
   -4.2459   -1.6461    1.7083 C   0  0  0  0  0  0  0  0  0  0  0  0
   -5.6410   -1.5700    1.7543 C   0  0  0  0  0  0  0  0  0  0  0  0
   -6.3345   -0.6357    0.9888 C   0  0  0  0  0  0  0  0  0  0  0  0
   -5.6475    0.2520    0.1527 C   0  0  0  0  0  0  0  0  0  0  0  0
   -4.2397    0.1952    0.0883 C   0  0  0  0  0  0  0  0  0  0  0  0
    3.2317   -1.0531   -0.5249 C   0  0  0  0  0  0  0  0  0  0  0  0
    4.5029   -1.5311   -0.1920 C   0  0  0  0  0  0  0  0  0  0  0  0
    6.8532   -2.1343    0.9398 H   0  0  0  0  0  0  0  0  0  0  0  0
    7.4207   -0.4780    1.1483 H   0  0  0  0  0  0  0  0  0  0  0  0
    7.4974   -1.2404   -0.4595 H   0  0  0  0  0  0  0  0  0  0  0  0
    6.0706    1.4451    0.3157 H   0  0  0  0  0  0  0  0  0  0  0  0
    3.8363    2.2839   -0.2663 H   0  0  0  0  0  0  0  0  0  0  0  0
    1.6654    1.7297   -1.5645 H   0  0  0  0  0  0  0  0  0  0  0  0
    0.4979   -0.4865    0.2172 H   0  0  0  0  0  0  0  0  0  0  0  0
   -2.0566    3.2553   -2.7677 H   0  0  0  0  0  0  0  0  0  0  0  0
   -4.2349    2.4287   -1.8676 H   0  0  0  0  0  0  0  0  0  0  0  0
   -1.5134   -1.1548    1.0632 H   0  0  0  0  0  0  0  0  0  0  0  0
   -3.7097   -2.3754    2.3070 H   0  0  0  0  0  0  0  0  0  0  0  0
   -6.1926   -2.2512    2.3985 H   0  0  0  0  0  0  0  0  0  0  0  0
   -7.4198   -0.5935    1.0400 H   0  0  0  0  0  0  0  0  0  0  0  0
   -6.1972    0.9772   -0.4398 H   0  0  0  0  0  0  0  0  0  0  0  0
    2.4557   -1.7662   -0.7912 H   0  0  0  0  0  0  0  0  0  0  0  0
    4.6843   -2.6035   -0.1961 H   0  0  0  0  0  0  0  0  0  0  0  0
  1  2  1  0
  2  3  2  0
  3  4  1  0
  4  5  2  0
  5  6  1  0
  6  7  2  3
  7  8  1  0
  8  9  2  0
  9 10  1  0
 10 11  2  0
 11 12  1  0
 12 13  2  0
 13 14  1  0
 14 15  1  0
 15 16  2  0
 16 17  1  0
 17 18  2  0
 18 19  1  0
 19 20  2  0
  5 21  1  0
 21 22  2  0
 22  2  1  0
 13  8  1  0
 20 15  1  0
 20 12  1  0
  1 23  1  0
  1 24  1  0
  1 25  1  0
  3 26  1  0
  4 27  1  0
  6 28  1  0
  7 29  1  0
 10 30  1  0
 11 31  1  0
 14 32  1  0
 16 33  1  0
 17 34  1  0
 18 35  1  0
 19 36  1  0
 21 37  1  0
 22 38  1  0
M  END
$$$$
