
     RDKit          3D

 37 39  0  0  0  0  0  0  0  0999 V2000
   -5.7618    1.6103   -0.6631 C   0  0  0  0  0  0  0  0  0  0  0  0
   -5.1214    0.6953    0.3415 C   0  0  0  0  0  0  0  0  0  0  0  0
   -5.8799    0.1753    1.4011 C   0  0  0  0  0  0  0  0  0  0  0  0
   -5.2989   -0.6858    2.3335 C   0  0  0  0  0  0  0  0  0  0  0  0
   -3.9557   -1.0380    2.2163 C   0  0  0  0  0  0  0  0  0  0  0  0
   -3.1886   -0.5223    1.1717 C   0  0  0  0  0  0  0  0  0  0  0  0
   -3.7613    0.3602    0.2518 C   0  0  0  0  0  0  0  0  0  0  0  0
   -3.0469    0.8653   -0.8024 O   0  0  0  0  0  0  0  0  0  0  0  0
   -1.8557    1.5376   -0.4135 C   0  0  0  0  0  0  0  0  0  0  0  0
   -0.5577    0.7405   -0.6229 C   0  0  0  0  0  0  0  0  0  0  0  0
   -0.5536   -0.4003   -1.0734 O   0  0  0  0  0  0  0  0  0  0  0  0
    0.5509    1.4695   -0.2352 N   0  0  0  0  0  0  0  0  0  0  0  0
    1.8602    1.0574   -0.2672 C   0  0  0  0  0  0  0  0  0  0  0  0
    2.8405    1.8370    0.1265 N   0  0  0  0  0  0  0  0  0  0  0  0
    4.0688    1.2181    0.0185 N   0  0  0  0  0  0  0  0  0  0  0  0
    3.9809   -0.0128   -0.4567 C   0  0  0  0  0  0  0  0  0  0  0  0
    5.1307   -0.9099   -0.6659 C   0  0  0  0  0  0  0  0  0  0  0  0
    6.4032   -0.4889   -0.2550 C   0  0  0  0  0  0  0  0  0  0  0  0
    7.4879   -1.3298   -0.4442 C   0  0  0  0  0  0  0  0  0  0  0  0
    7.3969   -2.5496   -1.0106 N   0  0  0  0  0  0  0  0  0  0  0  0
    6.1693   -2.9443   -1.4049 C   0  0  0  0  0  0  0  0  0  0  0  0
    5.0250   -2.1744   -1.2576 C   0  0  0  0  0  0  0  0  0  0  0  0
    2.3578   -0.4773   -0.7983 S   0  0  0  0  0  0  0  0  0  0  0  0
   -5.5815    1.2471   -1.6797 H   0  0  0  0  0  0  0  0  0  0  0  0
   -5.3606    2.6258   -0.5620 H   0  0  0  0  0  0  0  0  0  0  0  0
   -6.8482    1.6611   -0.5243 H   0  0  0  0  0  0  0  0  0  0  0  0
   -6.9323    0.4329    1.5024 H   0  0  0  0  0  0  0  0  0  0  0  0
   -5.8993   -1.0931    3.1441 H   0  0  0  0  0  0  0  0  0  0  0  0
   -3.5089   -1.7290    2.9278 H   0  0  0  0  0  0  0  0  0  0  0  0
   -2.1597   -0.8486    1.0663 H   0  0  0  0  0  0  0  0  0  0  0  0
   -1.7855    2.4289   -1.0484 H   0  0  0  0  0  0  0  0  0  0  0  0
   -1.8993    1.8929    0.6254 H   0  0  0  0  0  0  0  0  0  0  0  0
    0.4404    2.4129    0.1141 H   0  0  0  0  0  0  0  0  0  0  0  0
    6.5537    0.4806    0.2116 H   0  0  0  0  0  0  0  0  0  0  0  0
    8.4865   -1.0341   -0.1338 H   0  0  0  0  0  0  0  0  0  0  0  0
    6.1228   -3.9320   -1.8575 H   0  0  0  0  0  0  0  0  0  0  0  0
    4.0811   -2.5785   -1.6084 H   0  0  0  0  0  0  0  0  0  0  0  0
  1  2  1  0
  2  3  2  0
  3  4  1  0
  4  5  2  0
  5  6  1  0
  6  7  2  0
  7  8  1  0
  8  9  1  0
  9 10  1  0
 10 11  2  0
 10 12  1  0
 12 13  1  0
 13 14  2  0
 14 15  1  0
 15 16  2  0
 16 17  1  0
 17 18  2  0
 18 19  1  0
 19 20  2  0
 20 21  1  0
 21 22  2  0
 16 23  1  0
  7  2  1  0
 23 13  1  0
 22 17  1  0
  1 24  1  0
  1 25  1  0
  1 26  1  0
  3 27  1  0
  4 28  1  0
  5 29  1  0
  6 30  1  0
  9 31  1  0
  9 32  1  0
 12 33  1  0
 18 34  1  0
 19 35  1  0
 21 36  1  0
 22 37  1  0
M  END
$$$$
