
     RDKit          3D

 56 61  0  0  0  0  0  0  0  0999 V2000
    8.3859   -0.3642    0.4474 C   0  0  0  0  0  0  0  0  0  0  0  0
    6.9030   -0.3680    0.2216 C   0  0  0  0  0  0  0  0  0  0  0  0
    6.3053    0.6436   -0.5375 C   0  0  0  0  0  0  0  0  0  0  0  0
    4.9202    0.6661   -0.7327 C   0  0  0  0  0  0  0  0  0  0  0  0
    4.1162   -0.3243   -0.1677 C   0  0  0  0  0  0  0  0  0  0  0  0
    2.5586   -0.3152   -0.3784 C   0  0  0  0  0  0  0  0  0  0  0  0
    1.6515   -1.2341    0.1394 C   0  0  0  0  0  0  0  0  0  0  0  0
    0.3641   -0.8654   -0.2480 N   0  0  0  0  0  4  0  0  0  0  0  0
   -0.9041   -1.5023    0.1503 C   0  0  0  0  0  0  0  0  0  0  0  0
   -1.6561   -0.5915    1.1445 C   0  0  0  0  0  0  0  0  0  0  0  0
   -1.0006   -0.0415    2.0325 O   0  0  0  0  0  0  0  0  0  0  0  0
   -3.0010   -0.3326    0.8263 N   0  0  0  0  0  0  0  0  0  0  0  0
   -3.6190    0.9375    1.1328 C   0  0  0  0  0  0  0  0  0  0  0  0
   -3.2073    1.7044    2.2377 C   0  0  0  0  0  0  0  0  0  0  0  0
   -3.7888    2.9443    2.5285 C   0  0  0  0  0  0  0  0  0  0  0  0
   -4.7945    3.4516    1.7174 C   0  0  0  0  0  0  0  0  0  0  0  0
   -5.2159    2.7191    0.6130 C   0  0  0  0  0  0  0  0  0  0  0  0
   -4.6395    1.4722    0.3206 C   0  0  0  0  0  0  0  0  0  0  0  0
   -5.1797    0.6612   -1.1676 S   0  0  0  0  0  0  0  0  0  0  0  0
   -4.8698   -1.0114   -0.6789 C   0  0  0  0  0  0  0  0  0  0  0  0
   -5.6544   -2.0231   -1.2515 C   0  0  0  0  0  0  0  0  0  0  0  0
   -5.4471   -3.3583   -0.9137 C   0  0  0  0  0  0  0  0  0  0  0  0
   -4.4583   -3.6905    0.0039 C   0  0  0  0  0  0  0  0  0  0  0  0
   -3.6688   -2.6877    0.5722 C   0  0  0  0  0  0  0  0  0  0  0  0
   -3.8430   -1.3330    0.2212 C   0  0  0  0  0  0  0  0  0  0  0  0
    0.4678    0.2587   -0.9453 C   0  0  0  0  0  0  0  0  0  0  0  0
    1.7533    0.5667   -1.0788 N   0  0  0  0  0  0  0  0  0  0  0  0
    1.9399    1.7916   -1.8426 C   0  0  0  0  0  0  0  0  0  0  0  0
    0.5367    2.0546   -2.4574 C   0  0  0  0  0  0  0  0  0  0  0  0
   -0.4406    1.2296   -1.5967 C   0  0  0  0  0  0  0  0  0  0  0  0
    4.7083   -1.3316    0.6041 C   0  0  0  0  0  0  0  0  0  0  0  0
    6.0926   -1.3477    0.8011 C   0  0  0  0  0  0  0  0  0  0  0  0
    8.7344   -1.3385    0.8037 H   0  0  0  0  0  0  0  0  0  0  0  0
    8.9157   -0.1493   -0.4853 H   0  0  0  0  0  0  0  0  0  0  0  0
    8.6489    0.3932    1.1925 H   0  0  0  0  0  0  0  0  0  0  0  0
    6.9214    1.4246   -0.9817 H   0  0  0  0  0  0  0  0  0  0  0  0
    4.5119    1.4742   -1.3253 H   0  0  0  0  0  0  0  0  0  0  0  0
    1.7597   -2.1070    0.7604 H   0  0  0  0  0  0  0  0  0  0  0  0
   -0.6892   -2.4619    0.6296 H   0  0  0  0  0  0  0  0  0  0  0  0
   -1.4619   -1.6694   -0.7749 H   0  0  0  0  0  0  0  0  0  0  0  0
   -2.4586    1.3469    2.9391 H   0  0  0  0  0  0  0  0  0  0  0  0
   -3.4609    3.5053    3.4019 H   0  0  0  0  0  0  0  0  0  0  0  0
   -5.2505    4.4131    1.9442 H   0  0  0  0  0  0  0  0  0  0  0  0
   -5.9980    3.1309   -0.0230 H   0  0  0  0  0  0  0  0  0  0  0  0
   -6.4414   -1.7766   -1.9625 H   0  0  0  0  0  0  0  0  0  0  0  0
   -6.0708   -4.1345   -1.3534 H   0  0  0  0  0  0  0  0  0  0  0  0
   -4.3202   -4.7309    0.2962 H   0  0  0  0  0  0  0  0  0  0  0  0
   -2.9584   -2.9894    1.3401 H   0  0  0  0  0  0  0  0  0  0  0  0
    2.2285    2.5950   -1.1583 H   0  0  0  0  0  0  0  0  0  0  0  0
    2.6894    1.6547   -2.6250 H   0  0  0  0  0  0  0  0  0  0  0  0
    0.2814    3.1169   -2.4931 H   0  0  0  0  0  0  0  0  0  0  0  0
    0.5217    1.6704   -3.4842 H   0  0  0  0  0  0  0  0  0  0  0  0
   -1.1840    0.6852   -2.1795 H   0  0  0  0  0  0  0  0  0  0  0  0
   -0.8951    1.8182   -0.7965 H   0  0  0  0  0  0  0  0  0  0  0  0
    4.1252   -2.1178    1.0746 H   0  0  0  0  0  0  0  0  0  0  0  0
    6.5362   -2.1321    1.4127 H   0  0  0  0  0  0  0  0  0  0  0  0
  1  2  1  0
  2  3  2  0
  3  4  1  0
  4  5  2  0
  5  6  1  0
  6  7  2  0
  7  8  1  0
  8  9  1  0
  9 10  1  0
 10 11  2  0
 10 12  1  0
 12 13  1  0
 13 14  2  0
 14 15  1  0
 15 16  2  0
 16 17  1  0
 17 18  2  0
 18 19  1  0
 19 20  1  0
 20 21  2  0
 21 22  1  0
 22 23  2  0
 23 24  1  0
 24 25  2  0
  8 26  2  0
 26 27  1  0
 27 28  1  0
 28 29  1  0
 29 30  1  0
  5 31  1  0
 31 32  2  0
 32  2  1  0
 27  6  1  0
 25 12  1  0
 30 26  1  0
 18 13  1  0
 25 20  1  0
  1 33  1  0
  1 34  1  0
  1 35  1  0
  3 36  1  0
  4 37  1  0
  7 38  1  0
  9 39  1  0
  9 40  1  0
 14 41  1  0
 15 42  1  0
 16 43  1  0
 17 44  1  0
 21 45  1  0
 22 46  1  0
 23 47  1  0
 24 48  1  0
 28 49  1  0
 28 50  1  0
 29 51  1  0
 29 52  1  0
 30 53  1  0
 30 54  1  0
 31 55  1  0
 32 56  1  0
M  CHG  1   8   1
M  END
$$$$
