
     RDKit          3D

 36 37  0  0  0  0  0  0  0  0999 V2000
   -0.7326    2.7769    1.9206 O   0  0  0  0  0  0  0  0  0  0  0  0
   -0.6520    1.6077    1.5543 C   0  0  0  0  0  0  0  0  0  0  0  0
   -0.0696    0.5116    2.4454 C   0  0  0  0  0  0  0  0  0  0  0  0
    1.2778    0.1798    2.1028 O   0  0  0  0  0  0  0  0  0  0  0  0
    1.4214   -0.6871    1.0731 C   0  0  0  0  0  0  0  0  0  0  0  0
    0.5079   -1.1956    0.4407 O   0  0  0  0  0  0  0  0  0  0  0  0
    2.8610   -0.9332    0.7894 C   0  0  0  0  0  0  0  0  0  0  0  0
    3.1923   -1.7410   -0.3091 C   0  0  0  0  0  0  0  0  0  0  0  0
    4.5303   -1.9983   -0.6174 C   0  0  0  0  0  0  0  0  0  0  0  0
    5.5431   -1.4521    0.1714 C   0  0  0  0  0  0  0  0  0  0  0  0
    5.2150   -0.6499    1.2634 C   0  0  0  0  0  0  0  0  0  0  0  0
    6.4695    0.0216    2.2321 Cl  0  0  0  0  0  0  0  0  0  0  0  0
    3.8821   -0.3861    1.5781 C   0  0  0  0  0  0  0  0  0  0  0  0
   -1.0853    1.1690    0.3237 N   0  0  0  0  0  0  0  0  0  0  0  0
   -1.6269    2.0836   -0.6657 C   0  0  0  0  0  0  0  0  0  0  0  0
   -2.3581    1.3664   -1.8069 C   0  0  0  0  0  0  0  0  0  0  0  0
   -3.5137    0.6157   -1.3427 N   0  0  0  0  0  0  0  0  0  0  0  0
   -3.4631   -0.7026   -0.9607 C   0  0  0  0  0  0  0  0  0  0  0  0
   -2.2876   -1.3791   -1.0869 O   0  0  0  0  0  0  0  0  0  0  0  0
   -4.6146   -1.1863   -0.4808 C   0  0  0  0  0  0  0  0  0  0  0  0
   -5.8557    0.0318   -0.4756 S   0  0  0  0  0  0  0  0  0  0  0  0
   -4.7347    1.2374   -1.1399 C   0  0  0  0  0  0  0  0  0  0  0  0
   -5.0361    2.3993   -1.3579 O   0  0  0  0  0  0  0  0  0  0  0  0
   -0.7180   -0.3723    2.4304 H   0  0  0  0  0  0  0  0  0  0  0  0
   -0.0662    0.8798    3.4770 H   0  0  0  0  0  0  0  0  0  0  0  0
    2.4093   -2.1708   -0.9324 H   0  0  0  0  0  0  0  0  0  0  0  0
    4.7839   -2.6220   -1.4721 H   0  0  0  0  0  0  0  0  0  0  0  0
    6.5846   -1.6538   -0.0710 H   0  0  0  0  0  0  0  0  0  0  0  0
    3.6507    0.2432    2.4343 H   0  0  0  0  0  0  0  0  0  0  0  0
   -0.8533    0.2170    0.0345 H   0  0  0  0  0  0  0  0  0  0  0  0
   -2.2973    2.7869   -0.1582 H   0  0  0  0  0  0  0  0  0  0  0  0
   -0.7862    2.6576   -1.0694 H   0  0  0  0  0  0  0  0  0  0  0  0
   -2.7063    2.1185   -2.5250 H   0  0  0  0  0  0  0  0  0  0  0  0
   -1.6783    0.6970   -2.3462 H   0  0  0  0  0  0  0  0  0  0  0  0
   -2.4051   -2.2782   -0.7363 H   0  0  0  0  0  0  0  0  0  0  0  0
   -4.7879   -2.1923   -0.1262 H   0  0  0  0  0  0  0  0  0  0  0  0
  1  2  2  0
  2  3  1  0
  3  4  1  0
  4  5  1  0
  5  6  2  0
  5  7  1  0
  7  8  2  0
  8  9  1  0
  9 10  2  0
 10 11  1  0
 11 12  1  0
 11 13  2  0
  2 14  1  0
 14 15  1  0
 15 16  1  0
 16 17  1  0
 17 18  1  0
 18 19  1  0
 18 20  2  0
 20 21  1  0
 21 22  1  0
 22 23  2  0
 13  7  1  0
 22 17  1  0
  3 24  1  0
  3 25  1  0
  8 26  1  0
  9 27  1  0
 10 28  1  0
 13 29  1  0
 14 30  1  0
 15 31  1  0
 15 32  1  0
 16 33  1  0
 16 34  1  0
 19 35  1  0
 20 36  1  0
M  END
$$$$
