
     RDKit          3D

 32 34  0  0  0  0  0  0  0  0999 V2000
   -3.4822    1.4908   -2.6964 C   0  0  0  0  0  0  0  0  0  0  0  0
   -2.5236    0.5700   -1.9608 C   0  0  0  0  0  0  0  0  0  0  0  0
   -2.9666   -0.7694   -2.1627 O   0  0  0  0  0  0  0  0  0  0  0  0
   -2.2127   -1.7705   -1.5566 C   0  0  0  0  0  0  0  0  0  0  0  0
   -2.7157   -3.0600   -1.7956 C   0  0  0  0  0  0  0  0  0  0  0  0
   -2.0920   -4.1852   -1.2695 C   0  0  0  0  0  0  0  0  0  0  0  0
   -0.9448   -4.0578   -0.4876 C   0  0  0  0  0  0  0  0  0  0  0  0
   -0.4398   -2.7684   -0.2476 C   0  0  0  0  0  0  0  0  0  0  0  0
    0.9466   -2.3231    0.6704 S   0  0  0  0  0  0  0  0  0  0  0  0
    0.6512   -0.6884    0.3375 C   0  0  0  0  0  0  0  0  0  0  0  0
    1.4411    0.3360    0.7924 N   0  0  0  0  0  0  0  0  0  0  0  0
    2.5391    0.2479    1.6231 C   0  0  0  0  0  0  0  0  0  0  0  0
    2.9562   -0.7967    2.1130 O   0  0  0  0  0  0  0  0  0  0  0  0
    3.1733    1.5429    1.8915 C   0  0  0  0  0  0  0  0  0  0  0  0
    3.0350    2.7703    1.2581 C   0  0  0  0  0  0  0  0  0  0  0  0
    3.8454    3.7900    1.8474 C   0  0  0  0  0  0  0  0  0  0  0  0
    4.5726    3.2986    2.8989 C   0  0  0  0  0  0  0  0  0  0  0  0
    5.7749    4.3615    3.9364 Br  0  0  0  0  0  0  0  0  0  0  0  0
    4.3072    1.6546    3.1856 S   0  0  0  0  0  0  0  0  0  0  0  0
   -0.3920   -0.4317   -0.4119 N   0  0  0  0  0  0  0  0  0  0  0  0
   -1.0436   -1.6146   -0.7617 C   0  0  0  0  0  0  0  0  0  0  0  0
   -3.5053    1.2502   -3.7644 H   0  0  0  0  0  0  0  0  0  0  0  0
   -4.5027    1.3655   -2.3193 H   0  0  0  0  0  0  0  0  0  0  0  0
   -3.1871    2.5369   -2.5762 H   0  0  0  0  0  0  0  0  0  0  0  0
   -1.5190    0.7066   -2.3758 H   0  0  0  0  0  0  0  0  0  0  0  0
   -2.5434    0.8230   -0.8952 H   0  0  0  0  0  0  0  0  0  0  0  0
   -3.6102   -3.1771   -2.4042 H   0  0  0  0  0  0  0  0  0  0  0  0
   -2.5020   -5.1729   -1.4691 H   0  0  0  0  0  0  0  0  0  0  0  0
   -0.4542   -4.9347   -0.0746 H   0  0  0  0  0  0  0  0  0  0  0  0
    1.1062    1.2373    0.4934 H   0  0  0  0  0  0  0  0  0  0  0  0
    2.4000    2.9513    0.3999 H   0  0  0  0  0  0  0  0  0  0  0  0
    3.8879    4.8173    1.5060 H   0  0  0  0  0  0  0  0  0  0  0  0
  1  2  1  0
  2  3  1  0
  3  4  1  0
  4  5  2  0
  5  6  1  0
  6  7  2  0
  7  8  1  0
  8  9  1  0
  9 10  1  0
 10 11  1  0
 11 12  1  0
 12 13  2  0
 12 14  1  0
 14 15  2  0
 15 16  1  0
 16 17  2  0
 17 18  1  0
 17 19  1  0
 10 20  2  0
 20 21  1  0
 21  4  1  0
 21  8  2  0
 19 14  1  0
  1 22  1  0
  1 23  1  0
  1 24  1  0
  2 25  1  0
  2 26  1  0
  5 27  1  0
  6 28  1  0
  7 29  1  0
 11 30  1  0
 15 31  1  0
 16 32  1  0
M  END
$$$$
