
     RDKit          3D

 51 55  0  0  0  0  0  0  0  0999 V2000
    7.4482   -0.4458   -0.7202 C   0  0  0  0  0  0  0  0  0  0  0  0
    6.4751   -0.0300   -1.6265 C   0  0  0  0  0  0  0  0  0  0  0  0
    5.2683    0.4971   -1.1638 C   0  0  0  0  0  0  0  0  0  0  0  0
    5.0226    0.6148    0.2104 C   0  0  0  0  0  0  0  0  0  0  0  0
    3.7146    1.1811    0.7119 C   0  0  0  0  0  0  0  0  0  0  0  0
    2.5566    0.1626    0.7168 C   0  0  0  0  0  0  0  0  0  0  0  0
    2.0380   -0.1824   -0.6215 N   0  0  0  0  0  0  0  0  0  0  0  0
    1.2098   -1.4095   -0.5790 C   0  0  0  0  0  0  0  0  0  0  0  0
   -0.1765   -1.2404    0.0787 C   0  0  0  0  0  0  0  0  0  0  0  0
   -0.9358   -0.1490   -0.5639 N   0  0  0  0  0  0  0  0  0  0  0  0
   -2.2972   -0.0622   -0.2771 C   0  0  0  0  0  0  0  0  0  0  0  0
   -2.7487    0.9847    0.3671 N   0  0  0  0  0  0  0  0  0  0  0  0
   -4.1146    1.0863    0.6993 C   0  0  0  0  0  0  0  0  0  0  0  0
   -4.5441    2.2154    1.3992 C   0  0  0  0  0  0  0  0  0  0  0  0
   -5.8857    2.3625    1.7625 C   0  0  0  0  0  0  0  0  0  0  0  0
   -6.8143    1.3762    1.4274 C   0  0  0  0  0  0  0  0  0  0  0  0
   -6.4080    0.2394    0.7277 C   0  0  0  0  0  0  0  0  0  0  0  0
   -5.0627    0.1061    0.3717 C   0  0  0  0  0  0  0  0  0  0  0  0
   -4.5711   -0.9983   -0.3426 N   0  0  0  0  0  0  0  0  0  0  0  0
   -5.2389   -2.0989   -0.8254 C   0  0  0  0  0  0  0  0  0  0  0  0
   -4.3383   -2.8789   -1.5188 C   0  0  0  0  0  0  0  0  0  0  0  0
   -3.0811   -2.2361   -1.4419 C   0  0  0  0  0  0  0  0  0  0  0  0
   -3.2400   -1.0924   -0.6799 C   0  0  0  0  0  0  0  0  0  0  0  0
   -0.1692    1.1136   -0.6020 C   0  0  0  0  0  0  0  0  0  0  0  0
    1.2268    0.8987   -1.2287 C   0  0  0  0  0  0  0  0  0  0  0  0
    6.0068    0.1885    1.1131 C   0  0  0  0  0  0  0  0  0  0  0  0
    7.2140   -0.3375    0.6491 C   0  0  0  0  0  0  0  0  0  0  0  0
    8.3869   -0.8570   -1.0813 H   0  0  0  0  0  0  0  0  0  0  0  0
    6.6519   -0.1194   -2.6949 H   0  0  0  0  0  0  0  0  0  0  0  0
    4.5125    0.8073   -1.8821 H   0  0  0  0  0  0  0  0  0  0  0  0
    3.8594    1.5350    1.7415 H   0  0  0  0  0  0  0  0  0  0  0  0
    3.4632    2.0805    0.1387 H   0  0  0  0  0  0  0  0  0  0  0  0
    1.7551    0.5501    1.3563 H   0  0  0  0  0  0  0  0  0  0  0  0
    2.9247   -0.7485    1.2075 H   0  0  0  0  0  0  0  0  0  0  0  0
    1.0644   -1.7495   -1.6132 H   0  0  0  0  0  0  0  0  0  0  0  0
    1.7583   -2.2181   -0.0806 H   0  0  0  0  0  0  0  0  0  0  0  0
   -0.0674   -1.0273    1.1493 H   0  0  0  0  0  0  0  0  0  0  0  0
   -0.7097   -2.1926   -0.0016 H   0  0  0  0  0  0  0  0  0  0  0  0
   -3.8234    2.9848    1.6628 H   0  0  0  0  0  0  0  0  0  0  0  0
   -6.2037    3.2479    2.3070 H   0  0  0  0  0  0  0  0  0  0  0  0
   -7.8571    1.4957    1.7115 H   0  0  0  0  0  0  0  0  0  0  0  0
   -7.1483   -0.5124    0.4757 H   0  0  0  0  0  0  0  0  0  0  0  0
   -6.2969   -2.2414   -0.6605 H   0  0  0  0  0  0  0  0  0  0  0  0
   -4.5668   -3.8036   -2.0331 H   0  0  0  0  0  0  0  0  0  0  0  0
   -2.1568   -2.5682   -1.8960 H   0  0  0  0  0  0  0  0  0  0  0  0
   -0.0730    1.5275    0.4089 H   0  0  0  0  0  0  0  0  0  0  0  0
   -0.7055    1.8505   -1.2125 H   0  0  0  0  0  0  0  0  0  0  0  0
    1.7755    1.8462   -1.2292 H   0  0  0  0  0  0  0  0  0  0  0  0
    1.0903    0.6469   -2.2893 H   0  0  0  0  0  0  0  0  0  0  0  0
    5.8406    0.2636    2.1851 H   0  0  0  0  0  0  0  0  0  0  0  0
    7.9714   -0.6640    1.3567 H   0  0  0  0  0  0  0  0  0  0  0  0
  1  2  2  0
  2  3  1  0
  3  4  2  0
  4  5  1  0
  5  6  1  0
  6  7  1  0
  7  8  1  0
  8  9  1  0
  9 10  1  0
 10 11  1  0
 11 12  2  0
 12 13  1  0
 13 14  2  0
 14 15  1  0
 15 16  2  0
 16 17  1  0
 17 18  2  0
 18 19  1  0
 19 20  1  0
 20 21  2  0
 21 22  1  0
 22 23  2  0
 10 24  1  0
 24 25  1  0
  4 26  1  0
 26 27  2  0
 27  1  1  0
 25  7  1  0
 23 11  1  0
 18 13  1  0
 23 19  1  0
  1 28  1  0
  2 29  1  0
  3 30  1  0
  5 31  1  0
  5 32  1  0
  6 33  1  0
  6 34  1  0
  8 35  1  0
  8 36  1  0
  9 37  1  0
  9 38  1  0
 14 39  1  0
 15 40  1  0
 16 41  1  0
 17 42  1  0
 20 43  1  0
 21 44  1  0
 22 45  1  0
 24 46  1  0
 24 47  1  0
 25 48  1  0
 25 49  1  0
 26 50  1  0
 27 51  1  0
M  END
$$$$
