
     RDKit          3D

 56 58  0  0  0  0  0  0  0  0999 V2000
    8.6808    3.0650   -1.7468 C   0  0  0  0  0  0  0  0  0  0  0  0
    8.7789    2.2143   -0.4925 C   0  0  0  0  0  0  0  0  0  0  0  0
    8.0150    1.0163   -0.6338 O   0  0  0  0  0  0  0  0  0  0  0  0
    6.7314    0.9999   -0.1703 C   0  0  0  0  0  0  0  0  0  0  0  0
    5.9702    2.1058    0.1979 C   0  0  0  0  0  0  0  0  0  0  0  0
    4.6538    1.9366    0.6494 C   0  0  0  0  0  0  0  0  0  0  0  0
    4.0793    0.6626    0.7363 C   0  0  0  0  0  0  0  0  0  0  0  0
    2.7525    0.5840    1.2048 N   0  0  0  0  0  0  0  0  0  0  0  0
    1.9905   -0.5585    1.3877 C   0  0  0  0  0  0  0  0  0  0  0  0
    2.3339   -1.7121    1.1560 O   0  0  0  0  0  0  0  0  0  0  0  0
    0.6022   -0.2275    1.9120 C   0  0  0  0  0  0  0  0  0  0  0  0
   -0.1970   -1.4730    2.2780 C   0  0  0  0  0  0  0  0  0  0  0  0
   -0.5413   -2.2311    1.0657 N   0  0  0  0  0  0  0  0  0  0  0  0
   -1.7676   -3.3758    1.1677 S   0  0  0  0  0  6  0  0  0  0  0  0
   -1.8575   -3.8235    2.5387 O   0  0  0  0  0  0  0  0  0  0  0  0
   -1.5941   -4.2923    0.0656 O   0  0  0  0  0  0  0  0  0  0  0  0
   -3.2008   -2.3956    0.8024 C   0  0  0  0  0  0  0  0  0  0  0  0
   -4.2271   -2.2769    1.7371 C   0  0  0  0  0  0  0  0  0  0  0  0
   -5.3515   -1.5008    1.4331 C   0  0  0  0  0  0  0  0  0  0  0  0
   -5.4615   -0.8353    0.1991 C   0  0  0  0  0  0  0  0  0  0  0  0
   -4.4194   -0.9689   -0.7192 C   0  0  0  0  0  0  0  0  0  0  0  0
   -3.2903   -1.7495   -0.4304 C   0  0  0  0  0  0  0  0  0  0  0  0
   -4.5011   -0.2670   -2.0081 C   0  0  0  0  0  0  0  0  0  0  0  0
   -3.5365   -0.3050   -2.7667 O   0  0  0  0  0  0  0  0  0  0  0  0
   -5.6747    0.4196   -2.2701 N   0  0  0  0  0  0  0  0  0  0  0  0
   -5.7943    1.1042   -3.5433 C   0  0  0  0  0  0  0  0  0  0  0  0
   -6.7048    0.6131   -1.3565 C   0  0  0  0  0  0  0  0  0  0  0  0
   -7.6692    1.3325   -1.6240 O   0  0  0  0  0  0  0  0  0  0  0  0
   -6.5853   -0.0318   -0.1292 N   0  0  0  0  0  0  0  0  0  0  0  0
   -7.6608    0.1327    0.8410 C   0  0  0  0  0  0  0  0  0  0  0  0
    4.8416   -0.4401    0.3583 C   0  0  0  0  0  0  0  0  0  0  0  0
    6.1550   -0.2685   -0.0959 C   0  0  0  0  0  0  0  0  0  0  0  0
    8.9873    2.4917   -2.6250 H   0  0  0  0  0  0  0  0  0  0  0  0
    7.6534    3.3921   -1.9281 H   0  0  0  0  0  0  0  0  0  0  0  0
    9.3183    3.9498   -1.6644 H   0  0  0  0  0  0  0  0  0  0  0  0
    8.5229    2.7747    0.4132 H   0  0  0  0  0  0  0  0  0  0  0  0
    9.8212    1.9028   -0.3669 H   0  0  0  0  0  0  0  0  0  0  0  0
    6.3602    3.1158    0.1368 H   0  0  0  0  0  0  0  0  0  0  0  0
    4.0880    2.8229    0.9271 H   0  0  0  0  0  0  0  0  0  0  0  0
    2.3151    1.4677    1.4334 H   0  0  0  0  0  0  0  0  0  0  0  0
    0.0730    0.3560    1.1484 H   0  0  0  0  0  0  0  0  0  0  0  0
    0.7156    0.3951    2.8081 H   0  0  0  0  0  0  0  0  0  0  0  0
   -1.1143   -1.1567    2.7868 H   0  0  0  0  0  0  0  0  0  0  0  0
    0.3780   -2.1139    2.9560 H   0  0  0  0  0  0  0  0  0  0  0  0
    0.2617   -2.5886    0.5320 H   0  0  0  0  0  0  0  0  0  0  0  0
   -4.1646   -2.7842    2.6997 H   0  0  0  0  0  0  0  0  0  0  0  0
   -6.1302   -1.4368    2.1884 H   0  0  0  0  0  0  0  0  0  0  0  0
   -2.4882   -1.8512   -1.1603 H   0  0  0  0  0  0  0  0  0  0  0  0
   -5.0363    0.7814   -4.2618 H   0  0  0  0  0  0  0  0  0  0  0  0
   -5.6887    2.1802   -3.3707 H   0  0  0  0  0  0  0  0  0  0  0  0
   -6.7849    0.9175   -3.9702 H   0  0  0  0  0  0  0  0  0  0  0  0
   -8.1096   -0.8426    1.0515 H   0  0  0  0  0  0  0  0  0  0  0  0
   -7.2596    0.5754    1.7583 H   0  0  0  0  0  0  0  0  0  0  0  0
   -8.4530    0.7899    0.4742 H   0  0  0  0  0  0  0  0  0  0  0  0
    4.4512   -1.4519    0.3964 H   0  0  0  0  0  0  0  0  0  0  0  0
    6.7335   -1.1405   -0.3905 H   0  0  0  0  0  0  0  0  0  0  0  0
  1  2  1  0
  2  3  1  0
  3  4  1  0
  4  5  2  0
  5  6  1  0
  6  7  2  0
  7  8  1  0
  8  9  1  0
  9 10  2  0
  9 11  1  0
 11 12  1  0
 12 13  1  0
 13 14  1  0
 14 15  2  0
 14 16  2  0
 14 17  1  0
 17 18  2  0
 18 19  1  0
 19 20  2  0
 20 21  1  0
 21 22  2  0
 21 23  1  0
 23 24  2  0
 23 25  1  0
 25 26  1  0
 25 27  1  0
 27 28  2  0
 27 29  1  0
 29 30  1  0
  7 31  1  0
 31 32  2  0
 32  4  1  0
 22 17  1  0
 29 20  1  0
  1 33  1  0
  1 34  1  0
  1 35  1  0
  2 36  1  0
  2 37  1  0
  5 38  1  0
  6 39  1  0
  8 40  1  0
 11 41  1  0
 11 42  1  0
 12 43  1  0
 12 44  1  0
 13 45  1  0
 18 46  1  0
 19 47  1  0
 22 48  1  0
 26 49  1  0
 26 50  1  0
 26 51  1  0
 30 52  1  0
 30 53  1  0
 30 54  1  0
 31 55  1  0
 32 56  1  0
M  END
$$$$
