
     RDKit          3D

 28 29  0  0  0  0  0  0  0  0999 V2000
    5.2538   -1.3678    0.4445 C   0  0  0  0  0  0  0  0  0  0  0  0
    4.7923    0.0594    0.6720 C   0  0  0  0  0  0  0  0  0  0  0  0
    3.5199    0.2737    0.0465 O   0  0  0  0  0  0  0  0  0  0  0  0
    2.4309   -0.0512    0.7952 C   0  0  0  0  0  0  0  0  0  0  0  0
    2.4592   -0.5056    1.9311 O   0  0  0  0  0  0  0  0  0  0  0  0
    1.2223    0.2136    0.0550 C   0  0  0  0  0  0  0  0  0  0  0  0
    1.0219    0.7171   -1.2196 C   0  0  0  0  0  0  0  0  0  0  0  0
   -0.3749    0.7749   -1.4540 C   0  0  0  0  0  0  0  0  0  0  0  0
   -1.0069    0.3064   -0.3207 C   0  0  0  0  0  0  0  0  0  0  0  0
   -2.3949    0.1511   -0.0208 C   0  0  0  0  0  0  0  0  0  0  0  0
   -3.4975    0.4333   -0.7988 C   0  0  0  0  0  0  0  0  0  0  0  0
   -4.6109    0.0870   -0.0026 C   0  0  0  0  0  0  0  0  0  0  0  0
   -6.0487    0.1831   -0.3361 C   0  0  0  0  0  0  0  0  0  0  0  0
   -4.2256   -0.3788    1.1894 N   0  0  0  0  0  0  0  0  0  0  0  0
   -2.8445   -0.3383    1.1769 O   0  0  0  0  0  0  0  0  0  0  0  0
   -0.0281   -0.0288    0.5819 N   0  0  0  0  0  0  0  0  0  0  0  0
    5.2833   -1.5962   -0.6260 H   0  0  0  0  0  0  0  0  0  0  0  0
    4.5632   -2.0822    0.9035 H   0  0  0  0  0  0  0  0  0  0  0  0
    6.2504   -1.5251    0.8666 H   0  0  0  0  0  0  0  0  0  0  0  0
    5.4991    0.7530    0.2048 H   0  0  0  0  0  0  0  0  0  0  0  0
    4.7595    0.3054    1.7396 H   0  0  0  0  0  0  0  0  0  0  0  0
    1.8041    1.0120   -1.9087 H   0  0  0  0  0  0  0  0  0  0  0  0
   -0.8586    1.1231   -2.3576 H   0  0  0  0  0  0  0  0  0  0  0  0
   -3.4977    0.8332   -1.8012 H   0  0  0  0  0  0  0  0  0  0  0  0
   -6.5213   -0.8034   -0.2916 H   0  0  0  0  0  0  0  0  0  0  0  0
   -6.5636    0.8461    0.3666 H   0  0  0  0  0  0  0  0  0  0  0  0
   -6.1941    0.5821   -1.3451 H   0  0  0  0  0  0  0  0  0  0  0  0
   -0.1923   -0.4033    1.5092 H   0  0  0  0  0  0  0  0  0  0  0  0
  1  2  1  0
  2  3  1  0
  3  4  1  0
  4  5  2  0
  4  6  1  0
  6  7  2  0
  7  8  1  0
  8  9  2  0
  9 10  1  0
 10 11  2  0
 11 12  1  0
 12 13  1  0
 12 14  2  0
 14 15  1  0
  9 16  1  0
 16  6  1  0
 15 10  1  0
  1 17  1  0
  1 18  1  0
  1 19  1  0
  2 20  1  0
  2 21  1  0
  7 22  1  0
  8 23  1  0
 11 24  1  0
 13 25  1  0
 13 26  1  0
 13 27  1  0
 16 28  1  0
M  END
$$$$
