
     RDKit          3D

 37 39  0  0  0  0  0  0  0  0999 V2000
    4.9579    1.2575   -1.4211 C   0  0  0  0  0  0  0  0  0  0  0  0
    5.0866    0.4324   -0.2706 O   0  0  0  0  0  0  0  0  0  0  0  0
    3.9381    0.0715    0.3796 C   0  0  0  0  0  0  0  0  0  0  0  0
    4.1524   -0.6737    1.5499 C   0  0  0  0  0  0  0  0  0  0  0  0
    3.0826   -1.1246    2.3225 C   0  0  0  0  0  0  0  0  0  0  0  0
    1.7985   -0.8185    1.9047 C   0  0  0  0  0  0  0  0  0  0  0  0
    1.5542   -0.0661    0.7364 C   0  0  0  0  0  0  0  0  0  0  0  0
    2.6340    0.3733   -0.0319 C   0  0  0  0  0  0  0  0  0  0  0  0
    0.1653    0.1420    0.4468 N   0  0  0  0  0  0  0  0  0  0  0  0
   -0.1062    1.4937   -0.0545 C   0  0  0  0  0  0  0  0  0  0  0  0
   -0.6224   -0.4882    1.4250 C   0  0  0  0  0  0  0  0  0  0  0  0
   -1.9543   -0.6797    1.4386 C   0  0  0  0  0  0  0  0  0  0  0  0
   -2.8820   -0.3164    0.3694 C   0  0  0  0  0  0  0  0  0  0  0  0
   -3.8571    0.6569    0.6236 C   0  0  0  0  0  0  0  0  0  0  0  0
   -4.7426    1.0345   -0.3770 C   0  0  0  0  0  0  0  0  0  0  0  0
   -4.6493    0.4336   -1.6216 C   0  0  0  0  0  0  0  0  0  0  0  0
   -3.6833   -0.5406   -1.8380 C   0  0  0  0  0  0  0  0  0  0  0  0
   -2.8290   -0.9143   -0.8546 N   0  0  0  0  0  4  0  0  0  0  0  0
   -1.8576   -1.9908   -1.1508 C   0  0  0  0  0  0  0  0  0  0  0  0
    0.2926   -1.2695    2.7403 S   0  0  0  0  0  0  0  0  0  0  0  0
    4.4704    2.2066   -1.1747 H   0  0  0  0  0  0  0  0  0  0  0  0
    4.4231    0.7347   -2.2207 H   0  0  0  0  0  0  0  0  0  0  0  0
    5.9645    1.4839   -1.7855 H   0  0  0  0  0  0  0  0  0  0  0  0
    5.1711   -0.9020    1.8593 H   0  0  0  0  0  0  0  0  0  0  0  0
    3.2611   -1.6962    3.2279 H   0  0  0  0  0  0  0  0  0  0  0  0
    2.4598    0.9242   -0.9463 H   0  0  0  0  0  0  0  0  0  0  0  0
   -1.1756    1.6649   -0.1993 H   0  0  0  0  0  0  0  0  0  0  0  0
    0.2549    2.2567    0.6454 H   0  0  0  0  0  0  0  0  0  0  0  0
    0.3578    1.6543   -1.0333 H   0  0  0  0  0  0  0  0  0  0  0  0
   -2.4253   -1.1898    2.2781 H   0  0  0  0  0  0  0  0  0  0  0  0
   -3.9214    1.1327    1.6015 H   0  0  0  0  0  0  0  0  0  0  0  0
   -5.4985    1.7952   -0.1858 H   0  0  0  0  0  0  0  0  0  0  0  0
   -5.3317    0.7178   -2.4204 H   0  0  0  0  0  0  0  0  0  0  0  0
   -3.5903   -1.0342   -2.8020 H   0  0  0  0  0  0  0  0  0  0  0  0
   -1.7471   -2.6401   -0.2798 H   0  0  0  0  0  0  0  0  0  0  0  0
   -0.9141   -1.5240   -1.4395 H   0  0  0  0  0  0  0  0  0  0  0  0
   -2.2367   -2.5978   -1.9782 H   0  0  0  0  0  0  0  0  0  0  0  0
  1  2  1  0
  2  3  1  0
  3  4  2  0
  4  5  1  0
  5  6  2  0
  6  7  1  0
  7  8  2  0
  7  9  1  0
  9 10  1  0
  9 11  1  0
 11 12  2  3
 12 13  1  0
 13 14  2  0
 14 15  1  0
 15 16  2  0
 16 17  1  0
 17 18  2  0
 18 19  1  0
 11 20  1  0
  8  3  1  0
 18 13  1  0
 20  6  1  0
  1 21  1  0
  1 22  1  0
  1 23  1  0
  4 24  1  0
  5 25  1  0
  8 26  1  0
 10 27  1  0
 10 28  1  0
 10 29  1  0
 12 30  1  0
 14 31  1  0
 15 32  1  0
 16 33  1  0
 17 34  1  0
 19 35  1  0
 19 36  1  0
 19 37  1  0
M  CHG  1  18   1
M  END
$$$$
