
     RDKit          3D

 57 60  0  0  0  0  0  0  0  0999 V2000
   10.4649   -0.5301    0.5618 C   0  0  0  0  0  0  0  0  0  0  0  0
    9.1620    0.1589    0.1953 C   0  0  0  0  0  0  0  0  0  0  0  0
    8.1400   -0.3524    1.0497 O   0  0  0  0  0  0  0  0  0  0  0  0
    6.8782    0.1428    0.8736 C   0  0  0  0  0  0  0  0  0  0  0  0
    6.4946    1.1099   -0.0526 C   0  0  0  0  0  0  0  0  0  0  0  0
    5.1582    1.5293   -0.1288 C   0  0  0  0  0  0  0  0  0  0  0  0
    4.1917    0.9868    0.7179 C   0  0  0  0  0  0  0  0  0  0  0  0
    2.8315    1.3546    0.7040 N   0  0  0  0  0  0  0  0  0  0  0  0
    2.1997    2.2396   -0.1592 C   0  0  0  0  0  0  0  0  0  0  0  0
    2.7221    2.8529   -1.0850 O   0  0  0  0  0  0  0  0  0  0  0  0
    0.7208    2.4028    0.1511 C   0  0  0  0  0  0  0  0  0  0  0  0
   -0.1882    0.9607   -0.4809 S   0  0  0  0  0  0  0  0  0  0  0  0
   -1.7919    1.3457    0.0569 C   0  0  0  0  0  0  0  0  0  0  0  0
   -2.0714    2.3157    0.8964 N   0  0  0  0  0  0  0  0  0  0  0  0
   -3.4300    2.3922    1.0125 N   0  0  0  0  0  0  0  0  0  0  0  0
   -3.9665    1.4571    0.2491 C   0  0  0  0  0  0  0  0  0  0  0  0
   -5.4196    1.0962    0.2522 C   0  0  0  0  0  0  0  0  0  0  0  0
   -5.6854   -0.2715    0.8175 C   0  0  0  0  0  0  0  0  0  0  0  0
   -5.1116   -0.8934    1.9173 C   0  0  0  0  0  0  0  0  0  0  0  0
   -5.6727   -2.1835    2.0335 C   0  0  0  0  0  0  0  0  0  0  0  0
   -6.5935   -2.3180    1.0210 C   0  0  0  0  0  0  0  0  0  0  0  0
   -6.6208   -1.1471    0.3078 N   0  0  0  0  0  0  0  0  0  0  0  0
   -7.5319   -0.8929   -0.7873 C   0  0  0  0  0  0  0  0  0  0  0  0
   -2.9579    0.7763   -0.4266 N   0  0  0  0  0  0  0  0  0  0  0  0
   -3.1109   -0.2626   -1.3815 C   0  0  0  0  0  0  0  0  0  0  0  0
   -4.0279   -0.1123   -2.4320 C   0  0  0  0  0  0  0  0  0  0  0  0
   -4.1827   -1.1352   -3.3700 C   0  0  0  0  0  0  0  0  0  0  0  0
   -3.4291   -2.2974   -3.2523 C   0  0  0  0  0  0  0  0  0  0  0  0
   -3.5844   -3.2767   -4.1524 F   0  0  0  0  0  0  0  0  0  0  0  0
   -2.5157   -2.4560   -2.2164 C   0  0  0  0  0  0  0  0  0  0  0  0
   -2.3499   -1.4357   -1.2775 C   0  0  0  0  0  0  0  0  0  0  0  0
    4.5821    0.0184    1.6486 C   0  0  0  0  0  0  0  0  0  0  0  0
    5.9144   -0.3987    1.7236 C   0  0  0  0  0  0  0  0  0  0  0  0
   10.7230   -0.3351    1.6084 H   0  0  0  0  0  0  0  0  0  0  0  0
   10.3713   -1.6158    0.4528 H   0  0  0  0  0  0  0  0  0  0  0  0
   11.2828   -0.1809   -0.0744 H   0  0  0  0  0  0  0  0  0  0  0  0
    8.9251   -0.0572   -0.8530 H   0  0  0  0  0  0  0  0  0  0  0  0
    9.2756    1.2395    0.3422 H   0  0  0  0  0  0  0  0  0  0  0  0
    7.2047    1.5645   -0.7349 H   0  0  0  0  0  0  0  0  0  0  0  0
    4.9094    2.2879   -0.8644 H   0  0  0  0  0  0  0  0  0  0  0  0
    2.2377    0.8766    1.3717 H   0  0  0  0  0  0  0  0  0  0  0  0
    0.3585    3.3196   -0.3259 H   0  0  0  0  0  0  0  0  0  0  0  0
    0.5912    2.5040    1.2346 H   0  0  0  0  0  0  0  0  0  0  0  0
   -5.8303    1.2088   -0.7542 H   0  0  0  0  0  0  0  0  0  0  0  0
   -5.9582    1.8236    0.8746 H   0  0  0  0  0  0  0  0  0  0  0  0
   -4.3582   -0.4583    2.5652 H   0  0  0  0  0  0  0  0  0  0  0  0
   -5.4371   -2.9316    2.7789 H   0  0  0  0  0  0  0  0  0  0  0  0
   -7.2422   -3.1466    0.7666 H   0  0  0  0  0  0  0  0  0  0  0  0
   -7.9906    0.0879   -0.6425 H   0  0  0  0  0  0  0  0  0  0  0  0
   -6.9657   -0.9250   -1.7203 H   0  0  0  0  0  0  0  0  0  0  0  0
   -8.3126   -1.6582   -0.7973 H   0  0  0  0  0  0  0  0  0  0  0  0
   -4.5930    0.8060   -2.5692 H   0  0  0  0  0  0  0  0  0  0  0  0
   -4.8771   -1.0313   -4.1979 H   0  0  0  0  0  0  0  0  0  0  0  0
   -1.9425   -3.3756   -2.1424 H   0  0  0  0  0  0  0  0  0  0  0  0
   -1.6552   -1.5961   -0.4555 H   0  0  0  0  0  0  0  0  0  0  0  0
    3.8619   -0.4293    2.3277 H   0  0  0  0  0  0  0  0  0  0  0  0
    6.2032   -1.1540    2.4503 H   0  0  0  0  0  0  0  0  0  0  0  0
  1  2  1  0
  2  3  1  0
  3  4  1  0
  4  5  2  0
  5  6  1  0
  6  7  2  0
  7  8  1  0
  8  9  1  0
  9 10  2  0
  9 11  1  0
 11 12  1  0
 12 13  1  0
 13 14  2  0
 14 15  1  0
 15 16  2  0
 16 17  1  0
 17 18  1  0
 18 19  2  0
 19 20  1  0
 20 21  2  0
 21 22  1  0
 22 23  1  0
 16 24  1  0
 24 25  1  0
 25 26  2  0
 26 27  1  0
 27 28  2  0
 28 29  1  0
 28 30  1  0
 30 31  2  0
  7 32  1  0
 32 33  2  0
 33  4  1  0
 24 13  1  0
 31 25  1  0
 22 18  1  0
  1 34  1  0
  1 35  1  0
  1 36  1  0
  2 37  1  0
  2 38  1  0
  5 39  1  0
  6 40  1  0
  8 41  1  0
 11 42  1  0
 11 43  1  0
 17 44  1  0
 17 45  1  0
 19 46  1  0
 20 47  1  0
 21 48  1  0
 23 49  1  0
 23 50  1  0
 23 51  1  0
 26 52  1  0
 27 53  1  0
 30 54  1  0
 31 55  1  0
 32 56  1  0
 33 57  1  0
M  END
$$$$
