
     RDKit          3D

 50 52  0  0  0  0  0  0  0  0999 V2000
    7.9805    2.2885   -1.2299 C   0  0  0  0  0  0  0  0  0  0  0  0
    6.9944    2.3982   -0.2115 O   0  0  0  0  0  0  0  0  0  0  0  0
    5.7637    1.8691   -0.4821 C   0  0  0  0  0  0  0  0  0  0  0  0
    4.8294    2.0026    0.5455 C   0  0  0  0  0  0  0  0  0  0  0  0
    3.5279    1.5061    0.4053 C   0  0  0  0  0  0  0  0  0  0  0  0
    3.1433    0.8650   -0.7706 C   0  0  0  0  0  0  0  0  0  0  0  0
    1.8576    0.3373   -1.0005 N   0  0  0  0  0  0  0  0  0  0  0  0
    0.7885    0.2891   -0.1159 C   0  0  0  0  0  0  0  0  0  0  0  0
    0.7902    0.6859    1.0500 O   0  0  0  0  0  0  0  0  0  0  0  0
   -0.4803   -0.3541   -0.7364 C   0  0  0  0  0  0  0  0  0  0  0  0
   -1.5982   -0.1728    0.1762 N   0  0  0  0  0  0  0  0  0  0  0  0
   -2.8628    0.1105   -0.2805 C   0  0  0  0  0  0  0  0  0  0  0  0
   -3.1430    0.1877   -1.4721 O   0  0  0  0  0  0  0  0  0  0  0  0
   -3.9007    0.3668    0.7565 C   0  0  0  0  0  0  0  0  0  0  0  0
   -3.8140   -0.1712    2.0460 C   0  0  0  0  0  0  0  0  0  0  0  0
   -4.8143    0.0965    2.9857 C   0  0  0  0  0  0  0  0  0  0  0  0
   -5.9187    0.8869    2.6442 C   0  0  0  0  0  0  0  0  0  0  0  0
   -6.9736    1.1994    3.6645 C   0  0  0  0  0  0  0  0  0  0  0  0
   -6.0018    1.4221    1.3535 C   0  0  0  0  0  0  0  0  0  0  0  0
   -5.0044    1.1558    0.4122 C   0  0  0  0  0  0  0  0  0  0  0  0
   -0.2961   -1.8285   -1.0550 C   0  0  0  0  0  0  0  0  0  0  0  0
    0.3802   -2.6962   -0.1818 C   0  0  0  0  0  0  0  0  0  0  0  0
    0.5304   -4.0475   -0.4991 C   0  0  0  0  0  0  0  0  0  0  0  0
   -0.0057   -4.5517   -1.6821 C   0  0  0  0  0  0  0  0  0  0  0  0
   -0.7008   -3.7082   -2.5457 C   0  0  0  0  0  0  0  0  0  0  0  0
   -0.8501   -2.3565   -2.2323 C   0  0  0  0  0  0  0  0  0  0  0  0
    4.0814    0.7342   -1.8021 C   0  0  0  0  0  0  0  0  0  0  0  0
    5.3837    1.2314   -1.6605 C   0  0  0  0  0  0  0  0  0  0  0  0
    8.2069    1.2398   -1.4489 H   0  0  0  0  0  0  0  0  0  0  0  0
    7.6752    2.8248   -2.1345 H   0  0  0  0  0  0  0  0  0  0  0  0
    8.8976    2.7566   -0.8592 H   0  0  0  0  0  0  0  0  0  0  0  0
    5.1132    2.5005    1.4699 H   0  0  0  0  0  0  0  0  0  0  0  0
    2.8438    1.6439    1.2360 H   0  0  0  0  0  0  0  0  0  0  0  0
    1.7150   -0.1060   -1.9014 H   0  0  0  0  0  0  0  0  0  0  0  0
   -0.6839    0.2034   -1.6602 H   0  0  0  0  0  0  0  0  0  0  0  0
   -1.3499    0.0080    1.1421 H   0  0  0  0  0  0  0  0  0  0  0  0
   -2.9900   -0.8183    2.3320 H   0  0  0  0  0  0  0  0  0  0  0  0
   -4.7302   -0.3242    3.9857 H   0  0  0  0  0  0  0  0  0  0  0  0
   -7.0829    0.3759    4.3781 H   0  0  0  0  0  0  0  0  0  0  0  0
   -6.7070    2.1089    4.2114 H   0  0  0  0  0  0  0  0  0  0  0  0
   -7.9480    1.3460    3.1868 H   0  0  0  0  0  0  0  0  0  0  0  0
   -6.8456    2.0474    1.0696 H   0  0  0  0  0  0  0  0  0  0  0  0
   -5.0878    1.5705   -0.5903 H   0  0  0  0  0  0  0  0  0  0  0  0
    0.7938   -2.3307    0.7568 H   0  0  0  0  0  0  0  0  0  0  0  0
    1.0593   -4.7092    0.1824 H   0  0  0  0  0  0  0  0  0  0  0  0
    0.1054   -5.6055   -1.9240 H   0  0  0  0  0  0  0  0  0  0  0  0
   -1.1391   -4.1047   -3.4581 H   0  0  0  0  0  0  0  0  0  0  0  0
   -1.4219   -1.7169   -2.9042 H   0  0  0  0  0  0  0  0  0  0  0  0
    3.8171    0.2407   -2.7342 H   0  0  0  0  0  0  0  0  0  0  0  0
    6.0720    1.1026   -2.4888 H   0  0  0  0  0  0  0  0  0  0  0  0
  1  2  1  0
  2  3  1  0
  3  4  2  0
  4  5  1  0
  5  6  2  0
  6  7  1  0
  7  8  1  0
  8  9  2  0
  8 10  1  0
 10 11  1  0
 11 12  1  0
 12 13  2  0
 12 14  1  0
 14 15  2  0
 15 16  1  0
 16 17  2  0
 17 18  1  0
 17 19  1  0
 19 20  2  0
 10 21  1  0
 21 22  2  0
 22 23  1  0
 23 24  2  0
 24 25  1  0
 25 26  2  0
  6 27  1  0
 27 28  2  0
 28  3  1  0
 20 14  1  0
 26 21  1  0
  1 29  1  0
  1 30  1  0
  1 31  1  0
  4 32  1  0
  5 33  1  0
  7 34  1  0
 10 35  1  0
 11 36  1  0
 15 37  1  0
 16 38  1  0
 18 39  1  0
 18 40  1  0
 18 41  1  0
 19 42  1  0
 20 43  1  0
 22 44  1  0
 23 45  1  0
 24 46  1  0
 25 47  1  0
 26 48  1  0
 27 49  1  0
 28 50  1  0
M  END
$$$$
