
     RDKit          3D

 58 61  0  0  0  0  0  0  0  0999 V2000
    7.6487   -2.0128   -3.6928 C   0  0  0  0  0  0  0  0  0  0  0  0
    6.8216   -0.7855   -3.3968 C   0  0  0  0  0  0  0  0  0  0  0  0
    7.1464    0.4048   -4.0658 C   0  0  0  0  0  0  0  0  0  0  0  0
    6.4517    1.5774   -3.8001 C   0  0  0  0  0  0  0  0  0  0  0  0
    5.4002    1.5639   -2.8887 C   0  0  0  0  0  0  0  0  0  0  0  0
    5.0218    0.3799   -2.2336 C   0  0  0  0  0  0  0  0  0  0  0  0
    3.8966    0.5047   -1.3809 N   0  0  0  0  0  0  0  0  0  0  0  0
    2.9066   -0.4457   -1.1861 C   0  0  0  0  0  0  0  0  0  0  0  0
    2.8350   -1.5185   -1.7801 O   0  0  0  0  0  0  0  0  0  0  0  0
    1.8302   -0.0494   -0.2070 C   0  0  0  0  0  0  0  0  0  0  0  0
    2.0164    1.1028    0.6016 C   0  0  0  0  0  0  0  0  0  0  0  0
    2.2369    2.0634    1.2143 N   0  0  0  0  0  0  0  0  0  0  0  0
    0.7258   -0.8224   -0.1625 C   0  0  0  0  0  0  0  0  0  0  0  0
   -0.4408   -0.6859    0.6576 C   0  0  0  0  0  0  0  0  0  0  0  0
   -0.5009   -0.1650    1.9308 C   0  0  0  0  0  0  0  0  0  0  0  0
   -1.8049   -0.2333    2.3598 N   0  0  0  0  0  0  0  0  0  0  0  0
   -2.2549    0.1901    3.6775 C   0  0  0  0  0  0  0  0  0  0  0  0
   -3.1081    1.4408    3.6143 C   0  0  0  0  0  0  0  0  0  0  0  0
   -2.7200    2.4872    3.1027 O   0  0  0  0  0  0  0  0  0  0  0  0
   -4.3525    1.3119    4.2007 N   0  0  0  0  0  0  0  0  0  0  0  0
   -5.3615    2.3327    4.0180 C   0  0  0  0  0  0  0  0  0  0  0  0
   -6.1540    1.9791    2.8154 C   0  0  0  0  0  0  0  0  0  0  0  0
   -6.0378    2.2990    1.4783 C   0  0  0  0  0  0  0  0  0  0  0  0
   -7.0932    1.6307    0.8145 C   0  0  0  0  0  0  0  0  0  0  0  0
   -7.7816    0.9409    1.7846 C   0  0  0  0  0  0  0  0  0  0  0  0
   -7.2129    1.1391    3.0032 O   0  0  0  0  0  0  0  0  0  0  0  0
   -2.5960   -0.8241    1.3943 C   0  0  0  0  0  0  0  0  0  0  0  0
   -3.9697   -1.1202    1.3748 C   0  0  0  0  0  0  0  0  0  0  0  0
   -4.5007   -1.7243    0.2321 C   0  0  0  0  0  0  0  0  0  0  0  0
   -3.6917   -2.0286   -0.8566 C   0  0  0  0  0  0  0  0  0  0  0  0
   -2.3250   -1.7325   -0.8294 C   0  0  0  0  0  0  0  0  0  0  0  0
   -1.7599   -1.1195    0.3114 C   0  0  0  0  0  0  0  0  0  0  0  0
    5.7834   -0.7935   -2.4263 C   0  0  0  0  0  0  0  0  0  0  0  0
    5.5864   -2.0377   -1.5949 C   0  0  0  0  0  0  0  0  0  0  0  0
    7.0192   -2.9084   -3.7502 H   0  0  0  0  0  0  0  0  0  0  0  0
    8.1565   -1.9231   -4.6586 H   0  0  0  0  0  0  0  0  0  0  0  0
    8.4104   -2.1467   -2.9162 H   0  0  0  0  0  0  0  0  0  0  0  0
    7.9579    0.4233   -4.7906 H   0  0  0  0  0  0  0  0  0  0  0  0
    6.7176    2.4967   -4.3149 H   0  0  0  0  0  0  0  0  0  0  0  0
    4.8530    2.4889   -2.7269 H   0  0  0  0  0  0  0  0  0  0  0  0
    3.6745    1.4601   -1.1230 H   0  0  0  0  0  0  0  0  0  0  0  0
    0.6775   -1.6628   -0.8574 H   0  0  0  0  0  0  0  0  0  0  0  0
    0.2602    0.2493    2.5799 H   0  0  0  0  0  0  0  0  0  0  0  0
   -2.7945   -0.6516    4.1240 H   0  0  0  0  0  0  0  0  0  0  0  0
   -1.3789    0.3963    4.3021 H   0  0  0  0  0  0  0  0  0  0  0  0
   -4.7004    0.3880    4.4177 H   0  0  0  0  0  0  0  0  0  0  0  0
   -5.9924    2.3351    4.9116 H   0  0  0  0  0  0  0  0  0  0  0  0
   -4.9019    3.3190    3.9124 H   0  0  0  0  0  0  0  0  0  0  0  0
   -5.2744    2.9312    1.0440 H   0  0  0  0  0  0  0  0  0  0  0  0
   -7.3223    1.6463   -0.2419 H   0  0  0  0  0  0  0  0  0  0  0  0
   -8.6512    0.2985    1.7725 H   0  0  0  0  0  0  0  0  0  0  0  0
   -4.6205   -0.8837    2.2092 H   0  0  0  0  0  0  0  0  0  0  0  0
   -5.5630   -1.9542    0.1941 H   0  0  0  0  0  0  0  0  0  0  0  0
   -4.1223   -2.4962   -1.7377 H   0  0  0  0  0  0  0  0  0  0  0  0
   -1.7064   -1.9723   -1.6899 H   0  0  0  0  0  0  0  0  0  0  0  0
    6.5522   -2.4813   -1.3254 H   0  0  0  0  0  0  0  0  0  0  0  0
    5.1046   -1.8197   -0.6372 H   0  0  0  0  0  0  0  0  0  0  0  0
    5.0033   -2.7822   -2.1458 H   0  0  0  0  0  0  0  0  0  0  0  0
  1  2  1  0
  2  3  2  0
  3  4  1  0
  4  5  2  0
  5  6  1  0
  6  7  1  0
  7  8  1  0
  8  9  2  0
  8 10  1  0
 10 11  1  0
 11 12  3  0
 10 13  2  3
 13 14  1  0
 14 15  2  0
 15 16  1  0
 16 17  1  0
 17 18  1  0
 18 19  2  0
 18 20  1  0
 20 21  1  0
 21 22  1  0
 22 23  2  0
 23 24  1  0
 24 25  2  0
 25 26  1  0
 16 27  1  0
 27 28  2  0
 28 29  1  0
 29 30  2  0
 30 31  1  0
 31 32  2  0
  6 33  2  0
 33 34  1  0
 33  2  1  0
 32 14  1  0
 26 22  1  0
 32 27  1  0
  1 35  1  0
  1 36  1  0
  1 37  1  0
  3 38  1  0
  4 39  1  0
  5 40  1  0
  7 41  1  0
 13 42  1  0
 15 43  1  0
 17 44  1  0
 17 45  1  0
 20 46  1  0
 21 47  1  0
 21 48  1  0
 23 49  1  0
 24 50  1  0
 25 51  1  0
 28 52  1  0
 29 53  1  0
 30 54  1  0
 31 55  1  0
 34 56  1  0
 34 57  1  0
 34 58  1  0
M  END
$$$$
