
     RDKit          3D

 46 48  0  0  0  0  0  0  0  0999 V2000
   -2.7316    1.0601    2.1754 C   0  0  0  0  0  0  0  0  0  0  0  0
   -2.7760    0.6916    0.7041 C   0  0  0  0  0  0  0  0  0  0  0  0
   -2.7244   -0.7940    0.5482 N   0  0  0  0  0  4  0  0  0  0  0  0
   -1.5165   -1.3992    0.3370 C   0  0  0  0  0  0  0  0  0  0  0  0
   -0.2672   -0.6286    0.3631 C   0  0  0  0  0  0  0  0  0  0  0  0
    0.4582   -0.4122   -0.7460 C   0  0  0  0  0  0  0  0  0  0  0  0
    1.7217    0.3398   -0.7729 C   0  0  0  0  0  0  0  0  0  0  0  0
    2.6692    0.0302   -1.7483 C   0  0  0  0  0  0  0  0  0  0  0  0
    3.8754    0.7442   -1.8340 C   0  0  0  0  0  0  0  0  0  0  0  0
    4.1929    1.7941   -0.9573 C   0  0  0  0  0  0  0  0  0  0  0  0
    5.3839    2.5176   -1.0575 N   0  0  0  0  0  0  0  0  0  0  0  0
    6.4519    2.0313   -1.9310 C   0  0  0  0  0  0  0  0  0  0  0  0
    5.8223    3.3313    0.0766 C   0  0  0  0  0  0  0  0  0  0  0  0
    3.2103    2.1037   -0.0022 C   0  0  0  0  0  0  0  0  0  0  0  0
    1.9996    1.3973    0.0927 C   0  0  0  0  0  0  0  0  0  0  0  0
   -1.4345   -2.7747    0.1191 C   0  0  0  0  0  0  0  0  0  0  0  0
   -2.5807   -3.5463    0.1167 C   0  0  0  0  0  0  0  0  0  0  0  0
   -3.8099   -2.9418    0.3470 C   0  0  0  0  0  0  0  0  0  0  0  0
   -4.9733   -3.7256    0.3582 C   0  0  0  0  0  0  0  0  0  0  0  0
   -6.2166   -3.1477    0.5970 C   0  0  0  0  0  0  0  0  0  0  0  0
   -6.3091   -1.7828    0.8304 C   0  0  0  0  0  0  0  0  0  0  0  0
   -5.1574   -0.9881    0.8205 C   0  0  0  0  0  0  0  0  0  0  0  0
   -3.8832   -1.5386    0.5734 C   0  0  0  0  0  0  0  0  0  0  0  0
   -1.8150    0.6968    2.6496 H   0  0  0  0  0  0  0  0  0  0  0  0
   -2.7668    2.1474    2.2931 H   0  0  0  0  0  0  0  0  0  0  0  0
   -3.5754    0.6322    2.7244 H   0  0  0  0  0  0  0  0  0  0  0  0
   -1.9449    1.1487    0.1601 H   0  0  0  0  0  0  0  0  0  0  0  0
   -3.6744    1.0705    0.2094 H   0  0  0  0  0  0  0  0  0  0  0  0
    0.0484   -0.2630    1.3362 H   0  0  0  0  0  0  0  0  0  0  0  0
    0.1420   -0.8128   -1.7090 H   0  0  0  0  0  0  0  0  0  0  0  0
    2.4966   -0.7723   -2.4623 H   0  0  0  0  0  0  0  0  0  0  0  0
    4.5638    0.4473   -2.6202 H   0  0  0  0  0  0  0  0  0  0  0  0
    7.3061    2.7177   -1.9350 H   0  0  0  0  0  0  0  0  0  0  0  0
    6.8145    1.0520   -1.5997 H   0  0  0  0  0  0  0  0  0  0  0  0
    6.1149    1.9673   -2.9713 H   0  0  0  0  0  0  0  0  0  0  0  0
    5.1183    4.1467    0.2737 H   0  0  0  0  0  0  0  0  0  0  0  0
    5.9384    2.7191    0.9778 H   0  0  0  0  0  0  0  0  0  0  0  0
    6.7879    3.8096   -0.1232 H   0  0  0  0  0  0  0  0  0  0  0  0
    3.3561    2.9239    0.6949 H   0  0  0  0  0  0  0  0  0  0  0  0
    1.2882    1.7143    0.8490 H   0  0  0  0  0  0  0  0  0  0  0  0
   -0.4695   -3.2537   -0.0438 H   0  0  0  0  0  0  0  0  0  0  0  0
   -2.5016   -4.6195   -0.0556 H   0  0  0  0  0  0  0  0  0  0  0  0
   -4.9266   -4.8007    0.1831 H   0  0  0  0  0  0  0  0  0  0  0  0
   -7.1133   -3.7660    0.6048 H   0  0  0  0  0  0  0  0  0  0  0  0
   -7.2830   -1.3344    1.0239 H   0  0  0  0  0  0  0  0  0  0  0  0
   -5.3099    0.0670    1.0250 H   0  0  0  0  0  0  0  0  0  0  0  0
  1  2  1  0
  2  3  1  0
  3  4  2  0
  4  5  1  0
  5  6  2  3
  6  7  1  0
  7  8  2  0
  8  9  1  0
  9 10  2  0
 10 11  1  0
 11 12  1  0
 11 13  1  0
 10 14  1  0
 14 15  2  0
  4 16  1  0
 16 17  2  0
 17 18  1  0
 18 19  2  0
 19 20  1  0
 20 21  2  0
 21 22  1  0
 22 23  2  0
 23  3  1  0
 15  7  1  0
 23 18  1  0
  1 24  1  0
  1 25  1  0
  1 26  1  0
  2 27  1  0
  2 28  1  0
  5 29  1  0
  6 30  1  0
  8 31  1  0
  9 32  1  0
 12 33  1  0
 12 34  1  0
 12 35  1  0
 13 36  1  0
 13 37  1  0
 13 38  1  0
 14 39  1  0
 15 40  1  0
 16 41  1  0
 17 42  1  0
 19 43  1  0
 20 44  1  0
 21 45  1  0
 22 46  1  0
M  CHG  1   3   1
M  END
$$$$
