
     RDKit          3D

 29 30  0  0  0  0  0  0  0  0999 V2000
    1.4514    3.6533   -0.6940 C   0  0  0  0  0  0  0  0  0  0  0  0
    1.1955    2.8577    0.3534 C   0  0  0  0  0  0  0  0  0  0  0  0
   -0.1878    2.4770    0.8079 C   0  0  0  0  0  0  0  0  0  0  0  0
   -0.4319    1.0739    0.4753 N   0  0  0  0  0  0  0  0  0  0  0  0
   -0.0867    0.0108    1.2926 C   0  0  0  0  0  0  0  0  0  0  0  0
    0.6401    0.3431    2.8562 S   0  0  0  0  0  0  0  0  0  0  0  0
    1.8203   -1.0401    2.9386 C   0  0  0  0  0  0  0  0  0  0  0  0
    2.8577   -0.9716    1.9004 C   0  0  0  0  0  0  0  0  0  0  0  0
    3.6842   -0.9042    1.0875 N   0  0  0  0  0  0  0  0  0  0  0  0
   -0.2785   -1.2334    1.0001 N   0  0  0  0  0  0  0  0  0  0  0  0
   -0.8563   -1.5470   -0.2328 C   0  0  0  0  0  0  0  0  0  0  0  0
   -1.0443   -2.8900   -0.5689 C   0  0  0  0  0  0  0  0  0  0  0  0
   -1.6201   -3.2438   -1.7923 C   0  0  0  0  0  0  0  0  0  0  0  0
   -2.0138   -2.2533   -2.6911 C   0  0  0  0  0  0  0  0  0  0  0  0
   -1.8311   -0.9101   -2.3655 C   0  0  0  0  0  0  0  0  0  0  0  0
   -1.2524   -0.5678   -1.1371 C   0  0  0  0  0  0  0  0  0  0  0  0
   -1.0435    0.8395   -0.7573 C   0  0  0  0  0  0  0  0  0  0  0  0
   -1.4234    1.7210   -1.5255 O   0  0  0  0  0  0  0  0  0  0  0  0
    2.4722    3.8947   -0.9746 H   0  0  0  0  0  0  0  0  0  0  0  0
    0.6524    4.0627   -1.3066 H   0  0  0  0  0  0  0  0  0  0  0  0
    2.0340    2.4683    0.9259 H   0  0  0  0  0  0  0  0  0  0  0  0
   -0.2878    2.6555    1.8821 H   0  0  0  0  0  0  0  0  0  0  0  0
   -0.9408    3.1140    0.3286 H   0  0  0  0  0  0  0  0  0  0  0  0
    2.2974   -0.9942    3.9233 H   0  0  0  0  0  0  0  0  0  0  0  0
    1.2872   -1.9951    2.8982 H   0  0  0  0  0  0  0  0  0  0  0  0
   -0.7385   -3.6664    0.1277 H   0  0  0  0  0  0  0  0  0  0  0  0
   -1.7592   -4.2928   -2.0428 H   0  0  0  0  0  0  0  0  0  0  0  0
   -2.4607   -2.5267   -3.6441 H   0  0  0  0  0  0  0  0  0  0  0  0
   -2.1357   -0.1348   -3.0652 H   0  0  0  0  0  0  0  0  0  0  0  0
  1  2  2  0
  2  3  1  0
  3  4  1  0
  4  5  1  0
  5  6  1  0
  6  7  1  0
  7  8  1  0
  8  9  3  0
  5 10  2  0
 10 11  1  0
 11 12  2  0
 12 13  1  0
 13 14  2  0
 14 15  1  0
 15 16  2  0
 16 17  1  0
 17 18  2  0
 17  4  1  0
 16 11  1  0
  1 19  1  0
  1 20  1  0
  2 21  1  0
  3 22  1  0
  3 23  1  0
  7 24  1  0
  7 25  1  0
 12 26  1  0
 13 27  1  0
 14 28  1  0
 15 29  1  0
M  END
$$$$
