
     RDKit          3D

 31 32  0  0  0  0  0  0  0  0999 V2000
    4.7859   -1.6881    0.3322 O   0  0  0  0  0  0  0  0  0  0  0  0
    4.7869   -0.4744    0.1282 C   0  0  0  0  0  0  0  0  0  0  0  0
    3.6606    0.3402    0.0886 N   0  0  0  0  0  0  0  0  0  0  0  0
    2.3141   -0.0333    0.2648 C   0  0  0  0  0  0  0  0  0  0  0  0
    1.8872   -1.3356    0.5126 C   0  0  0  0  0  0  0  0  0  0  0  0
    0.5233   -1.6160    0.6766 C   0  0  0  0  0  0  0  0  0  0  0  0
   -0.4437   -0.6064    0.6019 C   0  0  0  0  0  0  0  0  0  0  0  0
   -1.7989   -0.9482    0.7368 N   0  0  0  0  0  0  0  0  0  0  0  0
   -2.9753   -0.3483    0.2544 C   0  0  0  0  0  0  0  0  0  0  0  0
   -4.1688   -0.5255    0.9696 C   0  0  0  0  0  0  0  0  0  0  0  0
   -5.3574    0.0815    0.5537 C   0  0  0  0  0  0  0  0  0  0  0  0
   -5.3684    0.8814   -0.5852 C   0  0  0  0  0  0  0  0  0  0  0  0
   -4.1923    1.0730   -1.3050 C   0  0  0  0  0  0  0  0  0  0  0  0
   -3.0054    0.4655   -0.8835 C   0  0  0  0  0  0  0  0  0  0  0  0
   -0.0066    0.6946    0.3453 C   0  0  0  0  0  0  0  0  0  0  0  0
    1.3549    0.9808    0.1829 C   0  0  0  0  0  0  0  0  0  0  0  0
    6.1039    0.2660   -0.1083 C   0  0  0  0  0  0  0  0  0  0  0  0
    6.3262    1.4983    1.1540 Cl  0  0  0  0  0  0  0  0  0  0  0  0
    6.0765    1.0283   -1.7144 Cl  0  0  0  0  0  0  0  0  0  0  0  0
    3.8290    1.3258   -0.0879 H   0  0  0  0  0  0  0  0  0  0  0  0
    2.5828   -2.1655    0.5811 H   0  0  0  0  0  0  0  0  0  0  0  0
    0.2249   -2.6468    0.8531 H   0  0  0  0  0  0  0  0  0  0  0  0
   -1.9608   -1.7901    1.2777 H   0  0  0  0  0  0  0  0  0  0  0  0
   -4.1800   -1.1331    1.8710 H   0  0  0  0  0  0  0  0  0  0  0  0
   -6.2710   -0.0681    1.1229 H   0  0  0  0  0  0  0  0  0  0  0  0
   -6.2909    1.3538   -0.9118 H   0  0  0  0  0  0  0  0  0  0  0  0
   -4.1954    1.6910   -2.1989 H   0  0  0  0  0  0  0  0  0  0  0  0
   -2.1086    0.6088   -1.4799 H   0  0  0  0  0  0  0  0  0  0  0  0
   -0.7192    1.5140    0.3020 H   0  0  0  0  0  0  0  0  0  0  0  0
    1.6445    2.0117   -0.0034 H   0  0  0  0  0  0  0  0  0  0  0  0
    6.9420   -0.4351   -0.0665 H   0  0  0  0  0  0  0  0  0  0  0  0
  1  2  2  0
  2  3  1  0
  3  4  1  0
  4  5  2  0
  5  6  1  0
  6  7  2  0
  7  8  1  0
  8  9  1  0
  9 10  2  0
 10 11  1  0
 11 12  2  0
 12 13  1  0
 13 14  2  0
  7 15  1  0
 15 16  2  0
  2 17  1  0
 17 18  1  0
 17 19  1  0
 16  4  1  0
 14  9  1  0
  3 20  1  0
  5 21  1  0
  6 22  1  0
  8 23  1  0
 10 24  1  0
 11 25  1  0
 12 26  1  0
 13 27  1  0
 14 28  1  0
 15 29  1  0
 16 30  1  0
 17 31  1  0
M  END
$$$$
