
     RDKit          3D

 58 61  0  0  0  0  0  0  0  0999 V2000
    7.7283   -0.9942   -2.4997 C   0  0  0  0  0  0  0  0  0  0  0  0
    6.9636   -0.7385   -1.2276 C   0  0  0  0  0  0  0  0  0  0  0  0
    7.6537   -0.8470   -0.0118 C   0  0  0  0  0  0  0  0  0  0  0  0
    7.0014   -0.6295    1.1950 C   0  0  0  0  0  0  0  0  0  0  0  0
    5.6479   -0.2996    1.2079 C   0  0  0  0  0  0  0  0  0  0  0  0
    4.9246   -0.1787    0.0165 C   0  0  0  0  0  0  0  0  0  0  0  0
    3.5443    0.1513    0.0093 N   0  0  0  0  0  0  0  0  0  0  0  0
    2.7297    0.4286    1.0949 C   0  0  0  0  0  0  0  0  0  0  0  0
    3.0517    0.4851    2.2744 O   0  0  0  0  0  0  0  0  0  0  0  0
    1.3164    0.7036    0.7087 C   0  0  0  0  0  0  0  0  0  0  0  0
    0.7265    1.8966    1.2069 C   0  0  0  0  0  0  0  0  0  0  0  0
    0.2310    2.8789    1.5790 N   0  0  0  0  0  0  0  0  0  0  0  0
    0.6588   -0.2400    0.0061 C   0  0  0  0  0  0  0  0  0  0  0  0
   -0.6946   -0.2074   -0.4524 C   0  0  0  0  0  0  0  0  0  0  0  0
   -1.3508    0.8899   -0.9612 C   0  0  0  0  0  0  0  0  0  0  0  0
   -2.6301    0.5068   -1.2869 N   0  0  0  0  0  0  0  0  0  0  0  0
   -3.6325    1.4144   -1.8273 C   0  0  0  0  0  0  0  0  0  0  0  0
   -4.2151    2.3436   -0.7819 C   0  0  0  0  0  0  0  0  0  0  0  0
   -4.3573    3.5454   -1.0014 O   0  0  0  0  0  0  0  0  0  0  0  0
   -4.6388    1.7506    0.3836 N   0  0  0  0  0  0  0  0  0  0  0  0
   -5.1593    2.5508    1.4678 C   0  0  0  0  0  0  0  0  0  0  0  0
   -5.5257    1.6568    2.5909 C   0  0  0  0  0  0  0  0  0  0  0  0
   -4.9169    1.3468    3.7900 C   0  0  0  0  0  0  0  0  0  0  0  0
   -5.7635    0.4147    4.4377 C   0  0  0  0  0  0  0  0  0  0  0  0
   -6.8294    0.2112    3.5921 C   0  0  0  0  0  0  0  0  0  0  0  0
   -6.6917    0.9573    2.4664 O   0  0  0  0  0  0  0  0  0  0  0  0
   -2.8057   -0.8384   -1.0295 C   0  0  0  0  0  0  0  0  0  0  0  0
   -3.9204   -1.6772   -1.1991 C   0  0  0  0  0  0  0  0  0  0  0  0
   -3.7976   -3.0214   -0.8362 C   0  0  0  0  0  0  0  0  0  0  0  0
   -2.6063   -3.5167   -0.3178 C   0  0  0  0  0  0  0  0  0  0  0  0
   -1.5023   -2.6757   -0.1476 C   0  0  0  0  0  0  0  0  0  0  0  0
   -1.5958   -1.3135   -0.5081 C   0  0  0  0  0  0  0  0  0  0  0  0
    5.5854   -0.4014   -1.2228 C   0  0  0  0  0  0  0  0  0  0  0  0
    4.8258   -0.2839   -2.5238 C   0  0  0  0  0  0  0  0  0  0  0  0
    8.7788   -1.2320   -2.2991 H   0  0  0  0  0  0  0  0  0  0  0  0
    7.2988   -1.8464   -3.0349 H   0  0  0  0  0  0  0  0  0  0  0  0
    7.7138   -0.1056   -3.1384 H   0  0  0  0  0  0  0  0  0  0  0  0
    8.7111   -1.1041    0.0043 H   0  0  0  0  0  0  0  0  0  0  0  0
    7.5444   -0.7166    2.1332 H   0  0  0  0  0  0  0  0  0  0  0  0
    5.1888   -0.1451    2.1794 H   0  0  0  0  0  0  0  0  0  0  0  0
    3.1175    0.2234   -0.9040 H   0  0  0  0  0  0  0  0  0  0  0  0
    1.1861   -1.1682   -0.2157 H   0  0  0  0  0  0  0  0  0  0  0  0
   -1.0336    1.9150   -1.1161 H   0  0  0  0  0  0  0  0  0  0  0  0
   -4.4361    0.8404   -2.2958 H   0  0  0  0  0  0  0  0  0  0  0  0
   -3.1381    2.0081   -2.6047 H   0  0  0  0  0  0  0  0  0  0  0  0
   -4.4055    0.7839    0.5798 H   0  0  0  0  0  0  0  0  0  0  0  0
   -4.3874    3.2672    1.7714 H   0  0  0  0  0  0  0  0  0  0  0  0
   -6.0266    3.1154    1.1080 H   0  0  0  0  0  0  0  0  0  0  0  0
   -3.9779    1.7458    4.1500 H   0  0  0  0  0  0  0  0  0  0  0  0
   -5.6158   -0.0526    5.4013 H   0  0  0  0  0  0  0  0  0  0  0  0
   -7.7209   -0.3994    3.6417 H   0  0  0  0  0  0  0  0  0  0  0  0
   -4.8606   -1.3099   -1.5990 H   0  0  0  0  0  0  0  0  0  0  0  0
   -4.6478   -3.6891   -0.9597 H   0  0  0  0  0  0  0  0  0  0  0  0
   -2.5320   -4.5650   -0.0386 H   0  0  0  0  0  0  0  0  0  0  0  0
   -0.5817   -3.0762    0.2676 H   0  0  0  0  0  0  0  0  0  0  0  0
    4.4257    0.7293   -2.6352 H   0  0  0  0  0  0  0  0  0  0  0  0
    4.0050   -1.0086   -2.5448 H   0  0  0  0  0  0  0  0  0  0  0  0
    5.4387   -0.4788   -3.4067 H   0  0  0  0  0  0  0  0  0  0  0  0
  1  2  1  0
  2  3  2  0
  3  4  1  0
  4  5  2  0
  5  6  1  0
  6  7  1  0
  7  8  1  0
  8  9  2  0
  8 10  1  0
 10 11  1  0
 11 12  3  0
 10 13  2  3
 13 14  1  0
 14 15  2  0
 15 16  1  0
 16 17  1  0
 17 18  1  0
 18 19  2  0
 18 20  1  0
 20 21  1  0
 21 22  1  0
 22 23  2  0
 23 24  1  0
 24 25  2  0
 25 26  1  0
 16 27  1  0
 27 28  2  0
 28 29  1  0
 29 30  2  0
 30 31  1  0
 31 32  2  0
  6 33  2  0
 33 34  1  0
 33  2  1  0
 32 14  1  0
 26 22  1  0
 32 27  1  0
  1 35  1  0
  1 36  1  0
  1 37  1  0
  3 38  1  0
  4 39  1  0
  5 40  1  0
  7 41  1  0
 13 42  1  0
 15 43  1  0
 17 44  1  0
 17 45  1  0
 20 46  1  0
 21 47  1  0
 21 48  1  0
 23 49  1  0
 24 50  1  0
 25 51  1  0
 28 52  1  0
 29 53  1  0
 30 54  1  0
 31 55  1  0
 34 56  1  0
 34 57  1  0
 34 58  1  0
M  END
$$$$
