
     RDKit          3D

 44 46  0  0  0  0  0  0  0  0999 V2000
   -5.3212   -0.5599   -3.7702 C   0  0  0  0  0  0  0  0  0  0  0  0
   -4.6382   -0.8823   -2.4728 C   0  0  0  0  0  0  0  0  0  0  0  0
   -4.2026   -2.1899   -2.2163 C   0  0  0  0  0  0  0  0  0  0  0  0
   -3.5876   -2.5056   -1.0055 C   0  0  0  0  0  0  0  0  0  0  0  0
   -3.4066   -1.5072   -0.0462 C   0  0  0  0  0  0  0  0  0  0  0  0
   -2.6205   -1.9164    1.4907 S   0  0  0  0  0  6  0  0  0  0  0  0
   -2.7133   -0.7845    2.3857 O   0  0  0  0  0  0  0  0  0  0  0  0
   -3.1091   -3.2227    1.8836 O   0  0  0  0  0  0  0  0  0  0  0  0
   -1.0056   -2.1442    1.0336 N   0  0  0  0  0  0  0  0  0  0  0  0
   -0.1655   -0.9975    0.9501 C   0  0  0  0  0  0  0  0  0  0  0  0
   -0.2266   -0.1645   -0.1670 C   0  0  0  0  0  0  0  0  0  0  0  0
    0.5629    0.9919   -0.2328 C   0  0  0  0  0  0  0  0  0  0  0  0
    0.4748    1.8938   -1.4319 C   0  0  0  0  0  0  0  0  0  0  0  0
    1.4090    1.3002    0.8450 C   0  0  0  0  0  0  0  0  0  0  0  0
    2.1457    2.4515    0.7355 O   0  0  0  0  0  0  0  0  0  0  0  0
    1.4796    0.4640    1.9752 C   0  0  0  0  0  0  0  0  0  0  0  0
    2.5129    0.7962    3.3997 S   0  0  0  0  0  0  0  0  0  0  0  0
    4.0918    0.7374    2.6736 C   0  0  0  0  0  0  0  0  0  0  0  0
    4.8585   -0.3535    2.6754 N   0  0  0  0  0  0  0  0  0  0  0  0
    5.9019    0.0539    1.9368 N   0  0  0  0  0  0  0  0  0  0  0  0
    5.7318    1.3399    1.4979 C   0  0  0  0  0  0  0  0  0  0  0  0
    6.6807    2.0232    0.5913 C   0  0  0  0  0  0  0  0  0  0  0  0
    4.5852    1.7950    1.9571 N   0  0  0  0  0  0  0  0  0  0  0  0
    0.6723   -0.6823    2.0208 C   0  0  0  0  0  0  0  0  0  0  0  0
   -3.8590   -0.2060   -0.2762 C   0  0  0  0  0  0  0  0  0  0  0  0
   -4.4741    0.1023   -1.4894 C   0  0  0  0  0  0  0  0  0  0  0  0
   -5.3194    0.5176   -3.9646 H   0  0  0  0  0  0  0  0  0  0  0  0
   -6.3571   -0.9075   -3.7460 H   0  0  0  0  0  0  0  0  0  0  0  0
   -4.8032   -1.0414   -4.6048 H   0  0  0  0  0  0  0  0  0  0  0  0
   -4.3451   -2.9693   -2.9603 H   0  0  0  0  0  0  0  0  0  0  0  0
   -3.2553   -3.5226   -0.8152 H   0  0  0  0  0  0  0  0  0  0  0  0
   -0.6253   -2.9770    1.4856 H   0  0  0  0  0  0  0  0  0  0  0  0
   -0.8795   -0.4159   -1.0009 H   0  0  0  0  0  0  0  0  0  0  0  0
   -0.0807    1.4219   -2.2481 H   0  0  0  0  0  0  0  0  0  0  0  0
    1.4738    2.1205   -1.8151 H   0  0  0  0  0  0  0  0  0  0  0  0
   -0.0345    2.8267   -1.1656 H   0  0  0  0  0  0  0  0  0  0  0  0
    2.8919    2.4109    1.3700 H   0  0  0  0  0  0  0  0  0  0  0  0
    6.6632   -0.5898    1.7506 H   0  0  0  0  0  0  0  0  0  0  0  0
    6.5820    3.1127    0.6802 H   0  0  0  0  0  0  0  0  0  0  0  0
    6.4669    1.7393   -0.4430 H   0  0  0  0  0  0  0  0  0  0  0  0
    7.7144    1.7505    0.8220 H   0  0  0  0  0  0  0  0  0  0  0  0
    0.6903   -1.3248    2.8993 H   0  0  0  0  0  0  0  0  0  0  0  0
   -3.7330    0.5687    0.4757 H   0  0  0  0  0  0  0  0  0  0  0  0
   -4.8264    1.1168   -1.6635 H   0  0  0  0  0  0  0  0  0  0  0  0
  1  2  1  0
  2  3  2  0
  3  4  1  0
  4  5  2  0
  5  6  1  0
  6  7  2  0
  6  8  2  0
  6  9  1  0
  9 10  1  0
 10 11  2  0
 11 12  1  0
 12 13  1  0
 12 14  2  0
 14 15  1  0
 14 16  1  0
 16 17  1  0
 17 18  1  0
 18 19  2  0
 19 20  1  0
 20 21  1  0
 21 22  1  0
 21 23  2  0
 16 24  2  0
  5 25  1  0
 25 26  2  0
 26  2  1  0
 24 10  1  0
 23 18  1  0
  1 27  1  0
  1 28  1  0
  1 29  1  0
  3 30  1  0
  4 31  1  0
  9 32  1  0
 11 33  1  0
 13 34  1  0
 13 35  1  0
 13 36  1  0
 15 37  1  0
 20 38  1  0
 22 39  1  0
 22 40  1  0
 22 41  1  0
 24 42  1  0
 25 43  1  0
 26 44  1  0
M  END
$$$$
