
     RDKit          3D

 33 33  0  0  0  0  0  0  0  0999 V2000
   -2.9713    1.0848    2.0438 C   0  0  0  0  0  0  0  0  0  0  0  0
   -3.3797    0.1382    0.9144 C   0  0  0  0  0  0  0  0  0  0  0  0
   -3.5332    0.9072   -0.3984 C   0  0  0  0  0  0  0  0  0  0  0  0
   -2.4464   -1.0842    0.7886 C   0  0  0  0  0  0  0  0  0  0  0  0
   -1.0071   -0.7939    0.4366 C   0  0  0  0  0  0  0  0  0  0  0  0
   -0.5954   -0.7458   -0.8999 C   0  0  0  0  0  0  0  0  0  0  0  0
    0.7363   -0.4766   -1.2270 C   0  0  0  0  0  0  0  0  0  0  0  0
    1.6911   -0.2536   -0.2248 C   0  0  0  0  0  0  0  0  0  0  0  0
    3.1437    0.0530   -0.5549 C   0  0  0  0  0  0  0  0  0  0  0  0
    3.2819    1.3308   -1.3828 C   0  0  0  0  0  0  0  0  0  0  0  0
    3.8548   -1.0856   -1.2665 C   0  0  0  0  0  0  0  0  0  0  0  0
    3.3854   -1.9046   -2.0391 O   0  0  0  0  0  0  0  0  0  0  0  0
    5.1801   -1.1060   -0.9988 O   0  0  0  0  0  0  0  0  0  0  0  0
    1.2763   -0.3096    1.1139 C   0  0  0  0  0  0  0  0  0  0  0  0
   -0.0561   -0.5774    1.4401 C   0  0  0  0  0  0  0  0  0  0  0  0
   -2.0303    1.5991    1.8242 H   0  0  0  0  0  0  0  0  0  0  0  0
   -3.7379    1.8526    2.1955 H   0  0  0  0  0  0  0  0  0  0  0  0
   -2.8557    0.5408    2.9870 H   0  0  0  0  0  0  0  0  0  0  0  0
   -4.3722   -0.2565    1.1715 H   0  0  0  0  0  0  0  0  0  0  0  0
   -2.6073    1.4169   -0.6828 H   0  0  0  0  0  0  0  0  0  0  0  0
   -3.8220    0.2352   -1.2133 H   0  0  0  0  0  0  0  0  0  0  0  0
   -4.3136    1.6705   -0.3057 H   0  0  0  0  0  0  0  0  0  0  0  0
   -2.8582   -1.7725    0.0379 H   0  0  0  0  0  0  0  0  0  0  0  0
   -2.4690   -1.6494    1.7304 H   0  0  0  0  0  0  0  0  0  0  0  0
   -1.3096   -0.9220   -1.7012 H   0  0  0  0  0  0  0  0  0  0  0  0
    1.0221   -0.4579   -2.2770 H   0  0  0  0  0  0  0  0  0  0  0  0
    3.6749    0.2079    0.3943 H   0  0  0  0  0  0  0  0  0  0  0  0
    4.3375    1.5862   -1.5285 H   0  0  0  0  0  0  0  0  0  0  0  0
    2.8372    1.2221   -2.3785 H   0  0  0  0  0  0  0  0  0  0  0  0
    2.7952    2.1773   -0.8862 H   0  0  0  0  0  0  0  0  0  0  0  0
    5.5081   -1.8682   -1.5214 H   0  0  0  0  0  0  0  0  0  0  0  0
    1.9869   -0.1433    1.9209 H   0  0  0  0  0  0  0  0  0  0  0  0
   -0.3467   -0.6155    2.4876 H   0  0  0  0  0  0  0  0  0  0  0  0
  1  2  1  0
  2  3  1  0
  2  4  1  0
  4  5  1  0
  5  6  2  0
  6  7  1  0
  7  8  2  0
  8  9  1  0
  9 10  1  0
  9 11  1  0
 11 12  2  0
 11 13  1  0
  8 14  1  0
 14 15  2  0
 15  5  1  0
  1 16  1  0
  1 17  1  0
  1 18  1  0
  2 19  1  0
  3 20  1  0
  3 21  1  0
  3 22  1  0
  4 23  1  0
  4 24  1  0
  6 25  1  0
  7 26  1  0
  9 27  1  0
 10 28  1  0
 10 29  1  0
 10 30  1  0
 13 31  1  0
 14 32  1  0
 15 33  1  0
M  END
$$$$
