
     RDKit          3D

 39 41  0  0  0  0  0  0  0  0999 V2000
   -1.1433   -1.8569   -2.4911 O   0  0  0  0  0  0  0  0  0  0  0  0
   -1.3177   -0.5470   -1.9044 S   0  0  0  0  0  6  0  0  0  0  0  0
   -1.1901    0.6666   -2.6785 O   0  0  0  0  0  0  0  0  0  0  0  0
   -0.3008   -0.4107   -0.5848 N   0  0  0  0  0  0  0  0  0  0  0  0
    0.1303   -1.6363    0.1087 C   0  0  0  0  0  0  0  0  0  0  0  0
    0.9615   -1.2746    1.3445 C   0  0  0  0  0  0  0  0  0  0  0  0
    2.2596   -0.6214    0.9984 C   0  0  0  0  0  0  0  0  0  0  0  0
    3.5356   -0.9537    1.4041 C   0  0  0  0  0  0  0  0  0  0  0  0
    4.3672   -0.0402    0.8067 N   0  0  0  0  0  0  0  0  0  0  0  0
    5.7528    0.0801    0.8784 C   0  0  0  0  0  0  0  0  0  0  0  0
    6.3591    1.0669    0.1963 C   0  0  0  0  0  0  0  0  0  0  0  0
    5.5461    1.9782   -0.5964 C   0  0  0  0  0  0  0  0  0  0  0  0
    4.2055    1.8544   -0.6596 C   0  0  0  0  0  0  0  0  0  0  0  0
    3.5581    0.8114    0.0618 C   0  0  0  0  0  0  0  0  0  0  0  0
    2.2879    0.4798    0.1660 N   0  0  0  0  0  0  0  0  0  0  0  0
   -2.9133   -0.4892   -1.1187 C   0  0  0  0  0  0  0  0  0  0  0  0
   -3.7273   -1.6249   -1.1018 C   0  0  0  0  0  0  0  0  0  0  0  0
   -4.9781   -1.5571   -0.4892 C   0  0  0  0  0  0  0  0  0  0  0  0
   -5.4023   -0.3628    0.0926 C   0  0  0  0  0  0  0  0  0  0  0  0
   -6.6072   -0.3261    0.6766 F   0  0  0  0  0  0  0  0  0  0  0  0
   -4.6031    0.7802    0.0765 C   0  0  0  0  0  0  0  0  0  0  0  0
   -5.1122    2.0369    0.7164 C   0  0  0  0  0  0  0  0  0  0  0  0
   -4.2308    3.0741    0.6298 F   0  0  0  0  0  0  0  0  0  0  0  0
   -6.2658    2.4900    0.1545 F   0  0  0  0  0  0  0  0  0  0  0  0
   -5.3665    1.8868    2.0455 F   0  0  0  0  0  0  0  0  0  0  0  0
   -3.3443    0.7129   -0.5409 C   0  0  0  0  0  0  0  0  0  0  0  0
    0.4478    0.2865   -0.7154 H   0  0  0  0  0  0  0  0  0  0  0  0
   -0.7499   -2.2080    0.4207 H   0  0  0  0  0  0  0  0  0  0  0  0
    0.7308   -2.2492   -0.5729 H   0  0  0  0  0  0  0  0  0  0  0  0
    1.1568   -2.1888    1.9178 H   0  0  0  0  0  0  0  0  0  0  0  0
    0.3920   -0.6000    1.9953 H   0  0  0  0  0  0  0  0  0  0  0  0
    3.9131   -1.7358    2.0466 H   0  0  0  0  0  0  0  0  0  0  0  0
    6.2877   -0.6362    1.4884 H   0  0  0  0  0  0  0  0  0  0  0  0
    7.4349    1.2049    0.2175 H   0  0  0  0  0  0  0  0  0  0  0  0
    6.0545    2.7681   -1.1416 H   0  0  0  0  0  0  0  0  0  0  0  0
    3.5985    2.5314   -1.2499 H   0  0  0  0  0  0  0  0  0  0  0  0
   -3.3994   -2.5549   -1.5616 H   0  0  0  0  0  0  0  0  0  0  0  0
   -5.6294   -2.4264   -0.4633 H   0  0  0  0  0  0  0  0  0  0  0  0
   -2.6984    1.5907   -0.5733 H   0  0  0  0  0  0  0  0  0  0  0  0
  1  2  2  0
  2  3  2  0
  2  4  1  0
  4  5  1  0
  5  6  1  0
  6  7  1  0
  7  8  2  0
  8  9  1  0
  9 10  1  0
 10 11  2  0
 11 12  1  0
 12 13  2  0
 13 14  1  0
 14 15  2  0
  2 16  1  0
 16 17  2  0
 17 18  1  0
 18 19  2  0
 19 20  1  0
 19 21  1  0
 21 22  1  0
 22 23  1  0
 22 24  1  0
 22 25  1  0
 21 26  2  0
 15  7  1  0
 26 16  1  0
 14  9  1  0
  4 27  1  0
  5 28  1  0
  5 29  1  0
  6 30  1  0
  6 31  1  0
  8 32  1  0
 10 33  1  0
 11 34  1  0
 12 35  1  0
 13 36  1  0
 17 37  1  0
 18 38  1  0
 26 39  1  0
M  END
$$$$
