
     RDKit          3D

 44 46  0  0  0  0  0  0  0  0999 V2000
   -2.9305   -2.7948    3.5563 C   0  0  0  0  0  0  0  0  0  0  0  0
   -2.4161   -2.4451    2.1910 C   0  0  0  0  0  0  0  0  0  0  0  0
   -2.8070   -1.2588    1.5698 C   0  0  0  0  0  0  0  0  0  0  0  0
   -2.3720   -0.9211    0.2727 C   0  0  0  0  0  0  0  0  0  0  0  0
   -2.8887    0.3766   -0.2897 C   0  0  0  0  0  0  0  0  0  0  0  0
   -1.5108   -1.8129   -0.4142 C   0  0  0  0  0  0  0  0  0  0  0  0
   -0.8993   -1.4307   -2.0739 S   0  0  0  0  0  6  0  0  0  0  0  0
   -0.9075   -2.6558   -2.8470 O   0  0  0  0  0  0  0  0  0  0  0  0
   -1.5551   -0.2532   -2.5976 O   0  0  0  0  0  0  0  0  0  0  0  0
    0.7281   -1.0535   -1.8092 N   0  0  0  0  0  0  0  0  0  0  0  0
    1.0731   -0.0635   -0.8504 C   0  0  0  0  0  0  0  0  0  0  0  0
    1.7043   -0.4571    0.3299 C   0  0  0  0  0  0  0  0  0  0  0  0
    2.0153    0.4917    1.3048 C   0  0  0  0  0  0  0  0  0  0  0  0
    1.6953    1.8332    1.0909 C   0  0  0  0  0  0  0  0  0  0  0  0
    1.9900    2.7570    2.0571 O   0  0  0  0  0  0  0  0  0  0  0  0
    1.0707    2.2404   -0.0968 C   0  0  0  0  0  0  0  0  0  0  0  0
    0.6351    3.9436   -0.4049 S   0  0  0  0  0  0  0  0  0  0  0  0
    2.1369    4.5924   -1.0139 C   0  0  0  0  0  0  0  0  0  0  0  0
    3.2313    3.8354   -1.3530 N   0  0  0  0  0  0  0  0  0  0  0  0
    4.0929    4.7281   -1.7772 C   0  0  0  0  0  0  0  0  0  0  0  0
    3.5364    5.9638   -1.7030 N   0  0  0  0  0  0  0  0  0  0  0  0
    2.2853    5.9064   -1.2263 N   0  0  0  0  0  0  0  0  0  0  0  0
    0.7566    1.2771   -1.0645 C   0  0  0  0  0  0  0  0  0  0  0  0
   -1.1262   -3.0362    0.1993 C   0  0  0  0  0  0  0  0  0  0  0  0
   -0.2726   -4.0872   -0.4619 C   0  0  0  0  0  0  0  0  0  0  0  0
   -1.5975   -3.3317    1.4926 C   0  0  0  0  0  0  0  0  0  0  0  0
   -3.8758   -3.3395    3.4719 H   0  0  0  0  0  0  0  0  0  0  0  0
   -2.2101   -3.4170    4.0977 H   0  0  0  0  0  0  0  0  0  0  0  0
   -3.0934   -1.8927    4.1554 H   0  0  0  0  0  0  0  0  0  0  0  0
   -3.4731   -0.5825    2.1058 H   0  0  0  0  0  0  0  0  0  0  0  0
   -3.5230    0.1906   -1.1614 H   0  0  0  0  0  0  0  0  0  0  0  0
   -2.0679    1.0520   -0.5392 H   0  0  0  0  0  0  0  0  0  0  0  0
   -3.5109    0.9108    0.4378 H   0  0  0  0  0  0  0  0  0  0  0  0
    1.3423   -1.8562   -1.9210 H   0  0  0  0  0  0  0  0  0  0  0  0
    1.9456   -1.5008    0.5094 H   0  0  0  0  0  0  0  0  0  0  0  0
    2.4965    0.1688    2.2228 H   0  0  0  0  0  0  0  0  0  0  0  0
    2.4749    2.3262    2.7781 H   0  0  0  0  0  0  0  0  0  0  0  0
    5.0943    4.5444   -2.1383 H   0  0  0  0  0  0  0  0  0  0  0  0
    3.9316    6.8627   -1.9544 H   0  0  0  0  0  0  0  0  0  0  0  0
    0.2720    1.5767   -1.9912 H   0  0  0  0  0  0  0  0  0  0  0  0
    0.6358   -3.6585   -0.8896 H   0  0  0  0  0  0  0  0  0  0  0  0
   -0.8450   -4.6143   -1.2307 H   0  0  0  0  0  0  0  0  0  0  0  0
    0.0640   -4.8388    0.2615 H   0  0  0  0  0  0  0  0  0  0  0  0
   -1.3258   -4.2760    1.9638 H   0  0  0  0  0  0  0  0  0  0  0  0
  1  2  1  0
  2  3  2  0
  3  4  1  0
  4  5  1  0
  4  6  2  0
  6  7  1  0
  7  8  2  0
  7  9  2  0
  7 10  1  0
 10 11  1  0
 11 12  2  0
 12 13  1  0
 13 14  2  0
 14 15  1  0
 14 16  1  0
 16 17  1  0
 17 18  1  0
 18 19  1  0
 19 20  2  0
 20 21  1  0
 21 22  1  0
 16 23  2  0
  6 24  1  0
 24 25  1  0
 24 26  2  0
 26  2  1  0
 23 11  1  0
 22 18  2  0
  1 27  1  0
  1 28  1  0
  1 29  1  0
  3 30  1  0
  5 31  1  0
  5 32  1  0
  5 33  1  0
 10 34  1  0
 12 35  1  0
 13 36  1  0
 15 37  1  0
 20 38  1  0
 21 39  1  0
 23 40  1  0
 25 41  1  0
 25 42  1  0
 25 43  1  0
 26 44  1  0
M  END
$$$$
