
     RDKit          3D

 36 38  0  0  0  0  0  0  0  0999 V2000
   -5.9545    0.6967   -0.7536 C   0  0  0  0  0  0  0  0  0  0  0  0
   -5.2833   -0.0947    0.2758 N   0  0  0  0  0  0  0  0  0  0  0  0
   -6.0747   -1.1783    0.8556 C   0  0  0  0  0  0  0  0  0  0  0  0
   -3.8893   -0.2172    0.2391 C   0  0  0  0  0  0  0  0  0  0  0  0
   -3.2000   -1.1591    1.0223 C   0  0  0  0  0  0  0  0  0  0  0  0
   -1.8007   -1.2746    1.0030 C   0  0  0  0  0  0  0  0  0  0  0  0
   -1.0266   -0.4299    0.2094 C   0  0  0  0  0  0  0  0  0  0  0  0
    0.4336   -0.5988    0.1920 C   0  0  0  0  0  0  0  0  0  0  0  0
    1.2929    0.4330    0.1537 C   0  0  0  0  0  0  0  0  0  0  0  0
    2.7176    0.3245    0.1402 C   0  0  0  0  0  0  0  0  0  0  0  0
    3.5184    1.3727    0.0945 N   0  0  0  0  0  0  0  0  0  0  0  0
    4.8481    0.9900    0.0916 C   0  0  0  0  0  0  0  0  0  0  0  0
    5.9587    1.8572    0.0494 C   0  0  0  0  0  0  0  0  0  0  0  0
    7.2541    1.3294    0.0515 C   0  0  0  0  0  0  0  0  0  0  0  0
    7.4530   -0.0468    0.0948 C   0  0  0  0  0  0  0  0  0  0  0  0
    6.3670   -0.9268    0.1371 C   0  0  0  0  0  0  0  0  0  0  0  0
    5.0711   -0.3839    0.1347 C   0  0  0  0  0  0  0  0  0  0  0  0
    3.5562   -1.1900    0.1798 S   0  0  0  0  0  0  0  0  0  0  0  0
   -1.6836    0.5142   -0.5781 C   0  0  0  0  0  0  0  0  0  0  0  0
   -3.0838    0.6204   -0.5518 C   0  0  0  0  0  0  0  0  0  0  0  0
   -5.7652    0.2865   -1.7517 H   0  0  0  0  0  0  0  0  0  0  0  0
   -5.6367    1.7443   -0.7188 H   0  0  0  0  0  0  0  0  0  0  0  0
   -7.0397    0.7083   -0.6014 H   0  0  0  0  0  0  0  0  0  0  0  0
   -5.8458   -1.3120    1.9183 H   0  0  0  0  0  0  0  0  0  0  0  0
   -5.9060   -2.1194    0.3205 H   0  0  0  0  0  0  0  0  0  0  0  0
   -7.1472   -0.9585    0.8060 H   0  0  0  0  0  0  0  0  0  0  0  0
   -3.7347   -1.8362    1.6811 H   0  0  0  0  0  0  0  0  0  0  0  0
   -1.3304   -2.0276    1.6313 H   0  0  0  0  0  0  0  0  0  0  0  0
    0.7704   -1.6308    0.2329 H   0  0  0  0  0  0  0  0  0  0  0  0
    0.9169    1.4528    0.1418 H   0  0  0  0  0  0  0  0  0  0  0  0
    5.7973    2.9300    0.0158 H   0  0  0  0  0  0  0  0  0  0  0  0
    8.1081    2.0018    0.0190 H   0  0  0  0  0  0  0  0  0  0  0  0
    8.4656   -0.4452    0.0960 H   0  0  0  0  0  0  0  0  0  0  0  0
    6.5228   -2.0007    0.1711 H   0  0  0  0  0  0  0  0  0  0  0  0
   -1.1256    1.1804   -1.2316 H   0  0  0  0  0  0  0  0  0  0  0  0
   -3.5241    1.3883   -1.1804 H   0  0  0  0  0  0  0  0  0  0  0  0
  1  2  1  0
  2  3  1  0
  2  4  1  0
  4  5  2  0
  5  6  1  0
  6  7  2  0
  7  8  1  0
  8  9  2  3
  9 10  1  0
 10 11  2  0
 11 12  1  0
 12 13  2  0
 13 14  1  0
 14 15  2  0
 15 16  1  0
 16 17  2  0
 17 18  1  0
  7 19  1  0
 19 20  2  0
 20  4  1  0
 18 10  1  0
 17 12  1  0
  1 21  1  0
  1 22  1  0
  1 23  1  0
  3 24  1  0
  3 25  1  0
  3 26  1  0
  5 27  1  0
  6 28  1  0
  8 29  1  0
  9 30  1  0
 13 31  1  0
 14 32  1  0
 15 33  1  0
 16 34  1  0
 19 35  1  0
 20 36  1  0
M  END
$$$$
