
     RDKit          3D

 39 41  0  0  0  0  0  0  0  0999 V2000
   -5.0163    1.9245    1.8431 C   0  0  0  0  0  0  0  0  0  0  0  0
   -5.7512    1.1860    0.8734 O   0  0  0  0  0  0  0  0  0  0  0  0
   -5.0353    0.3141    0.0934 C   0  0  0  0  0  0  0  0  0  0  0  0
   -3.6674    0.0537    0.1888 C   0  0  0  0  0  0  0  0  0  0  0  0
   -3.0593   -0.8636   -0.6850 C   0  0  0  0  0  0  0  0  0  0  0  0
   -1.6262   -1.1665   -0.5929 C   0  0  0  0  0  0  0  0  0  0  0  0
   -0.6205   -0.3048   -0.7966 C   0  0  0  0  0  0  0  0  0  0  0  0
   -0.7181    1.3617   -1.2349 S   0  0  0  0  0  0  0  0  0  0  0  0
    1.0325    1.5655   -1.2602 C   0  0  0  0  0  0  0  0  0  0  0  0
    1.7854    2.9956   -1.6727 S   0  0  0  0  0  0  0  0  0  0  0  0
    1.6167    0.3606   -0.9285 N   0  0  0  0  0  0  0  0  0  0  0  0
    3.0089    0.2100   -0.7731 N   0  0  0  0  0  0  0  0  0  0  0  0
    3.5007    0.4190    0.5062 C   0  0  0  0  0  0  0  0  0  0  0  0
    2.8299    0.8958    1.4166 O   0  0  0  0  0  0  0  0  0  0  0  0
    4.9007    0.0010    0.7478 C   0  0  0  0  0  0  0  0  0  0  0  0
    5.8497   -0.1353   -0.2693 C   0  0  0  0  0  0  0  0  0  0  0  0
    7.1467   -0.5310    0.0561 C   0  0  0  0  0  0  0  0  0  0  0  0
    7.4506   -0.7713    1.3871 C   0  0  0  0  0  0  0  0  0  0  0  0
    6.5597   -0.6392    2.3931 N   0  0  0  0  0  0  0  0  0  0  0  0
    5.3061   -0.2479    2.0533 C   0  0  0  0  0  0  0  0  0  0  0  0
    0.8015   -0.7300   -0.6859 C   0  0  0  0  0  0  0  0  0  0  0  0
    1.1749   -1.8732   -0.4582 O   0  0  0  0  0  0  0  0  0  0  0  0
   -3.8346   -1.5361   -1.6389 C   0  0  0  0  0  0  0  0  0  0  0  0
   -5.2018   -1.2828   -1.7365 C   0  0  0  0  0  0  0  0  0  0  0  0
   -5.7850   -0.3635   -0.8747 C   0  0  0  0  0  0  0  0  0  0  0  0
   -7.1289   -0.1328   -0.9908 O   0  0  0  0  0  0  0  0  0  0  0  0
   -4.5672    1.2585    2.5872 H   0  0  0  0  0  0  0  0  0  0  0  0
   -4.2591    2.5572    1.3680 H   0  0  0  0  0  0  0  0  0  0  0  0
   -5.7191    2.5809    2.3655 H   0  0  0  0  0  0  0  0  0  0  0  0
   -3.0550    0.5478    0.9356 H   0  0  0  0  0  0  0  0  0  0  0  0
   -1.4023   -2.2052   -0.3504 H   0  0  0  0  0  0  0  0  0  0  0  0
    3.4154   -0.5309   -1.3357 H   0  0  0  0  0  0  0  0  0  0  0  0
    5.6129    0.0842   -1.3060 H   0  0  0  0  0  0  0  0  0  0  0  0
    7.9083   -0.6395   -0.7089 H   0  0  0  0  0  0  0  0  0  0  0  0
    8.4481   -1.0794    1.6890 H   0  0  0  0  0  0  0  0  0  0  0  0
    4.6188   -0.1435    2.8900 H   0  0  0  0  0  0  0  0  0  0  0  0
   -3.3818   -2.2582   -2.3143 H   0  0  0  0  0  0  0  0  0  0  0  0
   -5.8086   -1.7969   -2.4754 H   0  0  0  0  0  0  0  0  0  0  0  0
   -7.3297    0.5338   -0.3053 H   0  0  0  0  0  0  0  0  0  0  0  0
  1  2  1  0
  2  3  1  0
  3  4  2  0
  4  5  1  0
  5  6  1  0
  6  7  2  3
  7  8  1  0
  8  9  1  0
  9 10  2  0
  9 11  1  0
 11 12  1  0
 12 13  1  0
 13 14  2  0
 13 15  1  0
 15 16  2  0
 16 17  1  0
 17 18  2  0
 18 19  1  0
 19 20  2  0
 11 21  1  0
 21 22  2  0
  5 23  2  0
 23 24  1  0
 24 25  2  0
 25 26  1  0
 25  3  1  0
 21  7  1  0
 20 15  1  0
  1 27  1  0
  1 28  1  0
  1 29  1  0
  4 30  1  0
  6 31  1  0
 12 32  1  0
 16 33  1  0
 17 34  1  0
 18 35  1  0
 20 36  1  0
 23 37  1  0
 24 38  1  0
 26 39  1  0
M  END
$$$$
