
     RDKit          3D

 52 54  0  0  0  0  0  0  0  0999 V2000
    7.8511   -0.7520    1.1747 C   0  0  0  0  0  0  0  0  0  0  0  0
    6.9199   -0.9064    0.0086 C   0  0  0  0  0  0  0  0  0  0  0  0
    5.9235   -1.8873    0.0338 C   0  0  0  0  0  0  0  0  0  0  0  0
    5.0321   -2.0186   -1.0329 C   0  0  0  0  0  0  0  0  0  0  0  0
    5.1200   -1.1693   -2.1440 C   0  0  0  0  0  0  0  0  0  0  0  0
    4.1350   -1.2938   -3.2769 C   0  0  0  0  0  0  0  0  0  0  0  0
    2.9294   -0.5616   -2.9872 N   0  0  0  0  0  0  0  0  0  0  0  0
    1.8219   -1.1575   -2.4324 C   0  0  0  0  0  0  0  0  0  0  0  0
    1.6426   -2.3564   -2.2736 O   0  0  0  0  0  0  0  0  0  0  0  0
    0.7447   -0.1459   -1.9760 C   0  0  0  0  0  0  0  0  0  0  0  0
    0.8591    1.0383   -2.2572 O   0  0  0  0  0  0  0  0  0  0  0  0
   -0.2794   -0.7175   -1.2620 N   0  0  0  0  0  0  0  0  0  0  0  0
   -1.4629    0.0185   -0.8478 C   0  0  0  0  0  0  0  0  0  0  0  0
   -1.9959   -0.4599    0.5159 C   0  0  0  0  0  0  0  0  0  0  0  0
   -2.2980   -1.8737    0.4263 O   0  0  0  0  0  0  0  0  0  0  0  0
   -3.7173   -2.0107    0.5186 C   0  0  0  0  0  0  0  0  0  0  0  0
   -4.1538   -0.8356    1.3605 C   0  0  0  0  0  0  0  0  0  0  0  0
   -3.2611    0.2243    0.8700 N   0  0  0  0  0  0  0  0  0  0  0  0
   -3.0474    1.5818    1.8498 S   0  0  0  0  0  6  0  0  0  0  0  0
   -2.2029    2.5160    1.1383 O   0  0  0  0  0  0  0  0  0  0  0  0
   -2.7036    1.1219    3.1792 O   0  0  0  0  0  0  0  0  0  0  0  0
   -4.6805    2.2757    1.9014 C   0  0  0  0  0  0  0  0  0  0  0  0
   -5.1934    2.8882    0.7526 C   0  0  0  0  0  0  0  0  0  0  0  0
   -6.4726    3.4458    0.7849 C   0  0  0  0  0  0  0  0  0  0  0  0
   -7.2210    3.3929    1.9626 C   0  0  0  0  0  0  0  0  0  0  0  0
   -8.9532    4.1505    2.0036 Br  0  0  0  0  0  0  0  0  0  0  0  0
   -6.7027    2.7929    3.1115 C   0  0  0  0  0  0  0  0  0  0  0  0
   -5.4245    2.2324    3.0845 C   0  0  0  0  0  0  0  0  0  0  0  0
    6.1064   -0.1751   -2.1588 C   0  0  0  0  0  0  0  0  0  0  0  0
    6.9975   -0.0433   -1.0906 C   0  0  0  0  0  0  0  0  0  0  0  0
    8.7306   -0.1560    0.9082 H   0  0  0  0  0  0  0  0  0  0  0  0
    8.2085   -1.7310    1.5130 H   0  0  0  0  0  0  0  0  0  0  0  0
    7.3342   -0.2561    2.0028 H   0  0  0  0  0  0  0  0  0  0  0  0
    5.8304   -2.5536    0.8890 H   0  0  0  0  0  0  0  0  0  0  0  0
    4.2588   -2.7860   -0.9913 H   0  0  0  0  0  0  0  0  0  0  0  0
    4.5586   -0.8787   -4.1980 H   0  0  0  0  0  0  0  0  0  0  0  0
    3.9070   -2.3488   -3.4675 H   0  0  0  0  0  0  0  0  0  0  0  0
    2.9625    0.4521   -2.9383 H   0  0  0  0  0  0  0  0  0  0  0  0
   -0.2894   -1.7345   -1.2106 H   0  0  0  0  0  0  0  0  0  0  0  0
   -2.2130   -0.1539   -1.6279 H   0  0  0  0  0  0  0  0  0  0  0  0
   -1.2414    1.0889   -0.8323 H   0  0  0  0  0  0  0  0  0  0  0  0
   -1.2306   -0.3532    1.2925 H   0  0  0  0  0  0  0  0  0  0  0  0
   -3.9772   -2.9756    0.9612 H   0  0  0  0  0  0  0  0  0  0  0  0
   -4.1321   -1.9581   -0.4939 H   0  0  0  0  0  0  0  0  0  0  0  0
   -3.9686   -1.0442    2.4196 H   0  0  0  0  0  0  0  0  0  0  0  0
   -5.2087   -0.5962    1.2060 H   0  0  0  0  0  0  0  0  0  0  0  0
   -4.6024    2.9375   -0.1602 H   0  0  0  0  0  0  0  0  0  0  0  0
   -6.8734    3.9248   -0.1070 H   0  0  0  0  0  0  0  0  0  0  0  0
   -7.2829    2.7636    4.0308 H   0  0  0  0  0  0  0  0  0  0  0  0
   -5.0188    1.7756    3.9843 H   0  0  0  0  0  0  0  0  0  0  0  0
    6.1849    0.5093   -2.9997 H   0  0  0  0  0  0  0  0  0  0  0  0
    7.7502    0.7418   -1.1183 H   0  0  0  0  0  0  0  0  0  0  0  0
  1  2  1  0
  2  3  2  0
  3  4  1  0
  4  5  2  0
  5  6  1  0
  6  7  1  0
  7  8  1  0
  8  9  2  0
  8 10  1  0
 10 11  2  0
 10 12  1  0
 12 13  1  0
 13 14  1  0
 14 15  1  0
 15 16  1  0
 16 17  1  0
 17 18  1  0
 18 19  1  0
 19 20  2  0
 19 21  2  0
 19 22  1  0
 22 23  2  0
 23 24  1  0
 24 25  2  0
 25 26  1  0
 25 27  1  0
 27 28  2  0
  5 29  1  0
 29 30  2  0
 30  2  1  0
 18 14  1  0
 28 22  1  0
  1 31  1  0
  1 32  1  0
  1 33  1  0
  3 34  1  0
  4 35  1  0
  6 36  1  0
  6 37  1  0
  7 38  1  0
 12 39  1  0
 13 40  1  0
 13 41  1  0
 14 42  1  0
 16 43  1  0
 16 44  1  0
 17 45  1  0
 17 46  1  0
 23 47  1  0
 24 48  1  0
 27 49  1  0
 28 50  1  0
 29 51  1  0
 30 52  1  0
M  END
$$$$
