
     RDKit          3D

 36 37  0  0  0  0  0  0  0  0999 V2000
   -0.3710    1.6014    0.9571 O   0  0  0  0  0  0  0  0  0  0  0  0
    0.2444    1.2672   -0.0530 C   0  0  0  0  0  0  0  0  0  0  0  0
   -0.4263    1.0527   -1.4143 C   0  0  0  0  0  0  0  0  0  0  0  0
   -1.8425    0.9214   -1.3139 O   0  0  0  0  0  0  0  0  0  0  0  0
   -2.2389   -0.2588   -0.7829 C   0  0  0  0  0  0  0  0  0  0  0  0
   -1.5339   -1.2019   -0.4676 O   0  0  0  0  0  0  0  0  0  0  0  0
   -3.6846   -0.2057   -0.5307 C   0  0  0  0  0  0  0  0  0  0  0  0
   -4.1025   -0.3485    0.7996 C   0  0  0  0  0  0  0  0  0  0  0  0
   -5.4613   -0.3071    1.0987 C   0  0  0  0  0  0  0  0  0  0  0  0
   -5.9846   -0.4725    2.7283 Cl  0  0  0  0  0  0  0  0  0  0  0  0
   -6.4032   -0.1329    0.0849 C   0  0  0  0  0  0  0  0  0  0  0  0
   -5.9837   -0.0055   -1.2426 C   0  0  0  0  0  0  0  0  0  0  0  0
   -4.6214   -0.0455   -1.5567 C   0  0  0  0  0  0  0  0  0  0  0  0
   -4.1756    0.0617   -3.2209 Cl  0  0  0  0  0  0  0  0  0  0  0  0
    1.6109    1.0761   -0.0669 N   0  0  0  0  0  0  0  0  0  0  0  0
    2.3722    1.1007    1.1691 C   0  0  0  0  0  0  0  0  0  0  0  0
    3.8847    0.9675    0.9466 C   0  0  0  0  0  0  0  0  0  0  0  0
    4.2911   -0.3845    0.5869 N   0  0  0  0  0  0  0  0  0  0  0  0
    4.7539   -1.3393    1.4632 C   0  0  0  0  0  0  0  0  0  0  0  0
    5.0202   -1.0464    2.7659 O   0  0  0  0  0  0  0  0  0  0  0  0
    4.9168   -2.5549    0.9332 C   0  0  0  0  0  0  0  0  0  0  0  0
    4.4989   -2.5771   -0.7495 S   0  0  0  0  0  0  0  0  0  0  0  0
    4.0322   -0.8728   -0.6912 C   0  0  0  0  0  0  0  0  0  0  0  0
    3.5246   -0.2691   -1.6251 O   0  0  0  0  0  0  0  0  0  0  0  0
   -0.2222    1.9379   -2.0259 H   0  0  0  0  0  0  0  0  0  0  0  0
    0.0053    0.1857   -1.9285 H   0  0  0  0  0  0  0  0  0  0  0  0
   -3.3663   -0.4826    1.5900 H   0  0  0  0  0  0  0  0  0  0  0  0
   -7.4647   -0.1017    0.3199 H   0  0  0  0  0  0  0  0  0  0  0  0
   -6.7264    0.1174   -2.0279 H   0  0  0  0  0  0  0  0  0  0  0  0
    2.0216    0.6162   -0.8804 H   0  0  0  0  0  0  0  0  0  0  0  0
    2.1585    2.0553    1.6633 H   0  0  0  0  0  0  0  0  0  0  0  0
    1.9971    0.2988    1.8153 H   0  0  0  0  0  0  0  0  0  0  0  0
    4.4178    1.2896    1.8455 H   0  0  0  0  0  0  0  0  0  0  0  0
    4.1949    1.6372    0.1346 H   0  0  0  0  0  0  0  0  0  0  0  0
    5.3973   -0.1539    2.7985 H   0  0  0  0  0  0  0  0  0  0  0  0
    5.2666   -3.4264    1.4683 H   0  0  0  0  0  0  0  0  0  0  0  0
  1  2  2  0
  2  3  1  0
  3  4  1  0
  4  5  1  0
  5  6  2  0
  5  7  1  0
  7  8  2  0
  8  9  1  0
  9 10  1  0
  9 11  2  0
 11 12  1  0
 12 13  2  0
 13 14  1  0
  2 15  1  0
 15 16  1  0
 16 17  1  0
 17 18  1  0
 18 19  1  0
 19 20  1  0
 19 21  2  0
 21 22  1  0
 22 23  1  0
 23 24  2  0
 13  7  1  0
 23 18  1  0
  3 25  1  0
  3 26  1  0
  8 27  1  0
 11 28  1  0
 12 29  1  0
 15 30  1  0
 16 31  1  0
 16 32  1  0
 17 33  1  0
 17 34  1  0
 20 35  1  0
 21 36  1  0
M  END
$$$$
