
     RDKit          3D

 51 54  0  0  0  0  0  0  0  0999 V2000
   -6.8196    1.3815   -1.9730 C   0  0  0  0  0  0  0  0  0  0  0  0
   -6.4094    0.0194   -1.4287 C   0  0  0  0  0  0  0  0  0  0  0  0
   -5.7508    0.1410   -0.1250 N   0  0  0  0  0  0  0  0  0  0  0  0
   -6.6323    0.0808    1.0478 C   0  0  0  0  0  0  0  0  0  0  0  0
   -6.8373   -1.3566    1.5104 C   0  0  0  0  0  0  0  0  0  0  0  0
   -4.3725    0.2914   -0.0104 C   0  0  0  0  0  0  0  0  0  0  0  0
   -3.6992    0.1344    1.2171 C   0  0  0  0  0  0  0  0  0  0  0  0
   -2.3067    0.2840    1.3492 C   0  0  0  0  0  0  0  0  0  0  0  0
   -1.5357    0.6144    0.2469 C   0  0  0  0  0  0  0  0  0  0  0  0
   -0.0983    0.8090    0.3204 C   0  0  0  0  0  0  0  0  0  0  0  0
    0.5805    1.2367   -0.7575 C   0  0  0  0  0  0  0  0  0  0  0  0
    1.9844    1.4487   -0.6404 C   0  0  0  0  0  0  0  0  0  0  0  0
    2.8730    0.5529   -0.2389 N   0  0  0  0  0  0  0  0  0  0  0  0
    4.1529    1.0927   -0.2267 C   0  0  0  0  0  0  0  0  0  0  0  0
    5.3129    0.2680    0.1004 C   0  0  0  0  0  0  0  0  0  0  0  0
    5.2419   -1.1197   -0.0778 C   0  0  0  0  0  0  0  0  0  0  0  0
    6.3449   -1.9417    0.1895 C   0  0  0  0  0  0  0  0  0  0  0  0
    7.5366   -1.3881    0.6502 C   0  0  0  0  0  0  0  0  0  0  0  0
    8.6870   -2.0701    0.9365 O   0  0  0  0  0  0  0  0  0  0  0  0
    8.7031   -3.4562    0.6196 C   0  0  0  0  0  0  0  0  0  0  0  0
    7.6065   -0.0117    0.8570 C   0  0  0  0  0  0  0  0  0  0  0  0
    6.5073    0.8130    0.5836 C   0  0  0  0  0  0  0  0  0  0  0  0
    4.2160    2.4276   -0.5669 C   0  0  0  0  0  0  0  0  0  0  0  0
    2.6534    3.0218   -0.9314 S   0  0  0  0  0  0  0  0  0  0  0  0
   -0.0950    1.4532   -2.0612 C   0  0  0  0  0  0  0  0  0  0  0  0
    0.4918    1.8597   -3.0602 O   0  0  0  0  0  0  0  0  0  0  0  0
   -1.4572    1.1631   -2.1120 O   0  0  0  0  0  0  0  0  0  0  0  0
   -2.1778    0.7839   -0.9693 C   0  0  0  0  0  0  0  0  0  0  0  0
   -3.5591    0.6141   -1.1102 C   0  0  0  0  0  0  0  0  0  0  0  0
   -7.3153    1.2660   -2.9411 H   0  0  0  0  0  0  0  0  0  0  0  0
   -5.9599    2.0451   -2.1137 H   0  0  0  0  0  0  0  0  0  0  0  0
   -7.5150    1.8849   -1.2910 H   0  0  0  0  0  0  0  0  0  0  0  0
   -7.3112   -0.5978   -1.3269 H   0  0  0  0  0  0  0  0  0  0  0  0
   -5.7782   -0.5141   -2.1495 H   0  0  0  0  0  0  0  0  0  0  0  0
   -6.2601    0.7039    1.8692 H   0  0  0  0  0  0  0  0  0  0  0  0
   -7.6121    0.5068    0.7939 H   0  0  0  0  0  0  0  0  0  0  0  0
   -7.5050   -1.3791    2.3796 H   0  0  0  0  0  0  0  0  0  0  0  0
   -5.8913   -1.8344    1.7942 H   0  0  0  0  0  0  0  0  0  0  0  0
   -7.2896   -1.9661    0.7210 H   0  0  0  0  0  0  0  0  0  0  0  0
   -4.2453   -0.1339    2.1193 H   0  0  0  0  0  0  0  0  0  0  0  0
   -1.8518    0.1403    2.3264 H   0  0  0  0  0  0  0  0  0  0  0  0
    0.3978    0.6263    1.2676 H   0  0  0  0  0  0  0  0  0  0  0  0
    4.3216   -1.5735   -0.4416 H   0  0  0  0  0  0  0  0  0  0  0  0
    6.2354   -3.0054    0.0243 H   0  0  0  0  0  0  0  0  0  0  0  0
    9.7089   -3.8357    0.8255 H   0  0  0  0  0  0  0  0  0  0  0  0
    8.4968   -3.6226   -0.4411 H   0  0  0  0  0  0  0  0  0  0  0  0
    8.0008   -4.0076    1.2518 H   0  0  0  0  0  0  0  0  0  0  0  0
    8.5287    0.4274    1.2289 H   0  0  0  0  0  0  0  0  0  0  0  0
    6.6066    1.8763    0.7640 H   0  0  0  0  0  0  0  0  0  0  0  0
    5.0773    3.0755   -0.6437 H   0  0  0  0  0  0  0  0  0  0  0  0
   -3.9804    0.7702   -2.1009 H   0  0  0  0  0  0  0  0  0  0  0  0
  1  2  1  0
  2  3  1  0
  3  4  1  0
  4  5  1  0
  3  6  1  0
  6  7  2  0
  7  8  1  0
  8  9  2  0
  9 10  1  0
 10 11  2  0
 11 12  1  0
 12 13  2  0
 13 14  1  0
 14 15  1  0
 15 16  2  0
 16 17  1  0
 17 18  2  0
 18 19  1  0
 19 20  1  0
 18 21  1  0
 21 22  2  0
 14 23  2  0
 23 24  1  0
 11 25  1  0
 25 26  2  0
 25 27  1  0
 27 28  1  0
 28 29  2  0
 29  6  1  0
 28  9  1  0
 24 12  1  0
 22 15  1  0
  1 30  1  0
  1 31  1  0
  1 32  1  0
  2 33  1  0
  2 34  1  0
  4 35  1  0
  4 36  1  0
  5 37  1  0
  5 38  1  0
  5 39  1  0
  7 40  1  0
  8 41  1  0
 10 42  1  0
 16 43  1  0
 17 44  1  0
 20 45  1  0
 20 46  1  0
 20 47  1  0
 21 48  1  0
 22 49  1  0
 23 50  1  0
 29 51  1  0
M  END
$$$$
