
     RDKit          3D

 47 48  0  0  0  0  0  0  0  0999 V2000
    6.8228   -1.0804    0.8064 C   0  0  0  0  0  0  0  0  0  0  0  0
    7.1070    0.1102    0.0872 O   0  0  0  0  0  0  0  0  0  0  0  0
    6.0791    0.6990   -0.6011 C   0  0  0  0  0  0  0  0  0  0  0  0
    4.7711    0.2057   -0.6708 C   0  0  0  0  0  0  0  0  0  0  0  0
    3.7812    0.8884   -1.3972 C   0  0  0  0  0  0  0  0  0  0  0  0
    2.4278    0.3153   -1.4649 C   0  0  0  0  0  0  0  0  0  0  0  0
    1.3146    1.0608   -1.4026 C   0  0  0  0  0  0  0  0  0  0  0  0
   -0.0742    0.5213   -1.4596 C   0  0  0  0  0  0  0  0  0  0  0  0
   -1.0016    1.3208   -1.3405 O   0  0  0  0  0  0  0  0  0  0  0  0
   -0.2889   -0.9611   -1.6287 C   0  0  0  0  0  0  0  0  0  0  0  0
   -1.7283   -1.3550   -1.8442 C   0  0  0  0  0  0  0  0  0  0  0  0
   -2.1220   -1.7350   -2.9490 O   0  0  0  0  0  0  0  0  0  0  0  0
   -2.7072   -1.3353   -0.7215 C   0  0  0  0  0  0  0  0  0  0  0  0
   -2.4163   -1.0318    0.5519 C   0  0  0  0  0  0  0  0  0  0  0  0
   -3.4339   -1.0261    1.6116 C   0  0  0  0  0  0  0  0  0  0  0  0
   -3.1497   -1.6629    2.8274 C   0  0  0  0  0  0  0  0  0  0  0  0
   -4.0852   -1.6562    3.8613 C   0  0  0  0  0  0  0  0  0  0  0  0
   -5.2956   -1.0019    3.6770 C   0  0  0  0  0  0  0  0  0  0  0  0
   -6.1965   -1.0090    4.7071 O   0  0  0  0  0  0  0  0  0  0  0  0
   -5.5997   -0.3441    2.4802 C   0  0  0  0  0  0  0  0  0  0  0  0
   -6.8284    0.2648    2.4512 O   0  0  0  0  0  0  0  0  0  0  0  0
   -7.1685    0.9565    1.2545 C   0  0  0  0  0  0  0  0  0  0  0  0
   -4.6594   -0.3558    1.4485 C   0  0  0  0  0  0  0  0  0  0  0  0
    4.1224    2.0628   -2.0801 C   0  0  0  0  0  0  0  0  0  0  0  0
    5.4235    2.5641   -2.0194 C   0  0  0  0  0  0  0  0  0  0  0  0
    6.3903    1.8837   -1.2815 C   0  0  0  0  0  0  0  0  0  0  0  0
    7.6675    2.3740   -1.2207 O   0  0  0  0  0  0  0  0  0  0  0  0
    6.0740   -0.9027    1.5854 H   0  0  0  0  0  0  0  0  0  0  0  0
    7.7451   -1.4022    1.2996 H   0  0  0  0  0  0  0  0  0  0  0  0
    6.5093   -1.8838    0.1317 H   0  0  0  0  0  0  0  0  0  0  0  0
    4.4986   -0.7102   -0.1566 H   0  0  0  0  0  0  0  0  0  0  0  0
    2.3925   -0.7670   -1.5514 H   0  0  0  0  0  0  0  0  0  0  0  0
    1.3551    2.1409   -1.2884 H   0  0  0  0  0  0  0  0  0  0  0  0
    0.1068   -1.5013   -0.7627 H   0  0  0  0  0  0  0  0  0  0  0  0
    0.2671   -1.2963   -2.5127 H   0  0  0  0  0  0  0  0  0  0  0  0
   -3.7154   -1.6056   -1.0241 H   0  0  0  0  0  0  0  0  0  0  0  0
   -1.4130   -0.7777    0.8776 H   0  0  0  0  0  0  0  0  0  0  0  0
   -2.2032   -2.1767    2.9775 H   0  0  0  0  0  0  0  0  0  0  0  0
   -3.8737   -2.1546    4.8025 H   0  0  0  0  0  0  0  0  0  0  0  0
   -6.9611   -0.4990    4.3753 H   0  0  0  0  0  0  0  0  0  0  0  0
   -7.2105    0.2714    0.4013 H   0  0  0  0  0  0  0  0  0  0  0  0
   -8.1673    1.3830    1.3884 H   0  0  0  0  0  0  0  0  0  0  0  0
   -6.4757    1.7833    1.0664 H   0  0  0  0  0  0  0  0  0  0  0  0
   -4.8508    0.1599    0.5128 H   0  0  0  0  0  0  0  0  0  0  0  0
    3.3850    2.5958   -2.6763 H   0  0  0  0  0  0  0  0  0  0  0  0
    5.6647    3.4772   -2.5548 H   0  0  0  0  0  0  0  0  0  0  0  0
    7.7207    3.1929   -1.7367 H   0  0  0  0  0  0  0  0  0  0  0  0
  1  2  1  0
  2  3  1  0
  3  4  2  0
  4  5  1  0
  5  6  1  0
  6  7  2  3
  7  8  1  0
  8  9  2  0
  8 10  1  0
 10 11  1  0
 11 12  2  0
 11 13  1  0
 13 14  2  3
 14 15  1  0
 15 16  2  0
 16 17  1  0
 17 18  2  0
 18 19  1  0
 18 20  1  0
 20 21  1  0
 21 22  1  0
 20 23  2  0
  5 24  2  0
 24 25  1  0
 25 26  2  0
 26 27  1  0
 26  3  1  0
 23 15  1  0
  1 28  1  0
  1 29  1  0
  1 30  1  0
  4 31  1  0
  6 32  1  0
  7 33  1  0
 10 34  1  0
 10 35  1  0
 13 36  1  0
 14 37  1  0
 16 38  1  0
 17 39  1  0
 19 40  1  0
 22 41  1  0
 22 42  1  0
 22 43  1  0
 23 44  1  0
 24 45  1  0
 25 46  1  0
 27 47  1  0
M  END
$$$$
