
     RDKit          3D

 59 62  0  0  0  0  0  0  0  0999 V2000
   -9.3141    0.3834    2.4541 C   0  0  0  0  0  0  0  0  0  0  0  0
   -8.0622    0.8757    1.7887 C   0  0  0  0  0  0  0  0  0  0  0  0
   -7.1755    1.7012    2.4988 C   0  0  0  0  0  0  0  0  0  0  0  0
   -6.0221    2.1935    1.8852 C   0  0  0  0  0  0  0  0  0  0  0  0
   -5.7419    1.8471    0.5611 C   0  0  0  0  0  0  0  0  0  0  0  0
   -4.5401    2.4119   -0.0889 C   0  0  0  0  0  0  0  0  0  0  0  0
   -4.4194    3.6335   -0.1113 O   0  0  0  0  0  0  0  0  0  0  0  0
   -3.6099    1.5481   -0.6497 N   0  0  0  0  0  0  0  0  0  0  0  0
   -2.4837    2.1392   -1.3817 C   0  0  0  0  0  0  0  0  0  0  0  0
   -1.6134    1.0782   -2.0727 C   0  0  0  0  0  0  0  0  0  0  0  0
   -1.0789    0.1163   -1.0849 N   0  0  0  0  0  0  0  0  0  0  0  0
    0.2648    0.1268   -0.6970 C   0  0  0  0  0  0  0  0  0  0  0  0
    1.1970    1.0695   -1.1510 C   0  0  0  0  0  0  0  0  0  0  0  0
    2.5458    1.0523   -0.7503 C   0  0  0  0  0  0  0  0  0  0  0  0
    3.0138    0.0793    0.1233 C   0  0  0  0  0  0  0  0  0  0  0  0
    4.3404   -0.0011    0.5845 N   0  0  0  0  0  0  0  0  0  0  0  0
    5.4255    0.7626    0.1992 C   0  0  0  0  0  0  0  0  0  0  0  0
    5.4124    1.6633   -0.6375 O   0  0  0  0  0  0  0  0  0  0  0  0
    6.7184    0.4496    0.9439 C   0  0  0  0  0  0  0  0  0  0  0  0
    6.8417   -1.2776    1.5235 S   0  0  0  0  0  0  0  0  0  0  0  0
    7.3449   -2.1890    0.0702 C   0  0  0  0  0  0  0  0  0  0  0  0
    7.2167   -1.7407   -1.2493 C   0  0  0  0  0  0  0  0  0  0  0  0
    7.6162   -2.5511   -2.3208 C   0  0  0  0  0  0  0  0  0  0  0  0
    8.1440   -3.8160   -2.0804 C   0  0  0  0  0  0  0  0  0  0  0  0
    8.6193   -4.8162   -3.3983 Cl  0  0  0  0  0  0  0  0  0  0  0  0
    8.2789   -4.2777   -0.7754 C   0  0  0  0  0  0  0  0  0  0  0  0
    7.8788   -3.4679    0.2923 C   0  0  0  0  0  0  0  0  0  0  0  0
    2.1146   -0.8799    0.5805 C   0  0  0  0  0  0  0  0  0  0  0  0
    0.7734   -0.8584    0.1677 C   0  0  0  0  0  0  0  0  0  0  0  0
   -2.0596   -0.3305   -0.0584 C   0  0  0  0  0  0  0  0  0  0  0  0
   -3.5088    0.1069   -0.3700 C   0  0  0  0  0  0  0  0  0  0  0  0
   -6.6239    1.0353   -0.1619 C   0  0  0  0  0  0  0  0  0  0  0  0
   -7.7804    0.5510    0.4543 C   0  0  0  0  0  0  0  0  0  0  0  0
   -9.8689   -0.3059    1.8086 H   0  0  0  0  0  0  0  0  0  0  0  0
   -9.0655   -0.1493    3.3781 H   0  0  0  0  0  0  0  0  0  0  0  0
   -9.9691    1.2266    2.6920 H   0  0  0  0  0  0  0  0  0  0  0  0
   -7.3911    1.9795    3.5298 H   0  0  0  0  0  0  0  0  0  0  0  0
   -5.3505    2.8510    2.4311 H   0  0  0  0  0  0  0  0  0  0  0  0
   -2.8830    2.8433   -2.1208 H   0  0  0  0  0  0  0  0  0  0  0  0
   -1.8866    2.7133   -0.6620 H   0  0  0  0  0  0  0  0  0  0  0  0
   -0.8486    1.5546   -2.6908 H   0  0  0  0  0  0  0  0  0  0  0  0
   -2.2321    0.5125   -2.7826 H   0  0  0  0  0  0  0  0  0  0  0  0
    0.9160    1.8755   -1.8202 H   0  0  0  0  0  0  0  0  0  0  0  0
    3.1950    1.8269   -1.1451 H   0  0  0  0  0  0  0  0  0  0  0  0
    4.5486   -0.7567    1.2311 H   0  0  0  0  0  0  0  0  0  0  0  0
    6.7528    1.1033    1.8212 H   0  0  0  0  0  0  0  0  0  0  0  0
    7.5778    0.6930    0.3110 H   0  0  0  0  0  0  0  0  0  0  0  0
    6.7997   -0.7704   -1.4921 H   0  0  0  0  0  0  0  0  0  0  0  0
    7.5036   -2.1873   -3.3400 H   0  0  0  0  0  0  0  0  0  0  0  0
    8.6895   -5.2645   -0.5801 H   0  0  0  0  0  0  0  0  0  0  0  0
    7.9872   -3.8526    1.3060 H   0  0  0  0  0  0  0  0  0  0  0  0
    2.4331   -1.6661    1.2574 H   0  0  0  0  0  0  0  0  0  0  0  0
    0.1320   -1.6594    0.5272 H   0  0  0  0  0  0  0  0  0  0  0  0
   -1.7889    0.0944    0.9183 H   0  0  0  0  0  0  0  0  0  0  0  0
   -2.0421   -1.4243    0.0211 H   0  0  0  0  0  0  0  0  0  0  0  0
   -3.8711   -0.4140   -1.2639 H   0  0  0  0  0  0  0  0  0  0  0  0
   -4.1520   -0.1779    0.4677 H   0  0  0  0  0  0  0  0  0  0  0  0
   -6.4270    0.8010   -1.2063 H   0  0  0  0  0  0  0  0  0  0  0  0
   -8.4714   -0.0652   -0.1196 H   0  0  0  0  0  0  0  0  0  0  0  0
  1  2  1  0
  2  3  2  0
  3  4  1  0
  4  5  2  0
  5  6  1  0
  6  7  2  0
  6  8  1  0
  8  9  1  0
  9 10  1  0
 10 11  1  0
 11 12  1  0
 12 13  2  0
 13 14  1  0
 14 15  2  0
 15 16  1  0
 16 17  1  0
 17 18  2  0
 17 19  1  0
 19 20  1  0
 20 21  1  0
 21 22  2  0
 22 23  1  0
 23 24  2  0
 24 25  1  0
 24 26  1  0
 26 27  2  0
 15 28  1  0
 28 29  2  0
 11 30  1  0
 30 31  1  0
  5 32  1  0
 32 33  2  0
 33  2  1  0
 31  8  1  0
 29 12  1  0
 27 21  1  0
  1 34  1  0
  1 35  1  0
  1 36  1  0
  3 37  1  0
  4 38  1  0
  9 39  1  0
  9 40  1  0
 10 41  1  0
 10 42  1  0
 13 43  1  0
 14 44  1  0
 16 45  1  0
 19 46  1  0
 19 47  1  0
 22 48  1  0
 23 49  1  0
 26 50  1  0
 27 51  1  0
 28 52  1  0
 29 53  1  0
 30 54  1  0
 30 55  1  0
 31 56  1  0
 31 57  1  0
 32 58  1  0
 33 59  1  0
M  END
$$$$
