
     RDKit          3D

 49 51  0  0  0  0  0  0  0  0999 V2000
    2.4400    2.3500    3.4211 C   0  0  0  0  0  0  0  0  0  0  0  0
    2.7545    1.3462    2.4668 O   0  0  0  0  0  0  0  0  0  0  0  0
    2.4085    1.5824    1.1593 C   0  0  0  0  0  0  0  0  0  0  0  0
    1.6289    2.6647    0.7328 C   0  0  0  0  0  0  0  0  0  0  0  0
    1.3121    2.8175   -0.6182 C   0  0  0  0  0  0  0  0  0  0  0  0
    1.7823    1.8859   -1.5441 C   0  0  0  0  0  0  0  0  0  0  0  0
    1.3704    2.0606   -3.2657 S   0  0  0  0  0  6  0  0  0  0  0  0
    0.6392    3.2991   -3.4319 O   0  0  0  0  0  0  0  0  0  0  0  0
    2.5729    1.7905   -4.0248 O   0  0  0  0  0  0  0  0  0  0  0  0
    0.3224    0.7640   -3.5528 N   0  0  0  0  0  0  0  0  0  0  0  0
   -0.7618    0.5525   -2.6529 C   0  0  0  0  0  0  0  0  0  0  0  0
   -1.7986    1.4673   -2.5629 C   0  0  0  0  0  0  0  0  0  0  0  0
   -2.7994    1.2646   -1.6208 C   0  0  0  0  0  0  0  0  0  0  0  0
   -2.7590    0.1547   -0.7540 C   0  0  0  0  0  0  0  0  0  0  0  0
   -1.7208   -0.8013   -0.8483 C   0  0  0  0  0  0  0  0  0  0  0  0
   -0.7285   -0.5670   -1.8122 C   0  0  0  0  0  0  0  0  0  0  0  0
   -1.7039   -1.9550    0.0330 N   0  0  0  0  0  0  0  0  0  0  0  0
   -0.7773   -3.0111   -0.0987 C   0  0  0  0  0  0  0  0  0  0  0  0
   -0.9922   -4.2171    0.7929 C   0  0  0  0  0  0  0  0  0  0  0  0
    0.1848   -3.0441   -0.8676 O   0  0  0  0  0  0  0  0  0  0  0  0
   -2.8038   -2.0701    1.0032 C   0  0  0  0  0  0  0  0  0  0  0  0
   -3.3844   -0.7441    1.4543 C   0  0  0  0  0  0  0  0  0  0  0  0
   -3.8757    0.0143    0.2437 C   0  0  0  0  0  0  0  0  0  0  0  0
    2.5761    0.8082   -1.1398 C   0  0  0  0  0  0  0  0  0  0  0  0
    2.8705    0.6394    0.2162 C   0  0  0  0  0  0  0  0  0  0  0  0
    3.6264   -0.3959    0.7096 O   0  0  0  0  0  0  0  0  0  0  0  0
    3.7218   -1.5609   -0.1010 C   0  0  0  0  0  0  0  0  0  0  0  0
    2.9000    3.3082    3.1576 H   0  0  0  0  0  0  0  0  0  0  0  0
    1.3565    2.4503    3.5424 H   0  0  0  0  0  0  0  0  0  0  0  0
    2.8537    2.0369    4.3845 H   0  0  0  0  0  0  0  0  0  0  0  0
    1.2452    3.4026    1.4295 H   0  0  0  0  0  0  0  0  0  0  0  0
    0.6986    3.6583   -0.9349 H   0  0  0  0  0  0  0  0  0  0  0  0
    0.8285   -0.0609   -3.8737 H   0  0  0  0  0  0  0  0  0  0  0  0
   -1.8359    2.3345   -3.2171 H   0  0  0  0  0  0  0  0  0  0  0  0
   -3.6123    1.9854   -1.5546 H   0  0  0  0  0  0  0  0  0  0  0  0
    0.1181   -1.2302   -1.9258 H   0  0  0  0  0  0  0  0  0  0  0  0
   -0.7372   -3.9709    1.8267 H   0  0  0  0  0  0  0  0  0  0  0  0
   -0.3315   -5.0270    0.4657 H   0  0  0  0  0  0  0  0  0  0  0  0
   -2.0181   -4.5856    0.7169 H   0  0  0  0  0  0  0  0  0  0  0  0
   -3.5780   -2.6973    0.5435 H   0  0  0  0  0  0  0  0  0  0  0  0
   -2.4540   -2.5894    1.9003 H   0  0  0  0  0  0  0  0  0  0  0  0
   -4.2097   -0.9113    2.1553 H   0  0  0  0  0  0  0  0  0  0  0  0
   -2.6184   -0.1626    1.9835 H   0  0  0  0  0  0  0  0  0  0  0  0
   -4.2335    0.9999    0.5641 H   0  0  0  0  0  0  0  0  0  0  0  0
   -4.7144   -0.5093   -0.2306 H   0  0  0  0  0  0  0  0  0  0  0  0
    2.9515    0.1188   -1.8887 H   0  0  0  0  0  0  0  0  0  0  0  0
    4.3910   -1.3885   -0.9498 H   0  0  0  0  0  0  0  0  0  0  0  0
    2.7367   -1.8998   -0.4377 H   0  0  0  0  0  0  0  0  0  0  0  0
    4.1576   -2.3577    0.5093 H   0  0  0  0  0  0  0  0  0  0  0  0
  1  2  1  0
  2  3  1  0
  3  4  2  0
  4  5  1  0
  5  6  2  0
  6  7  1  0
  7  8  2  0
  7  9  2  0
  7 10  1  0
 10 11  1  0
 11 12  2  0
 12 13  1  0
 13 14  2  0
 14 15  1  0
 15 16  2  0
 15 17  1  0
 17 18  1  0
 18 19  1  0
 18 20  2  0
 17 21  1  0
 21 22  1  0
 22 23  1  0
  6 24  1  0
 24 25  2  0
 25 26  1  0
 26 27  1  0
 25  3  1  0
 16 11  1  0
 23 14  1  0
  1 28  1  0
  1 29  1  0
  1 30  1  0
  4 31  1  0
  5 32  1  0
 10 33  1  0
 12 34  1  0
 13 35  1  0
 16 36  1  0
 19 37  1  0
 19 38  1  0
 19 39  1  0
 21 40  1  0
 21 41  1  0
 22 42  1  0
 22 43  1  0
 23 44  1  0
 23 45  1  0
 24 46  1  0
 27 47  1  0
 27 48  1  0
 27 49  1  0
M  END
$$$$
