
     RDKit          3D

 43 43  0  0  0  0  0  0  0  0999 V2000
   -5.7030    1.5342    2.1169 C   0  0  0  0  0  0  0  0  0  0  0  0
   -4.8172    2.1015    1.0529 C   0  0  0  0  0  0  0  0  0  0  0  0
   -5.5605    3.3665    0.1215 Cl  0  0  0  0  0  0  0  0  0  0  0  0
   -3.5609    1.7399    0.7405 C   0  0  0  0  0  0  0  0  0  0  0  0
   -2.7172    0.7095    1.4194 C   0  0  0  0  0  0  0  0  0  0  0  0
   -2.4753   -0.5795    0.6087 N   0  0  0  0  0  4  0  0  0  0  0  0
   -1.5633   -1.4960    1.4234 C   0  0  0  0  0  0  0  0  0  0  0  0
   -3.7934   -1.2999    0.3607 C   0  0  0  0  0  0  0  0  0  0  0  0
   -1.7998   -0.2906   -0.7746 C   0  0  0  0  0  0  0  0  0  0  0  0
   -0.4379    0.3923   -0.7076 C   0  0  0  0  0  0  0  0  0  0  0  0
   -0.2678    1.5201   -0.2688 O   0  0  0  0  0  0  0  0  0  0  0  0
    0.5386   -0.4571   -1.1167 O   0  0  0  0  0  0  0  0  0  0  0  0
    1.8771    0.0760   -1.0685 C   0  0  0  0  0  0  0  0  0  0  0  0
    2.8551   -1.0948   -1.1619 C   0  0  0  0  0  0  0  0  0  0  0  0
    4.2911   -0.6466   -1.1387 C   0  0  0  0  0  0  0  0  0  0  0  0
    5.0304   -0.5666   -2.3267 C   0  0  0  0  0  0  0  0  0  0  0  0
    6.3610   -0.1449   -2.3045 C   0  0  0  0  0  0  0  0  0  0  0  0
    6.9633    0.2044   -1.0976 C   0  0  0  0  0  0  0  0  0  0  0  0
    6.2369    0.1305    0.0887 C   0  0  0  0  0  0  0  0  0  0  0  0
    4.9068   -0.2931    0.0700 C   0  0  0  0  0  0  0  0  0  0  0  0
   -5.8223    2.2519    2.9348 H   0  0  0  0  0  0  0  0  0  0  0  0
   -5.3102    0.6045    2.5369 H   0  0  0  0  0  0  0  0  0  0  0  0
   -6.6952    1.2996    1.7128 H   0  0  0  0  0  0  0  0  0  0  0  0
   -3.0565    2.2970   -0.0501 H   0  0  0  0  0  0  0  0  0  0  0  0
   -3.1527    0.3932    2.3737 H   0  0  0  0  0  0  0  0  0  0  0  0
   -1.7382    1.1374    1.6621 H   0  0  0  0  0  0  0  0  0  0  0  0
   -1.3432   -2.3866    0.8242 H   0  0  0  0  0  0  0  0  0  0  0  0
   -0.6438   -0.9561    1.6602 H   0  0  0  0  0  0  0  0  0  0  0  0
   -2.0863   -1.7759    2.3461 H   0  0  0  0  0  0  0  0  0  0  0  0
   -3.5778   -2.2412   -0.1536 H   0  0  0  0  0  0  0  0  0  0  0  0
   -4.2716   -1.4960    1.3249 H   0  0  0  0  0  0  0  0  0  0  0  0
   -4.4316   -0.6704   -0.2680 H   0  0  0  0  0  0  0  0  0  0  0  0
   -1.7095   -1.2565   -1.2877 H   0  0  0  0  0  0  0  0  0  0  0  0
   -2.4838    0.3322   -1.3594 H   0  0  0  0  0  0  0  0  0  0  0  0
    2.0114    0.7568   -1.9195 H   0  0  0  0  0  0  0  0  0  0  0  0
    2.0342    0.6318   -0.1356 H   0  0  0  0  0  0  0  0  0  0  0  0
    2.6743   -1.7996   -0.3396 H   0  0  0  0  0  0  0  0  0  0  0  0
    2.6508   -1.6704   -2.0741 H   0  0  0  0  0  0  0  0  0  0  0  0
    4.5823   -0.8392   -3.2803 H   0  0  0  0  0  0  0  0  0  0  0  0
    6.9323   -0.0936   -3.2302 H   0  0  0  0  0  0  0  0  0  0  0  0
    8.0011    0.5292   -1.0816 H   0  0  0  0  0  0  0  0  0  0  0  0
    6.7109    0.3976    1.0308 H   0  0  0  0  0  0  0  0  0  0  0  0
    4.3612   -0.3515    1.0079 H   0  0  0  0  0  0  0  0  0  0  0  0
  1  2  1  0
  2  3  1  0
  2  4  2  3
  4  5  1  0
  5  6  1  0
  6  7  1  0
  6  8  1  0
  6  9  1  0
  9 10  1  0
 10 11  2  0
 10 12  1  0
 12 13  1  0
 13 14  1  0
 14 15  1  0
 15 16  2  0
 16 17  1  0
 17 18  2  0
 18 19  1  0
 19 20  2  0
 20 15  1  0
  1 21  1  0
  1 22  1  0
  1 23  1  0
  4 24  1  0
  5 25  1  0
  5 26  1  0
  7 27  1  0
  7 28  1  0
  7 29  1  0
  8 30  1  0
  8 31  1  0
  8 32  1  0
  9 33  1  0
  9 34  1  0
 13 35  1  0
 13 36  1  0
 14 37  1  0
 14 38  1  0
 16 39  1  0
 17 40  1  0
 18 41  1  0
 19 42  1  0
 20 43  1  0
M  CHG  1   6   1
M  END
$$$$
