
     RDKit          3D

 37 39  0  0  0  0  0  0  0  0999 V2000
   -3.9344   -2.0872    0.7729 O   0  0  0  0  0  0  0  0  0  0  0  0
   -4.2883   -0.9470    0.4889 C   0  0  0  0  0  0  0  0  0  0  0  0
   -3.4133    0.1054    0.2543 N   0  0  0  0  0  0  0  0  0  0  0  0
   -2.0041    0.0683    0.2164 C   0  0  0  0  0  0  0  0  0  0  0  0
   -1.3373    1.2902    0.0824 C   0  0  0  0  0  0  0  0  0  0  0  0
    0.0610    1.3407    0.0309 C   0  0  0  0  0  0  0  0  0  0  0  0
    0.8218    0.1700    0.1077 C   0  0  0  0  0  0  0  0  0  0  0  0
    2.2241    0.3085    0.0478 N   0  0  0  0  0  0  0  0  0  0  0  0
    3.1752   -0.6893    0.1245 C   0  0  0  0  0  0  0  0  0  0  0  0
    2.9573   -1.8911    0.2314 O   0  0  0  0  0  0  0  0  0  0  0  0
    4.6019   -0.2572    0.0029 C   0  0  0  0  0  0  0  0  0  0  0  0
    5.4687   -1.1660   -0.6338 C   0  0  0  0  0  0  0  0  0  0  0  0
    6.8221   -0.8676   -0.8083 C   0  0  0  0  0  0  0  0  0  0  0  0
    7.3237    0.3422   -0.3417 C   0  0  0  0  0  0  0  0  0  0  0  0
    8.9874    0.7186   -0.5583 Cl  0  0  0  0  0  0  0  0  0  0  0  0
    6.4867    1.2508    0.3017 C   0  0  0  0  0  0  0  0  0  0  0  0
    5.1285    0.9532    0.4810 C   0  0  0  0  0  0  0  0  0  0  0  0
    4.1940    2.1319    1.3347 Cl  0  0  0  0  0  0  0  0  0  0  0  0
    0.1568   -1.0475    0.2353 C   0  0  0  0  0  0  0  0  0  0  0  0
   -1.2451   -1.0983    0.2880 C   0  0  0  0  0  0  0  0  0  0  0  0
   -5.6967   -0.5601    0.3955 C   0  0  0  0  0  0  0  0  0  0  0  0
   -6.2945    0.4673   -0.3165 C   0  0  0  0  0  0  0  0  0  0  0  0
   -7.7092    0.5092   -0.1367 C   0  0  0  0  0  0  0  0  0  0  0  0
   -8.1514   -0.4894    0.7000 C   0  0  0  0  0  0  0  0  0  0  0  0
   -6.8707   -1.4730    1.2577 S   0  0  0  0  0  0  0  0  0  0  0  0
   -3.8287    1.0221    0.1760 H   0  0  0  0  0  0  0  0  0  0  0  0
   -1.8903    2.2239    0.0200 H   0  0  0  0  0  0  0  0  0  0  0  0
    0.5417    2.3106   -0.0691 H   0  0  0  0  0  0  0  0  0  0  0  0
    2.5640    1.2595   -0.0268 H   0  0  0  0  0  0  0  0  0  0  0  0
    5.0866   -2.1191   -1.0006 H   0  0  0  0  0  0  0  0  0  0  0  0
    7.4725   -1.5846   -1.3040 H   0  0  0  0  0  0  0  0  0  0  0  0
    6.8947    2.1887    0.6714 H   0  0  0  0  0  0  0  0  0  0  0  0
    0.6940   -1.9890    0.2983 H   0  0  0  0  0  0  0  0  0  0  0  0
   -1.7041   -2.0776    0.3783 H   0  0  0  0  0  0  0  0  0  0  0  0
   -5.7570    1.1539   -0.9587 H   0  0  0  0  0  0  0  0  0  0  0  0
   -8.3702    1.2273   -0.6075 H   0  0  0  0  0  0  0  0  0  0  0  0
   -9.1675   -0.6985    1.0058 H   0  0  0  0  0  0  0  0  0  0  0  0
  1  2  2  0
  2  3  1  0
  3  4  1  0
  4  5  2  0
  5  6  1  0
  6  7  2  0
  7  8  1  0
  8  9  1  0
  9 10  2  0
  9 11  1  0
 11 12  2  0
 12 13  1  0
 13 14  2  0
 14 15  1  0
 14 16  1  0
 16 17  2  0
 17 18  1  0
  7 19  1  0
 19 20  2  0
  2 21  1  0
 21 22  2  0
 22 23  1  0
 23 24  2  0
 24 25  1  0
 20  4  1  0
 25 21  1  0
 17 11  1  0
  3 26  1  0
  5 27  1  0
  6 28  1  0
  8 29  1  0
 12 30  1  0
 13 31  1  0
 16 32  1  0
 19 33  1  0
 20 34  1  0
 22 35  1  0
 23 36  1  0
 24 37  1  0
M  END
$$$$
