
     RDKit          3D

 57 60  0  0  0  0  0  0  0  0999 V2000
   -8.9737    0.0380    2.2766 C   0  0  0  0  0  0  0  0  0  0  0  0
   -7.8601    1.0192    2.6088 C   0  0  0  0  0  0  0  0  0  0  0  0
   -6.6177    0.7585    1.7964 C   0  0  0  0  0  0  0  0  0  0  0  0
   -6.3952    1.4429    0.5983 C   0  0  0  0  0  0  0  0  0  0  0  0
   -5.2456    1.1913   -0.1588 C   0  0  0  0  0  0  0  0  0  0  0  0
   -4.2813    0.2565    0.2566 C   0  0  0  0  0  0  0  0  0  0  0  0
   -3.0628    0.0255   -0.5436 C   0  0  0  0  0  0  0  0  0  0  0  0
   -1.8378   -0.2726    0.0258 C   0  0  0  0  0  0  0  0  0  0  0  0
   -0.7396   -0.4518   -0.8165 C   0  0  0  0  0  0  0  0  0  0  0  0
    0.5569   -0.6944   -0.1468 C   0  0  0  0  0  0  0  0  0  0  0  0
    0.6582   -1.6855    0.5640 O   0  0  0  0  0  0  0  0  0  0  0  0
    1.5027    0.2834   -0.3886 N   0  0  0  0  0  0  0  0  0  0  0  0
    2.7973    0.3731    0.1595 C   0  0  0  0  0  0  0  0  0  0  0  0
    3.2996   -0.5058    1.1219 C   0  0  0  0  0  0  0  0  0  0  0  0
    4.5917   -0.3393    1.6331 C   0  0  0  0  0  0  0  0  0  0  0  0
    5.4003    0.6938    1.1567 C   0  0  0  0  0  0  0  0  0  0  0  0
    7.0274    0.9238    1.8285 S   0  0  0  0  0  6  0  0  0  0  0  0
    7.0372    0.4984    3.2087 O   0  0  0  0  0  0  0  0  0  0  0  0
    7.4611    2.2600    1.4649 O   0  0  0  0  0  0  0  0  0  0  0  0
    7.9725   -0.0925    0.9132 N   0  0  0  0  0  0  0  0  0  0  0  0
    7.9717   -1.4907    0.9958 C   0  0  0  0  0  0  0  0  0  0  0  0
    9.0236   -2.1572    0.1528 C   0  0  0  0  0  0  0  0  0  0  0  0
    7.1667   -2.1302    1.6602 O   0  0  0  0  0  0  0  0  0  0  0  0
    4.9051    1.5916    0.2082 C   0  0  0  0  0  0  0  0  0  0  0  0
    3.6070    1.4281   -0.2865 C   0  0  0  0  0  0  0  0  0  0  0  0
   -0.8689   -0.3810   -2.2190 C   0  0  0  0  0  0  0  0  0  0  0  0
    0.1759   -0.6210   -3.1489 C   0  0  0  0  0  0  0  0  0  0  0  0
   -0.0457   -0.5140   -4.5198 C   0  0  0  0  0  0  0  0  0  0  0  0
   -1.3100   -0.1787   -4.9826 C   0  0  0  0  0  0  0  0  0  0  0  0
   -2.3449    0.0398   -4.0707 C   0  0  0  0  0  0  0  0  0  0  0  0
   -2.1512   -0.0606   -2.6986 C   0  0  0  0  0  0  0  0  0  0  0  0
   -3.2021    0.1534   -1.8882 N   0  0  0  0  0  0  0  0  0  0  0  0
   -4.5312   -0.4398    1.4529 C   0  0  0  0  0  0  0  0  0  0  0  0
   -5.6811   -0.1950    2.2114 C   0  0  0  0  0  0  0  0  0  0  0  0
   -9.2416    0.0832    1.2151 H   0  0  0  0  0  0  0  0  0  0  0  0
   -8.6799   -0.9906    2.5054 H   0  0  0  0  0  0  0  0  0  0  0  0
   -9.8675    0.2739    2.8623 H   0  0  0  0  0  0  0  0  0  0  0  0
   -8.2088    2.0449    2.4330 H   0  0  0  0  0  0  0  0  0  0  0  0
   -7.6187    0.9591    3.6769 H   0  0  0  0  0  0  0  0  0  0  0  0
   -7.1125    2.1761    0.2415 H   0  0  0  0  0  0  0  0  0  0  0  0
   -5.0997    1.7411   -1.0880 H   0  0  0  0  0  0  0  0  0  0  0  0
   -1.7148   -0.3408    1.1023 H   0  0  0  0  0  0  0  0  0  0  0  0
    1.2321    1.0321   -1.0158 H   0  0  0  0  0  0  0  0  0  0  0  0
    2.7041   -1.3256    1.5153 H   0  0  0  0  0  0  0  0  0  0  0  0
    4.9555   -1.0248    2.3978 H   0  0  0  0  0  0  0  0  0  0  0  0
    8.6460    0.4046    0.3392 H   0  0  0  0  0  0  0  0  0  0  0  0
    9.1006   -3.2128    0.4296 H   0  0  0  0  0  0  0  0  0  0  0  0
    8.7470   -2.0835   -0.9024 H   0  0  0  0  0  0  0  0  0  0  0  0
    9.9945   -1.6798    0.3153 H   0  0  0  0  0  0  0  0  0  0  0  0
    5.5084    2.4263   -0.1398 H   0  0  0  0  0  0  0  0  0  0  0  0
    3.2383    2.1398   -1.0216 H   0  0  0  0  0  0  0  0  0  0  0  0
    1.1683   -0.9147   -2.8106 H   0  0  0  0  0  0  0  0  0  0  0  0
    0.7622   -0.7022   -5.2219 H   0  0  0  0  0  0  0  0  0  0  0  0
   -1.5020   -0.0990   -6.0503 H   0  0  0  0  0  0  0  0  0  0  0  0
   -3.3373    0.2890   -4.4418 H   0  0  0  0  0  0  0  0  0  0  0  0
   -3.8397   -1.2040    1.8052 H   0  0  0  0  0  0  0  0  0  0  0  0
   -5.8406   -0.7593    3.1285 H   0  0  0  0  0  0  0  0  0  0  0  0
  1  2  1  0
  2  3  1  0
  3  4  2  0
  4  5  1  0
  5  6  2  0
  6  7  1  0
  7  8  2  0
  8  9  1  0
  9 10  1  0
 10 11  2  0
 10 12  1  0
 12 13  1  0
 13 14  2  0
 14 15  1  0
 15 16  2  0
 16 17  1  0
 17 18  2  0
 17 19  2  0
 17 20  1  0
 20 21  1  0
 21 22  1  0
 21 23  2  0
 16 24  1  0
 24 25  2  0
  9 26  2  0
 26 27  1  0
 27 28  2  0
 28 29  1  0
 29 30  2  0
 30 31  1  0
 31 32  2  0
  6 33  1  0
 33 34  2  0
 34  3  1  0
 32  7  1  0
 25 13  1  0
 31 26  1  0
  1 35  1  0
  1 36  1  0
  1 37  1  0
  2 38  1  0
  2 39  1  0
  4 40  1  0
  5 41  1  0
  8 42  1  0
 12 43  1  0
 14 44  1  0
 15 45  1  0
 20 46  1  0
 22 47  1  0
 22 48  1  0
 22 49  1  0
 24 50  1  0
 25 51  1  0
 27 52  1  0
 28 53  1  0
 29 54  1  0
 30 55  1  0
 33 56  1  0
 34 57  1  0
M  END
$$$$
