
     RDKit          3D

 49 52  0  0  0  0  0  0  0  0999 V2000
   -4.7958    2.6055    1.2097 C   0  0  0  0  0  0  0  0  0  0  0  0
   -3.8668    1.5636    0.6592 C   0  0  0  0  0  0  0  0  0  0  0  0
   -4.3069    0.2493    0.4643 C   0  0  0  0  0  0  0  0  0  0  0  0
   -3.4520   -0.7123   -0.0802 C   0  0  0  0  0  0  0  0  0  0  0  0
   -2.1467   -0.3607   -0.4415 C   0  0  0  0  0  0  0  0  0  0  0  0
   -1.2849   -1.3324   -1.0089 N   0  0  0  0  0  0  0  0  0  0  0  0
   -1.5698   -2.2120   -2.0488 C   0  0  0  0  0  0  0  0  0  0  0  0
   -2.7918   -2.1960   -2.9119 C   0  0  0  0  0  0  0  0  0  0  0  0
   -2.9421   -0.9325   -3.7171 C   0  0  0  0  0  0  0  0  0  0  0  0
   -3.8968    0.0589   -3.5887 C   0  0  0  0  0  0  0  0  0  0  0  0
   -3.7177    1.1129   -4.5305 C   0  0  0  0  0  0  0  0  0  0  0  0
   -2.6418    0.8871   -5.3583 C   0  0  0  0  0  0  0  0  0  0  0  0
   -1.8572   -0.5890   -5.0030 S   0  0  0  0  0  0  0  0  0  0  0  0
   -0.5312   -3.0024   -2.2506 N   0  0  0  0  0  0  0  0  0  0  0  0
    0.4660   -2.6314   -1.3951 N   0  0  0  0  0  0  0  0  0  0  0  0
    0.0234   -1.6320   -0.6685 C   0  0  0  0  0  0  0  0  0  0  0  0
    0.9124   -0.9178    0.6403 S   0  0  0  0  0  0  0  0  0  0  0  0
    2.2572   -2.1315    0.8112 C   0  0  0  0  0  0  0  0  0  0  0  0
    3.2032   -1.7042    1.9218 C   0  0  0  0  0  0  0  0  0  0  0  0
    3.3207   -2.3739    2.9442 O   0  0  0  0  0  0  0  0  0  0  0  0
    3.9014   -0.5422    1.6222 N   0  0  0  0  0  0  0  0  0  0  0  0
    4.8803    0.0997    2.4076 C   0  0  0  0  0  0  0  0  0  0  0  0
    5.3942    1.3125    1.9181 C   0  0  0  0  0  0  0  0  0  0  0  0
    6.3703    2.0149    2.6316 C   0  0  0  0  0  0  0  0  0  0  0  0
    6.8363    1.5033    3.8355 C   0  0  0  0  0  0  0  0  0  0  0  0
    7.7731    2.1759    4.5171 F   0  0  0  0  0  0  0  0  0  0  0  0
    6.3362    0.3041    4.3251 C   0  0  0  0  0  0  0  0  0  0  0  0
    6.7920   -0.1879    5.4861 F   0  0  0  0  0  0  0  0  0  0  0  0
    5.3621   -0.4014    3.6198 C   0  0  0  0  0  0  0  0  0  0  0  0
   -1.6998    0.9512   -0.2528 C   0  0  0  0  0  0  0  0  0  0  0  0
   -2.5622    1.9084    0.2870 C   0  0  0  0  0  0  0  0  0  0  0  0
   -5.5742    2.1501    1.8304 H   0  0  0  0  0  0  0  0  0  0  0  0
   -5.2736    3.1502    0.3899 H   0  0  0  0  0  0  0  0  0  0  0  0
   -4.2516    3.3164    1.8401 H   0  0  0  0  0  0  0  0  0  0  0  0
   -5.3183   -0.0363    0.7470 H   0  0  0  0  0  0  0  0  0  0  0  0
   -3.8143   -1.7332   -0.1702 H   0  0  0  0  0  0  0  0  0  0  0  0
   -3.6894   -2.3728   -2.3106 H   0  0  0  0  0  0  0  0  0  0  0  0
   -2.7422   -3.0473   -3.6049 H   0  0  0  0  0  0  0  0  0  0  0  0
   -4.6863    0.0399   -2.8464 H   0  0  0  0  0  0  0  0  0  0  0  0
   -4.3468    1.9927   -4.5979 H   0  0  0  0  0  0  0  0  0  0  0  0
   -2.2787    1.5168   -6.1590 H   0  0  0  0  0  0  0  0  0  0  0  0
    2.8261   -2.2171   -0.1211 H   0  0  0  0  0  0  0  0  0  0  0  0
    1.8427   -3.1132    1.0611 H   0  0  0  0  0  0  0  0  0  0  0  0
    3.6338   -0.0752    0.7628 H   0  0  0  0  0  0  0  0  0  0  0  0
    5.0412    1.7280    0.9770 H   0  0  0  0  0  0  0  0  0  0  0  0
    6.7684    2.9522    2.2559 H   0  0  0  0  0  0  0  0  0  0  0  0
    5.0119   -1.3342    4.0475 H   0  0  0  0  0  0  0  0  0  0  0  0
   -0.7043    1.2645   -0.5581 H   0  0  0  0  0  0  0  0  0  0  0  0
   -2.2097    2.9306    0.4113 H   0  0  0  0  0  0  0  0  0  0  0  0
  1  2  1  0
  2  3  2  0
  3  4  1  0
  4  5  2  0
  5  6  1  0
  6  7  1  0
  7  8  1  0
  8  9  1  0
  9 10  2  0
 10 11  1  0
 11 12  2  0
 12 13  1  0
  7 14  2  0
 14 15  1  0
 15 16  2  0
 16 17  1  0
 17 18  1  0
 18 19  1  0
 19 20  2  0
 19 21  1  0
 21 22  1  0
 22 23  2  0
 23 24  1  0
 24 25  2  0
 25 26  1  0
 25 27  1  0
 27 28  1  0
 27 29  2  0
  5 30  1  0
 30 31  2  0
 31  2  1  0
 16  6  1  0
 29 22  1  0
 13  9  1  0
  1 32  1  0
  1 33  1  0
  1 34  1  0
  3 35  1  0
  4 36  1  0
  8 37  1  0
  8 38  1  0
 10 39  1  0
 11 40  1  0
 12 41  1  0
 18 42  1  0
 18 43  1  0
 21 44  1  0
 23 45  1  0
 24 46  1  0
 29 47  1  0
 30 48  1  0
 31 49  1  0
M  END
$$$$
