
     RDKit          3D

 49 52  0  0  0  0  0  0  0  0999 V2000
   -2.5486   -0.3054    3.1320 O   0  0  0  0  0  0  0  0  0  0  0  0
   -2.6685    0.8803    2.8916 C   0  0  0  0  0  0  0  0  0  0  0  0
   -2.5983    1.7889    3.8856 O   0  0  0  0  0  0  0  0  0  0  0  0
   -2.8849    1.5239    1.5691 C   0  0  0  0  0  0  0  0  0  0  0  0
   -3.6881    2.6839    1.5413 C   0  0  0  0  0  0  0  0  0  0  0  0
   -4.0699    3.2617    0.3338 C   0  0  0  0  0  0  0  0  0  0  0  0
   -3.6843    2.6642   -0.8583 C   0  0  0  0  0  0  0  0  0  0  0  0
   -2.8874    1.5097   -0.8383 C   0  0  0  0  0  0  0  0  0  0  0  0
   -2.5500    0.8651   -2.1281 C   0  0  0  0  0  0  0  0  0  0  0  0
   -2.8348    1.4022   -3.1945 O   0  0  0  0  0  0  0  0  0  0  0  0
   -1.8904   -0.4548   -2.1071 C   0  0  0  0  0  0  0  0  0  0  0  0
   -1.7395   -1.1783   -3.2976 C   0  0  0  0  0  0  0  0  0  0  0  0
   -1.1176   -2.4242   -3.2766 C   0  0  0  0  0  0  0  0  0  0  0  0
   -0.6553   -2.9442   -2.0703 C   0  0  0  0  0  0  0  0  0  0  0  0
   -0.8017   -2.2134   -0.8863 C   0  0  0  0  0  0  0  0  0  0  0  0
   -1.4052   -0.9457   -0.8871 C   0  0  0  0  0  0  0  0  0  0  0  0
   -1.5460   -0.1821    0.3043 N   0  0  0  0  0  0  0  0  0  0  0  0
   -0.2387    0.0105    1.0209 C   0  0  0  0  0  0  0  0  0  0  0  0
    0.7576    0.9036    0.2355 C   0  0  0  0  0  0  0  0  0  0  0  0
    0.3412    2.2785    0.3174 O   0  0  0  0  0  0  0  0  0  0  0  0
    2.1855    0.7996    0.8170 C   0  0  0  0  0  0  0  0  0  0  0  0
    2.7864   -0.5330    0.7103 N   0  0  0  0  0  0  0  0  0  0  0  0
    4.0698   -0.6150    1.4124 C   0  0  0  0  0  0  0  0  0  0  0  0
    4.6673   -1.9101    0.8849 C   0  0  0  0  0  0  0  0  0  0  0  0
    4.0322   -2.1112   -0.4864 C   0  0  0  0  0  0  0  0  0  0  0  0
    3.0904   -0.9298   -0.6671 C   0  0  0  0  0  0  0  0  0  0  0  0
   -2.4200    0.9417    0.3668 C   0  0  0  0  0  0  0  0  0  0  0  0
   -2.4462    1.2418    4.6845 H   0  0  0  0  0  0  0  0  0  0  0  0
   -4.0437    3.1294    2.4686 H   0  0  0  0  0  0  0  0  0  0  0  0
   -4.6916    4.1532    0.3236 H   0  0  0  0  0  0  0  0  0  0  0  0
   -4.0111    3.0881   -1.8058 H   0  0  0  0  0  0  0  0  0  0  0  0
   -2.1128   -0.7730   -4.2355 H   0  0  0  0  0  0  0  0  0  0  0  0
   -1.0065   -2.9929   -4.1963 H   0  0  0  0  0  0  0  0  0  0  0  0
   -0.1877   -3.9256   -2.0445 H   0  0  0  0  0  0  0  0  0  0  0  0
   -0.4590   -2.6608    0.0435 H   0  0  0  0  0  0  0  0  0  0  0  0
    0.2020   -0.9691    1.2329 H   0  0  0  0  0  0  0  0  0  0  0  0
   -0.3910    0.4658    2.0033 H   0  0  0  0  0  0  0  0  0  0  0  0
    0.7689    0.6406   -0.8271 H   0  0  0  0  0  0  0  0  0  0  0  0
    0.8165    2.7648   -0.3786 H   0  0  0  0  0  0  0  0  0  0  0  0
    2.8237    1.5553    0.3386 H   0  0  0  0  0  0  0  0  0  0  0  0
    2.1361    1.0916    1.8752 H   0  0  0  0  0  0  0  0  0  0  0  0
    3.9442   -0.6437    2.4993 H   0  0  0  0  0  0  0  0  0  0  0  0
    4.7253    0.2278    1.1576 H   0  0  0  0  0  0  0  0  0  0  0  0
    4.4107   -2.7517    1.5391 H   0  0  0  0  0  0  0  0  0  0  0  0
    5.7586   -1.8539    0.8228 H   0  0  0  0  0  0  0  0  0  0  0  0
    3.4781   -3.0570   -0.5033 H   0  0  0  0  0  0  0  0  0  0  0  0
    4.7849   -2.1482   -1.2804 H   0  0  0  0  0  0  0  0  0  0  0  0
    2.1975   -1.2205   -1.2277 H   0  0  0  0  0  0  0  0  0  0  0  0
    3.6017   -0.1282   -1.2151 H   0  0  0  0  0  0  0  0  0  0  0  0
  1  2  2  0
  2  3  1  0
  2  4  1  0
  4  5  2  0
  5  6  1  0
  6  7  2  0
  7  8  1  0
  8  9  1  0
  9 10  2  0
  9 11  1  0
 11 12  2  0
 12 13  1  0
 13 14  2  0
 14 15  1  0
 15 16  2  0
 16 17  1  0
 17 18  1  0
 18 19  1  0
 19 20  1  0
 19 21  1  0
 21 22  1  0
 22 23  1  0
 23 24  1  0
 24 25  1  0
 25 26  1  0
 17 27  1  0
 27  4  1  0
 27  8  2  0
 16 11  1  0
 26 22  1  0
  3 28  1  0
  5 29  1  0
  6 30  1  0
  7 31  1  0
 12 32  1  0
 13 33  1  0
 14 34  1  0
 15 35  1  0
 18 36  1  0
 18 37  1  0
 19 38  1  0
 20 39  1  0
 21 40  1  0
 21 41  1  0
 23 42  1  0
 23 43  1  0
 24 44  1  0
 24 45  1  0
 25 46  1  0
 25 47  1  0
 26 48  1  0
 26 49  1  0
M  END
$$$$
