
     RDKit          3D

 42 45  0  0  0  0  0  0  0  0999 V2000
    2.4371   -0.5085    2.5107 O   0  0  0  0  0  0  0  0  0  0  0  0
    2.6500   -0.2915    1.3206 C   0  0  0  0  0  0  0  0  0  0  0  0
    3.9993    0.1692    0.9446 C   0  0  0  0  0  0  0  0  0  0  0  0
    5.0958   -0.6643    1.1936 C   0  0  0  0  0  0  0  0  0  0  0  0
    6.3825   -0.2298    0.8704 C   0  0  0  0  0  0  0  0  0  0  0  0
    6.5665    1.0375    0.3154 C   0  0  0  0  0  0  0  0  0  0  0  0
    5.4667    1.8638    0.0973 C   0  0  0  0  0  0  0  0  0  0  0  0
    5.6537    3.0823   -0.4259 F   0  0  0  0  0  0  0  0  0  0  0  0
    4.1802    1.4478    0.4132 C   0  0  0  0  0  0  0  0  0  0  0  0
    1.6913   -0.4540    0.3273 N   0  0  0  0  0  0  0  0  0  0  0  0
    1.9548   -0.4964   -1.1187 C   0  0  0  0  0  0  0  0  0  0  0  0
    0.8133    0.1325   -1.9333 C   0  0  0  0  0  0  0  0  0  0  0  0
   -0.5243   -0.2505   -1.4768 N   0  0  0  0  0  0  0  0  0  0  0  0
   -1.6143    0.2931   -2.1613 C   0  0  0  0  0  0  0  0  0  0  0  0
   -1.4422    0.8921   -3.2258 O   0  0  0  0  0  0  0  0  0  0  0  0
   -2.9780    0.1688   -1.6080 C   0  0  0  0  0  0  0  0  0  0  0  0
   -4.1721    0.2251   -2.3723 C   0  0  0  0  0  0  0  0  0  0  0  0
   -5.2048    0.1359   -1.4728 C   0  0  0  0  0  0  0  0  0  0  0  0
   -6.5623    0.1265   -1.6391 N   0  0  0  0  0  0  0  0  0  0  0  0
   -7.2623    0.0484   -0.5445 C   0  0  0  0  0  0  0  0  0  0  0  0
   -6.7182   -0.0331    0.8459 C   0  0  0  0  0  0  0  0  0  0  0  0
   -7.8796   -0.1397    2.2790 Br  0  0  0  0  0  0  0  0  0  0  0  0
   -5.3823   -0.0225    0.9350 C   0  0  0  0  0  0  0  0  0  0  0  0
   -4.6068    0.0613   -0.2146 N   0  0  0  0  0  0  0  0  0  0  0  0
   -3.2561    0.0831   -0.2934 N   0  0  0  0  0  0  0  0  0  0  0  0
   -0.5699   -1.2541   -0.4092 C   0  0  0  0  0  0  0  0  0  0  0  0
    0.3444   -0.8573    0.7557 C   0  0  0  0  0  0  0  0  0  0  0  0
    4.9460   -1.6427    1.6449 H   0  0  0  0  0  0  0  0  0  0  0  0
    7.2389   -0.8724    1.0596 H   0  0  0  0  0  0  0  0  0  0  0  0
    7.5612    1.3921    0.0624 H   0  0  0  0  0  0  0  0  0  0  0  0
    3.3402    2.1155    0.2532 H   0  0  0  0  0  0  0  0  0  0  0  0
    2.9024   -0.0232   -1.3812 H   0  0  0  0  0  0  0  0  0  0  0  0
    2.0564   -1.5575   -1.3793 H   0  0  0  0  0  0  0  0  0  0  0  0
    0.8728    1.2257   -1.8626 H   0  0  0  0  0  0  0  0  0  0  0  0
    0.9180   -0.1349   -2.9911 H   0  0  0  0  0  0  0  0  0  0  0  0
   -4.2593    0.3237   -3.4452 H   0  0  0  0  0  0  0  0  0  0  0  0
   -8.3622    0.0392   -0.6295 H   0  0  0  0  0  0  0  0  0  0  0  0
   -4.8394   -0.0740    1.8688 H   0  0  0  0  0  0  0  0  0  0  0  0
   -0.2089   -2.1892   -0.8570 H   0  0  0  0  0  0  0  0  0  0  0  0
   -1.5741   -1.4739   -0.0540 H   0  0  0  0  0  0  0  0  0  0  0  0
    0.4284   -1.6901    1.4632 H   0  0  0  0  0  0  0  0  0  0  0  0
   -0.0831   -0.0039    1.2959 H   0  0  0  0  0  0  0  0  0  0  0  0
  1  2  2  0
  2  3  1  0
  3  4  2  0
  4  5  1  0
  5  6  2  0
  6  7  1  0
  7  8  1  0
  7  9  2  0
  2 10  1  0
 10 11  1  0
 11 12  1  0
 12 13  1  0
 13 14  1  0
 14 15  2  0
 14 16  1  0
 16 17  1  0
 17 18  2  0
 18 19  1  0
 19 20  2  0
 20 21  1  0
 21 22  1  0
 21 23  2  0
 23 24  1  0
 24 25  1  0
 13 26  1  0
 26 27  1  0
  9  3  1  0
 27 10  1  0
 25 16  2  0
 24 18  1  0
  4 28  1  0
  5 29  1  0
  6 30  1  0
  9 31  1  0
 11 32  1  0
 11 33  1  0
 12 34  1  0
 12 35  1  0
 17 36  1  0
 20 37  1  0
 23 38  1  0
 26 39  1  0
 26 40  1  0
 27 41  1  0
 27 42  1  0
M  END
$$$$
