
     RDKit          3D

 55 58  0  0  0  0  0  0  0  0999 V2000
    8.5155    2.3937   -0.2052 C   0  0  0  0  0  0  0  0  0  0  0  0
    7.9048    1.2992    0.4630 O   0  0  0  0  0  0  0  0  0  0  0  0
    6.5647    1.0897    0.2512 C   0  0  0  0  0  0  0  0  0  0  0  0
    5.7647    1.8762   -0.5832 C   0  0  0  0  0  0  0  0  0  0  0  0
    4.4085    1.5820   -0.7403 C   0  0  0  0  0  0  0  0  0  0  0  0
    3.8421    0.4912   -0.0748 C   0  0  0  0  0  0  0  0  0  0  0  0
    2.3930    0.2114   -0.2803 C   0  0  0  0  0  0  0  0  0  0  0  0
    1.9862   -1.2292   -0.3437 C   0  0  0  0  0  0  0  0  0  0  0  0
    0.6742   -1.4733   -0.5302 C   0  0  0  0  0  0  0  0  0  0  0  0
    0.0938   -2.8314   -0.6289 C   0  0  0  0  0  0  0  0  0  0  0  0
    1.0572   -3.7901   -0.5165 F   0  0  0  0  0  0  0  0  0  0  0  0
   -0.5170   -3.0602   -1.8185 F   0  0  0  0  0  0  0  0  0  0  0  0
   -0.8032   -3.0943    0.3535 F   0  0  0  0  0  0  0  0  0  0  0  0
   -0.2123   -0.4102   -0.6553 N   0  0  0  0  0  0  0  0  0  0  0  0
   -1.5520   -0.4520   -0.8422 N   0  0  0  0  0  0  0  0  0  0  0  0
   -1.9573    0.8277   -0.9159 C   0  0  0  0  0  0  0  0  0  0  0  0
   -3.3624    1.2740   -1.0837 C   0  0  0  0  0  0  0  0  0  0  0  0
   -3.6408    2.4537   -0.8519 O   0  0  0  0  0  0  0  0  0  0  0  0
   -4.3557    0.3742   -1.4994 N   0  0  0  0  0  0  0  0  0  0  0  0
   -4.1201   -1.0239   -1.8283 C   0  0  0  0  0  0  0  0  0  0  0  0
   -5.7485    0.7935   -1.3774 C   0  0  0  0  0  0  0  0  0  0  0  0
   -6.3984    0.2737   -0.1155 C   0  0  0  0  0  0  0  0  0  0  0  0
   -6.1395    0.8872    1.1189 C   0  0  0  0  0  0  0  0  0  0  0  0
   -6.7258    0.4023    2.2889 C   0  0  0  0  0  0  0  0  0  0  0  0
   -7.5744   -0.7016    2.2381 C   0  0  0  0  0  0  0  0  0  0  0  0
   -7.8372   -1.3220    1.0181 C   0  0  0  0  0  0  0  0  0  0  0  0
   -7.2515   -0.8385   -0.1534 C   0  0  0  0  0  0  0  0  0  0  0  0
   -0.8530    1.7032   -0.7549 C   0  0  0  0  0  0  0  0  0  0  0  0
    0.2515    0.9039   -0.6004 C   0  0  0  0  0  0  0  0  0  0  0  0
    1.5683    1.2104   -0.4184 N   0  0  0  0  0  0  0  0  0  0  0  0
    4.6308   -0.2895    0.7796 C   0  0  0  0  0  0  0  0  0  0  0  0
    5.9905    0.0036    0.9453 C   0  0  0  0  0  0  0  0  0  0  0  0
    6.8421   -0.7092    1.7532 O   0  0  0  0  0  0  0  0  0  0  0  0
    6.2844   -1.7144    2.5868 C   0  0  0  0  0  0  0  0  0  0  0  0
    9.5719    2.4120    0.0796 H   0  0  0  0  0  0  0  0  0  0  0  0
    8.0711    3.3447    0.1058 H   0  0  0  0  0  0  0  0  0  0  0  0
    8.4668    2.2698   -1.2921 H   0  0  0  0  0  0  0  0  0  0  0  0
    6.1634    2.7278   -1.1244 H   0  0  0  0  0  0  0  0  0  0  0  0
    3.7982    2.2075   -1.3895 H   0  0  0  0  0  0  0  0  0  0  0  0
    2.7261   -2.0167   -0.2724 H   0  0  0  0  0  0  0  0  0  0  0  0
   -4.9730   -1.4266   -2.3835 H   0  0  0  0  0  0  0  0  0  0  0  0
   -3.2427   -1.1211   -2.4719 H   0  0  0  0  0  0  0  0  0  0  0  0
   -3.9888   -1.5963   -0.9057 H   0  0  0  0  0  0  0  0  0  0  0  0
   -5.8346    1.8864   -1.3941 H   0  0  0  0  0  0  0  0  0  0  0  0
   -6.2908    0.4433   -2.2644 H   0  0  0  0  0  0  0  0  0  0  0  0
   -5.4770    1.7494    1.1719 H   0  0  0  0  0  0  0  0  0  0  0  0
   -6.5178    0.8863    3.2394 H   0  0  0  0  0  0  0  0  0  0  0  0
   -8.0297   -1.0792    3.1498 H   0  0  0  0  0  0  0  0  0  0  0  0
   -8.4978   -2.1841    0.9795 H   0  0  0  0  0  0  0  0  0  0  0  0
   -7.4646   -1.3366   -1.0962 H   0  0  0  0  0  0  0  0  0  0  0  0
   -0.8703    2.7840   -0.7519 H   0  0  0  0  0  0  0  0  0  0  0  0
    4.1742   -1.1056    1.3260 H   0  0  0  0  0  0  0  0  0  0  0  0
    5.8733   -2.5354    1.9906 H   0  0  0  0  0  0  0  0  0  0  0  0
    5.5288   -1.2972    3.2604 H   0  0  0  0  0  0  0  0  0  0  0  0
    7.0905   -2.1230    3.2038 H   0  0  0  0  0  0  0  0  0  0  0  0
  1  2  1  0
  2  3  1  0
  3  4  2  0
  4  5  1  0
  5  6  2  0
  6  7  1  0
  7  8  1  0
  8  9  2  0
  9 10  1  0
 10 11  1  0
 10 12  1  0
 10 13  1  0
  9 14  1  0
 14 15  1  0
 15 16  2  0
 16 17  1  0
 17 18  2  0
 17 19  1  0
 19 20  1  0
 19 21  1  0
 21 22  1  0
 22 23  2  0
 23 24  1  0
 24 25  2  0
 25 26  1  0
 26 27  2  0
 16 28  1  0
 28 29  2  0
 29 30  1  0
  6 31  1  0
 31 32  2  0
 32 33  1  0
 33 34  1  0
 32  3  1  0
 30  7  2  0
 29 14  1  0
 27 22  1  0
  1 35  1  0
  1 36  1  0
  1 37  1  0
  4 38  1  0
  5 39  1  0
  8 40  1  0
 20 41  1  0
 20 42  1  0
 20 43  1  0
 21 44  1  0
 21 45  1  0
 23 46  1  0
 24 47  1  0
 25 48  1  0
 26 49  1  0
 27 50  1  0
 28 51  1  0
 31 52  1  0
 34 53  1  0
 34 54  1  0
 34 55  1  0
M  END
$$$$
