
     RDKit          3D

 58 59  0  0  0  0  0  0  0  0999 V2000
    8.8224   -0.5335    2.1202 C   0  0  0  0  0  0  0  0  0  0  0  0
    7.4479    0.1015    2.2593 C   0  0  0  0  0  0  0  0  0  0  0  0
    6.3544   -0.6360    1.4880 C   0  0  0  0  0  0  0  0  0  0  0  0
    6.5538   -0.6093   -0.0272 C   0  0  0  0  0  0  0  0  0  0  0  0
    5.4540   -1.2394   -0.6869 O   0  0  0  0  0  0  0  0  0  0  0  0
    4.3897   -0.4740   -1.0713 C   0  0  0  0  0  0  0  0  0  0  0  0
    4.1597    0.8574   -0.7227 C   0  0  0  0  0  0  0  0  0  0  0  0
    3.0141    1.5211   -1.1821 C   0  0  0  0  0  0  0  0  0  0  0  0
    2.0845    0.8513   -1.9869 C   0  0  0  0  0  0  0  0  0  0  0  0
    0.8548    1.5178   -2.4988 C   0  0  0  0  0  0  0  0  0  0  0  0
    0.3191    1.1228   -3.5269 O   0  0  0  0  0  0  0  0  0  0  0  0
    0.3581    2.5555   -1.7366 N   0  0  0  0  0  0  0  0  0  0  0  0
   -0.9489    3.1237   -2.0392 C   0  0  0  0  0  0  0  0  0  0  0  0
   -2.0376    2.4362   -1.2251 C   0  0  0  0  0  0  0  0  0  0  0  0
   -1.8410    1.6665   -0.2901 O   0  0  0  0  0  0  0  0  0  0  0  0
   -3.2701    2.8565   -1.6322 O   0  0  0  0  0  0  0  0  0  0  0  0
   -4.3519    2.2377   -0.9249 C   0  0  0  0  0  0  0  0  0  0  0  0
   -4.5048    0.7592   -1.2921 C   0  0  0  0  0  0  0  0  0  0  0  0
   -4.1228    0.3417   -2.3906 O   0  0  0  0  0  0  0  0  0  0  0  0
   -5.0588   -0.1819   -0.2611 C   0  0  0  0  0  0  0  0  0  0  0  0
   -4.7172   -1.4907   -0.2681 C   0  0  0  0  0  0  0  0  0  0  0  0
   -3.9234   -2.0535   -1.2614 N   0  0  0  0  0  0  0  0  0  0  0  0
   -5.1855   -2.3212    0.7470 N   0  0  0  0  0  0  0  0  0  0  0  0
   -4.9067   -3.7558    0.6748 C   0  0  0  0  0  0  0  0  0  0  0  0
   -5.9257   -1.8719    1.8364 C   0  0  0  0  0  0  0  0  0  0  0  0
   -6.3181   -2.6246    2.7302 O   0  0  0  0  0  0  0  0  0  0  0  0
   -6.2134   -0.5182    1.8563 N   0  0  0  0  0  0  0  0  0  0  0  0
   -7.0314   -0.0267    2.9497 C   0  0  0  0  0  0  0  0  0  0  0  0
   -5.9572    0.3226    0.7992 C   0  0  0  0  0  0  0  0  0  0  0  0
   -6.4417    1.4501    0.7021 O   0  0  0  0  0  0  0  0  0  0  0  0
    2.3202   -0.4794   -2.3447 C   0  0  0  0  0  0  0  0  0  0  0  0
    3.4628   -1.1366   -1.8811 C   0  0  0  0  0  0  0  0  0  0  0  0
    8.8014   -1.5853    2.4236 H   0  0  0  0  0  0  0  0  0  0  0  0
    9.5435   -0.0109    2.7576 H   0  0  0  0  0  0  0  0  0  0  0  0
    9.1885   -0.4768    1.0902 H   0  0  0  0  0  0  0  0  0  0  0  0
    7.4938    1.1462    1.9309 H   0  0  0  0  0  0  0  0  0  0  0  0
    7.1759    0.1152    3.3214 H   0  0  0  0  0  0  0  0  0  0  0  0
    5.3854   -0.1904    1.7419 H   0  0  0  0  0  0  0  0  0  0  0  0
    6.2908   -1.6783    1.8258 H   0  0  0  0  0  0  0  0  0  0  0  0
    7.4368   -1.2050   -0.2844 H   0  0  0  0  0  0  0  0  0  0  0  0
    6.7493    0.3979   -0.4136 H   0  0  0  0  0  0  0  0  0  0  0  0
    4.8480    1.4107   -0.0925 H   0  0  0  0  0  0  0  0  0  0  0  0
    2.8779    2.5667   -0.9207 H   0  0  0  0  0  0  0  0  0  0  0  0
    0.6475    2.5964   -0.7674 H   0  0  0  0  0  0  0  0  0  0  0  0
   -0.9169    4.1797   -1.7565 H   0  0  0  0  0  0  0  0  0  0  0  0
   -1.1691    3.0222   -3.1058 H   0  0  0  0  0  0  0  0  0  0  0  0
   -5.2683    2.7578   -1.2205 H   0  0  0  0  0  0  0  0  0  0  0  0
   -4.1985    2.3767    0.1504 H   0  0  0  0  0  0  0  0  0  0  0  0
   -3.1100   -2.5288   -0.8795 H   0  0  0  0  0  0  0  0  0  0  0  0
   -3.6224   -1.3678   -1.9679 H   0  0  0  0  0  0  0  0  0  0  0  0
   -5.4433   -4.3234    1.4405 H   0  0  0  0  0  0  0  0  0  0  0  0
   -5.2167   -4.1434   -0.3017 H   0  0  0  0  0  0  0  0  0  0  0  0
   -3.8338   -3.9186    0.8218 H   0  0  0  0  0  0  0  0  0  0  0  0
   -8.0690   -0.3263    2.7687 H   0  0  0  0  0  0  0  0  0  0  0  0
   -6.6980   -0.4633    3.8965 H   0  0  0  0  0  0  0  0  0  0  0  0
   -6.9822    1.0636    3.0292 H   0  0  0  0  0  0  0  0  0  0  0  0
    1.6154   -1.0098   -2.9821 H   0  0  0  0  0  0  0  0  0  0  0  0
    3.6348   -2.1741   -2.1594 H   0  0  0  0  0  0  0  0  0  0  0  0
  1  2  1  0
  2  3  1  0
  3  4  1  0
  4  5  1  0
  5  6  1  0
  6  7  2  0
  7  8  1  0
  8  9  2  0
  9 10  1  0
 10 11  2  0
 10 12  1  0
 12 13  1  0
 13 14  1  0
 14 15  2  0
 14 16  1  0
 16 17  1  0
 17 18  1  0
 18 19  2  0
 18 20  1  0
 20 21  2  0
 21 22  1  0
 21 23  1  0
 23 24  1  0
 23 25  1  0
 25 26  2  0
 25 27  1  0
 27 28  1  0
 27 29  1  0
 29 30  2  0
  9 31  1  0
 31 32  2  0
 32  6  1  0
 29 20  1  0
  1 33  1  0
  1 34  1  0
  1 35  1  0
  2 36  1  0
  2 37  1  0
  3 38  1  0
  3 39  1  0
  4 40  1  0
  4 41  1  0
  7 42  1  0
  8 43  1  0
 12 44  1  0
 13 45  1  0
 13 46  1  0
 17 47  1  0
 17 48  1  0
 22 49  1  0
 22 50  1  0
 24 51  1  0
 24 52  1  0
 24 53  1  0
 28 54  1  0
 28 55  1  0
 28 56  1  0
 31 57  1  0
 32 58  1  0
M  END
$$$$
