
     RDKit          3D

 54 57  0  0  0  0  0  0  0  0999 V2000
    4.1823    1.6265    4.2682 C   0  0  0  0  0  0  0  0  0  0  0  0
    3.6331    0.4862    3.4261 C   0  0  0  0  0  0  0  0  0  0  0  0
    4.1330    0.5321    1.9907 C   0  0  0  0  0  0  0  0  0  0  0  0
    4.8068    1.4741    1.5741 O   0  0  0  0  0  0  0  0  0  0  0  0
    3.7975   -0.5469    1.1792 N   0  0  0  0  0  0  0  0  0  0  0  0
    2.6619   -1.4402    1.4321 C   0  0  0  0  0  0  0  0  0  0  0  0
    1.4194   -0.9416    0.6686 C   0  0  0  0  0  0  0  0  0  0  0  0
    1.6924   -0.7467   -0.7837 N   0  0  0  0  0  0  0  0  0  0  0  0
    1.3292   -1.8515   -1.5803 C   0  0  0  0  0  0  0  0  0  0  0  0
    2.2497   -2.8050   -2.0315 C   0  0  0  0  0  0  0  0  0  0  0  0
    1.8288   -3.9127   -2.7730 C   0  0  0  0  0  0  0  0  0  0  0  0
    0.4805   -4.0763   -3.0769 C   0  0  0  0  0  0  0  0  0  0  0  0
   -0.0213   -5.4475   -3.9888 Cl  0  0  0  0  0  0  0  0  0  0  0  0
   -0.4587   -3.1375   -2.6603 C   0  0  0  0  0  0  0  0  0  0  0  0
   -0.0413   -2.0256   -1.9259 C   0  0  0  0  0  0  0  0  0  0  0  0
   -0.9114   -0.9850   -1.5297 N   0  0  0  0  0  0  0  0  0  0  0  0
   -2.2831   -0.9285   -1.6350 C   0  0  0  0  0  0  0  0  0  0  0  0
   -3.0221   -1.8298   -2.0118 O   0  0  0  0  0  0  0  0  0  0  0  0
   -2.8934    0.3567   -1.1897 C   0  0  0  0  0  0  0  0  0  0  0  0
   -2.2420    1.5863   -1.3707 C   0  0  0  0  0  0  0  0  0  0  0  0
   -2.8507    2.7692   -0.9431 C   0  0  0  0  0  0  0  0  0  0  0  0
   -4.1098    2.7272   -0.3474 C   0  0  0  0  0  0  0  0  0  0  0  0
   -4.7561    1.5015   -0.1556 C   0  0  0  0  0  0  0  0  0  0  0  0
   -4.1604    0.3204   -0.5935 C   0  0  0  0  0  0  0  0  0  0  0  0
   -5.9819    1.3861    0.4484 O   0  0  0  0  0  0  0  0  0  0  0  0
   -6.3431    2.5874    1.1393 C   0  0  0  0  0  0  0  0  0  0  0  0
   -6.0582    3.8083    0.2804 C   0  0  0  0  0  0  0  0  0  0  0  0
   -4.6534    3.9293    0.0263 O   0  0  0  0  0  0  0  0  0  0  0  0
    2.9549   -0.0226   -1.0931 C   0  0  0  0  0  0  0  0  0  0  0  0
    4.1557   -0.4790   -0.2385 C   0  0  0  0  0  0  0  0  0  0  0  0
    5.2767    1.6024    4.2968 H   0  0  0  0  0  0  0  0  0  0  0  0
    3.8112    1.5542    5.2952 H   0  0  0  0  0  0  0  0  0  0  0  0
    3.8781    2.5973    3.8630 H   0  0  0  0  0  0  0  0  0  0  0  0
    3.9368   -0.4652    3.8758 H   0  0  0  0  0  0  0  0  0  0  0  0
    2.5400    0.5500    3.4204 H   0  0  0  0  0  0  0  0  0  0  0  0
    2.4387   -1.5146    2.4984 H   0  0  0  0  0  0  0  0  0  0  0  0
    2.9470   -2.4409    1.0869 H   0  0  0  0  0  0  0  0  0  0  0  0
    1.1161    0.0312    1.0756 H   0  0  0  0  0  0  0  0  0  0  0  0
    0.5821   -1.6288    0.8410 H   0  0  0  0  0  0  0  0  0  0  0  0
    3.3053   -2.7241   -1.8041 H   0  0  0  0  0  0  0  0  0  0  0  0
    2.5587   -4.6459   -3.1065 H   0  0  0  0  0  0  0  0  0  0  0  0
   -1.4989   -3.2774   -2.9341 H   0  0  0  0  0  0  0  0  0  0  0  0
   -0.4128   -0.2191   -1.0874 H   0  0  0  0  0  0  0  0  0  0  0  0
   -1.2789    1.6453   -1.8712 H   0  0  0  0  0  0  0  0  0  0  0  0
   -2.3545    3.7245   -1.0937 H   0  0  0  0  0  0  0  0  0  0  0  0
   -4.6771   -0.6274   -0.4596 H   0  0  0  0  0  0  0  0  0  0  0  0
   -5.7891    2.6245    2.0854 H   0  0  0  0  0  0  0  0  0  0  0  0
   -7.4111    2.5284    1.3711 H   0  0  0  0  0  0  0  0  0  0  0  0
   -6.3813    4.7179    0.7961 H   0  0  0  0  0  0  0  0  0  0  0  0
   -6.5836    3.7552   -0.6813 H   0  0  0  0  0  0  0  0  0  0  0  0
    3.1974   -0.0855   -2.1607 H   0  0  0  0  0  0  0  0  0  0  0  0
    2.7673    1.0381   -0.8830 H   0  0  0  0  0  0  0  0  0  0  0  0
    4.4923   -1.4784   -0.5289 H   0  0  0  0  0  0  0  0  0  0  0  0
    5.0019    0.1969   -0.4003 H   0  0  0  0  0  0  0  0  0  0  0  0
  1  2  1  0
  2  3  1  0
  3  4  2  0
  3  5  1  0
  5  6  1  0
  6  7  1  0
  7  8  1  0
  8  9  1  0
  9 10  2  0
 10 11  1  0
 11 12  2  0
 12 13  1  0
 12 14  1  0
 14 15  2  0
 15 16  1  0
 16 17  1  0
 17 18  2  0
 17 19  1  0
 19 20  2  0
 20 21  1  0
 21 22  2  0
 22 23  1  0
 23 24  2  0
 23 25  1  0
 25 26  1  0
 26 27  1  0
 27 28  1  0
  8 29  1  0
 29 30  1  0
 30  5  1  0
 15  9  1  0
 24 19  1  0
 28 22  1  0
  1 31  1  0
  1 32  1  0
  1 33  1  0
  2 34  1  0
  2 35  1  0
  6 36  1  0
  6 37  1  0
  7 38  1  0
  7 39  1  0
 10 40  1  0
 11 41  1  0
 14 42  1  0
 16 43  1  0
 20 44  1  0
 21 45  1  0
 24 46  1  0
 26 47  1  0
 26 48  1  0
 27 49  1  0
 27 50  1  0
 29 51  1  0
 29 52  1  0
 30 53  1  0
 30 54  1  0
M  END
$$$$
