
     RDKit          3D

 38 40  0  0  0  0  0  0  0  0999 V2000
   -5.2411    1.8757    2.4976 C   0  0  0  0  0  0  0  0  0  0  0  0
   -4.2088    0.8701    2.0781 C   0  0  0  0  0  0  0  0  0  0  0  0
   -4.4920   -0.0504    1.0592 C   0  0  0  0  0  0  0  0  0  0  0  0
   -3.5481   -1.0101    0.6905 C   0  0  0  0  0  0  0  0  0  0  0  0
   -2.3155   -1.0496    1.3467 C   0  0  0  0  0  0  0  0  0  0  0  0
   -1.1220   -2.2773    0.8825 S   0  0  0  0  0  6  0  0  0  0  0  0
   -0.0566   -2.2926    1.8611 O   0  0  0  0  0  0  0  0  0  0  0  0
   -1.8520   -3.4850    0.5565 O   0  0  0  0  0  0  0  0  0  0  0  0
   -0.5291   -1.6812   -0.5864 N   0  0  0  0  0  0  0  0  0  0  0  0
    0.4667   -0.6669   -0.5401 C   0  0  0  0  0  0  0  0  0  0  0  0
    0.0837    0.6714   -0.4661 C   0  0  0  0  0  0  0  0  0  0  0  0
    1.0548    1.6702   -0.3905 C   0  0  0  0  0  0  0  0  0  0  0  0
    2.4064    1.3212   -0.3851 C   0  0  0  0  0  0  0  0  0  0  0  0
    3.3546    2.3057   -0.3100 O   0  0  0  0  0  0  0  0  0  0  0  0
    2.8005   -0.0234   -0.4526 C   0  0  0  0  0  0  0  0  0  0  0  0
    4.5187   -0.5085   -0.4328 S   0  0  0  0  0  0  0  0  0  0  0  0
    4.9105   -0.4920   -2.1336 C   0  0  0  0  0  0  0  0  0  0  0  0
    3.9801   -0.4622   -3.1436 N   0  0  0  0  0  0  0  0  0  0  0  0
    4.7165   -0.4822   -4.2286 C   0  0  0  0  0  0  0  0  0  0  0  0
    6.0282   -0.5363   -3.8835 N   0  0  0  0  0  0  0  0  0  0  0  0
    6.1805   -0.5586   -2.5524 N   0  0  0  0  0  0  0  0  0  0  0  0
    1.8161   -1.0183   -0.5186 C   0  0  0  0  0  0  0  0  0  0  0  0
   -2.0292   -0.1570    2.3823 C   0  0  0  0  0  0  0  0  0  0  0  0
   -2.9779    0.8002    2.7454 C   0  0  0  0  0  0  0  0  0  0  0  0
   -4.7669    2.7850    2.8817 H   0  0  0  0  0  0  0  0  0  0  0  0
   -5.8668    2.1701    1.6484 H   0  0  0  0  0  0  0  0  0  0  0  0
   -5.8799    1.4523    3.2787 H   0  0  0  0  0  0  0  0  0  0  0  0
   -5.4539   -0.0275    0.5507 H   0  0  0  0  0  0  0  0  0  0  0  0
   -3.7790   -1.7216   -0.0990 H   0  0  0  0  0  0  0  0  0  0  0  0
   -0.3832   -2.4460   -1.2453 H   0  0  0  0  0  0  0  0  0  0  0  0
   -0.9674    0.9470   -0.4815 H   0  0  0  0  0  0  0  0  0  0  0  0
    0.7411    2.7082   -0.3386 H   0  0  0  0  0  0  0  0  0  0  0  0
    2.9188    3.1719   -0.2834 H   0  0  0  0  0  0  0  0  0  0  0  0
    4.3682   -0.4619   -5.2510 H   0  0  0  0  0  0  0  0  0  0  0  0
    6.8487   -0.5650   -4.4781 H   0  0  0  0  0  0  0  0  0  0  0  0
    2.1061   -2.0651   -0.5513 H   0  0  0  0  0  0  0  0  0  0  0  0
   -1.0777   -0.1999    2.9081 H   0  0  0  0  0  0  0  0  0  0  0  0
   -2.7532    1.4896    3.5570 H   0  0  0  0  0  0  0  0  0  0  0  0
  1  2  1  0
  2  3  2  0
  3  4  1  0
  4  5  2  0
  5  6  1  0
  6  7  2  0
  6  8  2  0
  6  9  1  0
  9 10  1  0
 10 11  2  0
 11 12  1  0
 12 13  2  0
 13 14  1  0
 13 15  1  0
 15 16  1  0
 16 17  1  0
 17 18  1  0
 18 19  2  0
 19 20  1  0
 20 21  1  0
 15 22  2  0
  5 23  1  0
 23 24  2  0
 24  2  1  0
 22 10  1  0
 21 17  2  0
  1 25  1  0
  1 26  1  0
  1 27  1  0
  3 28  1  0
  4 29  1  0
  9 30  1  0
 11 31  1  0
 12 32  1  0
 14 33  1  0
 19 34  1  0
 20 35  1  0
 22 36  1  0
 23 37  1  0
 24 38  1  0
M  END
$$$$
