
     RDKit          3D

 44 44  0  0  0  0  0  0  0  0999 V2000
   -3.7195    2.0778    0.3969 C   0  0  0  0  0  0  0  0  0  0  0  0
   -2.7269    1.1458   -0.3121 C   0  0  0  0  0  0  0  0  0  0  0  0
   -3.3372    0.6081   -1.6110 C   0  0  0  0  0  0  0  0  0  0  0  0
   -2.0880    0.0328    0.5909 C   0  0  0  0  0  0  0  0  0  0  0  0
   -1.7830    0.6108    1.8658 O   0  0  0  0  0  0  0  0  0  0  0  0
   -0.7898   -0.3510   -0.0291 C   0  0  0  0  0  0  0  0  0  0  0  0
    0.2716   -0.6327   -0.5187 C   0  0  0  0  0  0  0  0  0  0  0  0
    1.5779   -0.9688   -1.1062 C   0  0  0  0  0  0  0  0  0  0  0  0
    2.5316    0.1367   -0.9550 N   0  0  0  0  0  0  0  0  0  0  0  0
    2.9599    0.3411    0.4388 C   0  0  0  0  0  0  0  0  0  0  0  0
    4.3983   -0.0909    0.7201 C   0  0  0  0  0  0  0  0  0  0  0  0
    5.3899    0.6296   -0.1907 C   0  0  0  0  0  0  0  0  0  0  0  0
    4.8003    0.9304   -1.5672 C   0  0  0  0  0  0  0  0  0  0  0  0
    3.6470   -0.0126   -1.8997 C   0  0  0  0  0  0  0  0  0  0  0  0
   -2.9405   -1.2581    0.8325 C   0  0  0  0  0  0  0  0  0  0  0  0
   -4.3237   -0.9921    1.4371 C   0  0  0  0  0  0  0  0  0  0  0  0
   -2.2237   -2.2605    1.7625 C   0  0  0  0  0  0  0  0  0  0  0  0
   -3.9894    2.9102   -0.2637 H   0  0  0  0  0  0  0  0  0  0  0  0
   -4.6491    1.5787    0.6726 H   0  0  0  0  0  0  0  0  0  0  0  0
   -3.2851    2.5174    1.3003 H   0  0  0  0  0  0  0  0  0  0  0  0
   -1.9065    1.8157   -0.6141 H   0  0  0  0  0  0  0  0  0  0  0  0
   -4.2296    0.0041   -1.4247 H   0  0  0  0  0  0  0  0  0  0  0  0
   -2.6193   -0.0041   -2.1658 H   0  0  0  0  0  0  0  0  0  0  0  0
   -3.6338    1.4358   -2.2647 H   0  0  0  0  0  0  0  0  0  0  0  0
   -1.0775    1.2632    1.7126 H   0  0  0  0  0  0  0  0  0  0  0  0
    1.9737   -1.8922   -0.6653 H   0  0  0  0  0  0  0  0  0  0  0  0
    1.4109   -1.1718   -2.1720 H   0  0  0  0  0  0  0  0  0  0  0  0
    2.2954   -0.1562    1.1558 H   0  0  0  0  0  0  0  0  0  0  0  0
    2.8721    1.4140    0.6534 H   0  0  0  0  0  0  0  0  0  0  0  0
    4.4870   -1.1754    0.5745 H   0  0  0  0  0  0  0  0  0  0  0  0
    4.6543    0.1040    1.7680 H   0  0  0  0  0  0  0  0  0  0  0  0
    6.2905    0.0126   -0.2941 H   0  0  0  0  0  0  0  0  0  0  0  0
    5.7134    1.5699    0.2718 H   0  0  0  0  0  0  0  0  0  0  0  0
    4.4421    1.9676   -1.5929 H   0  0  0  0  0  0  0  0  0  0  0  0
    5.5845    0.8554   -2.3290 H   0  0  0  0  0  0  0  0  0  0  0  0
    4.0228   -1.0447   -1.9072 H   0  0  0  0  0  0  0  0  0  0  0  0
    3.2895    0.2082   -2.9123 H   0  0  0  0  0  0  0  0  0  0  0  0
   -3.0910   -1.7708   -0.1274 H   0  0  0  0  0  0  0  0  0  0  0  0
   -4.2616   -0.3595    2.3283 H   0  0  0  0  0  0  0  0  0  0  0  0
   -4.8106   -1.9297    1.7287 H   0  0  0  0  0  0  0  0  0  0  0  0
   -4.9902   -0.5189    0.7130 H   0  0  0  0  0  0  0  0  0  0  0  0
   -2.0491   -1.8338    2.7554 H   0  0  0  0  0  0  0  0  0  0  0  0
   -2.8264   -3.1661    1.8915 H   0  0  0  0  0  0  0  0  0  0  0  0
   -1.2612   -2.5798    1.3526 H   0  0  0  0  0  0  0  0  0  0  0  0
  1  2  1  0
  2  3  1  0
  2  4  1  0
  4  5  1  0
  4  6  1  0
  6  7  3  0
  7  8  1  0
  8  9  1  0
  9 10  1  0
 10 11  1  0
 11 12  1  0
 12 13  1  0
 13 14  1  0
  4 15  1  0
 15 16  1  0
 15 17  1  0
 14  9  1  0
  1 18  1  0
  1 19  1  0
  1 20  1  0
  2 21  1  0
  3 22  1  0
  3 23  1  0
  3 24  1  0
  5 25  1  0
  8 26  1  0
  8 27  1  0
 10 28  1  0
 10 29  1  0
 11 30  1  0
 11 31  1  0
 12 32  1  0
 12 33  1  0
 13 34  1  0
 13 35  1  0
 14 36  1  0
 14 37  1  0
 15 38  1  0
 16 39  1  0
 16 40  1  0
 16 41  1  0
 17 42  1  0
 17 43  1  0
 17 44  1  0
M  END
$$$$
