
     RDKit          3D

 34 36  0  0  0  0  0  0  0  0999 V2000
    4.7144    2.0004    0.5864 C   0  0  0  0  0  0  0  0  0  0  0  0
    4.5372    0.5963    0.2835 N   0  0  0  0  0  0  0  0  0  0  0  0
    5.6086   -0.2216    0.3674 N   0  0  0  0  0  0  0  0  0  0  0  0
    5.1190   -1.4142    0.0319 C   0  0  0  0  0  0  0  0  0  0  0  0
    3.7439   -1.3644   -0.2512 C   0  0  0  0  0  0  0  0  0  0  0  0
    2.8265   -2.7006   -0.7507 Cl  0  0  0  0  0  0  0  0  0  0  0  0
    3.3659   -0.0459   -0.0647 C   0  0  0  0  0  0  0  0  0  0  0  0
    2.0890    0.6302   -0.2078 C   0  0  0  0  0  0  0  0  0  0  0  0
    2.0444    1.8435   -0.3772 O   0  0  0  0  0  0  0  0  0  0  0  0
    0.9923   -0.2027   -0.0950 N   0  0  0  0  0  0  0  0  0  0  0  0
   -0.3520    0.1352   -0.2000 C   0  0  0  0  0  0  0  0  0  0  0  0
   -0.8404    1.7110   -0.6665 S   0  0  0  0  0  0  0  0  0  0  0  0
   -2.4448    1.2868   -0.5445 C   0  0  0  0  0  0  0  0  0  0  0  0
   -2.6544   -0.0129   -0.1762 C   0  0  0  0  0  0  0  0  0  0  0  0
   -1.4340   -0.7273    0.0204 C   0  0  0  0  0  0  0  0  0  0  0  0
   -1.2486   -2.1203    0.4181 C   0  0  0  0  0  0  0  0  0  0  0  0
   -2.3343   -2.9401    0.3119 N   0  0  0  0  0  0  0  0  0  0  0  0
   -0.1712   -2.5716    0.7967 O   0  0  0  0  0  0  0  0  0  0  0  0
   -4.1125   -0.2889   -0.0668 C   0  0  0  0  0  0  0  0  0  0  0  0
   -4.7331    1.1424   -0.0830 C   0  0  0  0  0  0  0  0  0  0  0  0
   -3.6805    2.0767   -0.7481 C   0  0  0  0  0  0  0  0  0  0  0  0
    3.9846    2.2914    1.3455 H   0  0  0  0  0  0  0  0  0  0  0  0
    4.5815    2.5712   -0.3356 H   0  0  0  0  0  0  0  0  0  0  0  0
    5.7235    2.1621    0.9759 H   0  0  0  0  0  0  0  0  0  0  0  0
    5.7849   -2.2668    0.0018 H   0  0  0  0  0  0  0  0  0  0  0  0
    1.1616   -1.1750    0.1610 H   0  0  0  0  0  0  0  0  0  0  0  0
   -2.1572   -3.9255    0.4539 H   0  0  0  0  0  0  0  0  0  0  0  0
   -3.1290   -2.6851   -0.2529 H   0  0  0  0  0  0  0  0  0  0  0  0
   -4.3775   -0.8191    0.8520 H   0  0  0  0  0  0  0  0  0  0  0  0
   -4.4595   -0.8613   -0.9335 H   0  0  0  0  0  0  0  0  0  0  0  0
   -4.8985    1.4703    0.9519 H   0  0  0  0  0  0  0  0  0  0  0  0
   -5.6998    1.1714   -0.5953 H   0  0  0  0  0  0  0  0  0  0  0  0
   -3.8933    2.1983   -1.8152 H   0  0  0  0  0  0  0  0  0  0  0  0
   -3.6565    3.0563   -0.2631 H   0  0  0  0  0  0  0  0  0  0  0  0
  1  2  1  0
  2  3  1  0
  3  4  2  0
  4  5  1  0
  5  6  1  0
  5  7  2  0
  7  8  1  0
  8  9  2  0
  8 10  1  0
 10 11  1  0
 11 12  1  0
 12 13  1  0
 13 14  2  0
 14 15  1  0
 15 16  1  0
 16 17  1  0
 16 18  2  0
 14 19  1  0
 19 20  1  0
 20 21  1  0
  7  2  1  0
 15 11  2  0
 21 13  1  0
  1 22  1  0
  1 23  1  0
  1 24  1  0
  4 25  1  0
 10 26  1  0
 17 27  1  0
 17 28  1  0
 19 29  1  0
 19 30  1  0
 20 31  1  0
 20 32  1  0
 21 33  1  0
 21 34  1  0
M  END
$$$$
