
     RDKit          3D

 61 66  0  0  0  0  0  0  0  0999 V2000
    7.9473   -3.1734   -0.9776 C   0  0  0  0  0  0  0  0  0  0  0  0
    6.7250   -3.6808   -0.5426 C   0  0  0  0  0  0  0  0  0  0  0  0
    5.8013   -2.8394    0.0800 C   0  0  0  0  0  0  0  0  0  0  0  0
    6.0939   -1.4825    0.2731 C   0  0  0  0  0  0  0  0  0  0  0  0
    5.0877   -0.5680    0.9316 C   0  0  0  0  0  0  0  0  0  0  0  0
    4.1072    0.0330   -0.0932 C   0  0  0  0  0  0  0  0  0  0  0  0
    3.1498    0.9788    0.5095 N   0  0  0  0  0  0  0  0  0  0  0  0
    2.2587    0.3086    1.4879 C   0  0  0  0  0  0  0  0  0  0  0  0
    0.9087    1.0244    1.7009 C   0  0  0  0  0  0  0  0  0  0  0  0
    0.1245    1.1122    0.4442 N   0  0  0  0  0  0  0  0  0  0  0  0
   -1.0302    0.3801    0.3820 C   0  0  0  0  0  0  0  0  0  0  0  0
   -1.1835   -0.9907    0.4682 C   0  0  0  0  0  0  0  0  0  0  0  0
   -2.5530   -1.2871    0.3132 C   0  0  0  0  0  0  0  0  0  0  0  0
   -3.2203   -0.0925    0.1169 C   0  0  0  0  0  0  0  0  0  0  0  0
   -4.6202    0.2060   -0.1013 C   0  0  0  0  0  0  0  0  0  0  0  0
   -5.6129   -0.8864   -0.2669 C   0  0  0  0  0  0  0  0  0  0  0  0
   -5.4016   -1.9223   -1.1840 C   0  0  0  0  0  0  0  0  0  0  0  0
   -6.3572   -2.9310   -1.3257 C   0  0  0  0  0  0  0  0  0  0  0  0
   -7.5259   -2.8980   -0.5645 C   0  0  0  0  0  0  0  0  0  0  0  0
   -7.7483   -1.8521    0.3328 C   0  0  0  0  0  0  0  0  0  0  0  0
   -6.7962   -0.8417    0.4780 C   0  0  0  0  0  0  0  0  0  0  0  0
   -5.0422    1.4349   -0.1440 N   0  0  0  0  0  0  0  0  0  0  0  0
   -4.1144    2.4862   -0.0113 C   0  0  0  0  0  0  0  0  0  0  0  0
   -4.6105    3.7928   -0.0591 C   0  0  0  0  0  0  0  0  0  0  0  0
   -3.7546    4.8876    0.0667 C   0  0  0  0  0  0  0  0  0  0  0  0
   -2.3880    4.6823    0.2435 C   0  0  0  0  0  0  0  0  0  0  0  0
   -1.8731    3.3843    0.2924 C   0  0  0  0  0  0  0  0  0  0  0  0
   -2.7322    2.2884    0.1612 C   0  0  0  0  0  0  0  0  0  0  0  0
   -2.2974    0.9394    0.2157 N   0  0  0  0  0  0  0  0  0  0  0  0
    0.9540    1.0966   -0.7874 C   0  0  0  0  0  0  0  0  0  0  0  0
    2.3571    1.6860   -0.5262 C   0  0  0  0  0  0  0  0  0  0  0  0
    7.3229   -0.9808   -0.1736 C   0  0  0  0  0  0  0  0  0  0  0  0
    8.2455   -1.8247   -0.7938 C   0  0  0  0  0  0  0  0  0  0  0  0
    8.6670   -3.8292   -1.4611 H   0  0  0  0  0  0  0  0  0  0  0  0
    6.4914   -4.7323   -0.6898 H   0  0  0  0  0  0  0  0  0  0  0  0
    4.8496   -3.2486    0.4110 H   0  0  0  0  0  0  0  0  0  0  0  0
    5.6169    0.2357    1.4610 H   0  0  0  0  0  0  0  0  0  0  0  0
    4.5539   -1.1382    1.7021 H   0  0  0  0  0  0  0  0  0  0  0  0
    3.5760   -0.7680   -0.6264 H   0  0  0  0  0  0  0  0  0  0  0  0
    4.7025    0.5661   -0.8468 H   0  0  0  0  0  0  0  0  0  0  0  0
    2.7766    0.2497    2.4516 H   0  0  0  0  0  0  0  0  0  0  0  0
    2.0453   -0.7195    1.1681 H   0  0  0  0  0  0  0  0  0  0  0  0
    0.3429    0.5142    2.4901 H   0  0  0  0  0  0  0  0  0  0  0  0
    1.0886    2.0444    2.0613 H   0  0  0  0  0  0  0  0  0  0  0  0
   -0.3826   -1.7029    0.6168 H   0  0  0  0  0  0  0  0  0  0  0  0
   -2.9974   -2.2736    0.3384 H   0  0  0  0  0  0  0  0  0  0  0  0
   -4.5084   -1.9408   -1.8023 H   0  0  0  0  0  0  0  0  0  0  0  0
   -6.1960   -3.7382   -2.0367 H   0  0  0  0  0  0  0  0  0  0  0  0
   -8.2704   -3.6829   -0.6786 H   0  0  0  0  0  0  0  0  0  0  0  0
   -8.6652   -1.8199    0.9148 H   0  0  0  0  0  0  0  0  0  0  0  0
   -6.9754   -0.0215    1.1702 H   0  0  0  0  0  0  0  0  0  0  0  0
   -5.6771    3.9527   -0.1957 H   0  0  0  0  0  0  0  0  0  0  0  0
   -4.1564    5.8967    0.0292 H   0  0  0  0  0  0  0  0  0  0  0  0
   -1.7191    5.5336    0.3474 H   0  0  0  0  0  0  0  0  0  0  0  0
   -0.8063    3.2666    0.4420 H   0  0  0  0  0  0  0  0  0  0  0  0
    0.4530    1.6919   -1.5605 H   0  0  0  0  0  0  0  0  0  0  0  0
    1.0597    0.0733   -1.1718 H   0  0  0  0  0  0  0  0  0  0  0  0
    2.2347    2.7219   -0.1832 H   0  0  0  0  0  0  0  0  0  0  0  0
    2.9084    1.7551   -1.4717 H   0  0  0  0  0  0  0  0  0  0  0  0
    7.5686    0.0714   -0.0424 H   0  0  0  0  0  0  0  0  0  0  0  0
    9.1975   -1.4277   -1.1350 H   0  0  0  0  0  0  0  0  0  0  0  0
  1  2  2  0
  2  3  1  0
  3  4  2  0
  4  5  1  0
  5  6  1  0
  6  7  1  0
  7  8  1  0
  8  9  1  0
  9 10  1  0
 10 11  1  0
 11 12  2  0
 12 13  1  0
 13 14  2  0
 14 15  1  0
 15 16  1  0
 16 17  2  0
 17 18  1  0
 18 19  2  0
 19 20  1  0
 20 21  2  0
 15 22  2  0
 22 23  1  0
 23 24  2  0
 24 25  1  0
 25 26  2  0
 26 27  1  0
 27 28  2  0
 28 29  1  0
 10 30  1  0
 30 31  1  0
  4 32  1  0
 32 33  2  0
 33  1  1  0
 31  7  1  0
 29 11  1  0
 29 14  1  0
 21 16  1  0
 28 23  1  0
  1 34  1  0
  2 35  1  0
  3 36  1  0
  5 37  1  0
  5 38  1  0
  6 39  1  0
  6 40  1  0
  8 41  1  0
  8 42  1  0
  9 43  1  0
  9 44  1  0
 12 45  1  0
 13 46  1  0
 17 47  1  0
 18 48  1  0
 19 49  1  0
 20 50  1  0
 21 51  1  0
 24 52  1  0
 25 53  1  0
 26 54  1  0
 27 55  1  0
 30 56  1  0
 30 57  1  0
 31 58  1  0
 31 59  1  0
 32 60  1  0
 33 61  1  0
M  END
$$$$
