
     RDKit          3D

 37 38  0  0  0  0  0  0  0  0999 V2000
   -5.6152   -1.0109   -2.2980 C   0  0  0  0  0  0  0  0  0  0  0  0
   -5.0149   -0.0771   -1.3458 N   0  0  0  0  0  0  0  0  0  0  0  0
   -5.9258    0.4689   -0.3404 C   0  0  0  0  0  0  0  0  0  0  0  0
   -3.6526   -0.1816   -1.0497 C   0  0  0  0  0  0  0  0  0  0  0  0
   -2.7715   -0.9445   -1.8349 C   0  0  0  0  0  0  0  0  0  0  0  0
   -1.3985   -1.0343   -1.5550 C   0  0  0  0  0  0  0  0  0  0  0  0
   -0.8437   -0.3398   -0.4816 C   0  0  0  0  0  0  0  0  0  0  0  0
    0.5932   -0.4731   -0.2054 C   0  0  0  0  0  0  0  0  0  0  0  0
    1.3691    0.5561    0.1724 C   0  0  0  0  0  0  0  0  0  0  0  0
    2.8064    0.4422    0.4446 C   0  0  0  0  0  0  0  0  0  0  0  0
    3.3649    1.2048    1.4690 C   0  0  0  0  0  0  0  0  0  0  0  0
    4.7301    1.1289    1.7222 C   0  0  0  0  0  0  0  0  0  0  0  0
    5.5243    0.3271    0.9788 N   0  0  0  0  0  4  0  0  0  0  0  0
    6.9693    0.2713    1.2577 C   0  0  0  0  0  0  0  0  0  0  0  0
    5.0107   -0.4025   -0.0363 C   0  0  0  0  0  0  0  0  0  0  0  0
    3.6509   -0.3587   -0.3231 C   0  0  0  0  0  0  0  0  0  0  0  0
   -1.6947    0.4221    0.3175 C   0  0  0  0  0  0  0  0  0  0  0  0
   -3.0667    0.5031    0.0288 C   0  0  0  0  0  0  0  0  0  0  0  0
   -5.1610   -0.9120   -3.2898 H   0  0  0  0  0  0  0  0  0  0  0  0
   -6.6832   -0.8080   -2.4362 H   0  0  0  0  0  0  0  0  0  0  0  0
   -5.5176   -2.0448   -1.9491 H   0  0  0  0  0  0  0  0  0  0  0  0
   -5.6767    1.5089   -0.1036 H   0  0  0  0  0  0  0  0  0  0  0  0
   -5.9068   -0.1325    0.5751 H   0  0  0  0  0  0  0  0  0  0  0  0
   -6.9594    0.4838   -0.7042 H   0  0  0  0  0  0  0  0  0  0  0  0
   -3.1305   -1.4960   -2.6988 H   0  0  0  0  0  0  0  0  0  0  0  0
   -0.7763   -1.6463   -2.2035 H   0  0  0  0  0  0  0  0  0  0  0  0
    0.9942   -1.4743   -0.3399 H   0  0  0  0  0  0  0  0  0  0  0  0
    0.9373    1.5482    0.2970 H   0  0  0  0  0  0  0  0  0  0  0  0
    2.7422    1.8556    2.0806 H   0  0  0  0  0  0  0  0  0  0  0  0
    5.1957    1.7079    2.5148 H   0  0  0  0  0  0  0  0  0  0  0  0
    7.1355    0.4458    2.3238 H   0  0  0  0  0  0  0  0  0  0  0  0
    7.3477   -0.7188    0.9905 H   0  0  0  0  0  0  0  0  0  0  0  0
    7.4488    1.0474    0.6562 H   0  0  0  0  0  0  0  0  0  0  0  0
    5.6960   -1.0132   -0.6175 H   0  0  0  0  0  0  0  0  0  0  0  0
    3.2636   -0.9425   -1.1558 H   0  0  0  0  0  0  0  0  0  0  0  0
   -1.3170    0.9619    1.1815 H   0  0  0  0  0  0  0  0  0  0  0  0
   -3.6675    1.1269    0.6839 H   0  0  0  0  0  0  0  0  0  0  0  0
  1  2  1  0
  2  3  1  0
  2  4  1  0
  4  5  2  0
  5  6  1  0
  6  7  2  0
  7  8  1  0
  8  9  2  3
  9 10  1  0
 10 11  2  0
 11 12  1  0
 12 13  2  0
 13 14  1  0
 13 15  1  0
 15 16  2  0
  7 17  1  0
 17 18  2  0
 18  4  1  0
 16 10  1  0
  1 19  1  0
  1 20  1  0
  1 21  1  0
  3 22  1  0
  3 23  1  0
  3 24  1  0
  5 25  1  0
  6 26  1  0
  8 27  1  0
  9 28  1  0
 11 29  1  0
 12 30  1  0
 14 31  1  0
 14 32  1  0
 14 33  1  0
 15 34  1  0
 16 35  1  0
 17 36  1  0
 18 37  1  0
M  CHG  1  13   1
M  END
$$$$
