
     RDKit          3D

 31 33  0  0  0  0  0  0  0  0999 V2000
   -3.9444   -2.8532   -2.7948 C   0  0  0  0  0  0  0  0  0  0  0  0
   -2.5053   -2.7412   -2.7638 N   0  0  0  0  0  0  0  0  0  0  0  0
   -1.6180   -3.4293   -3.5316 C   0  0  0  0  0  0  0  0  0  0  0  0
   -0.3797   -2.9865   -3.1448 C   0  0  0  0  0  0  0  0  0  0  0  0
    1.2566   -3.5649   -3.8434 Br  0  0  0  0  0  0  0  0  0  0  0  0
   -0.5971   -2.0239   -2.1315 C   0  0  0  0  0  0  0  0  0  0  0  0
    0.3814   -1.2296   -1.3640 C   0  0  0  0  0  0  0  0  0  0  0  0
    1.5889   -1.3235   -1.5297 O   0  0  0  0  0  0  0  0  0  0  0  0
   -0.2448   -0.3978   -0.4642 N   0  0  0  0  0  0  0  0  0  0  0  0
    0.3489    0.4785    0.4116 C   0  0  0  0  0  0  0  0  0  0  0  0
   -0.8598    1.2940    1.3474 S   0  0  0  0  0  0  0  0  0  0  0  0
    0.3119    2.1495    2.1663 C   0  0  0  0  0  0  0  0  0  0  0  0
    1.5862    1.8571    1.7723 C   0  0  0  0  0  0  0  0  0  0  0  0
    1.6364    0.8797    0.7413 C   0  0  0  0  0  0  0  0  0  0  0  0
    2.8785    0.4359    0.1814 C   0  0  0  0  0  0  0  0  0  0  0  0
    3.9458    0.1637   -0.1876 N   0  0  0  0  0  0  0  0  0  0  0  0
    2.5770    2.6583    2.5385 C   0  0  0  0  0  0  0  0  0  0  0  0
    1.7112    3.2274    3.7065 C   0  0  0  0  0  0  0  0  0  0  0  0
    0.2251    3.1685    3.2374 C   0  0  0  0  0  0  0  0  0  0  0  0
   -1.9267   -1.8801   -1.9030 N   0  0  0  0  0  0  0  0  0  0  0  0
   -4.3598   -1.8755   -3.0514 H   0  0  0  0  0  0  0  0  0  0  0  0
   -4.2859   -3.1698   -1.8062 H   0  0  0  0  0  0  0  0  0  0  0  0
   -4.2360   -3.5920   -3.5454 H   0  0  0  0  0  0  0  0  0  0  0  0
   -1.9292   -4.1562   -4.2686 H   0  0  0  0  0  0  0  0  0  0  0  0
   -1.2610   -0.4552   -0.4589 H   0  0  0  0  0  0  0  0  0  0  0  0
    3.4071    2.0570    2.9195 H   0  0  0  0  0  0  0  0  0  0  0  0
    2.9695    3.4729    1.9209 H   0  0  0  0  0  0  0  0  0  0  0  0
    1.8329    2.5817    4.5865 H   0  0  0  0  0  0  0  0  0  0  0  0
    2.0166    4.2376    3.9963 H   0  0  0  0  0  0  0  0  0  0  0  0
   -0.0878    4.1355    2.8305 H   0  0  0  0  0  0  0  0  0  0  0  0
   -0.4385    2.8814    4.0575 H   0  0  0  0  0  0  0  0  0  0  0  0
  1  2  1  0
  2  3  1  0
  3  4  2  0
  4  5  1  0
  4  6  1  0
  6  7  1  0
  7  8  2  0
  7  9  1  0
  9 10  1  0
 10 11  1  0
 11 12  1  0
 12 13  2  0
 13 14  1  0
 14 15  1  0
 15 16  3  0
 13 17  1  0
 17 18  1  0
 18 19  1  0
  6 20  2  0
 20  2  1  0
 14 10  2  0
 19 12  1  0
  1 21  1  0
  1 22  1  0
  1 23  1  0
  3 24  1  0
  9 25  1  0
 17 26  1  0
 17 27  1  0
 18 28  1  0
 18 29  1  0
 19 30  1  0
 19 31  1  0
M  END
$$$$
