
     RDKit          3D

 53 55  0  0  0  0  0  0  0  0999 V2000
   -4.7120   -3.3610    1.7746 C   0  0  0  0  0  0  0  0  0  0  0  0
   -5.7885   -2.4222    1.7427 O   0  0  0  0  0  0  0  0  0  0  0  0
   -6.0097   -1.9685    0.4685 C   0  0  0  0  0  0  0  0  0  0  0  0
   -6.5345   -2.8328   -0.4970 C   0  0  0  0  0  0  0  0  0  0  0  0
   -6.8021   -2.3636   -1.7822 C   0  0  0  0  0  0  0  0  0  0  0  0
   -6.5613   -1.0285   -2.0977 C   0  0  0  0  0  0  0  0  0  0  0  0
   -6.0575   -0.1602   -1.1263 C   0  0  0  0  0  0  0  0  0  0  0  0
   -5.7771   -0.6177    0.1739 C   0  0  0  0  0  0  0  0  0  0  0  0
   -5.2395    0.3392    1.2082 C   0  0  0  0  0  0  0  0  0  0  0  0
   -3.9467    0.8581    0.8313 N   0  0  0  0  0  0  0  0  0  0  0  0
   -2.7685    0.2693    1.2213 C   0  0  0  0  0  0  0  0  0  0  0  0
   -2.6336   -0.6574    2.0070 O   0  0  0  0  0  0  0  0  0  0  0  0
   -1.5257    0.8921    0.5451 C   0  0  0  0  0  0  0  0  0  0  0  0
   -1.6626    1.7359   -0.3301 O   0  0  0  0  0  0  0  0  0  0  0  0
   -0.3336    0.3925    1.0136 N   0  0  0  0  0  0  0  0  0  0  0  0
    0.9255    0.6707    0.3449 C   0  0  0  0  0  0  0  0  0  0  0  0
    2.1426    0.3327    1.2200 C   0  0  0  0  0  0  0  0  0  0  0  0
    2.0958   -1.0684    1.5646 O   0  0  0  0  0  0  0  0  0  0  0  0
    3.4611   -1.4456    1.7535 C   0  0  0  0  0  0  0  0  0  0  0  0
    4.1816   -0.7221    0.6389 C   0  0  0  0  0  0  0  0  0  0  0  0
    3.4068    0.5253    0.4731 N   0  0  0  0  0  0  0  0  0  0  0  0
    4.1860    1.9760    0.8479 S   0  0  0  0  0  6  0  0  0  0  0  0
    3.2509    3.0560    0.6288 O   0  0  0  0  0  0  0  0  0  0  0  0
    4.8416    1.7907    2.1251 O   0  0  0  0  0  0  0  0  0  0  0  0
    5.4247    2.0780   -0.4190 C   0  0  0  0  0  0  0  0  0  0  0  0
    5.0186    2.2182   -1.7506 C   0  0  0  0  0  0  0  0  0  0  0  0
    5.9812    2.2930   -2.7581 C   0  0  0  0  0  0  0  0  0  0  0  0
    7.3359    2.2342   -2.4265 C   0  0  0  0  0  0  0  0  0  0  0  0
    8.6382    2.3328   -3.7928 Br  0  0  0  0  0  0  0  0  0  0  0  0
    7.7398    2.1041   -1.0964 C   0  0  0  0  0  0  0  0  0  0  0  0
    6.7809    2.0276   -0.0837 C   0  0  0  0  0  0  0  0  0  0  0  0
   -3.8587   -3.0287    1.1712 H   0  0  0  0  0  0  0  0  0  0  0  0
   -5.0510   -4.3466    1.4403 H   0  0  0  0  0  0  0  0  0  0  0  0
   -4.3782   -3.4520    2.8124 H   0  0  0  0  0  0  0  0  0  0  0  0
   -6.7499   -3.8674   -0.2472 H   0  0  0  0  0  0  0  0  0  0  0  0
   -7.2077   -3.0363   -2.5335 H   0  0  0  0  0  0  0  0  0  0  0  0
   -6.7737   -0.6593   -3.0984 H   0  0  0  0  0  0  0  0  0  0  0  0
   -5.8872    0.8819   -1.3893 H   0  0  0  0  0  0  0  0  0  0  0  0
   -5.1650   -0.1201    2.1991 H   0  0  0  0  0  0  0  0  0  0  0  0
   -5.9220    1.1917    1.2984 H   0  0  0  0  0  0  0  0  0  0  0  0
   -3.8766    1.5499    0.0912 H   0  0  0  0  0  0  0  0  0  0  0  0
   -0.4025   -0.4415    1.5955 H   0  0  0  0  0  0  0  0  0  0  0  0
    0.9314    0.0587   -0.5655 H   0  0  0  0  0  0  0  0  0  0  0  0
    0.9400    1.7212    0.0353 H   0  0  0  0  0  0  0  0  0  0  0  0
    2.1187    0.8970    2.1601 H   0  0  0  0  0  0  0  0  0  0  0  0
    3.5664   -2.5317    1.6932 H   0  0  0  0  0  0  0  0  0  0  0  0
    3.7882   -1.1055    2.7428 H   0  0  0  0  0  0  0  0  0  0  0  0
    5.2408   -0.5771    0.8627 H   0  0  0  0  0  0  0  0  0  0  0  0
    4.1063   -1.2826   -0.2995 H   0  0  0  0  0  0  0  0  0  0  0  0
    3.9615    2.2709   -2.0042 H   0  0  0  0  0  0  0  0  0  0  0  0
    5.6671    2.3989   -3.7933 H   0  0  0  0  0  0  0  0  0  0  0  0
    8.7957    2.0666   -0.8400 H   0  0  0  0  0  0  0  0  0  0  0  0
    7.0982    1.9338    0.9532 H   0  0  0  0  0  0  0  0  0  0  0  0
  1  2  1  0
  2  3  1  0
  3  4  2  0
  4  5  1  0
  5  6  2  0
  6  7  1  0
  7  8  2  0
  8  9  1  0
  9 10  1  0
 10 11  1  0
 11 12  2  0
 11 13  1  0
 13 14  2  0
 13 15  1  0
 15 16  1  0
 16 17  1  0
 17 18  1  0
 18 19  1  0
 19 20  1  0
 20 21  1  0
 21 22  1  0
 22 23  2  0
 22 24  2  0
 22 25  1  0
 25 26  2  0
 26 27  1  0
 27 28  2  0
 28 29  1  0
 28 30  1  0
 30 31  2  0
  8  3  1  0
 21 17  1  0
 31 25  1  0
  1 32  1  0
  1 33  1  0
  1 34  1  0
  4 35  1  0
  5 36  1  0
  6 37  1  0
  7 38  1  0
  9 39  1  0
  9 40  1  0
 10 41  1  0
 15 42  1  0
 16 43  1  0
 16 44  1  0
 17 45  1  0
 19 46  1  0
 19 47  1  0
 20 48  1  0
 20 49  1  0
 26 50  1  0
 27 51  1  0
 30 52  1  0
 31 53  1  0
M  END
$$$$
