
     RDKit          3D

 45 44  0  0  0  0  0  0  0  0999 V2000
    6.4200   -2.7453    1.2690 C   0  0  0  0  0  0  0  0  0  0  0  0
    5.2479   -2.6733    2.2353 C   0  0  0  0  0  0  0  0  0  0  0  0
    3.8855   -2.7946    1.5512 C   0  0  0  0  0  0  0  0  0  0  0  0
    3.5693   -1.6266    0.6223 C   0  0  0  0  0  0  0  0  0  0  0  0
    2.2313   -1.7330    0.0862 N   0  0  0  0  0  0  0  0  0  0  0  0
    1.8380   -1.0231   -1.0076 C   0  0  0  0  0  0  0  0  0  0  0  0
    2.5715   -0.3634   -1.7260 O   0  0  0  0  0  0  0  0  0  0  0  0
    0.4974   -1.1481   -1.1513 O   0  0  0  0  0  0  0  0  0  0  0  0
   -0.0891   -0.4789   -2.2857 C   0  0  0  0  0  0  0  0  0  0  0  0
   -0.8197    0.8068   -1.8554 C   0  0  0  0  0  0  0  0  0  0  0  0
    0.1408    1.8429   -1.2472 C   0  0  0  0  0  0  0  0  0  0  0  0
   -0.5077    3.2040   -1.0268 C   0  0  0  0  0  0  0  0  0  0  0  0
   -1.8815    0.4736   -0.9127 N   0  0  0  0  0  0  0  0  0  0  0  0
   -3.1383    0.9872   -0.9729 C   0  0  0  0  0  0  0  0  0  0  0  0
   -3.5604    1.7279   -1.8465 O   0  0  0  0  0  0  0  0  0  0  0  0
   -3.8413    0.5472    0.0981 O   0  0  0  0  0  0  0  0  0  0  0  0
   -5.1993    1.0146    0.1963 C   0  0  0  0  0  0  0  0  0  0  0  0
   -5.2200    2.3883    0.8576 C   0  0  0  0  0  0  0  0  0  0  0  0
   -5.9635   -0.0001    1.0384 C   0  0  0  0  0  0  0  0  0  0  0  0
    6.4367   -1.8852    0.5934 H   0  0  0  0  0  0  0  0  0  0  0  0
    6.3777   -3.6585    0.6670 H   0  0  0  0  0  0  0  0  0  0  0  0
    7.3640   -2.7488    1.8235 H   0  0  0  0  0  0  0  0  0  0  0  0
    5.2990   -1.7361    2.8017 H   0  0  0  0  0  0  0  0  0  0  0  0
    5.3454   -3.4885    2.9623 H   0  0  0  0  0  0  0  0  0  0  0  0
    3.8324   -3.7371    0.9920 H   0  0  0  0  0  0  0  0  0  0  0  0
    3.1130   -2.8555    2.3285 H   0  0  0  0  0  0  0  0  0  0  0  0
    3.6280   -0.6751    1.1625 H   0  0  0  0  0  0  0  0  0  0  0  0
    4.2763   -1.5820   -0.2125 H   0  0  0  0  0  0  0  0  0  0  0  0
    1.4777   -2.0742    0.6658 H   0  0  0  0  0  0  0  0  0  0  0  0
   -0.8097   -1.1826   -2.7185 H   0  0  0  0  0  0  0  0  0  0  0  0
    0.6495   -0.2655   -3.0672 H   0  0  0  0  0  0  0  0  0  0  0  0
   -1.2782    1.2404   -2.7529 H   0  0  0  0  0  0  0  0  0  0  0  0
    0.5341    1.4862   -0.2879 H   0  0  0  0  0  0  0  0  0  0  0  0
    0.9961    1.9804   -1.9195 H   0  0  0  0  0  0  0  0  0  0  0  0
   -0.9334    3.5923   -1.9574 H   0  0  0  0  0  0  0  0  0  0  0  0
    0.2388    3.9215   -0.6710 H   0  0  0  0  0  0  0  0  0  0  0  0
   -1.3019    3.1529   -0.2761 H   0  0  0  0  0  0  0  0  0  0  0  0
   -1.6658   -0.0839   -0.0979 H   0  0  0  0  0  0  0  0  0  0  0  0
   -5.6636    1.0603   -0.7964 H   0  0  0  0  0  0  0  0  0  0  0  0
   -4.7274    2.3591    1.8358 H   0  0  0  0  0  0  0  0  0  0  0  0
   -4.6741    3.1208    0.2543 H   0  0  0  0  0  0  0  0  0  0  0  0
   -6.2448    2.7482    0.9909 H   0  0  0  0  0  0  0  0  0  0  0  0
   -7.0117    0.2903    1.1577 H   0  0  0  0  0  0  0  0  0  0  0  0
   -5.5126   -0.1074    2.0313 H   0  0  0  0  0  0  0  0  0  0  0  0
   -5.9268   -0.9889    0.5683 H   0  0  0  0  0  0  0  0  0  0  0  0
  1  2  1  0
  2  3  1  0
  3  4  1  0
  4  5  1  0
  5  6  1  0
  6  7  2  0
  6  8  1  0
  8  9  1  0
  9 10  1  0
 10 11  1  0
 11 12  1  0
 10 13  1  0
 13 14  1  0
 14 15  2  0
 14 16  1  0
 16 17  1  0
 17 18  1  0
 17 19  1  0
  1 20  1  0
  1 21  1  0
  1 22  1  0
  2 23  1  0
  2 24  1  0
  3 25  1  0
  3 26  1  0
  4 27  1  0
  4 28  1  0
  5 29  1  0
  9 30  1  0
  9 31  1  0
 10 32  1  0
 11 33  1  0
 11 34  1  0
 12 35  1  0
 12 36  1  0
 12 37  1  0
 13 38  1  0
 17 39  1  0
 18 40  1  0
 18 41  1  0
 18 42  1  0
 19 43  1  0
 19 44  1  0
 19 45  1  0
M  END
$$$$
