
     RDKit          3D

 43 45  0  0  0  0  0  0  0  0999 V2000
   -5.8509   -0.9940    1.1008 C   0  0  0  0  0  0  0  0  0  0  0  0
   -6.0266    0.4482    1.2065 N   0  0  0  0  0  0  0  0  0  0  0  0
   -7.3505    0.9026    1.5943 C   0  0  0  0  0  0  0  0  0  0  0  0
   -4.9854    1.3749    1.2130 C   0  0  0  0  0  0  0  0  0  0  0  0
   -5.1007    2.5206    1.6436 O   0  0  0  0  0  0  0  0  0  0  0  0
   -3.6666    0.9849    0.6615 C   0  0  0  0  0  0  0  0  0  0  0  0
   -2.5162    1.2587    1.4032 C   0  0  0  0  0  0  0  0  0  0  0  0
   -1.2607    0.9257    0.8865 C   0  0  0  0  0  0  0  0  0  0  0  0
   -1.1413    0.3308   -0.3776 C   0  0  0  0  0  0  0  0  0  0  0  0
    0.1589    0.0266   -0.8193 N   0  0  0  0  0  0  0  0  0  0  0  0
    0.5480   -0.5766   -2.0024 C   0  0  0  0  0  0  0  0  0  0  0  0
   -0.2080   -0.9696   -2.8845 O   0  0  0  0  0  0  0  0  0  0  0  0
    1.9902   -0.7151   -2.1075 C   0  0  0  0  0  0  0  0  0  0  0  0
    2.7803   -1.2571   -3.1006 C   0  0  0  0  0  0  0  0  0  0  0  0
    4.1224   -1.1250   -2.6699 C   0  0  0  0  0  0  0  0  0  0  0  0
    4.0885   -0.5066   -1.4347 C   0  0  0  0  0  0  0  0  0  0  0  0
    5.1072   -0.0909   -0.4719 C   0  0  0  0  0  0  0  0  0  0  0  0
    4.7667    0.6183    0.6917 C   0  0  0  0  0  0  0  0  0  0  0  0
    5.7474    1.0137    1.6083 C   0  0  0  0  0  0  0  0  0  0  0  0
    7.0825    0.7027    1.3698 C   0  0  0  0  0  0  0  0  0  0  0  0
    8.2895    1.1868    2.4948 Cl  0  0  0  0  0  0  0  0  0  0  0  0
    7.4441    0.0013    0.2235 C   0  0  0  0  0  0  0  0  0  0  0  0
    6.4610   -0.3924   -0.6916 C   0  0  0  0  0  0  0  0  0  0  0  0
    2.7879   -0.2567   -1.0904 O   0  0  0  0  0  0  0  0  0  0  0  0
   -2.2973    0.0858   -1.1236 C   0  0  0  0  0  0  0  0  0  0  0  0
   -3.5567    0.4198   -0.6119 C   0  0  0  0  0  0  0  0  0  0  0  0
   -4.8012   -1.2898    1.0730 H   0  0  0  0  0  0  0  0  0  0  0  0
   -6.3079   -1.4694    1.9746 H   0  0  0  0  0  0  0  0  0  0  0  0
   -6.3574   -1.3403    0.1957 H   0  0  0  0  0  0  0  0  0  0  0  0
   -7.5186    0.6404    2.6431 H   0  0  0  0  0  0  0  0  0  0  0  0
   -8.0970    0.4073    0.9664 H   0  0  0  0  0  0  0  0  0  0  0  0
   -7.4545    1.9848    1.4765 H   0  0  0  0  0  0  0  0  0  0  0  0
   -2.5973    1.7343    2.3781 H   0  0  0  0  0  0  0  0  0  0  0  0
   -0.3801    1.1445    1.4854 H   0  0  0  0  0  0  0  0  0  0  0  0
    0.9254    0.2705   -0.2015 H   0  0  0  0  0  0  0  0  0  0  0  0
    2.4184   -1.6933   -4.0223 H   0  0  0  0  0  0  0  0  0  0  0  0
    5.0065   -1.4432   -3.2040 H   0  0  0  0  0  0  0  0  0  0  0  0
    3.7305    0.8757    0.8983 H   0  0  0  0  0  0  0  0  0  0  0  0
    5.4604    1.5626    2.5014 H   0  0  0  0  0  0  0  0  0  0  0  0
    8.4860   -0.2435    0.0338 H   0  0  0  0  0  0  0  0  0  0  0  0
    6.7720   -0.9409   -1.5776 H   0  0  0  0  0  0  0  0  0  0  0  0
   -2.2557   -0.3532   -2.1157 H   0  0  0  0  0  0  0  0  0  0  0  0
   -4.4433    0.2479   -1.2169 H   0  0  0  0  0  0  0  0  0  0  0  0
  1  2  1  0
  2  3  1  0
  2  4  1  0
  4  5  2  0
  4  6  1  0
  6  7  2  0
  7  8  1  0
  8  9  2  0
  9 10  1  0
 10 11  1  0
 11 12  2  0
 11 13  1  0
 13 14  2  0
 14 15  1  0
 15 16  2  0
 16 17  1  0
 17 18  2  0
 18 19  1  0
 19 20  2  0
 20 21  1  0
 20 22  1  0
 22 23  2  0
 16 24  1  0
  9 25  1  0
 25 26  2  0
 26  6  1  0
 24 13  1  0
 23 17  1  0
  1 27  1  0
  1 28  1  0
  1 29  1  0
  3 30  1  0
  3 31  1  0
  3 32  1  0
  7 33  1  0
  8 34  1  0
 10 35  1  0
 14 36  1  0
 15 37  1  0
 18 38  1  0
 19 39  1  0
 22 40  1  0
 23 41  1  0
 25 42  1  0
 26 43  1  0
M  END
$$$$
