
     RDKit          3D

 34 35  0  0  0  0  0  0  0  0999 V2000
    6.3909    0.5866    0.1847 C   0  0  0  0  0  0  0  0  0  0  0  0
    5.1997    1.2691   -0.1860 O   0  0  0  0  0  0  0  0  0  0  0  0
    4.0178    0.6246    0.0528 C   0  0  0  0  0  0  0  0  0  0  0  0
    3.8721   -0.6383    0.6274 C   0  0  0  0  0  0  0  0  0  0  0  0
    2.5949   -1.1804    0.8146 C   0  0  0  0  0  0  0  0  0  0  0  0
    1.4568   -0.4742    0.4224 C   0  0  0  0  0  0  0  0  0  0  0  0
    0.1844   -1.0232    0.6289 N   0  0  0  0  0  0  0  0  0  0  0  0
   -0.3545   -1.5936   -0.3998 C   0  0  0  0  0  0  0  0  0  0  0  0
   -1.7232   -2.1902   -0.2975 C   0  0  0  0  0  0  0  0  0  0  0  0
   -2.7255   -1.4196   -1.1161 C   0  0  0  0  0  0  0  0  0  0  0  0
   -2.9167   -1.7009   -2.2991 O   0  0  0  0  0  0  0  0  0  0  0  0
   -3.4764   -0.2839   -0.4996 C   0  0  0  0  0  0  0  0  0  0  0  0
   -3.1257    0.2728    0.7370 C   0  0  0  0  0  0  0  0  0  0  0  0
   -3.8628    1.3406    1.2619 C   0  0  0  0  0  0  0  0  0  0  0  0
   -4.9474    1.8549    0.5538 C   0  0  0  0  0  0  0  0  0  0  0  0
   -5.8489    3.1668    1.2042 Cl  0  0  0  0  0  0  0  0  0  0  0  0
   -5.3019    1.3138   -0.6791 C   0  0  0  0  0  0  0  0  0  0  0  0
   -4.5663    0.2482   -1.2057 C   0  0  0  0  0  0  0  0  0  0  0  0
    1.6036    0.7955   -0.1370 C   0  0  0  0  0  0  0  0  0  0  0  0
    2.8774    1.3379   -0.3253 C   0  0  0  0  0  0  0  0  0  0  0  0
    6.5018   -0.3468   -0.3770 H   0  0  0  0  0  0  0  0  0  0  0  0
    7.2381    1.2307   -0.0698 H   0  0  0  0  0  0  0  0  0  0  0  0
    6.4227    0.4053    1.2641 H   0  0  0  0  0  0  0  0  0  0  0  0
    4.7262   -1.2256    0.9462 H   0  0  0  0  0  0  0  0  0  0  0  0
    2.4865   -2.1592    1.2738 H   0  0  0  0  0  0  0  0  0  0  0  0
    0.1455   -1.6496   -1.3853 H   0  0  0  0  0  0  0  0  0  0  0  0
   -1.6794   -3.2124   -0.6905 H   0  0  0  0  0  0  0  0  0  0  0  0
   -2.0460   -2.2721    0.7442 H   0  0  0  0  0  0  0  0  0  0  0  0
   -2.2770   -0.0892    1.3117 H   0  0  0  0  0  0  0  0  0  0  0  0
   -3.5805    1.7678    2.2213 H   0  0  0  0  0  0  0  0  0  0  0  0
   -6.1446    1.7146   -1.2368 H   0  0  0  0  0  0  0  0  0  0  0  0
   -4.8498   -0.1656   -2.1725 H   0  0  0  0  0  0  0  0  0  0  0  0
    0.7266    1.3682   -0.4238 H   0  0  0  0  0  0  0  0  0  0  0  0
    2.9816    2.3269   -0.7647 H   0  0  0  0  0  0  0  0  0  0  0  0
  1  2  1  0
  2  3  1  0
  3  4  2  0
  4  5  1  0
  5  6  2  0
  6  7  1  0
  7  8  2  3
  8  9  1  0
  9 10  1  0
 10 11  2  0
 10 12  1  0
 12 13  2  0
 13 14  1  0
 14 15  2  0
 15 16  1  0
 15 17  1  0
 17 18  2  0
  6 19  1  0
 19 20  2  0
 20  3  1  0
 18 12  1  0
  1 21  1  0
  1 22  1  0
  1 23  1  0
  4 24  1  0
  5 25  1  0
  8 26  1  0
  9 27  1  0
  9 28  1  0
 13 29  1  0
 14 30  1  0
 17 31  1  0
 18 32  1  0
 19 33  1  0
 20 34  1  0
M  END
$$$$
