
     RDKit          3D

 39 42  0  0  0  0  0  0  0  0999 V2000
   -7.0218   -2.2564   -1.4219 O   0  0  0  0  0  0  0  0  0  0  0  0
   -6.7437   -1.1268   -1.7840 C   0  0  0  0  0  0  0  0  0  0  0  0
   -7.2817   -0.6099   -2.9053 O   0  0  0  0  0  0  0  0  0  0  0  0
   -5.8255   -0.1560   -1.1036 C   0  0  0  0  0  0  0  0  0  0  0  0
   -5.2036   -0.7931    0.1352 C   0  0  0  0  0  0  0  0  0  0  0  0
   -4.2993    0.1328    0.8269 N   0  0  0  0  0  0  0  0  0  0  0  0
   -2.9848    0.2204    0.3908 C   0  0  0  0  0  0  0  0  0  0  0  0
   -2.5267   -0.4213   -0.5430 O   0  0  0  0  0  0  0  0  0  0  0  0
   -2.2242    1.2129    1.2053 C   0  0  0  0  0  0  0  0  0  0  0  0
   -0.9346    1.5738    1.1520 C   0  0  0  0  0  0  0  0  0  0  0  0
    0.0506    1.1001    0.2459 C   0  0  0  0  0  0  0  0  0  0  0  0
    0.0158    0.8331   -1.1138 C   0  0  0  0  0  0  0  0  0  0  0  0
    1.3094    0.4150   -1.5106 C   0  0  0  0  0  0  0  0  0  0  0  0
    2.1162    0.4626   -0.3884 C   0  0  0  0  0  0  0  0  0  0  0  0
    3.5141    0.1484   -0.2348 C   0  0  0  0  0  0  0  0  0  0  0  0
    4.1343    0.2808    0.9185 N   0  0  0  0  0  0  0  0  0  0  0  0
    5.4621   -0.0873    0.7914 C   0  0  0  0  0  0  0  0  0  0  0  0
    6.4256   -0.0742    1.8203 C   0  0  0  0  0  0  0  0  0  0  0  0
    7.7383   -0.4741    1.5498 C   0  0  0  0  0  0  0  0  0  0  0  0
    8.1000   -0.8850    0.2706 C   0  0  0  0  0  0  0  0  0  0  0  0
    7.1630   -0.9069   -0.7673 C   0  0  0  0  0  0  0  0  0  0  0  0
    5.8475   -0.5032   -0.4836 C   0  0  0  0  0  0  0  0  0  0  0  0
    4.4858   -0.4202   -1.5319 S   0  0  0  0  0  0  0  0  0  0  0  0
    1.3463    0.8964    0.6606 O   0  0  0  0  0  0  0  0  0  0  0  0
   -3.2874    1.9041    2.3886 S   0  0  0  0  0  0  0  0  0  0  0  0
   -4.6733    0.9714    1.8534 C   0  0  0  0  0  0  0  0  0  0  0  0
   -6.1820    1.1522    2.5405 S   0  0  0  0  0  0  0  0  0  0  0  0
   -7.8551   -1.3245   -3.2553 H   0  0  0  0  0  0  0  0  0  0  0  0
   -6.4009    0.7340   -0.8281 H   0  0  0  0  0  0  0  0  0  0  0  0
   -5.0428    0.1388   -1.8111 H   0  0  0  0  0  0  0  0  0  0  0  0
   -5.9828   -1.1348    0.8249 H   0  0  0  0  0  0  0  0  0  0  0  0
   -4.6344   -1.6859   -0.1535 H   0  0  0  0  0  0  0  0  0  0  0  0
   -0.5545    2.2724    1.8954 H   0  0  0  0  0  0  0  0  0  0  0  0
   -0.8480    0.9268   -1.7579 H   0  0  0  0  0  0  0  0  0  0  0  0
    1.6108    0.1213   -2.5064 H   0  0  0  0  0  0  0  0  0  0  0  0
    6.1379    0.2470    2.8165 H   0  0  0  0  0  0  0  0  0  0  0  0
    8.4781   -0.4626    2.3469 H   0  0  0  0  0  0  0  0  0  0  0  0
    9.1247   -1.1938    0.0738 H   0  0  0  0  0  0  0  0  0  0  0  0
    7.4468   -1.2282   -1.7649 H   0  0  0  0  0  0  0  0  0  0  0  0
  1  2  2  0
  2  3  1  0
  2  4  1  0
  4  5  1  0
  5  6  1  0
  6  7  1  0
  7  8  2  0
  7  9  1  0
  9 10  2  3
 10 11  1  0
 11 12  2  0
 12 13  1  0
 13 14  2  0
 14 15  1  0
 15 16  2  0
 16 17  1  0
 17 18  2  0
 18 19  1  0
 19 20  2  0
 20 21  1  0
 21 22  2  0
 22 23  1  0
 14 24  1  0
  9 25  1  0
 25 26  1  0
 26 27  2  0
 26  6  1  0
 24 11  1  0
 23 15  1  0
 22 17  1  0
  3 28  1  0
  4 29  1  0
  4 30  1  0
  5 31  1  0
  5 32  1  0
 10 33  1  0
 12 34  1  0
 13 35  1  0
 18 36  1  0
 19 37  1  0
 20 38  1  0
 21 39  1  0
M  END
$$$$
