
     RDKit          3D

 47 50  0  0  0  0  0  0  0  0999 V2000
   -3.7167    4.8358   -0.1603 N   0  0  0  0  0  0  0  0  0  0  0  0
   -4.3226    3.7059    0.2509 C   0  0  0  0  0  0  0  0  0  0  0  0
   -5.6309    3.5976    0.4782 N   0  0  0  0  0  0  0  0  0  0  0  0
   -5.8287    2.2864    0.8966 O   0  0  0  0  0  0  0  0  0  0  0  0
   -4.6286    1.5794    0.9279 N   0  0  0  0  0  0  0  0  0  0  0  0
   -3.7183    2.4612    0.5142 C   0  0  0  0  0  0  0  0  0  0  0  0
   -2.3482    2.1103    0.3977 N   0  0  0  0  0  0  0  0  0  0  0  0
   -1.4138    3.0287    0.0049 N   0  0  0  0  0  0  0  0  0  0  0  0
   -0.2197    2.4656    0.0106 N   0  0  0  0  0  0  0  0  0  0  0  0
   -0.3628    1.1575    0.3921 C   0  0  0  0  0  0  0  0  0  0  0  0
    0.7800    0.2530    0.4977 C   0  0  0  0  0  0  0  0  0  0  0  0
    0.6724   -0.8996    0.9043 O   0  0  0  0  0  0  0  0  0  0  0  0
    1.9649    0.8577    0.1036 N   0  0  0  0  0  0  0  0  0  0  0  0
    3.1441    0.1754    0.1432 N   0  0  0  0  0  0  0  0  0  0  0  0
    4.1837    0.8400   -0.2488 C   0  0  0  0  0  0  0  0  0  0  0  0
    5.5316    0.2374   -0.2634 C   0  0  0  0  0  0  0  0  0  0  0  0
    6.6134    1.0123   -0.6967 C   0  0  0  0  0  0  0  0  0  0  0  0
    7.8978    0.4619   -0.7185 C   0  0  0  0  0  0  0  0  0  0  0  0
    8.0858   -0.8554   -0.3073 C   0  0  0  0  0  0  0  0  0  0  0  0
    9.3213   -1.4309   -0.3127 O   0  0  0  0  0  0  0  0  0  0  0  0
    7.0143   -1.6304    0.1243 C   0  0  0  0  0  0  0  0  0  0  0  0
    5.7302   -1.0844    0.1474 C   0  0  0  0  0  0  0  0  0  0  0  0
   -1.7040    0.8975    0.6283 C   0  0  0  0  0  0  0  0  0  0  0  0
   -2.3896   -0.3641    1.0043 C   0  0  0  0  0  0  0  0  0  0  0  0
   -3.0528   -0.8033   -0.1780 O   0  0  0  0  0  0  0  0  0  0  0  0
   -3.8346   -1.9206   -0.0757 C   0  0  0  0  0  0  0  0  0  0  0  0
   -4.5822   -2.2131   -1.2224 C   0  0  0  0  0  0  0  0  0  0  0  0
   -5.4234   -3.3261   -1.2566 C   0  0  0  0  0  0  0  0  0  0  0  0
   -5.5104   -4.1470   -0.1407 C   0  0  0  0  0  0  0  0  0  0  0  0
   -6.3158   -5.2168   -0.1677 F   0  0  0  0  0  0  0  0  0  0  0  0
   -4.7708   -3.8748    1.0041 C   0  0  0  0  0  0  0  0  0  0  0  0
   -3.9285   -2.7590    1.0383 C   0  0  0  0  0  0  0  0  0  0  0  0
   -2.7564    4.8289   -0.4991 H   0  0  0  0  0  0  0  0  0  0  0  0
   -4.2842    5.6016   -0.5082 H   0  0  0  0  0  0  0  0  0  0  0  0
    1.9402    1.8231   -0.2116 H   0  0  0  0  0  0  0  0  0  0  0  0
    4.1068    1.8884   -0.5897 H   0  0  0  0  0  0  0  0  0  0  0  0
    6.4702    2.0403   -1.0182 H   0  0  0  0  0  0  0  0  0  0  0  0
    8.7322    1.0690   -1.0558 H   0  0  0  0  0  0  0  0  0  0  0  0
    9.9695   -0.7843   -0.6361 H   0  0  0  0  0  0  0  0  0  0  0  0
    7.1766   -2.6568    0.4419 H   0  0  0  0  0  0  0  0  0  0  0  0
    4.8934   -1.6925    0.4849 H   0  0  0  0  0  0  0  0  0  0  0  0
   -3.0918   -0.1981    1.8287 H   0  0  0  0  0  0  0  0  0  0  0  0
   -1.6694   -1.1215    1.3255 H   0  0  0  0  0  0  0  0  0  0  0  0
   -4.5095   -1.5665   -2.0934 H   0  0  0  0  0  0  0  0  0  0  0  0
   -6.0061   -3.5548   -2.1426 H   0  0  0  0  0  0  0  0  0  0  0  0
   -4.8509   -4.5341    1.8626 H   0  0  0  0  0  0  0  0  0  0  0  0
   -3.3577   -2.5812    1.9437 H   0  0  0  0  0  0  0  0  0  0  0  0
  1  2  1  0
  2  3  2  0
  3  4  1  0
  4  5  1  0
  5  6  2  0
  6  7  1  0
  7  8  1  0
  8  9  2  0
  9 10  1  0
 10 11  1  0
 11 12  2  0
 11 13  1  0
 13 14  1  0
 14 15  2  3
 15 16  1  0
 16 17  2  0
 17 18  1  0
 18 19  2  0
 19 20  1  0
 19 21  1  0
 21 22  2  0
 10 23  2  0
 23 24  1  0
 24 25  1  0
 25 26  1  0
 26 27  2  0
 27 28  1  0
 28 29  2  0
 29 30  1  0
 29 31  1  0
 31 32  2  0
  6  2  1  0
 23  7  1  0
 32 26  1  0
 22 16  1  0
  1 33  1  0
  1 34  1  0
 13 35  1  0
 15 36  1  0
 17 37  1  0
 18 38  1  0
 20 39  1  0
 21 40  1  0
 22 41  1  0
 24 42  1  0
 24 43  1  0
 27 44  1  0
 28 45  1  0
 31 46  1  0
 32 47  1  0
M  END
$$$$
