
     RDKit          3D

 33 34  0  0  0  0  0  0  0  0999 V2000
   -2.8232   -1.4831   -2.9654 C   0  0  0  0  0  0  0  0  0  0  0  0
   -2.7510   -0.9172   -1.5777 C   0  0  0  0  0  0  0  0  0  0  0  0
   -3.8285   -1.0539   -0.6964 C   0  0  0  0  0  0  0  0  0  0  0  0
   -3.7765   -0.4907    0.5809 C   0  0  0  0  0  0  0  0  0  0  0  0
   -2.6444    0.2185    0.9867 C   0  0  0  0  0  0  0  0  0  0  0  0
   -2.6303    0.7946    2.2252 O   0  0  0  0  0  0  0  0  0  0  0  0
   -1.5562    0.3632    0.1211 C   0  0  0  0  0  0  0  0  0  0  0  0
   -0.3114    1.0963    0.4812 C   0  0  0  0  0  0  0  0  0  0  0  0
    0.3022    1.6877   -0.4072 O   0  0  0  0  0  0  0  0  0  0  0  0
    0.1697    1.0711    1.9119 C   0  0  0  0  0  0  0  0  0  0  0  0
    1.6651    1.1529    2.1104 C   0  0  0  0  0  0  0  0  0  0  0  0
    2.1486    1.6617    3.1237 O   0  0  0  0  0  0  0  0  0  0  0  0
    2.6024    0.5989    1.1039 C   0  0  0  0  0  0  0  0  0  0  0  0
    3.6213    1.4569    0.6613 C   0  0  0  0  0  0  0  0  0  0  0  0
    4.5452    1.0230   -0.2898 C   0  0  0  0  0  0  0  0  0  0  0  0
    4.4645   -0.2723   -0.7953 C   0  0  0  0  0  0  0  0  0  0  0  0
    3.4665   -1.1375   -0.3421 C   0  0  0  0  0  0  0  0  0  0  0  0
    2.5364   -0.7092    0.6126 C   0  0  0  0  0  0  0  0  0  0  0  0
    1.3875   -1.8717    1.1684 Cl  0  0  0  0  0  0  0  0  0  0  0  0
   -1.6246   -0.1926   -1.1666 C   0  0  0  0  0  0  0  0  0  0  0  0
   -3.4539   -2.3779   -2.9903 H   0  0  0  0  0  0  0  0  0  0  0  0
   -1.8292   -1.7768   -3.3189 H   0  0  0  0  0  0  0  0  0  0  0  0
   -3.2382   -0.7386   -3.6517 H   0  0  0  0  0  0  0  0  0  0  0  0
   -4.7209   -1.5963   -1.0031 H   0  0  0  0  0  0  0  0  0  0  0  0
   -4.6326   -0.6093    1.2392 H   0  0  0  0  0  0  0  0  0  0  0  0
   -3.4833    0.6370    2.6653 H   0  0  0  0  0  0  0  0  0  0  0  0
   -0.1758    0.1730    2.4313 H   0  0  0  0  0  0  0  0  0  0  0  0
   -0.2660    1.9504    2.4015 H   0  0  0  0  0  0  0  0  0  0  0  0
    3.6883    2.4705    1.0529 H   0  0  0  0  0  0  0  0  0  0  0  0
    5.3254    1.6974   -0.6353 H   0  0  0  0  0  0  0  0  0  0  0  0
    5.1840   -0.6122   -1.5366 H   0  0  0  0  0  0  0  0  0  0  0  0
    3.4267   -2.1520   -0.7321 H   0  0  0  0  0  0  0  0  0  0  0  0
   -0.7879   -0.0617   -1.8523 H   0  0  0  0  0  0  0  0  0  0  0  0
  1  2  1  0
  2  3  2  0
  3  4  1  0
  4  5  2  0
  5  6  1  0
  5  7  1  0
  7  8  1  0
  8  9  2  0
  8 10  1  0
 10 11  1  0
 11 12  2  0
 11 13  1  0
 13 14  2  0
 14 15  1  0
 15 16  2  0
 16 17  1  0
 17 18  2  0
 18 19  1  0
  7 20  2  0
 20  2  1  0
 18 13  1  0
  1 21  1  0
  1 22  1  0
  1 23  1  0
  3 24  1  0
  4 25  1  0
  6 26  1  0
 10 27  1  0
 10 28  1  0
 14 29  1  0
 15 30  1  0
 16 31  1  0
 17 32  1  0
 20 33  1  0
M  END
$$$$
