
     RDKit          3D

 63 67  0  0  0  0  0  0  0  0999 V2000
    3.8007    5.6583   -3.5252 C   0  0  0  0  0  0  0  0  0  0  0  0
    4.0594    4.4302   -4.1935 O   0  0  0  0  0  0  0  0  0  0  0  0
    3.8825    3.2840   -3.4689 C   0  0  0  0  0  0  0  0  0  0  0  0
    4.1117    2.1034   -4.1785 C   0  0  0  0  0  0  0  0  0  0  0  0
    3.9633    0.8585   -3.5606 C   0  0  0  0  0  0  0  0  0  0  0  0
    3.5846    0.7770   -2.2155 C   0  0  0  0  0  0  0  0  0  0  0  0
    3.4043   -0.5253   -1.5605 C   0  0  0  0  0  0  0  0  0  0  0  0
    4.7651   -1.5522   -1.4065 S   0  0  0  0  0  0  0  0  0  0  0  0
    3.8724   -2.7671   -0.5872 C   0  0  0  0  0  0  0  0  0  0  0  0
    4.3617   -3.9998   -0.1136 C   0  0  0  0  0  0  0  0  0  0  0  0
    3.4877   -4.8816    0.5322 C   0  0  0  0  0  0  0  0  0  0  0  0
    2.1507   -4.5518    0.7042 C   0  0  0  0  0  0  0  0  0  0  0  0
    1.2021   -5.3265    1.3140 O   0  0  0  0  0  0  0  0  0  0  0  0
    1.6151   -6.6066    1.7762 C   0  0  0  0  0  0  0  0  0  0  0  0
    1.6781   -3.3224    0.2296 C   0  0  0  0  0  0  0  0  0  0  0  0
    2.5369   -2.3997   -0.4246 C   0  0  0  0  0  0  0  0  0  0  0  0
    2.2742   -1.0919   -0.9882 C   0  0  0  0  0  0  0  0  0  0  0  0
    0.9846   -0.4059   -0.9824 C   0  0  0  0  0  0  0  0  0  0  0  0
    0.3075   -0.1488   -2.1769 C   0  0  0  0  0  0  0  0  0  0  0  0
   -0.9241    0.5103   -2.1534 C   0  0  0  0  0  0  0  0  0  0  0  0
   -1.4974    0.9154   -0.9447 C   0  0  0  0  0  0  0  0  0  0  0  0
   -2.7031    1.5440   -1.0767 O   0  0  0  0  0  0  0  0  0  0  0  0
   -3.3750    2.0066    0.0985 C   0  0  0  0  0  0  0  0  0  0  0  0
   -4.2254    0.8842    0.7183 C   0  0  0  0  0  0  0  0  0  0  0  0
   -5.0158    1.3303    1.8769 N   0  0  0  0  0  0  0  0  0  0  0  0
   -4.2037    1.5244    3.0980 C   0  0  0  0  0  0  0  0  0  0  0  0
   -4.3367    0.3814    4.1183 C   0  0  0  0  0  0  0  0  0  0  0  0
   -5.6838    0.1736    4.5608 O   0  0  0  0  0  0  0  0  0  0  0  0
   -6.6610    0.5231    3.5710 C   0  0  0  0  0  0  0  0  0  0  0  0
   -6.1272    0.3881    2.1378 C   0  0  0  0  0  0  0  0  0  0  0  0
   -0.8246    0.6522    0.2480 C   0  0  0  0  0  0  0  0  0  0  0  0
    0.4111   -0.0058    0.2296 C   0  0  0  0  0  0  0  0  0  0  0  0
    3.3584    1.9638   -1.5066 C   0  0  0  0  0  0  0  0  0  0  0  0
    3.5060    3.2099   -2.1283 C   0  0  0  0  0  0  0  0  0  0  0  0
    2.7577    5.7177   -3.1971 H   0  0  0  0  0  0  0  0  0  0  0  0
    4.4889    5.8032   -2.6860 H   0  0  0  0  0  0  0  0  0  0  0  0
    3.9713    6.4699   -4.2391 H   0  0  0  0  0  0  0  0  0  0  0  0
    4.4049    2.1526   -5.2243 H   0  0  0  0  0  0  0  0  0  0  0  0
    4.1385   -0.0442   -4.1412 H   0  0  0  0  0  0  0  0  0  0  0  0
    5.4066   -4.2662   -0.2482 H   0  0  0  0  0  0  0  0  0  0  0  0
    3.8946   -5.8231    0.8869 H   0  0  0  0  0  0  0  0  0  0  0  0
    1.9712   -7.2297    0.9490 H   0  0  0  0  0  0  0  0  0  0  0  0
    0.7426   -7.1014    2.2138 H   0  0  0  0  0  0  0  0  0  0  0  0
    2.3746   -6.5166    2.5599 H   0  0  0  0  0  0  0  0  0  0  0  0
    0.6269   -3.0759    0.3622 H   0  0  0  0  0  0  0  0  0  0  0  0
    0.7295   -0.4544   -3.1311 H   0  0  0  0  0  0  0  0  0  0  0  0
   -1.4415    0.7104   -3.0887 H   0  0  0  0  0  0  0  0  0  0  0  0
   -4.0464    2.8085   -0.2328 H   0  0  0  0  0  0  0  0  0  0  0  0
   -2.6813    2.4778    0.8026 H   0  0  0  0  0  0  0  0  0  0  0  0
   -4.9004    0.5302   -0.0734 H   0  0  0  0  0  0  0  0  0  0  0  0
   -3.6035    0.0185    0.9782 H   0  0  0  0  0  0  0  0  0  0  0  0
   -3.1454    1.6873    2.8689 H   0  0  0  0  0  0  0  0  0  0  0  0
   -4.5625    2.4472    3.5705 H   0  0  0  0  0  0  0  0  0  0  0  0
   -3.9652   -0.5594    3.6961 H   0  0  0  0  0  0  0  0  0  0  0  0
   -3.7323    0.5989    5.0047 H   0  0  0  0  0  0  0  0  0  0  0  0
   -7.5232   -0.1357    3.7157 H   0  0  0  0  0  0  0  0  0  0  0  0
   -6.9975    1.5474    3.7686 H   0  0  0  0  0  0  0  0  0  0  0  0
   -5.7915   -0.6473    1.9920 H   0  0  0  0  0  0  0  0  0  0  0  0
   -6.9357    0.5843    1.4252 H   0  0  0  0  0  0  0  0  0  0  0  0
   -1.2266    0.9403    1.2123 H   0  0  0  0  0  0  0  0  0  0  0  0
    0.9245   -0.1997    1.1690 H   0  0  0  0  0  0  0  0  0  0  0  0
    3.0633    1.9277   -0.4603 H   0  0  0  0  0  0  0  0  0  0  0  0
    3.3175    4.0985   -1.5358 H   0  0  0  0  0  0  0  0  0  0  0  0
  1  2  1  0
  2  3  1  0
  3  4  2  0
  4  5  1  0
  5  6  2  0
  6  7  1  0
  7  8  1  0
  8  9  1  0
  9 10  2  0
 10 11  1  0
 11 12  2  0
 12 13  1  0
 13 14  1  0
 12 15  1  0
 15 16  2  0
 16 17  1  0
 17 18  1  0
 18 19  2  0
 19 20  1  0
 20 21  2  0
 21 22  1  0
 22 23  1  0
 23 24  1  0
 24 25  1  0
 25 26  1  0
 26 27  1  0
 27 28  1  0
 28 29  1  0
 29 30  1  0
 21 31  1  0
 31 32  2  0
  6 33  1  0
 33 34  2  0
 34  3  1  0
 17  7  2  0
 32 18  1  0
 16  9  1  0
 30 25  1  0
  1 35  1  0
  1 36  1  0
  1 37  1  0
  4 38  1  0
  5 39  1  0
 10 40  1  0
 11 41  1  0
 14 42  1  0
 14 43  1  0
 14 44  1  0
 15 45  1  0
 19 46  1  0
 20 47  1  0
 23 48  1  0
 23 49  1  0
 24 50  1  0
 24 51  1  0
 26 52  1  0
 26 53  1  0
 27 54  1  0
 27 55  1  0
 29 56  1  0
 29 57  1  0
 30 58  1  0
 30 59  1  0
 31 60  1  0
 32 61  1  0
 33 62  1  0
 34 63  1  0
M  END
$$$$
