
     RDKit          3D

 59 62  0  0  0  0  0  0  0  0999 V2000
   -9.4171   -1.3705    1.1214 C   0  0  0  0  0  0  0  0  0  0  0  0
   -8.3010   -0.3776    0.9603 C   0  0  0  0  0  0  0  0  0  0  0  0
   -7.5333    0.0191    2.0681 C   0  0  0  0  0  0  0  0  0  0  0  0
   -6.4804    0.9255    1.9103 C   0  0  0  0  0  0  0  0  0  0  0  0
   -6.1776    1.4154    0.6376 C   0  0  0  0  0  0  0  0  0  0  0  0
   -5.0755    2.3818    0.4734 C   0  0  0  0  0  0  0  0  0  0  0  0
   -5.2361    3.5111    0.9296 O   0  0  0  0  0  0  0  0  0  0  0  0
   -3.9261    1.9691   -0.1848 N   0  0  0  0  0  0  0  0  0  0  0  0
   -2.9511    2.9759   -0.6119 C   0  0  0  0  0  0  0  0  0  0  0  0
   -1.4981    2.5358   -0.3590 C   0  0  0  0  0  0  0  0  0  0  0  0
   -1.2531    1.1877   -0.9363 N   0  0  0  0  0  0  0  0  0  0  0  0
    0.1126    0.8489   -0.9552 C   0  0  0  0  0  0  0  0  0  0  0  0
    0.9999    1.6037   -1.7401 C   0  0  0  0  0  0  0  0  0  0  0  0
    2.3747    1.3286   -1.7870 C   0  0  0  0  0  0  0  0  0  0  0  0
    2.9028    0.2749   -1.0512 C   0  0  0  0  0  0  0  0  0  0  0  0
    4.2673   -0.0648   -1.0166 N   0  0  0  0  0  0  0  0  0  0  0  0
    5.3165    0.5197   -1.7126 C   0  0  0  0  0  0  0  0  0  0  0  0
    5.2403    1.4637   -2.4926 O   0  0  0  0  0  0  0  0  0  0  0  0
    6.6693   -0.0723   -1.3393 C   0  0  0  0  0  0  0  0  0  0  0  0
    6.6726   -1.8837   -1.5814 S   0  0  0  0  0  0  0  0  0  0  0  0
    7.7168   -2.3960   -0.2224 C   0  0  0  0  0  0  0  0  0  0  0  0
    8.9536   -1.7939    0.0467 C   0  0  0  0  0  0  0  0  0  0  0  0
    9.7292   -2.2242    1.1332 C   0  0  0  0  0  0  0  0  0  0  0  0
    9.2711   -3.2635    1.9449 C   0  0  0  0  0  0  0  0  0  0  0  0
   10.2241   -3.7930    3.2815 Cl  0  0  0  0  0  0  0  0  0  0  0  0
    8.0507   -3.8795    1.6767 C   0  0  0  0  0  0  0  0  0  0  0  0
    7.2785   -3.4506    0.5890 C   0  0  0  0  0  0  0  0  0  0  0  0
    2.0320   -0.5018   -0.2824 C   0  0  0  0  0  0  0  0  0  0  0  0
    0.6584   -0.2219   -0.2399 C   0  0  0  0  0  0  0  0  0  0  0  0
   -2.2072    0.1782   -0.4270 C   0  0  0  0  0  0  0  0  0  0  0  0
   -3.6637    0.6108   -0.6829 C   0  0  0  0  0  0  0  0  0  0  0  0
   -6.9320    1.0304   -0.4725 C   0  0  0  0  0  0  0  0  0  0  0  0
   -7.9853    0.1261   -0.3102 C   0  0  0  0  0  0  0  0  0  0  0  0
  -10.1949   -1.2116    0.3564 H   0  0  0  0  0  0  0  0  0  0  0  0
   -9.0304   -2.3968    1.0261 H   0  0  0  0  0  0  0  0  0  0  0  0
   -9.8920   -1.2599    2.1030 H   0  0  0  0  0  0  0  0  0  0  0  0
   -7.7583   -0.3682    3.0590 H   0  0  0  0  0  0  0  0  0  0  0  0
   -5.9047    1.2449    2.7743 H   0  0  0  0  0  0  0  0  0  0  0  0
   -3.1072    3.1177   -1.6904 H   0  0  0  0  0  0  0  0  0  0  0  0
   -3.1377    3.9402   -0.1255 H   0  0  0  0  0  0  0  0  0  0  0  0
   -0.8372    3.2949   -0.7930 H   0  0  0  0  0  0  0  0  0  0  0  0
   -1.3060    2.5048    0.7207 H   0  0  0  0  0  0  0  0  0  0  0  0
    0.6213    2.4205   -2.3521 H   0  0  0  0  0  0  0  0  0  0  0  0
    2.9960    1.9619   -2.4115 H   0  0  0  0  0  0  0  0  0  0  0  0
    4.5139   -0.8637   -0.4472 H   0  0  0  0  0  0  0  0  0  0  0  0
    7.4448    0.3684   -1.9744 H   0  0  0  0  0  0  0  0  0  0  0  0
    6.8713    0.1938   -0.2988 H   0  0  0  0  0  0  0  0  0  0  0  0
    9.3344   -0.9922   -0.5865 H   0  0  0  0  0  0  0  0  0  0  0  0
   10.6869   -1.7487    1.3366 H   0  0  0  0  0  0  0  0  0  0  0  0
    7.6929   -4.6933    2.3041 H   0  0  0  0  0  0  0  0  0  0  0  0
    6.3308   -3.9475    0.3841 H   0  0  0  0  0  0  0  0  0  0  0  0
    2.4026   -1.3371    0.3045 H   0  0  0  0  0  0  0  0  0  0  0  0
    0.0389   -0.8533    0.3901 H   0  0  0  0  0  0  0  0  0  0  0  0
   -2.0692    0.0404    0.6519 H   0  0  0  0  0  0  0  0  0  0  0  0
   -2.0478   -0.7863   -0.9250 H   0  0  0  0  0  0  0  0  0  0  0  0
   -3.8749    0.6184   -1.7611 H   0  0  0  0  0  0  0  0  0  0  0  0
   -4.3330   -0.1168   -0.2123 H   0  0  0  0  0  0  0  0  0  0  0  0
   -6.7087    1.4340   -1.4544 H   0  0  0  0  0  0  0  0  0  0  0  0
   -8.5651   -0.1777   -1.1812 H   0  0  0  0  0  0  0  0  0  0  0  0
  1  2  1  0
  2  3  2  0
  3  4  1  0
  4  5  2  0
  5  6  1  0
  6  7  2  0
  6  8  1  0
  8  9  1  0
  9 10  1  0
 10 11  1  0
 11 12  1  0
 12 13  2  0
 13 14  1  0
 14 15  2  0
 15 16  1  0
 16 17  1  0
 17 18  2  0
 17 19  1  0
 19 20  1  0
 20 21  1  0
 21 22  2  0
 22 23  1  0
 23 24  2  0
 24 25  1  0
 24 26  1  0
 26 27  2  0
 15 28  1  0
 28 29  2  0
 11 30  1  0
 30 31  1  0
  5 32  1  0
 32 33  2  0
 33  2  1  0
 31  8  1  0
 29 12  1  0
 27 21  1  0
  1 34  1  0
  1 35  1  0
  1 36  1  0
  3 37  1  0
  4 38  1  0
  9 39  1  0
  9 40  1  0
 10 41  1  0
 10 42  1  0
 13 43  1  0
 14 44  1  0
 16 45  1  0
 19 46  1  0
 19 47  1  0
 22 48  1  0
 23 49  1  0
 26 50  1  0
 27 51  1  0
 28 52  1  0
 29 53  1  0
 30 54  1  0
 30 55  1  0
 31 56  1  0
 31 57  1  0
 32 58  1  0
 33 59  1  0
M  END
$$$$
