
     RDKit          3D

 36 37  0  0  0  0  0  0  0  0999 V2000
   -0.8639    1.9337    2.5625 O   0  0  0  0  0  0  0  0  0  0  0  0
   -0.2646    2.1347    1.5110 C   0  0  0  0  0  0  0  0  0  0  0  0
    1.2184    2.5094    1.4657 C   0  0  0  0  0  0  0  0  0  0  0  0
    2.0854    1.3775    1.3700 O   0  0  0  0  0  0  0  0  0  0  0  0
    2.1277    0.7761    0.1581 C   0  0  0  0  0  0  0  0  0  0  0  0
    1.4794    1.1076   -0.8239 O   0  0  0  0  0  0  0  0  0  0  0  0
    3.0775   -0.3679    0.1684 C   0  0  0  0  0  0  0  0  0  0  0  0
    3.3279   -1.0311   -1.0429 C   0  0  0  0  0  0  0  0  0  0  0  0
    4.2085   -2.1138   -1.0858 C   0  0  0  0  0  0  0  0  0  0  0  0
    4.8399   -2.5425    0.0810 C   0  0  0  0  0  0  0  0  0  0  0  0
    4.5896   -1.8862    1.2858 C   0  0  0  0  0  0  0  0  0  0  0  0
    5.3706   -2.4209    2.7230 Cl  0  0  0  0  0  0  0  0  0  0  0  0
    3.7123   -0.8032    1.3386 C   0  0  0  0  0  0  0  0  0  0  0  0
   -0.8560    2.0230    0.2709 N   0  0  0  0  0  0  0  0  0  0  0  0
   -2.2312    1.5886    0.1130 C   0  0  0  0  0  0  0  0  0  0  0  0
   -2.4206    0.0946    0.4115 C   0  0  0  0  0  0  0  0  0  0  0  0
   -3.6655   -0.4209   -0.1312 N   0  0  0  0  0  0  0  0  0  0  0  0
   -3.8632   -0.8197   -1.4332 C   0  0  0  0  0  0  0  0  0  0  0  0
   -2.8356   -0.8952   -2.3247 O   0  0  0  0  0  0  0  0  0  0  0  0
   -5.1291   -1.1143   -1.7419 C   0  0  0  0  0  0  0  0  0  0  0  0
   -6.1827   -0.9029   -0.3816 S   0  0  0  0  0  0  0  0  0  0  0  0
   -4.8328   -0.3507    0.6263 C   0  0  0  0  0  0  0  0  0  0  0  0
   -4.9635    0.0326    1.7760 O   0  0  0  0  0  0  0  0  0  0  0  0
    1.4113    3.2159    0.6488 H   0  0  0  0  0  0  0  0  0  0  0  0
    1.4597    3.0369    2.3953 H   0  0  0  0  0  0  0  0  0  0  0  0
    2.8419   -0.7043   -1.9614 H   0  0  0  0  0  0  0  0  0  0  0  0
    4.4023   -2.6218   -2.0279 H   0  0  0  0  0  0  0  0  0  0  0  0
    5.5253   -3.3861    0.0458 H   0  0  0  0  0  0  0  0  0  0  0  0
    3.5302   -0.3118    2.2909 H   0  0  0  0  0  0  0  0  0  0  0  0
   -0.2252    1.9233   -0.5261 H   0  0  0  0  0  0  0  0  0  0  0  0
   -2.5096    1.8195   -0.9208 H   0  0  0  0  0  0  0  0  0  0  0  0
   -2.8693    2.1871    0.7735 H   0  0  0  0  0  0  0  0  0  0  0  0
   -1.5831   -0.4942    0.0216 H   0  0  0  0  0  0  0  0  0  0  0  0
   -2.4174   -0.0610    1.4975 H   0  0  0  0  0  0  0  0  0  0  0  0
   -2.0209   -1.0715   -1.8306 H   0  0  0  0  0  0  0  0  0  0  0  0
   -5.4737   -1.4405   -2.7126 H   0  0  0  0  0  0  0  0  0  0  0  0
  1  2  2  0
  2  3  1  0
  3  4  1  0
  4  5  1  0
  5  6  2  0
  5  7  1  0
  7  8  2  0
  8  9  1  0
  9 10  2  0
 10 11  1  0
 11 12  1  0
 11 13  2  0
  2 14  1  0
 14 15  1  0
 15 16  1  0
 16 17  1  0
 17 18  1  0
 18 19  1  0
 18 20  2  0
 20 21  1  0
 21 22  1  0
 22 23  2  0
 13  7  1  0
 22 17  1  0
  3 24  1  0
  3 25  1  0
  8 26  1  0
  9 27  1  0
 10 28  1  0
 13 29  1  0
 14 30  1  0
 15 31  1  0
 15 32  1  0
 16 33  1  0
 16 34  1  0
 19 35  1  0
 20 36  1  0
M  END
$$$$
