
     RDKit          3D

 45 47  0  0  0  0  0  0  0  0999 V2000
   -3.8729    1.5570    1.7645 O   0  0  0  0  0  0  0  0  0  0  0  0
   -3.1495    0.8196    1.0969 C   0  0  0  0  0  0  0  0  0  0  0  0
   -3.6129    0.1761   -0.2045 C   0  0  0  0  0  0  0  0  0  0  0  0
   -5.0293    0.5173   -0.6065 C   0  0  0  0  0  0  0  0  0  0  0  0
   -6.1030   -0.2687   -0.1623 C   0  0  0  0  0  0  0  0  0  0  0  0
   -7.4127    0.0529   -0.5258 C   0  0  0  0  0  0  0  0  0  0  0  0
   -7.6557    1.1645   -1.3292 C   0  0  0  0  0  0  0  0  0  0  0  0
   -9.2693    1.5587   -1.7782 Cl  0  0  0  0  0  0  0  0  0  0  0  0
   -6.6005    1.9600   -1.7695 C   0  0  0  0  0  0  0  0  0  0  0  0
   -5.2903    1.6395   -1.4067 C   0  0  0  0  0  0  0  0  0  0  0  0
   -1.7792    0.5220    1.5367 C   0  0  0  0  0  0  0  0  0  0  0  0
   -1.2024    1.0238    2.6881 C   0  0  0  0  0  0  0  0  0  0  0  0
    0.0725    0.5438    2.7856 N   0  0  0  0  0  0  0  0  0  0  0  0
    0.3602   -0.2743    1.7135 C   0  0  0  0  0  0  0  0  0  0  0  0
    1.6559   -0.9063    1.5890 C   0  0  0  0  0  0  0  0  0  0  0  0
    2.5500   -0.7301    2.4113 O   0  0  0  0  0  0  0  0  0  0  0  0
    1.8264   -1.7035    0.4810 N   0  0  0  0  0  0  0  0  0  0  0  0
    3.0487   -2.4405    0.2358 C   0  0  0  0  0  0  0  0  0  0  0  0
    4.0195   -1.6886   -0.6695 C   0  0  0  0  0  0  0  0  0  0  0  0
    4.6546   -0.4787    0.0143 C   0  0  0  0  0  0  0  0  0  0  0  0
    5.6525    0.1490   -0.8309 N   0  0  0  0  0  0  0  0  0  0  0  0
    6.9871   -0.1409   -0.8615 C   0  0  0  0  0  0  0  0  0  0  0  0
    7.5087    0.7030   -1.8145 C   0  0  0  0  0  0  0  0  0  0  0  0
    6.5270    1.4936   -2.3549 N   0  0  0  0  0  0  0  0  0  0  0  0
    5.4216    1.1441   -1.7364 C   0  0  0  0  0  0  0  0  0  0  0  0
   -0.7816   -0.2992    0.9257 C   0  0  0  0  0  0  0  0  0  0  0  0
   -3.5246   -0.9130   -0.1061 H   0  0  0  0  0  0  0  0  0  0  0  0
   -2.9318    0.4839   -1.0076 H   0  0  0  0  0  0  0  0  0  0  0  0
   -5.9295   -1.1317    0.4771 H   0  0  0  0  0  0  0  0  0  0  0  0
   -8.2366   -0.5619   -0.1738 H   0  0  0  0  0  0  0  0  0  0  0  0
   -6.7908    2.8330   -2.3879 H   0  0  0  0  0  0  0  0  0  0  0  0
   -4.4775    2.2778   -1.7466 H   0  0  0  0  0  0  0  0  0  0  0  0
   -1.6049    1.6863    3.4452 H   0  0  0  0  0  0  0  0  0  0  0  0
    0.7299    0.7460    3.5308 H   0  0  0  0  0  0  0  0  0  0  0  0
    1.0610   -1.8195   -0.1663 H   0  0  0  0  0  0  0  0  0  0  0  0
    3.5261   -2.6989    1.1874 H   0  0  0  0  0  0  0  0  0  0  0  0
    2.7512   -3.3756   -0.2508 H   0  0  0  0  0  0  0  0  0  0  0  0
    4.8109   -2.3833   -0.9789 H   0  0  0  0  0  0  0  0  0  0  0  0
    3.5067   -1.3713   -1.5864 H   0  0  0  0  0  0  0  0  0  0  0  0
    3.9078    0.2871    0.2493 H   0  0  0  0  0  0  0  0  0  0  0  0
    5.1507   -0.7670    0.9480 H   0  0  0  0  0  0  0  0  0  0  0  0
    7.4413   -0.8919   -0.2309 H   0  0  0  0  0  0  0  0  0  0  0  0
    8.5378    0.7844   -2.1393 H   0  0  0  0  0  0  0  0  0  0  0  0
    4.4424    1.5719   -1.9074 H   0  0  0  0  0  0  0  0  0  0  0  0
   -0.8956   -0.8503    0.0017 H   0  0  0  0  0  0  0  0  0  0  0  0
  1  2  2  0
  2  3  1  0
  3  4  1  0
  4  5  2  0
  5  6  1  0
  6  7  2  0
  7  8  1  0
  7  9  1  0
  9 10  2  0
  2 11  1  0
 11 12  2  0
 12 13  1  0
 13 14  1  0
 14 15  1  0
 15 16  2  0
 15 17  1  0
 17 18  1  0
 18 19  1  0
 19 20  1  0
 20 21  1  0
 21 22  1  0
 22 23  2  0
 23 24  1  0
 24 25  2  0
 14 26  2  0
 10  4  1  0
 26 11  1  0
 25 21  1  0
  3 27  1  0
  3 28  1  0
  5 29  1  0
  6 30  1  0
  9 31  1  0
 10 32  1  0
 12 33  1  0
 13 34  1  0
 17 35  1  0
 18 36  1  0
 18 37  1  0
 19 38  1  0
 19 39  1  0
 20 40  1  0
 20 41  1  0
 22 42  1  0
 23 43  1  0
 25 44  1  0
 26 45  1  0
M  END
$$$$
