
     RDKit          3D

 93 97  0  0  0  0  0  0  0  0999 V2000
   -8.0299   -0.2576   -1.6459 C   0  0  0  0  0  0  0  0  0  0  0  0
   -6.7170   -0.5739   -2.3412 C   0  0  0  0  0  0  0  0  0  0  0  0
   -5.5869    0.3189   -1.8367 C   0  0  0  0  0  0  0  0  0  0  0  0
   -4.2844    0.0363   -2.5454 C   0  0  0  0  0  0  0  0  0  0  0  0
   -4.1375   -0.7231   -3.4922 O   0  0  0  0  0  0  0  0  0  0  0  0
   -3.2899    0.7725   -1.9752 O   0  0  0  0  0  0  0  0  0  0  0  0
   -1.9883    0.6518   -2.5681 C   0  0  0  0  0  0  0  0  0  0  0  0
   -1.2789   -0.6372   -2.1515 C   0  0  1  0  0  0  0  0  0  0  0  0
    0.1684   -0.7297   -2.7193 C   0  0  0  0  0  0  0  0  0  0  0  0
    1.0957   -0.7462   -1.4806 C   0  0  2  0  0  0  0  0  0  0  0  0
    1.1714    0.6752   -1.1741 O   0  0  0  0  0  0  0  0  0  0  0  0
    2.0749    1.1901   -0.3180 C   0  0  0  0  0  0  0  0  0  0  0  0
    2.8619    0.5764    0.3807 O   0  0  0  0  0  0  0  0  0  0  0  0
    2.0068    2.6687   -0.2866 C   0  0  0  0  0  0  0  0  0  0  0  0
    1.1152    3.4019   -0.9714 C   0  0  0  0  0  0  0  0  0  0  0  0
    1.0538    4.8713   -0.9603 C   0  0  0  0  0  0  0  0  0  0  0  0
    0.5590    5.5280   -2.0964 C   0  0  0  0  0  0  0  0  0  0  0  0
    0.4552    6.9209   -2.1274 C   0  0  0  0  0  0  0  0  0  0  0  0
    0.8350    7.6739   -1.0178 C   0  0  0  0  0  0  0  0  0  0  0  0
    1.3147    7.0336    0.1226 C   0  0  0  0  0  0  0  0  0  0  0  0
    1.4183    5.6396    0.1537 C   0  0  0  0  0  0  0  0  0  0  0  0
    2.4848   -1.3547   -1.8426 C   0  0  0  0  0  0  0  0  0  0  0  0
    3.3732   -0.6625   -2.3459 O   0  0  0  0  0  0  0  0  0  0  0  0
    2.7421   -2.8243   -1.6889 C   0  0  0  0  0  0  0  0  0  0  0  0
    2.3080   -3.6606   -2.8530 C   0  0  0  0  0  0  0  0  0  0  0  0
    3.4047   -3.3409   -0.6311 C   0  0  0  0  0  0  0  0  0  0  0  0
    3.8963   -2.6663    0.5872 C   0  0  0  0  0  0  0  0  0  0  0  0
    3.4124   -3.2225    1.9287 C   0  0  2  0  0  0  0  0  0  0  0  0
    2.8485   -2.2949    2.9834 C   0  0  0  0  0  0  0  0  0  0  0  0
    1.3527   -2.5196    3.3120 C   0  0  0  0  0  0  0  0  0  0  0  0
    0.3458   -2.3833    2.1714 C   0  0  2  0  0  0  0  0  0  0  0  0
   -1.0962   -2.4669    2.5516 C   0  0  0  0  0  0  0  0  0  0  0  0
    0.7035   -3.2112    1.0882 O   0  0  0  0  0  0  0  0  0  0  0  0
    0.7816   -1.7786    0.8312 C   0  0  1  0  0  0  0  0  0  0  0  0
    0.1930   -1.5661   -0.5196 C   0  0  1  0  0  0  0  0  0  0  0  0
   -1.1662   -0.8813   -0.6216 C   0  0  1  0  0  0  0  0  0  0  0  0
   -1.1518    0.3468    0.1212 O   0  0  0  0  0  0  0  0  0  0  0  0
   -2.2172    0.5949    0.9322 C   0  0  0  0  0  0  0  0  0  0  0  0
   -3.1923   -0.1297    1.0643 O   0  0  0  0  0  0  0  0  0  0  0  0
   -2.0059    1.9154    1.6346 C   0  0  0  0  0  0  0  0  0  0  0  0
   -3.0077    2.1219    2.7679 C   0  0  0  0  0  0  0  0  0  0  0  0
   -2.7558    3.4286    3.5023 C   0  0  0  0  0  0  0  0  0  0  0  0
    4.8898   -3.2756    1.5634 C   0  0  0  0  0  0  0  0  0  0  0  0
    5.8530   -2.3255    2.2376 C   0  0  0  0  0  0  0  0  0  0  0  0
    5.4966   -4.6327    1.3034 C   0  0  0  0  0  0  0  0  0  0  0  0
   -8.3382    0.7729   -1.8477 H   0  0  0  0  0  0  0  0  0  0  0  0
   -8.8218   -0.9231   -2.0038 H   0  0  0  0  0  0  0  0  0  0  0  0
   -7.9450   -0.3849   -0.5625 H   0  0  0  0  0  0  0  0  0  0  0  0
   -6.4614   -1.6265   -2.1766 H   0  0  0  0  0  0  0  0  0  0  0  0
   -6.8415   -0.4458   -3.4225 H   0  0  0  0  0  0  0  0  0  0  0  0
   -5.8401    1.3718   -2.0036 H   0  0  0  0  0  0  0  0  0  0  0  0
   -5.4386    0.1534   -0.7646 H   0  0  0  0  0  0  0  0  0  0  0  0
   -2.0680    0.7238   -3.6601 H   0  0  0  0  0  0  0  0  0  0  0  0
   -1.4178    1.5276   -2.2432 H   0  0  0  0  0  0  0  0  0  0  0  0
   -1.8342   -1.4879   -2.5682 H   0  0  0  0  0  0  0  0  0  0  0  0
    0.2673   -1.6513   -3.3059 H   0  0  0  0  0  0  0  0  0  0  0  0
    0.3934    0.1054   -3.3939 H   0  0  0  0  0  0  0  0  0  0  0  0
    2.7668    3.1214    0.3400 H   0  0  0  0  0  0  0  0  0  0  0  0
    0.3864    2.9169   -1.6152 H   0  0  0  0  0  0  0  0  0  0  0  0
    0.2592    4.9628   -2.9768 H   0  0  0  0  0  0  0  0  0  0  0  0
    0.0797    7.4176   -3.0187 H   0  0  0  0  0  0  0  0  0  0  0  0
    0.7600    8.7584   -1.0444 H   0  0  0  0  0  0  0  0  0  0  0  0
    1.6058    7.6195    0.9916 H   0  0  0  0  0  0  0  0  0  0  0  0
    1.7775    5.1695    1.0661 H   0  0  0  0  0  0  0  0  0  0  0  0
    2.7863   -4.6451   -2.8495 H   0  0  0  0  0  0  0  0  0  0  0  0
    2.5712   -3.1779   -3.7988 H   0  0  0  0  0  0  0  0  0  0  0  0
    1.2265   -3.8151   -2.8328 H   0  0  0  0  0  0  0  0  0  0  0  0
    3.5661   -4.4169   -0.6553 H   0  0  0  0  0  0  0  0  0  0  0  0
    3.9990   -1.5904    0.4731 H   0  0  0  0  0  0  0  0  0  0  0  0
    2.9109   -4.1863    1.9539 H   0  0  0  0  0  0  0  0  0  0  0  0
    3.4132   -2.4567    3.9109 H   0  0  0  0  0  0  0  0  0  0  0  0
    3.0096   -1.2473    2.7069 H   0  0  0  0  0  0  0  0  0  0  0  0
    1.2394   -3.5230    3.7409 H   0  0  0  0  0  0  0  0  0  0  0  0
    1.0736   -1.8073    4.0969 H   0  0  0  0  0  0  0  0  0  0  0  0
   -1.7448   -2.6279    1.6866 H   0  0  0  0  0  0  0  0  0  0  0  0
   -1.4059   -1.5426    3.0506 H   0  0  0  0  0  0  0  0  0  0  0  0
   -1.2621   -3.3006    3.2434 H   0  0  0  0  0  0  0  0  0  0  0  0
    1.7304   -1.2789    0.8983 H   0  0  0  0  0  0  0  0  0  0  0  0
    0.0681   -2.5617   -0.9756 H   0  0  0  0  0  0  0  0  0  0  0  0
   -1.9636   -1.5520   -0.2877 H   0  0  0  0  0  0  0  0  0  0  0  0
   -0.9883    1.9272    2.0434 H   0  0  0  0  0  0  0  0  0  0  0  0
   -2.1002    2.7158    0.8922 H   0  0  0  0  0  0  0  0  0  0  0  0
   -2.9419    1.2897    3.4791 H   0  0  0  0  0  0  0  0  0  0  0  0
   -4.0292    2.1190    2.3696 H   0  0  0  0  0  0  0  0  0  0  0  0
   -3.4713    3.5474    4.3232 H   0  0  0  0  0  0  0  0  0  0  0  0
   -1.7450    3.4519    3.9249 H   0  0  0  0  0  0  0  0  0  0  0  0
   -2.8654    4.2861    2.8292 H   0  0  0  0  0  0  0  0  0  0  0  0
    6.7843   -2.2605    1.6650 H   0  0  0  0  0  0  0  0  0  0  0  0
    5.4535   -1.3108    2.3241 H   0  0  0  0  0  0  0  0  0  0  0  0
    6.0924   -2.6824    3.2447 H   0  0  0  0  0  0  0  0  0  0  0  0
    4.7629   -5.3715    0.9674 H   0  0  0  0  0  0  0  0  0  0  0  0
    5.9507   -5.0273    2.2191 H   0  0  0  0  0  0  0  0  0  0  0  0
    6.2795   -4.5581    0.5400 H   0  0  0  0  0  0  0  0  0  0  0  0
  1  2  1  0
  2  3  1  0
  3  4  1  0
  4  5  2  0
  4  6  1  0
  6  7  1  0
  7  8  1  0
  8  9  1  0
  9 10  1  0
 10 11  1  1
 11 12  1  0
 12 13  2  0
 12 14  1  0
 14 15  2  0
 15 16  1  0
 16 17  2  0
 17 18  1  0
 18 19  2  0
 19 20  1  0
 20 21  2  0
 10 22  1  0
 22 23  2  0
 22 24  1  0
 24 25  1  0
 24 26  2  3
 26 27  1  0
 27 28  1  0
 28 29  1  0
 29 30  1  0
 30 31  1  0
 31 32  1  1
 31 33  1  0
 33 34  1  0
 34 35  1  0
 35 36  1  0
 36 37  1  0
 37 38  1  0
 38 39  2  0
 38 40  1  0
 40 41  1  0
 41 42  1  0
 28 43  1  0
 43 44  1  0
 43 45  1  0
 36  8  1  0
 35 10  1  0
 21 16  1  0
 43 27  1  0
 34 31  1  0
  1 46  1  0
  1 47  1  0
  1 48  1  0
  2 49  1  0
  2 50  1  0
  3 51  1  0
  3 52  1  0
  7 53  1  0
  7 54  1  0
  8 55  1  6
  9 56  1  0
  9 57  1  0
 14 58  1  0
 15 59  1  0
 17 60  1  0
 18 61  1  0
 19 62  1  0
 20 63  1  0
 21 64  1  0
 25 65  1  0
 25 66  1  0
 25 67  1  0
 26 68  1  0
 27 69  1  0
 28 70  1  6
 29 71  1  0
 29 72  1  0
 30 73  1  0
 30 74  1  0
 32 75  1  0
 32 76  1  0
 32 77  1  0
 34 78  1  1
 35 79  1  6
 36 80  1  1
 40 81  1  0
 40 82  1  0
 41 83  1  0
 41 84  1  0
 42 85  1  0
 42 86  1  0
 42 87  1  0
 44 88  1  0
 44 89  1  0
 44 90  1  0
 45 91  1  0
 45 92  1  0
 45 93  1  0
M  END
$$$$
