
     RDKit          3D

 40 42  0  0  0  0  0  0  0  0999 V2000
   -2.3637   -0.1724    2.0060 C   0  0  0  0  0  0  0  0  0  0  0  0
   -2.9086   -0.3008    0.6519 N   0  0  0  0  0  0  0  0  0  0  0  0
   -2.1213   -0.8651   -0.3698 C   0  0  0  0  0  0  0  0  0  0  0  0
   -2.5357   -1.5097   -1.3314 O   0  0  0  0  0  0  0  0  0  0  0  0
   -0.6479   -0.6783   -0.3063 C   0  0  0  0  0  0  0  0  0  0  0  0
   -0.0923    0.5826   -0.0709 C   0  0  0  0  0  0  0  0  0  0  0  0
    1.2984    0.7412   -0.0379 C   0  0  0  0  0  0  0  0  0  0  0  0
    2.1441   -0.3496   -0.2572 C   0  0  0  0  0  0  0  0  0  0  0  0
    3.5532   -0.2767   -0.2449 N   0  0  0  0  0  0  0  0  0  0  0  0
    4.3484    0.8223    0.0582 C   0  0  0  0  0  0  0  0  0  0  0  0
    3.9075    1.9130    0.4091 O   0  0  0  0  0  0  0  0  0  0  0  0
    5.7801    0.5675   -0.0600 C   0  0  0  0  0  0  0  0  0  0  0  0
    6.5310   -0.5038   -0.5205 C   0  0  0  0  0  0  0  0  0  0  0  0
    7.8957   -0.1459   -0.3804 C   0  0  0  0  0  0  0  0  0  0  0  0
    7.9046    1.1187    0.1529 C   0  0  0  0  0  0  0  0  0  0  0  0
    6.6378    1.5585    0.3482 O   0  0  0  0  0  0  0  0  0  0  0  0
    1.5758   -1.6037   -0.5257 C   0  0  0  0  0  0  0  0  0  0  0  0
    0.1877   -1.7688   -0.5559 C   0  0  0  0  0  0  0  0  0  0  0  0
   -4.3055    0.0212    0.4543 C   0  0  0  0  0  0  0  0  0  0  0  0
   -4.8940    0.0207   -0.8200 C   0  0  0  0  0  0  0  0  0  0  0  0
   -6.2412    0.3565   -1.0098 C   0  0  0  0  0  0  0  0  0  0  0  0
   -7.0331    0.7147    0.0734 C   0  0  0  0  0  0  0  0  0  0  0  0
   -6.4743    0.7441    1.3444 C   0  0  0  0  0  0  0  0  0  0  0  0
   -5.1267    0.4076    1.5301 C   0  0  0  0  0  0  0  0  0  0  0  0
   -2.3724    0.8808    2.3030 H   0  0  0  0  0  0  0  0  0  0  0  0
   -1.3434   -0.5540    2.0869 H   0  0  0  0  0  0  0  0  0  0  0  0
   -2.9606   -0.7745    2.6990 H   0  0  0  0  0  0  0  0  0  0  0  0
   -0.7313    1.4506    0.0747 H   0  0  0  0  0  0  0  0  0  0  0  0
    1.6850    1.7390    0.1471 H   0  0  0  0  0  0  0  0  0  0  0  0
    4.0341   -1.1390   -0.4529 H   0  0  0  0  0  0  0  0  0  0  0  0
    6.1569   -1.4346   -0.9211 H   0  0  0  0  0  0  0  0  0  0  0  0
    8.7649   -0.7341   -0.6399 H   0  0  0  0  0  0  0  0  0  0  0  0
    8.6869    1.8096    0.4359 H   0  0  0  0  0  0  0  0  0  0  0  0
    2.2011   -2.4717   -0.7189 H   0  0  0  0  0  0  0  0  0  0  0  0
   -0.2410   -2.7439   -0.7779 H   0  0  0  0  0  0  0  0  0  0  0  0
   -4.3248   -0.2250   -1.7113 H   0  0  0  0  0  0  0  0  0  0  0  0
   -6.6623    0.3386   -2.0118 H   0  0  0  0  0  0  0  0  0  0  0  0
   -8.0775    0.9747   -0.0742 H   0  0  0  0  0  0  0  0  0  0  0  0
   -7.0832    1.0305    2.1981 H   0  0  0  0  0  0  0  0  0  0  0  0
   -4.7524    0.4590    2.5472 H   0  0  0  0  0  0  0  0  0  0  0  0
  1  2  1  0
  2  3  1  0
  3  4  2  0
  3  5  1  0
  5  6  2  0
  6  7  1  0
  7  8  2  0
  8  9  1  0
  9 10  1  0
 10 11  2  0
 10 12  1  0
 12 13  2  0
 13 14  1  0
 14 15  2  0
 15 16  1  0
  8 17  1  0
 17 18  2  0
  2 19  1  0
 19 20  2  0
 20 21  1  0
 21 22  2  0
 22 23  1  0
 23 24  2  0
 18  5  1  0
 24 19  1  0
 16 12  1  0
  1 25  1  0
  1 26  1  0
  1 27  1  0
  6 28  1  0
  7 29  1  0
  9 30  1  0
 13 31  1  0
 14 32  1  0
 15 33  1  0
 17 34  1  0
 18 35  1  0
 20 36  1  0
 21 37  1  0
 22 38  1  0
 23 39  1  0
 24 40  1  0
M  END
$$$$
