
     RDKit          3D

 52 57  0  0  0  0  0  0  0  0999 V2000
    5.0537   -2.5184   -0.9892 C   0  0  0  0  0  0  0  0  0  0  0  0
    4.0800   -1.7762   -0.1226 C   0  0  0  0  0  0  0  0  0  0  0  0
    4.0680   -1.9307    1.2745 C   0  0  0  0  0  0  0  0  0  0  0  0
    5.1879   -2.9777    2.0755 Cl  0  0  0  0  0  0  0  0  0  0  0  0
    3.1277   -1.2601    2.0777 C   0  0  0  0  0  0  0  0  0  0  0  0
    2.1764   -0.4094    1.5109 C   0  0  0  0  0  0  0  0  0  0  0  0
    2.1811   -0.2292    0.1352 C   0  0  0  0  0  0  0  0  0  0  0  0
    3.1070   -0.9337   -0.6531 C   0  0  0  0  0  0  0  0  0  0  0  0
    2.8555   -0.6962   -1.9992 N   0  0  0  0  0  0  0  0  0  0  0  0
    1.7679    0.1536   -2.1845 C   0  0  0  0  0  0  0  0  0  0  0  0
    1.3205    0.4634   -3.2793 O   0  0  0  0  0  0  0  0  0  0  0  0
    1.2825    0.5937   -0.7575 C   0  0  1  0  0  0  0  0  0  0  0  0
   -0.1317    0.2350   -0.5232 C   0  0  0  0  0  0  0  0  0  0  0  0
   -0.9310    1.3689   -0.6665 C   0  0  0  0  0  0  0  0  0  0  0  0
   -2.2313    1.0331   -0.4113 C   0  0  0  0  0  0  0  0  0  0  0  0
   -3.2799    1.8471   -0.2968 O   0  0  0  0  0  0  0  0  0  0  0  0
   -2.2675   -0.3631   -0.2198 N   0  0  0  0  0  0  0  0  0  0  0  0
   -3.4486   -1.1583   -0.0758 C   0  0  0  0  0  0  0  0  0  0  0  0
   -3.4459   -2.3058    0.7264 C   0  0  0  0  0  0  0  0  0  0  0  0
   -4.6081   -3.0693    0.8660 C   0  0  0  0  0  0  0  0  0  0  0  0
   -5.7744   -2.7007    0.1986 C   0  0  0  0  0  0  0  0  0  0  0  0
   -5.7808   -1.5713   -0.6166 C   0  0  0  0  0  0  0  0  0  0  0  0
   -4.6229   -0.8026   -0.7577 C   0  0  0  0  0  0  0  0  0  0  0  0
   -0.9387   -0.8337   -0.2194 C   0  0  0  0  0  0  0  0  0  0  0  0
   -0.6333   -2.1146   -0.0245 O   0  0  0  0  0  0  0  0  0  0  0  0
   -0.1214    2.5746   -0.9880 C   0  0  1  0  0  0  0  0  0  0  0  0
   -0.5312    3.8488   -0.2106 C   0  0  0  0  0  0  0  0  0  0  0  0
   -0.3436    3.8021    1.2538 N   0  0  0  0  0  0  0  0  0  0  0  0
    0.8299    2.9968    1.6242 C   0  0  0  0  0  0  0  0  0  0  0  0
    1.8424    2.7445    0.4847 C   0  0  0  0  0  0  0  0  0  0  0  0
    1.2992    2.0979   -0.7167 N   0  0  0  0  0  0  0  0  0  0  0  0
    5.0760   -2.1325   -2.0124 H   0  0  0  0  0  0  0  0  0  0  0  0
    4.7858   -3.5788   -1.0335 H   0  0  0  0  0  0  0  0  0  0  0  0
    6.0735   -2.4170   -0.6035 H   0  0  0  0  0  0  0  0  0  0  0  0
    3.1309   -1.4089    3.1562 H   0  0  0  0  0  0  0  0  0  0  0  0
    1.4430    0.0757    2.1456 H   0  0  0  0  0  0  0  0  0  0  0  0
    3.3427   -1.1021   -2.7838 H   0  0  0  0  0  0  0  0  0  0  0  0
   -3.9833    1.3878    0.1967 H   0  0  0  0  0  0  0  0  0  0  0  0
   -2.5614   -2.6118    1.2783 H   0  0  0  0  0  0  0  0  0  0  0  0
   -4.6003   -3.9545    1.4972 H   0  0  0  0  0  0  0  0  0  0  0  0
   -6.6743   -3.3013    0.3044 H   0  0  0  0  0  0  0  0  0  0  0  0
   -6.6833   -1.2983   -1.1580 H   0  0  0  0  0  0  0  0  0  0  0  0
   -4.6458    0.0369   -1.4501 H   0  0  0  0  0  0  0  0  0  0  0  0
    0.3262   -2.2240   -0.1443 H   0  0  0  0  0  0  0  0  0  0  0  0
   -0.2017    2.7764   -2.0636 H   0  0  0  0  0  0  0  0  0  0  0  0
   -1.5786    4.0986   -0.4168 H   0  0  0  0  0  0  0  0  0  0  0  0
    0.0584    4.6928   -0.5912 H   0  0  0  0  0  0  0  0  0  0  0  0
   -1.1722    3.3615    1.6574 H   0  0  0  0  0  0  0  0  0  0  0  0
    0.4751    2.0405    2.0198 H   0  0  0  0  0  0  0  0  0  0  0  0
    1.3407    3.5026    2.4509 H   0  0  0  0  0  0  0  0  0  0  0  0
    2.2317    3.7225    0.1687 H   0  0  0  0  0  0  0  0  0  0  0  0
    2.7273    2.2258    0.8665 H   0  0  0  0  0  0  0  0  0  0  0  0
  1  2  1  0
  2  3  2  0
  3  4  1  0
  3  5  1  0
  5  6  2  0
  6  7  1  0
  7  8  2  0
  8  9  1  0
  9 10  1  0
 10 11  2  0
 10 12  1  0
 12 13  1  0
 13 14  1  0
 14 15  2  0
 15 16  1  0
 15 17  1  0
 17 18  1  0
 18 19  2  0
 19 20  1  0
 20 21  2  0
 21 22  1  0
 22 23  2  0
 17 24  1  0
 24 25  1  0
 14 26  1  0
 26 27  1  0
 27 28  1  0
 28 29  1  0
 29 30  1  0
 30 31  1  0
  8  2  1  0
 12 31  1  1
 12  7  1  0
 24 13  2  0
 31 26  1  0
 23 18  1  0
  1 32  1  0
  1 33  1  0
  1 34  1  0
  5 35  1  0
  6 36  1  0
  9 37  1  0
 16 38  1  0
 19 39  1  0
 20 40  1  0
 21 41  1  0
 22 42  1  0
 23 43  1  0
 25 44  1  0
 26 45  1  6
 27 46  1  0
 27 47  1  0
 28 48  1  0
 29 49  1  0
 29 50  1  0
 30 51  1  0
 30 52  1  0
M  END
$$$$
