
     RDKit          3D

 59 63  0  0  0  0  0  0  0  0999 V2000
   -5.0750   -3.5015   -1.8205 C   0  0  0  0  0  0  0  0  0  0  0  0
   -4.7500   -2.0225   -1.6554 C   0  0  0  0  0  0  0  0  0  0  0  0
   -3.2982   -1.7695   -1.2230 C   0  0  0  0  0  0  0  0  0  0  0  0
   -3.0939   -2.2590    0.1383 N   0  0  0  0  0  0  0  0  0  0  0  0
   -1.7951   -2.0074    0.5950 C   0  0  0  0  0  0  0  0  0  0  0  0
   -1.3016   -2.9394    1.4198 N   0  0  0  0  0  0  0  0  0  0  0  0
   -0.0899   -2.6863    1.9133 C   0  0  0  0  0  0  0  0  0  0  0  0
    0.6807   -1.6360    1.6120 N   0  0  0  0  0  0  0  0  0  0  0  0
    0.1918   -0.7287    0.7386 C   0  0  0  0  0  0  0  0  0  0  0  0
    1.0887    0.2667    0.2820 N   0  0  0  0  0  0  0  0  0  0  0  0
    1.5684   -0.0594   -1.0953 C   0  0  0  0  0  0  0  0  0  0  0  0
    2.4858    1.0698   -1.6291 C   0  0  0  0  0  0  0  0  0  0  0  0
    3.6026    1.3872   -0.7063 N   0  0  0  0  0  0  0  0  0  0  0  0
    4.6976    0.5121   -0.8006 C   0  0  0  0  0  0  0  0  0  0  0  0
    5.8882    0.8126   -0.1343 C   0  0  0  0  0  0  0  0  0  0  0  0
    6.9823   -0.0468   -0.2305 C   0  0  0  0  0  0  0  0  0  0  0  0
    6.8769   -1.1905   -1.0050 C   0  0  0  0  0  0  0  0  0  0  0  0
    5.6790   -1.4159   -1.6546 C   0  0  0  0  0  0  0  0  0  0  0  0
    4.6067   -0.5952   -1.5708 N   0  0  0  0  0  0  0  0  0  0  0  0
    3.1256    1.6372    0.6759 C   0  0  0  0  0  0  0  0  0  0  0  0
    2.2417    0.4791    1.1972 C   0  0  0  0  0  0  0  0  0  0  0  0
   -1.1151   -0.8359    0.2339 C   0  0  0  0  0  0  0  0  0  0  0  0
   -1.7926    0.1215   -0.6079 N   0  0  0  0  0  0  0  0  0  0  0  0
   -1.5163    1.5529   -0.4990 C   0  0  0  0  0  0  0  0  0  0  0  0
   -2.1364    2.1750    0.7376 C   0  0  0  0  0  0  0  0  0  0  0  0
   -3.4956    2.5295    0.7513 C   0  0  0  0  0  0  0  0  0  0  0  0
   -4.0761    3.0813    1.8955 C   0  0  0  0  0  0  0  0  0  0  0  0
   -3.3009    3.2807    3.0353 C   0  0  0  0  0  0  0  0  0  0  0  0
   -4.0858    4.0228    4.5867 Br  0  0  0  0  0  0  0  0  0  0  0  0
   -1.9511    2.9364    3.0406 C   0  0  0  0  0  0  0  0  0  0  0  0
   -1.3724    2.3844    1.8952 C   0  0  0  0  0  0  0  0  0  0  0  0
   -2.9577   -0.2597   -1.2929 C   0  0  0  0  0  0  0  0  0  0  0  0
   -3.6233    0.5293   -1.9677 O   0  0  0  0  0  0  0  0  0  0  0  0
   -5.0036   -4.0392   -0.8704 H   0  0  0  0  0  0  0  0  0  0  0  0
   -4.3979   -3.9743   -2.5388 H   0  0  0  0  0  0  0  0  0  0  0  0
   -6.0986   -3.6203   -2.1909 H   0  0  0  0  0  0  0  0  0  0  0  0
   -4.9427   -1.5274   -2.6153 H   0  0  0  0  0  0  0  0  0  0  0  0
   -5.4435   -1.5797   -0.9298 H   0  0  0  0  0  0  0  0  0  0  0  0
   -2.6237   -2.2860   -1.9203 H   0  0  0  0  0  0  0  0  0  0  0  0
   -3.3067   -3.2334    0.3270 H   0  0  0  0  0  0  0  0  0  0  0  0
    0.3155   -3.4053    2.6157 H   0  0  0  0  0  0  0  0  0  0  0  0
    0.7253   -0.1586   -1.7886 H   0  0  0  0  0  0  0  0  0  0  0  0
    2.0990   -1.0192   -1.0870 H   0  0  0  0  0  0  0  0  0  0  0  0
    1.8841    1.9818   -1.7360 H   0  0  0  0  0  0  0  0  0  0  0  0
    2.8455    0.8344   -2.6386 H   0  0  0  0  0  0  0  0  0  0  0  0
    5.9826    1.7292    0.4383 H   0  0  0  0  0  0  0  0  0  0  0  0
    7.9086    0.1874    0.2854 H   0  0  0  0  0  0  0  0  0  0  0  0
    7.7047   -1.8814   -1.1084 H   0  0  0  0  0  0  0  0  0  0  0  0
    5.5415   -2.2902   -2.2847 H   0  0  0  0  0  0  0  0  0  0  0  0
    3.9469    1.8226    1.3765 H   0  0  0  0  0  0  0  0  0  0  0  0
    2.5290    2.5585    0.6606 H   0  0  0  0  0  0  0  0  0  0  0  0
    1.8797    0.7464    2.1975 H   0  0  0  0  0  0  0  0  0  0  0  0
    2.8535   -0.4288    1.2813 H   0  0  0  0  0  0  0  0  0  0  0  0
   -0.4521    1.7771   -0.5509 H   0  0  0  0  0  0  0  0  0  0  0  0
   -1.9282    2.0686   -1.3767 H   0  0  0  0  0  0  0  0  0  0  0  0
   -4.1135    2.3713   -0.1317 H   0  0  0  0  0  0  0  0  0  0  0  0
   -5.1306    3.3439    1.8860 H   0  0  0  0  0  0  0  0  0  0  0  0
   -1.3439    3.0854    3.9301 H   0  0  0  0  0  0  0  0  0  0  0  0
   -0.3198    2.1125    1.9140 H   0  0  0  0  0  0  0  0  0  0  0  0
  1  2  1  0
  2  3  1  0
  3  4  1  0
  4  5  1  0
  5  6  2  0
  6  7  1  0
  7  8  2  0
  8  9  1  0
  9 10  1  0
 10 11  1  0
 11 12  1  0
 12 13  1  0
 13 14  1  0
 14 15  2  0
 15 16  1  0
 16 17  2  0
 17 18  1  0
 18 19  2  0
 13 20  1  0
 20 21  1  0
  9 22  2  0
 22 23  1  0
 23 24  1  0
 24 25  1  0
 25 26  2  0
 26 27  1  0
 27 28  2  0
 28 29  1  0
 28 30  1  0
 30 31  2  0
 23 32  1  0
 32 33  2  0
 32  3  1  0
 22  5  1  0
 31 25  1  0
 21 10  1  0
 19 14  1  0
  1 34  1  0
  1 35  1  0
  1 36  1  0
  2 37  1  0
  2 38  1  0
  3 39  1  0
  4 40  1  0
  7 41  1  0
 11 42  1  0
 11 43  1  0
 12 44  1  0
 12 45  1  0
 15 46  1  0
 16 47  1  0
 17 48  1  0
 18 49  1  0
 20 50  1  0
 20 51  1  0
 21 52  1  0
 21 53  1  0
 24 54  1  0
 24 55  1  0
 26 56  1  0
 27 57  1  0
 30 58  1  0
 31 59  1  0
M  END
$$$$
