
     RDKit          3D

 64 69  0  0  0  0  0  0  0  0999 V2000
   -3.2044    5.5329    2.2694 C   0  0  0  0  0  0  0  0  0  0  0  0
   -4.1407    4.4808    2.4654 O   0  0  0  0  0  0  0  0  0  0  0  0
   -4.0087    3.3799    1.6650 C   0  0  0  0  0  0  0  0  0  0  0  0
   -4.9290    2.3604    1.9178 C   0  0  0  0  0  0  0  0  0  0  0  0
   -4.9047    1.1761    1.1756 C   0  0  0  0  0  0  0  0  0  0  0  0
   -3.9564    0.9958    0.1620 C   0  0  0  0  0  0  0  0  0  0  0  0
   -3.9060   -0.2526   -0.6102 C   0  0  0  0  0  0  0  0  0  0  0  0
   -5.2502   -0.6590   -1.5865 S   0  0  0  0  0  0  0  0  0  0  0  0
   -4.5195   -2.1041   -2.1608 C   0  0  0  0  0  0  0  0  0  0  0  0
   -5.0889   -3.0245   -3.0685 C   0  0  0  0  0  0  0  0  0  0  0  0
   -4.3254   -4.1268   -3.3916 C   0  0  0  0  0  0  0  0  0  0  0  0
   -3.0798   -4.3319   -2.8658 C   0  0  0  0  0  0  0  0  0  0  0  0
   -2.5041   -3.4454   -1.9767 C   0  0  0  0  0  0  0  0  0  0  0  0
   -3.2413   -2.2847   -1.6094 C   0  0  0  0  0  0  0  0  0  0  0  0
   -2.8969   -1.1982   -0.7154 C   0  0  0  0  0  0  0  0  0  0  0  0
   -1.6412   -1.0673    0.0181 C   0  0  0  0  0  0  0  0  0  0  0  0
   -0.4492   -0.8284   -0.6740 C   0  0  0  0  0  0  0  0  0  0  0  0
    0.7589   -0.6911    0.0199 C   0  0  0  0  0  0  0  0  0  0  0  0
    0.7852   -0.7946    1.4104 C   0  0  0  0  0  0  0  0  0  0  0  0
    1.8831   -0.6722    2.2141 O   0  0  0  0  0  0  0  0  0  0  0  0
    3.1548   -0.4023    1.6162 C   0  0  0  0  0  0  0  0  0  0  0  0
    3.3459    1.1089    1.3865 C   0  0  0  0  0  0  0  0  0  0  0  0
    4.6280    1.5367    0.8128 N   0  0  0  0  0  0  0  0  0  0  0  0
    4.8757    1.0533   -0.5480 C   0  0  0  0  0  0  0  0  0  0  0  0
    6.0649    0.1009   -0.6536 C   0  0  0  0  0  0  0  0  0  0  0  0
    7.3460    0.7360   -0.1154 C   0  0  0  0  0  0  0  0  0  0  0  0
    7.0807    1.7016    1.0396 C   0  0  0  0  0  0  0  0  0  0  0  0
    5.7561    1.3973    1.7365 C   0  0  0  0  0  0  0  0  0  0  0  0
   -0.4066   -1.0421    2.0976 C   0  0  0  0  0  0  0  0  0  0  0  0
   -1.6147   -1.1800    1.4100 C   0  0  0  0  0  0  0  0  0  0  0  0
   -2.5057   -5.4801   -3.3165 O   0  0  0  0  0  0  0  0  0  0  0  0
   -3.5411   -5.9763   -4.1892 C   0  0  0  0  0  0  0  0  0  0  0  0
   -4.7001   -5.1198   -4.2438 O   0  0  0  0  0  0  0  0  0  0  0  0
   -3.0374    2.0226   -0.0904 C   0  0  0  0  0  0  0  0  0  0  0  0
   -3.0621    3.2072    0.6559 C   0  0  0  0  0  0  0  0  0  0  0  0
   -2.1813    5.1932    2.4637 H   0  0  0  0  0  0  0  0  0  0  0  0
   -3.4349    6.3237    2.9899 H   0  0  0  0  0  0  0  0  0  0  0  0
   -3.2958    5.9604    1.2652 H   0  0  0  0  0  0  0  0  0  0  0  0
   -5.6702    2.4873    2.7032 H   0  0  0  0  0  0  0  0  0  0  0  0
   -5.6274    0.3957    1.4021 H   0  0  0  0  0  0  0  0  0  0  0  0
   -6.0762   -2.8733   -3.4889 H   0  0  0  0  0  0  0  0  0  0  0  0
   -1.5166   -3.6371   -1.5697 H   0  0  0  0  0  0  0  0  0  0  0  0
   -0.4528   -0.7377   -1.7582 H   0  0  0  0  0  0  0  0  0  0  0  0
    1.6533   -0.4970   -0.5607 H   0  0  0  0  0  0  0  0  0  0  0  0
    3.3135   -1.0027    0.7143 H   0  0  0  0  0  0  0  0  0  0  0  0
    3.8981   -0.7536    2.3397 H   0  0  0  0  0  0  0  0  0  0  0  0
    2.5387    1.4869    0.7468 H   0  0  0  0  0  0  0  0  0  0  0  0
    3.1856    1.6299    2.3401 H   0  0  0  0  0  0  0  0  0  0  0  0
    3.9875    0.5791   -0.9824 H   0  0  0  0  0  0  0  0  0  0  0  0
    5.0758    1.9297   -1.1778 H   0  0  0  0  0  0  0  0  0  0  0  0
    5.8483   -0.8163   -0.0910 H   0  0  0  0  0  0  0  0  0  0  0  0
    6.2153   -0.2031   -1.6958 H   0  0  0  0  0  0  0  0  0  0  0  0
    8.0272   -0.0597    0.2095 H   0  0  0  0  0  0  0  0  0  0  0  0
    7.8640    1.2752   -0.9179 H   0  0  0  0  0  0  0  0  0  0  0  0
    7.9071    1.6545    1.7580 H   0  0  0  0  0  0  0  0  0  0  0  0
    7.0627    2.7304    0.6570 H   0  0  0  0  0  0  0  0  0  0  0  0
    5.6267    2.0939    2.5728 H   0  0  0  0  0  0  0  0  0  0  0  0
    5.8098    0.3879    2.1606 H   0  0  0  0  0  0  0  0  0  0  0  0
   -0.3959   -1.1240    3.1820 H   0  0  0  0  0  0  0  0  0  0  0  0
   -2.5277   -1.3693    1.9692 H   0  0  0  0  0  0  0  0  0  0  0  0
   -3.1300   -6.0751   -5.2004 H   0  0  0  0  0  0  0  0  0  0  0  0
   -3.8523   -6.9666   -3.8376 H   0  0  0  0  0  0  0  0  0  0  0  0
   -2.2906    1.9082   -0.8729 H   0  0  0  0  0  0  0  0  0  0  0  0
   -2.3275    3.9702    0.4221 H   0  0  0  0  0  0  0  0  0  0  0  0
  1  2  1  0
  2  3  1  0
  3  4  2  0
  4  5  1  0
  5  6  2  0
  6  7  1  0
  7  8  1  0
  8  9  1  0
  9 10  2  0
 10 11  1  0
 11 12  2  0
 12 13  1  0
 13 14  2  0
 14 15  1  0
 15 16  1  0
 16 17  2  0
 17 18  1  0
 18 19  2  0
 19 20  1  0
 20 21  1  0
 21 22  1  0
 22 23  1  0
 23 24  1  0
 24 25  1  0
 25 26  1  0
 26 27  1  0
 27 28  1  0
 19 29  1  0
 29 30  2  0
 12 31  1  0
 31 32  1  0
 32 33  1  0
  6 34  1  0
 34 35  2  0
 35  3  1  0
 15  7  2  0
 30 16  1  0
 14  9  1  0
 28 23  1  0
 33 11  1  0
  1 36  1  0
  1 37  1  0
  1 38  1  0
  4 39  1  0
  5 40  1  0
 10 41  1  0
 13 42  1  0
 17 43  1  0
 18 44  1  0
 21 45  1  0
 21 46  1  0
 22 47  1  0
 22 48  1  0
 24 49  1  0
 24 50  1  0
 25 51  1  0
 25 52  1  0
 26 53  1  0
 26 54  1  0
 27 55  1  0
 27 56  1  0
 28 57  1  0
 28 58  1  0
 29 59  1  0
 30 60  1  0
 32 61  1  0
 32 62  1  0
 34 63  1  0
 35 64  1  0
M  END
$$$$
