
     RDKit          3D

 39 40  0  0  0  0  0  0  0  0999 V2000
   -1.5601   -0.5892   -2.2912 C   0  0  0  0  0  0  0  0  0  0  0  0
   -2.4340   -0.1790   -1.1232 C   0  0  0  0  0  0  0  0  0  0  0  0
   -1.9264    0.1641    0.0759 C   0  0  0  0  0  0  0  0  0  0  0  0
   -0.4642    0.2401    0.3381 C   0  0  0  0  0  0  0  0  0  0  0  0
    0.3697    0.8350   -0.4581 N   0  0  0  0  0  0  0  0  0  0  0  0
    1.6976    0.7875   -0.1177 N   0  0  0  0  0  0  0  0  0  0  0  0
    2.3489   -0.3476    0.3498 C   0  0  0  0  0  0  0  0  0  0  0  0
    1.7878   -1.3927    0.6722 O   0  0  0  0  0  0  0  0  0  0  0  0
    3.8421   -0.2591    0.4542 C   0  0  0  0  0  0  0  0  0  0  0  0
    4.4971   -1.3102    1.1191 C   0  0  0  0  0  0  0  0  0  0  0  0
    5.8840   -1.2993    1.2595 C   0  0  0  0  0  0  0  0  0  0  0  0
    6.7480   -2.7192    2.1600 Br  0  0  0  0  0  0  0  0  0  0  0  0
    6.6395   -0.2482    0.7453 C   0  0  0  0  0  0  0  0  0  0  0  0
    6.0040    0.8022    0.0829 C   0  0  0  0  0  0  0  0  0  0  0  0
    4.6131    0.7954   -0.0626 C   0  0  0  0  0  0  0  0  0  0  0  0
    4.0195    1.8329   -0.7340 O   0  0  0  0  0  0  0  0  0  0  0  0
   -2.8417    0.4301    1.2086 C   0  0  0  0  0  0  0  0  0  0  0  0
   -2.3775    0.6460    2.3283 O   0  0  0  0  0  0  0  0  0  0  0  0
   -4.1923    0.4194    0.9321 N   0  0  0  0  0  0  0  0  0  0  0  0
   -5.1262    0.6913    2.0087 C   0  0  0  0  0  0  0  0  0  0  0  0
   -4.7346    0.0914   -0.3010 C   0  0  0  0  0  0  0  0  0  0  0  0
   -5.9547    0.0435   -0.4753 O   0  0  0  0  0  0  0  0  0  0  0  0
   -3.8206   -0.1907   -1.3185 N   0  0  0  0  0  0  0  0  0  0  0  0
   -4.3799   -0.5264   -2.6274 C   0  0  0  0  0  0  0  0  0  0  0  0
   -1.4975    0.2215   -3.0234 H   0  0  0  0  0  0  0  0  0  0  0  0
   -1.9559   -1.4832   -2.7857 H   0  0  0  0  0  0  0  0  0  0  0  0
   -0.5437   -0.8662   -1.9998 H   0  0  0  0  0  0  0  0  0  0  0  0
   -0.1538   -0.1894    1.3074 H   0  0  0  0  0  0  0  0  0  0  0  0
    2.2784    1.4848   -0.5850 H   0  0  0  0  0  0  0  0  0  0  0  0
    3.9184   -2.1362    1.5297 H   0  0  0  0  0  0  0  0  0  0  0  0
    7.7213   -0.2383    0.8554 H   0  0  0  0  0  0  0  0  0  0  0  0
    6.6097    1.6135   -0.3110 H   0  0  0  0  0  0  0  0  0  0  0  0
    4.7061    2.4601   -1.0256 H   0  0  0  0  0  0  0  0  0  0  0  0
   -4.6320    1.0769    2.9042 H   0  0  0  0  0  0  0  0  0  0  0  0
   -5.8686    1.4226    1.6732 H   0  0  0  0  0  0  0  0  0  0  0  0
   -5.6471   -0.2385    2.2606 H   0  0  0  0  0  0  0  0  0  0  0  0
   -3.8741    0.0480   -3.4088 H   0  0  0  0  0  0  0  0  0  0  0  0
   -4.2546   -1.5992   -2.8017 H   0  0  0  0  0  0  0  0  0  0  0  0
   -5.4458   -0.2939   -2.6946 H   0  0  0  0  0  0  0  0  0  0  0  0
  1  2  1  0
  2  3  2  0
  3  4  1  0
  4  5  2  3
  5  6  1  0
  6  7  1  0
  7  8  2  0
  7  9  1  0
  9 10  2  0
 10 11  1  0
 11 12  1  0
 11 13  2  0
 13 14  1  0
 14 15  2  0
 15 16  1  0
  3 17  1  0
 17 18  2  0
 17 19  1  0
 19 20  1  0
 19 21  1  0
 21 22  2  0
 21 23  1  0
 23 24  1  0
 23  2  1  0
 15  9  1  0
  1 25  1  0
  1 26  1  0
  1 27  1  0
  4 28  1  0
  6 29  1  0
 10 30  1  0
 13 31  1  0
 14 32  1  0
 16 33  1  0
 20 34  1  0
 20 35  1  0
 20 36  1  0
 24 37  1  0
 24 38  1  0
 24 39  1  0
M  END
$$$$
