
     RDKit          3D

 49 53  0  0  0  0  0  0  0  0999 V2000
    6.8891   -1.0033    2.3809 C   0  0  0  0  0  0  0  0  0  0  0  0
    5.4043   -1.1277    2.5113 C   0  0  0  0  0  0  0  0  0  0  0  0
    4.7595   -2.2463    3.6255 S   0  0  0  0  0  0  0  0  0  0  0  0
    3.1634   -1.8344    3.2245 C   0  0  0  0  0  0  0  0  0  0  0  0
    2.1447   -2.4535    3.8448 N   0  0  0  0  0  0  0  0  0  0  0  0
    0.9540   -2.0281    3.4321 C   0  0  0  0  0  0  0  0  0  0  0  0
    0.7061   -1.1003    2.5021 N   0  0  0  0  0  0  0  0  0  0  0  0
    1.7574   -0.5044    1.8992 C   0  0  0  0  0  0  0  0  0  0  0  0
    1.4068    0.7357    0.6887 S   0  0  0  0  0  0  0  0  0  0  0  0
   -0.0042   -0.0469   -0.1898 C   0  0  0  0  0  0  0  0  0  0  0  0
    0.4751   -1.2075   -1.0591 C   0  0  0  0  0  0  0  0  0  0  0  0
   -0.6886    0.9936   -1.0993 C   0  0  0  0  0  0  0  0  0  0  0  0
   -0.0543    1.8060   -1.7748 O   0  0  0  0  0  0  0  0  0  0  0  0
   -2.0832    0.8212   -1.1795 N   0  0  0  0  0  0  0  0  0  0  0  0
   -2.8962    1.1102   -0.0222 C   0  0  0  0  0  0  0  0  0  0  0  0
   -2.3320    1.8243    1.0599 C   0  0  0  0  0  0  0  0  0  0  0  0
   -3.0626    2.1275    2.2129 C   0  0  0  0  0  0  0  0  0  0  0  0
   -4.3869    1.7354    2.3123 C   0  0  0  0  0  0  0  0  0  0  0  0
   -4.9756    1.0543    1.2513 C   0  0  0  0  0  0  0  0  0  0  0  0
   -4.2462    0.7500    0.0857 C   0  0  0  0  0  0  0  0  0  0  0  0
   -5.1267   -0.1214   -1.1733 S   0  0  0  0  0  0  0  0  0  0  0  0
   -4.0535    0.1277   -2.5601 C   0  0  0  0  0  0  0  0  0  0  0  0
   -4.6115   -0.1699   -3.8193 C   0  0  0  0  0  0  0  0  0  0  0  0
   -3.8463   -0.1062   -4.9781 C   0  0  0  0  0  0  0  0  0  0  0  0
   -2.5095    0.2417   -4.8843 C   0  0  0  0  0  0  0  0  0  0  0  0
   -1.9497    0.5376   -3.6364 C   0  0  0  0  0  0  0  0  0  0  0  0
   -2.7070    0.5120   -2.4444 C   0  0  0  0  0  0  0  0  0  0  0  0
    3.0773   -0.8510    2.2477 C   0  0  0  0  0  0  0  0  0  0  0  0
    4.4130   -0.4311    1.8292 C   0  0  0  0  0  0  0  0  0  0  0  0
    4.7022    0.6172    0.7976 C   0  0  0  0  0  0  0  0  0  0  0  0
    7.2095    0.0036    2.6683 H   0  0  0  0  0  0  0  0  0  0  0  0
    7.4269   -1.7183    3.0113 H   0  0  0  0  0  0  0  0  0  0  0  0
    7.1947   -1.1813    1.3444 H   0  0  0  0  0  0  0  0  0  0  0  0
    0.0881   -2.4850    3.9017 H   0  0  0  0  0  0  0  0  0  0  0  0
   -0.7249   -0.4241    0.5404 H   0  0  0  0  0  0  0  0  0  0  0  0
    0.9430   -1.9979   -0.4633 H   0  0  0  0  0  0  0  0  0  0  0  0
    1.1924   -0.8755   -1.8184 H   0  0  0  0  0  0  0  0  0  0  0  0
   -0.3686   -1.6602   -1.5919 H   0  0  0  0  0  0  0  0  0  0  0  0
   -1.3116    2.1990    1.0227 H   0  0  0  0  0  0  0  0  0  0  0  0
   -2.5925    2.6791    3.0237 H   0  0  0  0  0  0  0  0  0  0  0  0
   -4.9654    1.9667    3.2033 H   0  0  0  0  0  0  0  0  0  0  0  0
   -6.0208    0.7611    1.3367 H   0  0  0  0  0  0  0  0  0  0  0  0
   -5.6555   -0.4682   -3.9010 H   0  0  0  0  0  0  0  0  0  0  0  0
   -4.2896   -0.3372   -5.9429 H   0  0  0  0  0  0  0  0  0  0  0  0
   -1.8930    0.2906   -5.7788 H   0  0  0  0  0  0  0  0  0  0  0  0
   -0.8981    0.8103   -3.6413 H   0  0  0  0  0  0  0  0  0  0  0  0
    4.2805    1.5804    1.1003 H   0  0  0  0  0  0  0  0  0  0  0  0
    5.7765    0.7683    0.6575 H   0  0  0  0  0  0  0  0  0  0  0  0
    4.2891    0.3265   -0.1727 H   0  0  0  0  0  0  0  0  0  0  0  0
  1  2  1  0
  2  3  1  0
  3  4  1  0
  4  5  2  0
  5  6  1  0
  6  7  2  0
  7  8  1  0
  8  9  1  0
  9 10  1  0
 10 11  1  0
 10 12  1  0
 12 13  2  0
 12 14  1  0
 14 15  1  0
 15 16  2  0
 16 17  1  0
 17 18  2  0
 18 19  1  0
 19 20  2  0
 20 21  1  0
 21 22  1  0
 22 23  2  0
 23 24  1  0
 24 25  2  0
 25 26  1  0
 26 27  2  0
  8 28  2  0
 28 29  1  0
 29 30  1  0
 29  2  2  0
 28  4  1  0
 27 14  1  0
 20 15  1  0
 27 22  1  0
  1 31  1  0
  1 32  1  0
  1 33  1  0
  6 34  1  0
 10 35  1  0
 11 36  1  0
 11 37  1  0
 11 38  1  0
 16 39  1  0
 17 40  1  0
 18 41  1  0
 19 42  1  0
 23 43  1  0
 24 44  1  0
 25 45  1  0
 26 46  1  0
 30 47  1  0
 30 48  1  0
 30 49  1  0
M  END
$$$$
