
     RDKit          3D

 55 58  0  0  0  0  0  0  0  0999 V2000
    4.6913   -4.1433   -1.3119 C   0  0  0  0  0  0  0  0  0  0  0  0
    4.2392   -4.0717    0.1345 C   0  0  0  0  0  0  0  0  0  0  0  0
    4.5808   -2.7951    0.6967 O   0  0  0  0  0  0  0  0  0  0  0  0
    3.6791   -1.8006    0.5058 C   0  0  0  0  0  0  0  0  0  0  0  0
    2.6227   -1.9069   -0.1019 O   0  0  0  0  0  0  0  0  0  0  0  0
    4.1385   -0.5209    1.1288 C   0  0  0  0  0  0  0  0  0  0  0  0
    5.3669   -0.4762    1.8155 C   0  0  0  0  0  0  0  0  0  0  0  0
    5.8133    0.7095    2.3960 C   0  0  0  0  0  0  0  0  0  0  0  0
    5.0399    1.8592    2.2956 C   0  0  0  0  0  0  0  0  0  0  0  0
    3.8179    1.8302    1.6172 C   0  0  0  0  0  0  0  0  0  0  0  0
    3.3457    0.6499    1.0279 C   0  0  0  0  0  0  0  0  0  0  0  0
    2.1081    0.6018    0.3359 N   0  0  0  0  0  0  0  0  0  0  0  0
    1.1915    1.6114    0.1401 C   0  0  0  0  0  0  0  0  0  0  0  0
    1.2448    2.7584    0.5666 O   0  0  0  0  0  0  0  0  0  0  0  0
    0.0013    1.1623   -0.6427 C   0  0  0  0  0  0  0  0  0  0  0  0
   -1.1760    1.3237   -0.0208 C   0  0  0  0  0  0  0  0  0  0  0  0
   -2.4011    0.9031   -0.5392 N   0  0  0  0  0  0  0  0  0  0  0  0
   -3.6248    1.1324    0.2039 C   0  0  0  0  0  0  0  0  0  0  0  0
   -4.7306    0.2757    0.1017 C   0  0  0  0  0  0  0  0  0  0  0  0
   -5.9065    0.4976    0.8363 C   0  0  0  0  0  0  0  0  0  0  0  0
   -6.0041    1.5876    1.6948 C   0  0  0  0  0  0  0  0  0  0  0  0
   -7.0848    1.9178    2.4629 O   0  0  0  0  0  0  0  0  0  0  0  0
   -8.2355    1.0916    2.3385 C   0  0  0  0  0  0  0  0  0  0  0  0
   -4.9157    2.4485    1.8115 C   0  0  0  0  0  0  0  0  0  0  0  0
   -3.7427    2.2258    1.0786 C   0  0  0  0  0  0  0  0  0  0  0  0
   -2.4480    0.2489   -1.7966 C   0  0  0  0  0  0  0  0  0  0  0  0
   -3.4630   -0.1498   -2.3668 O   0  0  0  0  0  0  0  0  0  0  0  0
   -1.1557    0.0711   -2.5232 C   0  0  0  0  0  0  0  0  0  0  0  0
   -1.1581   -0.5425   -3.7867 C   0  0  0  0  0  0  0  0  0  0  0  0
    0.0272   -0.6758   -4.5070 C   0  0  0  0  0  0  0  0  0  0  0  0
    1.2157   -0.1866   -3.9749 C   0  0  0  0  0  0  0  0  0  0  0  0
    1.2225    0.4247   -2.7181 C   0  0  0  0  0  0  0  0  0  0  0  0
    0.0403    0.5437   -1.9693 C   0  0  0  0  0  0  0  0  0  0  0  0
    4.4899   -5.1326   -1.7325 H   0  0  0  0  0  0  0  0  0  0  0  0
    5.7639   -3.9376   -1.3903 H   0  0  0  0  0  0  0  0  0  0  0  0
    4.1779   -3.3933   -1.9220 H   0  0  0  0  0  0  0  0  0  0  0  0
    3.1662   -4.2743    0.2305 H   0  0  0  0  0  0  0  0  0  0  0  0
    4.7640   -4.8311    0.7233 H   0  0  0  0  0  0  0  0  0  0  0  0
    5.9922   -1.3614    1.9078 H   0  0  0  0  0  0  0  0  0  0  0  0
    6.7630    0.7358    2.9251 H   0  0  0  0  0  0  0  0  0  0  0  0
    5.3828    2.7885    2.7457 H   0  0  0  0  0  0  0  0  0  0  0  0
    3.2558    2.7581    1.5689 H   0  0  0  0  0  0  0  0  0  0  0  0
    1.8637   -0.3171   -0.0428 H   0  0  0  0  0  0  0  0  0  0  0  0
   -1.1911    1.7589    0.9754 H   0  0  0  0  0  0  0  0  0  0  0  0
   -4.7006   -0.6103   -0.5271 H   0  0  0  0  0  0  0  0  0  0  0  0
   -6.7201   -0.2090    0.7107 H   0  0  0  0  0  0  0  0  0  0  0  0
   -9.0112    1.4981    2.9946 H   0  0  0  0  0  0  0  0  0  0  0  0
   -8.0238    0.0689    2.6674 H   0  0  0  0  0  0  0  0  0  0  0  0
   -8.6242    1.1060    1.3148 H   0  0  0  0  0  0  0  0  0  0  0  0
   -4.9806    3.3111    2.4706 H   0  0  0  0  0  0  0  0  0  0  0  0
   -2.9483    2.9600    1.1801 H   0  0  0  0  0  0  0  0  0  0  0  0
   -2.0882   -0.9095   -4.2171 H   0  0  0  0  0  0  0  0  0  0  0  0
    0.0189   -1.1491   -5.4858 H   0  0  0  0  0  0  0  0  0  0  0  0
    2.1409   -0.2759   -4.5397 H   0  0  0  0  0  0  0  0  0  0  0  0
    2.1691    0.8104   -2.3454 H   0  0  0  0  0  0  0  0  0  0  0  0
  1  2  1  0
  2  3  1  0
  3  4  1  0
  4  5  2  0
  4  6  1  0
  6  7  2  0
  7  8  1  0
  8  9  2  0
  9 10  1  0
 10 11  2  0
 11 12  1  0
 12 13  1  0
 13 14  2  0
 13 15  1  0
 15 16  2  0
 16 17  1  0
 17 18  1  0
 18 19  2  0
 19 20  1  0
 20 21  2  0
 21 22  1  0
 22 23  1  0
 21 24  1  0
 24 25  2  0
 17 26  1  0
 26 27  2  0
 26 28  1  0
 28 29  2  0
 29 30  1  0
 30 31  2  0
 31 32  1  0
 32 33  2  0
 11  6  1  0
 33 15  1  0
 25 18  1  0
 33 28  1  0
  1 34  1  0
  1 35  1  0
  1 36  1  0
  2 37  1  0
  2 38  1  0
  7 39  1  0
  8 40  1  0
  9 41  1  0
 10 42  1  0
 12 43  1  0
 16 44  1  0
 19 45  1  0
 20 46  1  0
 23 47  1  0
 23 48  1  0
 23 49  1  0
 24 50  1  0
 25 51  1  0
 29 52  1  0
 30 53  1  0
 31 54  1  0
 32 55  1  0
M  END
$$$$
