
     RDKit          3D

 72 77  0  0  0  0  0  0  0  0999 V2000
   -5.4587    0.2170   -2.5890 C   0  0  0  0  0  0  0  0  0  0  0  0
   -5.7805    0.5694   -1.1671 C   0  0  0  0  0  0  0  0  0  0  0  0
   -6.6241    1.6387   -0.8678 C   0  0  0  0  0  0  0  0  0  0  0  0
   -6.9287    1.9459    0.4593 C   0  0  0  0  0  0  0  0  0  0  0  0
   -6.4160    1.1795    1.5194 C   0  0  0  0  0  0  0  0  0  0  0  0
   -6.7554    1.5884    2.9281 C   0  0  0  0  0  0  0  0  0  0  0  0
   -5.5701    0.0880    1.2296 C   0  0  0  0  0  0  0  0  0  0  0  0
   -4.9651   -0.7892    2.3049 C   0  0  0  0  0  0  0  0  0  0  0  0
   -3.8498   -0.1536    2.9783 N   0  0  0  0  0  0  0  0  0  0  0  0
   -3.9474    0.2230    4.2800 N   0  0  0  0  0  0  0  0  0  0  0  0
   -2.7702    0.7264    4.6497 N   0  0  0  0  0  0  0  0  0  0  0  0
   -1.9374    0.6284    3.5788 C   0  0  0  0  0  0  0  0  0  0  0  0
   -0.5591    1.0041    3.4240 C   0  0  0  0  0  0  0  0  0  0  0  0
    0.1537    1.5063    4.2862 O   0  0  0  0  0  0  0  0  0  0  0  0
   -0.0844    0.7253    2.1480 N   0  0  0  0  0  0  0  0  0  0  0  0
   -0.8503    0.1522    1.1325 C   0  0  0  0  0  0  0  0  0  0  0  0
   -0.0950   -0.0713   -0.1671 C   0  0  0  0  0  0  0  0  0  0  0  0
   -1.0125   -0.0415   -1.3943 C   0  0  0  0  0  0  0  0  0  0  0  0
   -0.2259   -0.4566   -2.6312 C   0  0  0  0  0  0  0  0  0  0  0  0
    0.3074   -1.8285   -2.4835 N   0  0  0  0  0  0  0  0  0  0  0  0
    1.5076   -2.3280   -3.5758 S   0  0  0  0  0  6  0  0  0  0  0  0
    1.6036   -3.7706   -3.5066 O   0  0  0  0  0  0  0  0  0  0  0  0
    1.2951   -1.6424   -4.8328 O   0  0  0  0  0  0  0  0  0  0  0  0
    2.9974   -1.6637   -2.8478 C   0  0  0  0  0  0  0  0  0  0  0  0
    3.4060   -0.3614   -3.1572 C   0  0  0  0  0  0  0  0  0  0  0  0
    4.5537    0.1597   -2.5569 C   0  0  0  0  0  0  0  0  0  0  0  0
    5.2875   -0.6310   -1.6632 C   0  0  0  0  0  0  0  0  0  0  0  0
    6.7522    0.0263   -0.8968 S   0  0  0  0  0  6  0  0  0  0  0  0
    7.6479   -1.0767   -0.6280 O   0  0  0  0  0  0  0  0  0  0  0  0
    7.1620    1.1929   -1.6467 O   0  0  0  0  0  0  0  0  0  0  0  0
    6.1163    0.5190    0.6107 N   0  0  0  0  0  0  0  0  0  0  0  0
    6.8155    1.6812    1.1934 C   0  0  0  0  0  0  0  0  0  0  0  0
    7.9849    1.4972    2.1154 C   0  0  0  0  0  0  0  0  0  0  0  0
    6.6768    1.9970    2.6554 C   0  0  0  0  0  0  0  0  0  0  0  0
    4.9094   -1.9520   -1.3946 C   0  0  0  0  0  0  0  0  0  0  0  0
    3.7614   -2.4713   -1.9929 C   0  0  0  0  0  0  0  0  0  0  0  0
    0.2911   -2.4105   -1.1274 C   0  0  0  0  0  0  0  0  0  0  0  0
    0.7116   -1.3806   -0.0817 C   0  0  0  0  0  0  0  0  0  0  0  0
   -2.0905   -0.2242    1.2759 N   0  0  0  0  0  0  0  0  0  0  0  0
   -2.5843    0.0557    2.5084 C   0  0  0  0  0  0  0  0  0  0  0  0
   -5.2673   -0.2020   -0.1171 C   0  0  0  0  0  0  0  0  0  0  0  0
   -5.6821    1.0511   -3.2636 H   0  0  0  0  0  0  0  0  0  0  0  0
   -6.0479   -0.6510   -2.9037 H   0  0  0  0  0  0  0  0  0  0  0  0
   -4.3932   -0.0145   -2.6947 H   0  0  0  0  0  0  0  0  0  0  0  0
   -7.0499    2.2464   -1.6638 H   0  0  0  0  0  0  0  0  0  0  0  0
   -7.5748    2.7976    0.6607 H   0  0  0  0  0  0  0  0  0  0  0  0
   -7.0242    0.7217    3.5412 H   0  0  0  0  0  0  0  0  0  0  0  0
   -5.9079    2.1115    3.3821 H   0  0  0  0  0  0  0  0  0  0  0  0
   -7.6182    2.2659    2.9449 H   0  0  0  0  0  0  0  0  0  0  0  0
   -4.5899   -1.7306    1.8844 H   0  0  0  0  0  0  0  0  0  0  0  0
   -5.7154   -1.0682    3.0532 H   0  0  0  0  0  0  0  0  0  0  0  0
    0.8777    0.9880    1.9908 H   0  0  0  0  0  0  0  0  0  0  0  0
    0.6267    0.7544   -0.2627 H   0  0  0  0  0  0  0  0  0  0  0  0
   -1.4245    0.9640   -1.5297 H   0  0  0  0  0  0  0  0  0  0  0  0
   -1.8699   -0.7120   -1.2615 H   0  0  0  0  0  0  0  0  0  0  0  0
   -0.8856   -0.4275   -3.5052 H   0  0  0  0  0  0  0  0  0  0  0  0
    0.5870    0.2557   -2.7961 H   0  0  0  0  0  0  0  0  0  0  0  0
    2.8402    0.2479   -3.8608 H   0  0  0  0  0  0  0  0  0  0  0  0
    4.8733    1.1737   -2.7913 H   0  0  0  0  0  0  0  0  0  0  0  0
    6.1715   -0.2863    1.2399 H   0  0  0  0  0  0  0  0  0  0  0  0
    6.8370    2.5374    0.5212 H   0  0  0  0  0  0  0  0  0  0  0  0
    8.8058    2.2000    2.0382 H   0  0  0  0  0  0  0  0  0  0  0  0
    8.2926    0.4929    2.3770 H   0  0  0  0  0  0  0  0  0  0  0  0
    6.6125    3.0408    2.9419 H   0  0  0  0  0  0  0  0  0  0  0  0
    6.0916    1.3335    3.2797 H   0  0  0  0  0  0  0  0  0  0  0  0
    5.5033   -2.5792   -0.7323 H   0  0  0  0  0  0  0  0  0  0  0  0
    3.4686   -3.4991   -1.7904 H   0  0  0  0  0  0  0  0  0  0  0  0
   -0.7170   -2.7836   -0.9185 H   0  0  0  0  0  0  0  0  0  0  0  0
    0.9501   -3.2813   -1.0577 H   0  0  0  0  0  0  0  0  0  0  0  0
    0.6348   -1.8365    0.9117 H   0  0  0  0  0  0  0  0  0  0  0  0
    1.7732   -1.1384   -0.2196 H   0  0  0  0  0  0  0  0  0  0  0  0
   -4.6138   -1.0410   -0.3532 H   0  0  0  0  0  0  0  0  0  0  0  0
  1  2  1  0
  2  3  2  0
  3  4  1  0
  4  5  2  0
  5  6  1  0
  5  7  1  0
  7  8  1  0
  8  9  1  0
  9 10  1  0
 10 11  2  0
 11 12  1  0
 12 13  1  0
 13 14  2  0
 13 15  1  0
 15 16  1  0
 16 17  1  0
 17 18  1  0
 18 19  1  0
 19 20  1  0
 20 21  1  0
 21 22  2  0
 21 23  2  0
 21 24  1  0
 24 25  2  0
 25 26  1  0
 26 27  2  0
 27 28  1  0
 28 29  2  0
 28 30  2  0
 28 31  1  0
 31 32  1  0
 32 33  1  0
 33 34  1  0
 27 35  1  0
 35 36  2  0
 20 37  1  0
 37 38  1  0
 16 39  2  0
 39 40  1  0
  7 41  2  0
 41  2  1  0
 40  9  1  0
 40 12  2  0
 38 17  1  0
 36 24  1  0
 34 32  1  0
  1 42  1  0
  1 43  1  0
  1 44  1  0
  3 45  1  0
  4 46  1  0
  6 47  1  0
  6 48  1  0
  6 49  1  0
  8 50  1  0
  8 51  1  0
 15 52  1  0
 17 53  1  0
 18 54  1  0
 18 55  1  0
 19 56  1  0
 19 57  1  0
 25 58  1  0
 26 59  1  0
 31 60  1  0
 32 61  1  0
 33 62  1  0
 33 63  1  0
 34 64  1  0
 34 65  1  0
 35 66  1  0
 36 67  1  0
 37 68  1  0
 37 69  1  0
 38 70  1  0
 38 71  1  0
 41 72  1  0
M  END
$$$$
