
     RDKit          3D

 51 54  0  0  0  0  0  0  0  0999 V2000
    7.0448    1.5374   -1.0721 C   0  0  0  0  0  0  0  0  0  0  0  0
    5.8281    0.7020   -0.8083 C   0  0  0  0  0  0  0  0  0  0  0  0
    4.5674    1.1425   -1.2183 C   0  0  0  0  0  0  0  0  0  0  0  0
    3.4151    0.3582   -1.0201 C   0  0  0  0  0  0  0  0  0  0  0  0
    2.0936    0.9157   -1.4744 C   0  0  0  0  0  0  0  0  0  0  0  0
    3.5252   -0.8932   -0.3768 C   0  0  0  0  0  0  0  0  0  0  0  0
    2.3480   -1.6618   -0.1725 N   0  0  0  0  0  0  0  0  0  0  0  0
    2.0596   -2.3091    1.0220 C   0  0  0  0  0  0  0  0  0  0  0  0
    2.6671   -2.1453    2.0805 O   0  0  0  0  0  0  0  0  0  0  0  0
    0.8585   -3.2357    0.9327 C   0  0  0  0  0  0  0  0  0  0  0  0
   -0.5928   -2.4848    1.7233 S   0  0  0  0  0  0  0  0  0  0  0  0
   -1.0066   -1.2790    0.5605 C   0  0  0  0  0  0  0  0  0  0  0  0
   -0.4805   -1.1599   -0.6346 N   0  0  0  0  0  0  0  0  0  0  0  0
   -1.0564   -0.0726   -1.2357 N   0  0  0  0  0  0  0  0  0  0  0  0
   -1.9176    0.4626   -0.3911 C   0  0  0  0  0  0  0  0  0  0  0  0
   -2.7235    1.6477   -0.6455 C   0  0  0  0  0  0  0  0  0  0  0  0
   -3.8435    1.5638   -1.4698 C   0  0  0  0  0  0  0  0  0  0  0  0
   -4.5848    2.7114   -1.6839 C   0  0  0  0  0  0  0  0  0  0  0  0
   -4.2797    3.9129   -1.1458 N   0  0  0  0  0  0  0  0  0  0  0  0
   -3.1786    3.9724   -0.3697 C   0  0  0  0  0  0  0  0  0  0  0  0
   -2.3736    2.8823   -0.0926 C   0  0  0  0  0  0  0  0  0  0  0  0
   -1.9339   -0.2955    0.7619 N   0  0  0  0  0  0  0  0  0  0  0  0
   -2.7642   -0.0821    1.9313 C   0  0  0  0  0  0  0  0  0  0  0  0
   -4.0095   -0.8848    1.8444 C   0  0  0  0  0  0  0  0  0  0  0  0
   -4.4070   -2.0875    2.3911 C   0  0  0  0  0  0  0  0  0  0  0  0
   -5.7246   -2.3198    1.9287 C   0  0  0  0  0  0  0  0  0  0  0  0
   -6.0493   -1.2436    1.1379 C   0  0  0  0  0  0  0  0  0  0  0  0
   -5.0161   -0.3665    1.0834 O   0  0  0  0  0  0  0  0  0  0  0  0
    4.8081   -1.3599   -0.0233 C   0  0  0  0  0  0  0  0  0  0  0  0
    5.1136   -2.9856    0.4979 Cl  0  0  0  0  0  0  0  0  0  0  0  0
    5.9414   -0.5612   -0.2279 C   0  0  0  0  0  0  0  0  0  0  0  0
    6.8416    2.5935   -0.8703 H   0  0  0  0  0  0  0  0  0  0  0  0
    7.3516    1.4265   -2.1166 H   0  0  0  0  0  0  0  0  0  0  0  0
    7.8777    1.2366   -0.4299 H   0  0  0  0  0  0  0  0  0  0  0  0
    4.4808    2.1140   -1.7021 H   0  0  0  0  0  0  0  0  0  0  0  0
    1.4323    1.0565   -0.6148 H   0  0  0  0  0  0  0  0  0  0  0  0
    1.6296    0.2474   -2.2048 H   0  0  0  0  0  0  0  0  0  0  0  0
    2.2114    1.8903   -1.9586 H   0  0  0  0  0  0  0  0  0  0  0  0
    1.5227   -1.3998   -0.7075 H   0  0  0  0  0  0  0  0  0  0  0  0
    0.6447   -3.5125   -0.1046 H   0  0  0  0  0  0  0  0  0  0  0  0
    1.1105   -4.1601    1.4631 H   0  0  0  0  0  0  0  0  0  0  0  0
   -4.1351    0.6256   -1.9315 H   0  0  0  0  0  0  0  0  0  0  0  0
   -5.4712    2.6964   -2.3120 H   0  0  0  0  0  0  0  0  0  0  0  0
   -2.9534    4.9544    0.0358 H   0  0  0  0  0  0  0  0  0  0  0  0
   -1.4951    2.9998    0.5313 H   0  0  0  0  0  0  0  0  0  0  0  0
   -2.1864   -0.3386    2.8241 H   0  0  0  0  0  0  0  0  0  0  0  0
   -2.9972    0.9845    2.0107 H   0  0  0  0  0  0  0  0  0  0  0  0
   -3.8195   -2.7216    3.0417 H   0  0  0  0  0  0  0  0  0  0  0  0
   -6.3643   -3.1643    2.1476 H   0  0  0  0  0  0  0  0  0  0  0  0
   -6.9312   -0.9647    0.5759 H   0  0  0  0  0  0  0  0  0  0  0  0
    6.9221   -0.9446    0.0420 H   0  0  0  0  0  0  0  0  0  0  0  0
  1  2  1  0
  2  3  2  0
  3  4  1  0
  4  5  1  0
  4  6  2  0
  6  7  1  0
  7  8  1  0
  8  9  2  0
  8 10  1  0
 10 11  1  0
 11 12  1  0
 12 13  2  0
 13 14  1  0
 14 15  2  0
 15 16  1  0
 16 17  2  0
 17 18  1  0
 18 19  2  0
 19 20  1  0
 20 21  2  0
 15 22  1  0
 22 23  1  0
 23 24  1  0
 24 25  2  0
 25 26  1  0
 26 27  2  0
 27 28  1  0
  6 29  1  0
 29 30  1  0
 29 31  2  0
 31  2  1  0
 22 12  1  0
 28 24  1  0
 21 16  1  0
  1 32  1  0
  1 33  1  0
  1 34  1  0
  3 35  1  0
  5 36  1  0
  5 37  1  0
  5 38  1  0
  7 39  1  0
 10 40  1  0
 10 41  1  0
 17 42  1  0
 18 43  1  0
 20 44  1  0
 21 45  1  0
 23 46  1  0
 23 47  1  0
 25 48  1  0
 26 49  1  0
 27 50  1  0
 31 51  1  0
M  END
$$$$
