
     RDKit          3D

 53 55  0  0  0  0  0  0  0  0999 V2000
   -5.9163   -5.3916    3.8323 C   0  0  0  0  0  0  0  0  0  0  0  0
   -6.4843   -4.4002    2.9852 O   0  0  0  0  0  0  0  0  0  0  0  0
   -5.6152   -3.6329    2.2600 C   0  0  0  0  0  0  0  0  0  0  0  0
   -6.2292   -2.7156    1.3990 C   0  0  0  0  0  0  0  0  0  0  0  0
   -5.4653   -1.8656    0.5972 C   0  0  0  0  0  0  0  0  0  0  0  0
   -4.0740   -1.9315    0.6695 C   0  0  0  0  0  0  0  0  0  0  0  0
   -3.0737   -0.8672   -0.3364 S   0  0  0  0  0  6  0  0  0  0  0  0
   -3.9409   -0.0493   -1.1573 O   0  0  0  0  0  0  0  0  0  0  0  0
   -2.0263   -1.6747   -0.9205 O   0  0  0  0  0  0  0  0  0  0  0  0
   -2.3656    0.1521    0.8092 N   0  0  0  0  0  0  0  0  0  0  0  0
   -3.2592    1.0804    1.5337 C   0  0  0  0  0  0  0  0  0  0  0  0
   -2.7973    2.4477    1.0831 C   0  0  0  0  0  0  0  0  0  0  0  0
   -1.3935    2.2729    0.8816 O   0  0  0  0  0  0  0  0  0  0  0  0
   -1.2686    0.9779    0.2554 C   0  0  0  0  0  0  0  0  0  0  0  0
    0.1055    0.3869    0.6076 C   0  0  0  0  0  0  0  0  0  0  0  0
    1.2013    1.2348    0.1702 N   0  0  0  0  0  0  0  0  0  0  0  0
    2.4915    0.7679    0.0889 C   0  0  0  0  0  0  0  0  0  0  0  0
    2.8468   -0.3974    0.1927 O   0  0  0  0  0  0  0  0  0  0  0  0
    3.5410    1.8791   -0.1445 C   0  0  0  0  0  0  0  0  0  0  0  0
    3.1955    3.0517   -0.1873 O   0  0  0  0  0  0  0  0  0  0  0  0
    4.8202    1.3994   -0.2921 N   0  0  0  0  0  0  0  0  0  0  0  0
    5.9209    2.2424   -0.6768 C   0  0  0  0  0  0  0  0  0  0  0  0
    6.1543    2.1770   -2.1646 C   0  0  0  0  0  0  0  0  0  0  0  0
    7.0765    1.2663   -2.7048 C   0  0  0  0  0  0  0  0  0  0  0  0
    7.2718    1.1968   -4.0852 C   0  0  0  0  0  0  0  0  0  0  0  0
    6.5419    2.0300   -4.9248 C   0  0  0  0  0  0  0  0  0  0  0  0
    6.7315    1.9607   -6.2492 F   0  0  0  0  0  0  0  0  0  0  0  0
    5.6165    2.9303   -4.4117 C   0  0  0  0  0  0  0  0  0  0  0  0
    5.4197    3.0023   -3.0321 C   0  0  0  0  0  0  0  0  0  0  0  0
   -3.4467   -2.8472    1.5192 C   0  0  0  0  0  0  0  0  0  0  0  0
   -4.2208   -3.6957    2.3168 C   0  0  0  0  0  0  0  0  0  0  0  0
   -5.3090   -4.9348    4.6206 H   0  0  0  0  0  0  0  0  0  0  0  0
   -5.3349   -6.1190    3.2562 H   0  0  0  0  0  0  0  0  0  0  0  0
   -6.7380   -5.9295    4.3149 H   0  0  0  0  0  0  0  0  0  0  0  0
   -7.3154   -2.6700    1.3509 H   0  0  0  0  0  0  0  0  0  0  0  0
   -5.9618   -1.1673   -0.0725 H   0  0  0  0  0  0  0  0  0  0  0  0
   -4.3249    0.9291    1.3490 H   0  0  0  0  0  0  0  0  0  0  0  0
   -3.0770    0.9422    2.6052 H   0  0  0  0  0  0  0  0  0  0  0  0
   -3.2560    2.7426    0.1329 H   0  0  0  0  0  0  0  0  0  0  0  0
   -2.9801    3.2259    1.8281 H   0  0  0  0  0  0  0  0  0  0  0  0
   -1.3630    1.1328   -0.8263 H   0  0  0  0  0  0  0  0  0  0  0  0
    0.2088    0.2894    1.6950 H   0  0  0  0  0  0  0  0  0  0  0  0
    0.2308   -0.6106    0.1738 H   0  0  0  0  0  0  0  0  0  0  0  0
    1.0967    2.2453    0.2504 H   0  0  0  0  0  0  0  0  0  0  0  0
    4.9179    0.3890   -0.3363 H   0  0  0  0  0  0  0  0  0  0  0  0
    5.7364    3.2774   -0.3669 H   0  0  0  0  0  0  0  0  0  0  0  0
    6.8078    1.8948   -0.1353 H   0  0  0  0  0  0  0  0  0  0  0  0
    7.6466    0.6065   -2.0545 H   0  0  0  0  0  0  0  0  0  0  0  0
    7.9844    0.4979   -4.5111 H   0  0  0  0  0  0  0  0  0  0  0  0
    5.0527    3.5667   -5.0859 H   0  0  0  0  0  0  0  0  0  0  0  0
    4.6866    3.7018   -2.6326 H   0  0  0  0  0  0  0  0  0  0  0  0
   -2.3609   -2.9054    1.5623 H   0  0  0  0  0  0  0  0  0  0  0  0
   -3.7055   -4.3946    2.9677 H   0  0  0  0  0  0  0  0  0  0  0  0
  1  2  1  0
  2  3  1  0
  3  4  2  0
  4  5  1  0
  5  6  2  0
  6  7  1  0
  7  8  2  0
  7  9  2  0
  7 10  1  0
 10 11  1  0
 11 12  1  0
 12 13  1  0
 13 14  1  0
 14 15  1  0
 15 16  1  0
 16 17  1  0
 17 18  2  0
 17 19  1  0
 19 20  2  0
 19 21  1  0
 21 22  1  0
 22 23  1  0
 23 24  2  0
 24 25  1  0
 25 26  2  0
 26 27  1  0
 26 28  1  0
 28 29  2  0
  6 30  1  0
 30 31  2  0
 31  3  1  0
 14 10  1  0
 29 23  1  0
  1 32  1  0
  1 33  1  0
  1 34  1  0
  4 35  1  0
  5 36  1  0
 11 37  1  0
 11 38  1  0
 12 39  1  0
 12 40  1  0
 14 41  1  0
 15 42  1  0
 15 43  1  0
 16 44  1  0
 21 45  1  0
 22 46  1  0
 22 47  1  0
 24 48  1  0
 25 49  1  0
 28 50  1  0
 29 51  1  0
 30 52  1  0
 31 53  1  0
M  END
$$$$
