
     RDKit          3D

 27 27  0  0  0  0  0  0  0  0999 V2000
   -5.5847   -0.9380    0.5138 C   0  0  0  0  0  0  0  0  0  0  0  0
   -4.2623   -0.9551    0.7283 C   0  0  0  0  0  0  0  0  0  0  0  0
   -3.4714    0.1991    1.2542 C   0  0  0  0  0  0  0  0  0  0  0  0
   -2.6144    0.6540    0.1960 N   0  0  0  0  0  0  0  0  0  0  0  0
   -1.2762    0.3514    0.1281 C   0  0  0  0  0  0  0  0  0  0  0  0
   -0.6243   -0.2643    0.9613 O   0  0  0  0  0  0  0  0  0  0  0  0
   -0.5873    0.8617   -1.1515 C   0  0  0  0  0  0  0  0  0  0  0  0
   -1.2380    1.4779   -1.9844 O   0  0  0  0  0  0  0  0  0  0  0  0
    0.7536    0.5293   -1.1750 N   0  0  0  0  0  0  0  0  0  0  0  0
    1.5112    0.7772   -2.2765 N   0  0  0  0  0  0  0  0  0  0  0  0
    2.7892    0.5297   -2.2478 C   0  0  0  0  0  0  0  0  0  0  0  0
    3.6202    0.1337   -1.1401 C   0  0  0  0  0  0  0  0  0  0  0  0
    3.5258    0.2539    0.2348 C   0  0  0  0  0  0  0  0  0  0  0  0
    4.6968   -0.3283    0.7808 C   0  0  0  0  0  0  0  0  0  0  0  0
    5.4458   -0.7523   -0.2889 C   0  0  0  0  0  0  0  0  0  0  0  0
    4.8114   -0.4667   -1.4533 O   0  0  0  0  0  0  0  0  0  0  0  0
   -6.1852   -0.0539    0.7046 H   0  0  0  0  0  0  0  0  0  0  0  0
   -6.0959   -1.8185    0.1357 H   0  0  0  0  0  0  0  0  0  0  0  0
   -3.7081   -1.8699    0.5270 H   0  0  0  0  0  0  0  0  0  0  0  0
   -2.8857   -0.1085    2.1259 H   0  0  0  0  0  0  0  0  0  0  0  0
   -4.1136    1.0373    1.5423 H   0  0  0  0  0  0  0  0  0  0  0  0
   -3.0183    1.1155   -0.6153 H   0  0  0  0  0  0  0  0  0  0  0  0
    1.0913   -0.0846   -0.4372 H   0  0  0  0  0  0  0  0  0  0  0  0
    3.3207    0.6499   -3.2080 H   0  0  0  0  0  0  0  0  0  0  0  0
    2.7270    0.7257    0.7903 H   0  0  0  0  0  0  0  0  0  0  0  0
    4.9669   -0.4144    1.8242 H   0  0  0  0  0  0  0  0  0  0  0  0
    6.4053   -1.2419   -0.3859 H   0  0  0  0  0  0  0  0  0  0  0  0
  1  2  2  0
  2  3  1  0
  3  4  1  0
  4  5  1  0
  5  6  2  0
  5  7  1  0
  7  8  2  0
  7  9  1  0
  9 10  1  0
 10 11  2  3
 11 12  1  0
 12 13  2  0
 13 14  1  0
 14 15  2  0
 15 16  1  0
 16 12  1  0
  1 17  1  0
  1 18  1  0
  2 19  1  0
  3 20  1  0
  3 21  1  0
  4 22  1  0
  9 23  1  0
 11 24  1  0
 13 25  1  0
 14 26  1  0
 15 27  1  0
M  END
$$$$
