
     RDKit          3D

 51 55  0  0  0  0  0  0  0  0999 V2000
    5.4953    4.6980   -0.7304 Cl  0  0  0  0  0  0  0  0  0  0  0  0
    5.0274    3.1506   -0.1157 C   0  0  0  0  0  0  0  0  0  0  0  0
    5.9550    2.1096   -0.2009 C   0  0  0  0  0  0  0  0  0  0  0  0
    5.6323    0.8360    0.2771 C   0  0  0  0  0  0  0  0  0  0  0  0
    4.3760    0.5905    0.8473 C   0  0  0  0  0  0  0  0  0  0  0  0
    4.0175   -0.7900    1.3486 C   0  0  0  0  0  0  0  0  0  0  0  0
    3.3166   -1.6598    0.2880 C   0  0  0  0  0  0  0  0  0  0  0  0
    1.9480   -1.2234   -0.0211 N   0  0  0  0  0  0  0  0  0  0  0  0
    1.4719   -1.7818   -1.2993 C   0  0  0  0  0  0  0  0  0  0  0  0
   -0.0022   -1.4209   -1.5948 C   0  0  0  0  0  0  0  0  0  0  0  0
   -0.9215   -1.7886   -0.4931 N   0  0  0  0  0  0  0  0  0  0  0  0
   -2.0514   -0.9929   -0.2888 C   0  0  0  0  0  0  0  0  0  0  0  0
   -2.2825   -0.5240    0.9133 N   0  0  0  0  0  0  0  0  0  0  0  0
   -3.3800    0.3194    1.1612 C   0  0  0  0  0  0  0  0  0  0  0  0
   -3.5638    0.8052    2.4573 C   0  0  0  0  0  0  0  0  0  0  0  0
   -4.6282    1.6591    2.7548 C   0  0  0  0  0  0  0  0  0  0  0  0
   -5.5224    2.0372    1.7528 C   0  0  0  0  0  0  0  0  0  0  0  0
   -5.3580    1.5646    0.4506 C   0  0  0  0  0  0  0  0  0  0  0  0
   -4.2876    0.7108    0.1687 C   0  0  0  0  0  0  0  0  0  0  0  0
   -4.0527    0.1813   -1.1102 N   0  0  0  0  0  0  0  0  0  0  0  0
   -4.7667    0.3588   -2.2723 C   0  0  0  0  0  0  0  0  0  0  0  0
   -4.1944   -0.4201   -3.2528 C   0  0  0  0  0  0  0  0  0  0  0  0
   -3.0880   -1.0789   -2.6683 C   0  0  0  0  0  0  0  0  0  0  0  0
   -2.9903   -0.6611   -1.3518 C   0  0  0  0  0  0  0  0  0  0  0  0
   -0.2316   -2.3443    0.6844 C   0  0  0  0  0  0  0  0  0  0  0  0
    0.9868   -1.4818    1.0780 C   0  0  0  0  0  0  0  0  0  0  0  0
    3.4487    1.6394    0.9262 C   0  0  0  0  0  0  0  0  0  0  0  0
    3.7683    2.9160    0.4481 C   0  0  0  0  0  0  0  0  0  0  0  0
    2.5663    4.1518    0.5831 Cl  0  0  0  0  0  0  0  0  0  0  0  0
    6.9352    2.2824   -0.6402 H   0  0  0  0  0  0  0  0  0  0  0  0
    6.3680    0.0366    0.1971 H   0  0  0  0  0  0  0  0  0  0  0  0
    3.4158   -0.7022    2.2600 H   0  0  0  0  0  0  0  0  0  0  0  0
    4.9382   -1.2991    1.6638 H   0  0  0  0  0  0  0  0  0  0  0  0
    3.3075   -2.7050    0.6238 H   0  0  0  0  0  0  0  0  0  0  0  0
    3.9261   -1.6329   -0.6249 H   0  0  0  0  0  0  0  0  0  0  0  0
    2.0893   -1.3933   -2.1193 H   0  0  0  0  0  0  0  0  0  0  0  0
    1.5840   -2.8742   -1.3057 H   0  0  0  0  0  0  0  0  0  0  0  0
   -0.3044   -1.9398   -2.5094 H   0  0  0  0  0  0  0  0  0  0  0  0
   -0.0611   -0.3405   -1.7826 H   0  0  0  0  0  0  0  0  0  0  0  0
   -2.8654    0.5179    3.2384 H   0  0  0  0  0  0  0  0  0  0  0  0
   -4.7557    2.0312    3.7676 H   0  0  0  0  0  0  0  0  0  0  0  0
   -6.3473    2.7039    1.9868 H   0  0  0  0  0  0  0  0  0  0  0  0
   -6.0663    1.8755   -0.3128 H   0  0  0  0  0  0  0  0  0  0  0  0
   -5.6305    1.0068   -2.3178 H   0  0  0  0  0  0  0  0  0  0  0  0
   -4.5438   -0.5096   -4.2747 H   0  0  0  0  0  0  0  0  0  0  0  0
   -2.4378   -1.7870   -3.1628 H   0  0  0  0  0  0  0  0  0  0  0  0
   -0.9085   -2.4575    1.5414 H   0  0  0  0  0  0  0  0  0  0  0  0
    0.1000   -3.3625    0.4438 H   0  0  0  0  0  0  0  0  0  0  0  0
    1.4740   -1.9618    1.9353 H   0  0  0  0  0  0  0  0  0  0  0  0
    0.6312   -0.5060    1.4294 H   0  0  0  0  0  0  0  0  0  0  0  0
    2.4630    1.4565    1.3508 H   0  0  0  0  0  0  0  0  0  0  0  0
  1  2  1  0
  2  3  2  0
  3  4  1  0
  4  5  2  0
  5  6  1  0
  6  7  1  0
  7  8  1  0
  8  9  1  0
  9 10  1  0
 10 11  1  0
 11 12  1  0
 12 13  2  0
 13 14  1  0
 14 15  2  0
 15 16  1  0
 16 17  2  0
 17 18  1  0
 18 19  2  0
 19 20  1  0
 20 21  1  0
 21 22  2  0
 22 23  1  0
 23 24  2  0
 11 25  1  0
 25 26  1  0
  5 27  1  0
 27 28  2  0
 28 29  1  0
 28  2  1  0
 26  8  1  0
 24 12  1  0
 19 14  1  0
 24 20  1  0
  3 30  1  0
  4 31  1  0
  6 32  1  0
  6 33  1  0
  7 34  1  0
  7 35  1  0
  9 36  1  0
  9 37  1  0
 10 38  1  0
 10 39  1  0
 15 40  1  0
 16 41  1  0
 17 42  1  0
 18 43  1  0
 21 44  1  0
 22 45  1  0
 23 46  1  0
 25 47  1  0
 25 48  1  0
 26 49  1  0
 26 50  1  0
 27 51  1  0
M  END
$$$$
