
     RDKit          3D

 58 63  0  0  0  0  0  0  0  0999 V2000
    8.1429   -0.0512   -0.2469 C   0  0  0  0  0  0  0  0  0  0  0  0
    6.7410    0.3001    0.1165 C   0  0  0  0  0  0  0  0  0  0  0  0
    5.8590    1.1213   -0.5544 C   0  0  0  0  0  0  0  0  0  0  0  0
    4.6040    1.2219    0.1135 C   0  0  0  0  0  0  0  0  0  0  0  0
    4.5592    0.4567    1.2639 C   0  0  0  0  0  0  0  0  0  0  0  0
    3.4775    0.3041    2.2228 C   0  0  0  0  0  0  0  0  0  0  0  0
    3.6469    0.4758    3.4308 O   0  0  0  0  0  0  0  0  0  0  0  0
    2.2039   -0.0084    1.7238 N   0  0  0  0  0  0  0  0  0  0  0  0
    1.0961    0.0074    2.6707 C   0  0  0  0  0  0  0  0  0  0  0  0
   -0.2548   -0.2863    2.0124 C   0  0  0  0  0  0  0  0  0  0  0  0
   -0.3920    0.4240    0.6406 C   0  0  0  0  0  0  0  0  0  0  0  0
    0.7960    0.0311   -0.2900 C   0  0  0  0  0  0  0  0  0  0  0  0
    1.9463   -0.6546    0.4470 C   0  0  0  0  0  0  0  0  0  0  0  0
   -0.2571    1.8338    0.9803 O   0  0  0  0  0  0  0  0  0  0  0  0
   -0.7263    2.7551    0.0930 C   0  0  0  0  0  0  0  0  0  0  0  0
   -0.3564    4.0788    0.3308 C   0  0  0  0  0  0  0  0  0  0  0  0
   -0.7669    5.0889   -0.5428 C   0  0  0  0  0  0  0  0  0  0  0  0
   -1.5496    4.7712   -1.6529 C   0  0  0  0  0  0  0  0  0  0  0  0
   -2.0453    6.0161   -2.7309 Cl  0  0  0  0  0  0  0  0  0  0  0  0
   -1.9330    3.4545   -1.8925 C   0  0  0  0  0  0  0  0  0  0  0  0
   -1.5248    2.4541   -1.0048 C   0  0  0  0  0  0  0  0  0  0  0  0
   -1.9279    1.0579   -1.2152 C   0  0  0  0  0  0  0  0  0  0  0  0
   -2.3400    0.7025   -2.3161 O   0  0  0  0  0  0  0  0  0  0  0  0
   -1.7734    0.1337   -0.0131 C   0  0  0  0  0  0  0  0  0  0  0  0
   -2.0191   -1.3195   -0.3969 C   0  0  0  0  0  0  0  0  0  0  0  0
   -3.4444   -1.4365    0.0229 C   0  0  0  0  0  0  0  0  0  0  0  0
   -4.2830   -2.5997   -0.3531 C   0  0  0  0  0  0  0  0  0  0  0  0
   -3.7604   -3.6784   -1.0757 C   0  0  0  0  0  0  0  0  0  0  0  0
   -4.5800   -4.7605   -1.4086 C   0  0  0  0  0  0  0  0  0  0  0  0
   -5.9194   -4.7707   -1.0215 C   0  0  0  0  0  0  0  0  0  0  0  0
   -6.4444   -3.7000   -0.3005 C   0  0  0  0  0  0  0  0  0  0  0  0
   -5.6291   -2.6171    0.0338 C   0  0  0  0  0  0  0  0  0  0  0  0
   -3.8739   -0.4653    0.7635 N   0  0  0  0  0  0  0  0  0  0  0  0
   -2.8214    0.4612    0.9138 O   0  0  0  0  0  0  0  0  0  0  0  0
    6.0486   -0.3344    1.5475 S   0  0  0  0  0  0  0  0  0  0  0  0
    8.4324    0.4228   -1.1906 H   0  0  0  0  0  0  0  0  0  0  0  0
    8.8408    0.2873    0.5259 H   0  0  0  0  0  0  0  0  0  0  0  0
    8.2532   -1.1338   -0.3688 H   0  0  0  0  0  0  0  0  0  0  0  0
    6.1050    1.6378   -1.4748 H   0  0  0  0  0  0  0  0  0  0  0  0
    3.7766    1.8326   -0.2272 H   0  0  0  0  0  0  0  0  0  0  0  0
    1.2949   -0.7356    3.4524 H   0  0  0  0  0  0  0  0  0  0  0  0
    1.0827    0.9904    3.1574 H   0  0  0  0  0  0  0  0  0  0  0  0
   -1.0414    0.0369    2.7049 H   0  0  0  0  0  0  0  0  0  0  0  0
   -0.3582   -1.3708    1.8996 H   0  0  0  0  0  0  0  0  0  0  0  0
    0.4731   -0.6437   -1.0905 H   0  0  0  0  0  0  0  0  0  0  0  0
    1.1949    0.9265   -0.7830 H   0  0  0  0  0  0  0  0  0  0  0  0
    1.6893   -1.6999    0.6617 H   0  0  0  0  0  0  0  0  0  0  0  0
    2.8294   -0.6970   -0.1931 H   0  0  0  0  0  0  0  0  0  0  0  0
    0.2578    4.3253    1.1942 H   0  0  0  0  0  0  0  0  0  0  0  0
   -0.4724    6.1181   -0.3523 H   0  0  0  0  0  0  0  0  0  0  0  0
   -2.5516    3.2075   -2.7521 H   0  0  0  0  0  0  0  0  0  0  0  0
   -1.4328   -2.0336    0.1862 H   0  0  0  0  0  0  0  0  0  0  0  0
   -1.8781   -1.5319   -1.4592 H   0  0  0  0  0  0  0  0  0  0  0  0
   -2.7225   -3.7037   -1.3920 H   0  0  0  0  0  0  0  0  0  0  0  0
   -4.1742   -5.5973   -1.9722 H   0  0  0  0  0  0  0  0  0  0  0  0
   -6.5555   -5.6130   -1.2827 H   0  0  0  0  0  0  0  0  0  0  0  0
   -7.4888   -3.7053    0.0016 H   0  0  0  0  0  0  0  0  0  0  0  0
   -6.0532   -1.7872    0.5960 H   0  0  0  0  0  0  0  0  0  0  0  0
  1  2  1  0
  2  3  2  0
  3  4  1  0
  4  5  2  0
  5  6  1  0
  6  7  2  0
  6  8  1  0
  8  9  1  0
  9 10  1  0
 10 11  1  0
 11 12  1  0
 12 13  1  0
 11 14  1  0
 14 15  1  0
 15 16  2  0
 16 17  1  0
 17 18  2  0
 18 19  1  0
 18 20  1  0
 20 21  2  0
 21 22  1  0
 22 23  2  0
 22 24  1  0
 24 25  1  0
 25 26  1  0
 26 27  1  0
 27 28  2  0
 28 29  1  0
 29 30  2  0
 30 31  1  0
 31 32  2  0
 26 33  2  0
 33 34  1  0
  5 35  1  0
 35  2  1  0
 13  8  1  0
 21 15  1  0
 34 24  1  0
 24 11  1  0
 32 27  1  0
  1 36  1  0
  1 37  1  0
  1 38  1  0
  3 39  1  0
  4 40  1  0
  9 41  1  0
  9 42  1  0
 10 43  1  0
 10 44  1  0
 12 45  1  0
 12 46  1  0
 13 47  1  0
 13 48  1  0
 16 49  1  0
 17 50  1  0
 20 51  1  0
 25 52  1  0
 25 53  1  0
 28 54  1  0
 29 55  1  0
 30 56  1  0
 31 57  1  0
 32 58  1  0
M  END
$$$$
