
     RDKit          3D

 48 51  0  0  0  0  0  0  0  0999 V2000
    6.6958    0.9115   -2.7574 C   0  0  0  0  0  0  0  0  0  0  0  0
    5.9076    0.1948   -1.7402 C   0  0  0  0  0  0  0  0  0  0  0  0
    4.5676   -0.0218   -1.5376 C   0  0  0  0  0  0  0  0  0  0  0  0
    4.5009   -0.8143   -0.3563 C   0  0  0  0  0  0  0  0  0  0  0  0
    3.3217   -1.3527    0.3360 C   0  0  0  0  0  0  0  0  0  0  0  0
    3.3863   -2.1995    1.2236 O   0  0  0  0  0  0  0  0  0  0  0  0
    2.1097   -0.8243   -0.0743 N   0  0  0  0  0  0  0  0  0  0  0  0
    0.8800   -1.1761    0.6064 C   0  0  0  0  0  0  0  0  0  0  0  0
    0.7422   -0.3912    1.9334 C   0  0  0  0  0  0  0  0  0  0  0  0
   -0.7135   -0.3329    2.4830 C   0  0  0  0  0  0  0  0  0  0  0  0
   -1.2145   -1.7471    2.8411 C   0  0  0  0  0  0  0  0  0  0  0  0
   -0.7240    0.5141    3.7700 C   0  0  0  0  0  0  0  0  0  0  0  0
   -1.6632    0.3342    1.4379 C   0  0  0  0  0  0  0  0  0  0  0  0
   -1.3946   -0.1703    0.0577 C   0  0  0  0  0  0  0  0  0  0  0  0
   -0.2549   -0.8654   -0.3084 C   0  0  0  0  0  0  0  0  0  0  0  0
   -0.4882   -1.2571   -1.6304 C   0  0  0  0  0  0  0  0  0  0  0  0
   -1.6516   -0.8090   -2.0926 N   0  0  0  0  0  0  0  0  0  0  0  0
   -2.2061   -0.0956   -1.0682 N   0  0  0  0  0  0  0  0  0  0  0  0
   -3.4474    0.5796   -1.2947 C   0  0  0  0  0  0  0  0  0  0  0  0
   -3.9681    1.5297   -0.4062 C   0  0  0  0  0  0  0  0  0  0  0  0
   -5.1877    2.1607   -0.6811 C   0  0  0  0  0  0  0  0  0  0  0  0
   -5.8831    1.8520   -1.8428 C   0  0  0  0  0  0  0  0  0  0  0  0
   -7.0476    2.4619   -2.0977 F   0  0  0  0  0  0  0  0  0  0  0  0
   -5.3810    0.9264   -2.7447 C   0  0  0  0  0  0  0  0  0  0  0  0
   -4.1642    0.2947   -2.4750 C   0  0  0  0  0  0  0  0  0  0  0  0
    5.7400   -1.0531    0.1068 N   0  0  0  0  0  0  0  0  0  0  0  0
    6.6103   -0.4203   -0.7563 O   0  0  0  0  0  0  0  0  0  0  0  0
    7.2589    0.2036   -3.3730 H   0  0  0  0  0  0  0  0  0  0  0  0
    6.0465    1.4966   -3.4164 H   0  0  0  0  0  0  0  0  0  0  0  0
    7.4047    1.5976   -2.2835 H   0  0  0  0  0  0  0  0  0  0  0  0
    3.7606    0.3279   -2.1627 H   0  0  0  0  0  0  0  0  0  0  0  0
    2.1053    0.0114   -0.6402 H   0  0  0  0  0  0  0  0  0  0  0  0
    0.8873   -2.2525    0.8176 H   0  0  0  0  0  0  0  0  0  0  0  0
    1.0951    0.6396    1.7795 H   0  0  0  0  0  0  0  0  0  0  0  0
    1.4157   -0.8259    2.6836 H   0  0  0  0  0  0  0  0  0  0  0  0
   -2.2101   -1.7059    3.2977 H   0  0  0  0  0  0  0  0  0  0  0  0
   -1.2872   -2.3991    1.9652 H   0  0  0  0  0  0  0  0  0  0  0  0
   -0.5411   -2.2299    3.5585 H   0  0  0  0  0  0  0  0  0  0  0  0
   -1.7370    0.5975    4.1796 H   0  0  0  0  0  0  0  0  0  0  0  0
   -0.0863    0.0684    4.5416 H   0  0  0  0  0  0  0  0  0  0  0  0
   -0.3567    1.5290    3.5812 H   0  0  0  0  0  0  0  0  0  0  0  0
   -1.4937    1.4183    1.4422 H   0  0  0  0  0  0  0  0  0  0  0  0
   -2.7027    0.1456    1.7284 H   0  0  0  0  0  0  0  0  0  0  0  0
    0.1369   -1.8591   -2.2784 H   0  0  0  0  0  0  0  0  0  0  0  0
   -3.4511    1.8392    0.4918 H   0  0  0  0  0  0  0  0  0  0  0  0
   -5.5944    2.9002    0.0024 H   0  0  0  0  0  0  0  0  0  0  0  0
   -5.9334    0.6996   -3.6509 H   0  0  0  0  0  0  0  0  0  0  0  0
   -3.7897   -0.4312   -3.1959 H   0  0  0  0  0  0  0  0  0  0  0  0
  1  2  1  0
  2  3  2  0
  3  4  1  0
  4  5  1  0
  5  6  2  0
  5  7  1  0
  7  8  1  0
  8  9  1  0
  9 10  1  0
 10 11  1  0
 10 12  1  0
 10 13  1  0
 13 14  1  0
 14 15  2  0
 15 16  1  0
 16 17  2  0
 17 18  1  0
 18 19  1  0
 19 20  2  0
 20 21  1  0
 21 22  2  0
 22 23  1  0
 22 24  1  0
 24 25  2  0
  4 26  2  0
 26 27  1  0
 27  2  1  0
 15  8  1  0
 25 19  1  0
 18 14  1  0
  1 28  1  0
  1 29  1  0
  1 30  1  0
  3 31  1  0
  7 32  1  0
  8 33  1  0
  9 34  1  0
  9 35  1  0
 11 36  1  0
 11 37  1  0
 11 38  1  0
 12 39  1  0
 12 40  1  0
 12 41  1  0
 13 42  1  0
 13 43  1  0
 16 44  1  0
 20 45  1  0
 21 46  1  0
 24 47  1  0
 25 48  1  0
M  END
$$$$
