
     RDKit          3D

 31 32  0  0  0  0  0  0  0  0999 V2000
   -3.4567    1.8008   -0.9677 C   0  0  0  0  0  0  0  0  0  0  0  0
   -3.2708    0.5448   -0.1581 C   0  0  0  0  0  0  0  0  0  0  0  0
   -4.2712   -0.0468    0.2556 O   0  0  0  0  0  0  0  0  0  0  0  0
   -1.9100    0.0501    0.1267 C   0  0  0  0  0  0  0  0  0  0  0  0
   -1.6391   -0.9487    1.0580 C   0  0  0  0  0  0  0  0  0  0  0  0
   -2.5475   -1.7296    1.9429 C   0  0  0  0  0  0  0  0  0  0  0  0
   -0.2874   -1.1569    1.0845 N   0  0  0  0  0  0  0  0  0  0  0  0
    0.3460   -0.3226    0.2001 C   0  0  0  0  0  0  0  0  0  0  0  0
    1.8002   -0.3348    0.0611 C   0  0  0  0  0  0  0  0  0  0  0  0
    2.4662   -1.5029   -0.3294 C   0  0  0  0  0  0  0  0  0  0  0  0
    3.8574   -1.5153   -0.4518 C   0  0  0  0  0  0  0  0  0  0  0  0
    4.5918   -0.3613   -0.1826 C   0  0  0  0  0  0  0  0  0  0  0  0
    3.9370    0.8058    0.2076 C   0  0  0  0  0  0  0  0  0  0  0  0
    2.5459    0.8191    0.3290 C   0  0  0  0  0  0  0  0  0  0  0  0
   -0.6333    0.4341   -0.4357 C   0  0  0  0  0  0  0  0  0  0  0  0
   -0.3765    1.4312   -1.5159 C   0  0  0  0  0  0  0  0  0  0  0  0
   -2.8320    2.6057   -0.5740 H   0  0  0  0  0  0  0  0  0  0  0  0
   -4.4993    2.1266   -0.8937 H   0  0  0  0  0  0  0  0  0  0  0  0
   -3.2348    1.6077   -2.0190 H   0  0  0  0  0  0  0  0  0  0  0  0
   -3.1472   -1.0584    2.5658 H   0  0  0  0  0  0  0  0  0  0  0  0
   -1.9868   -2.3913    2.6115 H   0  0  0  0  0  0  0  0  0  0  0  0
   -3.2215   -2.3512    1.3452 H   0  0  0  0  0  0  0  0  0  0  0  0
    0.1891   -1.8159    1.6859 H   0  0  0  0  0  0  0  0  0  0  0  0
    1.9047   -2.4062   -0.5559 H   0  0  0  0  0  0  0  0  0  0  0  0
    4.3668   -2.4241   -0.7615 H   0  0  0  0  0  0  0  0  0  0  0  0
    5.6745   -0.3710   -0.2788 H   0  0  0  0  0  0  0  0  0  0  0  0
    4.5084    1.7059    0.4187 H   0  0  0  0  0  0  0  0  0  0  0  0
    2.0460    1.7331    0.6410 H   0  0  0  0  0  0  0  0  0  0  0  0
    0.6528    1.3811   -1.8842 H   0  0  0  0  0  0  0  0  0  0  0  0
   -1.0247    1.2438   -2.3766 H   0  0  0  0  0  0  0  0  0  0  0  0
   -0.5480    2.4473   -1.1488 H   0  0  0  0  0  0  0  0  0  0  0  0
  1  2  1  0
  2  3  2  0
  2  4  1  0
  4  5  2  0
  5  6  1  0
  5  7  1  0
  7  8  1  0
  8  9  1  0
  9 10  2  0
 10 11  1  0
 11 12  2  0
 12 13  1  0
 13 14  2  0
  8 15  2  0
 15 16  1  0
 15  4  1  0
 14  9  1  0
  1 17  1  0
  1 18  1  0
  1 19  1  0
  6 20  1  0
  6 21  1  0
  6 22  1  0
  7 23  1  0
 10 24  1  0
 11 25  1  0
 12 26  1  0
 13 27  1  0
 14 28  1  0
 16 29  1  0
 16 30  1  0
 16 31  1  0
M  END
$$$$
