
     RDKit          3D

 53 52  0  0  0  0  0  0  0  0999 V2000
   -6.7676    0.5848    1.7454 C   0  0  0  0  0  0  0  0  0  0  0  0
   -6.7592   -0.3239    0.5159 C   0  0  0  0  0  0  0  0  0  0  0  0
   -7.8203    0.1224   -0.4904 C   0  0  0  0  0  0  0  0  0  0  0  0
   -5.3626   -0.4340   -0.1228 C   0  0  0  0  0  0  0  0  0  0  0  0
   -4.7849    0.8754   -0.6655 C   0  0  0  0  0  0  0  0  0  0  0  0
   -3.4716    0.6633   -1.2467 N   0  0  0  0  0  0  0  0  0  0  0  0
   -2.3303    0.6617   -0.4736 C   0  0  0  0  0  0  0  0  0  0  0  0
   -2.3228    0.9268    0.7234 O   0  0  0  0  0  0  0  0  0  0  0  0
   -1.0804    0.3254   -1.2597 C   0  0  0  0  0  0  0  0  0  0  0  0
    0.1138    0.1750   -0.3262 C   0  0  0  0  0  0  0  0  0  0  0  0
    1.6220   -0.3461   -1.2149 S   0  0  0  0  0  0  0  0  0  0  0  0
    2.1198    1.2243   -2.0116 C   0  0  0  0  0  0  0  0  0  0  0  0
    2.7071    2.2489   -1.0504 C   0  0  0  0  0  0  0  0  0  0  0  0
    4.1236    1.8953   -0.6563 C   0  0  0  0  0  0  0  0  0  0  0  0
    5.0864    2.2344   -1.3395 O   0  0  0  0  0  0  0  0  0  0  0  0
    4.2229    1.1765    0.5152 N   0  0  0  0  0  0  0  0  0  0  0  0
    5.4974    0.6769    0.9932 C   0  0  0  0  0  0  0  0  0  0  0  0
    5.8353   -0.7054    0.4279 C   0  0  0  0  0  0  0  0  0  0  0  0
    4.8947   -1.8379    0.8885 C   0  0  0  0  0  0  0  0  0  0  0  0
    5.2250   -3.1269    0.1354 C   0  0  0  0  0  0  0  0  0  0  0  0
    4.9754   -2.0861    2.3946 C   0  0  0  0  0  0  0  0  0  0  0  0
   -6.0024    0.2728    2.4614 H   0  0  0  0  0  0  0  0  0  0  0  0
   -6.5851    1.6317    1.4817 H   0  0  0  0  0  0  0  0  0  0  0  0
   -7.7376    0.5347    2.2526 H   0  0  0  0  0  0  0  0  0  0  0  0
   -7.0339   -1.3320    0.8538 H   0  0  0  0  0  0  0  0  0  0  0  0
   -7.6717    1.1594   -0.8034 H   0  0  0  0  0  0  0  0  0  0  0  0
   -8.8215    0.0499   -0.0511 H   0  0  0  0  0  0  0  0  0  0  0  0
   -7.8023   -0.5119   -1.3829 H   0  0  0  0  0  0  0  0  0  0  0  0
   -5.4066   -1.1609   -0.9412 H   0  0  0  0  0  0  0  0  0  0  0  0
   -4.6715   -0.8594    0.6132 H   0  0  0  0  0  0  0  0  0  0  0  0
   -5.4151    1.2828   -1.4623 H   0  0  0  0  0  0  0  0  0  0  0  0
   -4.7001    1.6260    0.1258 H   0  0  0  0  0  0  0  0  0  0  0  0
   -3.4189    0.3518   -2.2104 H   0  0  0  0  0  0  0  0  0  0  0  0
   -0.9182    1.1298   -1.9850 H   0  0  0  0  0  0  0  0  0  0  0  0
   -1.2586   -0.6071   -1.8062 H   0  0  0  0  0  0  0  0  0  0  0  0
   -0.0959   -0.6028    0.4134 H   0  0  0  0  0  0  0  0  0  0  0  0
    0.3057    1.0934    0.2353 H   0  0  0  0  0  0  0  0  0  0  0  0
    2.8553    0.9689   -2.7830 H   0  0  0  0  0  0  0  0  0  0  0  0
    1.2540    1.6451   -2.5312 H   0  0  0  0  0  0  0  0  0  0  0  0
    2.0882    2.3989   -0.1583 H   0  0  0  0  0  0  0  0  0  0  0  0
    2.7553    3.2260   -1.5507 H   0  0  0  0  0  0  0  0  0  0  0  0
    3.3855    0.7340    0.8656 H   0  0  0  0  0  0  0  0  0  0  0  0
    6.2834    1.3817    0.7022 H   0  0  0  0  0  0  0  0  0  0  0  0
    5.4560    0.6673    2.0848 H   0  0  0  0  0  0  0  0  0  0  0  0
    5.8195   -0.6516   -0.6685 H   0  0  0  0  0  0  0  0  0  0  0  0
    6.8641   -0.9558    0.7144 H   0  0  0  0  0  0  0  0  0  0  0  0
    3.8615   -1.5721    0.6441 H   0  0  0  0  0  0  0  0  0  0  0  0
    6.2443   -3.4630    0.3525 H   0  0  0  0  0  0  0  0  0  0  0  0
    4.5348   -3.9288    0.4157 H   0  0  0  0  0  0  0  0  0  0  0  0
    5.1382   -2.9797   -0.9453 H   0  0  0  0  0  0  0  0  0  0  0  0
    6.0013   -2.3112    2.7031 H   0  0  0  0  0  0  0  0  0  0  0  0
    4.3408   -2.9332    2.6839 H   0  0  0  0  0  0  0  0  0  0  0  0
    4.6280   -1.2156    2.9619 H   0  0  0  0  0  0  0  0  0  0  0  0
  1  2  1  0
  2  3  1  0
  2  4  1  0
  4  5  1  0
  5  6  1  0
  6  7  1  0
  7  8  2  0
  7  9  1  0
  9 10  1  0
 10 11  1  0
 11 12  1  0
 12 13  1  0
 13 14  1  0
 14 15  2  0
 14 16  1  0
 16 17  1  0
 17 18  1  0
 18 19  1  0
 19 20  1  0
 19 21  1  0
  1 22  1  0
  1 23  1  0
  1 24  1  0
  2 25  1  0
  3 26  1  0
  3 27  1  0
  3 28  1  0
  4 29  1  0
  4 30  1  0
  5 31  1  0
  5 32  1  0
  6 33  1  0
  9 34  1  0
  9 35  1  0
 10 36  1  0
 10 37  1  0
 12 38  1  0
 12 39  1  0
 13 40  1  0
 13 41  1  0
 16 42  1  0
 17 43  1  0
 17 44  1  0
 18 45  1  0
 18 46  1  0
 19 47  1  0
 20 48  1  0
 20 49  1  0
 20 50  1  0
 21 51  1  0
 21 52  1  0
 21 53  1  0
M  END
$$$$
