
     RDKit          3D

 60 63  0  0  0  0  0  0  0  0999 V2000
   -6.7239    5.1685   -2.2086 C   0  0  0  0  0  0  0  0  0  0  0  0
   -6.5635    3.6837   -2.3407 C   0  0  0  0  0  0  0  0  0  0  0  0
   -7.6688    2.8799   -2.5372 C   0  0  0  0  0  0  0  0  0  0  0  0
   -7.4348    1.5244   -2.6519 C   0  0  0  0  0  0  0  0  0  0  0  0
   -8.5737    0.5750   -2.8717 C   0  0  0  0  0  0  0  0  0  0  0  0
   -6.1959    0.9996   -2.5829 N   0  0  0  0  0  0  0  0  0  0  0  0
   -5.1783    1.8563   -2.4029 C   0  0  0  0  0  0  0  0  0  0  0  0
   -3.5576    1.1414   -2.3241 S   0  0  0  0  0  0  0  0  0  0  0  0
   -2.6104    2.5900   -1.7851 C   0  0  0  0  0  0  0  0  0  0  0  0
   -1.1853    2.2358   -1.5294 C   0  0  0  0  0  0  0  0  0  0  0  0
   -0.1925    2.4303   -2.3780 N   0  0  0  0  0  0  0  0  0  0  0  0
    0.9735    2.0363   -1.7776 N   0  0  0  0  0  0  0  0  0  0  0  0
    0.6793    1.6112   -0.5727 C   0  0  0  0  0  0  0  0  0  0  0  0
    1.8187    1.0429    0.5955 S   0  0  0  0  0  0  0  0  0  0  0  0
    3.3714    1.3054   -0.3121 C   0  0  0  0  0  0  0  0  0  0  0  0
    4.5295    0.7262    0.4842 C   0  0  0  0  0  0  0  0  0  0  0  0
    5.3513    1.4594    1.0273 O   0  0  0  0  0  0  0  0  0  0  0  0
    4.5321   -0.6616    0.4877 N   0  0  0  0  0  0  0  0  0  0  0  0
    5.4694   -1.5228    1.0928 C   0  0  0  0  0  0  0  0  0  0  0  0
    6.6125   -1.0881    1.7571 C   0  0  0  0  0  0  0  0  0  0  0  0
    7.4929   -2.0124    2.3290 C   0  0  0  0  0  0  0  0  0  0  0  0
    7.2500   -3.3903    2.2470 C   0  0  0  0  0  0  0  0  0  0  0  0
    8.2212   -4.3493    2.8787 C   0  0  0  0  0  0  0  0  0  0  0  0
    6.0991   -3.8412    1.5752 C   0  0  0  0  0  0  0  0  0  0  0  0
    5.7848   -5.3074    1.4569 C   0  0  0  0  0  0  0  0  0  0  0  0
    5.2225   -2.8995    1.0059 C   0  0  0  0  0  0  0  0  0  0  0  0
   -0.6729    1.6983   -0.3635 N   0  0  0  0  0  0  0  0  0  0  0  0
   -1.3972    1.3938    0.8574 C   0  0  0  0  0  0  0  0  0  0  0  0
   -1.8423   -0.0213    0.9025 C   0  0  0  0  0  0  0  0  0  0  0  0
   -3.0766   -0.6329    0.8142 C   0  0  0  0  0  0  0  0  0  0  0  0
   -2.8468   -2.0233    0.9488 C   0  0  0  0  0  0  0  0  0  0  0  0
   -1.4928   -2.1720    1.1283 C   0  0  0  0  0  0  0  0  0  0  0  0
   -0.8772   -0.9633    1.1116 O   0  0  0  0  0  0  0  0  0  0  0  0
   -5.3129    3.1854   -2.2633 N   0  0  0  0  0  0  0  0  0  0  0  0
   -5.7528    5.6536   -2.0629 H   0  0  0  0  0  0  0  0  0  0  0  0
   -7.3566    5.4059   -1.3475 H   0  0  0  0  0  0  0  0  0  0  0  0
   -7.1782    5.5816   -3.1146 H   0  0  0  0  0  0  0  0  0  0  0  0
   -8.6683    3.2913   -2.6005 H   0  0  0  0  0  0  0  0  0  0  0  0
   -8.2181   -0.4599   -2.9022 H   0  0  0  0  0  0  0  0  0  0  0  0
   -9.3010    0.6603   -2.0583 H   0  0  0  0  0  0  0  0  0  0  0  0
   -9.0693    0.7940   -3.8224 H   0  0  0  0  0  0  0  0  0  0  0  0
   -2.6446    3.3500   -2.5741 H   0  0  0  0  0  0  0  0  0  0  0  0
   -3.0574    3.0287   -0.8879 H   0  0  0  0  0  0  0  0  0  0  0  0
    3.3419    0.8210   -1.2946 H   0  0  0  0  0  0  0  0  0  0  0  0
    3.5420    2.3773   -0.4585 H   0  0  0  0  0  0  0  0  0  0  0  0
    3.7342   -1.1089    0.0508 H   0  0  0  0  0  0  0  0  0  0  0  0
    6.8540   -0.0343    1.8505 H   0  0  0  0  0  0  0  0  0  0  0  0
    8.3765   -1.6385    2.8426 H   0  0  0  0  0  0  0  0  0  0  0  0
    9.0602   -3.8229    3.3462 H   0  0  0  0  0  0  0  0  0  0  0  0
    7.7239   -4.9351    3.6580 H   0  0  0  0  0  0  0  0  0  0  0  0
    8.6365   -5.0232    2.1231 H   0  0  0  0  0  0  0  0  0  0  0  0
    6.5926   -5.8302    0.9354 H   0  0  0  0  0  0  0  0  0  0  0  0
    4.8643   -5.4773    0.8888 H   0  0  0  0  0  0  0  0  0  0  0  0
    5.6456   -5.7467    2.4496 H   0  0  0  0  0  0  0  0  0  0  0  0
    4.3343   -3.2557    0.4887 H   0  0  0  0  0  0  0  0  0  0  0  0
   -2.2550    2.0690    0.9258 H   0  0  0  0  0  0  0  0  0  0  0  0
   -0.7576    1.6282    1.7143 H   0  0  0  0  0  0  0  0  0  0  0  0
   -4.0288   -0.1429    0.6618 H   0  0  0  0  0  0  0  0  0  0  0  0
   -3.5777   -2.8190    0.9189 H   0  0  0  0  0  0  0  0  0  0  0  0
   -0.8455   -3.0252    1.2755 H   0  0  0  0  0  0  0  0  0  0  0  0
  1  2  1  0
  2  3  2  0
  3  4  1  0
  4  5  1  0
  4  6  2  0
  6  7  1  0
  7  8  1  0
  8  9  1  0
  9 10  1  0
 10 11  2  0
 11 12  1  0
 12 13  2  0
 13 14  1  0
 14 15  1  0
 15 16  1  0
 16 17  2  0
 16 18  1  0
 18 19  1  0
 19 20  2  0
 20 21  1  0
 21 22  2  0
 22 23  1  0
 22 24  1  0
 24 25  1  0
 24 26  2  0
 13 27  1  0
 27 28  1  0
 28 29  1  0
 29 30  2  0
 30 31  1  0
 31 32  2  0
 32 33  1  0
  7 34  2  0
 34  2  1  0
 27 10  1  0
 33 29  1  0
 26 19  1  0
  1 35  1  0
  1 36  1  0
  1 37  1  0
  3 38  1  0
  5 39  1  0
  5 40  1  0
  5 41  1  0
  9 42  1  0
  9 43  1  0
 15 44  1  0
 15 45  1  0
 18 46  1  0
 20 47  1  0
 21 48  1  0
 23 49  1  0
 23 50  1  0
 23 51  1  0
 25 52  1  0
 25 53  1  0
 25 54  1  0
 26 55  1  0
 28 56  1  0
 28 57  1  0
 30 58  1  0
 31 59  1  0
 32 60  1  0
M  END
$$$$
