
     RDKit          3D

 49 52  0  0  0  0  0  0  0  0999 V2000
   -4.3175    3.2002    0.3368 O   0  0  0  0  0  0  0  0  0  0  0  0
   -4.2685    2.0485    0.7635 C   0  0  0  0  0  0  0  0  0  0  0  0
   -3.0413    1.2703    0.7341 C   0  0  0  0  0  0  0  0  0  0  0  0
   -2.8128   -0.1076    0.8940 C   0  0  0  0  0  0  0  0  0  0  0  0
   -1.5262   -0.4350    0.7802 N   0  0  0  0  0  0  0  0  0  0  0  0
   -0.8828    0.7321    0.5709 N   0  0  0  0  0  0  0  0  0  0  0  0
    0.5303    0.7747    0.4007 C   0  0  0  0  0  0  0  0  0  0  0  0
    1.1306    1.9392   -0.1156 C   0  0  0  0  0  0  0  0  0  0  0  0
    2.5123    1.9947   -0.3409 C   0  0  0  0  0  0  0  0  0  0  0  0
    3.3122    0.8868   -0.0531 C   0  0  0  0  0  0  0  0  0  0  0  0
    5.0689    0.9726   -0.3065 S   0  0  0  0  0  6  0  0  0  0  0  0
    5.7054    0.0515    0.6082 O   0  0  0  0  0  0  0  0  0  0  0  0
    5.4319    2.3741   -0.3241 O   0  0  0  0  0  0  0  0  0  0  0  0
    5.2368    0.4277   -1.8968 N   0  0  0  0  0  0  0  0  0  0  0  0
    5.2000   -0.9749   -2.1275 C   0  0  0  0  0  0  0  0  0  0  0  0
    4.0017   -1.5691   -2.5208 C   0  0  0  0  0  0  0  0  0  0  0  0
    3.9422   -2.9495   -2.7116 C   0  0  0  0  0  0  0  0  0  0  0  0
    5.0802   -3.7307   -2.5103 C   0  0  0  0  0  0  0  0  0  0  0  0
    6.2779   -3.1327   -2.1187 C   0  0  0  0  0  0  0  0  0  0  0  0
    6.3395   -1.7522   -1.9254 C   0  0  0  0  0  0  0  0  0  0  0  0
    2.7519   -0.2684    0.4903 C   0  0  0  0  0  0  0  0  0  0  0  0
    1.3652   -0.3169    0.7048 C   0  0  0  0  0  0  0  0  0  0  0  0
    0.8779   -1.5285    1.3402 N   0  0  0  0  0  4  0  0  0  0  0  0
    0.6594   -1.4691    2.5586 O   0  0  0  0  0  0  0  0  0  0  0  0
    0.8348   -2.5475    0.6358 O   0  0  0  0  0  1  0  0  0  0  0  0
   -1.7774    1.7765    0.4937 C   0  0  0  0  0  0  0  0  0  0  0  0
   -5.5215    1.4302    1.2535 C   0  0  0  0  0  0  0  0  0  0  0  0
   -6.6549    1.5318    0.4384 C   0  0  0  0  0  0  0  0  0  0  0  0
   -7.8519    0.9714    0.8648 C   0  0  0  0  0  0  0  0  0  0  0  0
   -8.9347    1.0553    0.0815 F   0  0  0  0  0  0  0  0  0  0  0  0
   -7.9461    0.3236    2.0928 C   0  0  0  0  0  0  0  0  0  0  0  0
   -6.8249    0.2400    2.9201 C   0  0  0  0  0  0  0  0  0  0  0  0
   -5.6167    0.8017    2.5027 C   0  0  0  0  0  0  0  0  0  0  0  0
   -4.5321    0.7575    3.3296 O   0  0  0  0  0  0  0  0  0  0  0  0
   -3.5289   -0.8976    1.0848 H   0  0  0  0  0  0  0  0  0  0  0  0
    0.5508    2.8212   -0.3785 H   0  0  0  0  0  0  0  0  0  0  0  0
    2.9537    2.9061   -0.7421 H   0  0  0  0  0  0  0  0  0  0  0  0
    5.9621    0.9554   -2.3825 H   0  0  0  0  0  0  0  0  0  0  0  0
    3.1126   -0.9677   -2.6863 H   0  0  0  0  0  0  0  0  0  0  0  0
    3.0083   -3.4182   -3.0129 H   0  0  0  0  0  0  0  0  0  0  0  0
    5.0330   -4.8079   -2.6538 H   0  0  0  0  0  0  0  0  0  0  0  0
    7.1625   -3.7426   -1.9537 H   0  0  0  0  0  0  0  0  0  0  0  0
    7.2709   -1.2985   -1.5983 H   0  0  0  0  0  0  0  0  0  0  0  0
    3.3821   -1.1191    0.7491 H   0  0  0  0  0  0  0  0  0  0  0  0
   -1.4729    2.7970    0.3161 H   0  0  0  0  0  0  0  0  0  0  0  0
   -6.6121    2.0413   -0.5205 H   0  0  0  0  0  0  0  0  0  0  0  0
   -8.8956   -0.1045    2.4004 H   0  0  0  0  0  0  0  0  0  0  0  0
   -6.9146   -0.2552    3.8830 H   0  0  0  0  0  0  0  0  0  0  0  0
   -4.7615    0.3121    4.1634 H   0  0  0  0  0  0  0  0  0  0  0  0
  1  2  2  0
  2  3  1  0
  3  4  1  0
  4  5  2  0
  5  6  1  0
  6  7  1  0
  7  8  2  0
  8  9  1  0
  9 10  2  0
 10 11  1  0
 11 12  2  0
 11 13  2  0
 11 14  1  0
 14 15  1  0
 15 16  2  0
 16 17  1  0
 17 18  2  0
 18 19  1  0
 19 20  2  0
 10 21  1  0
 21 22  2  0
 22 23  1  0
 23 24  2  0
 23 25  1  0
  6 26  1  0
  2 27  1  0
 27 28  2  0
 28 29  1  0
 29 30  1  0
 29 31  2  0
 31 32  1  0
 32 33  2  0
 33 34  1  0
 26  3  2  0
 33 27  1  0
 22  7  1  0
 20 15  1  0
  4 35  1  0
  8 36  1  0
  9 37  1  0
 14 38  1  0
 16 39  1  0
 17 40  1  0
 18 41  1  0
 19 42  1  0
 20 43  1  0
 21 44  1  0
 26 45  1  0
 28 46  1  0
 31 47  1  0
 32 48  1  0
 34 49  1  0
M  CHG  2  23   1  25  -1
M  END
$$$$
