
     RDKit          3D

 39 41  0  0  0  0  0  0  0  0999 V2000
   -3.6671   -2.0747    3.6801 C   0  0  0  0  0  0  0  0  0  0  0  0
   -4.2923   -1.5696    2.5065 O   0  0  0  0  0  0  0  0  0  0  0  0
   -3.6333   -0.5790    1.8321 C   0  0  0  0  0  0  0  0  0  0  0  0
   -4.2897   -0.1214    0.6841 C   0  0  0  0  0  0  0  0  0  0  0  0
   -3.7295    0.8837   -0.1063 C   0  0  0  0  0  0  0  0  0  0  0  0
   -2.4952    1.4264    0.2547 C   0  0  0  0  0  0  0  0  0  0  0  0
   -1.7725    2.7060   -0.7478 S   0  0  0  0  0  6  0  0  0  0  0  0
   -2.8535    3.3932   -1.4232 O   0  0  0  0  0  0  0  0  0  0  0  0
   -0.8160    3.4273    0.0632 O   0  0  0  0  0  0  0  0  0  0  0  0
   -0.9541    1.8345   -1.9440 N   0  0  0  0  0  0  0  0  0  0  0  0
   -0.0178    0.8343   -1.5603 C   0  0  0  0  0  0  0  0  0  0  0  0
   -0.3097   -0.5012   -1.8354 C   0  0  0  0  0  0  0  0  0  0  0  0
    0.5716   -1.5003   -1.4261 C   0  0  0  0  0  0  0  0  0  0  0  0
    1.7437   -1.1613   -0.7523 C   0  0  0  0  0  0  0  0  0  0  0  0
    2.5485   -2.2076   -0.3926 O   0  0  0  0  0  0  0  0  0  0  0  0
    2.0519    0.1770   -0.4682 C   0  0  0  0  0  0  0  0  0  0  0  0
    3.4813    0.6840    0.4758 S   0  0  0  0  0  0  0  0  0  0  0  0
    4.7940    0.2141   -0.5645 C   0  0  0  0  0  0  0  0  0  0  0  0
    5.6224    1.1030   -1.1871 N   0  0  0  0  0  0  0  0  0  0  0  0
    6.4587    0.3262   -1.8337 C   0  0  0  0  0  0  0  0  0  0  0  0
    6.1445   -0.9746   -1.5981 N   0  0  0  0  0  0  0  0  0  0  0  0
    5.0806   -1.0771   -0.7806 N   0  0  0  0  0  0  0  0  0  0  0  0
    1.1537    1.1724   -0.8789 C   0  0  0  0  0  0  0  0  0  0  0  0
   -1.8400    0.9952    1.4114 C   0  0  0  0  0  0  0  0  0  0  0  0
   -2.4083   -0.0142    2.1948 C   0  0  0  0  0  0  0  0  0  0  0  0
   -2.7000   -2.5322    3.4465 H   0  0  0  0  0  0  0  0  0  0  0  0
   -4.3133   -2.8553    4.0932 H   0  0  0  0  0  0  0  0  0  0  0  0
   -3.5626   -1.2926    4.4392 H   0  0  0  0  0  0  0  0  0  0  0  0
   -5.2502   -0.5519    0.4087 H   0  0  0  0  0  0  0  0  0  0  0  0
   -4.2605    1.2338   -0.9881 H   0  0  0  0  0  0  0  0  0  0  0  0
   -1.5522    1.6462   -2.7468 H   0  0  0  0  0  0  0  0  0  0  0  0
   -1.2239   -0.7808   -2.3510 H   0  0  0  0  0  0  0  0  0  0  0  0
    0.3477   -2.5444   -1.6285 H   0  0  0  0  0  0  0  0  0  0  0  0
    3.4554   -1.8567   -0.2549 H   0  0  0  0  0  0  0  0  0  0  0  0
    7.2811    0.6380   -2.4619 H   0  0  0  0  0  0  0  0  0  0  0  0
    6.5943   -1.8152   -1.9449 H   0  0  0  0  0  0  0  0  0  0  0  0
    1.3691    2.2182   -0.6670 H   0  0  0  0  0  0  0  0  0  0  0  0
   -0.8873    1.4308    1.7063 H   0  0  0  0  0  0  0  0  0  0  0  0
   -1.8697   -0.3341    3.0811 H   0  0  0  0  0  0  0  0  0  0  0  0
  1  2  1  0
  2  3  1  0
  3  4  2  0
  4  5  1  0
  5  6  2  0
  6  7  1  0
  7  8  2  0
  7  9  2  0
  7 10  1  0
 10 11  1  0
 11 12  2  0
 12 13  1  0
 13 14  2  0
 14 15  1  0
 14 16  1  0
 16 17  1  0
 17 18  1  0
 18 19  1  0
 19 20  2  0
 20 21  1  0
 21 22  1  0
 16 23  2  0
  6 24  1  0
 24 25  2  0
 25  3  1  0
 23 11  1  0
 22 18  2  0
  1 26  1  0
  1 27  1  0
  1 28  1  0
  4 29  1  0
  5 30  1  0
 10 31  1  0
 12 32  1  0
 13 33  1  0
 15 34  1  0
 20 35  1  0
 21 36  1  0
 23 37  1  0
 24 38  1  0
 25 39  1  0
M  END
$$$$
