
     RDKit          3D

 44 46  0  0  0  0  0  0  0  0999 V2000
   -5.8804    0.1843   -2.7473 C   0  0  0  0  0  0  0  0  0  0  0  0
   -4.7782   -0.5281   -2.0190 C   0  0  0  0  0  0  0  0  0  0  0  0
   -4.5619   -0.2880   -0.6548 C   0  0  0  0  0  0  0  0  0  0  0  0
   -3.5615   -0.9749    0.0347 C   0  0  0  0  0  0  0  0  0  0  0  0
   -2.7744   -1.9072   -0.6453 C   0  0  0  0  0  0  0  0  0  0  0  0
   -1.5036   -2.7909    0.2220 S   0  0  0  0  0  6  0  0  0  0  0  0
   -1.4790   -4.1388   -0.3082 O   0  0  0  0  0  0  0  0  0  0  0  0
   -1.6488   -2.5527    1.6415 O   0  0  0  0  0  0  0  0  0  0  0  0
   -0.0887   -2.0462   -0.3331 N   0  0  0  0  0  0  0  0  0  0  0  0
    0.2883   -0.8089    0.2590 C   0  0  0  0  0  0  0  0  0  0  0  0
   -0.2211    0.3837   -0.2545 C   0  0  0  0  0  0  0  0  0  0  0  0
    0.1061    1.6154    0.3330 C   0  0  0  0  0  0  0  0  0  0  0  0
   -0.4648    2.8751   -0.2522 C   0  0  0  0  0  0  0  0  0  0  0  0
    0.9641    1.6198    1.4458 C   0  0  0  0  0  0  0  0  0  0  0  0
    1.3251    2.7947    2.0542 O   0  0  0  0  0  0  0  0  0  0  0  0
    1.4736    0.4177    1.9709 C   0  0  0  0  0  0  0  0  0  0  0  0
    2.5520    0.3883    3.3971 S   0  0  0  0  0  0  0  0  0  0  0  0
    4.1270    0.4840    2.6508 C   0  0  0  0  0  0  0  0  0  0  0  0
    5.2248    0.7190    3.3790 N   0  0  0  0  0  0  0  0  0  0  0  0
    6.1828    0.6925    2.4431 N   0  0  0  0  0  0  0  0  0  0  0  0
    5.6670    0.4293    1.2072 C   0  0  0  0  0  0  0  0  0  0  0  0
    6.4980    0.3339   -0.0094 C   0  0  0  0  0  0  0  0  0  0  0  0
    4.3646    0.2845    1.3133 N   0  0  0  0  0  0  0  0  0  0  0  0
    1.1187   -0.7984    1.3756 C   0  0  0  0  0  0  0  0  0  0  0  0
   -2.9957   -2.1772   -1.9979 C   0  0  0  0  0  0  0  0  0  0  0  0
   -3.9985   -1.4872   -2.6807 C   0  0  0  0  0  0  0  0  0  0  0  0
   -5.6287    0.3145   -3.8052 H   0  0  0  0  0  0  0  0  0  0  0  0
   -6.8096   -0.3887   -2.6720 H   0  0  0  0  0  0  0  0  0  0  0  0
   -6.0445    1.1824   -2.3277 H   0  0  0  0  0  0  0  0  0  0  0  0
   -5.1762    0.4336   -0.1197 H   0  0  0  0  0  0  0  0  0  0  0  0
   -3.4032   -0.7780    1.0931 H   0  0  0  0  0  0  0  0  0  0  0  0
    0.6470   -2.7395   -0.4677 H   0  0  0  0  0  0  0  0  0  0  0  0
   -0.8688    0.3556   -1.1280 H   0  0  0  0  0  0  0  0  0  0  0  0
   -1.0177    3.4324    0.5110 H   0  0  0  0  0  0  0  0  0  0  0  0
   -1.1630    2.6618   -1.0690 H   0  0  0  0  0  0  0  0  0  0  0  0
    0.3374    3.5018   -0.6550 H   0  0  0  0  0  0  0  0  0  0  0  0
    0.9840    3.5503    1.5547 H   0  0  0  0  0  0  0  0  0  0  0  0
    7.1461    0.8536    2.7142 H   0  0  0  0  0  0  0  0  0  0  0  0
    7.2182   -0.4855    0.0783 H   0  0  0  0  0  0  0  0  0  0  0  0
    5.8738    0.1457   -0.8885 H   0  0  0  0  0  0  0  0  0  0  0  0
    7.0481    1.2650   -0.1768 H   0  0  0  0  0  0  0  0  0  0  0  0
    1.4921   -1.7325    1.7860 H   0  0  0  0  0  0  0  0  0  0  0  0
   -2.3977   -2.9207   -2.5199 H   0  0  0  0  0  0  0  0  0  0  0  0
   -4.1729   -1.7054   -3.7326 H   0  0  0  0  0  0  0  0  0  0  0  0
  1  2  1  0
  2  3  2  0
  3  4  1  0
  4  5  2  0
  5  6  1  0
  6  7  2  0
  6  8  2  0
  6  9  1  0
  9 10  1  0
 10 11  2  0
 11 12  1  0
 12 13  1  0
 12 14  2  0
 14 15  1  0
 14 16  1  0
 16 17  1  0
 17 18  1  0
 18 19  2  0
 19 20  1  0
 20 21  1  0
 21 22  1  0
 21 23  2  0
 16 24  2  0
  5 25  1  0
 25 26  2  0
 26  2  1  0
 24 10  1  0
 23 18  1  0
  1 27  1  0
  1 28  1  0
  1 29  1  0
  3 30  1  0
  4 31  1  0
  9 32  1  0
 11 33  1  0
 13 34  1  0
 13 35  1  0
 13 36  1  0
 15 37  1  0
 20 38  1  0
 22 39  1  0
 22 40  1  0
 22 41  1  0
 24 42  1  0
 25 43  1  0
 26 44  1  0
M  END
$$$$
