
     RDKit          3D

 67 71  0  0  0  0  0  0  0  0999 V2000
   -5.9247   -3.3303   -2.6389 C   0  0  0  0  0  0  0  0  0  0  0  0
   -5.3108   -4.0915   -1.6065 O   0  0  0  0  0  0  0  0  0  0  0  0
   -4.5998   -3.4002   -0.6639 C   0  0  0  0  0  0  0  0  0  0  0  0
   -4.0259   -4.1929    0.3325 C   0  0  0  0  0  0  0  0  0  0  0  0
   -3.2642   -3.6267    1.3567 C   0  0  0  0  0  0  0  0  0  0  0  0
   -2.7553   -4.5222    2.2574 O   0  0  0  0  0  0  0  0  0  0  0  0
   -1.8280   -4.0151    3.2091 C   0  0  0  0  0  0  0  0  0  0  0  0
   -3.0899   -2.2440    1.3918 C   0  0  0  0  0  0  0  0  0  0  0  0
   -3.6572   -1.4297    0.3991 C   0  0  0  0  0  0  0  0  0  0  0  0
   -3.4428    0.0256    0.4305 C   0  0  0  0  0  0  0  0  0  0  0  0
   -4.8110    1.0464    0.5658 S   0  0  0  0  0  0  0  0  0  0  0  0
   -3.8616    2.4753    0.5734 C   0  0  0  0  0  0  0  0  0  0  0  0
   -4.3305    3.8001    0.6640 C   0  0  0  0  0  0  0  0  0  0  0  0
   -3.4108    4.8549    0.6527 C   0  0  0  0  0  0  0  0  0  0  0  0
   -2.0496    4.6046    0.5495 C   0  0  0  0  0  0  0  0  0  0  0  0
   -1.0570    5.5459    0.5271 O   0  0  0  0  0  0  0  0  0  0  0  0
   -1.4586    6.9083    0.5960 C   0  0  0  0  0  0  0  0  0  0  0  0
   -1.5976    3.2826    0.4589 C   0  0  0  0  0  0  0  0  0  0  0  0
   -2.5008    2.1867    0.4754 C   0  0  0  0  0  0  0  0  0  0  0  0
   -2.2651    0.7596    0.4005 C   0  0  0  0  0  0  0  0  0  0  0  0
   -0.9557    0.1183    0.3072 C   0  0  0  0  0  0  0  0  0  0  0  0
   -0.0452    0.2337    1.3638 C   0  0  0  0  0  0  0  0  0  0  0  0
    1.2133   -0.3752    1.2878 C   0  0  0  0  0  0  0  0  0  0  0  0
    1.5735   -1.1011    0.1533 C   0  0  0  0  0  0  0  0  0  0  0  0
    2.7583   -1.7464   -0.0563 O   0  0  0  0  0  0  0  0  0  0  0  0
    3.8399   -1.5330    0.8521 C   0  0  0  0  0  0  0  0  0  0  0  0
    4.5820   -0.2036    0.5992 C   0  0  0  0  0  0  0  0  0  0  0  0
    5.1101   -0.0238   -0.7676 N   0  0  0  0  0  0  0  0  0  0  0  0
    5.6466    1.3438   -0.9369 C   0  0  0  0  0  0  0  0  0  0  0  0
    6.2428    1.5477   -2.3378 C   0  0  0  0  0  0  0  0  0  0  0  0
    7.2834    0.5965   -2.5972 O   0  0  0  0  0  0  0  0  0  0  0  0
    6.7584   -0.7338   -2.4985 C   0  0  0  0  0  0  0  0  0  0  0  0
    6.1667   -0.9994   -1.1036 C   0  0  0  0  0  0  0  0  0  0  0  0
    0.6602   -1.2182   -0.8983 C   0  0  0  0  0  0  0  0  0  0  0  0
   -0.5954   -0.6098   -0.8291 C   0  0  0  0  0  0  0  0  0  0  0  0
   -4.4095   -2.0191   -0.6303 C   0  0  0  0  0  0  0  0  0  0  0  0
   -6.6627   -2.6323   -2.2298 H   0  0  0  0  0  0  0  0  0  0  0  0
   -6.4540   -4.0260   -3.2971 H   0  0  0  0  0  0  0  0  0  0  0  0
   -5.1752   -2.8069   -3.2417 H   0  0  0  0  0  0  0  0  0  0  0  0
   -4.1691   -5.2707    0.3065 H   0  0  0  0  0  0  0  0  0  0  0  0
   -2.3172   -3.3240    3.9032 H   0  0  0  0  0  0  0  0  0  0  0  0
   -1.4520   -4.8612    3.7925 H   0  0  0  0  0  0  0  0  0  0  0  0
   -0.9709   -3.5422    2.7175 H   0  0  0  0  0  0  0  0  0  0  0  0
   -2.5174   -1.7727    2.1840 H   0  0  0  0  0  0  0  0  0  0  0  0
   -5.3952    4.0038    0.7418 H   0  0  0  0  0  0  0  0  0  0  0  0
   -3.8023    5.8645    0.7250 H   0  0  0  0  0  0  0  0  0  0  0  0
   -1.9682    7.1220    1.5413 H   0  0  0  0  0  0  0  0  0  0  0  0
   -0.5555    7.5251    0.5579 H   0  0  0  0  0  0  0  0  0  0  0  0
   -2.0837    7.1798   -0.2612 H   0  0  0  0  0  0  0  0  0  0  0  0
   -0.5294    3.0965    0.3693 H   0  0  0  0  0  0  0  0  0  0  0  0
   -0.3102    0.7964    2.2565 H   0  0  0  0  0  0  0  0  0  0  0  0
    1.8810   -0.2598    2.1334 H   0  0  0  0  0  0  0  0  0  0  0  0
    3.5097   -1.6102    1.8943 H   0  0  0  0  0  0  0  0  0  0  0  0
    4.5311   -2.3722    0.7172 H   0  0  0  0  0  0  0  0  0  0  0  0
    5.3911   -0.1097    1.3348 H   0  0  0  0  0  0  0  0  0  0  0  0
    3.8780    0.6133    0.7963 H   0  0  0  0  0  0  0  0  0  0  0  0
    6.4278    1.5315   -0.1886 H   0  0  0  0  0  0  0  0  0  0  0  0
    4.8488    2.0800   -0.7864 H   0  0  0  0  0  0  0  0  0  0  0  0
    6.6835    2.5471   -2.4103 H   0  0  0  0  0  0  0  0  0  0  0  0
    5.4733    1.4660   -3.1149 H   0  0  0  0  0  0  0  0  0  0  0  0
    6.0081   -0.8865   -3.2840 H   0  0  0  0  0  0  0  0  0  0  0  0
    7.5827   -1.4286   -2.6882 H   0  0  0  0  0  0  0  0  0  0  0  0
    5.7660   -2.0180   -1.0985 H   0  0  0  0  0  0  0  0  0  0  0  0
    6.9724   -0.9450   -0.3601 H   0  0  0  0  0  0  0  0  0  0  0  0
    0.9339   -1.7847   -1.7855 H   0  0  0  0  0  0  0  0  0  0  0  0
   -1.2817   -0.7110   -1.6660 H   0  0  0  0  0  0  0  0  0  0  0  0
   -4.8308   -1.3781   -1.3979 H   0  0  0  0  0  0  0  0  0  0  0  0
  1  2  1  0
  2  3  1  0
  3  4  2  0
  4  5  1  0
  5  6  1  0
  6  7  1  0
  5  8  2  0
  8  9  1  0
  9 10  1  0
 10 11  1  0
 11 12  1  0
 12 13  2  0
 13 14  1  0
 14 15  2  0
 15 16  1  0
 16 17  1  0
 15 18  1  0
 18 19  2  0
 19 20  1  0
 20 21  1  0
 21 22  2  0
 22 23  1  0
 23 24  2  0
 24 25  1  0
 25 26  1  0
 26 27  1  0
 27 28  1  0
 28 29  1  0
 29 30  1  0
 30 31  1  0
 31 32  1  0
 32 33  1  0
 24 34  1  0
 34 35  2  0
  9 36  2  0
 36  3  1  0
 20 10  2  0
 35 21  1  0
 19 12  1  0
 33 28  1  0
  1 37  1  0
  1 38  1  0
  1 39  1  0
  4 40  1  0
  7 41  1  0
  7 42  1  0
  7 43  1  0
  8 44  1  0
 13 45  1  0
 14 46  1  0
 17 47  1  0
 17 48  1  0
 17 49  1  0
 18 50  1  0
 22 51  1  0
 23 52  1  0
 26 53  1  0
 26 54  1  0
 27 55  1  0
 27 56  1  0
 29 57  1  0
 29 58  1  0
 30 59  1  0
 30 60  1  0
 32 61  1  0
 32 62  1  0
 33 63  1  0
 33 64  1  0
 34 65  1  0
 35 66  1  0
 36 67  1  0
M  END
$$$$
