
     RDKit          3D

 46 49  0  0  0  0  0  0  0  0999 V2000
   -5.3380   -3.8874    0.4627 C   0  0  0  0  0  0  0  0  0  0  0  0
   -4.2600   -3.0644    0.8893 O   0  0  0  0  0  0  0  0  0  0  0  0
   -3.8573   -2.0796    0.0289 C   0  0  0  0  0  0  0  0  0  0  0  0
   -4.4295   -1.7874   -1.2094 C   0  0  0  0  0  0  0  0  0  0  0  0
   -3.9154   -0.7503   -1.9928 C   0  0  0  0  0  0  0  0  0  0  0  0
   -2.8312    0.0023   -1.5412 C   0  0  0  0  0  0  0  0  0  0  0  0
   -2.2563   -0.2763   -0.2982 C   0  0  0  0  0  0  0  0  0  0  0  0
   -1.1199    0.5011    0.1788 C   0  0  0  0  0  0  0  0  0  0  0  0
    0.2332    0.3644   -0.0999 C   0  0  0  0  0  0  0  0  0  0  0  0
    0.8976   -0.5952   -0.9787 C   0  0  0  0  0  0  0  0  0  0  0  0
    0.2895   -1.4157   -1.6577 O   0  0  0  0  0  0  0  0  0  0  0  0
    2.2785   -0.4501   -0.9548 N   0  0  0  0  0  0  0  0  0  0  0  0
    3.0831   -1.3068   -1.6486 N   0  0  0  0  0  0  0  0  0  0  0  0
    4.3715   -1.1197   -1.6539 C   0  0  0  0  0  0  0  0  0  0  0  0
    5.2133   -2.1761   -2.3374 C   0  0  0  0  0  0  0  0  0  0  0  0
    5.0598    0.0176   -1.0658 C   0  0  0  0  0  0  0  0  0  0  0  0
    4.7973    1.3672   -1.2331 C   0  0  0  0  0  0  0  0  0  0  0  0
    5.6888    2.1909   -0.4821 C   0  0  0  0  0  0  0  0  0  0  0  0
    6.5920    1.4309    0.2137 C   0  0  0  0  0  0  0  0  0  0  0  0
    7.8417    2.0078    1.2393 Cl  0  0  0  0  0  0  0  0  0  0  0  0
    6.3943   -0.2324   -0.0172 S   0  0  0  0  0  0  0  0  0  0  0  0
    0.9395    1.3063    0.6044 N   0  0  0  0  0  0  0  0  0  0  0  0
    0.0848    2.0295    1.3033 N   0  0  0  0  0  0  0  0  0  0  0  0
   -1.1860    1.5853    1.0585 N   0  0  0  0  0  0  0  0  0  0  0  0
   -2.3116    2.2040    1.6608 C   0  0  0  0  0  0  0  0  0  0  0  0
   -3.5502    1.7683    1.4304 N   0  0  0  0  0  0  0  0  0  0  0  0
   -4.3563    2.6080    2.1952 O   0  0  0  0  0  0  0  0  0  0  0  0
   -3.5963    3.5498    2.8807 N   0  0  0  0  0  0  0  0  0  0  0  0
   -2.3320    3.3027    2.5411 C   0  0  0  0  0  0  0  0  0  0  0  0
   -1.2764    4.0103    2.9873 N   0  0  0  0  0  0  0  0  0  0  0  0
   -2.7703   -1.3231    0.4774 C   0  0  0  0  0  0  0  0  0  0  0  0
   -5.5240   -4.6276    1.2469 H   0  0  0  0  0  0  0  0  0  0  0  0
   -6.2542   -3.3018    0.3341 H   0  0  0  0  0  0  0  0  0  0  0  0
   -5.0828   -4.4303   -0.4534 H   0  0  0  0  0  0  0  0  0  0  0  0
   -5.2726   -2.3487   -1.5974 H   0  0  0  0  0  0  0  0  0  0  0  0
   -4.3587   -0.5327   -2.9612 H   0  0  0  0  0  0  0  0  0  0  0  0
   -2.4393    0.7980   -2.1698 H   0  0  0  0  0  0  0  0  0  0  0  0
    2.6814    0.2189   -0.3051 H   0  0  0  0  0  0  0  0  0  0  0  0
    5.6026   -2.8722   -1.5889 H   0  0  0  0  0  0  0  0  0  0  0  0
    6.0471   -1.7152   -2.8747 H   0  0  0  0  0  0  0  0  0  0  0  0
    4.6055   -2.7387   -3.0525 H   0  0  0  0  0  0  0  0  0  0  0  0
    4.0078    1.7476   -1.8725 H   0  0  0  0  0  0  0  0  0  0  0  0
    5.6660    3.2736   -0.4634 H   0  0  0  0  0  0  0  0  0  0  0  0
   -1.4047    4.6388    3.7736 H   0  0  0  0  0  0  0  0  0  0  0  0
   -0.3236    3.6720    2.8664 H   0  0  0  0  0  0  0  0  0  0  0  0
   -2.3285   -1.5632    1.4415 H   0  0  0  0  0  0  0  0  0  0  0  0
  1  2  1  0
  2  3  1  0
  3  4  2  0
  4  5  1  0
  5  6  2  0
  6  7  1  0
  7  8  1  0
  8  9  2  0
  9 10  1  0
 10 11  2  0
 10 12  1  0
 12 13  1  0
 13 14  2  3
 14 15  1  0
 14 16  1  0
 16 17  2  0
 17 18  1  0
 18 19  2  0
 19 20  1  0
 19 21  1  0
  9 22  1  0
 22 23  2  0
 23 24  1  0
 24 25  1  0
 25 26  2  0
 26 27  1  0
 27 28  1  0
 28 29  2  0
 29 30  1  0
  7 31  2  0
 31  3  1  0
 24  8  1  0
 29 25  1  0
 21 16  1  0
  1 32  1  0
  1 33  1  0
  1 34  1  0
  4 35  1  0
  5 36  1  0
  6 37  1  0
 12 38  1  0
 15 39  1  0
 15 40  1  0
 15 41  1  0
 17 42  1  0
 18 43  1  0
 30 44  1  0
 30 45  1  0
 31 46  1  0
M  END
$$$$
