
     RDKit          3D

 84 89  0  0  0  0  0  0  0  0999 V2000
    9.1598    0.0406   -5.3072 C   0  0  0  0  0  0  0  0  0  0  0  0
    7.9213    0.4680   -4.7401 O   0  0  0  0  0  0  0  0  0  0  0  0
    7.5344   -0.2557   -3.6522 C   0  0  0  0  0  0  0  0  0  0  0  0
    8.1413   -1.2146   -3.1916 O   0  0  0  0  0  0  0  0  0  0  0  0
    6.2218    0.2764   -3.1207 C   0  0  0  0  0  0  0  0  0  0  0  0
    6.0785    0.0775   -1.6113 C   0  0  0  0  0  0  0  0  0  0  0  0
    7.0119    1.0013   -0.8189 C   0  0  0  0  0  0  0  0  0  0  0  0
    6.9767    0.7715    0.6960 C   0  0  0  0  0  0  0  0  0  0  0  0
    5.9602    1.6250    1.4623 C   0  0  0  0  0  0  0  0  0  0  0  0
    4.4798    1.2974    1.2540 C   0  0  0  0  0  0  0  0  0  0  0  0
    4.1180   -0.1406    1.6413 C   0  0  0  0  0  0  0  0  0  0  0  0
    2.6163   -0.4200    1.5318 C   0  0  0  0  0  0  0  0  0  0  0  0
    1.7950    0.1912    2.6621 C   0  0  0  0  0  0  0  0  0  0  0  0
    2.3254    0.7904    3.5967 O   0  0  0  0  0  0  0  0  0  0  0  0
    0.4180    0.0266    2.5820 N   0  0  0  0  0  0  0  0  0  0  0  0
   -0.4245    0.5780    3.6591 C   0  0  0  0  0  0  0  0  0  0  0  0
   -1.8150    1.0881    3.1873 C   0  0  0  0  0  0  0  0  0  0  0  0
   -2.2895    0.4046    1.9970 N   0  0  0  0  0  0  0  0  0  0  0  0
   -1.7548   -0.9722    1.8456 C   0  0  2  0  0  0  0  0  0  0  0  0
   -0.2485   -0.8524    1.5943 C   0  0  0  0  0  0  0  0  0  0  0  0
   -2.6107   -1.4711    0.7451 C   0  0  0  0  0  0  0  0  0  0  0  0
   -3.7481   -0.6601    0.6064 C   0  0  0  0  0  0  0  0  0  0  0  0
   -4.5241   -1.1651   -0.4054 C   0  0  0  0  0  0  0  0  0  0  0  0
   -5.7077   -0.7490   -0.8527 O   0  0  0  0  0  0  0  0  0  0  0  0
   -3.8695   -2.3135   -0.9138 N   0  0  0  0  0  0  0  0  0  0  0  0
   -4.3406   -3.1610   -1.9803 C   0  0  0  0  0  0  0  0  0  0  0  0
   -5.2394   -2.6754   -2.9422 C   0  0  0  0  0  0  0  0  0  0  0  0
   -5.7029   -3.5010   -3.9728 C   0  0  0  0  0  0  0  0  0  0  0  0
   -5.2781   -4.8232   -4.0568 C   0  0  0  0  0  0  0  0  0  0  0  0
   -4.3884   -5.3206   -3.1106 C   0  0  0  0  0  0  0  0  0  0  0  0
   -3.9209   -4.4964   -2.0801 C   0  0  0  0  0  0  0  0  0  0  0  0
   -2.6764   -2.4865   -0.1699 C   0  0  0  0  0  0  0  0  0  0  0  0
   -1.8075   -3.4645   -0.4105 O   0  0  0  0  0  0  0  0  0  0  0  0
   -3.7111    0.4381    1.6095 C   0  0  1  0  0  0  0  0  0  0  0  0
   -4.7095    0.2230    2.7752 C   0  0  0  0  0  0  0  0  0  0  0  0
   -4.7264   -0.6659    3.6131 O   0  0  0  0  0  0  0  0  0  0  0  0
   -5.6198    1.2812    2.7154 N   0  0  0  0  0  0  0  0  0  0  0  0
   -5.3211    2.1678    1.6805 C   0  0  0  0  0  0  0  0  0  0  0  0
   -4.1923    1.7122    0.9815 C   0  0  0  0  0  0  0  0  0  0  0  0
   -3.6957    2.4217   -0.0987 C   0  0  0  0  0  0  0  0  0  0  0  0
   -4.3641    3.5856   -0.4798 C   0  0  0  0  0  0  0  0  0  0  0  0
   -5.5002    4.0324    0.2253 C   0  0  0  0  0  0  0  0  0  0  0  0
   -6.2674    5.4734   -0.3493 Cl  0  0  0  0  0  0  0  0  0  0  0  0
   -5.9969    3.3341    1.3425 C   0  0  0  0  0  0  0  0  0  0  0  0
   -7.2121    3.7946    2.0909 C   0  0  0  0  0  0  0  0  0  0  0  0
    9.9679    0.1290   -4.5734 H   0  0  0  0  0  0  0  0  0  0  0  0
    9.0788   -0.9871   -5.6756 H   0  0  0  0  0  0  0  0  0  0  0  0
    9.3900    0.6965   -6.1517 H   0  0  0  0  0  0  0  0  0  0  0  0
    5.4217   -0.2593   -3.6437 H   0  0  0  0  0  0  0  0  0  0  0  0
    6.1293    1.3425   -3.3619 H   0  0  0  0  0  0  0  0  0  0  0  0
    6.2777   -0.9692   -1.3470 H   0  0  0  0  0  0  0  0  0  0  0  0
    5.0370    0.2772   -1.3448 H   0  0  0  0  0  0  0  0  0  0  0  0
    8.0419    0.8195   -1.1529 H   0  0  0  0  0  0  0  0  0  0  0  0
    6.7929    2.0521   -1.0501 H   0  0  0  0  0  0  0  0  0  0  0  0
    6.8574   -0.2924    0.9277 H   0  0  0  0  0  0  0  0  0  0  0  0
    7.9662    1.0480    1.0840 H   0  0  0  0  0  0  0  0  0  0  0  0
    6.1825    1.5309    2.5333 H   0  0  0  0  0  0  0  0  0  0  0  0
    6.1232    2.6815    1.2144 H   0  0  0  0  0  0  0  0  0  0  0  0
    3.8981    1.9984    1.8642 H   0  0  0  0  0  0  0  0  0  0  0  0
    4.1900    1.4975    0.2184 H   0  0  0  0  0  0  0  0  0  0  0  0
    4.6367   -0.8372    0.9735 H   0  0  0  0  0  0  0  0  0  0  0  0
    4.4691   -0.3515    2.6584 H   0  0  0  0  0  0  0  0  0  0  0  0
    2.4737   -1.5055    1.5726 H   0  0  0  0  0  0  0  0  0  0  0  0
    2.2421   -0.0557    0.5702 H   0  0  0  0  0  0  0  0  0  0  0  0
   -0.5647   -0.2404    4.3766 H   0  0  0  0  0  0  0  0  0  0  0  0
    0.0966    1.3837    4.1869 H   0  0  0  0  0  0  0  0  0  0  0  0
   -2.5072    0.9964    4.0321 H   0  0  0  0  0  0  0  0  0  0  0  0
   -1.7333    2.1566    2.9552 H   0  0  0  0  0  0  0  0  0  0  0  0
   -1.9550   -1.5628    2.7503 H   0  0  0  0  0  0  0  0  0  0  0  0
   -0.0444   -0.4413    0.5972 H   0  0  0  0  0  0  0  0  0  0  0  0
    0.2173   -1.8429    1.6409 H   0  0  0  0  0  0  0  0  0  0  0  0
   -5.9731    0.0346   -0.3421 H   0  0  0  0  0  0  0  0  0  0  0  0
   -5.5781   -1.6438   -2.9421 H   0  0  0  0  0  0  0  0  0  0  0  0
   -6.3939   -3.1039   -4.7128 H   0  0  0  0  0  0  0  0  0  0  0  0
   -5.6399   -5.4638   -4.8554 H   0  0  0  0  0  0  0  0  0  0  0  0
   -4.0593   -6.3547   -3.1650 H   0  0  0  0  0  0  0  0  0  0  0  0
   -3.2559   -4.9453   -1.3503 H   0  0  0  0  0  0  0  0  0  0  0  0
   -1.1086   -3.4324    0.2620 H   0  0  0  0  0  0  0  0  0  0  0  0
   -6.3711    1.3743    3.3828 H   0  0  0  0  0  0  0  0  0  0  0  0
   -2.8180    2.0773   -0.6387 H   0  0  0  0  0  0  0  0  0  0  0  0
   -4.0002    4.1503   -1.3360 H   0  0  0  0  0  0  0  0  0  0  0  0
   -8.1168    3.5508    1.5251 H   0  0  0  0  0  0  0  0  0  0  0  0
   -7.1774    4.8743    2.2722 H   0  0  0  0  0  0  0  0  0  0  0  0
   -7.2880    3.3261    3.0780 H   0  0  0  0  0  0  0  0  0  0  0  0
  1  2  1  0
  2  3  1  0
  3  4  2  0
  3  5  1  0
  5  6  1  0
  6  7  1  0
  7  8  1  0
  8  9  1  0
  9 10  1  0
 10 11  1  0
 11 12  1  0
 12 13  1  0
 13 14  2  0
 13 15  1  0
 15 16  1  0
 16 17  1  0
 17 18  1  0
 18 19  1  0
 19 20  1  0
 19 21  1  0
 21 22  1  0
 22 23  2  0
 23 24  1  0
 23 25  1  0
 25 26  1  0
 26 27  2  0
 27 28  1  0
 28 29  2  0
 29 30  1  0
 30 31  2  0
 25 32  1  0
 32 33  1  0
 22 34  1  0
 34 35  1  0
 35 36  2  0
 35 37  1  0
 37 38  1  0
 38 39  2  0
 39 40  1  0
 40 41  2  0
 41 42  1  0
 42 43  1  0
 42 44  2  0
 44 45  1  0
 20 15  1  0
 32 21  2  0
 39 34  1  0
 34 18  1  1
 44 38  1  0
 31 26  1  0
  1 46  1  0
  1 47  1  0
  1 48  1  0
  5 49  1  0
  5 50  1  0
  6 51  1  0
  6 52  1  0
  7 53  1  0
  7 54  1  0
  8 55  1  0
  8 56  1  0
  9 57  1  0
  9 58  1  0
 10 59  1  0
 10 60  1  0
 11 61  1  0
 11 62  1  0
 12 63  1  0
 12 64  1  0
 16 65  1  0
 16 66  1  0
 17 67  1  0
 17 68  1  0
 19 69  1  1
 20 70  1  0
 20 71  1  0
 24 72  1  0
 27 73  1  0
 28 74  1  0
 29 75  1  0
 30 76  1  0
 31 77  1  0
 33 78  1  0
 37 79  1  0
 40 80  1  0
 41 81  1  0
 45 82  1  0
 45 83  1  0
 45 84  1  0
M  END
$$$$
