
     RDKit          3D

 53 55  0  0  0  0  0  0  0  0999 V2000
   -5.3199   -5.1557    3.9924 C   0  0  0  0  0  0  0  0  0  0  0  0
   -4.1488   -4.3633    4.1493 O   0  0  0  0  0  0  0  0  0  0  0  0
   -4.1029   -3.1779    3.4712 C   0  0  0  0  0  0  0  0  0  0  0  0
   -2.9389   -2.4316    3.6778 C   0  0  0  0  0  0  0  0  0  0  0  0
   -2.7706   -1.1850    3.0711 C   0  0  0  0  0  0  0  0  0  0  0  0
   -3.7686   -0.6910    2.2300 C   0  0  0  0  0  0  0  0  0  0  0  0
   -3.6047    0.9342    1.5186 S   0  0  0  0  0  6  0  0  0  0  0  0
   -2.6552    1.6656    2.3281 O   0  0  0  0  0  0  0  0  0  0  0  0
   -4.9419    1.4390    1.2922 O   0  0  0  0  0  0  0  0  0  0  0  0
   -2.8998    0.6637    0.0280 N   0  0  0  0  0  0  0  0  0  0  0  0
   -3.6225   -0.0628   -1.0166 C   0  0  0  0  0  0  0  0  0  0  0  0
   -2.6795   -1.1957   -1.3517 C   0  0  0  0  0  0  0  0  0  0  0  0
   -1.3817   -0.6270   -1.1631 O   0  0  0  0  0  0  0  0  0  0  0  0
   -1.4936    0.2443   -0.0219 C   0  0  0  0  0  0  0  0  0  0  0  0
   -0.5613    1.4619   -0.1816 C   0  0  0  0  0  0  0  0  0  0  0  0
    0.8425    1.0995   -0.2715 N   0  0  0  0  0  0  0  0  0  0  0  0
    1.5004    0.9988   -1.4758 C   0  0  0  0  0  0  0  0  0  0  0  0
    1.0595    1.3024   -2.5741 O   0  0  0  0  0  0  0  0  0  0  0  0
    2.9488    0.4757   -1.3427 C   0  0  0  0  0  0  0  0  0  0  0  0
    3.3678    0.0998   -0.2564 O   0  0  0  0  0  0  0  0  0  0  0  0
    3.6548    0.5162   -2.5214 N   0  0  0  0  0  0  0  0  0  0  0  0
    5.0758    0.2982   -2.5749 C   0  0  0  0  0  0  0  0  0  0  0  0
    5.8206    1.6055   -2.4713 C   0  0  0  0  0  0  0  0  0  0  0  0
    6.1814    2.3180   -3.6258 C   0  0  0  0  0  0  0  0  0  0  0  0
    6.8443    3.5423   -3.5199 C   0  0  0  0  0  0  0  0  0  0  0  0
    7.1379    4.0585   -2.2623 C   0  0  0  0  0  0  0  0  0  0  0  0
    7.7715    5.2338   -2.1620 F   0  0  0  0  0  0  0  0  0  0  0  0
    6.7799    3.3752   -1.1075 C   0  0  0  0  0  0  0  0  0  0  0  0
    6.1191    2.1502   -1.2104 C   0  0  0  0  0  0  0  0  0  0  0  0
   -4.9430   -1.4216    2.0266 C   0  0  0  0  0  0  0  0  0  0  0  0
   -5.1033   -2.6696    2.6395 C   0  0  0  0  0  0  0  0  0  0  0  0
   -6.2087   -4.6149    4.3266 H   0  0  0  0  0  0  0  0  0  0  0  0
   -5.2140   -6.0467    4.6193 H   0  0  0  0  0  0  0  0  0  0  0  0
   -5.4295   -5.4911    2.9545 H   0  0  0  0  0  0  0  0  0  0  0  0
   -2.1651   -2.8191    4.3380 H   0  0  0  0  0  0  0  0  0  0  0  0
   -1.8719   -0.6085    3.2793 H   0  0  0  0  0  0  0  0  0  0  0  0
   -3.7397    0.6097   -1.8738 H   0  0  0  0  0  0  0  0  0  0  0  0
   -4.6106   -0.4204   -0.7272 H   0  0  0  0  0  0  0  0  0  0  0  0
   -2.7940   -2.0380   -0.6597 H   0  0  0  0  0  0  0  0  0  0  0  0
   -2.7915   -1.5562   -2.3776 H   0  0  0  0  0  0  0  0  0  0  0  0
   -1.2052   -0.3475    0.8529 H   0  0  0  0  0  0  0  0  0  0  0  0
   -0.8368    2.0222   -1.0836 H   0  0  0  0  0  0  0  0  0  0  0  0
   -0.6572    2.1377    0.6741 H   0  0  0  0  0  0  0  0  0  0  0  0
    1.3455    0.7686    0.5469 H   0  0  0  0  0  0  0  0  0  0  0  0
    3.1836    0.9613   -3.3038 H   0  0  0  0  0  0  0  0  0  0  0  0
    5.3011   -0.1959   -3.5263 H   0  0  0  0  0  0  0  0  0  0  0  0
    5.3877   -0.3805   -1.7728 H   0  0  0  0  0  0  0  0  0  0  0  0
    5.9466    1.9249   -4.6129 H   0  0  0  0  0  0  0  0  0  0  0  0
    7.1287    4.0985   -4.4075 H   0  0  0  0  0  0  0  0  0  0  0  0
    7.0120    3.8003   -0.1354 H   0  0  0  0  0  0  0  0  0  0  0  0
    5.8288    1.6214   -0.3032 H   0  0  0  0  0  0  0  0  0  0  0  0
   -5.7479   -1.0207    1.4140 H   0  0  0  0  0  0  0  0  0  0  0  0
   -6.0302   -3.2084    2.4642 H   0  0  0  0  0  0  0  0  0  0  0  0
  1  2  1  0
  2  3  1  0
  3  4  2  0
  4  5  1  0
  5  6  2  0
  6  7  1  0
  7  8  2  0
  7  9  2  0
  7 10  1  0
 10 11  1  0
 11 12  1  0
 12 13  1  0
 13 14  1  0
 14 15  1  0
 15 16  1  0
 16 17  1  0
 17 18  2  0
 17 19  1  0
 19 20  2  0
 19 21  1  0
 21 22  1  0
 22 23  1  0
 23 24  2  0
 24 25  1  0
 25 26  2  0
 26 27  1  0
 26 28  1  0
 28 29  2  0
  6 30  1  0
 30 31  2  0
 31  3  1  0
 14 10  1  0
 29 23  1  0
  1 32  1  0
  1 33  1  0
  1 34  1  0
  4 35  1  0
  5 36  1  0
 11 37  1  0
 11 38  1  0
 12 39  1  0
 12 40  1  0
 14 41  1  0
 15 42  1  0
 15 43  1  0
 16 44  1  0
 21 45  1  0
 22 46  1  0
 22 47  1  0
 24 48  1  0
 25 49  1  0
 28 50  1  0
 29 51  1  0
 30 52  1  0
 31 53  1  0
M  END
$$$$
