
     RDKit          3D

 36 38  0  0  0  0  0  0  0  0999 V2000
    4.0338    2.7463    0.0304 C   0  0  0  0  0  0  0  0  0  0  0  0
    3.8662    1.2574    0.1232 C   0  0  0  0  0  0  0  0  0  0  0  0
    4.9815    0.4197    0.0454 C   0  0  0  0  0  0  0  0  0  0  0  0
    4.8532   -0.9706    0.1131 C   0  0  0  0  0  0  0  0  0  0  0  0
    3.5652   -1.5014    0.2432 C   0  0  0  0  0  0  0  0  0  0  0  0
    3.1622   -2.8124    0.3502 N   0  0  0  0  0  0  0  0  0  0  0  0
    1.7993   -2.8810    0.4689 C   0  0  0  0  0  0  0  0  0  0  0  0
    1.3028   -1.5966    0.4095 C   0  0  0  0  0  0  0  0  0  0  0  0
   -0.0951   -1.3131    0.4863 C   0  0  0  0  0  0  0  0  0  0  0  0
   -0.7190   -0.3127   -0.1582 C   0  0  0  0  0  0  0  0  0  0  0  0
   -2.1590   -0.0477   -0.0707 C   0  0  0  0  0  0  0  0  0  0  0  0
   -3.1079   -1.0689   -0.0840 C   0  0  0  0  0  0  0  0  0  0  0  0
   -4.4611   -0.7543   -0.0281 C   0  0  0  0  0  0  0  0  0  0  0  0
   -4.8668    0.5333    0.0358 N   0  0  0  0  0  4  0  0  0  0  0  0
   -6.3060    0.8421    0.0855 C   0  0  0  0  0  0  0  0  0  0  0  0
   -3.9666    1.5413    0.0263 C   0  0  0  0  0  0  0  0  0  0  0  0
   -2.6036    1.2727   -0.0308 C   0  0  0  0  0  0  0  0  0  0  0  0
    2.4175   -0.7066    0.2920 C   0  0  0  0  0  0  0  0  0  0  0  0
    2.5820    0.6965    0.2369 C   0  0  0  0  0  0  0  0  0  0  0  0
    4.9923    3.0594    0.4578 H   0  0  0  0  0  0  0  0  0  0  0  0
    3.9924    3.0623   -1.0165 H   0  0  0  0  0  0  0  0  0  0  0  0
    3.2461    3.2636    0.5880 H   0  0  0  0  0  0  0  0  0  0  0  0
    5.9772    0.8473   -0.0608 H   0  0  0  0  0  0  0  0  0  0  0  0
    5.7298   -1.6094    0.0681 H   0  0  0  0  0  0  0  0  0  0  0  0
    3.7907   -3.6044    0.3509 H   0  0  0  0  0  0  0  0  0  0  0  0
    1.3097   -3.8405    0.5684 H   0  0  0  0  0  0  0  0  0  0  0  0
   -0.6735   -1.9943    1.1068 H   0  0  0  0  0  0  0  0  0  0  0  0
   -0.1493    0.3601   -0.7959 H   0  0  0  0  0  0  0  0  0  0  0  0
   -2.8058   -2.1124   -0.1514 H   0  0  0  0  0  0  0  0  0  0  0  0
   -5.2262   -1.5256   -0.0406 H   0  0  0  0  0  0  0  0  0  0  0  0
   -6.4538    1.7727    0.6395 H   0  0  0  0  0  0  0  0  0  0  0  0
   -6.8292    0.0302    0.5972 H   0  0  0  0  0  0  0  0  0  0  0  0
   -6.6549    0.9423   -0.9452 H   0  0  0  0  0  0  0  0  0  0  0  0
   -4.3459    2.5588    0.0616 H   0  0  0  0  0  0  0  0  0  0  0  0
   -1.8941    2.0985   -0.0356 H   0  0  0  0  0  0  0  0  0  0  0  0
    1.7161    1.3474    0.2969 H   0  0  0  0  0  0  0  0  0  0  0  0
  1  2  1  0
  2  3  2  0
  3  4  1  0
  4  5  2  0
  5  6  1  0
  6  7  1  0
  7  8  2  0
  8  9  1  0
  9 10  2  3
 10 11  1  0
 11 12  2  0
 12 13  1  0
 13 14  2  0
 14 15  1  0
 14 16  1  0
 16 17  2  0
  8 18  1  0
 18 19  2  0
 19  2  1  0
 18  5  1  0
 17 11  1  0
  1 20  1  0
  1 21  1  0
  1 22  1  0
  3 23  1  0
  4 24  1  0
  6 25  1  0
  7 26  1  0
  9 27  1  0
 10 28  1  0
 12 29  1  0
 13 30  1  0
 15 31  1  0
 15 32  1  0
 15 33  1  0
 16 34  1  0
 17 35  1  0
 19 36  1  0
M  CHG  1  14   1
M  END
$$$$
