
     RDKit          3D

 38 39  0  0  0  0  0  0  0  0999 V2000
   -0.2188   -1.7780    2.1671 O   0  0  0  0  0  0  0  0  0  0  0  0
   -0.0597   -0.6196    2.5309 C   0  0  0  0  0  0  0  0  0  0  0  0
   -1.0020    0.0487    3.4505 C   0  0  0  0  0  0  0  0  0  0  0  0
   -2.1957    0.4982    3.0371 C   0  0  0  0  0  0  0  0  0  0  0  0
   -2.7089    0.3504    1.6682 C   0  0  0  0  0  0  0  0  0  0  0  0
   -3.2858   -0.8799    1.3092 C   0  0  0  0  0  0  0  0  0  0  0  0
   -3.8168   -1.0807    0.0272 C   0  0  0  0  0  0  0  0  0  0  0  0
   -3.7881   -0.0540   -0.9167 C   0  0  0  0  0  0  0  0  0  0  0  0
   -3.2138    1.1768   -0.5903 C   0  0  0  0  0  0  0  0  0  0  0  0
   -2.6727    1.3655    0.6943 C   0  0  0  0  0  0  0  0  0  0  0  0
   -2.0499    2.6533    0.9765 N   0  0  0  0  0  4  0  0  0  0  0  0
   -0.8848    2.6559    1.4064 O   0  0  0  0  0  0  0  0  0  0  0  0
   -2.7159    3.6679    0.7239 O   0  0  0  0  0  1  0  0  0  0  0  0
    0.9492    0.2225    2.1304 N   0  0  0  0  0  0  0  0  0  0  0  0
    1.8687   -0.1628    1.0774 C   0  0  0  0  0  0  0  0  0  0  0  0
    1.2683    0.0745   -0.3125 C   0  0  0  0  0  0  0  0  0  0  0  0
    2.2158   -0.3211   -1.4196 C   0  0  0  0  0  0  0  0  0  0  0  0
    2.9364    0.6552   -2.1255 C   0  0  0  0  0  0  0  0  0  0  0  0
    3.8164    0.2801   -3.1417 C   0  0  0  0  0  0  0  0  0  0  0  0
    3.9782   -1.0692   -3.4435 C   0  0  0  0  0  0  0  0  0  0  0  0
    4.8297   -1.4291   -4.4147 F   0  0  0  0  0  0  0  0  0  0  0  0
    3.2751   -2.0500   -2.7562 C   0  0  0  0  0  0  0  0  0  0  0  0
    2.3920   -1.6779   -1.7434 C   0  0  0  0  0  0  0  0  0  0  0  0
   -0.6531    0.1925    4.4711 H   0  0  0  0  0  0  0  0  0  0  0  0
   -2.8514    1.0095    3.7385 H   0  0  0  0  0  0  0  0  0  0  0  0
   -3.3035   -1.7053    2.0263 H   0  0  0  0  0  0  0  0  0  0  0  0
   -4.2551   -2.0454   -0.2337 H   0  0  0  0  0  0  0  0  0  0  0  0
   -4.2009   -0.2174   -1.9135 H   0  0  0  0  0  0  0  0  0  0  0  0
   -3.1767    1.9706   -1.3365 H   0  0  0  0  0  0  0  0  0  0  0  0
    0.8409    1.2165    2.3202 H   0  0  0  0  0  0  0  0  0  0  0  0
    2.7829    0.4277    1.2158 H   0  0  0  0  0  0  0  0  0  0  0  0
    2.1311   -1.2198    1.2114 H   0  0  0  0  0  0  0  0  0  0  0  0
    0.9958    1.1325   -0.4187 H   0  0  0  0  0  0  0  0  0  0  0  0
    0.3288   -0.4825   -0.4295 H   0  0  0  0  0  0  0  0  0  0  0  0
    2.8155    1.7128   -1.8906 H   0  0  0  0  0  0  0  0  0  0  0  0
    4.3744    1.0306   -3.6971 H   0  0  0  0  0  0  0  0  0  0  0  0
    3.4168   -3.0982   -3.0108 H   0  0  0  0  0  0  0  0  0  0  0  0
    1.8380   -2.4508   -1.2049 H   0  0  0  0  0  0  0  0  0  0  0  0
  1  2  2  0
  2  3  1  0
  3  4  2  3
  4  5  1  0
  5  6  2  0
  6  7  1  0
  7  8  2  0
  8  9  1  0
  9 10  2  0
 10 11  1  0
 11 12  2  0
 11 13  1  0
  2 14  1  0
 14 15  1  0
 15 16  1  0
 16 17  1  0
 17 18  2  0
 18 19  1  0
 19 20  2  0
 20 21  1  0
 20 22  1  0
 22 23  2  0
 10  5  1  0
 23 17  1  0
  3 24  1  0
  4 25  1  0
  6 26  1  0
  7 27  1  0
  8 28  1  0
  9 29  1  0
 14 30  1  0
 15 31  1  0
 15 32  1  0
 16 33  1  0
 16 34  1  0
 18 35  1  0
 19 36  1  0
 22 37  1  0
 23 38  1  0
M  CHG  2  11   1  13  -1
M  END
$$$$
