
     RDKit          3D

 47 51  0  0  0  0  0  0  0  0999 V2000
    0.8499    0.0820    2.0878 O   0  0  0  0  0  0  0  0  0  0  0  0
    1.3289    0.0299    0.9653 C   0  0  0  0  0  0  0  0  0  0  0  0
    0.7526   -0.4780   -0.1641 O   0  0  0  0  0  0  0  0  0  0  0  0
   -0.6315   -0.6749   -0.0219 C   0  0  0  0  0  0  0  0  0  0  0  0
   -1.5337    0.3211   -0.2077 C   0  0  0  0  0  0  0  0  0  0  0  0
   -1.0664    1.6761   -0.5558 C   0  0  0  0  0  0  0  0  0  0  0  0
   -0.5953    1.9558   -1.8462 C   0  0  0  0  0  0  0  0  0  0  0  0
   -0.0975    3.2227   -2.1556 C   0  0  0  0  0  0  0  0  0  0  0  0
   -0.0699    4.2180   -1.1800 C   0  0  0  0  0  0  0  0  0  0  0  0
   -0.5417    3.9496    0.1044 C   0  0  0  0  0  0  0  0  0  0  0  0
   -1.0383    2.6829    0.4169 C   0  0  0  0  0  0  0  0  0  0  0  0
   -3.0185    0.0573   -0.0473 C   0  0  0  0  0  0  0  0  0  0  0  0
   -3.8525    0.9493   -0.1797 O   0  0  0  0  0  0  0  0  0  0  0  0
   -3.3566   -1.2386    0.2429 N   0  0  0  0  0  0  0  0  0  0  0  0
   -2.4211   -2.2463    0.3903 C   0  0  0  0  0  0  0  0  0  0  0  0
   -3.0230   -3.4624    0.6682 C   0  0  0  0  0  0  0  0  0  0  0  0
   -2.2310   -4.5797    0.8397 C   0  0  0  0  0  0  0  0  0  0  0  0
   -0.8395   -4.4286    0.7233 C   0  0  0  0  0  0  0  0  0  0  0  0
   -0.2564   -3.1730    0.4399 C   0  0  0  0  0  0  0  0  0  0  0  0
   -1.0619   -2.0476    0.2687 C   0  0  0  0  0  0  0  0  0  0  0  0
   -4.5114   -3.2999    0.7274 C   0  0  0  0  0  0  0  0  0  0  0  0
   -4.6961   -1.7878    0.4423 C   0  0  0  0  0  0  0  0  0  0  0  0
    2.6992    0.5131    0.6489 C   0  0  0  0  0  0  0  0  0  0  0  0
    3.5959    0.7012    1.7113 C   0  0  0  0  0  0  0  0  0  0  0  0
    4.8874    1.1776    1.4740 C   0  0  0  0  0  0  0  0  0  0  0  0
    5.2915    1.4799    0.1734 C   0  0  0  0  0  0  0  0  0  0  0  0
    4.3929    1.3039   -0.8880 C   0  0  0  0  0  0  0  0  0  0  0  0
    4.8113    1.6363   -2.2561 N   0  0  0  0  0  4  0  0  0  0  0  0
    3.9929    1.4535   -3.1683 O   0  0  0  0  0  0  0  0  0  0  0  0
    5.9581    2.0763   -2.4172 O   0  0  0  0  0  1  0  0  0  0  0  0
    3.0970    0.8205   -0.6592 C   0  0  0  0  0  0  0  0  0  0  0  0
   -0.6133    1.1891   -2.6177 H   0  0  0  0  0  0  0  0  0  0  0  0
    0.2634    3.4343   -3.1592 H   0  0  0  0  0  0  0  0  0  0  0  0
    0.3107    5.2069   -1.4230 H   0  0  0  0  0  0  0  0  0  0  0  0
   -0.5279    4.7274    0.8637 H   0  0  0  0  0  0  0  0  0  0  0  0
   -1.3993    2.4839    1.4242 H   0  0  0  0  0  0  0  0  0  0  0  0
   -2.6646   -5.5502    1.0594 H   0  0  0  0  0  0  0  0  0  0  0  0
   -0.1953   -5.2959    0.8564 H   0  0  0  0  0  0  0  0  0  0  0  0
    0.8247   -3.0990    0.3613 H   0  0  0  0  0  0  0  0  0  0  0  0
   -4.9010   -3.5617    1.7158 H   0  0  0  0  0  0  0  0  0  0  0  0
   -5.0067   -3.9047   -0.0383 H   0  0  0  0  0  0  0  0  0  0  0  0
   -5.1740   -1.2687    1.2804 H   0  0  0  0  0  0  0  0  0  0  0  0
   -5.2947   -1.6103   -0.4578 H   0  0  0  0  0  0  0  0  0  0  0  0
    3.2875    0.4801    2.7330 H   0  0  0  0  0  0  0  0  0  0  0  0
    5.5749    1.3190    2.3058 H   0  0  0  0  0  0  0  0  0  0  0  0
    6.2995    1.8554    0.0056 H   0  0  0  0  0  0  0  0  0  0  0  0
    2.4006    0.7041   -1.4870 H   0  0  0  0  0  0  0  0  0  0  0  0
  1  2  2  0
  2  3  1  0
  3  4  1  0
  4  5  2  0
  5  6  1  0
  6  7  2  0
  7  8  1  0
  8  9  2  0
  9 10  1  0
 10 11  2  0
  5 12  1  0
 12 13  2  0
 12 14  1  0
 14 15  1  0
 15 16  2  0
 16 17  1  0
 17 18  2  0
 18 19  1  0
 19 20  2  0
 16 21  1  0
 21 22  1  0
  2 23  1  0
 23 24  2  0
 24 25  1  0
 25 26  2  0
 26 27  1  0
 27 28  1  0
 28 29  2  0
 28 30  1  0
 27 31  2  0
 20  4  1  0
 31 23  1  0
 11  6  1  0
 22 14  1  0
 20 15  1  0
  7 32  1  0
  8 33  1  0
  9 34  1  0
 10 35  1  0
 11 36  1  0
 17 37  1  0
 18 38  1  0
 19 39  1  0
 21 40  1  0
 21 41  1  0
 22 42  1  0
 22 43  1  0
 24 44  1  0
 25 45  1  0
 26 46  1  0
 31 47  1  0
M  CHG  2  28   1  30  -1
M  END
$$$$
