
     RDKit          3D

 49 52  0  0  0  0  0  0  0  0999 V2000
   -3.6039   -1.7139    2.5879 O   0  0  0  0  0  0  0  0  0  0  0  0
   -3.7871   -0.7438    1.8554 C   0  0  0  0  0  0  0  0  0  0  0  0
   -2.6846   -0.0503    1.2106 C   0  0  0  0  0  0  0  0  0  0  0  0
   -2.6616    0.8928    0.1680 C   0  0  0  0  0  0  0  0  0  0  0  0
   -1.4269    1.2758   -0.1567 N   0  0  0  0  0  0  0  0  0  0  0  0
   -0.6178    0.6085    0.6926 N   0  0  0  0  0  0  0  0  0  0  0  0
    0.7962    0.7570    0.6290 C   0  0  0  0  0  0  0  0  0  0  0  0
    1.6213   -0.1895    1.2658 C   0  0  0  0  0  0  0  0  0  0  0  0
    3.0158   -0.1117    1.1582 C   0  0  0  0  0  0  0  0  0  0  0  0
    3.6026    0.9126    0.4118 C   0  0  0  0  0  0  0  0  0  0  0  0
    5.3742    1.0064    0.2624 S   0  0  0  0  0  6  0  0  0  0  0  0
    5.7209    2.4113    0.2468 O   0  0  0  0  0  0  0  0  0  0  0  0
    5.9516    0.0990    1.2294 O   0  0  0  0  0  0  0  0  0  0  0  0
    5.6514    0.4284   -1.2962 N   0  0  0  0  0  0  0  0  0  0  0  0
    5.0945   -0.8177   -1.6955 C   0  0  0  0  0  0  0  0  0  0  0  0
    4.1583   -0.8347   -2.7311 C   0  0  0  0  0  0  0  0  0  0  0  0
    3.5659   -2.0389   -3.1146 C   0  0  0  0  0  0  0  0  0  0  0  0
    3.9123   -3.2245   -2.4669 C   0  0  0  0  0  0  0  0  0  0  0  0
    4.8537   -3.2077   -1.4383 C   0  0  0  0  0  0  0  0  0  0  0  0
    5.4457   -2.0042   -1.0524 C   0  0  0  0  0  0  0  0  0  0  0  0
    2.8140    1.8879   -0.1965 C   0  0  0  0  0  0  0  0  0  0  0  0
    1.4170    1.7988   -0.0848 C   0  0  0  0  0  0  0  0  0  0  0  0
    0.6754    2.8999   -0.6746 N   0  0  0  0  0  4  0  0  0  0  0  0
    0.6662    2.9620   -1.9126 O   0  0  0  0  0  0  0  0  0  0  0  0
    0.2237    3.7502    0.1052 O   0  0  0  0  0  1  0  0  0  0  0  0
   -1.3458   -0.2307    1.5054 C   0  0  0  0  0  0  0  0  0  0  0  0
   -5.1820   -0.3329    1.5785 C   0  0  0  0  0  0  0  0  0  0  0  0
   -6.0833   -1.3301    1.1882 C   0  0  0  0  0  0  0  0  0  0  0  0
   -7.4044   -0.9894    0.9283 C   0  0  0  0  0  0  0  0  0  0  0  0
   -8.2660   -1.9384    0.5416 F   0  0  0  0  0  0  0  0  0  0  0  0
   -7.8482    0.3226    1.0611 C   0  0  0  0  0  0  0  0  0  0  0  0
   -6.9600    1.3169    1.4745 C   0  0  0  0  0  0  0  0  0  0  0  0
   -5.6297    0.9854    1.7404 C   0  0  0  0  0  0  0  0  0  0  0  0
   -4.7704    1.9492    2.1821 O   0  0  0  0  0  0  0  0  0  0  0  0
   -3.4918    1.3192   -0.3810 H   0  0  0  0  0  0  0  0  0  0  0  0
    1.2142   -1.0260    1.8295 H   0  0  0  0  0  0  0  0  0  0  0  0
    3.6333   -0.8645    1.6470 H   0  0  0  0  0  0  0  0  0  0  0  0
    5.7066    1.1739   -1.9883 H   0  0  0  0  0  0  0  0  0  0  0  0
    3.8738    0.0804   -3.2431 H   0  0  0  0  0  0  0  0  0  0  0  0
    2.8352   -2.0535   -3.9200 H   0  0  0  0  0  0  0  0  0  0  0  0
    3.4533   -4.1632   -2.7683 H   0  0  0  0  0  0  0  0  0  0  0  0
    5.1315   -4.1328   -0.9389 H   0  0  0  0  0  0  0  0  0  0  0  0
    6.1882   -2.0069   -0.2580 H   0  0  0  0  0  0  0  0  0  0  0  0
    3.2741    2.7119   -0.7400 H   0  0  0  0  0  0  0  0  0  0  0  0
   -0.8887   -0.8669    2.2487 H   0  0  0  0  0  0  0  0  0  0  0  0
   -5.7664   -2.3642    1.0870 H   0  0  0  0  0  0  0  0  0  0  0  0
   -8.8878    0.5584    0.8513 H   0  0  0  0  0  0  0  0  0  0  0  0
   -7.3228    2.3346    1.5895 H   0  0  0  0  0  0  0  0  0  0  0  0
   -5.2418    2.7933    2.2934 H   0  0  0  0  0  0  0  0  0  0  0  0
  1  2  2  0
  2  3  1  0
  3  4  1  0
  4  5  2  0
  5  6  1  0
  6  7  1  0
  7  8  2  0
  8  9  1  0
  9 10  2  0
 10 11  1  0
 11 12  2  0
 11 13  2  0
 11 14  1  0
 14 15  1  0
 15 16  2  0
 16 17  1  0
 17 18  2  0
 18 19  1  0
 19 20  2  0
 10 21  1  0
 21 22  2  0
 22 23  1  0
 23 24  2  0
 23 25  1  0
  6 26  1  0
  2 27  1  0
 27 28  2  0
 28 29  1  0
 29 30  1  0
 29 31  2  0
 31 32  1  0
 32 33  2  0
 33 34  1  0
 26  3  2  0
 33 27  1  0
 22  7  1  0
 20 15  1  0
  4 35  1  0
  8 36  1  0
  9 37  1  0
 14 38  1  0
 16 39  1  0
 17 40  1  0
 18 41  1  0
 19 42  1  0
 20 43  1  0
 21 44  1  0
 26 45  1  0
 28 46  1  0
 31 47  1  0
 32 48  1  0
 34 49  1  0
M  CHG  2  23   1  25  -1
M  END
$$$$
