
     RDKit          3D

 53 56  0  0  0  0  0  0  0  0999 V2000
   -8.2931    2.2033   -2.5597 C   0  0  0  0  0  0  0  0  0  0  0  0
   -7.1031    1.4633   -2.3126 O   0  0  0  0  0  0  0  0  0  0  0  0
   -6.8574    1.0992   -1.0169 C   0  0  0  0  0  0  0  0  0  0  0  0
   -7.6571    1.4022    0.0849 C   0  0  0  0  0  0  0  0  0  0  0  0
   -7.2863    0.9672    1.3585 C   0  0  0  0  0  0  0  0  0  0  0  0
   -6.1156    0.2292    1.5339 C   0  0  0  0  0  0  0  0  0  0  0  0
   -5.3034   -0.0821    0.4358 C   0  0  0  0  0  0  0  0  0  0  0  0
   -4.0569   -0.8726    0.6758 C   0  0  0  0  0  0  0  0  0  0  0  0
   -3.7700   -1.1905    1.8291 O   0  0  0  0  0  0  0  0  0  0  0  0
   -3.1838   -1.2378   -0.5271 C   0  0  0  0  0  0  0  0  0  0  0  0
   -2.0715   -2.0742   -0.2393 O   0  0  0  0  0  0  0  0  0  0  0  0
   -0.9030   -1.4792    0.1411 C   0  0  0  0  0  0  0  0  0  0  0  0
   -0.7645   -0.1882    0.6445 C   0  0  0  0  0  0  0  0  0  0  0  0
    0.5004    0.2999    1.0111 C   0  0  0  0  0  0  0  0  0  0  0  0
    1.6517   -0.4913    0.8888 C   0  0  0  0  0  0  0  0  0  0  0  0
    3.0110   -0.0348    1.2468 C   0  0  0  0  0  0  0  0  0  0  0  0
    3.1349    1.3719    1.7753 C   0  0  0  0  0  0  0  0  0  0  0  0
    4.0555   -0.8777    1.0720 C   0  0  0  0  0  0  0  0  0  0  0  0
    5.5063   -0.5542    1.3733 C   0  0  0  0  0  0  0  0  0  0  0  0
    6.2744   -0.0585    0.1644 C   0  0  0  0  0  0  0  0  0  0  0  0
    6.3416    1.3095   -0.1366 C   0  0  0  0  0  0  0  0  0  0  0  0
    7.0381    1.7577   -1.2612 C   0  0  0  0  0  0  0  0  0  0  0  0
    7.6741    0.8448   -2.0990 C   0  0  0  0  0  0  0  0  0  0  0  0
    7.6156   -0.5168   -1.8125 C   0  0  0  0  0  0  0  0  0  0  0  0
    6.9205   -0.9659   -0.6882 C   0  0  0  0  0  0  0  0  0  0  0  0
    3.8483   -2.2783    0.5975 C   0  0  0  0  0  0  0  0  0  0  0  0
    4.7684   -3.0876    0.5295 O   0  0  0  0  0  0  0  0  0  0  0  0
    2.5649   -2.6514    0.2429 O   0  0  0  0  0  0  0  0  0  0  0  0
    1.4800   -1.7784    0.3940 C   0  0  0  0  0  0  0  0  0  0  0  0
    0.2293   -2.2810    0.0275 C   0  0  0  0  0  0  0  0  0  0  0  0
   -5.6828    0.3582   -0.8378 C   0  0  0  0  0  0  0  0  0  0  0  0
   -8.3438    2.4051   -3.6340 H   0  0  0  0  0  0  0  0  0  0  0  0
   -9.1817    1.6243   -2.2870 H   0  0  0  0  0  0  0  0  0  0  0  0
   -8.2729    3.1669   -2.0402 H   0  0  0  0  0  0  0  0  0  0  0  0
   -8.5746    1.9740   -0.0115 H   0  0  0  0  0  0  0  0  0  0  0  0
   -7.9106    1.2026    2.2175 H   0  0  0  0  0  0  0  0  0  0  0  0
   -5.8417   -0.1035    2.5342 H   0  0  0  0  0  0  0  0  0  0  0  0
   -2.8648   -0.3316   -1.0559 H   0  0  0  0  0  0  0  0  0  0  0  0
   -3.8117   -1.8162   -1.2145 H   0  0  0  0  0  0  0  0  0  0  0  0
   -1.6204    0.4618    0.7929 H   0  0  0  0  0  0  0  0  0  0  0  0
    0.5498    1.3130    1.4014 H   0  0  0  0  0  0  0  0  0  0  0  0
    2.8097    2.0963    1.0203 H   0  0  0  0  0  0  0  0  0  0  0  0
    4.1498    1.6518    2.0594 H   0  0  0  0  0  0  0  0  0  0  0  0
    2.5242    1.4995    2.6762 H   0  0  0  0  0  0  0  0  0  0  0  0
    5.5933    0.1833    2.1792 H   0  0  0  0  0  0  0  0  0  0  0  0
    6.0208   -1.4289    1.7934 H   0  0  0  0  0  0  0  0  0  0  0  0
    5.8576    2.0419    0.5033 H   0  0  0  0  0  0  0  0  0  0  0  0
    7.0845    2.8206   -1.4832 H   0  0  0  0  0  0  0  0  0  0  0  0
    8.2154    1.1932   -2.9744 H   0  0  0  0  0  0  0  0  0  0  0  0
    8.1097   -1.2329   -2.4640 H   0  0  0  0  0  0  0  0  0  0  0  0
    6.8868   -2.0348   -0.4827 H   0  0  0  0  0  0  0  0  0  0  0  0
    0.1414   -3.2972   -0.3470 H   0  0  0  0  0  0  0  0  0  0  0  0
   -5.0869    0.1418   -1.7195 H   0  0  0  0  0  0  0  0  0  0  0  0
  1  2  1  0
  2  3  1  0
  3  4  2  0
  4  5  1  0
  5  6  2  0
  6  7  1  0
  7  8  1  0
  8  9  2  0
  8 10  1  0
 10 11  1  0
 11 12  1  0
 12 13  2  0
 13 14  1  0
 14 15  2  0
 15 16  1  0
 16 17  1  0
 16 18  2  0
 18 19  1  0
 19 20  1  0
 20 21  2  0
 21 22  1  0
 22 23  2  0
 23 24  1  0
 24 25  2  0
 18 26  1  0
 26 27  2  0
 26 28  1  0
 28 29  1  0
 29 30  2  0
  7 31  2  0
 31  3  1  0
 30 12  1  0
 29 15  1  0
 25 20  1  0
  1 32  1  0
  1 33  1  0
  1 34  1  0
  4 35  1  0
  5 36  1  0
  6 37  1  0
 10 38  1  0
 10 39  1  0
 13 40  1  0
 14 41  1  0
 17 42  1  0
 17 43  1  0
 17 44  1  0
 19 45  1  0
 19 46  1  0
 21 47  1  0
 22 48  1  0
 23 49  1  0
 24 50  1  0
 25 51  1  0
 30 52  1  0
 31 53  1  0
M  END
$$$$
