
     RDKit          3D

 47 49  0  0  0  0  0  0  0  0999 V2000
   -3.8784    2.5540    1.6190 C   0  0  0  0  0  0  0  0  0  0  0  0
   -2.7822    1.6867    1.0230 C   0  0  0  0  0  0  0  0  0  0  0  0
   -3.1680    0.2688    1.0029 N   0  0  0  0  0  4  0  0  0  0  0  0
   -2.8830   -0.5758    1.9865 C   0  0  0  0  0  0  0  0  0  0  0  0
   -2.1510   -0.3183    3.1708 C   0  0  0  0  0  0  0  0  0  0  0  0
   -0.8177   -0.1562    3.2024 C   0  0  0  0  0  0  0  0  0  0  0  0
    0.0959   -0.2170    2.0797 C   0  0  0  0  0  0  0  0  0  0  0  0
    1.3954    0.0988    2.1896 C   0  0  0  0  0  0  0  0  0  0  0  0
    2.3225    0.0751    1.0519 C   0  0  0  0  0  0  0  0  0  0  0  0
    3.2408    1.1122    0.9008 C   0  0  0  0  0  0  0  0  0  0  0  0
    4.1452    1.1179   -0.1735 C   0  0  0  0  0  0  0  0  0  0  0  0
    4.1892    0.0865   -1.1272 C   0  0  0  0  0  0  0  0  0  0  0  0
    5.0779    0.1091   -2.2079 N   0  0  0  0  0  0  0  0  0  0  0  0
    6.2350    1.0042   -2.1543 C   0  0  0  0  0  0  0  0  0  0  0  0
    5.2679   -1.1073   -2.9979 C   0  0  0  0  0  0  0  0  0  0  0  0
    3.2545   -0.9482   -0.9466 C   0  0  0  0  0  0  0  0  0  0  0  0
    2.3465   -0.9656    0.1247 C   0  0  0  0  0  0  0  0  0  0  0  0
   -3.5634   -2.1221    1.6908 S   0  0  0  0  0  0  0  0  0  0  0  0
   -4.2034   -1.6266    0.1741 C   0  0  0  0  0  0  0  0  0  0  0  0
   -4.9371   -2.3809   -0.7550 C   0  0  0  0  0  0  0  0  0  0  0  0
   -5.3650   -1.7488   -1.9248 C   0  0  0  0  0  0  0  0  0  0  0  0
   -5.0753   -0.4086   -2.1597 C   0  0  0  0  0  0  0  0  0  0  0  0
   -4.3450    0.3395   -1.2277 C   0  0  0  0  0  0  0  0  0  0  0  0
   -3.8981   -0.2851   -0.0448 C   0  0  0  0  0  0  0  0  0  0  0  0
   -4.0804    2.2679    2.6564 H   0  0  0  0  0  0  0  0  0  0  0  0
   -3.5821    3.6065    1.6043 H   0  0  0  0  0  0  0  0  0  0  0  0
   -4.8125    2.4519    1.0582 H   0  0  0  0  0  0  0  0  0  0  0  0
   -1.8577    1.8310    1.5881 H   0  0  0  0  0  0  0  0  0  0  0  0
   -2.5516    2.0151    0.0040 H   0  0  0  0  0  0  0  0  0  0  0  0
   -2.7019   -0.2995    4.1104 H   0  0  0  0  0  0  0  0  0  0  0  0
   -0.3581    0.0235    4.1771 H   0  0  0  0  0  0  0  0  0  0  0  0
   -0.2888   -0.5253    1.1107 H   0  0  0  0  0  0  0  0  0  0  0  0
    1.8233    0.4290    3.1344 H   0  0  0  0  0  0  0  0  0  0  0  0
    3.2675    1.9394    1.6064 H   0  0  0  0  0  0  0  0  0  0  0  0
    4.8204    1.9664   -0.2387 H   0  0  0  0  0  0  0  0  0  0  0  0
    6.8525    0.9101   -3.0548 H   0  0  0  0  0  0  0  0  0  0  0  0
    6.8703    0.7749   -1.2916 H   0  0  0  0  0  0  0  0  0  0  0  0
    5.9237    2.0531   -2.1152 H   0  0  0  0  0  0  0  0  0  0  0  0
    4.3375   -1.4023   -3.4953 H   0  0  0  0  0  0  0  0  0  0  0  0
    6.0001   -0.9531   -3.7987 H   0  0  0  0  0  0  0  0  0  0  0  0
    5.6296   -1.9315   -2.3721 H   0  0  0  0  0  0  0  0  0  0  0  0
    3.2123   -1.7858   -1.6366 H   0  0  0  0  0  0  0  0  0  0  0  0
    1.6753   -1.8149    0.2198 H   0  0  0  0  0  0  0  0  0  0  0  0
   -5.1736   -3.4273   -0.5744 H   0  0  0  0  0  0  0  0  0  0  0  0
   -5.9369   -2.3150   -2.6606 H   0  0  0  0  0  0  0  0  0  0  0  0
   -5.4257    0.0613   -3.0790 H   0  0  0  0  0  0  0  0  0  0  0  0
   -4.1469    1.3844   -1.4495 H   0  0  0  0  0  0  0  0  0  0  0  0
  1  2  1  0
  2  3  1  0
  3  4  2  0
  4  5  1  0
  5  6  2  3
  6  7  1  0
  7  8  2  3
  8  9  1  0
  9 10  2  0
 10 11  1  0
 11 12  2  0
 12 13  1  0
 13 14  1  0
 13 15  1  0
 12 16  1  0
 16 17  2  0
  4 18  1  0
 18 19  1  0
 19 20  2  0
 20 21  1  0
 21 22  2  0
 22 23  1  0
 23 24  2  0
 24  3  1  0
 17  9  1  0
 24 19  1  0
  1 25  1  0
  1 26  1  0
  1 27  1  0
  2 28  1  0
  2 29  1  0
  5 30  1  0
  6 31  1  0
  7 32  1  0
  8 33  1  0
 10 34  1  0
 11 35  1  0
 14 36  1  0
 14 37  1  0
 14 38  1  0
 15 39  1  0
 15 40  1  0
 15 41  1  0
 16 42  1  0
 17 43  1  0
 20 44  1  0
 21 45  1  0
 22 46  1  0
 23 47  1  0
M  CHG  1   3   1
M  END
$$$$
