
     RDKit          3D

 92 94  0  0  0  0  0  0  0  0999 V2000
   -1.3381   -4.7979    1.2995 C   0  0  0  0  0  0  0  0  0  0  0  0
   -0.9565   -3.3503    1.3565 C   0  0  0  0  0  0  0  0  0  0  0  0
   -0.0277   -2.9128    2.0190 O   0  0  0  0  0  0  0  0  0  0  0  0
   -1.7850   -2.6285    0.5585 O   0  0  0  0  0  0  0  0  0  0  0  0
   -1.5502   -1.1909    0.4809 C   0  0  1  0  0  0  0  0  0  0  0  0
   -1.4289   -0.8299   -1.0311 C   0  0  2  0  0  0  0  0  0  0  0  0
   -2.5255   -1.4169   -1.7737 O   0  0  0  0  0  0  0  0  0  0  0  0
   -3.5599   -0.6154   -2.1292 C   0  0  0  0  0  0  0  0  0  0  0  0
   -4.5909   -1.4151   -2.8656 C   0  0  0  0  0  0  0  0  0  0  0  0
   -3.6662    0.5748   -1.8762 O   0  0  0  0  0  0  0  0  0  0  0  0
   -0.1232   -1.3504   -1.6478 C   0  0  0  0  0  0  0  0  0  0  0  0
   -0.1746   -2.6876   -2.3444 C   0  0  0  0  0  0  0  0  0  0  0  0
    1.0368   -0.6553   -1.6368 C   0  0  0  0  0  0  0  0  0  0  0  0
    1.2857    0.6779   -0.9372 C   0  0  1  0  0  0  0  0  0  0  0  0
    2.7087    0.7779   -0.3217 C   0  0  1  0  0  0  0  0  0  0  0  0
    3.1906   -0.4694    0.1866 O   0  0  0  0  0  0  0  0  0  0  0  0
    2.7777   -0.7791    1.4424 C   0  0  0  0  0  0  0  0  0  0  0  0
    2.1018   -0.0641    2.1628 O   0  0  0  0  0  0  0  0  0  0  0  0
    3.3231   -2.0974    1.8507 C   0  0  0  0  0  0  0  0  0  0  0  0
    3.7855   -3.0344    0.9155 C   0  0  0  0  0  0  0  0  0  0  0  0
    4.2951   -4.2602    1.3473 C   0  0  0  0  0  0  0  0  0  0  0  0
    4.3447   -4.5557    2.7108 C   0  0  0  0  0  0  0  0  0  0  0  0
    3.8779   -3.6304    3.6446 C   0  0  0  0  0  0  0  0  0  0  0  0
    3.3627   -2.4058    3.2170 C   0  0  0  0  0  0  0  0  0  0  0  0
    3.6100    1.3623   -1.4313 C   0  0  1  0  0  0  0  0  0  0  0  0
    4.6877    0.4271   -1.9673 C   0  0  0  0  0  0  0  0  0  0  0  0
    2.6473    1.8319   -2.5317 C   0  0  0  0  0  0  0  0  0  0  0  0
    1.2488    1.9172   -1.8750 C   0  0  1  0  0  0  0  0  0  0  0  0
    0.2820    1.7781   -2.9143 O   0  0  0  0  0  0  0  0  0  0  0  0
    1.0257    3.2803   -1.1258 C   0  0  1  0  0  0  0  0  0  0  0  0
    1.3202    4.3368   -2.0902 O   0  0  0  0  0  0  0  0  0  0  0  0
    1.9302    5.4502   -1.6014 C   0  0  0  0  0  0  0  0  0  0  0  0
    2.1287    6.4519   -2.6955 C   0  0  0  0  0  0  0  0  0  0  0  0
    2.2630    5.6225   -0.4380 O   0  0  0  0  0  0  0  0  0  0  0  0
   -0.3943    3.5822   -0.5260 C   0  0  1  0  0  0  0  0  0  0  0  0
   -1.4801    3.7859   -1.5960 C   0  0  0  0  0  0  0  0  0  0  0  0
   -0.7903    2.6556    0.6118 C   0  0  0  0  0  0  0  0  0  0  0  0
   -1.9292    1.9444    0.7120 C   0  0  0  0  0  0  0  0  0  0  0  0
   -2.3503    0.9741    1.8131 C   0  0  0  0  0  0  0  0  0  0  0  0
   -3.6294    1.5775    2.4479 C   0  0  0  0  0  0  0  0  0  0  0  0
   -1.3131    0.8488    2.9506 C   0  0  0  0  0  0  0  0  0  0  0  0
   -2.7101   -0.4464    1.2196 C   0  0  2  0  0  0  0  0  0  0  0  0
   -3.1771   -1.2698    2.3289 O   0  0  0  0  0  0  0  0  0  0  0  0
   -4.2691   -2.0453    2.0900 C   0  0  0  0  0  0  0  0  0  0  0  0
   -4.6145   -2.8319    3.3164 C   0  0  0  0  0  0  0  0  0  0  0  0
   -4.8802   -2.1200    1.0330 O   0  0  0  0  0  0  0  0  0  0  0  0
   -1.1159   -5.2016    0.3083 H   0  0  0  0  0  0  0  0  0  0  0  0
   -2.3997   -4.9103    1.5328 H   0  0  0  0  0  0  0  0  0  0  0  0
   -0.7629   -5.3546    2.0461 H   0  0  0  0  0  0  0  0  0  0  0  0
   -0.6060   -0.9481    0.9726 H   0  0  0  0  0  0  0  0  0  0  0  0
   -1.4369    0.2524   -1.1712 H   0  0  0  0  0  0  0  0  0  0  0  0
   -5.0599   -2.1295   -2.1835 H   0  0  0  0  0  0  0  0  0  0  0  0
   -4.1244   -1.9355   -3.7067 H   0  0  0  0  0  0  0  0  0  0  0  0
   -5.3582   -0.7435   -3.2627 H   0  0  0  0  0  0  0  0  0  0  0  0
    0.8254   -3.0656   -2.5819 H   0  0  0  0  0  0  0  0  0  0  0  0
   -0.7277   -2.6044   -3.2854 H   0  0  0  0  0  0  0  0  0  0  0  0
   -0.6604   -3.4400   -1.7183 H   0  0  0  0  0  0  0  0  0  0  0  0
    1.8948   -1.0791   -2.1555 H   0  0  0  0  0  0  0  0  0  0  0  0
    0.5722    0.7507   -0.1223 H   0  0  0  0  0  0  0  0  0  0  0  0
    2.6994    1.5152    0.4930 H   0  0  0  0  0  0  0  0  0  0  0  0
    3.7409   -2.8238   -0.1508 H   0  0  0  0  0  0  0  0  0  0  0  0
    4.6492   -4.9882    0.6227 H   0  0  0  0  0  0  0  0  0  0  0  0
    4.7382   -5.5118    3.0458 H   0  0  0  0  0  0  0  0  0  0  0  0
    3.9113   -3.8625    4.7066 H   0  0  0  0  0  0  0  0  0  0  0  0
    2.9907   -1.6926    3.9502 H   0  0  0  0  0  0  0  0  0  0  0  0
    4.1156    2.2469   -1.0205 H   0  0  0  0  0  0  0  0  0  0  0  0
    4.2593   -0.4982   -2.3693 H   0  0  0  0  0  0  0  0  0  0  0  0
    5.2522    0.9113   -2.7707 H   0  0  0  0  0  0  0  0  0  0  0  0
    5.3963    0.1591   -1.1755 H   0  0  0  0  0  0  0  0  0  0  0  0
    2.9781    2.7767   -2.9761 H   0  0  0  0  0  0  0  0  0  0  0  0
    2.6256    1.1143   -3.3640 H   0  0  0  0  0  0  0  0  0  0  0  0
    0.3480    2.5706   -3.4800 H   0  0  0  0  0  0  0  0  0  0  0  0
    1.7547    3.3373   -0.3090 H   0  0  0  0  0  0  0  0  0  0  0  0
    2.7415    7.2764   -2.3199 H   0  0  0  0  0  0  0  0  0  0  0  0
    2.6560    5.9874   -3.5329 H   0  0  0  0  0  0  0  0  0  0  0  0
    1.1613    6.8457   -3.0166 H   0  0  0  0  0  0  0  0  0  0  0  0
   -0.3043    4.5703   -0.0517 H   0  0  0  0  0  0  0  0  0  0  0  0
   -1.1689    4.5131   -2.3550 H   0  0  0  0  0  0  0  0  0  0  0  0
   -1.7438    2.8554   -2.1063 H   0  0  0  0  0  0  0  0  0  0  0  0
   -2.3970    4.1818   -1.1417 H   0  0  0  0  0  0  0  0  0  0  0  0
   -0.0507    2.5879    1.4102 H   0  0  0  0  0  0  0  0  0  0  0  0
   -2.6737    2.0477   -0.0793 H   0  0  0  0  0  0  0  0  0  0  0  0
   -3.4492    2.5968    2.8109 H   0  0  0  0  0  0  0  0  0  0  0  0
   -3.9769    0.9870    3.3020 H   0  0  0  0  0  0  0  0  0  0  0  0
   -4.4507    1.6266    1.7232 H   0  0  0  0  0  0  0  0  0  0  0  0
   -0.3610    0.4545    2.5931 H   0  0  0  0  0  0  0  0  0  0  0  0
   -1.1131    1.8207    3.4144 H   0  0  0  0  0  0  0  0  0  0  0  0
   -1.6631    0.1843    3.7471 H   0  0  0  0  0  0  0  0  0  0  0  0
   -3.5424   -0.3019    0.5250 H   0  0  0  0  0  0  0  0  0  0  0  0
   -4.6687   -2.1668    4.1829 H   0  0  0  0  0  0  0  0  0  0  0  0
   -3.8666   -3.6129    3.4782 H   0  0  0  0  0  0  0  0  0  0  0  0
   -5.5976   -3.2957    3.1825 H   0  0  0  0  0  0  0  0  0  0  0  0
  1  2  1  0
  2  3  2  0
  2  4  1  0
  4  5  1  0
  5  6  1  0
  6  7  1  0
  7  8  1  0
  8  9  1  0
  8 10  2  0
  6 11  1  0
 11 12  1  0
 11 13  2  0
 13 14  1  0
 14 15  1  0
 15 16  1  0
 16 17  1  0
 17 18  2  0
 17 19  1  0
 19 20  2  0
 20 21  1  0
 21 22  2  0
 22 23  1  0
 23 24  2  0
 15 25  1  0
 25 26  1  0
 25 27  1  0
 27 28  1  0
 28 29  1  6
 28 30  1  0
 30 31  1  0
 31 32  1  0
 32 33  1  0
 32 34  2  0
 30 35  1  0
 35 36  1  0
 35 37  1  0
 37 38  2  0
 38 39  1  0
 39 40  1  0
 39 41  1  0
 39 42  1  0
 42 43  1  0
 43 44  1  0
 44 45  1  0
 44 46  2  0
 42  5  1  0
 28 14  1  0
 24 19  1  0
  1 47  1  0
  1 48  1  0
  1 49  1  0
  5 50  1  1
  6 51  1  1
  9 52  1  0
  9 53  1  0
  9 54  1  0
 12 55  1  0
 12 56  1  0
 12 57  1  0
 13 58  1  0
 14 59  1  1
 15 60  1  1
 20 61  1  0
 21 62  1  0
 22 63  1  0
 23 64  1  0
 24 65  1  0
 25 66  1  1
 26 67  1  0
 26 68  1  0
 26 69  1  0
 27 70  1  0
 27 71  1  0
 29 72  1  0
 30 73  1  1
 33 74  1  0
 33 75  1  0
 33 76  1  0
 35 77  1  1
 36 78  1  0
 36 79  1  0
 36 80  1  0
 37 81  1  0
 38 82  1  0
 40 83  1  0
 40 84  1  0
 40 85  1  0
 41 86  1  0
 41 87  1  0
 41 88  1  0
 42 89  1  6
 45 90  1  0
 45 91  1  0
 45 92  1  0
M  END
$$$$
