
     RDKit          3D

 44 46  0  0  0  0  0  0  0  0999 V2000
    4.3773   -2.8701   -2.6758 C   0  0  0  0  0  0  0  0  0  0  0  0
    3.9088   -2.2517   -1.3907 C   0  0  0  0  0  0  0  0  0  0  0  0
    2.6260   -2.5249   -0.8990 C   0  0  0  0  0  0  0  0  0  0  0  0
    2.1796   -1.9283    0.2833 C   0  0  0  0  0  0  0  0  0  0  0  0
    3.0039   -1.0319    0.9698 C   0  0  0  0  0  0  0  0  0  0  0  0
    2.4850   -0.3999    2.2120 C   0  0  0  0  0  0  0  0  0  0  0  0
    1.6703   -0.9819    2.9200 O   0  0  0  0  0  0  0  0  0  0  0  0
    2.9247    0.8833    2.4634 N   0  0  0  0  0  0  0  0  0  0  0  0
    2.3436    1.6382    3.5674 C   0  0  0  0  0  0  0  0  0  0  0  0
    0.9792    2.2615    3.2704 C   0  0  0  0  0  0  0  0  0  0  0  0
    0.3232    2.8652    4.1116 O   0  0  0  0  0  0  0  0  0  0  0  0
    0.6216    2.0956    1.9678 O   0  0  0  0  0  0  0  0  0  0  0  0
   -0.6990    2.5307    1.6015 C   0  0  0  0  0  0  0  0  0  0  0  0
   -1.5428    1.3849    1.1349 C   0  0  0  0  0  0  0  0  0  0  0  0
   -1.5533    0.1015    1.6450 C   0  0  0  0  0  0  0  0  0  0  0  0
   -2.6843   -0.8599    0.7996 S   0  0  0  0  0  0  0  0  0  0  0  0
   -3.1057    0.4891   -0.1906 C   0  0  0  0  0  0  0  0  0  0  0  0
   -4.1212    0.3954   -1.2668 C   0  0  0  0  0  0  0  0  0  0  0  0
   -4.3244    1.5062   -2.1053 C   0  0  0  0  0  0  0  0  0  0  0  0
   -5.2638    1.4769   -3.1425 C   0  0  0  0  0  0  0  0  0  0  0  0
   -6.0235    0.3324   -3.3607 C   0  0  0  0  0  0  0  0  0  0  0  0
   -5.8446   -0.7786   -2.5401 C   0  0  0  0  0  0  0  0  0  0  0  0
   -4.9029   -0.7473   -1.5041 C   0  0  0  0  0  0  0  0  0  0  0  0
   -2.4354    1.5931    0.0917 N   0  0  0  0  0  0  0  0  0  0  0  0
    4.2873   -0.7527    0.4830 C   0  0  0  0  0  0  0  0  0  0  0  0
    4.7324   -1.3561   -0.6964 C   0  0  0  0  0  0  0  0  0  0  0  0
    4.1054   -2.2259   -3.5199 H   0  0  0  0  0  0  0  0  0  0  0  0
    3.9268   -3.8571   -2.8239 H   0  0  0  0  0  0  0  0  0  0  0  0
    5.4654   -3.0073   -2.6686 H   0  0  0  0  0  0  0  0  0  0  0  0
    1.9650   -3.2055   -1.4306 H   0  0  0  0  0  0  0  0  0  0  0  0
    1.1834   -2.1538    0.6580 H   0  0  0  0  0  0  0  0  0  0  0  0
    3.3250    1.4086    1.6948 H   0  0  0  0  0  0  0  0  0  0  0  0
    3.0423    2.4479    3.7961 H   0  0  0  0  0  0  0  0  0  0  0  0
    2.2439    0.9792    4.4345 H   0  0  0  0  0  0  0  0  0  0  0  0
   -0.5736    3.2444    0.7778 H   0  0  0  0  0  0  0  0  0  0  0  0
   -1.2231    3.0569    2.4082 H   0  0  0  0  0  0  0  0  0  0  0  0
   -0.9605   -0.3054    2.4524 H   0  0  0  0  0  0  0  0  0  0  0  0
   -3.7414    2.4137   -1.9522 H   0  0  0  0  0  0  0  0  0  0  0  0
   -5.4039    2.3504   -3.7719 H   0  0  0  0  0  0  0  0  0  0  0  0
   -6.7611    0.3094   -4.1610 H   0  0  0  0  0  0  0  0  0  0  0  0
   -6.4420   -1.6718   -2.7054 H   0  0  0  0  0  0  0  0  0  0  0  0
   -4.7999   -1.6384   -0.8891 H   0  0  0  0  0  0  0  0  0  0  0  0
    4.9563   -0.0871    1.0195 H   0  0  0  0  0  0  0  0  0  0  0  0
    5.7300   -1.1292   -1.0681 H   0  0  0  0  0  0  0  0  0  0  0  0
  1  2  1  0
  2  3  2  0
  3  4  1  0
  4  5  2  0
  5  6  1  0
  6  7  2  0
  6  8  1  0
  8  9  1  0
  9 10  1  0
 10 11  2  0
 10 12  1  0
 12 13  1  0
 13 14  1  0
 14 15  2  0
 15 16  1  0
 16 17  1  0
 17 18  1  0
 18 19  2  0
 19 20  1  0
 20 21  2  0
 21 22  1  0
 22 23  2  0
 17 24  2  0
  5 25  1  0
 25 26  2  0
 26  2  1  0
 24 14  1  0
 23 18  1  0
  1 27  1  0
  1 28  1  0
  1 29  1  0
  3 30  1  0
  4 31  1  0
  8 32  1  0
  9 33  1  0
  9 34  1  0
 13 35  1  0
 13 36  1  0
 15 37  1  0
 19 38  1  0
 20 39  1  0
 21 40  1  0
 22 41  1  0
 23 42  1  0
 25 43  1  0
 26 44  1  0
M  END
$$$$
