
     RDKit          3D

 60 63  0  0  0  0  0  0  0  0999 V2000
    9.5136   -1.8428    3.2596 C   0  0  0  0  0  0  0  0  0  0  0  0
    9.1893   -0.5109    2.6045 C   0  0  0  0  0  0  0  0  0  0  0  0
    8.9579   -0.6817    1.2053 O   0  0  0  0  0  0  0  0  0  0  0  0
    7.6807   -0.9148    0.7764 C   0  0  0  0  0  0  0  0  0  0  0  0
    6.5753   -1.1909    1.5800 C   0  0  0  0  0  0  0  0  0  0  0  0
    5.3190   -1.4037    1.0030 C   0  0  0  0  0  0  0  0  0  0  0  0
    5.1525   -1.3599   -0.3873 C   0  0  0  0  0  0  0  0  0  0  0  0
    3.7878   -1.5393   -0.9928 C   0  0  0  0  0  0  0  0  0  0  0  0
    3.0749   -0.2839   -0.9931 N   0  0  0  0  0  0  0  0  0  0  0  0
    1.7197   -0.2308   -1.2664 C   0  0  0  0  0  0  0  0  0  0  0  0
    1.0525   -1.2354   -1.4879 O   0  0  0  0  0  0  0  0  0  0  0  0
    1.1688    1.1975   -1.2889 C   0  0  0  0  0  0  0  0  0  0  0  0
   -0.2810    1.2130   -1.3756 N   0  0  0  0  0  0  0  0  0  0  0  0
   -0.8276    1.3858   -2.6528 N   0  0  0  0  0  0  0  0  0  0  0  0
   -2.1188    1.3676   -2.8337 C   0  0  0  0  0  0  0  0  0  0  0  0
   -2.6449    1.5393   -4.2302 C   0  0  0  0  0  0  0  0  0  0  0  0
   -2.9932    1.1968   -1.6987 C   0  0  0  0  0  0  0  0  0  0  0  0
   -4.3670    1.2105   -1.5299 C   0  0  0  0  0  0  0  0  0  0  0  0
   -5.4407    1.5474   -2.4987 C   0  0  0  0  0  0  0  0  0  0  0  0
   -4.5775    0.8842   -0.1840 N   0  0  0  0  0  0  0  0  0  0  0  0
   -5.7762    0.5357    0.5138 C   0  0  0  0  0  0  0  0  0  0  0  0
   -6.9341    0.1124   -0.1470 C   0  0  0  0  0  0  0  0  0  0  0  0
   -8.0800   -0.2329    0.5818 C   0  0  0  0  0  0  0  0  0  0  0  0
   -8.0806   -0.1885    1.9802 C   0  0  0  0  0  0  0  0  0  0  0  0
   -9.3194   -0.5338    2.7536 C   0  0  0  0  0  0  0  0  0  0  0  0
   -6.9222    0.2228    2.6430 C   0  0  0  0  0  0  0  0  0  0  0  0
   -5.7769    0.5696    1.9191 C   0  0  0  0  0  0  0  0  0  0  0  0
   -3.4080    0.9233    0.5118 N   0  0  0  0  0  0  0  0  0  0  0  0
   -2.4563    1.0255   -0.4179 C   0  0  0  0  0  0  0  0  0  0  0  0
   -1.0177    1.0228   -0.1898 C   0  0  0  0  0  0  0  0  0  0  0  0
   -0.4963    0.8947    0.9168 O   0  0  0  0  0  0  0  0  0  0  0  0
    6.2649   -1.0873   -1.1914 C   0  0  0  0  0  0  0  0  0  0  0  0
    7.5171   -0.8720   -0.6107 C   0  0  0  0  0  0  0  0  0  0  0  0
    9.6903   -1.7158    4.3308 H   0  0  0  0  0  0  0  0  0  0  0  0
   10.4100   -2.2793    2.8081 H   0  0  0  0  0  0  0  0  0  0  0  0
    8.7062   -2.5700    3.1241 H   0  0  0  0  0  0  0  0  0  0  0  0
   10.0647    0.1448    2.7004 H   0  0  0  0  0  0  0  0  0  0  0  0
    8.3674    0.0142    3.1056 H   0  0  0  0  0  0  0  0  0  0  0  0
    6.6508   -1.2554    2.6595 H   0  0  0  0  0  0  0  0  0  0  0  0
    4.4649   -1.6049    1.6492 H   0  0  0  0  0  0  0  0  0  0  0  0
    3.8623   -1.8913   -2.0289 H   0  0  0  0  0  0  0  0  0  0  0  0
    3.2109   -2.2906   -0.4395 H   0  0  0  0  0  0  0  0  0  0  0  0
    3.6156    0.5709   -0.9777 H   0  0  0  0  0  0  0  0  0  0  0  0
    1.4841    1.7151   -0.3756 H   0  0  0  0  0  0  0  0  0  0  0  0
    1.5876    1.7250   -2.1535 H   0  0  0  0  0  0  0  0  0  0  0  0
   -1.8356    1.4282   -4.9586 H   0  0  0  0  0  0  0  0  0  0  0  0
   -3.0698    2.5403   -4.3367 H   0  0  0  0  0  0  0  0  0  0  0  0
   -3.4085    0.7870   -4.4444 H   0  0  0  0  0  0  0  0  0  0  0  0
   -5.7655    0.6555   -3.0449 H   0  0  0  0  0  0  0  0  0  0  0  0
   -5.0896    2.2791   -3.2317 H   0  0  0  0  0  0  0  0  0  0  0  0
   -6.3021    2.0152   -2.0119 H   0  0  0  0  0  0  0  0  0  0  0  0
   -6.9783   -0.0114   -1.2217 H   0  0  0  0  0  0  0  0  0  0  0  0
   -8.9699   -0.5616    0.0450 H   0  0  0  0  0  0  0  0  0  0  0  0
   -9.8876   -1.3211    2.2449 H   0  0  0  0  0  0  0  0  0  0  0  0
   -9.0680   -0.9091    3.7524 H   0  0  0  0  0  0  0  0  0  0  0  0
   -9.9533    0.3521    2.8573 H   0  0  0  0  0  0  0  0  0  0  0  0
   -6.8959    0.2706    3.7300 H   0  0  0  0  0  0  0  0  0  0  0  0
   -4.8890    0.8733    2.4715 H   0  0  0  0  0  0  0  0  0  0  0  0
    6.1671   -1.0387   -2.2739 H   0  0  0  0  0  0  0  0  0  0  0  0
    8.3754   -0.6627   -1.2456 H   0  0  0  0  0  0  0  0  0  0  0  0
  1  2  1  0
  2  3  1  0
  3  4  1  0
  4  5  2  0
  5  6  1  0
  6  7  2  0
  7  8  1  0
  8  9  1  0
  9 10  1  0
 10 11  2  0
 10 12  1  0
 12 13  1  0
 13 14  1  0
 14 15  2  0
 15 16  1  0
 15 17  1  0
 17 18  2  0
 18 19  1  0
 18 20  1  0
 20 21  1  0
 21 22  2  0
 22 23  1  0
 23 24  2  0
 24 25  1  0
 24 26  1  0
 26 27  2  0
 20 28  1  0
 28 29  2  0
 29 30  1  0
 30 31  2  0
  7 32  1  0
 32 33  2  0
 33  4  1  0
 30 13  1  0
 29 17  1  0
 27 21  1  0
  1 34  1  0
  1 35  1  0
  1 36  1  0
  2 37  1  0
  2 38  1  0
  5 39  1  0
  6 40  1  0
  8 41  1  0
  8 42  1  0
  9 43  1  0
 12 44  1  0
 12 45  1  0
 16 46  1  0
 16 47  1  0
 16 48  1  0
 19 49  1  0
 19 50  1  0
 19 51  1  0
 22 52  1  0
 23 53  1  0
 25 54  1  0
 25 55  1  0
 25 56  1  0
 26 57  1  0
 27 58  1  0
 32 59  1  0
 33 60  1  0
M  END
$$$$
