
     RDKit          3D

 59 62  0  0  0  0  0  0  0  0999 V2000
    8.3621   -0.2142    0.1167 C   0  0  0  0  0  0  0  0  0  0  0  0
    7.4209    0.1684   -0.8787 O   0  0  0  0  0  0  0  0  0  0  0  0
    6.0965    0.0822   -0.5464 C   0  0  0  0  0  0  0  0  0  0  0  0
    5.5859   -0.3441    0.6828 C   0  0  0  0  0  0  0  0  0  0  0  0
    4.2032   -0.3857    0.8973 C   0  0  0  0  0  0  0  0  0  0  0  0
    3.3243   -0.0035   -0.1175 C   0  0  0  0  0  0  0  0  0  0  0  0
    1.8758   -0.0409    0.0687 C   0  0  0  0  0  0  0  0  0  0  0  0
    1.0335    0.3169   -0.9177 C   0  0  0  0  0  0  0  0  0  0  0  0
   -0.4706    0.3039   -0.8781 C   0  0  0  0  0  0  0  0  0  0  0  0
   -1.0018   -0.3144    0.3716 N   0  0  0  0  0  0  0  0  0  0  0  0
   -1.9261   -1.4641    0.1342 C   0  0  0  0  0  0  0  0  0  0  0  0
   -1.1835   -2.7847   -0.1036 C   0  0  0  0  0  0  0  0  0  0  0  0
   -0.2400   -3.2163    1.0053 C   0  0  0  0  0  0  0  0  0  0  0  0
    0.6625   -4.1760    0.2706 C   0  0  0  0  0  0  0  0  0  0  0  0
    0.7870   -3.5304   -1.0943 C   0  0  0  0  0  0  0  0  0  0  0  0
   -0.4060   -2.7619   -1.3138 O   0  0  0  0  0  0  0  0  0  0  0  0
   -1.4133    0.7441    1.6345 S   0  0  0  0  0  6  0  0  0  0  0  0
   -0.4015    1.7741    1.7229 O   0  0  0  0  0  0  0  0  0  0  0  0
   -1.7480   -0.0633    2.7903 O   0  0  0  0  0  0  0  0  0  0  0  0
   -2.9215    1.5164    1.0761 C   0  0  0  0  0  0  0  0  0  0  0  0
   -4.1552    0.9507    1.4147 C   0  0  0  0  0  0  0  0  0  0  0  0
   -5.3418    1.5761    1.0170 C   0  0  0  0  0  0  0  0  0  0  0  0
   -5.2978    2.7763    0.2955 C   0  0  0  0  0  0  0  0  0  0  0  0
   -6.5357    3.4841   -0.1492 C   0  0  0  0  0  0  0  0  0  0  0  0
   -7.8764    2.9589    0.2935 C   0  0  0  0  0  0  0  0  0  0  0  0
   -6.4465    4.4773   -0.8685 O   0  0  0  0  0  0  0  0  0  0  0  0
   -4.0546    3.3463   -0.0180 C   0  0  0  0  0  0  0  0  0  0  0  0
   -2.8676    2.7262    0.3805 C   0  0  0  0  0  0  0  0  0  0  0  0
    1.5934    0.7935   -2.2220 C   0  0  0  0  0  0  0  0  0  0  0  0
    0.8610    1.1650   -3.1353 O   0  0  0  0  0  0  0  0  0  0  0  0
    2.9558    0.8055   -2.3583 N   0  0  0  0  0  0  0  0  0  0  0  0
    3.8395    0.4213   -1.3444 C   0  0  0  0  0  0  0  0  0  0  0  0
    5.2157    0.4665   -1.5614 C   0  0  0  0  0  0  0  0  0  0  0  0
    8.2869    0.4293    0.9997 H   0  0  0  0  0  0  0  0  0  0  0  0
    9.3647   -0.0861   -0.3029 H   0  0  0  0  0  0  0  0  0  0  0  0
    8.2449   -1.2692    0.3846 H   0  0  0  0  0  0  0  0  0  0  0  0
    6.2351   -0.6486    1.4970 H   0  0  0  0  0  0  0  0  0  0  0  0
    3.8247   -0.7172    1.8616 H   0  0  0  0  0  0  0  0  0  0  0  0
    1.5059   -0.3676    1.0331 H   0  0  0  0  0  0  0  0  0  0  0  0
   -0.8448    1.3259   -0.9882 H   0  0  0  0  0  0  0  0  0  0  0  0
   -0.8496   -0.2422   -1.7503 H   0  0  0  0  0  0  0  0  0  0  0  0
   -2.5688   -1.2349   -0.7240 H   0  0  0  0  0  0  0  0  0  0  0  0
   -2.5848   -1.6120    0.9957 H   0  0  0  0  0  0  0  0  0  0  0  0
   -1.9393   -3.5680   -0.2490 H   0  0  0  0  0  0  0  0  0  0  0  0
   -0.7609   -3.6748    1.8505 H   0  0  0  0  0  0  0  0  0  0  0  0
    0.3524   -2.3799    1.3869 H   0  0  0  0  0  0  0  0  0  0  0  0
    0.1692   -5.1509    0.1773 H   0  0  0  0  0  0  0  0  0  0  0  0
    1.6280   -4.3309    0.7584 H   0  0  0  0  0  0  0  0  0  0  0  0
    0.8967   -4.2690   -1.8932 H   0  0  0  0  0  0  0  0  0  0  0  0
    1.6407   -2.8474   -1.1363 H   0  0  0  0  0  0  0  0  0  0  0  0
   -4.2039    0.0333    1.9974 H   0  0  0  0  0  0  0  0  0  0  0  0
   -6.2852    1.1096    1.2880 H   0  0  0  0  0  0  0  0  0  0  0  0
   -7.9223    2.9037    1.3851 H   0  0  0  0  0  0  0  0  0  0  0  0
   -8.0659    1.9806   -0.1563 H   0  0  0  0  0  0  0  0  0  0  0  0
   -8.6595    3.6473   -0.0399 H   0  0  0  0  0  0  0  0  0  0  0  0
   -4.0053    4.2859   -0.5670 H   0  0  0  0  0  0  0  0  0  0  0  0
   -1.9148    3.1985    0.1504 H   0  0  0  0  0  0  0  0  0  0  0  0
    3.3101    1.1310   -3.2472 H   0  0  0  0  0  0  0  0  0  0  0  0
    5.6167    0.7994   -2.5141 H   0  0  0  0  0  0  0  0  0  0  0  0
  1  2  1  0
  2  3  1  0
  3  4  2  0
  4  5  1  0
  5  6  2  0
  6  7  1  0
  7  8  2  0
  8  9  1  0
  9 10  1  0
 10 11  1  0
 11 12  1  0
 12 13  1  0
 13 14  1  0
 14 15  1  0
 15 16  1  0
 10 17  1  0
 17 18  2  0
 17 19  2  0
 17 20  1  0
 20 21  2  0
 21 22  1  0
 22 23  2  0
 23 24  1  0
 24 25  1  0
 24 26  2  0
 23 27  1  0
 27 28  2  0
  8 29  1  0
 29 30  2  0
 29 31  1  0
 31 32  1  0
 32 33  2  0
 33  3  1  0
 32  6  1  0
 16 12  1  0
 28 20  1  0
  1 34  1  0
  1 35  1  0
  1 36  1  0
  4 37  1  0
  5 38  1  0
  7 39  1  0
  9 40  1  0
  9 41  1  0
 11 42  1  0
 11 43  1  0
 12 44  1  0
 13 45  1  0
 13 46  1  0
 14 47  1  0
 14 48  1  0
 15 49  1  0
 15 50  1  0
 21 51  1  0
 22 52  1  0
 25 53  1  0
 25 54  1  0
 25 55  1  0
 27 56  1  0
 28 57  1  0
 31 58  1  0
 33 59  1  0
M  END
$$$$
