
     RDKit          3D

 51 55  0  0  0  0  0  0  0  0999 V2000
   -6.9667   -1.7408    2.9682 F   0  0  0  0  0  0  0  0  0  0  0  0
   -6.7825   -1.0307    1.8474 C   0  0  0  0  0  0  0  0  0  0  0  0
   -7.7781   -1.0117    0.8777 C   0  0  0  0  0  0  0  0  0  0  0  0
   -7.5842   -0.2756   -0.2896 C   0  0  0  0  0  0  0  0  0  0  0  0
   -6.3959    0.4358   -0.4765 C   0  0  0  0  0  0  0  0  0  0  0  0
   -5.3925    0.4210    0.5048 C   0  0  0  0  0  0  0  0  0  0  0  0
   -4.1014    1.1764    0.2947 C   0  0  0  0  0  0  0  0  0  0  0  0
   -3.0005    0.2687   -0.2825 C   0  0  0  0  0  0  0  0  0  0  0  0
   -1.7545    1.0026   -0.5589 N   0  0  0  0  0  0  0  0  0  0  0  0
   -1.0096    1.3713    0.6680 C   0  0  0  0  0  0  0  0  0  0  0  0
    0.3010    0.5920    0.9131 C   0  0  0  0  0  0  0  0  0  0  0  0
    1.2152    0.7002   -0.2366 N   0  0  0  0  0  0  0  0  0  0  0  0
    2.5302    0.2632   -0.0995 C   0  0  0  0  0  0  0  0  0  0  0  0
    2.8234   -0.4776    0.9422 N   0  0  0  0  0  0  0  0  0  0  0  0
    4.1220   -0.9883    1.1260 C   0  0  0  0  0  0  0  0  0  0  0  0
    4.3713   -1.7780    2.2506 C   0  0  0  0  0  0  0  0  0  0  0  0
    5.6393   -2.3199    2.4759 C   0  0  0  0  0  0  0  0  0  0  0  0
    6.6741   -2.0778    1.5721 C   0  0  0  0  0  0  0  0  0  0  0  0
    6.4478   -1.2909    0.4422 C   0  0  0  0  0  0  0  0  0  0  0  0
    5.1738   -0.7543    0.2313 C   0  0  0  0  0  0  0  0  0  0  0  0
    4.8634    0.0632   -0.8672 N   0  0  0  0  0  0  0  0  0  0  0  0
    5.6761    0.4916   -1.8901 C   0  0  0  0  0  0  0  0  0  0  0  0
    4.9476    1.3428   -2.6907 C   0  0  0  0  0  0  0  0  0  0  0  0
    3.6465    1.4201   -2.1422 C   0  0  0  0  0  0  0  0  0  0  0  0
    3.5986    0.5865   -1.0375 C   0  0  0  0  0  0  0  0  0  0  0  0
    0.5555    0.7591   -1.5490 C   0  0  0  0  0  0  0  0  0  0  0  0
   -0.8949    0.2343   -1.4846 C   0  0  0  0  0  0  0  0  0  0  0  0
   -5.5959   -0.3258    1.6727 C   0  0  0  0  0  0  0  0  0  0  0  0
   -8.6957   -1.5684    1.0374 H   0  0  0  0  0  0  0  0  0  0  0  0
   -8.3569   -0.2537   -1.0546 H   0  0  0  0  0  0  0  0  0  0  0  0
   -6.2574    1.0050   -1.3942 H   0  0  0  0  0  0  0  0  0  0  0  0
   -4.2808    2.0222   -0.3817 H   0  0  0  0  0  0  0  0  0  0  0  0
   -3.7965    1.6178    1.2511 H   0  0  0  0  0  0  0  0  0  0  0  0
   -2.8079   -0.5827    0.3840 H   0  0  0  0  0  0  0  0  0  0  0  0
   -3.3827   -0.1540   -1.2219 H   0  0  0  0  0  0  0  0  0  0  0  0
   -0.7585    2.4357    0.5727 H   0  0  0  0  0  0  0  0  0  0  0  0
   -1.6322    1.2898    1.5661 H   0  0  0  0  0  0  0  0  0  0  0  0
    0.0726   -0.4629    1.1114 H   0  0  0  0  0  0  0  0  0  0  0  0
    0.7817    1.0062    1.8074 H   0  0  0  0  0  0  0  0  0  0  0  0
    3.5664   -1.9704    2.9546 H   0  0  0  0  0  0  0  0  0  0  0  0
    5.8171   -2.9308    3.3575 H   0  0  0  0  0  0  0  0  0  0  0  0
    7.6593   -2.5023    1.7509 H   0  0  0  0  0  0  0  0  0  0  0  0
    7.2693   -1.1135   -0.2436 H   0  0  0  0  0  0  0  0  0  0  0  0
    6.7075    0.1808   -1.9670 H   0  0  0  0  0  0  0  0  0  0  0  0
    5.3180    1.8613   -3.5659 H   0  0  0  0  0  0  0  0  0  0  0  0
    2.8349    2.0262   -2.5200 H   0  0  0  0  0  0  0  0  0  0  0  0
    1.0949    0.1499   -2.2829 H   0  0  0  0  0  0  0  0  0  0  0  0
    0.5553    1.7963   -1.9030 H   0  0  0  0  0  0  0  0  0  0  0  0
   -1.3292    0.2806   -2.4904 H   0  0  0  0  0  0  0  0  0  0  0  0
   -0.8671   -0.8241   -1.1907 H   0  0  0  0  0  0  0  0  0  0  0  0
   -4.8411   -0.3662    2.4527 H   0  0  0  0  0  0  0  0  0  0  0  0
  1  2  1  0
  2  3  2  0
  3  4  1  0
  4  5  2  0
  5  6  1  0
  6  7  1  0
  7  8  1  0
  8  9  1  0
  9 10  1  0
 10 11  1  0
 11 12  1  0
 12 13  1  0
 13 14  2  0
 14 15  1  0
 15 16  2  0
 16 17  1  0
 17 18  2  0
 18 19  1  0
 19 20  2  0
 20 21  1  0
 21 22  1  0
 22 23  2  0
 23 24  1  0
 24 25  2  0
 12 26  1  0
 26 27  1  0
  6 28  2  0
 28  2  1  0
 27  9  1  0
 25 13  1  0
 20 15  1  0
 25 21  1  0
  3 29  1  0
  4 30  1  0
  5 31  1  0
  7 32  1  0
  7 33  1  0
  8 34  1  0
  8 35  1  0
 10 36  1  0
 10 37  1  0
 11 38  1  0
 11 39  1  0
 16 40  1  0
 17 41  1  0
 18 42  1  0
 19 43  1  0
 22 44  1  0
 23 45  1  0
 24 46  1  0
 26 47  1  0
 26 48  1  0
 27 49  1  0
 27 50  1  0
 28 51  1  0
M  END
$$$$
