
     RDKit          3D

 54 57  0  0  0  0  0  0  0  0999 V2000
   -6.5394    2.6795    0.2622 C   0  0  0  0  0  0  0  0  0  0  0  0
   -5.6899    1.7672   -0.5725 C   0  0  0  0  0  0  0  0  0  0  0  0
   -5.9605    1.5657   -1.9257 C   0  0  0  0  0  0  0  0  0  0  0  0
   -5.1599    0.7091   -2.6835 C   0  0  0  0  0  0  0  0  0  0  0  0
   -4.0700    0.0330   -2.1060 C   0  0  0  0  0  0  0  0  0  0  0  0
   -3.2669   -0.8969   -2.9766 C   0  0  0  0  0  0  0  0  0  0  0  0
   -3.7578    0.2529   -0.7439 C   0  0  0  0  0  0  0  0  0  0  0  0
   -2.6086   -0.3719   -0.0689 C   0  0  0  0  0  0  0  0  0  0  0  0
   -1.3055   -0.1579   -0.4776 C   0  0  0  0  0  0  0  0  0  0  0  0
   -0.2853   -0.7734    0.2416 C   0  0  0  0  0  0  0  0  0  0  0  0
    1.0983   -0.4790   -0.1832 C   0  0  0  0  0  0  0  0  0  0  0  0
    1.4398   -0.7684   -1.3232 O   0  0  0  0  0  0  0  0  0  0  0  0
    1.8285    0.2181    0.7569 N   0  0  0  0  0  0  0  0  0  0  0  0
    3.1639    0.5106    0.5987 C   0  0  0  0  0  0  0  0  0  0  0  0
    3.6355    1.9085    1.4349 S   0  0  0  0  0  0  0  0  0  0  0  0
    5.2080    1.8563    0.7652 C   0  0  0  0  0  0  0  0  0  0  0  0
    6.1758    2.9470    1.0909 C   0  0  0  0  0  0  0  0  0  0  0  0
    5.4086    0.7166   -0.0037 C   0  0  0  0  0  0  0  0  0  0  0  0
    6.7097    0.3357   -0.6423 C   0  0  0  0  0  0  0  0  0  0  0  0
    4.2030   -0.0967   -0.0749 C   0  0  0  0  0  0  0  0  0  0  0  0
    4.1033   -1.4189   -0.6813 C   0  0  0  0  0  0  0  0  0  0  0  0
    4.4681   -1.4797   -1.9975 N   0  0  0  0  0  0  0  0  0  0  0  0
    3.7298   -2.4155   -0.0705 O   0  0  0  0  0  0  0  0  0  0  0  0
   -0.5629   -1.6206    1.3335 C   0  0  0  0  0  0  0  0  0  0  0  0
    0.4118   -2.3381    2.0718 C   0  0  0  0  0  0  0  0  0  0  0  0
    0.0450   -3.1431    3.1488 C   0  0  0  0  0  0  0  0  0  0  0  0
   -1.2941   -3.2490    3.4972 C   0  0  0  0  0  0  0  0  0  0  0  0
   -2.2579   -2.5580    2.7591 C   0  0  0  0  0  0  0  0  0  0  0  0
   -1.9198   -1.7529    1.6799 C   0  0  0  0  0  0  0  0  0  0  0  0
   -2.9066   -1.1336    1.0113 N   0  0  0  0  0  0  0  0  0  0  0  0
   -4.5921    1.1123    0.0036 C   0  0  0  0  0  0  0  0  0  0  0  0
   -5.9591    3.5526    0.5742 H   0  0  0  0  0  0  0  0  0  0  0  0
   -6.9025    2.1529    1.1499 H   0  0  0  0  0  0  0  0  0  0  0  0
   -7.4127    3.0353   -0.2927 H   0  0  0  0  0  0  0  0  0  0  0  0
   -6.8013    2.0655   -2.4020 H   0  0  0  0  0  0  0  0  0  0  0  0
   -5.4004    0.5624   -3.7340 H   0  0  0  0  0  0  0  0  0  0  0  0
   -2.9955   -1.8093   -2.4365 H   0  0  0  0  0  0  0  0  0  0  0  0
   -2.3618   -0.3982   -3.3330 H   0  0  0  0  0  0  0  0  0  0  0  0
   -3.8462   -1.2143   -3.8498 H   0  0  0  0  0  0  0  0  0  0  0  0
   -1.0806    0.4840   -1.3230 H   0  0  0  0  0  0  0  0  0  0  0  0
    1.3404    0.7094    1.4954 H   0  0  0  0  0  0  0  0  0  0  0  0
    6.7814    3.2000    0.2147 H   0  0  0  0  0  0  0  0  0  0  0  0
    5.6702    3.8643    1.4129 H   0  0  0  0  0  0  0  0  0  0  0  0
    6.8479    2.6275    1.8940 H   0  0  0  0  0  0  0  0  0  0  0  0
    6.9267   -0.7262   -0.4815 H   0  0  0  0  0  0  0  0  0  0  0  0
    6.6698    0.5273   -1.7205 H   0  0  0  0  0  0  0  0  0  0  0  0
    7.5481    0.9037   -0.2263 H   0  0  0  0  0  0  0  0  0  0  0  0
    4.1539   -2.3244   -2.4549 H   0  0  0  0  0  0  0  0  0  0  0  0
    4.3774   -0.6298   -2.5380 H   0  0  0  0  0  0  0  0  0  0  0  0
    1.4670   -2.2926    1.8006 H   0  0  0  0  0  0  0  0  0  0  0  0
    0.8029   -3.6906    3.7038 H   0  0  0  0  0  0  0  0  0  0  0  0
   -1.5957   -3.8763    4.3319 H   0  0  0  0  0  0  0  0  0  0  0  0
   -3.3072   -2.6576    3.0294 H   0  0  0  0  0  0  0  0  0  0  0  0
   -4.3744    1.2699    1.0614 H   0  0  0  0  0  0  0  0  0  0  0  0
  1  2  1  0
  2  3  2  0
  3  4  1  0
  4  5  2  0
  5  6  1  0
  5  7  1  0
  7  8  1  0
  8  9  2  0
  9 10  1  0
 10 11  1  0
 11 12  2  0
 11 13  1  0
 13 14  1  0
 14 15  1  0
 15 16  1  0
 16 17  1  0
 16 18  2  0
 18 19  1  0
 18 20  1  0
 20 21  1  0
 21 22  1  0
 21 23  2  0
 10 24  2  0
 24 25  1  0
 25 26  2  0
 26 27  1  0
 27 28  2  0
 28 29  1  0
 29 30  2  0
  7 31  2  0
 31  2  1  0
 30  8  1  0
 20 14  2  0
 29 24  1  0
  1 32  1  0
  1 33  1  0
  1 34  1  0
  3 35  1  0
  4 36  1  0
  6 37  1  0
  6 38  1  0
  6 39  1  0
  9 40  1  0
 13 41  1  0
 17 42  1  0
 17 43  1  0
 17 44  1  0
 19 45  1  0
 19 46  1  0
 19 47  1  0
 22 48  1  0
 22 49  1  0
 25 50  1  0
 26 51  1  0
 27 52  1  0
 28 53  1  0
 31 54  1  0
M  END
$$$$
