
     RDKit          3D

 35 37  0  0  0  0  0  0  0  0999 V2000
    7.2862    1.2862   -1.4565 C   0  0  0  0  0  0  0  0  0  0  0  0
    5.8970    1.2090   -1.1340 O   0  0  0  0  0  0  0  0  0  0  0  0
    5.4076   -0.0558   -1.1079 C   0  0  0  0  0  0  0  0  0  0  0  0
    6.0463   -1.0737   -1.3245 O   0  0  0  0  0  0  0  0  0  0  0  0
    3.9573   -0.0525   -0.7718 C   0  0  0  0  0  0  0  0  0  0  0  0
    3.2468    1.1261   -0.5105 C   0  0  0  0  0  0  0  0  0  0  0  0
    1.8839    1.0733   -0.1981 C   0  0  0  0  0  0  0  0  0  0  0  0
    1.2150   -0.1555   -0.1526 C   0  0  0  0  0  0  0  0  0  0  0  0
   -0.2120   -0.2390    0.1838 C   0  0  0  0  0  0  0  0  0  0  0  0
   -1.2324    0.2652   -0.5456 C   0  0  0  0  0  0  0  0  0  0  0  0
   -0.9888    0.9545   -1.7750 C   0  0  0  0  0  0  0  0  0  0  0  0
   -0.7943    1.5246   -2.7678 N   0  0  0  0  0  0  0  0  0  0  0  0
   -2.5717    0.0704   -0.0503 C   0  0  0  0  0  0  0  0  0  0  0  0
   -2.8965   -0.5668    1.0632 N   0  0  0  0  0  0  0  0  0  0  0  0
   -4.2662   -0.5821    1.2611 C   0  0  0  0  0  0  0  0  0  0  0  0
   -4.9382   -1.1779    2.3475 C   0  0  0  0  0  0  0  0  0  0  0  0
   -6.3337   -1.1166    2.4196 C   0  0  0  0  0  0  0  0  0  0  0  0
   -7.0621   -0.4711    1.4257 C   0  0  0  0  0  0  0  0  0  0  0  0
   -6.4170    0.1272    0.3388 C   0  0  0  0  0  0  0  0  0  0  0  0
   -5.0151    0.0586    0.2781 C   0  0  0  0  0  0  0  0  0  0  0  0
   -3.9503    0.6869   -0.9115 S   0  0  0  0  0  0  0  0  0  0  0  0
    1.9266   -1.3335   -0.4025 C   0  0  0  0  0  0  0  0  0  0  0  0
    3.2889   -1.2824   -0.7135 C   0  0  0  0  0  0  0  0  0  0  0  0
    7.5762    2.3406   -1.4542 H   0  0  0  0  0  0  0  0  0  0  0  0
    7.4716    0.8783   -2.4551 H   0  0  0  0  0  0  0  0  0  0  0  0
    7.8840    0.7610   -0.7050 H   0  0  0  0  0  0  0  0  0  0  0  0
    3.7391    2.0952   -0.5455 H   0  0  0  0  0  0  0  0  0  0  0  0
    1.3571    2.0027    0.0092 H   0  0  0  0  0  0  0  0  0  0  0  0
   -0.4116   -0.7859    1.1057 H   0  0  0  0  0  0  0  0  0  0  0  0
   -4.3664   -1.6808    3.1211 H   0  0  0  0  0  0  0  0  0  0  0  0
   -6.8496   -1.5774    3.2590 H   0  0  0  0  0  0  0  0  0  0  0  0
   -8.1475   -0.4302    1.4930 H   0  0  0  0  0  0  0  0  0  0  0  0
   -6.9868    0.6308   -0.4365 H   0  0  0  0  0  0  0  0  0  0  0  0
    1.4298   -2.3011   -0.3637 H   0  0  0  0  0  0  0  0  0  0  0  0
    3.8267   -2.2083   -0.9112 H   0  0  0  0  0  0  0  0  0  0  0  0
  1  2  1  0
  2  3  1  0
  3  4  2  0
  3  5  1  0
  5  6  2  0
  6  7  1  0
  7  8  2  0
  8  9  1  0
  9 10  2  3
 10 11  1  0
 11 12  3  0
 10 13  1  0
 13 14  2  0
 14 15  1  0
 15 16  2  0
 16 17  1  0
 17 18  2  0
 18 19  1  0
 19 20  2  0
 20 21  1  0
  8 22  1  0
 22 23  2  0
 23  5  1  0
 21 13  1  0
 20 15  1  0
  1 24  1  0
  1 25  1  0
  1 26  1  0
  6 27  1  0
  7 28  1  0
  9 29  1  0
 16 30  1  0
 17 31  1  0
 18 32  1  0
 19 33  1  0
 22 34  1  0
 23 35  1  0
M  END
$$$$
