
     RDKit          3D

 38 41  0  0  0  0  0  0  0  0999 V2000
    6.9092   -1.1136    0.4922 C   0  0  0  0  0  0  0  0  0  0  0  0
    5.5311   -0.6640    0.1076 C   0  0  0  0  0  0  0  0  0  0  0  0
    5.1679   -0.5639   -1.2396 C   0  0  0  0  0  0  0  0  0  0  0  0
    3.8944   -0.1123   -1.5990 C   0  0  0  0  0  0  0  0  0  0  0  0
    2.9622    0.2450   -0.6190 C   0  0  0  0  0  0  0  0  0  0  0  0
    1.6437    0.7374   -1.0362 C   0  0  0  0  0  0  0  0  0  0  0  0
    0.4934    0.3733   -0.4450 C   0  0  0  0  0  0  0  0  0  0  0  0
   -0.8159    0.8619   -0.8780 C   0  0  0  0  0  0  0  0  0  0  0  0
   -0.8965    1.7782   -1.8747 N   0  0  0  0  0  0  0  0  0  0  0  0
   -2.1067    2.2297   -2.2637 C   0  0  0  0  0  0  0  0  0  0  0  0
   -3.3126    1.8252   -1.7167 C   0  0  0  0  0  0  0  0  0  0  0  0
   -3.2503    0.8756   -0.6861 C   0  0  0  0  0  0  0  0  0  0  0  0
   -1.9968    0.4085   -0.2840 C   0  0  0  0  0  0  0  0  0  0  0  0
   -2.2229   -0.5037    0.7228 N   0  0  0  0  0  0  0  0  0  0  0  0
   -3.5655   -0.6363    0.9856 C   0  0  0  0  0  0  0  0  0  0  0  0
   -4.2271   -1.4430    1.9191 C   0  0  0  0  0  0  0  0  0  0  0  0
   -5.6225   -1.3704    1.9624 C   0  0  0  0  0  0  0  0  0  0  0  0
   -6.3242   -0.5254    1.1060 C   0  0  0  0  0  0  0  0  0  0  0  0
   -5.6455    0.2735    0.1786 C   0  0  0  0  0  0  0  0  0  0  0  0
   -4.2376    0.2187    0.1154 C   0  0  0  0  0  0  0  0  0  0  0  0
    3.3373    0.1734    0.7276 C   0  0  0  0  0  0  0  0  0  0  0  0
    4.6112   -0.2769    1.0880 C   0  0  0  0  0  0  0  0  0  0  0  0
    6.8987   -1.6163    1.4650 H   0  0  0  0  0  0  0  0  0  0  0  0
    7.3049   -1.8277   -0.2377 H   0  0  0  0  0  0  0  0  0  0  0  0
    7.5824   -0.2525    0.5459 H   0  0  0  0  0  0  0  0  0  0  0  0
    5.8739   -0.8351   -2.0213 H   0  0  0  0  0  0  0  0  0  0  0  0
    3.6347   -0.0468   -2.6534 H   0  0  0  0  0  0  0  0  0  0  0  0
    1.6370    1.4130   -1.8897 H   0  0  0  0  0  0  0  0  0  0  0  0
    0.5123   -0.3229    0.3842 H   0  0  0  0  0  0  0  0  0  0  0  0
   -2.0838    2.9622   -3.0662 H   0  0  0  0  0  0  0  0  0  0  0  0
   -4.2537    2.2255   -2.0725 H   0  0  0  0  0  0  0  0  0  0  0  0
   -1.5006   -1.0154    1.2069 H   0  0  0  0  0  0  0  0  0  0  0  0
   -3.6846   -2.1032    2.5879 H   0  0  0  0  0  0  0  0  0  0  0  0
   -6.1678   -1.9840    2.6762 H   0  0  0  0  0  0  0  0  0  0  0  0
   -7.4096   -0.4848    1.1565 H   0  0  0  0  0  0  0  0  0  0  0  0
   -6.2017    0.9287   -0.4851 H   0  0  0  0  0  0  0  0  0  0  0  0
    2.6496    0.4846    1.5098 H   0  0  0  0  0  0  0  0  0  0  0  0
    4.8818   -0.3161    2.1407 H   0  0  0  0  0  0  0  0  0  0  0  0
  1  2  1  0
  2  3  2  0
  3  4  1  0
  4  5  2  0
  5  6  1  0
  6  7  2  3
  7  8  1  0
  8  9  2  0
  9 10  1  0
 10 11  2  0
 11 12  1  0
 12 13  2  0
 13 14  1  0
 14 15  1  0
 15 16  2  0
 16 17  1  0
 17 18  2  0
 18 19  1  0
 19 20  2  0
  5 21  1  0
 21 22  2  0
 22  2  1  0
 13  8  1  0
 20 15  1  0
 20 12  1  0
  1 23  1  0
  1 24  1  0
  1 25  1  0
  3 26  1  0
  4 27  1  0
  6 28  1  0
  7 29  1  0
 10 30  1  0
 11 31  1  0
 14 32  1  0
 16 33  1  0
 17 34  1  0
 18 35  1  0
 19 36  1  0
 21 37  1  0
 22 38  1  0
M  END
$$$$
