
     RDKit          3D

 50 54  0  0  0  0  0  0  0  0999 V2000
   -4.8580    0.3063    0.8575 C   0  0  0  0  0  0  0  0  0  0  0  0
   -4.3210   -0.9200    0.1843 C   0  0  0  0  0  0  0  0  0  0  0  0
   -5.0838   -1.9717   -0.1534 C   0  0  0  0  0  0  0  0  0  0  0  0
   -4.5204   -3.1144   -0.8162 C   0  0  0  0  0  0  0  0  0  0  0  0
   -3.2161   -3.1376   -1.1101 C   0  0  0  0  0  0  0  0  0  0  0  0
   -2.3738   -2.0803   -0.7874 N   0  0  0  0  0  0  0  0  0  0  0  0
   -1.0330   -2.1601   -1.1221 C   0  0  0  0  0  0  0  0  0  0  0  0
   -0.5168   -3.1207   -1.6976 O   0  0  0  0  0  0  0  0  0  0  0  0
   -0.1922   -0.9882   -0.7491 C   0  0  0  0  0  0  0  0  0  0  0  0
    1.2262   -0.9912   -1.0713 C   0  0  0  0  0  0  0  0  0  0  0  0
    2.0290    0.0469   -0.7796 C   0  0  0  0  0  0  0  0  0  0  0  0
    3.7176   -0.0707   -1.1076 S   0  0  0  0  0  6  0  0  0  0  0  0
    3.9437   -0.8935   -2.2839 O   0  0  0  0  0  0  0  0  0  0  0  0
    4.3485    1.2345   -1.0086 O   0  0  0  0  0  0  0  0  0  0  0  0
    4.2955   -1.0098    0.2985 C   0  0  0  0  0  0  0  0  0  0  0  0
    4.4941   -0.3584    1.5242 C   0  0  0  0  0  0  0  0  0  0  0  0
    4.9460   -1.0919    2.6224 C   0  0  0  0  0  0  0  0  0  0  0  0
    5.1979   -2.4546    2.4841 C   0  0  0  0  0  0  0  0  0  0  0  0
    5.6270   -3.1557    3.5409 F   0  0  0  0  0  0  0  0  0  0  0  0
    5.0139   -3.1017    1.2634 C   0  0  0  0  0  0  0  0  0  0  0  0
    4.5650   -2.3774    0.1585 C   0  0  0  0  0  0  0  0  0  0  0  0
    1.4044    1.2252   -0.1015 C   0  0  0  0  0  0  0  0  0  0  0  0
    2.0899    2.2942    0.1802 N   0  0  0  0  0  0  0  0  0  0  0  0
    0.0440    1.1635    0.2404 N   0  0  0  0  0  0  0  0  0  0  0  0
   -0.5844    2.3547    0.8535 C   0  0  0  0  0  0  0  0  0  0  0  0
   -1.1519    3.3533   -0.1062 C   0  0  0  0  0  0  0  0  0  0  0  0
   -1.8089    3.2477   -1.3192 C   0  0  0  0  0  0  0  0  0  0  0  0
   -2.0943    4.5703   -1.7370 C   0  0  0  0  0  0  0  0  0  0  0  0
   -1.6064    5.3994   -0.7505 C   0  0  0  0  0  0  0  0  0  0  0  0
   -1.0445    4.6722    0.2497 O   0  0  0  0  0  0  0  0  0  0  0  0
   -0.7666    0.0558   -0.1092 C   0  0  0  0  0  0  0  0  0  0  0  0
   -2.1080    0.0565    0.1885 N   0  0  0  0  0  0  0  0  0  0  0  0
   -2.8518   -0.9533   -0.1396 C   0  0  0  0  0  0  0  0  0  0  0  0
   -5.9392    0.2391    1.0215 H   0  0  0  0  0  0  0  0  0  0  0  0
   -4.6738    1.1948    0.2441 H   0  0  0  0  0  0  0  0  0  0  0  0
   -4.3847    0.4512    1.8338 H   0  0  0  0  0  0  0  0  0  0  0  0
   -6.1500   -1.9864    0.0557 H   0  0  0  0  0  0  0  0  0  0  0  0
   -5.1697   -3.9463   -1.0722 H   0  0  0  0  0  0  0  0  0  0  0  0
   -2.7712   -3.9922   -1.6157 H   0  0  0  0  0  0  0  0  0  0  0  0
    1.6184   -1.8863   -1.5535 H   0  0  0  0  0  0  0  0  0  0  0  0
    4.3067    0.7084    1.6332 H   0  0  0  0  0  0  0  0  0  0  0  0
    5.1056   -0.6132    3.5856 H   0  0  0  0  0  0  0  0  0  0  0  0
    5.2261   -4.1646    1.1824 H   0  0  0  0  0  0  0  0  0  0  0  0
    4.4343   -2.8821   -0.7973 H   0  0  0  0  0  0  0  0  0  0  0  0
    3.0635    2.2621   -0.1645 H   0  0  0  0  0  0  0  0  0  0  0  0
    0.1309    2.8573    1.5171 H   0  0  0  0  0  0  0  0  0  0  0  0
   -1.3919    2.0446    1.5307 H   0  0  0  0  0  0  0  0  0  0  0  0
   -2.0445    2.3272   -1.8363 H   0  0  0  0  0  0  0  0  0  0  0  0
   -2.5919    4.8836   -2.6441 H   0  0  0  0  0  0  0  0  0  0  0  0
   -1.5792    6.4731   -0.6165 H   0  0  0  0  0  0  0  0  0  0  0  0
  1  2  1  0
  2  3  2  0
  3  4  1  0
  4  5  2  0
  5  6  1  0
  6  7  1  0
  7  8  2  0
  7  9  1  0
  9 10  1  0
 10 11  2  0
 11 12  1  0
 12 13  2  0
 12 14  2  0
 12 15  1  0
 15 16  2  0
 16 17  1  0
 17 18  2  0
 18 19  1  0
 18 20  1  0
 20 21  2  0
 11 22  1  0
 22 23  2  3
 22 24  1  0
 24 25  1  0
 25 26  1  0
 26 27  2  0
 27 28  1  0
 28 29  2  0
 29 30  1  0
 24 31  1  0
 31 32  1  0
 32 33  2  0
 33  2  1  0
 33  6  1  0
 31  9  2  0
 21 15  1  0
 30 26  1  0
  1 34  1  0
  1 35  1  0
  1 36  1  0
  3 37  1  0
  4 38  1  0
  5 39  1  0
 10 40  1  0
 16 41  1  0
 17 42  1  0
 20 43  1  0
 21 44  1  0
 23 45  1  0
 25 46  1  0
 25 47  1  0
 27 48  1  0
 28 49  1  0
 29 50  1  0
M  END
$$$$
