
     RDKit          3D

 59 62  0  0  0  0  0  0  0  0999 V2000
   -1.7266    0.8500   -2.8925 C   0  0  0  0  0  0  0  0  0  0  0  0
   -2.1722    0.1016   -1.7554 O   0  0  0  0  0  0  0  0  0  0  0  0
   -3.5387    0.1881   -1.6353 C   0  0  0  0  0  0  0  0  0  0  0  0
   -4.3157   -0.8398   -2.2029 C   0  0  0  0  0  0  0  0  0  0  0  0
   -3.6853   -1.9965   -2.9268 C   0  0  0  0  0  0  0  0  0  0  0  0
   -5.7127   -0.7557   -2.1241 C   0  0  0  0  0  0  0  0  0  0  0  0
   -6.3165    0.3088   -1.4572 C   0  0  0  0  0  0  0  0  0  0  0  0
   -8.2024    0.4010   -1.3593 Br  0  0  0  0  0  0  0  0  0  0  0  0
   -5.5444    1.2967   -0.8517 C   0  0  0  0  0  0  0  0  0  0  0  0
   -4.1435    1.2383   -0.9181 C   0  0  0  0  0  0  0  0  0  0  0  0
   -3.3882    2.3139   -0.1985 C   0  0  0  0  0  0  0  0  0  0  0  0
   -3.9671    3.3687    0.0419 O   0  0  0  0  0  0  0  0  0  0  0  0
   -2.0980    2.0013    0.1585 N   0  0  0  0  0  0  0  0  0  0  0  0
   -1.1513    2.7835    0.8519 C   0  0  0  0  0  0  0  0  0  0  0  0
   -1.3997    4.0762    1.3146 C   0  0  0  0  0  0  0  0  0  0  0  0
   -0.3972    4.7875    1.9765 C   0  0  0  0  0  0  0  0  0  0  0  0
    0.8540    4.2110    2.1801 C   0  0  0  0  0  0  0  0  0  0  0  0
    1.1105    2.9169    1.7237 C   0  0  0  0  0  0  0  0  0  0  0  0
    0.1192    2.1853    1.0533 C   0  0  0  0  0  0  0  0  0  0  0  0
    0.3303    0.8592    0.6014 N   0  0  0  0  0  0  0  0  0  0  0  0
    1.5773    0.6206   -0.1601 C   0  0  0  0  0  0  0  0  0  0  0  0
    2.5842   -0.2745    0.5869 C   0  0  0  0  0  0  0  0  0  0  0  0
    1.9906   -1.5403    1.0457 N   0  0  0  0  0  0  0  0  0  0  0  0
    2.6432   -2.7673    1.0631 C   0  0  0  0  0  0  0  0  0  0  0  0
    2.0547   -3.8391    1.1843 O   0  0  0  0  0  0  0  0  0  0  0  0
    4.1176   -2.7962    0.9338 C   0  0  0  0  0  0  0  0  0  0  0  0
    4.9283   -2.0596    1.8048 C   0  0  0  0  0  0  0  0  0  0  0  0
    6.3161   -2.1179    1.6726 C   0  0  0  0  0  0  0  0  0  0  0  0
    6.8897   -2.9198    0.6843 C   0  0  0  0  0  0  0  0  0  0  0  0
    6.0803   -3.6739   -0.1673 C   0  0  0  0  0  0  0  0  0  0  0  0
    4.6922   -3.6196   -0.0392 C   0  0  0  0  0  0  0  0  0  0  0  0
    0.5436   -1.5261    1.2839 C   0  0  0  0  0  0  0  0  0  0  0  0
    0.0331   -0.1294    1.6697 C   0  0  0  0  0  0  0  0  0  0  0  0
   -2.1352    0.4386   -3.8214 H   0  0  0  0  0  0  0  0  0  0  0  0
   -0.6364    0.7701   -2.9361 H   0  0  0  0  0  0  0  0  0  0  0  0
   -1.9857    1.9101   -2.8037 H   0  0  0  0  0  0  0  0  0  0  0  0
   -4.3689   -2.8510   -2.9742 H   0  0  0  0  0  0  0  0  0  0  0  0
   -3.4264   -1.7047   -3.9491 H   0  0  0  0  0  0  0  0  0  0  0  0
   -2.7838   -2.3395   -2.4088 H   0  0  0  0  0  0  0  0  0  0  0  0
   -6.3296   -1.5272   -2.5807 H   0  0  0  0  0  0  0  0  0  0  0  0
   -6.0276    2.1114   -0.3152 H   0  0  0  0  0  0  0  0  0  0  0  0
   -1.7211    1.0982   -0.1283 H   0  0  0  0  0  0  0  0  0  0  0  0
   -2.3628    4.5549    1.1712 H   0  0  0  0  0  0  0  0  0  0  0  0
   -0.5990    5.7943    2.3337 H   0  0  0  0  0  0  0  0  0  0  0  0
    1.6284    4.7677    2.7015 H   0  0  0  0  0  0  0  0  0  0  0  0
    2.0863    2.4828    1.9146 H   0  0  0  0  0  0  0  0  0  0  0  0
    2.0608    1.5552   -0.4697 H   0  0  0  0  0  0  0  0  0  0  0  0
    1.2868    0.1102   -1.0873 H   0  0  0  0  0  0  0  0  0  0  0  0
    3.4390   -0.4731   -0.0665 H   0  0  0  0  0  0  0  0  0  0  0  0
    2.9504    0.2422    1.4809 H   0  0  0  0  0  0  0  0  0  0  0  0
    4.4852   -1.4581    2.5935 H   0  0  0  0  0  0  0  0  0  0  0  0
    6.9521   -1.5495    2.3468 H   0  0  0  0  0  0  0  0  0  0  0  0
    7.9718   -2.9696    0.5866 H   0  0  0  0  0  0  0  0  0  0  0  0
    6.5312   -4.3114   -0.9240 H   0  0  0  0  0  0  0  0  0  0  0  0
    4.0598   -4.2191   -0.6899 H   0  0  0  0  0  0  0  0  0  0  0  0
    0.0600   -1.8666    0.3599 H   0  0  0  0  0  0  0  0  0  0  0  0
    0.3005   -2.2473    2.0723 H   0  0  0  0  0  0  0  0  0  0  0  0
   -1.0491   -0.1775    1.8378 H   0  0  0  0  0  0  0  0  0  0  0  0
    0.5079    0.1702    2.6137 H   0  0  0  0  0  0  0  0  0  0  0  0
  1  2  1  0
  2  3  1  0
  3  4  2  0
  4  5  1  0
  4  6  1  0
  6  7  2  0
  7  8  1  0
  7  9  1  0
  9 10  2  0
 10 11  1  0
 11 12  2  0
 11 13  1  0
 13 14  1  0
 14 15  2  0
 15 16  1  0
 16 17  2  0
 17 18  1  0
 18 19  2  0
 19 20  1  0
 20 21  1  0
 21 22  1  0
 22 23  1  0
 23 24  1  0
 24 25  2  0
 24 26  1  0
 26 27  2  0
 27 28  1  0
 28 29  2  0
 29 30  1  0
 30 31  2  0
 23 32  1  0
 32 33  1  0
 10  3  1  0
 19 14  1  0
 33 20  1  0
 31 26  1  0
  1 34  1  0
  1 35  1  0
  1 36  1  0
  5 37  1  0
  5 38  1  0
  5 39  1  0
  6 40  1  0
  9 41  1  0
 13 42  1  0
 15 43  1  0
 16 44  1  0
 17 45  1  0
 18 46  1  0
 21 47  1  0
 21 48  1  0
 22 49  1  0
 22 50  1  0
 27 51  1  0
 28 52  1  0
 29 53  1  0
 30 54  1  0
 31 55  1  0
 32 56  1  0
 32 57  1  0
 33 58  1  0
 33 59  1  0
M  END
$$$$
