
     RDKit          3D

 41 44  0  0  0  0  0  0  0  0999 V2000
   -2.9961    0.9803   -2.9420 O   0  0  0  0  0  0  0  0  0  0  0  0
   -1.8837    0.8544   -2.0227 S   0  0  0  0  0  6  0  0  0  0  0  0
   -0.5199    1.0065   -2.4797 O   0  0  0  0  0  0  0  0  0  0  0  0
   -2.0732   -0.6512   -1.2742 N   0  0  0  0  0  0  0  0  0  0  0  0
   -0.9483   -1.2010   -0.5829 C   0  0  0  0  0  0  0  0  0  0  0  0
   -0.7637   -0.8109    0.7459 C   0  0  0  0  0  0  0  0  0  0  0  0
    0.3461   -1.2465    1.4695 C   0  0  0  0  0  0  0  0  0  0  0  0
    0.4859   -0.6982    3.1654 S   0  0  0  0  0  0  0  0  0  0  0  0
    1.9026    0.3070    3.0742 C   0  0  0  0  0  0  0  0  0  0  0  0
    3.1414   -0.2159    2.8045 N   0  0  0  0  0  0  0  0  0  0  0  0
    3.9135    0.8460    2.8182 C   0  0  0  0  0  0  0  0  0  0  0  0
    3.1657    1.9490    3.0889 N   0  0  0  0  0  0  0  0  0  0  0  0
    1.8723    1.6291    3.2574 N   0  0  0  0  0  0  0  0  0  0  0  0
    1.2596   -2.1096    0.8458 C   0  0  0  0  0  0  0  0  0  0  0  0
    2.3687   -2.5689    1.5204 O   0  0  0  0  0  0  0  0  0  0  0  0
    1.0825   -2.5387   -0.4908 C   0  0  0  0  0  0  0  0  0  0  0  0
    1.9942   -3.4146   -1.1189 C   0  0  0  0  0  0  0  0  0  0  0  0
    1.8299   -3.8149   -2.4443 C   0  0  0  0  0  0  0  0  0  0  0  0
    0.7504   -3.3425   -3.1754 C   0  0  0  0  0  0  0  0  0  0  0  0
   -0.1676   -2.4782   -2.5769 C   0  0  0  0  0  0  0  0  0  0  0  0
   -0.0306   -2.0651   -1.2294 C   0  0  0  0  0  0  0  0  0  0  0  0
   -2.1669    1.9867   -0.6854 C   0  0  0  0  0  0  0  0  0  0  0  0
   -1.0784    2.5692   -0.0279 C   0  0  0  0  0  0  0  0  0  0  0  0
   -1.3070    3.4430    1.0343 C   0  0  0  0  0  0  0  0  0  0  0  0
   -2.6140    3.7475    1.4190 C   0  0  0  0  0  0  0  0  0  0  0  0
   -3.6975    3.1818    0.7437 C   0  0  0  0  0  0  0  0  0  0  0  0
   -3.4777    2.2997   -0.3140 C   0  0  0  0  0  0  0  0  0  0  0  0
   -2.6339   -1.2825   -1.8444 H   0  0  0  0  0  0  0  0  0  0  0  0
   -1.4979   -0.1644    1.2217 H   0  0  0  0  0  0  0  0  0  0  0  0
    4.9803    0.8776    2.6460 H   0  0  0  0  0  0  0  0  0  0  0  0
    3.4565    2.9172    3.1717 H   0  0  0  0  0  0  0  0  0  0  0  0
    2.6205   -1.8952    2.1861 H   0  0  0  0  0  0  0  0  0  0  0  0
    2.8536   -3.7905   -0.5652 H   0  0  0  0  0  0  0  0  0  0  0  0
    2.5507   -4.4870   -2.9018 H   0  0  0  0  0  0  0  0  0  0  0  0
    0.6224   -3.6389   -4.2132 H   0  0  0  0  0  0  0  0  0  0  0  0
   -0.9906   -2.1171   -3.1885 H   0  0  0  0  0  0  0  0  0  0  0  0
   -0.0578    2.3348   -0.3227 H   0  0  0  0  0  0  0  0  0  0  0  0
   -0.4668    3.8829    1.5663 H   0  0  0  0  0  0  0  0  0  0  0  0
   -2.7885    4.4299    2.2477 H   0  0  0  0  0  0  0  0  0  0  0  0
   -4.7129    3.4287    1.0443 H   0  0  0  0  0  0  0  0  0  0  0  0
   -4.3240    1.8606   -0.8372 H   0  0  0  0  0  0  0  0  0  0  0  0
  1  2  2  0
  2  3  2  0
  2  4  1  0
  4  5  1  0
  5  6  2  0
  6  7  1  0
  7  8  1  0
  8  9  1  0
  9 10  1  0
 10 11  2  0
 11 12  1  0
 12 13  1  0
  7 14  2  0
 14 15  1  0
 14 16  1  0
 16 17  2  0
 17 18  1  0
 18 19  2  0
 19 20  1  0
 20 21  2  0
  2 22  1  0
 22 23  2  0
 23 24  1  0
 24 25  2  0
 25 26  1  0
 26 27  2  0
 21  5  1  0
 27 22  1  0
 13  9  2  0
 21 16  1  0
  4 28  1  0
  6 29  1  0
 11 30  1  0
 12 31  1  0
 15 32  1  0
 17 33  1  0
 18 34  1  0
 19 35  1  0
 20 36  1  0
 23 37  1  0
 24 38  1  0
 25 39  1  0
 26 40  1  0
 27 41  1  0
M  END
$$$$
