
     RDKit          3D

 61 65  0  0  0  0  0  0  0  0999 V2000
   -8.7635    3.8408   -0.6684 C   0  0  0  0  0  0  0  0  0  0  0  0
   -7.7267    2.7713   -0.5041 C   0  0  0  0  0  0  0  0  0  0  0  0
   -6.3691    3.0973   -0.5014 C   0  0  0  0  0  0  0  0  0  0  0  0
   -5.3974    2.0959   -0.3857 C   0  0  0  0  0  0  0  0  0  0  0  0
   -5.7485    0.7382   -0.2832 C   0  0  0  0  0  0  0  0  0  0  0  0
   -4.7361   -0.3355   -0.1761 C   0  0  0  0  0  0  0  0  0  0  0  0
   -3.4669   -0.2350   -0.7172 C   0  0  0  0  0  0  0  0  0  0  0  0
   -2.5867   -1.3071   -0.5607 C   0  0  0  0  0  0  0  0  0  0  0  0
   -1.2247   -1.1193   -1.1149 C   0  0  0  0  0  0  0  0  0  0  0  0
   -1.1185   -0.8123   -2.2945 O   0  0  0  0  0  0  0  0  0  0  0  0
   -0.2133   -1.2491   -0.1811 N   0  0  0  0  0  0  0  0  0  0  0  0
    1.1760   -1.2180   -0.4172 C   0  0  0  0  0  0  0  0  0  0  0  0
    2.0177   -1.3116    0.7008 C   0  0  0  0  0  0  0  0  0  0  0  0
    3.4074   -1.3148    0.5503 C   0  0  0  0  0  0  0  0  0  0  0  0
    3.9607   -1.2214   -0.7277 C   0  0  0  0  0  0  0  0  0  0  0  0
    5.7214   -1.2879   -0.9328 S   0  0  0  0  0  6  0  0  0  0  0  0
    5.9870   -1.8798   -2.2293 O   0  0  0  0  0  0  0  0  0  0  0  0
    6.3151   -1.8431    0.2639 O   0  0  0  0  0  0  0  0  0  0  0  0
    6.1290    0.3338   -1.0922 N   0  0  0  0  0  0  0  0  0  0  0  0
    6.4798    1.0142    0.1365 C   0  0  0  0  0  0  0  0  0  0  0  0
    5.7450    0.9746    1.2790 O   0  0  0  0  0  0  0  0  0  0  0  0
    6.3395    1.7661    2.2426 N   0  0  0  0  0  0  0  0  0  0  0  0
    7.4324    2.2806    1.6652 C   0  0  0  0  0  0  0  0  0  0  0  0
    8.3180    3.1927    2.4297 C   0  0  0  0  0  0  0  0  0  0  0  0
    7.5681    1.8416    0.3171 C   0  0  0  0  0  0  0  0  0  0  0  0
    8.6376    2.1814   -0.6483 C   0  0  0  0  0  0  0  0  0  0  0  0
    3.1357   -1.1417   -1.8511 C   0  0  0  0  0  0  0  0  0  0  0  0
    1.7460   -1.1336   -1.6908 C   0  0  0  0  0  0  0  0  0  0  0  0
   -2.9850   -2.4943    0.0908 C   0  0  0  0  0  0  0  0  0  0  0  0
   -2.1881   -3.6614    0.2276 C   0  0  0  0  0  0  0  0  0  0  0  0
   -2.6645   -4.7836    0.9026 C   0  0  0  0  0  0  0  0  0  0  0  0
   -3.9435   -4.7636    1.4379 C   0  0  0  0  0  0  0  0  0  0  0  0
   -4.7402   -3.6264    1.2831 C   0  0  0  0  0  0  0  0  0  0  0  0
   -4.2897   -2.4957    0.6133 C   0  0  0  0  0  0  0  0  0  0  0  0
   -5.1268   -1.4514    0.4901 N   0  0  0  0  0  0  0  0  0  0  0  0
   -7.1220    0.4321   -0.2898 C   0  0  0  0  0  0  0  0  0  0  0  0
   -8.0972    1.4285   -0.4058 C   0  0  0  0  0  0  0  0  0  0  0  0
   -8.9029    4.0675   -1.7279 H   0  0  0  0  0  0  0  0  0  0  0  0
   -8.4665    4.7552   -0.1461 H   0  0  0  0  0  0  0  0  0  0  0  0
   -9.7227    3.5253   -0.2493 H   0  0  0  0  0  0  0  0  0  0  0  0
   -6.0535    4.1354   -0.5870 H   0  0  0  0  0  0  0  0  0  0  0  0
   -4.3549    2.4038   -0.3666 H   0  0  0  0  0  0  0  0  0  0  0  0
   -3.1514    0.6458   -1.2663 H   0  0  0  0  0  0  0  0  0  0  0  0
   -0.4958   -1.3807    0.7839 H   0  0  0  0  0  0  0  0  0  0  0  0
    1.6070   -1.3853    1.7053 H   0  0  0  0  0  0  0  0  0  0  0  0
    4.0445   -1.3918    1.4297 H   0  0  0  0  0  0  0  0  0  0  0  0
    6.6912    0.5046   -1.9231 H   0  0  0  0  0  0  0  0  0  0  0  0
    9.3578    2.8499    2.3756 H   0  0  0  0  0  0  0  0  0  0  0  0
    8.2638    4.2072    2.0198 H   0  0  0  0  0  0  0  0  0  0  0  0
    8.0320    3.2366    3.4871 H   0  0  0  0  0  0  0  0  0  0  0  0
    9.1938    3.0702   -0.3338 H   0  0  0  0  0  0  0  0  0  0  0  0
    8.2213    2.3852   -1.6410 H   0  0  0  0  0  0  0  0  0  0  0  0
    9.3438    1.3475   -0.7336 H   0  0  0  0  0  0  0  0  0  0  0  0
    3.5577   -1.0950   -2.8525 H   0  0  0  0  0  0  0  0  0  0  0  0
    1.1327   -1.0796   -2.5860 H   0  0  0  0  0  0  0  0  0  0  0  0
   -1.1924   -3.7138   -0.2096 H   0  0  0  0  0  0  0  0  0  0  0  0
   -2.0415   -5.6694    1.0016 H   0  0  0  0  0  0  0  0  0  0  0  0
   -4.3323   -5.6324    1.9642 H   0  0  0  0  0  0  0  0  0  0  0  0
   -5.7486   -3.6261    1.6926 H   0  0  0  0  0  0  0  0  0  0  0  0
   -7.4450   -0.6051   -0.2128 H   0  0  0  0  0  0  0  0  0  0  0  0
   -9.1465    1.1426   -0.4194 H   0  0  0  0  0  0  0  0  0  0  0  0
  1  2  1  0
  2  3  2  0
  3  4  1  0
  4  5  2  0
  5  6  1  0
  6  7  2  0
  7  8  1  0
  8  9  1  0
  9 10  2  0
  9 11  1  0
 11 12  1  0
 12 13  2  0
 13 14  1  0
 14 15  2  0
 15 16  1  0
 16 17  2  0
 16 18  2  0
 16 19  1  0
 19 20  1  0
 20 21  1  0
 21 22  1  0
 22 23  2  0
 23 24  1  0
 23 25  1  0
 25 26  1  0
 15 27  1  0
 27 28  2  0
  8 29  2  0
 29 30  1  0
 30 31  2  0
 31 32  1  0
 32 33  2  0
 33 34  1  0
 34 35  2  0
  5 36  1  0
 36 37  2  0
 37  2  1  0
 35  6  1  0
 28 12  1  0
 34 29  1  0
 25 20  2  0
  1 38  1  0
  1 39  1  0
  1 40  1  0
  3 41  1  0
  4 42  1  0
  7 43  1  0
 11 44  1  0
 13 45  1  0
 14 46  1  0
 19 47  1  0
 24 48  1  0
 24 49  1  0
 24 50  1  0
 26 51  1  0
 26 52  1  0
 26 53  1  0
 27 54  1  0
 28 55  1  0
 30 56  1  0
 31 57  1  0
 32 58  1  0
 33 59  1  0
 36 60  1  0
 37 61  1  0
M  END
$$$$
