
     RDKit          3D

 46 49  0  0  0  0  0  0  0  0999 V2000
   -7.2060   -0.6666   -0.6295 C   0  0  0  0  0  0  0  0  0  0  0  0
   -6.0258    0.2450   -0.9142 C   0  0  0  0  0  0  0  0  0  0  0  0
   -4.8418   -0.4241   -0.4899 O   0  0  0  0  0  0  0  0  0  0  0  0
   -3.6467    0.2313   -0.6414 C   0  0  0  0  0  0  0  0  0  0  0  0
   -3.5014    1.4984   -1.2052 C   0  0  0  0  0  0  0  0  0  0  0  0
   -2.2377    2.0751   -1.3107 C   0  0  0  0  0  0  0  0  0  0  0  0
   -1.1104    1.3875   -0.8557 C   0  0  0  0  0  0  0  0  0  0  0  0
   -1.2050    0.1035   -0.2801 C   0  0  0  0  0  0  0  0  0  0  0  0
    0.0156   -0.5916    0.1837 C   0  0  0  0  0  0  0  0  0  0  0  0
   -0.0861   -1.9153    0.4705 N   0  0  0  0  0  0  0  0  0  0  0  0
    1.0533   -2.5348    0.8781 C   0  0  0  0  0  0  0  0  0  0  0  0
    0.9773   -3.9980    1.1487 C   0  0  0  0  0  0  0  0  0  0  0  0
   -0.2133   -4.6087    0.8580 N   0  0  0  0  0  0  0  0  0  0  0  0
    1.9298   -4.6277    1.5924 O   0  0  0  0  0  0  0  0  0  0  0  0
    2.2295   -1.8607    1.0210 C   0  0  0  0  0  0  0  0  0  0  0  0
    3.5012   -2.2584    1.4011 N   0  0  0  0  0  0  0  0  0  0  0  0
    4.3526   -1.1465    1.3510 C   0  0  0  0  0  0  0  0  0  0  0  0
    5.5366   -1.1970    1.6396 O   0  0  0  0  0  0  0  0  0  0  0  0
    3.5512   -0.0408    0.9299 N   0  0  0  0  0  0  0  0  0  0  0  0
    3.9802    1.2988    0.7247 C   0  0  0  0  0  0  0  0  0  0  0  0
    5.3508    1.6132    0.7140 C   0  0  0  0  0  0  0  0  0  0  0  0
    5.8089    2.9213    0.5085 C   0  0  0  0  0  0  0  0  0  0  0  0
    4.9015    3.9541    0.3109 C   0  0  0  0  0  0  0  0  0  0  0  0
    3.5425    3.6697    0.3264 C   0  0  0  0  0  0  0  0  0  0  0  0
    2.4043    4.9416    0.0927 Cl  0  0  0  0  0  0  0  0  0  0  0  0
    3.0853    2.3633    0.5338 C   0  0  0  0  0  0  0  0  0  0  0  0
    2.2314   -0.5194    0.7267 C   0  0  0  0  0  0  0  0  0  0  0  0
    1.1490    0.1353    0.2941 N   0  0  0  0  0  0  0  0  0  0  0  0
   -2.5018   -0.4528   -0.1837 C   0  0  0  0  0  0  0  0  0  0  0  0
   -2.7119   -1.6955    0.3771 O   0  0  0  0  0  0  0  0  0  0  0  0
   -8.1444   -0.1977   -0.9386 H   0  0  0  0  0  0  0  0  0  0  0  0
   -7.0947   -1.6184   -1.1595 H   0  0  0  0  0  0  0  0  0  0  0  0
   -7.2629   -0.9014    0.4386 H   0  0  0  0  0  0  0  0  0  0  0  0
   -6.1552    1.1807   -0.3582 H   0  0  0  0  0  0  0  0  0  0  0  0
   -5.9831    0.4481   -1.9904 H   0  0  0  0  0  0  0  0  0  0  0  0
   -4.3509    2.0645   -1.5718 H   0  0  0  0  0  0  0  0  0  0  0  0
   -2.1269    3.0642   -1.7499 H   0  0  0  0  0  0  0  0  0  0  0  0
   -0.1403    1.8723   -0.9624 H   0  0  0  0  0  0  0  0  0  0  0  0
   -0.2787   -5.6128    0.9640 H   0  0  0  0  0  0  0  0  0  0  0  0
   -0.9597   -4.1235    0.3759 H   0  0  0  0  0  0  0  0  0  0  0  0
    3.7755   -3.1963    1.6716 H   0  0  0  0  0  0  0  0  0  0  0  0
    6.1110    0.8478    0.8481 H   0  0  0  0  0  0  0  0  0  0  0  0
    6.8774    3.1238    0.5021 H   0  0  0  0  0  0  0  0  0  0  0  0
    5.2566    4.9682    0.1512 H   0  0  0  0  0  0  0  0  0  0  0  0
    2.0126    2.2196    0.5677 H   0  0  0  0  0  0  0  0  0  0  0  0
   -1.8494   -2.0398    0.6714 H   0  0  0  0  0  0  0  0  0  0  0  0
  1  2  1  0
  2  3  1  0
  3  4  1  0
  4  5  2  0
  5  6  1  0
  6  7  2  0
  7  8  1  0
  8  9  1  0
  9 10  2  0
 10 11  1  0
 11 12  1  0
 12 13  1  0
 12 14  2  0
 11 15  2  0
 15 16  1  0
 16 17  1  0
 17 18  2  0
 17 19  1  0
 19 20  1  0
 20 21  2  0
 21 22  1  0
 22 23  2  0
 23 24  1  0
 24 25  1  0
 24 26  2  0
 19 27  1  0
 27 28  2  0
  8 29  2  0
 29 30  1  0
 29  4  1  0
 28  9  1  0
 27 15  1  0
 26 20  1  0
  1 31  1  0
  1 32  1  0
  1 33  1  0
  2 34  1  0
  2 35  1  0
  5 36  1  0
  6 37  1  0
  7 38  1  0
 13 39  1  0
 13 40  1  0
 16 41  1  0
 21 42  1  0
 22 43  1  0
 23 44  1  0
 26 45  1  0
 30 46  1  0
M  END
$$$$
