
     RDKit          3D

 44 46  0  0  0  0  0  0  0  0999 V2000
   -2.9117   -2.7939    3.5729 C   0  0  0  0  0  0  0  0  0  0  0  0
   -2.4035   -2.4461    2.2048 C   0  0  0  0  0  0  0  0  0  0  0  0
   -2.7988   -1.2614    1.5831 C   0  0  0  0  0  0  0  0  0  0  0  0
   -2.3699   -0.9255    0.2836 C   0  0  0  0  0  0  0  0  0  0  0  0
   -2.8909    0.3705   -0.2788 C   0  0  0  0  0  0  0  0  0  0  0  0
   -1.5104   -1.8173   -0.4054 C   0  0  0  0  0  0  0  0  0  0  0  0
   -0.9067   -1.4372   -2.0685 S   0  0  0  0  0  6  0  0  0  0  0  0
   -1.5670   -0.2621   -2.5917 O   0  0  0  0  0  0  0  0  0  0  0  0
   -0.9159   -2.6639   -2.8391 O   0  0  0  0  0  0  0  0  0  0  0  0
    0.7211   -1.0564   -1.8114 N   0  0  0  0  0  0  0  0  0  0  0  0
    1.0681   -0.0634   -0.8564 C   0  0  0  0  0  0  0  0  0  0  0  0
    1.7036   -0.4531    0.3229 C   0  0  0  0  0  0  0  0  0  0  0  0
    2.0165    0.4988    1.2942 C   0  0  0  0  0  0  0  0  0  0  0  0
    1.6941    1.8393    1.0778 C   0  0  0  0  0  0  0  0  0  0  0  0
    1.9907    2.7661    2.0405 O   0  0  0  0  0  0  0  0  0  0  0  0
    1.0652    2.2425   -0.1091 C   0  0  0  0  0  0  0  0  0  0  0  0
    0.6264    3.9443   -0.4204 S   0  0  0  0  0  0  0  0  0  0  0  0
    2.1270    4.5948   -1.0303 C   0  0  0  0  0  0  0  0  0  0  0  0
    3.2214    3.8388   -1.3720 N   0  0  0  0  0  0  0  0  0  0  0  0
    4.0820    4.7326   -1.7960 C   0  0  0  0  0  0  0  0  0  0  0  0
    3.5249    5.9679   -1.7193 N   0  0  0  0  0  0  0  0  0  0  0  0
    2.2745    5.9092   -1.2412 N   0  0  0  0  0  0  0  0  0  0  0  0
    0.7491    1.2762   -1.0731 C   0  0  0  0  0  0  0  0  0  0  0  0
   -1.1213   -3.0388    0.2087 C   0  0  0  0  0  0  0  0  0  0  0  0
   -0.2688   -4.0897   -0.4542 C   0  0  0  0  0  0  0  0  0  0  0  0
   -1.5866   -3.3327    1.5046 C   0  0  0  0  0  0  0  0  0  0  0  0
   -3.8584   -3.3370    3.4937 H   0  0  0  0  0  0  0  0  0  0  0  0
   -3.0699   -1.8910    4.1721 H   0  0  0  0  0  0  0  0  0  0  0  0
   -2.1897   -3.4171    4.1112 H   0  0  0  0  0  0  0  0  0  0  0  0
   -3.4636   -0.5852    2.1208 H   0  0  0  0  0  0  0  0  0  0  0  0
   -2.0721    1.0465   -0.5333 H   0  0  0  0  0  0  0  0  0  0  0  0
   -3.5289    0.1820   -1.1473 H   0  0  0  0  0  0  0  0  0  0  0  0
   -3.5105    0.9052    0.4505 H   0  0  0  0  0  0  0  0  0  0  0  0
    1.3363   -1.8583   -1.9236 H   0  0  0  0  0  0  0  0  0  0  0  0
    1.9468   -1.4960    0.5044 H   0  0  0  0  0  0  0  0  0  0  0  0
    2.5010    0.1789    2.2115 H   0  0  0  0  0  0  0  0  0  0  0  0
    2.4782    2.3378    2.7613 H   0  0  0  0  0  0  0  0  0  0  0  0
    5.0831    4.5499   -2.1586 H   0  0  0  0  0  0  0  0  0  0  0  0
    3.9193    6.8673   -1.9698 H   0  0  0  0  0  0  0  0  0  0  0  0
    0.2610    1.5726   -1.9990 H   0  0  0  0  0  0  0  0  0  0  0  0
    0.0722   -4.8394    0.2692 H   0  0  0  0  0  0  0  0  0  0  0  0
    0.6371   -3.6603   -0.8865 H   0  0  0  0  0  0  0  0  0  0  0  0
   -0.8435   -4.6192   -1.2196 H   0  0  0  0  0  0  0  0  0  0  0  0
   -1.3114   -4.2758    1.9762 H   0  0  0  0  0  0  0  0  0  0  0  0
  1  2  1  0
  2  3  2  0
  3  4  1  0
  4  5  1  0
  4  6  2  0
  6  7  1  0
  7  8  2  0
  7  9  2  0
  7 10  1  0
 10 11  1  0
 11 12  2  0
 12 13  1  0
 13 14  2  0
 14 15  1  0
 14 16  1  0
 16 17  1  0
 17 18  1  0
 18 19  1  0
 19 20  2  0
 20 21  1  0
 21 22  1  0
 16 23  2  0
  6 24  1  0
 24 25  1  0
 24 26  2  0
 26  2  1  0
 23 11  1  0
 22 18  2  0
  1 27  1  0
  1 28  1  0
  1 29  1  0
  3 30  1  0
  5 31  1  0
  5 32  1  0
  5 33  1  0
 10 34  1  0
 12 35  1  0
 13 36  1  0
 15 37  1  0
 20 38  1  0
 21 39  1  0
 23 40  1  0
 25 41  1  0
 25 42  1  0
 25 43  1  0
 26 44  1  0
M  END
$$$$
