
     RDKit          3D

 43 43  0  0  0  0  0  0  0  0999 V2000
   -3.5322    2.0025    3.7323 C   0  0  0  0  0  0  0  0  0  0  0  0
   -2.7449    1.5633    2.5347 C   0  0  0  0  0  0  0  0  0  0  0  0
   -1.0744    1.2524    2.8619 Cl  0  0  0  0  0  0  0  0  0  0  0  0
   -3.2712    1.4094    1.3064 C   0  0  0  0  0  0  0  0  0  0  0  0
   -2.5469    1.0370    0.0495 C   0  0  0  0  0  0  0  0  0  0  0  0
   -2.7346   -0.4239   -0.4113 N   0  0  0  0  0  4  0  0  0  0  0  0
   -2.0818   -1.3830    0.5779 C   0  0  0  0  0  0  0  0  0  0  0  0
   -4.2086   -0.7713   -0.5585 C   0  0  0  0  0  0  0  0  0  0  0  0
   -2.0628   -0.6034   -1.8163 C   0  0  0  0  0  0  0  0  0  0  0  0
   -0.5965   -0.2035   -1.9063 C   0  0  0  0  0  0  0  0  0  0  0  0
   -0.2291    0.9502   -2.0620 O   0  0  0  0  0  0  0  0  0  0  0  0
    0.2088   -1.2725   -1.6927 O   0  0  0  0  0  0  0  0  0  0  0  0
    1.6280   -1.0166   -1.7536 C   0  0  0  0  0  0  0  0  0  0  0  0
    2.1256   -0.3220   -0.4862 C   0  0  0  0  0  0  0  0  0  0  0  0
    3.6272   -0.2327   -0.4376 C   0  0  0  0  0  0  0  0  0  0  0  0
    4.3617   -1.0389    0.4429 C   0  0  0  0  0  0  0  0  0  0  0  0
    5.7545   -0.9536    0.4842 C   0  0  0  0  0  0  0  0  0  0  0  0
    6.4253   -0.0630   -0.3533 C   0  0  0  0  0  0  0  0  0  0  0  0
    5.7050    0.7374   -1.2358 C   0  0  0  0  0  0  0  0  0  0  0  0
    4.3126    0.6565   -1.2781 C   0  0  0  0  0  0  0  0  0  0  0  0
   -4.5701    2.2358    3.4741 H   0  0  0  0  0  0  0  0  0  0  0  0
   -3.5474    1.2146    4.4907 H   0  0  0  0  0  0  0  0  0  0  0  0
   -3.0915    2.9049    4.1748 H   0  0  0  0  0  0  0  0  0  0  0  0
   -4.3265    1.6448    1.1793 H   0  0  0  0  0  0  0  0  0  0  0  0
   -2.9089    1.6737   -0.7695 H   0  0  0  0  0  0  0  0  0  0  0  0
   -1.4704    1.2115    0.1456 H   0  0  0  0  0  0  0  0  0  0  0  0
   -2.6317   -1.3423    1.5189 H   0  0  0  0  0  0  0  0  0  0  0  0
   -2.1334   -2.3940    0.1631 H   0  0  0  0  0  0  0  0  0  0  0  0
   -1.0412   -1.0883    0.7298 H   0  0  0  0  0  0  0  0  0  0  0  0
   -4.6862   -0.7313    0.4225 H   0  0  0  0  0  0  0  0  0  0  0  0
   -4.6693   -0.0509   -1.2405 H   0  0  0  0  0  0  0  0  0  0  0  0
   -4.2866   -1.7823   -0.9641 H   0  0  0  0  0  0  0  0  0  0  0  0
   -2.6299    0.0107   -2.5223 H   0  0  0  0  0  0  0  0  0  0  0  0
   -2.1880   -1.6513   -2.1094 H   0  0  0  0  0  0  0  0  0  0  0  0
    2.1122   -1.9961   -1.8627 H   0  0  0  0  0  0  0  0  0  0  0  0
    1.8664   -0.4481   -2.6603 H   0  0  0  0  0  0  0  0  0  0  0  0
    1.7419   -0.8529    0.3974 H   0  0  0  0  0  0  0  0  0  0  0  0
    1.7070    0.6877   -0.4068 H   0  0  0  0  0  0  0  0  0  0  0  0
    3.8603   -1.7341    1.1097 H   0  0  0  0  0  0  0  0  0  0  0  0
    6.3191   -1.5763    1.1748 H   0  0  0  0  0  0  0  0  0  0  0  0
    7.5099    0.0063   -0.3166 H   0  0  0  0  0  0  0  0  0  0  0  0
    6.2296    1.4325   -1.8862 H   0  0  0  0  0  0  0  0  0  0  0  0
    3.7688    1.3010   -1.9686 H   0  0  0  0  0  0  0  0  0  0  0  0
  1  2  1  0
  2  3  1  0
  2  4  2  3
  4  5  1  0
  5  6  1  0
  6  7  1  0
  6  8  1  0
  6  9  1  0
  9 10  1  0
 10 11  2  0
 10 12  1  0
 12 13  1  0
 13 14  1  0
 14 15  1  0
 15 16  2  0
 16 17  1  0
 17 18  2  0
 18 19  1  0
 19 20  2  0
 20 15  1  0
  1 21  1  0
  1 22  1  0
  1 23  1  0
  4 24  1  0
  5 25  1  0
  5 26  1  0
  7 27  1  0
  7 28  1  0
  7 29  1  0
  8 30  1  0
  8 31  1  0
  8 32  1  0
  9 33  1  0
  9 34  1  0
 13 35  1  0
 13 36  1  0
 14 37  1  0
 14 38  1  0
 16 39  1  0
 17 40  1  0
 18 41  1  0
 19 42  1  0
 20 43  1  0
M  CHG  1   6   1
M  END
$$$$
