
     RDKit          3D

 53 54  0  0  0  0  0  0  0  0999 V2000
   -5.1839   -1.2015    1.8667 C   0  0  0  0  0  0  0  0  0  0  0  0
   -6.2298   -0.5884    0.9528 C   0  0  0  0  0  0  0  0  0  0  0  0
   -5.8948   -0.7192   -0.4764 N   0  0  0  0  0  0  0  0  0  0  0  0
   -5.9855   -2.0610   -1.0760 C   0  0  0  0  0  0  0  0  0  0  0  0
   -7.3298   -2.2211   -1.7654 C   0  0  0  0  0  0  0  0  0  0  0  0
   -5.0807    0.5125   -1.2930 S   0  0  0  0  0  6  0  0  0  0  0  0
   -5.1772    0.2607   -2.7157 O   0  0  0  0  0  0  0  0  0  0  0  0
   -5.4926    1.7815   -0.7305 O   0  0  0  0  0  0  0  0  0  0  0  0
   -3.3756    0.2602   -0.8388 C   0  0  0  0  0  0  0  0  0  0  0  0
   -2.6079   -0.6838   -1.5281 C   0  0  0  0  0  0  0  0  0  0  0  0
   -1.2608   -0.8578   -1.1965 C   0  0  0  0  0  0  0  0  0  0  0  0
   -0.6751   -0.0784   -0.1877 C   0  0  0  0  0  0  0  0  0  0  0  0
    0.7538   -0.2233    0.2020 C   0  0  0  0  0  0  0  0  0  0  0  0
    1.3209    0.5287    0.9793 O   0  0  0  0  0  0  0  0  0  0  0  0
    1.3048   -1.3085   -0.3959 O   0  0  0  0  0  0  0  0  0  0  0  0
    2.7030   -1.4524   -0.1499 C   0  0  0  0  0  0  0  0  0  0  0  0
    3.5462   -0.4346   -0.9238 C   0  0  0  0  0  0  0  0  0  0  0  0
    3.1556    0.1172   -1.9499 O   0  0  0  0  0  0  0  0  0  0  0  0
    4.7941   -0.2119   -0.3810 N   0  0  0  0  0  0  0  0  0  0  0  0
    5.6579    0.8288   -0.9131 C   0  0  0  0  0  0  0  0  0  0  0  0
    7.0017    0.9210   -0.1826 C   0  0  0  0  0  0  0  0  0  0  0  0
    6.8726    1.4662    1.1620 N   0  0  0  0  0  0  0  0  0  0  0  0
    7.1115    2.7816    1.4767 C   0  0  0  0  0  0  0  0  0  0  0  0
    7.5255    3.6315    0.4963 O   0  0  0  0  0  0  0  0  0  0  0  0
    6.8937    3.0952    2.7593 C   0  0  0  0  0  0  0  0  0  0  0  0
    6.3518    1.7126    3.6628 S   0  0  0  0  0  0  0  0  0  0  0  0
    6.3961    0.6985    2.2119 C   0  0  0  0  0  0  0  0  0  0  0  0
    6.0240   -0.4652    2.1755 O   0  0  0  0  0  0  0  0  0  0  0  0
   -1.4463    0.8892    0.4736 C   0  0  0  0  0  0  0  0  0  0  0  0
   -2.7930    1.0656    0.1450 C   0  0  0  0  0  0  0  0  0  0  0  0
   -5.0363   -2.2662    1.6658 H   0  0  0  0  0  0  0  0  0  0  0  0
   -5.4987   -1.1020    2.9109 H   0  0  0  0  0  0  0  0  0  0  0  0
   -4.2162   -0.7072    1.7665 H   0  0  0  0  0  0  0  0  0  0  0  0
   -6.3762    0.4637    1.2176 H   0  0  0  0  0  0  0  0  0  0  0  0
   -7.1973   -1.0734    1.1294 H   0  0  0  0  0  0  0  0  0  0  0  0
   -5.8731   -2.8386   -0.3146 H   0  0  0  0  0  0  0  0  0  0  0  0
   -5.1798   -2.2253   -1.7971 H   0  0  0  0  0  0  0  0  0  0  0  0
   -7.4084   -3.2139   -2.2189 H   0  0  0  0  0  0  0  0  0  0  0  0
   -7.4628   -1.4743   -2.5545 H   0  0  0  0  0  0  0  0  0  0  0  0
   -8.1540   -2.1052   -1.0541 H   0  0  0  0  0  0  0  0  0  0  0  0
   -3.0422   -1.2731   -2.3325 H   0  0  0  0  0  0  0  0  0  0  0  0
   -0.6740   -1.5910   -1.7457 H   0  0  0  0  0  0  0  0  0  0  0  0
    2.9117   -1.4039    0.9254 H   0  0  0  0  0  0  0  0  0  0  0  0
    2.9952   -2.4494   -0.4965 H   0  0  0  0  0  0  0  0  0  0  0  0
    4.9740   -0.5491    0.5648 H   0  0  0  0  0  0  0  0  0  0  0  0
    5.1163    1.7803   -0.8594 H   0  0  0  0  0  0  0  0  0  0  0  0
    5.8273    0.6001   -1.9714 H   0  0  0  0  0  0  0  0  0  0  0  0
    7.7019    1.5326   -0.7617 H   0  0  0  0  0  0  0  0  0  0  0  0
    7.4411   -0.0808   -0.0968 H   0  0  0  0  0  0  0  0  0  0  0  0
    7.6253    4.5192    0.8812 H   0  0  0  0  0  0  0  0  0  0  0  0
    7.0177    4.0684    3.2109 H   0  0  0  0  0  0  0  0  0  0  0  0
   -0.9971    1.5156    1.2429 H   0  0  0  0  0  0  0  0  0  0  0  0
   -3.3749    1.8293    0.6572 H   0  0  0  0  0  0  0  0  0  0  0  0
  1  2  1  0
  2  3  1  0
  3  4  1  0
  4  5  1  0
  3  6  1  0
  6  7  2  0
  6  8  2  0
  6  9  1  0
  9 10  2  0
 10 11  1  0
 11 12  2  0
 12 13  1  0
 13 14  2  0
 13 15  1  0
 15 16  1  0
 16 17  1  0
 17 18  2  0
 17 19  1  0
 19 20  1  0
 20 21  1  0
 21 22  1  0
 22 23  1  0
 23 24  1  0
 23 25  2  0
 25 26  1  0
 26 27  1  0
 27 28  2  0
 12 29  1  0
 29 30  2  0
 30  9  1  0
 27 22  1  0
  1 31  1  0
  1 32  1  0
  1 33  1  0
  2 34  1  0
  2 35  1  0
  4 36  1  0
  4 37  1  0
  5 38  1  0
  5 39  1  0
  5 40  1  0
 10 41  1  0
 11 42  1  0
 16 43  1  0
 16 44  1  0
 19 45  1  0
 20 46  1  0
 20 47  1  0
 21 48  1  0
 21 49  1  0
 24 50  1  0
 25 51  1  0
 29 52  1  0
 30 53  1  0
M  END
$$$$
