
     RDKit          3D

 46 48  0  0  0  0  0  0  0  0999 V2000
    9.3152   -0.5802    0.8923 C   0  0  0  0  0  0  0  0  0  0  0  0
    7.9407   -0.6008    1.5319 C   0  0  0  0  0  0  0  0  0  0  0  0
    6.9648   -0.4237    0.4980 O   0  0  0  0  0  0  0  0  0  0  0  0
    5.6815   -0.4184    0.9416 C   0  0  0  0  0  0  0  0  0  0  0  0
    5.3341   -0.5468    2.1041 O   0  0  0  0  0  0  0  0  0  0  0  0
    4.7371   -0.2327   -0.1960 C   0  0  0  0  0  0  0  0  0  0  0  0
    5.1843   -0.0616   -1.5128 C   0  0  0  0  0  0  0  0  0  0  0  0
    4.2640    0.1145   -2.5440 C   0  0  0  0  0  0  0  0  0  0  0  0
    2.8965    0.1185   -2.2643 C   0  0  0  0  0  0  0  0  0  0  0  0
    2.4308   -0.0560   -0.9541 C   0  0  0  0  0  0  0  0  0  0  0  0
    1.0321   -0.0321   -0.7662 N   0  0  0  0  0  0  0  0  0  0  0  0
    0.3385   -0.2622    0.4081 C   0  0  0  0  0  0  0  0  0  0  0  0
    0.8117   -0.6028    1.4848 O   0  0  0  0  0  0  0  0  0  0  0  0
   -1.1422   -0.1172    0.3061 C   0  0  0  0  0  0  0  0  0  0  0  0
   -1.7415    0.8285   -0.5318 C   0  0  0  0  0  0  0  0  0  0  0  0
   -3.1380    0.9303   -0.5958 C   0  0  0  0  0  0  0  0  0  0  0  0
   -3.9503    0.1006    0.1807 C   0  0  0  0  0  0  0  0  0  0  0  0
   -5.3607    0.1406    0.1782 N   0  0  0  0  0  0  0  0  0  0  0  0
   -6.1910    0.9285   -0.6104 C   0  0  0  0  0  0  0  0  0  0  0  0
   -5.7852    1.7047   -1.4707 O   0  0  0  0  0  0  0  0  0  0  0  0
   -7.6132    0.7479   -0.3391 C   0  0  0  0  0  0  0  0  0  0  0  0
   -8.3293    0.0049    0.5877 C   0  0  0  0  0  0  0  0  0  0  0  0
   -9.7045    0.2502    0.3446 C   0  0  0  0  0  0  0  0  0  0  0  0
   -9.7538    1.1265   -0.7105 C   0  0  0  0  0  0  0  0  0  0  0  0
   -8.5022    1.4334   -1.1294 O   0  0  0  0  0  0  0  0  0  0  0  0
   -3.3426   -0.8285    1.0357 C   0  0  0  0  0  0  0  0  0  0  0  0
   -1.9496   -0.9356    1.1015 C   0  0  0  0  0  0  0  0  0  0  0  0
    3.3586   -0.2276    0.0766 C   0  0  0  0  0  0  0  0  0  0  0  0
    9.4041   -1.3748    0.1440 H   0  0  0  0  0  0  0  0  0  0  0  0
    9.4836    0.3680    0.3712 H   0  0  0  0  0  0  0  0  0  0  0  0
   10.0977   -0.7139    1.6444 H   0  0  0  0  0  0  0  0  0  0  0  0
    7.7796   -1.5627    2.0315 H   0  0  0  0  0  0  0  0  0  0  0  0
    7.8598    0.2129    2.2612 H   0  0  0  0  0  0  0  0  0  0  0  0
    6.2456   -0.0611   -1.7489 H   0  0  0  0  0  0  0  0  0  0  0  0
    4.6115    0.2489   -3.5655 H   0  0  0  0  0  0  0  0  0  0  0  0
    2.2009    0.2580   -3.0884 H   0  0  0  0  0  0  0  0  0  0  0  0
    0.4810    0.1028   -1.6036 H   0  0  0  0  0  0  0  0  0  0  0  0
   -1.1454    1.5210   -1.1201 H   0  0  0  0  0  0  0  0  0  0  0  0
   -3.5557    1.6858   -1.2548 H   0  0  0  0  0  0  0  0  0  0  0  0
   -5.8134   -0.4984    0.8146 H   0  0  0  0  0  0  0  0  0  0  0  0
   -7.9265   -0.6372    1.3573 H   0  0  0  0  0  0  0  0  0  0  0  0
  -10.5540   -0.1583    0.8742 H   0  0  0  0  0  0  0  0  0  0  0  0
  -10.5576    1.6045   -1.2535 H   0  0  0  0  0  0  0  0  0  0  0  0
   -3.9386   -1.4837    1.6662 H   0  0  0  0  0  0  0  0  0  0  0  0
   -1.4952   -1.6598    1.7757 H   0  0  0  0  0  0  0  0  0  0  0  0
    3.0366   -0.3549    1.1068 H   0  0  0  0  0  0  0  0  0  0  0  0
  1  2  1  0
  2  3  1  0
  3  4  1  0
  4  5  2  0
  4  6  1  0
  6  7  2  0
  7  8  1  0
  8  9  2  0
  9 10  1  0
 10 11  1  0
 11 12  1  0
 12 13  2  0
 12 14  1  0
 14 15  2  0
 15 16  1  0
 16 17  2  0
 17 18  1  0
 18 19  1  0
 19 20  2  0
 19 21  1  0
 21 22  2  0
 22 23  1  0
 23 24  2  0
 24 25  1  0
 17 26  1  0
 26 27  2  0
 10 28  2  0
 28  6  1  0
 27 14  1  0
 25 21  1  0
  1 29  1  0
  1 30  1  0
  1 31  1  0
  2 32  1  0
  2 33  1  0
  7 34  1  0
  8 35  1  0
  9 36  1  0
 11 37  1  0
 15 38  1  0
 16 39  1  0
 18 40  1  0
 22 41  1  0
 23 42  1  0
 24 43  1  0
 26 44  1  0
 27 45  1  0
 28 46  1  0
M  END
$$$$
