
     RDKit          3D

 35 36  0  0  0  0  0  0  0  0999 V2000
   -5.5460   -2.0066   -1.5478 C   0  0  0  0  0  0  0  0  0  0  0  0
   -4.3556   -1.1974   -1.1274 C   0  0  0  0  0  0  0  0  0  0  0  0
   -3.9047   -0.1349   -1.9142 C   0  0  0  0  0  0  0  0  0  0  0  0
   -2.8118    0.6432   -1.5108 C   0  0  0  0  0  0  0  0  0  0  0  0
   -2.1494    0.3836   -0.3079 C   0  0  0  0  0  0  0  0  0  0  0  0
   -1.0361    1.1379    0.1367 N   0  0  0  0  0  0  0  0  0  0  0  0
   -0.4258    2.2096   -0.4910 C   0  0  0  0  0  0  0  0  0  0  0  0
   -0.7529    2.7092   -1.5646 O   0  0  0  0  0  0  0  0  0  0  0  0
    0.7594    2.7800    0.2958 C   0  0  0  0  0  0  0  0  0  0  0  0
    1.9484    2.0000    0.1588 O   0  0  0  0  0  0  0  0  0  0  0  0
    2.0105    0.9213    0.9735 C   0  0  0  0  0  0  0  0  0  0  0  0
    1.1758    0.6001    1.8005 O   0  0  0  0  0  0  0  0  0  0  0  0
    3.2438    0.1723    0.6790 C   0  0  0  0  0  0  0  0  0  0  0  0
    4.4689    0.8555    0.7122 C   0  0  0  0  0  0  0  0  0  0  0  0
    5.6504    0.1612    0.4635 C   0  0  0  0  0  0  0  0  0  0  0  0
    7.1542    0.9936    0.5068 Cl  0  0  0  0  0  0  0  0  0  0  0  0
    5.6231   -1.2039    0.1830 C   0  0  0  0  0  0  0  0  0  0  0  0
    4.4019   -1.8824    0.1469 C   0  0  0  0  0  0  0  0  0  0  0  0
    3.2075   -1.1976    0.3950 C   0  0  0  0  0  0  0  0  0  0  0  0
    1.7351   -2.0912    0.2839 Cl  0  0  0  0  0  0  0  0  0  0  0  0
   -2.6211   -0.6753    0.4896 C   0  0  0  0  0  0  0  0  0  0  0  0
   -1.8262   -1.0983    2.1657 Br  0  0  0  0  0  0  0  0  0  0  0  0
   -3.7135   -1.4542    0.0869 C   0  0  0  0  0  0  0  0  0  0  0  0
   -6.4624   -1.5571   -1.1531 H   0  0  0  0  0  0  0  0  0  0  0  0
   -5.6183   -2.0575   -2.6393 H   0  0  0  0  0  0  0  0  0  0  0  0
   -5.4686   -3.0350   -1.1796 H   0  0  0  0  0  0  0  0  0  0  0  0
   -4.3981    0.1008   -2.8554 H   0  0  0  0  0  0  0  0  0  0  0  0
   -2.5057    1.4489   -2.1704 H   0  0  0  0  0  0  0  0  0  0  0  0
   -0.6126    0.8104    1.0087 H   0  0  0  0  0  0  0  0  0  0  0  0
    0.4848    2.9217    1.3485 H   0  0  0  0  0  0  0  0  0  0  0  0
    0.9774    3.7781   -0.1004 H   0  0  0  0  0  0  0  0  0  0  0  0
    4.4995    1.9193    0.9361 H   0  0  0  0  0  0  0  0  0  0  0  0
    6.5462   -1.7452   -0.0118 H   0  0  0  0  0  0  0  0  0  0  0  0
    4.3887   -2.9464   -0.0810 H   0  0  0  0  0  0  0  0  0  0  0  0
   -4.0667   -2.2639    0.7217 H   0  0  0  0  0  0  0  0  0  0  0  0
  1  2  1  0
  2  3  2  0
  3  4  1  0
  4  5  2  0
  5  6  1  0
  6  7  1  0
  7  8  2  0
  7  9  1  0
  9 10  1  0
 10 11  1  0
 11 12  2  0
 11 13  1  0
 13 14  2  0
 14 15  1  0
 15 16  1  0
 15 17  2  0
 17 18  1  0
 18 19  2  0
 19 20  1  0
  5 21  1  0
 21 22  1  0
 21 23  2  0
 23  2  1  0
 19 13  1  0
  1 24  1  0
  1 25  1  0
  1 26  1  0
  3 27  1  0
  4 28  1  0
  6 29  1  0
  9 30  1  0
  9 31  1  0
 14 32  1  0
 17 33  1  0
 18 34  1  0
 23 35  1  0
M  END
$$$$
