
     RDKit          3D

 34 36  0  0  0  0  0  0  0  0999 V2000
    1.5771    1.1931    2.0145 O   0  0  0  0  0  0  0  0  0  0  0  0
    1.0223    0.5638    1.1181 C   0  0  0  0  0  0  0  0  0  0  0  0
    1.8665   -0.3278    0.3175 C   0  0  0  0  0  0  0  0  0  0  0  0
    2.1296   -1.6224    0.7722 C   0  0  0  0  0  0  0  0  0  0  0  0
    2.9904   -2.4436    0.0412 C   0  0  0  0  0  0  0  0  0  0  0  0
    3.5986   -1.9556   -1.1171 C   0  0  0  0  0  0  0  0  0  0  0  0
    4.6600   -2.9701   -2.0141 Cl  0  0  0  0  0  0  0  0  0  0  0  0
    3.3643   -0.6482   -1.5471 C   0  0  0  0  0  0  0  0  0  0  0  0
    2.5031    0.1766   -0.8208 C   0  0  0  0  0  0  0  0  0  0  0  0
   -0.3200    0.6785    0.8404 N   0  0  0  0  0  0  0  0  0  0  0  0
   -1.1187    1.6646    1.5791 C   0  0  0  0  0  0  0  0  0  0  0  0
   -1.4455    2.7457    0.5764 C   0  0  0  0  0  0  0  0  0  0  0  0
   -2.3535    2.2504   -0.2815 C   0  0  0  0  0  0  0  0  0  0  0  0
   -2.5639    0.7980    0.1135 C   0  0  0  0  0  0  0  0  0  0  0  0
   -2.4934    1.0039    1.6377 C   0  0  0  0  0  0  0  0  0  0  0  0
   -1.2435   -0.0236   -0.1695 C   0  0  0  0  0  0  0  0  0  0  0  0
   -0.8711    0.0624   -1.6479 C   0  0  0  0  0  0  0  0  0  0  0  0
   -0.4134    1.2873   -1.9998 F   0  0  0  0  0  0  0  0  0  0  0  0
    0.0873   -0.8148   -2.0094 F   0  0  0  0  0  0  0  0  0  0  0  0
   -1.9442   -0.1907   -2.4361 F   0  0  0  0  0  0  0  0  0  0  0  0
   -1.5013   -1.5082    0.0788 C   0  0  0  0  0  0  0  0  0  0  0  0
   -2.5509   -1.9550   -0.6495 F   0  0  0  0  0  0  0  0  0  0  0  0
   -0.4481   -2.2929   -0.2224 F   0  0  0  0  0  0  0  0  0  0  0  0
   -1.7993   -1.7666    1.3738 F   0  0  0  0  0  0  0  0  0  0  0  0
    1.6731   -1.9909    1.6874 H   0  0  0  0  0  0  0  0  0  0  0  0
    3.1890   -3.4566    0.3818 H   0  0  0  0  0  0  0  0  0  0  0  0
    3.8528   -0.2665   -2.4399 H   0  0  0  0  0  0  0  0  0  0  0  0
    2.3347    1.2026   -1.1395 H   0  0  0  0  0  0  0  0  0  0  0  0
   -0.7080    2.0078    2.5295 H   0  0  0  0  0  0  0  0  0  0  0  0
   -1.0092    3.7334    0.5641 H   0  0  0  0  0  0  0  0  0  0  0  0
   -2.7806    2.7556   -1.1358 H   0  0  0  0  0  0  0  0  0  0  0  0
   -3.4986    0.3646   -0.2467 H   0  0  0  0  0  0  0  0  0  0  0  0
   -3.2811    1.6624    2.0284 H   0  0  0  0  0  0  0  0  0  0  0  0
   -2.5042    0.0826    2.2228 H   0  0  0  0  0  0  0  0  0  0  0  0
  1  2  2  0
  2  3  1  0
  3  4  2  0
  4  5  1  0
  5  6  2  0
  6  7  1  0
  6  8  1  0
  8  9  2  0
  2 10  1  0
 10 11  1  0
 11 12  1  0
 12 13  2  0
 13 14  1  0
 14 15  1  0
 14 16  1  0
 16 17  1  0
 17 18  1  0
 17 19  1  0
 17 20  1  0
 16 21  1  0
 21 22  1  0
 21 23  1  0
 21 24  1  0
  9  3  1  0
 16 10  1  0
 15 11  1  0
  4 25  1  0
  5 26  1  0
  8 27  1  0
  9 28  1  0
 11 29  1  0
 12 30  1  0
 13 31  1  0
 14 32  1  0
 15 33  1  0
 15 34  1  0
M  END
$$$$
