
     RDKit          3D

 50 52  0  0  0  0  0  0  0  0999 V2000
    8.3128   -0.3306    2.1323 C   0  0  0  0  0  0  0  0  0  0  0  0
    7.3094   -0.7238    3.1125 N   0  0  0  0  0  0  0  0  0  0  0  0
    6.2284    0.4326    3.6678 S   0  0  0  0  0  6  0  0  0  0  0  0
    5.6154   -0.1142    4.8571 O   0  0  0  0  0  0  0  0  0  0  0  0
    6.9005    1.7134    3.6713 O   0  0  0  0  0  0  0  0  0  0  0  0
    4.9955    0.4339    2.3887 C   0  0  0  0  0  0  0  0  0  0  0  0
    4.8694    1.5377    1.5400 C   0  0  0  0  0  0  0  0  0  0  0  0
    3.8867    1.5346    0.5451 C   0  0  0  0  0  0  0  0  0  0  0  0
    3.0258    0.4355    0.4092 C   0  0  0  0  0  0  0  0  0  0  0  0
    1.9693    0.3915   -0.6392 C   0  0  0  0  0  0  0  0  0  0  0  0
    1.5260   -0.6805   -1.0415 O   0  0  0  0  0  0  0  0  0  0  0  0
    1.4861    1.6060   -1.0777 N   0  0  0  0  0  0  0  0  0  0  0  0
    0.4095    1.6629   -2.0498 C   0  0  0  0  0  0  0  0  0  0  0  0
   -0.9373    1.4517   -1.3580 C   0  0  0  0  0  0  0  0  0  0  0  0
   -1.6523    2.3862   -1.0071 O   0  0  0  0  0  0  0  0  0  0  0  0
   -1.2404    0.1280   -1.1200 N   0  0  0  0  0  0  0  0  0  0  0  0
   -2.4037   -0.2793   -0.3547 C   0  0  0  0  0  0  0  0  0  0  0  0
   -3.6450   -0.5663   -1.2101 C   0  0  0  0  0  0  0  0  0  0  0  0
   -4.3141    0.7108   -1.7151 C   0  0  0  0  0  0  0  0  0  0  0  0
   -5.4417    0.4028   -2.5489 O   0  0  0  0  0  0  0  0  0  0  0  0
   -6.2328   -0.5656   -1.9907 C   0  0  0  0  0  0  0  0  0  0  0  0
   -7.5108   -0.7181   -2.5265 C   0  0  0  0  0  0  0  0  0  0  0  0
   -8.3787   -1.6740   -1.9967 C   0  0  0  0  0  0  0  0  0  0  0  0
   -7.9659   -2.4781   -0.9330 C   0  0  0  0  0  0  0  0  0  0  0  0
   -6.6819   -2.3326   -0.4042 C   0  0  0  0  0  0  0  0  0  0  0  0
   -5.8115   -1.3860   -0.9418 C   0  0  0  0  0  0  0  0  0  0  0  0
   -4.5624   -1.3109   -0.3837 O   0  0  0  0  0  0  0  0  0  0  0  0
    3.1665   -0.6688    1.2624 C   0  0  0  0  0  0  0  0  0  0  0  0
    4.1453   -0.6680    2.2593 C   0  0  0  0  0  0  0  0  0  0  0  0
    8.7224   -1.2301    1.6620 H   0  0  0  0  0  0  0  0  0  0  0  0
    7.8830    0.2939    1.3451 H   0  0  0  0  0  0  0  0  0  0  0  0
    9.1330    0.2031    2.6222 H   0  0  0  0  0  0  0  0  0  0  0  0
    7.5643   -1.4050    3.8268 H   0  0  0  0  0  0  0  0  0  0  0  0
    5.5309    2.3960    1.6424 H   0  0  0  0  0  0  0  0  0  0  0  0
    3.8220    2.3865   -0.1266 H   0  0  0  0  0  0  0  0  0  0  0  0
    1.6255    2.4266   -0.5011 H   0  0  0  0  0  0  0  0  0  0  0  0
    0.4216    2.6504   -2.5193 H   0  0  0  0  0  0  0  0  0  0  0  0
    0.5567    0.9024   -2.8234 H   0  0  0  0  0  0  0  0  0  0  0  0
   -0.4713   -0.5394   -1.2214 H   0  0  0  0  0  0  0  0  0  0  0  0
   -2.1143   -1.1890    0.1859 H   0  0  0  0  0  0  0  0  0  0  0  0
   -2.6277    0.4745    0.4098 H   0  0  0  0  0  0  0  0  0  0  0  0
   -3.3685   -1.2099   -2.0568 H   0  0  0  0  0  0  0  0  0  0  0  0
   -4.6597    1.3442   -0.8880 H   0  0  0  0  0  0  0  0  0  0  0  0
   -3.6268    1.2965   -2.3319 H   0  0  0  0  0  0  0  0  0  0  0  0
   -7.8330   -0.0853   -3.3482 H   0  0  0  0  0  0  0  0  0  0  0  0
   -9.3776   -1.7876   -2.4097 H   0  0  0  0  0  0  0  0  0  0  0  0
   -8.6419   -3.2209   -0.5171 H   0  0  0  0  0  0  0  0  0  0  0  0
   -6.3568   -2.9638    0.4183 H   0  0  0  0  0  0  0  0  0  0  0  0
    2.5086   -1.5302    1.1570 H   0  0  0  0  0  0  0  0  0  0  0  0
    4.2416   -1.5217    2.9271 H   0  0  0  0  0  0  0  0  0  0  0  0
  1  2  1  0
  2  3  1  0
  3  4  2  0
  3  5  2  0
  3  6  1  0
  6  7  2  0
  7  8  1  0
  8  9  2  0
  9 10  1  0
 10 11  2  0
 10 12  1  0
 12 13  1  0
 13 14  1  0
 14 15  2  0
 14 16  1  0
 16 17  1  0
 17 18  1  0
 18 19  1  0
 19 20  1  0
 20 21  1  0
 21 22  2  0
 22 23  1  0
 23 24  2  0
 24 25  1  0
 25 26  2  0
 26 27  1  0
  9 28  1  0
 28 29  2  0
 29  6  1  0
 27 18  1  0
 26 21  1  0
  1 30  1  0
  1 31  1  0
  1 32  1  0
  2 33  1  0
  7 34  1  0
  8 35  1  0
 12 36  1  0
 13 37  1  0
 13 38  1  0
 16 39  1  0
 17 40  1  0
 17 41  1  0
 18 42  1  0
 19 43  1  0
 19 44  1  0
 22 45  1  0
 23 46  1  0
 24 47  1  0
 25 48  1  0
 28 49  1  0
 29 50  1  0
M  END
$$$$
