
     RDKit          3D

 36 37  0  0  0  0  0  0  0  0999 V2000
   -4.6696   -0.2945    0.1785 C   0  0  0  0  0  0  0  0  0  0  0  0
   -3.4252   -0.6731    0.9773 C   0  0  0  0  0  0  0  0  0  0  0  0
   -2.1801   -0.4067    0.2294 N   0  0  0  0  0  0  0  0  0  0  0  0
   -1.8747    1.0510    0.2043 C   0  0  0  0  0  0  0  0  0  0  0  0
   -1.4401    1.5044   -1.1979 C   0  0  0  0  0  0  0  0  0  0  0  0
   -2.3776    1.0346   -2.1657 O   0  0  0  0  0  0  0  0  0  0  0  0
   -1.0762   -1.1737    0.8492 C   0  0  0  0  0  0  0  0  0  0  0  0
    0.1255   -1.2170   -0.0540 C   0  0  0  0  0  0  0  0  0  0  0  0
    0.1442   -1.8821   -1.2665 C   0  0  0  0  0  0  0  0  0  0  0  0
    1.6396   -1.7693   -2.0661 S   0  0  0  0  0  0  0  0  0  0  0  0
    2.3281   -0.8313   -0.8000 C   0  0  0  0  0  0  0  0  0  0  0  0
    3.6438   -0.3249   -0.7503 C   0  0  0  0  0  0  0  0  0  0  0  0
    4.0582    0.4164    0.3638 C   0  0  0  0  0  0  0  0  0  0  0  0
    5.4453    0.9877    0.4130 C   0  0  0  0  0  0  0  0  0  0  0  0
    3.1565    0.6645    1.3943 C   0  0  0  0  0  0  0  0  0  0  0  0
    1.8517    0.1608    1.3397 C   0  0  0  0  0  0  0  0  0  0  0  0
    1.4106   -0.6051    0.2301 C   0  0  0  0  0  0  0  0  0  0  0  0
   -4.6902   -0.8165   -0.7842 H   0  0  0  0  0  0  0  0  0  0  0  0
   -4.7324    0.7802   -0.0139 H   0  0  0  0  0  0  0  0  0  0  0  0
   -5.5688   -0.5828    0.7330 H   0  0  0  0  0  0  0  0  0  0  0  0
   -3.5121   -1.7475    1.1837 H   0  0  0  0  0  0  0  0  0  0  0  0
   -3.4228   -0.1633    1.9489 H   0  0  0  0  0  0  0  0  0  0  0  0
   -2.7713    1.6311    0.4529 H   0  0  0  0  0  0  0  0  0  0  0  0
   -1.1258    1.3381    0.9519 H   0  0  0  0  0  0  0  0  0  0  0  0
   -0.4507    1.1292   -1.4681 H   0  0  0  0  0  0  0  0  0  0  0  0
   -1.4115    2.5969   -1.2524 H   0  0  0  0  0  0  0  0  0  0  0  0
   -2.5562    0.1126   -1.8906 H   0  0  0  0  0  0  0  0  0  0  0  0
   -1.3852   -2.2176    0.9989 H   0  0  0  0  0  0  0  0  0  0  0  0
   -0.8302   -0.7828    1.8434 H   0  0  0  0  0  0  0  0  0  0  0  0
   -0.6712   -2.4249   -1.7256 H   0  0  0  0  0  0  0  0  0  0  0  0
    4.3275   -0.5143   -1.5741 H   0  0  0  0  0  0  0  0  0  0  0  0
    5.4581    1.9789   -0.0505 H   0  0  0  0  0  0  0  0  0  0  0  0
    6.1533    0.3402   -0.1151 H   0  0  0  0  0  0  0  0  0  0  0  0
    5.7956    1.0755    1.4468 H   0  0  0  0  0  0  0  0  0  0  0  0
    3.4585    1.2545    2.2574 H   0  0  0  0  0  0  0  0  0  0  0  0
    1.1756    0.3708    2.1642 H   0  0  0  0  0  0  0  0  0  0  0  0
  1  2  1  0
  2  3  1  0
  3  4  1  0
  4  5  1  0
  5  6  1  0
  3  7  1  0
  7  8  1  0
  8  9  2  0
  9 10  1  0
 10 11  1  0
 11 12  2  0
 12 13  1  0
 13 14  1  0
 13 15  2  0
 15 16  1  0
 16 17  2  0
 17  8  1  0
 17 11  1  0
  1 18  1  0
  1 19  1  0
  1 20  1  0
  2 21  1  0
  2 22  1  0
  4 23  1  0
  4 24  1  0
  5 25  1  0
  5 26  1  0
  6 27  1  0
  7 28  1  0
  7 29  1  0
  9 30  1  0
 12 31  1  0
 14 32  1  0
 14 33  1  0
 14 34  1  0
 15 35  1  0
 16 36  1  0
M  END
$$$$
