
     RDKit          3D

 38 40  0  0  0  0  0  0  0  0999 V2000
   -2.3796   -0.2341   -2.8169 C   0  0  0  0  0  0  0  0  0  0  0  0
   -2.6141    0.5875   -1.5819 C   0  0  0  0  0  0  0  0  0  0  0  0
   -2.6738    1.9866   -1.7270 C   0  0  0  0  0  0  0  0  0  0  0  0
   -2.9122    2.8103   -0.6306 C   0  0  0  0  0  0  0  0  0  0  0  0
   -2.9653    4.1374   -0.8024 F   0  0  0  0  0  0  0  0  0  0  0  0
   -3.1051    2.2773    0.6343 C   0  0  0  0  0  0  0  0  0  0  0  0
   -3.0516    0.8956    0.8059 C   0  0  0  0  0  0  0  0  0  0  0  0
   -2.7936    0.0484   -0.2914 C   0  0  0  0  0  0  0  0  0  0  0  0
   -2.7435   -1.7085    0.0729 S   0  0  0  0  0  6  0  0  0  0  0  0
   -2.7472   -2.4715   -1.1546 O   0  0  0  0  0  0  0  0  0  0  0  0
   -3.7400   -1.9523    1.0966 O   0  0  0  0  0  0  0  0  0  0  0  0
   -1.2434   -1.8910    0.8328 N   0  0  0  0  0  0  0  0  0  0  0  0
   -0.0675   -1.4878    0.1440 C   0  0  0  0  0  0  0  0  0  0  0  0
    0.3986   -2.2291   -0.9403 C   0  0  0  0  0  0  0  0  0  0  0  0
    1.5310   -1.8088   -1.6384 C   0  0  0  0  0  0  0  0  0  0  0  0
    2.1892   -0.6417   -1.2483 C   0  0  0  0  0  0  0  0  0  0  0  0
    3.2942   -0.2290   -1.9421 O   0  0  0  0  0  0  0  0  0  0  0  0
    1.7271    0.1120   -0.1597 C   0  0  0  0  0  0  0  0  0  0  0  0
    2.5272    1.6236    0.3541 S   0  0  0  0  0  0  0  0  0  0  0  0
    3.6442    1.0397    1.5612 C   0  0  0  0  0  0  0  0  0  0  0  0
    3.5710   -0.1984    2.1500 N   0  0  0  0  0  0  0  0  0  0  0  0
    4.5858   -0.1945    2.9807 C   0  0  0  0  0  0  0  0  0  0  0  0
    5.2274    0.9998    2.9052 N   0  0  0  0  0  0  0  0  0  0  0  0
    4.6343    1.8145    2.0211 N   0  0  0  0  0  0  0  0  0  0  0  0
    0.5883   -0.3197    0.5327 C   0  0  0  0  0  0  0  0  0  0  0  0
   -2.2114    0.4014   -3.6938 H   0  0  0  0  0  0  0  0  0  0  0  0
   -3.2559   -0.8511   -3.0373 H   0  0  0  0  0  0  0  0  0  0  0  0
   -1.4888   -0.8572   -2.7103 H   0  0  0  0  0  0  0  0  0  0  0  0
   -2.5391    2.4548   -2.6995 H   0  0  0  0  0  0  0  0  0  0  0  0
   -3.3000    2.9380    1.4732 H   0  0  0  0  0  0  0  0  0  0  0  0
   -3.2172    0.4826    1.7995 H   0  0  0  0  0  0  0  0  0  0  0  0
   -1.2939   -1.7048    1.8332 H   0  0  0  0  0  0  0  0  0  0  0  0
   -0.1152   -3.1382   -1.2452 H   0  0  0  0  0  0  0  0  0  0  0  0
    1.8794   -2.3992   -2.4805 H   0  0  0  0  0  0  0  0  0  0  0  0
    3.5041   -0.8802   -2.6300 H   0  0  0  0  0  0  0  0  0  0  0  0
    4.8919   -0.9968    3.6366 H   0  0  0  0  0  0  0  0  0  0  0  0
    6.0449    1.3239    3.4101 H   0  0  0  0  0  0  0  0  0  0  0  0
    0.2202    0.2602    1.3746 H   0  0  0  0  0  0  0  0  0  0  0  0
  1  2  1  0
  2  3  2  0
  3  4  1  0
  4  5  1  0
  4  6  2  0
  6  7  1  0
  7  8  2  0
  8  9  1  0
  9 10  2  0
  9 11  2  0
  9 12  1  0
 12 13  1  0
 13 14  2  0
 14 15  1  0
 15 16  2  0
 16 17  1  0
 16 18  1  0
 18 19  1  0
 19 20  1  0
 20 21  1  0
 21 22  2  0
 22 23  1  0
 23 24  1  0
 18 25  2  0
  8  2  1  0
 25 13  1  0
 24 20  2  0
  1 26  1  0
  1 27  1  0
  1 28  1  0
  3 29  1  0
  6 30  1  0
  7 31  1  0
 12 32  1  0
 14 33  1  0
 15 34  1  0
 17 35  1  0
 22 36  1  0
 23 37  1  0
 25 38  1  0
M  END
$$$$
