
     RDKit          3D

 57 60  0  0  0  0  0  0  0  0999 V2000
   -6.2809   -0.8178    5.0672 C   0  0  0  0  0  0  0  0  0  0  0  0
   -6.3966    0.1203    4.0038 O   0  0  0  0  0  0  0  0  0  0  0  0
   -5.5308   -0.0240    2.9541 C   0  0  0  0  0  0  0  0  0  0  0  0
   -4.5322   -0.9896    2.8439 C   0  0  0  0  0  0  0  0  0  0  0  0
   -3.7091   -1.0289    1.7126 C   0  0  0  0  0  0  0  0  0  0  0  0
   -3.8795   -0.1036    0.6833 C   0  0  0  0  0  0  0  0  0  0  0  0
   -3.0935   -0.0768   -0.4904 N   0  0  0  0  0  0  0  0  0  0  0  0
   -2.0307   -0.8930   -0.8310 C   0  0  0  0  0  0  0  0  0  0  0  0
   -1.5903   -1.8207   -0.1570 O   0  0  0  0  0  0  0  0  0  0  0  0
   -1.4208   -0.5441   -2.1763 C   0  0  0  0  0  0  0  0  0  0  0  0
   -0.0353   -0.1198   -2.0446 N   0  0  0  0  0  0  0  0  0  0  0  0
    1.0426   -0.9277   -2.2907 C   0  0  0  0  0  0  0  0  0  0  0  0
    2.1841   -0.1775   -2.0981 C   0  0  0  0  0  0  0  0  0  0  0  0
    3.8101   -0.7642   -2.2172 S   0  0  0  0  0  6  0  0  0  0  0  0
    3.6708   -2.0714   -2.8306 O   0  0  0  0  0  0  0  0  0  0  0  0
    4.5366    0.3179   -2.8518 O   0  0  0  0  0  0  0  0  0  0  0  0
    4.2816   -0.9251   -0.4983 C   0  0  0  0  0  0  0  0  0  0  0  0
    5.6830   -1.4701   -0.4162 C   0  0  0  0  0  0  0  0  0  0  0  0
    6.7883   -0.6087   -0.4682 C   0  0  0  0  0  0  0  0  0  0  0  0
    8.0857   -1.1175   -0.3938 C   0  0  0  0  0  0  0  0  0  0  0  0
    8.2918   -2.4898   -0.2680 C   0  0  0  0  0  0  0  0  0  0  0  0
    7.2014   -3.3554   -0.2219 C   0  0  0  0  0  0  0  0  0  0  0  0
    5.9029   -2.8500   -0.2973 C   0  0  0  0  0  0  0  0  0  0  0  0
    1.7897    1.1411   -1.7311 C   0  0  0  0  0  0  0  0  0  0  0  0
    2.4780    2.3341   -1.4186 C   0  0  0  0  0  0  0  0  0  0  0  0
    1.7604    3.4826   -1.0715 C   0  0  0  0  0  0  0  0  0  0  0  0
    0.3716    3.4615   -1.0308 C   0  0  0  0  0  0  0  0  0  0  0  0
   -0.3382    2.2988   -1.3409 C   0  0  0  0  0  0  0  0  0  0  0  0
    0.3881    1.1484   -1.6923 C   0  0  0  0  0  0  0  0  0  0  0  0
   -4.8880    0.8761    0.7914 C   0  0  0  0  0  0  0  0  0  0  0  0
   -4.9767    1.7481   -0.2715 O   0  0  0  0  0  0  0  0  0  0  0  0
   -5.9937    2.7420   -0.2029 C   0  0  0  0  0  0  0  0  0  0  0  0
   -5.7040    0.9076    1.9255 C   0  0  0  0  0  0  0  0  0  0  0  0
   -5.3018   -0.7464    5.5525 H   0  0  0  0  0  0  0  0  0  0  0  0
   -7.0417   -0.5711    5.8137 H   0  0  0  0  0  0  0  0  0  0  0  0
   -6.4765   -1.8369    4.7169 H   0  0  0  0  0  0  0  0  0  0  0  0
   -4.3612   -1.7305    3.6182 H   0  0  0  0  0  0  0  0  0  0  0  0
   -2.9444   -1.7981    1.6686 H   0  0  0  0  0  0  0  0  0  0  0  0
   -3.3672    0.6663   -1.1267 H   0  0  0  0  0  0  0  0  0  0  0  0
   -1.9681    0.2529   -2.6892 H   0  0  0  0  0  0  0  0  0  0  0  0
   -1.4560   -1.4312   -2.8177 H   0  0  0  0  0  0  0  0  0  0  0  0
    0.9221   -1.9683   -2.5701 H   0  0  0  0  0  0  0  0  0  0  0  0
    4.2208    0.0583   -0.0237 H   0  0  0  0  0  0  0  0  0  0  0  0
    3.5701   -1.5973   -0.0091 H   0  0  0  0  0  0  0  0  0  0  0  0
    6.6491    0.4652   -0.5793 H   0  0  0  0  0  0  0  0  0  0  0  0
    8.9365   -0.4430   -0.4410 H   0  0  0  0  0  0  0  0  0  0  0  0
    9.3026   -2.8853   -0.2147 H   0  0  0  0  0  0  0  0  0  0  0  0
    7.3622   -4.4271   -0.1345 H   0  0  0  0  0  0  0  0  0  0  0  0
    5.0650   -3.5444   -0.2728 H   0  0  0  0  0  0  0  0  0  0  0  0
    3.5637    2.3768   -1.4595 H   0  0  0  0  0  0  0  0  0  0  0  0
    2.2960    4.3996   -0.8373 H   0  0  0  0  0  0  0  0  0  0  0  0
   -0.1710    4.3637   -0.7576 H   0  0  0  0  0  0  0  0  0  0  0  0
   -1.4220    2.3039   -1.3031 H   0  0  0  0  0  0  0  0  0  0  0  0
   -5.8321    3.4143    0.6463 H   0  0  0  0  0  0  0  0  0  0  0  0
   -5.9349    3.3419   -1.1163 H   0  0  0  0  0  0  0  0  0  0  0  0
   -6.9887    2.2865   -0.1680 H   0  0  0  0  0  0  0  0  0  0  0  0
   -6.4889    1.6472    2.0451 H   0  0  0  0  0  0  0  0  0  0  0  0
  1  2  1  0
  2  3  1  0
  3  4  2  0
  4  5  1  0
  5  6  2  0
  6  7  1  0
  7  8  1  0
  8  9  2  0
  8 10  1  0
 10 11  1  0
 11 12  1  0
 12 13  2  0
 13 14  1  0
 14 15  2  0
 14 16  2  0
 14 17  1  0
 17 18  1  0
 18 19  2  0
 19 20  1  0
 20 21  2  0
 21 22  1  0
 22 23  2  0
 13 24  1  0
 24 25  2  0
 25 26  1  0
 26 27  2  0
 27 28  1  0
 28 29  2  0
  6 30  1  0
 30 31  1  0
 31 32  1  0
 30 33  2  0
 33  3  1  0
 29 11  1  0
 23 18  1  0
 29 24  1  0
  1 34  1  0
  1 35  1  0
  1 36  1  0
  4 37  1  0
  5 38  1  0
  7 39  1  0
 10 40  1  0
 10 41  1  0
 12 42  1  0
 17 43  1  0
 17 44  1  0
 19 45  1  0
 20 46  1  0
 21 47  1  0
 22 48  1  0
 23 49  1  0
 25 50  1  0
 26 51  1  0
 27 52  1  0
 28 53  1  0
 32 54  1  0
 32 55  1  0
 32 56  1  0
 33 57  1  0
M  END
$$$$
