
     RDKit          3D

 50 53  0  0  0  0  0  0  0  0999 V2000
    7.6916    2.3477    2.6744 C   0  0  0  0  0  0  0  0  0  0  0  0
    6.3673    1.6817    2.3471 C   0  0  0  0  0  0  0  0  0  0  0  0
    6.4124    1.2615    0.9843 O   0  0  0  0  0  0  0  0  0  0  0  0
    5.2907    0.6984    0.4459 C   0  0  0  0  0  0  0  0  0  0  0  0
    4.1342    0.3807    1.1638 C   0  0  0  0  0  0  0  0  0  0  0  0
    3.0380   -0.2201    0.5246 C   0  0  0  0  0  0  0  0  0  0  0  0
    3.0819   -0.5078   -0.8472 C   0  0  0  0  0  0  0  0  0  0  0  0
    1.9426   -1.1594   -1.5527 C   0  0  0  0  0  0  0  0  0  0  0  0
    2.2072   -1.9381   -2.4594 O   0  0  0  0  0  0  0  0  0  0  0  0
    0.6867   -0.7797   -1.1154 N   0  0  0  0  0  0  0  0  0  0  0  0
   -0.5594   -1.2518   -1.5846 C   0  0  0  0  0  0  0  0  0  0  0  0
   -0.7021   -2.2463   -2.5525 C   0  0  0  0  0  0  0  0  0  0  0  0
   -1.9724   -2.6531   -2.9695 C   0  0  0  0  0  0  0  0  0  0  0  0
   -3.1139   -2.0755   -2.4160 C   0  0  0  0  0  0  0  0  0  0  0  0
   -2.9946   -1.0862   -1.4352 C   0  0  0  0  0  0  0  0  0  0  0  0
   -4.2022   -0.4903   -0.8318 C   0  0  0  0  0  0  0  0  0  0  0  0
   -4.4395   -0.7048    0.4729 C   0  0  0  0  0  0  0  0  0  0  0  0
   -5.6219   -0.1506    1.1107 C   0  0  0  0  0  0  0  0  0  0  0  0
   -5.8979   -0.3482    2.4656 C   0  0  0  0  0  0  0  0  0  0  0  0
   -7.0500    0.2060    3.0332 C   0  0  0  0  0  0  0  0  0  0  0  0
   -7.9296    0.9574    2.2505 C   0  0  0  0  0  0  0  0  0  0  0  0
   -7.6604    1.1571    0.8980 C   0  0  0  0  0  0  0  0  0  0  0  0
   -6.5091    0.5996    0.3470 C   0  0  0  0  0  0  0  0  0  0  0  0
   -6.2722    0.8221   -1.0204 O   0  0  0  0  0  0  0  0  0  0  0  0
   -5.1504    0.3074   -1.6637 C   0  0  0  0  0  0  0  0  0  0  0  0
   -4.9606    0.5120   -2.8582 O   0  0  0  0  0  0  0  0  0  0  0  0
   -1.7125   -0.6789   -1.0280 C   0  0  0  0  0  0  0  0  0  0  0  0
    4.2365   -0.2173   -1.5763 C   0  0  0  0  0  0  0  0  0  0  0  0
    5.3145    0.3876   -0.9202 C   0  0  0  0  0  0  0  0  0  0  0  0
    6.4889    0.7002   -1.7059 N   0  0  0  0  0  4  0  0  0  0  0  0
    6.7047    1.8954   -1.9489 O   0  0  0  0  0  0  0  0  0  0  0  0
    7.1595   -0.2569   -2.1154 O   0  0  0  0  0  1  0  0  0  0  0  0
    7.8682    3.2011    2.0118 H   0  0  0  0  0  0  0  0  0  0  0  0
    8.5216    1.6498    2.5228 H   0  0  0  0  0  0  0  0  0  0  0  0
    7.7077    2.6953    3.7110 H   0  0  0  0  0  0  0  0  0  0  0  0
    6.2288    0.8163    3.0050 H   0  0  0  0  0  0  0  0  0  0  0  0
    5.5561    2.4035    2.4970 H   0  0  0  0  0  0  0  0  0  0  0  0
    4.0558    0.5695    2.2306 H   0  0  0  0  0  0  0  0  0  0  0  0
    2.1715   -0.4913    1.1240 H   0  0  0  0  0  0  0  0  0  0  0  0
    0.6388   -0.0307   -0.4381 H   0  0  0  0  0  0  0  0  0  0  0  0
    0.1568   -2.7254   -3.0127 H   0  0  0  0  0  0  0  0  0  0  0  0
   -2.0677   -3.4201   -3.7346 H   0  0  0  0  0  0  0  0  0  0  0  0
   -4.0929   -2.4012   -2.7617 H   0  0  0  0  0  0  0  0  0  0  0  0
   -3.7692   -1.3023    1.0836 H   0  0  0  0  0  0  0  0  0  0  0  0
   -5.2276   -0.9320    3.0916 H   0  0  0  0  0  0  0  0  0  0  0  0
   -7.2634    0.0505    4.0885 H   0  0  0  0  0  0  0  0  0  0  0  0
   -8.8246    1.3851    2.6958 H   0  0  0  0  0  0  0  0  0  0  0  0
   -8.3392    1.7387    0.2810 H   0  0  0  0  0  0  0  0  0  0  0  0
   -1.6225    0.1008   -0.2755 H   0  0  0  0  0  0  0  0  0  0  0  0
    4.2933   -0.4572   -2.6368 H   0  0  0  0  0  0  0  0  0  0  0  0
  1  2  1  0
  2  3  1  0
  3  4  1  0
  4  5  2  0
  5  6  1  0
  6  7  2  0
  7  8  1  0
  8  9  2  0
  8 10  1  0
 10 11  1  0
 11 12  2  0
 12 13  1  0
 13 14  2  0
 14 15  1  0
 15 16  1  0
 16 17  2  0
 17 18  1  0
 18 19  2  0
 19 20  1  0
 20 21  2  0
 21 22  1  0
 22 23  2  0
 23 24  1  0
 24 25  1  0
 25 26  2  0
 15 27  2  0
  7 28  1  0
 28 29  2  0
 29 30  1  0
 30 31  2  0
 30 32  1  0
 29  4  1  0
 27 11  1  0
 25 16  1  0
 23 18  1  0
  1 33  1  0
  1 34  1  0
  1 35  1  0
  2 36  1  0
  2 37  1  0
  5 38  1  0
  6 39  1  0
 10 40  1  0
 12 41  1  0
 13 42  1  0
 14 43  1  0
 17 44  1  0
 19 45  1  0
 20 46  1  0
 21 47  1  0
 22 48  1  0
 27 49  1  0
 28 50  1  0
M  CHG  2  30   1  32  -1
M  END
$$$$
