
     RDKit          3D

 48 51  0  0  0  0  0  0  0  0999 V2000
   -2.2618   -0.9670   -2.2264 C   0  0  0  0  0  0  0  0  0  0  0  0
   -1.5568   -2.1041   -1.5064 C   0  0  0  0  0  0  0  0  0  0  0  0
   -1.1892   -1.7626   -0.1510 N   0  0  0  0  0  0  0  0  0  0  0  0
   -1.9217   -2.0047    0.9814 C   0  0  0  0  0  0  0  0  0  0  0  0
   -3.5044   -2.6985    0.9968 S   0  0  0  0  0  0  0  0  0  0  0  0
   -4.3532   -1.5155    2.0903 C   0  0  0  0  0  0  0  0  0  0  0  0
   -4.5989   -0.1890    1.4085 C   0  0  0  0  0  0  0  0  0  0  0  0
   -3.7129    0.8845    1.6012 C   0  0  0  0  0  0  0  0  0  0  0  0
   -3.9199    2.0987    0.9457 C   0  0  0  0  0  0  0  0  0  0  0  0
   -5.0112    2.2421    0.0984 C   0  0  0  0  0  0  0  0  0  0  0  0
   -5.2077    3.4063   -0.5341 F   0  0  0  0  0  0  0  0  0  0  0  0
   -5.9004    1.1940   -0.1072 C   0  0  0  0  0  0  0  0  0  0  0  0
   -5.6948   -0.0224    0.5454 C   0  0  0  0  0  0  0  0  0  0  0  0
   -1.2669   -1.5899    2.0370 N   0  0  0  0  0  0  0  0  0  0  0  0
   -0.0943   -1.0355    1.5992 N   0  0  0  0  0  0  0  0  0  0  0  0
   -0.0531   -1.1138    0.2830 C   0  0  0  0  0  0  0  0  0  0  0  0
    1.1501   -0.5472   -0.5322 C   0  0  0  0  0  0  0  0  0  0  0  0
    1.4000   -0.5610   -1.9071 C   0  0  0  0  0  0  0  0  0  0  0  0
    2.5592    0.0148   -2.2151 N   0  0  0  0  0  0  0  0  0  0  0  0
    3.1438    0.2829   -1.0117 N   0  0  0  0  0  0  0  0  0  0  0  0
    4.5409    0.5796   -0.9890 C   0  0  0  0  0  0  0  0  0  0  0  0
    5.3233    0.3999    0.1586 C   0  0  0  0  0  0  0  0  0  0  0  0
    6.6932    0.6829    0.1282 C   0  0  0  0  0  0  0  0  0  0  0  0
    7.2947    1.1302   -1.0460 C   0  0  0  0  0  0  0  0  0  0  0  0
    6.5316    1.2854   -2.1997 C   0  0  0  0  0  0  0  0  0  0  0  0
    5.1637    1.0038   -2.1757 C   0  0  0  0  0  0  0  0  0  0  0  0
    2.2187    0.1525    0.0072 C   0  0  0  0  0  0  0  0  0  0  0  0
    2.3973    0.7398    1.3439 C   0  0  0  0  0  0  0  0  0  0  0  0
    2.8855   -0.1573    2.2344 F   0  0  0  0  0  0  0  0  0  0  0  0
    1.2408    1.2344    1.8527 F   0  0  0  0  0  0  0  0  0  0  0  0
    3.2525    1.7957    1.3412 F   0  0  0  0  0  0  0  0  0  0  0  0
   -1.6402   -0.0669   -2.2631 H   0  0  0  0  0  0  0  0  0  0  0  0
   -3.1976   -0.7010   -1.7243 H   0  0  0  0  0  0  0  0  0  0  0  0
   -2.4998   -1.2594   -3.2537 H   0  0  0  0  0  0  0  0  0  0  0  0
   -2.1986   -2.9908   -1.4861 H   0  0  0  0  0  0  0  0  0  0  0  0
   -0.6536   -2.4144   -2.0372 H   0  0  0  0  0  0  0  0  0  0  0  0
   -5.3156   -1.9526    2.3805 H   0  0  0  0  0  0  0  0  0  0  0  0
   -3.7909   -1.3794    3.0211 H   0  0  0  0  0  0  0  0  0  0  0  0
   -2.8495    0.7767    2.2580 H   0  0  0  0  0  0  0  0  0  0  0  0
   -3.2362    2.9290    1.0911 H   0  0  0  0  0  0  0  0  0  0  0  0
   -6.7454    1.3306   -0.7743 H   0  0  0  0  0  0  0  0  0  0  0  0
   -6.3909   -0.8414    0.3753 H   0  0  0  0  0  0  0  0  0  0  0  0
    0.8046   -0.9446   -2.7227 H   0  0  0  0  0  0  0  0  0  0  0  0
    4.9212    0.0067    1.0861 H   0  0  0  0  0  0  0  0  0  0  0  0
    7.2941    0.5430    1.0240 H   0  0  0  0  0  0  0  0  0  0  0  0
    8.3596    1.3475   -1.0640 H   0  0  0  0  0  0  0  0  0  0  0  0
    6.9991    1.6240   -3.1208 H   0  0  0  0  0  0  0  0  0  0  0  0
    4.5916    1.1340   -3.0931 H   0  0  0  0  0  0  0  0  0  0  0  0
  1  2  1  0
  2  3  1  0
  3  4  1  0
  4  5  1  0
  5  6  1  0
  6  7  1  0
  7  8  2  0
  8  9  1  0
  9 10  2  0
 10 11  1  0
 10 12  1  0
 12 13  2  0
  4 14  2  0
 14 15  1  0
 15 16  2  0
 16 17  1  0
 17 18  1  0
 18 19  2  0
 19 20  1  0
 20 21  1  0
 21 22  2  0
 22 23  1  0
 23 24  2  0
 24 25  1  0
 25 26  2  0
 20 27  1  0
 27 28  1  0
 28 29  1  0
 28 30  1  0
 28 31  1  0
 16  3  1  0
 27 17  2  0
 13  7  1  0
 26 21  1  0
  1 32  1  0
  1 33  1  0
  1 34  1  0
  2 35  1  0
  2 36  1  0
  6 37  1  0
  6 38  1  0
  8 39  1  0
  9 40  1  0
 12 41  1  0
 13 42  1  0
 18 43  1  0
 22 44  1  0
 23 45  1  0
 24 46  1  0
 25 47  1  0
 26 48  1  0
M  END
$$$$
