
     RDKit          3D

 39 42  0  0  0  0  0  0  0  0999 V2000
    5.9079    1.3308   -0.6432 C   0  0  0  0  0  0  0  0  0  0  0  0
    5.7664    0.8446    0.6679 C   0  0  0  0  0  0  0  0  0  0  0  0
    4.5467    0.3242    1.1129 C   0  0  0  0  0  0  0  0  0  0  0  0
    3.4803    0.2993    0.2301 C   0  0  0  0  0  0  0  0  0  0  0  0
    3.6294    0.7896   -1.0857 C   0  0  0  0  0  0  0  0  0  0  0  0
    4.8334    1.3064   -1.5345 C   0  0  0  0  0  0  0  0  0  0  0  0
    2.3270    0.6525   -1.8473 C   0  0  0  0  0  0  0  0  0  0  0  0
    1.4188    0.0264   -0.8080 C   0  0  0  0  0  0  0  0  0  0  0  0
    0.0861   -0.3316   -0.9412 C   0  0  0  0  0  0  0  0  0  0  0  0
   -0.5675   -0.8993    0.1641 C   0  0  0  0  0  0  0  0  0  0  0  0
   -2.0213   -1.3190    0.0605 C   0  0  0  0  0  0  0  0  0  0  0  0
   -2.8804   -0.7090    1.0889 N   0  0  0  0  0  0  0  0  0  0  0  0
   -3.0261    0.7553    0.9247 C   0  0  0  0  0  0  0  0  0  0  0  0
   -3.9242    1.1691   -0.2533 C   0  0  0  0  0  0  0  0  0  0  0  0
   -5.2196    0.5631   -0.1623 O   0  0  0  0  0  0  0  0  0  0  0  0
   -5.1128   -0.8637   -0.0967 C   0  0  0  0  0  0  0  0  0  0  0  0
   -4.2325   -1.3089    1.0839 C   0  0  0  0  0  0  0  0  0  0  0  0
    0.1439   -1.0984    1.3703 C   0  0  0  0  0  0  0  0  0  0  0  0
    1.4891   -0.7330    1.4942 C   0  0  0  0  0  0  0  0  0  0  0  0
    2.1212   -0.1703    0.4000 C   0  0  0  0  0  0  0  0  0  0  0  0
    6.8667    1.7306   -0.9654 H   0  0  0  0  0  0  0  0  0  0  0  0
    6.6171    0.8738    1.3449 H   0  0  0  0  0  0  0  0  0  0  0  0
    4.4475   -0.0484    2.1266 H   0  0  0  0  0  0  0  0  0  0  0  0
    4.9432    1.6819   -2.5462 H   0  0  0  0  0  0  0  0  0  0  0  0
    2.4492   -0.0142   -2.7059 H   0  0  0  0  0  0  0  0  0  0  0  0
    1.9500    1.6340   -2.1490 H   0  0  0  0  0  0  0  0  0  0  0  0
   -0.4330   -0.1721   -1.8809 H   0  0  0  0  0  0  0  0  0  0  0  0
   -2.3955   -1.1196   -0.9505 H   0  0  0  0  0  0  0  0  0  0  0  0
   -2.0318   -2.4112    0.1767 H   0  0  0  0  0  0  0  0  0  0  0  0
   -3.4777    1.1383    1.8494 H   0  0  0  0  0  0  0  0  0  0  0  0
   -2.0517    1.2493    0.8454 H   0  0  0  0  0  0  0  0  0  0  0  0
   -3.4735    0.9124   -1.2184 H   0  0  0  0  0  0  0  0  0  0  0  0
   -4.0697    2.2542   -0.2393 H   0  0  0  0  0  0  0  0  0  0  0  0
   -6.1245   -1.2623    0.0300 H   0  0  0  0  0  0  0  0  0  0  0  0
   -4.7306   -1.2400   -1.0523 H   0  0  0  0  0  0  0  0  0  0  0  0
   -4.7267   -1.0055    2.0161 H   0  0  0  0  0  0  0  0  0  0  0  0
   -4.1697   -2.4029    1.1168 H   0  0  0  0  0  0  0  0  0  0  0  0
   -0.3679   -1.5365    2.2260 H   0  0  0  0  0  0  0  0  0  0  0  0
    2.0130   -0.8899    2.4307 H   0  0  0  0  0  0  0  0  0  0  0  0
  1  2  2  0
  2  3  1  0
  3  4  2  0
  4  5  1  0
  5  6  2  0
  5  7  1  0
  7  8  1  0
  8  9  2  0
  9 10  1  0
 10 11  1  0
 11 12  1  0
 12 13  1  0
 13 14  1  0
 14 15  1  0
 15 16  1  0
 16 17  1  0
 10 18  2  0
 18 19  1  0
 19 20  2  0
  6  1  1  0
 20  8  1  0
 20  4  1  0
 17 12  1  0
  1 21  1  0
  2 22  1  0
  3 23  1  0
  6 24  1  0
  7 25  1  0
  7 26  1  0
  9 27  1  0
 11 28  1  0
 11 29  1  0
 13 30  1  0
 13 31  1  0
 14 32  1  0
 14 33  1  0
 16 34  1  0
 16 35  1  0
 17 36  1  0
 17 37  1  0
 18 38  1  0
 19 39  1  0
M  END
$$$$
