
     RDKit          3D

 59 62  0  0  0  0  0  0  0  0999 V2000
    4.0505   -4.7164   -0.3111 C   0  0  0  0  0  0  0  0  0  0  0  0
    2.9013   -3.8824   -0.8484 C   0  0  0  0  0  0  0  0  0  0  0  0
    3.3743   -2.6292   -1.3414 O   0  0  0  0  0  0  0  0  0  0  0  0
    3.5054   -1.6172   -0.3447 C   0  0  0  0  0  0  0  0  0  0  0  0
    2.1878   -0.8778   -0.1451 C   0  0  0  0  0  0  0  0  0  0  0  0
    1.7209   -0.2060   -1.4391 C   0  0  0  0  0  0  0  0  0  0  0  0
    0.3932    0.4090   -1.2426 N   0  0  0  0  0  0  0  0  0  0  0  0
   -0.7813   -0.3503   -1.4047 C   0  0  0  0  0  0  0  0  0  0  0  0
   -0.7922   -1.6192   -1.6774 N   0  0  0  0  0  0  0  0  0  0  0  0
   -2.1092    0.3137   -1.2452 C   0  0  0  0  0  0  0  0  0  0  0  0
   -3.6145   -0.4933   -1.5143 S   0  0  0  0  0  6  0  0  0  0  0  0
   -3.6822   -0.9931   -2.8773 O   0  0  0  0  0  0  0  0  0  0  0  0
   -4.7079    0.3379   -1.0274 O   0  0  0  0  0  0  0  0  0  0  0  0
   -3.5807   -1.8919   -0.4078 C   0  0  0  0  0  0  0  0  0  0  0  0
   -3.4524   -3.1861   -0.9152 C   0  0  0  0  0  0  0  0  0  0  0  0
   -3.4587   -4.2723   -0.0385 C   0  0  0  0  0  0  0  0  0  0  0  0
   -3.6178   -4.0734    1.3400 C   0  0  0  0  0  0  0  0  0  0  0  0
   -3.5942   -5.2426    2.2803 C   0  0  0  0  0  0  0  0  0  0  0  0
   -3.7502   -2.7687    1.8353 C   0  0  0  0  0  0  0  0  0  0  0  0
   -3.7431   -1.6775    0.9647 C   0  0  0  0  0  0  0  0  0  0  0  0
   -2.1047    1.6136   -0.9082 C   0  0  0  0  0  0  0  0  0  0  0  0
   -0.8740    2.3514   -0.6742 C   0  0  0  0  0  0  0  0  0  0  0  0
   -0.9448    3.7781   -0.2469 C   0  0  0  0  0  0  0  0  0  0  0  0
   -2.0424    4.3134   -0.0790 O   0  0  0  0  0  0  0  0  0  0  0  0
    0.2674    4.4168   -0.0563 N   0  0  0  0  0  0  0  0  0  0  0  0
    0.2842    5.7522    0.3344 C   0  0  0  0  0  0  0  0  0  0  0  0
    1.4290    6.4217    0.5422 C   0  0  0  0  0  0  0  0  0  0  0  0
    1.4754    7.8589    0.9620 C   0  0  0  0  0  0  0  0  0  0  0  0
    2.6865    5.7339    0.3548 C   0  0  0  0  0  0  0  0  0  0  0  0
    2.7139    4.4493   -0.0190 C   0  0  0  0  0  0  0  0  0  0  0  0
    1.4399    3.7139   -0.2476 C   0  0  0  0  0  0  0  0  0  0  0  0
    1.4995    2.4720   -0.6069 N   0  0  0  0  0  0  0  0  0  0  0  0
    0.3368    1.7707   -0.8360 C   0  0  0  0  0  0  0  0  0  0  0  0
    3.7000   -5.7075   -0.0091 H   0  0  0  0  0  0  0  0  0  0  0  0
    4.5205   -4.2377    0.5532 H   0  0  0  0  0  0  0  0  0  0  0  0
    4.8283   -4.8339   -1.0727 H   0  0  0  0  0  0  0  0  0  0  0  0
    2.4472   -4.4076   -1.6951 H   0  0  0  0  0  0  0  0  0  0  0  0
    2.1222   -3.7452   -0.0912 H   0  0  0  0  0  0  0  0  0  0  0  0
    3.8620   -2.0374    0.6018 H   0  0  0  0  0  0  0  0  0  0  0  0
    4.2696   -0.9149   -0.6951 H   0  0  0  0  0  0  0  0  0  0  0  0
    1.4192   -1.5759    0.2047 H   0  0  0  0  0  0  0  0  0  0  0  0
    2.3122   -0.1251    0.6423 H   0  0  0  0  0  0  0  0  0  0  0  0
    1.6882   -0.9156   -2.2735 H   0  0  0  0  0  0  0  0  0  0  0  0
    2.4605    0.5403   -1.7562 H   0  0  0  0  0  0  0  0  0  0  0  0
    0.1462   -2.0058   -1.7694 H   0  0  0  0  0  0  0  0  0  0  0  0
   -3.3296   -3.3535   -1.9831 H   0  0  0  0  0  0  0  0  0  0  0  0
   -3.3412   -5.2766   -0.4399 H   0  0  0  0  0  0  0  0  0  0  0  0
   -4.0050   -6.1375    1.8009 H   0  0  0  0  0  0  0  0  0  0  0  0
   -4.2026   -5.0423    3.1685 H   0  0  0  0  0  0  0  0  0  0  0  0
   -2.5664   -5.4489    2.5943 H   0  0  0  0  0  0  0  0  0  0  0  0
   -3.8706   -2.5972    2.9029 H   0  0  0  0  0  0  0  0  0  0  0  0
   -3.8753   -0.6734    1.3603 H   0  0  0  0  0  0  0  0  0  0  0  0
   -3.0365    2.1661   -0.7962 H   0  0  0  0  0  0  0  0  0  0  0  0
   -0.6836    6.2321    0.4642 H   0  0  0  0  0  0  0  0  0  0  0  0
    1.9899    7.9626    1.9234 H   0  0  0  0  0  0  0  0  0  0  0  0
    2.0067    8.4607    0.2169 H   0  0  0  0  0  0  0  0  0  0  0  0
    0.4717    8.2825    1.0759 H   0  0  0  0  0  0  0  0  0  0  0  0
    3.6121    6.2771    0.5213 H   0  0  0  0  0  0  0  0  0  0  0  0
    3.6382    3.9059   -0.1696 H   0  0  0  0  0  0  0  0  0  0  0  0
  1  2  1  0
  2  3  1  0
  3  4  1  0
  4  5  1  0
  5  6  1  0
  6  7  1  0
  7  8  1  0
  8  9  2  3
  8 10  1  0
 10 11  1  0
 11 12  2  0
 11 13  2  0
 11 14  1  0
 14 15  2  0
 15 16  1  0
 16 17  2  0
 17 18  1  0
 17 19  1  0
 19 20  2  0
 10 21  2  0
 21 22  1  0
 22 23  1  0
 23 24  2  0
 23 25  1  0
 25 26  1  0
 26 27  2  0
 27 28  1  0
 27 29  1  0
 29 30  2  0
 30 31  1  0
 31 32  2  0
 32 33  1  0
 33  7  1  0
 20 14  1  0
 33 22  2  0
 31 25  1  0
  1 34  1  0
  1 35  1  0
  1 36  1  0
  2 37  1  0
  2 38  1  0
  4 39  1  0
  4 40  1  0
  5 41  1  0
  5 42  1  0
  6 43  1  0
  6 44  1  0
  9 45  1  0
 15 46  1  0
 16 47  1  0
 18 48  1  0
 18 49  1  0
 18 50  1  0
 19 51  1  0
 20 52  1  0
 21 53  1  0
 26 54  1  0
 28 55  1  0
 28 56  1  0
 28 57  1  0
 29 58  1  0
 30 59  1  0
M  END
$$$$
