
     RDKit          3D

 84 89  0  0  0  0  0  0  0  0999 V2000
    6.4213   -0.8435   -3.8588 C   0  0  0  0  0  0  0  0  0  0  0  0
    7.4106   -1.2414   -2.9091 O   0  0  0  0  0  0  0  0  0  0  0  0
    6.8985   -1.7813   -1.7653 C   0  0  0  0  0  0  0  0  0  0  0  0
    5.7078   -1.9367   -1.5294 O   0  0  0  0  0  0  0  0  0  0  0  0
    8.0145   -2.1719   -0.8298 C   0  0  0  0  0  0  0  0  0  0  0  0
    8.6557   -0.9576   -0.1592 C   0  0  0  0  0  0  0  0  0  0  0  0
    7.8695   -0.4607    1.0647 C   0  0  0  0  0  0  0  0  0  0  0  0
    7.5669    1.0418    1.0283 C   0  0  0  0  0  0  0  0  0  0  0  0
    6.5257    1.4568   -0.0168 C   0  0  0  0  0  0  0  0  0  0  0  0
    5.1080    0.9854    0.3256 C   0  0  0  0  0  0  0  0  0  0  0  0
    4.1192    1.3653   -0.7821 C   0  0  0  0  0  0  0  0  0  0  0  0
    2.6927    0.8953   -0.4873 C   0  0  0  0  0  0  0  0  0  0  0  0
    1.9600    1.7644    0.5279 C   0  0  0  0  0  0  0  0  0  0  0  0
    2.4996    2.7437    1.0451 O   0  0  0  0  0  0  0  0  0  0  0  0
    0.6529    1.3923    0.8441 N   0  0  0  0  0  0  0  0  0  0  0  0
   -0.1084    2.3341    1.6897 C   0  0  0  0  0  0  0  0  0  0  0  0
   -1.3950    1.7513    2.3230 C   0  0  0  0  0  0  0  0  0  0  0  0
   -2.1581    1.0703    1.2925 N   0  0  0  0  0  0  0  0  0  0  0  0
   -1.3596   -0.0652    0.7304 C   0  0  2  0  0  0  0  0  0  0  0  0
   -0.1518    0.4903   -0.0211 C   0  0  0  0  0  0  0  0  0  0  0  0
   -2.4171   -0.7648   -0.0238 C   0  0  0  0  0  0  0  0  0  0  0  0
   -3.6777   -0.4330    0.4983 C   0  0  0  0  0  0  0  0  0  0  0  0
   -4.6346   -1.1235   -0.1968 C   0  0  0  0  0  0  0  0  0  0  0  0
   -5.9592   -1.0372   -0.0812 O   0  0  0  0  0  0  0  0  0  0  0  0
   -3.9588   -1.9092   -1.1532 N   0  0  0  0  0  0  0  0  0  0  0  0
   -4.5775   -2.7755   -2.1024 C   0  0  0  0  0  0  0  0  0  0  0  0
   -4.0801   -2.8510   -3.4103 C   0  0  0  0  0  0  0  0  0  0  0  0
   -4.6990   -3.6847   -4.3429 C   0  0  0  0  0  0  0  0  0  0  0  0
   -5.8085   -4.4454   -3.9747 C   0  0  0  0  0  0  0  0  0  0  0  0
   -6.3035   -4.3756   -2.6731 C   0  0  0  0  0  0  0  0  0  0  0  0
   -5.6925   -3.5415   -1.7350 C   0  0  0  0  0  0  0  0  0  0  0  0
   -2.5718   -1.6871   -1.0175 C   0  0  0  0  0  0  0  0  0  0  0  0
   -1.6227   -2.3345   -1.6923 O   0  0  0  0  0  0  0  0  0  0  0  0
   -3.5285    0.5781    1.5755 C   0  0  1  0  0  0  0  0  0  0  0  0
   -3.7444    0.0004    2.9951 C   0  0  0  0  0  0  0  0  0  0  0  0
   -3.0954   -0.8535    3.5814 O   0  0  0  0  0  0  0  0  0  0  0  0
   -4.8429    0.6746    3.5349 N   0  0  0  0  0  0  0  0  0  0  0  0
   -5.3665    1.6103    2.6445 C   0  0  0  0  0  0  0  0  0  0  0  0
   -4.6135    1.6081    1.4599 C   0  0  0  0  0  0  0  0  0  0  0  0
   -4.9184    2.4737    0.4227 C   0  0  0  0  0  0  0  0  0  0  0  0
   -6.0009    3.3362    0.5884 C   0  0  0  0  0  0  0  0  0  0  0  0
   -6.7566    3.3257    1.7786 C   0  0  0  0  0  0  0  0  0  0  0  0
   -8.0691    4.4482    1.8879 Cl  0  0  0  0  0  0  0  0  0  0  0  0
   -6.4566    2.4487    2.8388 C   0  0  0  0  0  0  0  0  0  0  0  0
   -7.2415    2.4524    4.1160 C   0  0  0  0  0  0  0  0  0  0  0  0
    5.7841   -1.6912   -4.1345 H   0  0  0  0  0  0  0  0  0  0  0  0
    5.8229   -0.0170   -3.4639 H   0  0  0  0  0  0  0  0  0  0  0  0
    6.9403   -0.4927   -4.7551 H   0  0  0  0  0  0  0  0  0  0  0  0
    8.7634   -2.7159   -1.4199 H   0  0  0  0  0  0  0  0  0  0  0  0
    7.6295   -2.8861   -0.0923 H   0  0  0  0  0  0  0  0  0  0  0  0
    9.6544   -1.2553    0.1838 H   0  0  0  0  0  0  0  0  0  0  0  0
    8.8097   -0.1516   -0.8853 H   0  0  0  0  0  0  0  0  0  0  0  0
    6.9468   -1.0323    1.2180 H   0  0  0  0  0  0  0  0  0  0  0  0
    8.4879   -0.6458    1.9545 H   0  0  0  0  0  0  0  0  0  0  0  0
    7.2211    1.3565    2.0212 H   0  0  0  0  0  0  0  0  0  0  0  0
    8.4997    1.5873    0.8374 H   0  0  0  0  0  0  0  0  0  0  0  0
    6.5227    2.5534   -0.0819 H   0  0  0  0  0  0  0  0  0  0  0  0
    6.8165    1.0865   -1.0059 H   0  0  0  0  0  0  0  0  0  0  0  0
    5.0879   -0.1003    0.4609 H   0  0  0  0  0  0  0  0  0  0  0  0
    4.8022    1.4311    1.2787 H   0  0  0  0  0  0  0  0  0  0  0  0
    4.1410    2.4488   -0.9486 H   0  0  0  0  0  0  0  0  0  0  0  0
    4.4478    0.8915   -1.7140 H   0  0  0  0  0  0  0  0  0  0  0  0
    2.7088   -0.1383   -0.1269 H   0  0  0  0  0  0  0  0  0  0  0  0
    2.1287    0.9348   -1.4264 H   0  0  0  0  0  0  0  0  0  0  0  0
   -0.3683    3.1878    1.0503 H   0  0  0  0  0  0  0  0  0  0  0  0
    0.5412    2.7128    2.4883 H   0  0  0  0  0  0  0  0  0  0  0  0
   -1.9727    2.5742    2.7572 H   0  0  0  0  0  0  0  0  0  0  0  0
   -1.1236    1.0708    3.1371 H   0  0  0  0  0  0  0  0  0  0  0  0
   -1.0184   -0.7209    1.5434 H   0  0  0  0  0  0  0  0  0  0  0  0
   -0.4535    1.0719   -0.9024 H   0  0  0  0  0  0  0  0  0  0  0  0
    0.4696   -0.3401   -0.3727 H   0  0  0  0  0  0  0  0  0  0  0  0
   -6.3646   -1.2719   -0.9374 H   0  0  0  0  0  0  0  0  0  0  0  0
   -3.2449   -2.2332   -3.7387 H   0  0  0  0  0  0  0  0  0  0  0  0
   -4.3228   -3.7316   -5.3624 H   0  0  0  0  0  0  0  0  0  0  0  0
   -6.2888   -5.0937   -4.7036 H   0  0  0  0  0  0  0  0  0  0  0  0
   -7.1618   -4.9784   -2.3852 H   0  0  0  0  0  0  0  0  0  0  0  0
   -6.0725   -3.5396   -0.7145 H   0  0  0  0  0  0  0  0  0  0  0  0
   -1.9958   -3.1684   -2.0352 H   0  0  0  0  0  0  0  0  0  0  0  0
   -5.1891    0.4730    4.4607 H   0  0  0  0  0  0  0  0  0  0  0  0
   -4.3339    2.4756   -0.4920 H   0  0  0  0  0  0  0  0  0  0  0  0
   -6.2604    4.0236   -0.2127 H   0  0  0  0  0  0  0  0  0  0  0  0
   -7.0395    1.5708    4.7312 H   0  0  0  0  0  0  0  0  0  0  0  0
   -8.3164    2.4423    3.9132 H   0  0  0  0  0  0  0  0  0  0  0  0
   -6.9914    3.3390    4.7072 H   0  0  0  0  0  0  0  0  0  0  0  0
  1  2  1  0
  2  3  1  0
  3  4  2  0
  3  5  1  0
  5  6  1  0
  6  7  1  0
  7  8  1  0
  8  9  1  0
  9 10  1  0
 10 11  1  0
 11 12  1  0
 12 13  1  0
 13 14  2  0
 13 15  1  0
 15 16  1  0
 16 17  1  0
 17 18  1  0
 18 19  1  0
 19 20  1  0
 19 21  1  0
 21 22  1  0
 22 23  2  0
 23 24  1  0
 23 25  1  0
 25 26  1  0
 26 27  2  0
 27 28  1  0
 28 29  2  0
 29 30  1  0
 30 31  2  0
 25 32  1  0
 32 33  1  0
 22 34  1  0
 34 35  1  0
 35 36  2  0
 35 37  1  0
 37 38  1  0
 38 39  2  0
 39 40  1  0
 40 41  2  0
 41 42  1  0
 42 43  1  0
 42 44  2  0
 44 45  1  0
 20 15  1  0
 32 21  2  0
 39 34  1  0
 34 18  1  1
 44 38  1  0
 31 26  1  0
  1 46  1  0
  1 47  1  0
  1 48  1  0
  5 49  1  0
  5 50  1  0
  6 51  1  0
  6 52  1  0
  7 53  1  0
  7 54  1  0
  8 55  1  0
  8 56  1  0
  9 57  1  0
  9 58  1  0
 10 59  1  0
 10 60  1  0
 11 61  1  0
 11 62  1  0
 12 63  1  0
 12 64  1  0
 16 65  1  0
 16 66  1  0
 17 67  1  0
 17 68  1  0
 19 69  1  1
 20 70  1  0
 20 71  1  0
 24 72  1  0
 27 73  1  0
 28 74  1  0
 29 75  1  0
 30 76  1  0
 31 77  1  0
 33 78  1  0
 37 79  1  0
 40 80  1  0
 41 81  1  0
 45 82  1  0
 45 83  1  0
 45 84  1  0
M  END
$$$$
