
     RDKit          3D

 40 42  0  0  0  0  0  0  0  0999 V2000
    2.5933    3.5809   -1.1470 C   0  0  0  0  0  0  0  0  0  0  0  0
    1.8946    4.0239    0.1274 C   0  0  0  0  0  0  0  0  0  0  0  0
    0.0790    3.9314   -0.0288 S   0  0  0  0  0  0  0  0  0  0  0  0
   -0.2174    2.1795    0.1753 C   0  0  0  0  0  0  0  0  0  0  0  0
   -1.4944    1.7041   -0.0277 C   0  0  0  0  0  0  0  0  0  0  0  0
   -1.7035    0.3490    0.1339 C   0  0  0  0  0  0  0  0  0  0  0  0
   -2.9875   -0.1880   -0.0512 N   0  0  0  0  0  0  0  0  0  0  0  0
   -3.1495   -1.5984    0.3730 C   0  0  0  0  0  0  0  0  0  0  0  0
   -2.6676   -2.5773   -0.7122 C   0  0  0  0  0  0  0  0  0  0  0  0
   -3.3173   -2.3272   -1.9717 O   0  0  0  0  0  0  0  0  0  0  0  0
   -3.0589   -0.9825   -2.4074 C   0  0  0  0  0  0  0  0  0  0  0  0
   -3.5828    0.0438   -1.3876 C   0  0  0  0  0  0  0  0  0  0  0  0
   -0.6954   -0.4542    0.5088 N   0  0  0  0  0  0  0  0  0  0  0  0
    0.5232    0.0887    0.6918 C   0  0  0  0  0  0  0  0  0  0  0  0
    1.6270   -0.8112    1.0869 C   0  0  0  0  0  0  0  0  0  0  0  0
    2.9403   -0.3323    1.2638 C   0  0  0  0  0  0  0  0  0  0  0  0
    3.9870   -1.1826    1.6357 C   0  0  0  0  0  0  0  0  0  0  0  0
    3.7446   -2.5371    1.8404 C   0  0  0  0  0  0  0  0  0  0  0  0
    2.4585   -3.0409    1.6743 C   0  0  0  0  0  0  0  0  0  0  0  0
    1.4146   -2.1872    1.3025 C   0  0  0  0  0  0  0  0  0  0  0  0
    0.8040    1.3900    0.5295 N   0  0  0  0  0  0  0  0  0  0  0  0
    2.2888    4.1933   -2.0026 H   0  0  0  0  0  0  0  0  0  0  0  0
    2.3941    2.5317   -1.3849 H   0  0  0  0  0  0  0  0  0  0  0  0
    3.6768    3.6912   -1.0322 H   0  0  0  0  0  0  0  0  0  0  0  0
    2.2435    3.4516    0.9926 H   0  0  0  0  0  0  0  0  0  0  0  0
    2.1467    5.0720    0.3210 H   0  0  0  0  0  0  0  0  0  0  0  0
   -2.3070    2.3734   -0.2772 H   0  0  0  0  0  0  0  0  0  0  0  0
   -4.2225   -1.7632    0.5345 H   0  0  0  0  0  0  0  0  0  0  0  0
   -2.6610   -1.7981    1.3343 H   0  0  0  0  0  0  0  0  0  0  0  0
   -1.5836   -2.5298   -0.8609 H   0  0  0  0  0  0  0  0  0  0  0  0
   -2.9128   -3.6022   -0.4159 H   0  0  0  0  0  0  0  0  0  0  0  0
   -1.9834   -0.8628   -2.5832 H   0  0  0  0  0  0  0  0  0  0  0  0
   -3.5706   -0.8441   -3.3650 H   0  0  0  0  0  0  0  0  0  0  0  0
   -3.4193    1.0621   -1.7552 H   0  0  0  0  0  0  0  0  0  0  0  0
   -4.6682   -0.0822   -1.2876 H   0  0  0  0  0  0  0  0  0  0  0  0
    3.1596    0.7233    1.1109 H   0  0  0  0  0  0  0  0  0  0  0  0
    4.9895   -0.7828    1.7647 H   0  0  0  0  0  0  0  0  0  0  0  0
    4.5567   -3.1990    2.1296 H   0  0  0  0  0  0  0  0  0  0  0  0
    2.2628   -4.0981    1.8338 H   0  0  0  0  0  0  0  0  0  0  0  0
    0.4182   -2.6088    1.1817 H   0  0  0  0  0  0  0  0  0  0  0  0
  1  2  1  0
  2  3  1  0
  3  4  1  0
  4  5  2  0
  5  6  1  0
  6  7  1  0
  7  8  1  0
  8  9  1  0
  9 10  1  0
 10 11  1  0
 11 12  1  0
  6 13  2  0
 13 14  1  0
 14 15  1  0
 15 16  2  0
 16 17  1  0
 17 18  2  0
 18 19  1  0
 19 20  2  0
 14 21  2  0
 21  4  1  0
 12  7  1  0
 20 15  1  0
  1 22  1  0
  1 23  1  0
  1 24  1  0
  2 25  1  0
  2 26  1  0
  5 27  1  0
  8 28  1  0
  8 29  1  0
  9 30  1  0
  9 31  1  0
 11 32  1  0
 11 33  1  0
 12 34  1  0
 12 35  1  0
 16 36  1  0
 17 37  1  0
 18 38  1  0
 19 39  1  0
 20 40  1  0
M  END
$$$$
