
     RDKit          3D

 46 49  0  0  0  0  0  0  0  0999 V2000
    1.4461    0.9734   -0.3590 O   0  0  0  0  0  0  0  0  0  0  0  0
    1.7994   -0.1650   -0.0730 C   0  0  0  0  0  0  0  0  0  0  0  0
    0.8428   -1.3411    0.0770 C   0  0  0  0  0  0  0  0  0  0  0  0
   -0.4916   -0.9085    0.5283 N   0  0  0  0  0  4  0  0  0  0  0  0
   -1.4329   -0.2010   -0.2205 C   0  0  0  0  0  0  0  0  0  0  0  0
   -2.5260    0.0892    0.5874 C   0  0  0  0  0  0  0  0  0  0  0  0
   -3.8045    0.9058    0.1707 C   0  0  0  0  0  0  0  0  0  0  0  0
   -4.8188    1.1706    1.0934 C   0  0  0  0  0  0  0  0  0  0  0  0
   -5.9506    1.8993    0.7067 C   0  0  0  0  0  0  0  0  0  0  0  0
   -6.0774    2.3709   -0.6029 C   0  0  0  0  0  0  0  0  0  0  0  0
   -7.5008    3.2580   -1.0066 Cl  0  0  0  0  0  0  0  0  0  0  0  0
   -5.0634    2.1103   -1.5289 C   0  0  0  0  0  0  0  0  0  0  0  0
   -5.1395    2.6548   -3.1677 Cl  0  0  0  0  0  0  0  0  0  0  0  0
   -3.9299    1.3808   -1.1420 C   0  0  0  0  0  0  0  0  0  0  0  0
   -2.1918   -0.4964    1.7962 N   0  0  0  0  0  0  0  0  0  0  0  0
   -0.9842   -1.0490    1.7512 C   0  0  0  0  0  0  0  0  0  0  0  0
   -0.5606   -1.6408    3.0399 C   0  0  0  0  0  0  0  0  0  0  0  0
   -1.8734   -1.6371    3.8444 C   0  0  0  0  0  0  0  0  0  0  0  0
   -2.7966   -0.6222    3.1150 C   0  0  0  0  0  0  0  0  0  0  0  0
    3.0789   -0.5792    0.1371 O   0  0  0  0  0  0  0  0  0  0  0  0
    4.1040    0.4012   -0.0768 C   0  0  0  0  0  0  0  0  0  0  0  0
    4.7519    0.1199   -1.4018 C   0  0  0  0  0  0  0  0  0  0  0  0
    4.3959    0.8598   -2.5386 C   0  0  0  0  0  0  0  0  0  0  0  0
    4.9844    0.5832   -3.7747 C   0  0  0  0  0  0  0  0  0  0  0  0
    5.9272   -0.4385   -3.8877 C   0  0  0  0  0  0  0  0  0  0  0  0
    6.2809   -1.1870   -2.7659 C   0  0  0  0  0  0  0  0  0  0  0  0
    5.6939   -0.9126   -1.5286 C   0  0  0  0  0  0  0  0  0  0  0  0
    1.2356   -2.0453    0.8145 H   0  0  0  0  0  0  0  0  0  0  0  0
    0.7431   -1.8456   -0.8859 H   0  0  0  0  0  0  0  0  0  0  0  0
   -1.1862    0.0327   -1.2420 H   0  0  0  0  0  0  0  0  0  0  0  0
   -4.7682    0.8354    2.1222 H   0  0  0  0  0  0  0  0  0  0  0  0
   -6.7407    2.0947    1.4308 H   0  0  0  0  0  0  0  0  0  0  0  0
   -3.1608    1.1976   -1.8893 H   0  0  0  0  0  0  0  0  0  0  0  0
   -0.1663   -2.6413    2.8581 H   0  0  0  0  0  0  0  0  0  0  0  0
    0.1919   -0.9708    3.4590 H   0  0  0  0  0  0  0  0  0  0  0  0
   -2.3266   -2.6343    3.7908 H   0  0  0  0  0  0  0  0  0  0  0  0
   -1.7251   -1.3912    4.9001 H   0  0  0  0  0  0  0  0  0  0  0  0
   -2.7779    0.3541    3.6098 H   0  0  0  0  0  0  0  0  0  0  0  0
   -3.8176   -1.0042    3.0401 H   0  0  0  0  0  0  0  0  0  0  0  0
    4.8353    0.2969    0.7287 H   0  0  0  0  0  0  0  0  0  0  0  0
    3.7338    1.4300   -0.0206 H   0  0  0  0  0  0  0  0  0  0  0  0
    3.6621    1.6624   -2.4696 H   0  0  0  0  0  0  0  0  0  0  0  0
    4.7125    1.1687   -4.6514 H   0  0  0  0  0  0  0  0  0  0  0  0
    6.3906   -0.6484   -4.8486 H   0  0  0  0  0  0  0  0  0  0  0  0
    7.0194   -1.9822   -2.8564 H   0  0  0  0  0  0  0  0  0  0  0  0
    5.9819   -1.5080   -0.6627 H   0  0  0  0  0  0  0  0  0  0  0  0
  1  2  2  0
  2  3  1  0
  3  4  1  0
  4  5  1  0
  5  6  2  0
  6  7  1  0
  7  8  2  0
  8  9  1  0
  9 10  2  0
 10 11  1  0
 10 12  1  0
 12 13  1  0
 12 14  2  0
  6 15  1  0
 15 16  1  0
 16 17  1  0
 17 18  1  0
 18 19  1  0
  2 20  1  0
 20 21  1  0
 21 22  1  0
 22 23  2  0
 23 24  1  0
 24 25  2  0
 25 26  1  0
 26 27  2  0
 16  4  2  0
 27 22  1  0
 14  7  1  0
 19 15  1  0
  3 28  1  0
  3 29  1  0
  5 30  1  0
  8 31  1  0
  9 32  1  0
 14 33  1  0
 17 34  1  0
 17 35  1  0
 18 36  1  0
 18 37  1  0
 19 38  1  0
 19 39  1  0
 21 40  1  0
 21 41  1  0
 23 42  1  0
 24 43  1  0
 25 44  1  0
 26 45  1  0
 27 46  1  0
M  CHG  1   4   1
M  END
$$$$
