
     RDKit          3D

 50 53  0  0  0  0  0  0  0  0999 V2000
    6.9268   -2.5096    0.6284 C   0  0  0  0  0  0  0  0  0  0  0  0
    7.1598   -1.2162    1.3891 C   0  0  0  0  0  0  0  0  0  0  0  0
    6.9010   -0.0838    0.5605 O   0  0  0  0  0  0  0  0  0  0  0  0
    5.6319    0.4027    0.4399 C   0  0  0  0  0  0  0  0  0  0  0  0
    4.5032   -0.1176    1.0779 C   0  0  0  0  0  0  0  0  0  0  0  0
    3.2409    0.4706    0.8943 C   0  0  0  0  0  0  0  0  0  0  0  0
    3.0870    1.5872    0.0603 C   0  0  0  0  0  0  0  0  0  0  0  0
    1.7651    2.2435   -0.1467 C   0  0  0  0  0  0  0  0  0  0  0  0
    1.7523    3.4572   -0.3075 O   0  0  0  0  0  0  0  0  0  0  0  0
    0.6801    1.3873   -0.1626 N   0  0  0  0  0  0  0  0  0  0  0  0
   -0.6796    1.7323   -0.3263 C   0  0  0  0  0  0  0  0  0  0  0  0
   -1.1423    3.0404   -0.4614 C   0  0  0  0  0  0  0  0  0  0  0  0
   -2.5045    3.2933   -0.6382 C   0  0  0  0  0  0  0  0  0  0  0  0
   -3.4176    2.2398   -0.6719 C   0  0  0  0  0  0  0  0  0  0  0  0
   -2.9811    0.9166   -0.5190 C   0  0  0  0  0  0  0  0  0  0  0  0
   -3.9440   -0.2096   -0.5376 C   0  0  0  0  0  0  0  0  0  0  0  0
   -5.0145   -0.1607    0.2744 C   0  0  0  0  0  0  0  0  0  0  0  0
   -5.9869   -1.2402    0.2979 C   0  0  0  0  0  0  0  0  0  0  0  0
   -7.1108   -1.2116    1.1266 C   0  0  0  0  0  0  0  0  0  0  0  0
   -8.0199   -2.2744    1.1099 C   0  0  0  0  0  0  0  0  0  0  0  0
   -7.8102   -3.3677    0.2664 C   0  0  0  0  0  0  0  0  0  0  0  0
   -6.6906   -3.4019   -0.5623 C   0  0  0  0  0  0  0  0  0  0  0  0
   -5.7940   -2.3363   -0.5338 C   0  0  0  0  0  0  0  0  0  0  0  0
   -4.6741   -2.4080   -1.3784 O   0  0  0  0  0  0  0  0  0  0  0  0
   -3.7161   -1.3992   -1.4149 C   0  0  0  0  0  0  0  0  0  0  0  0
   -2.7275   -1.5034   -2.1347 O   0  0  0  0  0  0  0  0  0  0  0  0
   -1.6067    0.6793   -0.3504 C   0  0  0  0  0  0  0  0  0  0  0  0
    4.2050    2.1314   -0.5739 C   0  0  0  0  0  0  0  0  0  0  0  0
    5.4511    1.5250   -0.3802 C   0  0  0  0  0  0  0  0  0  0  0  0
    6.5868    2.0952   -1.0710 N   0  0  0  0  0  4  0  0  0  0  0  0
    7.0275    3.1669   -0.6346 O   0  0  0  0  0  0  0  0  0  0  0  0
    6.9969    1.4943   -2.0732 O   0  0  0  0  0  1  0  0  0  0  0  0
    7.5241   -2.5267   -0.2893 H   0  0  0  0  0  0  0  0  0  0  0  0
    7.1999   -3.3729    1.2415 H   0  0  0  0  0  0  0  0  0  0  0  0
    5.8804   -2.6149    0.3271 H   0  0  0  0  0  0  0  0  0  0  0  0
    6.6068   -1.1785    2.3331 H   0  0  0  0  0  0  0  0  0  0  0  0
    8.2201   -1.1628    1.6615 H   0  0  0  0  0  0  0  0  0  0  0  0
    4.5624   -0.9798    1.7354 H   0  0  0  0  0  0  0  0  0  0  0  0
    2.3938    0.0596    1.4395 H   0  0  0  0  0  0  0  0  0  0  0  0
    0.8704    0.3941   -0.1360 H   0  0  0  0  0  0  0  0  0  0  0  0
   -0.4676    3.8907   -0.4444 H   0  0  0  0  0  0  0  0  0  0  0  0
   -2.8494    4.3180   -0.7566 H   0  0  0  0  0  0  0  0  0  0  0  0
   -4.4703    2.4657   -0.8279 H   0  0  0  0  0  0  0  0  0  0  0  0
   -5.1873    0.6790    0.9413 H   0  0  0  0  0  0  0  0  0  0  0  0
   -7.2929   -0.3694    1.7900 H   0  0  0  0  0  0  0  0  0  0  0  0
   -8.8946   -2.2495    1.7560 H   0  0  0  0  0  0  0  0  0  0  0  0
   -8.5197   -4.1914    0.2563 H   0  0  0  0  0  0  0  0  0  0  0  0
   -6.5188   -4.2478   -1.2216 H   0  0  0  0  0  0  0  0  0  0  0  0
   -1.2577   -0.3460   -0.2438 H   0  0  0  0  0  0  0  0  0  0  0  0
    4.1056    3.0098   -1.2094 H   0  0  0  0  0  0  0  0  0  0  0  0
  1  2  1  0
  2  3  1  0
  3  4  1  0
  4  5  2  0
  5  6  1  0
  6  7  2  0
  7  8  1  0
  8  9  2  0
  8 10  1  0
 10 11  1  0
 11 12  2  0
 12 13  1  0
 13 14  2  0
 14 15  1  0
 15 16  1  0
 16 17  2  0
 17 18  1  0
 18 19  2  0
 19 20  1  0
 20 21  2  0
 21 22  1  0
 22 23  2  0
 23 24  1  0
 24 25  1  0
 25 26  2  0
 15 27  2  0
  7 28  1  0
 28 29  2  0
 29 30  1  0
 30 31  2  0
 30 32  1  0
 29  4  1  0
 27 11  1  0
 25 16  1  0
 23 18  1  0
  1 33  1  0
  1 34  1  0
  1 35  1  0
  2 36  1  0
  2 37  1  0
  5 38  1  0
  6 39  1  0
 10 40  1  0
 12 41  1  0
 13 42  1  0
 14 43  1  0
 17 44  1  0
 19 45  1  0
 20 46  1  0
 21 47  1  0
 22 48  1  0
 27 49  1  0
 28 50  1  0
M  CHG  2  30   1  32  -1
M  END
$$$$
