
     RDKit          3D

 57 59  0  0  0  0  0  0  0  0999 V2000
   -4.2972   -1.8691    3.2952 C   0  0  0  0  0  0  0  0  0  0  0  0
   -3.2725   -0.9201    3.0181 O   0  0  0  0  0  0  0  0  0  0  0  0
   -2.6257   -1.0348    1.8161 C   0  0  0  0  0  0  0  0  0  0  0  0
   -2.6598   -2.1661    0.9963 C   0  0  0  0  0  0  0  0  0  0  0  0
   -1.9563   -2.1840   -0.2128 C   0  0  0  0  0  0  0  0  0  0  0  0
   -1.2197   -1.0580   -0.6043 C   0  0  0  0  0  0  0  0  0  0  0  0
   -0.3483   -1.0593   -2.1464 S   0  0  0  0  0  6  0  0  0  0  0  0
   -0.7409   -2.2371   -2.8927 O   0  0  0  0  0  0  0  0  0  0  0  0
    1.0422   -0.7990   -1.8514 O   0  0  0  0  0  0  0  0  0  0  0  0
   -0.9948    0.2755   -2.9545 N   0  0  0  0  0  0  0  0  0  0  0  0
   -2.4276    0.2083   -3.2970 C   0  0  0  0  0  0  0  0  0  0  0  0
   -2.4270    0.0450   -4.7984 C   0  0  0  0  0  0  0  0  0  0  0  0
   -1.3057    0.8161   -5.2210 O   0  0  0  0  0  0  0  0  0  0  0  0
   -0.2897    0.6081   -4.2199 C   0  0  0  0  0  0  0  0  0  0  0  0
    0.5408    1.9052   -4.1063 C   0  0  0  0  0  0  0  0  0  0  0  0
    1.7372    1.7844   -3.2999 N   0  0  0  0  0  0  0  0  0  0  0  0
    1.7716    2.1177   -1.9666 C   0  0  0  0  0  0  0  0  0  0  0  0
    0.8959    2.6935   -1.3356 O   0  0  0  0  0  0  0  0  0  0  0  0
    3.0625    1.6497   -1.2517 C   0  0  0  0  0  0  0  0  0  0  0  0
    3.9763    1.1559   -1.8958 O   0  0  0  0  0  0  0  0  0  0  0  0
    3.0245    1.8265    0.1085 N   0  0  0  0  0  0  0  0  0  0  0  0
    3.9824    1.2127    0.9899 C   0  0  0  0  0  0  0  0  0  0  0  0
    3.2888    0.2771    1.9511 C   0  0  0  0  0  0  0  0  0  0  0  0
    2.6412   -0.8778    1.4676 C   0  0  0  0  0  0  0  0  0  0  0  0
    1.9847   -1.7404    2.3435 C   0  0  0  0  0  0  0  0  0  0  0  0
    1.9787   -1.4557    3.7029 C   0  0  0  0  0  0  0  0  0  0  0  0
    1.3445   -2.2825    4.5458 F   0  0  0  0  0  0  0  0  0  0  0  0
    2.6187   -0.3231    4.2031 C   0  0  0  0  0  0  0  0  0  0  0  0
    3.2706    0.5425    3.3272 C   0  0  0  0  0  0  0  0  0  0  0  0
   -1.1703    0.0781    0.2013 C   0  0  0  0  0  0  0  0  0  0  0  0
   -1.8578    0.0738    1.4131 C   0  0  0  0  0  0  0  0  0  0  0  0
   -1.8317    1.2219    2.1665 O   0  0  0  0  0  0  0  0  0  0  0  0
   -0.7702    1.1506    3.1147 C   0  0  0  0  0  0  0  0  0  0  0  0
   -5.0450   -1.8951    2.4878 H   0  0  0  0  0  0  0  0  0  0  0  0
   -4.8033   -1.5502    4.2096 H   0  0  0  0  0  0  0  0  0  0  0  0
   -3.8751   -2.8650    3.4785 H   0  0  0  0  0  0  0  0  0  0  0  0
   -3.2183   -3.0570    1.2749 H   0  0  0  0  0  0  0  0  0  0  0  0
   -1.9915   -3.0743   -0.8409 H   0  0  0  0  0  0  0  0  0  0  0  0
   -2.9788   -0.5934   -2.8005 H   0  0  0  0  0  0  0  0  0  0  0  0
   -2.8853    1.1602   -3.0058 H   0  0  0  0  0  0  0  0  0  0  0  0
   -2.2760   -0.9976   -5.0970 H   0  0  0  0  0  0  0  0  0  0  0  0
   -3.3400    0.4223   -5.2683 H   0  0  0  0  0  0  0  0  0  0  0  0
    0.3433   -0.2194   -4.5678 H   0  0  0  0  0  0  0  0  0  0  0  0
    0.8703    2.2102   -5.1079 H   0  0  0  0  0  0  0  0  0  0  0  0
   -0.0834    2.7199   -3.7141 H   0  0  0  0  0  0  0  0  0  0  0  0
    2.5177    1.2156   -3.6250 H   0  0  0  0  0  0  0  0  0  0  0  0
    2.1629    2.2087    0.4866 H   0  0  0  0  0  0  0  0  0  0  0  0
    4.7425    0.6596    0.4270 H   0  0  0  0  0  0  0  0  0  0  0  0
    4.4878    2.0197    1.5273 H   0  0  0  0  0  0  0  0  0  0  0  0
    2.6480   -1.1023    0.4016 H   0  0  0  0  0  0  0  0  0  0  0  0
    1.4850   -2.6313    1.9721 H   0  0  0  0  0  0  0  0  0  0  0  0
    2.6010   -0.1250    5.2698 H   0  0  0  0  0  0  0  0  0  0  0  0
    3.7662    1.4305    3.7300 H   0  0  0  0  0  0  0  0  0  0  0  0
   -0.6076    0.9594   -0.1039 H   0  0  0  0  0  0  0  0  0  0  0  0
    0.1932    1.2768    2.6085 H   0  0  0  0  0  0  0  0  0  0  0  0
   -0.8938    1.9781    3.8198 H   0  0  0  0  0  0  0  0  0  0  0  0
   -0.7850    0.2139    3.6853 H   0  0  0  0  0  0  0  0  0  0  0  0
  1  2  1  0
  2  3  1  0
  3  4  2  0
  4  5  1  0
  5  6  2  0
  6  7  1  0
  7  8  2  0
  7  9  2  0
  7 10  1  0
 10 11  1  0
 11 12  1  0
 12 13  1  0
 13 14  1  0
 14 15  1  0
 15 16  1  0
 16 17  1  0
 17 18  2  0
 17 19  1  0
 19 20  2  0
 19 21  1  0
 21 22  1  0
 22 23  1  0
 23 24  2  0
 24 25  1  0
 25 26  2  0
 26 27  1  0
 26 28  1  0
 28 29  2  0
  6 30  1  0
 30 31  2  0
 31 32  1  0
 32 33  1  0
 31  3  1  0
 14 10  1  0
 29 23  1  0
  1 34  1  0
  1 35  1  0
  1 36  1  0
  4 37  1  0
  5 38  1  0
 11 39  1  0
 11 40  1  0
 12 41  1  0
 12 42  1  0
 14 43  1  0
 15 44  1  0
 15 45  1  0
 16 46  1  0
 21 47  1  0
 22 48  1  0
 22 49  1  0
 24 50  1  0
 25 51  1  0
 28 52  1  0
 29 53  1  0
 30 54  1  0
 33 55  1  0
 33 56  1  0
 33 57  1  0
M  END
$$$$
