
     RDKit          3D

 57 59  0  0  0  0  0  0  0  0999 V2000
   -1.8351   -2.8791   -4.6784 C   0  0  0  0  0  0  0  0  0  0  0  0
   -1.5834   -2.1605   -3.4413 N   0  0  0  0  0  0  0  0  0  0  0  0
   -1.9144   -2.5952   -2.1718 C   0  0  0  0  0  0  0  0  0  0  0  0
   -2.6323   -4.0986   -1.9110 S   0  0  0  0  0  0  0  0  0  0  0  0
   -1.6236   -1.6636   -1.1509 N   0  0  0  0  0  0  0  0  0  0  0  0
   -1.9141   -1.9643    0.2720 C   0  0  0  0  0  0  0  0  0  0  0  0
   -3.3848   -1.7652    0.6906 C   0  0  0  0  0  0  0  0  0  0  0  0
   -3.8298   -0.3209    0.7300 C   0  0  0  0  0  0  0  0  0  0  0  0
   -4.5793    0.2126   -0.3277 C   0  0  0  0  0  0  0  0  0  0  0  0
   -4.9727    1.5494   -0.3088 C   0  0  0  0  0  0  0  0  0  0  0  0
   -4.6204    2.3670    0.7658 C   0  0  0  0  0  0  0  0  0  0  0  0
   -3.8634    1.8561    1.8278 C   0  0  0  0  0  0  0  0  0  0  0  0
   -3.5239    2.7266    3.0010 C   0  0  0  0  0  0  0  0  0  0  0  0
   -3.4813    0.5073    1.8091 C   0  0  0  0  0  0  0  0  0  0  0  0
   -1.1727   -0.2820   -1.4244 C   0  0  0  0  0  0  0  0  0  0  0  0
    0.3056   -0.1290   -1.1813 C   0  0  0  0  0  0  0  0  0  0  0  0
    0.8172    0.3302   -0.0225 C   0  0  0  0  0  0  0  0  0  0  0  0
    2.2572    0.5204    0.1515 C   0  0  0  0  0  0  0  0  0  0  0  0
    2.7934    0.9836    1.3607 C   0  0  0  0  0  0  0  0  0  0  0  0
    4.1748    1.1756    1.4938 C   0  0  0  0  0  0  0  0  0  0  0  0
    4.8017    1.6383    2.6205 O   0  0  0  0  0  0  0  0  0  0  0  0
    3.9956    1.8750    3.7667 C   0  0  0  0  0  0  0  0  0  0  0  0
    5.0080    0.8825    0.4011 C   0  0  0  0  0  0  0  0  0  0  0  0
    6.3584    1.1128    0.4964 O   0  0  0  0  0  0  0  0  0  0  0  0
    7.0620   -0.1199    0.6529 C   0  0  0  0  0  0  0  0  0  0  0  0
    4.4813    0.4337   -0.8125 C   0  0  0  0  0  0  0  0  0  0  0  0
    3.1076    0.2463   -0.9259 C   0  0  0  0  0  0  0  0  0  0  0  0
    2.5597   -0.2023   -2.1328 N   0  0  0  0  0  0  0  0  0  0  0  0
    1.2188   -0.3882   -2.3356 C   0  0  0  0  0  0  0  0  0  0  0  0
    0.7880   -0.7349   -3.4333 O   0  0  0  0  0  0  0  0  0  0  0  0
   -2.8891   -3.1668   -4.7450 H   0  0  0  0  0  0  0  0  0  0  0  0
   -1.5836   -2.2164   -5.5107 H   0  0  0  0  0  0  0  0  0  0  0  0
   -1.1984   -3.7691   -4.7158 H   0  0  0  0  0  0  0  0  0  0  0  0
   -0.7362   -1.5985   -3.4876 H   0  0  0  0  0  0  0  0  0  0  0  0
   -1.6316   -3.0040    0.4690 H   0  0  0  0  0  0  0  0  0  0  0  0
   -1.2579   -1.3592    0.9050 H   0  0  0  0  0  0  0  0  0  0  0  0
   -3.5239   -2.1904    1.6947 H   0  0  0  0  0  0  0  0  0  0  0  0
   -4.0614   -2.3306    0.0383 H   0  0  0  0  0  0  0  0  0  0  0  0
   -4.8562   -0.4135   -1.1752 H   0  0  0  0  0  0  0  0  0  0  0  0
   -5.5587    1.9533   -1.1316 H   0  0  0  0  0  0  0  0  0  0  0  0
   -4.9442    3.4053    0.7702 H   0  0  0  0  0  0  0  0  0  0  0  0
   -2.5759    2.4161    3.4567 H   0  0  0  0  0  0  0  0  0  0  0  0
   -4.3170    2.6653    3.7549 H   0  0  0  0  0  0  0  0  0  0  0  0
   -3.4086    3.7716    2.6896 H   0  0  0  0  0  0  0  0  0  0  0  0
   -2.9122    0.0966    2.6423 H   0  0  0  0  0  0  0  0  0  0  0  0
   -1.4448    0.0359   -2.4356 H   0  0  0  0  0  0  0  0  0  0  0  0
   -1.7198    0.4003   -0.7669 H   0  0  0  0  0  0  0  0  0  0  0  0
    0.1696    0.5756    0.8124 H   0  0  0  0  0  0  0  0  0  0  0  0
    2.1179    1.1972    2.1814 H   0  0  0  0  0  0  0  0  0  0  0  0
    4.6549    2.2284    4.5652 H   0  0  0  0  0  0  0  0  0  0  0  0
    3.2519    2.6554    3.5817 H   0  0  0  0  0  0  0  0  0  0  0  0
    3.5192    0.9471    4.1077 H   0  0  0  0  0  0  0  0  0  0  0  0
    6.6150   -0.7494    1.4324 H   0  0  0  0  0  0  0  0  0  0  0  0
    8.0870    0.1168    0.9555 H   0  0  0  0  0  0  0  0  0  0  0  0
    7.1072   -0.6635   -0.3000 H   0  0  0  0  0  0  0  0  0  0  0  0
    5.1435    0.2478   -1.6515 H   0  0  0  0  0  0  0  0  0  0  0  0
    3.1548   -0.3647   -2.9328 H   0  0  0  0  0  0  0  0  0  0  0  0
  1  2  1  0
  2  3  1  0
  3  4  2  0
  3  5  1  0
  5  6  1  0
  6  7  1  0
  7  8  1  0
  8  9  2  0
  9 10  1  0
 10 11  2  0
 11 12  1  0
 12 13  1  0
 12 14  2  0
  5 15  1  0
 15 16  1  0
 16 17  2  0
 17 18  1  0
 18 19  2  0
 19 20  1  0
 20 21  1  0
 21 22  1  0
 20 23  2  0
 23 24  1  0
 24 25  1  0
 23 26  1  0
 26 27  2  0
 27 28  1  0
 28 29  1  0
 29 30  2  0
 14  8  1  0
 29 16  1  0
 27 18  1  0
  1 31  1  0
  1 32  1  0
  1 33  1  0
  2 34  1  0
  6 35  1  0
  6 36  1  0
  7 37  1  0
  7 38  1  0
  9 39  1  0
 10 40  1  0
 11 41  1  0
 13 42  1  0
 13 43  1  0
 13 44  1  0
 14 45  1  0
 15 46  1  0
 15 47  1  0
 17 48  1  0
 19 49  1  0
 22 50  1  0
 22 51  1  0
 22 52  1  0
 25 53  1  0
 25 54  1  0
 25 55  1  0
 26 56  1  0
 28 57  1  0
M  END
$$$$
