
     RDKit          3D

 54 57  0  0  0  0  0  0  0  0999 V2000
   -5.5809   -0.3896   -3.3987 C   0  0  0  0  0  0  0  0  0  0  0  0
   -4.5082   -1.1782   -2.8997 O   0  0  0  0  0  0  0  0  0  0  0  0
   -3.6683   -0.5841   -1.9993 C   0  0  0  0  0  0  0  0  0  0  0  0
   -2.6675   -1.4183   -1.4961 C   0  0  0  0  0  0  0  0  0  0  0  0
   -1.7394   -0.9447   -0.5646 C   0  0  0  0  0  0  0  0  0  0  0  0
   -1.8122    0.3801   -0.1241 C   0  0  0  0  0  0  0  0  0  0  0  0
   -0.8866    0.8681    0.8344 N   0  0  0  0  0  0  0  0  0  0  0  0
   -1.1606    1.6165    1.9761 C   0  0  0  0  0  0  0  0  0  0  0  0
   -2.5139    1.9045    2.5406 C   0  0  0  0  0  0  0  0  0  0  0  0
   -3.2019    0.6752    3.0557 C   0  0  0  0  0  0  0  0  0  0  0  0
   -4.3090    0.0163    2.5474 C   0  0  0  0  0  0  0  0  0  0  0  0
   -4.5722   -1.0975    3.3747 C   0  0  0  0  0  0  0  0  0  0  0  0
   -3.6268   -1.0950    4.3731 C   0  0  0  0  0  0  0  0  0  0  0  0
   -2.8022   -0.0153    4.1816 N   0  0  0  0  0  0  0  0  0  0  0  0
   -1.6838    0.3065    5.0441 C   0  0  0  0  0  0  0  0  0  0  0  0
   -0.0290    1.9159    2.5895 N   0  0  0  0  0  0  0  0  0  0  0  0
    0.9985    1.3385    1.9021 N   0  0  0  0  0  0  0  0  0  0  0  0
    0.4889    0.7064    0.8700 C   0  0  0  0  0  0  0  0  0  0  0  0
    1.4471   -0.0380   -0.3707 S   0  0  0  0  0  0  0  0  0  0  0  0
    3.0081   -0.2707    0.5285 C   0  0  0  0  0  0  0  0  0  0  0  0
    4.0354   -0.8935   -0.4020 C   0  0  0  0  0  0  0  0  0  0  0  0
    4.3112   -2.0878   -0.3295 O   0  0  0  0  0  0  0  0  0  0  0  0
    4.5865    0.0262   -1.2837 N   0  0  0  0  0  0  0  0  0  0  0  0
    5.5760   -0.2058   -2.2612 C   0  0  0  0  0  0  0  0  0  0  0  0
    5.9408    0.8825   -3.0699 C   0  0  0  0  0  0  0  0  0  0  0  0
    6.9168    0.7453   -4.0623 C   0  0  0  0  0  0  0  0  0  0  0  0
    7.5353   -0.4854   -4.2558 C   0  0  0  0  0  0  0  0  0  0  0  0
    7.1738   -1.5618   -3.4545 C   0  0  0  0  0  0  0  0  0  0  0  0
    7.7748   -2.7445   -3.6403 F   0  0  0  0  0  0  0  0  0  0  0  0
    6.2045   -1.4346   -2.4616 C   0  0  0  0  0  0  0  0  0  0  0  0
   -2.8076    1.2235   -0.6319 C   0  0  0  0  0  0  0  0  0  0  0  0
   -3.7315    0.7407   -1.5673 C   0  0  0  0  0  0  0  0  0  0  0  0
   -6.1696   -1.0158   -4.0763 H   0  0  0  0  0  0  0  0  0  0  0  0
   -5.2069    0.4636   -3.9740 H   0  0  0  0  0  0  0  0  0  0  0  0
   -6.2415   -0.0627   -2.5886 H   0  0  0  0  0  0  0  0  0  0  0  0
   -2.6156   -2.4537   -1.8261 H   0  0  0  0  0  0  0  0  0  0  0  0
   -1.0048   -1.6429   -0.1707 H   0  0  0  0  0  0  0  0  0  0  0  0
   -3.1460    2.4143    1.8093 H   0  0  0  0  0  0  0  0  0  0  0  0
   -2.4089    2.6224    3.3643 H   0  0  0  0  0  0  0  0  0  0  0  0
   -4.8657    0.3003    1.6628 H   0  0  0  0  0  0  0  0  0  0  0  0
   -5.3618   -1.8275    3.2536 H   0  0  0  0  0  0  0  0  0  0  0  0
   -3.4761   -1.7752    5.2011 H   0  0  0  0  0  0  0  0  0  0  0  0
   -1.6414    1.3875    5.1940 H   0  0  0  0  0  0  0  0  0  0  0  0
   -0.7720   -0.0634    4.5707 H   0  0  0  0  0  0  0  0  0  0  0  0
   -1.8258   -0.1821    6.0117 H   0  0  0  0  0  0  0  0  0  0  0  0
    2.8571   -0.9377    1.3839 H   0  0  0  0  0  0  0  0  0  0  0  0
    3.3944    0.6842    0.9021 H   0  0  0  0  0  0  0  0  0  0  0  0
    4.1999    0.9632   -1.2548 H   0  0  0  0  0  0  0  0  0  0  0  0
    5.4702    1.8540   -2.9393 H   0  0  0  0  0  0  0  0  0  0  0  0
    7.1926    1.5972   -4.6789 H   0  0  0  0  0  0  0  0  0  0  0  0
    8.2954   -0.6150   -5.0196 H   0  0  0  0  0  0  0  0  0  0  0  0
    5.9733   -2.3127   -1.8708 H   0  0  0  0  0  0  0  0  0  0  0  0
   -2.8615    2.2726   -0.3533 H   0  0  0  0  0  0  0  0  0  0  0  0
   -4.4814    1.4279   -1.9459 H   0  0  0  0  0  0  0  0  0  0  0  0
  1  2  1  0
  2  3  1  0
  3  4  2  0
  4  5  1  0
  5  6  2  0
  6  7  1  0
  7  8  1  0
  8  9  1  0
  9 10  1  0
 10 11  2  0
 11 12  1  0
 12 13  2  0
 13 14  1  0
 14 15  1  0
  8 16  2  0
 16 17  1  0
 17 18  2  0
 18 19  1  0
 19 20  1  0
 20 21  1  0
 21 22  2  0
 21 23  1  0
 23 24  1  0
 24 25  2  0
 25 26  1  0
 26 27  2  0
 27 28  1  0
 28 29  1  0
 28 30  2  0
  6 31  1  0
 31 32  2  0
 32  3  1  0
 18  7  1  0
 30 24  1  0
 14 10  1  0
  1 33  1  0
  1 34  1  0
  1 35  1  0
  4 36  1  0
  5 37  1  0
  9 38  1  0
  9 39  1  0
 11 40  1  0
 12 41  1  0
 13 42  1  0
 15 43  1  0
 15 44  1  0
 15 45  1  0
 20 46  1  0
 20 47  1  0
 23 48  1  0
 25 49  1  0
 26 50  1  0
 27 51  1  0
 30 52  1  0
 31 53  1  0
 32 54  1  0
M  END
$$$$
