
     RDKit          3D

 42 44  0  0  0  0  0  0  0  0999 V2000
   -8.5082   -0.2025   -0.3312 C   0  0  0  0  0  0  0  0  0  0  0  0
   -7.5572   -0.2345    0.8365 C   0  0  0  0  0  0  0  0  0  0  0  0
   -7.9712   -0.2837    1.9932 O   0  0  0  0  0  0  0  0  0  0  0  0
   -6.0877   -0.2052    0.5740 C   0  0  0  0  0  0  0  0  0  0  0  0
   -5.2122   -0.2430    1.6649 C   0  0  0  0  0  0  0  0  0  0  0  0
   -3.8279   -0.2178    1.4642 C   0  0  0  0  0  0  0  0  0  0  0  0
   -3.2950   -0.1570    0.1715 C   0  0  0  0  0  0  0  0  0  0  0  0
   -1.8899   -0.1303    0.0538 N   0  0  0  0  0  0  0  0  0  0  0  0
   -1.1457   -0.1485   -1.1124 C   0  0  0  0  0  0  0  0  0  0  0  0
   -1.5740   -0.2609   -2.2547 O   0  0  0  0  0  0  0  0  0  0  0  0
    0.3302   -0.0644   -0.9183 C   0  0  0  0  0  0  0  0  0  0  0  0
    1.1617   -0.7542   -1.8055 C   0  0  0  0  0  0  0  0  0  0  0  0
    2.5509   -0.6993   -1.6541 C   0  0  0  0  0  0  0  0  0  0  0  0
    3.1285    0.0512   -0.6222 C   0  0  0  0  0  0  0  0  0  0  0  0
    4.5321    0.0509   -0.5393 N   0  0  0  0  0  0  0  0  0  0  0  0
    5.3412    0.6894    0.3846 C   0  0  0  0  0  0  0  0  0  0  0  0
    4.9467    1.3782    1.3198 O   0  0  0  0  0  0  0  0  0  0  0  0
    6.7543    0.4577    0.1401 C   0  0  0  0  0  0  0  0  0  0  0  0
    7.8792    0.9019    0.8092 C   0  0  0  0  0  0  0  0  0  0  0  0
    8.9981    0.3646    0.1295 C   0  0  0  0  0  0  0  0  0  0  0  0
    8.4934   -0.3755   -0.9131 C   0  0  0  0  0  0  0  0  0  0  0  0
    7.1360   -0.3286   -0.9191 O   0  0  0  0  0  0  0  0  0  0  0  0
    2.2940    0.7552    0.2490 C   0  0  0  0  0  0  0  0  0  0  0  0
    0.9016    0.7041    0.1013 C   0  0  0  0  0  0  0  0  0  0  0  0
   -4.1709   -0.1147   -0.9145 C   0  0  0  0  0  0  0  0  0  0  0  0
   -5.5589   -0.1398   -0.7180 C   0  0  0  0  0  0  0  0  0  0  0  0
   -8.3851    0.7260   -0.8947 H   0  0  0  0  0  0  0  0  0  0  0  0
   -9.5365   -0.2387    0.0421 H   0  0  0  0  0  0  0  0  0  0  0  0
   -8.3507   -1.0734   -0.9726 H   0  0  0  0  0  0  0  0  0  0  0  0
   -5.6029   -0.2927    2.6801 H   0  0  0  0  0  0  0  0  0  0  0  0
   -3.1793   -0.2491    2.3361 H   0  0  0  0  0  0  0  0  0  0  0  0
   -1.3778   -0.1694    0.9256 H   0  0  0  0  0  0  0  0  0  0  0  0
    0.7304   -1.3380   -2.6167 H   0  0  0  0  0  0  0  0  0  0  0  0
    3.1708   -1.2504   -2.3573 H   0  0  0  0  0  0  0  0  0  0  0  0
    5.0375   -0.4844   -1.2382 H   0  0  0  0  0  0  0  0  0  0  0  0
    7.8767    1.5391    1.6837 H   0  0  0  0  0  0  0  0  0  0  0  0
   10.0436    0.5000    0.3695 H   0  0  0  0  0  0  0  0  0  0  0  0
    8.9457   -0.9647   -1.6992 H   0  0  0  0  0  0  0  0  0  0  0  0
    2.6945    1.3683    1.0510 H   0  0  0  0  0  0  0  0  0  0  0  0
    0.2873    1.2970    0.7736 H   0  0  0  0  0  0  0  0  0  0  0  0
   -3.8063   -0.0572   -1.9361 H   0  0  0  0  0  0  0  0  0  0  0  0
   -6.1969   -0.1056   -1.5963 H   0  0  0  0  0  0  0  0  0  0  0  0
  1  2  1  0
  2  3  2  0
  2  4  1  0
  4  5  2  0
  5  6  1  0
  6  7  2  0
  7  8  1  0
  8  9  1  0
  9 10  2  0
  9 11  1  0
 11 12  2  0
 12 13  1  0
 13 14  2  0
 14 15  1  0
 15 16  1  0
 16 17  2  0
 16 18  1  0
 18 19  2  0
 19 20  1  0
 20 21  2  0
 21 22  1  0
 14 23  1  0
 23 24  2  0
  7 25  1  0
 25 26  2  0
 26  4  1  0
 24 11  1  0
 22 18  1  0
  1 27  1  0
  1 28  1  0
  1 29  1  0
  5 30  1  0
  6 31  1  0
  8 32  1  0
 12 33  1  0
 13 34  1  0
 15 35  1  0
 19 36  1  0
 20 37  1  0
 21 38  1  0
 23 39  1  0
 24 40  1  0
 25 41  1  0
 26 42  1  0
M  END
$$$$
