
     RDKit          3D

 35 36  0  0  0  0  0  0  0  0999 V2000
   -5.8573   -0.5205   -0.3834 C   0  0  0  0  0  0  0  0  0  0  0  0
   -5.2331    0.7318    0.1739 C   0  0  0  0  0  0  0  0  0  0  0  0
   -5.9009    1.5510    0.8016 O   0  0  0  0  0  0  0  0  0  0  0  0
   -3.7781    0.9785   -0.0541 C   0  0  0  0  0  0  0  0  0  0  0  0
   -3.0058    0.1696   -0.8971 C   0  0  0  0  0  0  0  0  0  0  0  0
   -1.6455    0.4426   -1.0797 C   0  0  0  0  0  0  0  0  0  0  0  0
   -1.0575    1.5278   -0.4309 C   0  0  0  0  0  0  0  0  0  0  0  0
    0.3390    1.7770   -0.5792 N   0  0  0  0  0  0  0  0  0  0  0  0
    1.3907    0.8459    0.3889 S   0  0  0  0  0  6  0  0  0  0  0  0
    0.6152    0.0477    1.3134 O   0  0  0  0  0  0  0  0  0  0  0  0
    2.3859    1.7948    0.8460 O   0  0  0  0  0  0  0  0  0  0  0  0
    2.1289   -0.2113   -0.8626 C   0  0  0  0  0  0  0  0  0  0  0  0
    3.1729   -1.0895   -0.2211 C   0  0  0  0  0  0  0  0  0  0  0  0
    4.5138   -0.6794   -0.1684 C   0  0  0  0  0  0  0  0  0  0  0  0
    5.4800   -1.4917    0.4299 C   0  0  0  0  0  0  0  0  0  0  0  0
    5.1114   -2.7163    0.9813 C   0  0  0  0  0  0  0  0  0  0  0  0
    6.3025   -3.7167    1.7164 Cl  0  0  0  0  0  0  0  0  0  0  0  0
    3.7835   -3.1343    0.9430 C   0  0  0  0  0  0  0  0  0  0  0  0
    2.8164   -2.3233    0.3448 C   0  0  0  0  0  0  0  0  0  0  0  0
   -1.8151    2.3307    0.4201 C   0  0  0  0  0  0  0  0  0  0  0  0
   -3.1742    2.0609    0.6014 C   0  0  0  0  0  0  0  0  0  0  0  0
   -6.8828   -0.6069   -0.0105 H   0  0  0  0  0  0  0  0  0  0  0  0
   -5.8901   -0.4709   -1.4746 H   0  0  0  0  0  0  0  0  0  0  0  0
   -5.3066   -1.4037   -0.0490 H   0  0  0  0  0  0  0  0  0  0  0  0
   -3.4362   -0.6768   -1.4242 H   0  0  0  0  0  0  0  0  0  0  0  0
   -1.0586   -0.1921   -1.7366 H   0  0  0  0  0  0  0  0  0  0  0  0
    0.6082    2.7587   -0.4728 H   0  0  0  0  0  0  0  0  0  0  0  0
    1.3375   -0.8164   -1.3142 H   0  0  0  0  0  0  0  0  0  0  0  0
    2.5722    0.4286   -1.6320 H   0  0  0  0  0  0  0  0  0  0  0  0
    4.8169    0.2809   -0.5824 H   0  0  0  0  0  0  0  0  0  0  0  0
    6.5145   -1.1605    0.4677 H   0  0  0  0  0  0  0  0  0  0  0  0
    3.4934   -4.0852    1.3822 H   0  0  0  0  0  0  0  0  0  0  0  0
    1.7803   -2.6584    0.3370 H   0  0  0  0  0  0  0  0  0  0  0  0
   -1.3627    3.1597    0.9575 H   0  0  0  0  0  0  0  0  0  0  0  0
   -3.7588    2.6938    1.2677 H   0  0  0  0  0  0  0  0  0  0  0  0
  1  2  1  0
  2  3  2  0
  2  4  1  0
  4  5  2  0
  5  6  1  0
  6  7  2  0
  7  8  1  0
  8  9  1  0
  9 10  2  0
  9 11  2  0
  9 12  1  0
 12 13  1  0
 13 14  2  0
 14 15  1  0
 15 16  2  0
 16 17  1  0
 16 18  1  0
 18 19  2  0
  7 20  1  0
 20 21  2  0
 21  4  1  0
 19 13  1  0
  1 22  1  0
  1 23  1  0
  1 24  1  0
  5 25  1  0
  6 26  1  0
  8 27  1  0
 12 28  1  0
 12 29  1  0
 14 30  1  0
 15 31  1  0
 18 32  1  0
 19 33  1  0
 20 34  1  0
 21 35  1  0
M  END
$$$$
