
     RDKit          3D

 36 37  0  0  0  0  0  0  0  0999 V2000
    1.0405    2.3121    0.1150 O   0  0  0  0  0  0  0  0  0  0  0  0
    0.4525    1.5473   -0.6447 C   0  0  0  0  0  0  0  0  0  0  0  0
   -0.8008    1.9651   -1.4165 C   0  0  0  0  0  0  0  0  0  0  0  0
   -2.0120    1.6265   -0.7404 O   0  0  0  0  0  0  0  0  0  0  0  0
   -2.3708    0.3233   -0.8200 C   0  0  0  0  0  0  0  0  0  0  0  0
   -1.7467   -0.5498   -1.4049 O   0  0  0  0  0  0  0  0  0  0  0  0
   -3.6416    0.0787   -0.0849 C   0  0  0  0  0  0  0  0  0  0  0  0
   -4.2879    1.0818    0.6527 C   0  0  0  0  0  0  0  0  0  0  0  0
   -5.4779    0.7998    1.3311 C   0  0  0  0  0  0  0  0  0  0  0  0
   -6.0227   -0.4830    1.2728 C   0  0  0  0  0  0  0  0  0  0  0  0
   -7.6313   -0.8612    2.1910 Br  0  0  0  0  0  0  0  0  0  0  0  0
   -5.3909   -1.4871    0.5406 C   0  0  0  0  0  0  0  0  0  0  0  0
   -4.2009   -1.2065   -0.1377 C   0  0  0  0  0  0  0  0  0  0  0  0
    0.8567    0.2503   -0.8810 N   0  0  0  0  0  0  0  0  0  0  0  0
    1.9388   -0.3634   -0.1330 C   0  0  0  0  0  0  0  0  0  0  0  0
    3.3209    0.2119   -0.4668 C   0  0  0  0  0  0  0  0  0  0  0  0
    4.3939   -0.5758    0.1177 N   0  0  0  0  0  0  0  0  0  0  0  0
    4.8304   -0.4217    1.4102 C   0  0  0  0  0  0  0  0  0  0  0  0
    4.2576    0.5372    2.1892 O   0  0  0  0  0  0  0  0  0  0  0  0
    5.8002   -1.2684    1.7744 C   0  0  0  0  0  0  0  0  0  0  0  0
    6.2201   -2.3423    0.4724 S   0  0  0  0  0  0  0  0  0  0  0  0
    5.0002   -1.6049   -0.5862 C   0  0  0  0  0  0  0  0  0  0  0  0
    4.7711   -1.9866   -1.7222 O   0  0  0  0  0  0  0  0  0  0  0  0
   -0.7755    3.0546   -1.5353 H   0  0  0  0  0  0  0  0  0  0  0  0
   -0.7842    1.5469   -2.4310 H   0  0  0  0  0  0  0  0  0  0  0  0
   -3.8762    2.0874    0.7138 H   0  0  0  0  0  0  0  0  0  0  0  0
   -5.9684    1.5853    1.9014 H   0  0  0  0  0  0  0  0  0  0  0  0
   -5.8134   -2.4873    0.4886 H   0  0  0  0  0  0  0  0  0  0  0  0
   -3.7128   -1.9972   -0.7064 H   0  0  0  0  0  0  0  0  0  0  0  0
    0.1603   -0.3719   -1.2952 H   0  0  0  0  0  0  0  0  0  0  0  0
    1.7241   -0.2536    0.9361 H   0  0  0  0  0  0  0  0  0  0  0  0
    1.9097   -1.4349   -0.3642 H   0  0  0  0  0  0  0  0  0  0  0  0
    3.4525    0.2201   -1.5568 H   0  0  0  0  0  0  0  0  0  0  0  0
    3.4164    1.2518   -0.1356 H   0  0  0  0  0  0  0  0  0  0  0  0
    4.6899    0.5321    3.0596 H   0  0  0  0  0  0  0  0  0  0  0  0
    6.2781   -1.3166    2.7420 H   0  0  0  0  0  0  0  0  0  0  0  0
  1  2  2  0
  2  3  1  0
  3  4  1  0
  4  5  1  0
  5  6  2  0
  5  7  1  0
  7  8  2  0
  8  9  1  0
  9 10  2  0
 10 11  1  0
 10 12  1  0
 12 13  2  0
  2 14  1  0
 14 15  1  0
 15 16  1  0
 16 17  1  0
 17 18  1  0
 18 19  1  0
 18 20  2  0
 20 21  1  0
 21 22  1  0
 22 23  2  0
 13  7  1  0
 22 17  1  0
  3 24  1  0
  3 25  1  0
  8 26  1  0
  9 27  1  0
 12 28  1  0
 13 29  1  0
 14 30  1  0
 15 31  1  0
 15 32  1  0
 16 33  1  0
 16 34  1  0
 19 35  1  0
 20 36  1  0
M  END
$$$$
