
     RDKit          3D

 31 32  0  0  0  0  0  0  0  0999 V2000
    2.4921   -1.0535    1.8438 C   0  0  0  0  0  0  0  0  0  0  0  0
    2.1696   -1.6607    0.4864 C   0  0  0  0  0  0  0  0  0  0  0  0
    2.5522   -0.7726   -0.6082 N   0  0  0  0  0  0  0  0  0  0  0  0
    1.9107    0.3435   -1.0599 C   0  0  0  0  0  0  0  0  0  0  0  0
    0.5846    0.7496   -0.6456 C   0  0  0  0  0  0  0  0  0  0  0  0
    0.2757    2.0669   -0.3601 C   0  0  0  0  0  0  0  0  0  0  0  0
   -1.3471    2.2860    0.1172 S   0  0  0  0  0  0  0  0  0  0  0  0
   -1.7066    0.6262   -0.1054 C   0  0  0  0  0  0  0  0  0  0  0  0
   -3.0940    0.0698    0.1308 C   0  0  0  0  0  0  0  0  0  0  0  0
   -3.5307    0.2160    1.5891 C   0  0  0  0  0  0  0  0  0  0  0  0
   -4.1271    0.6764   -0.8197 C   0  0  0  0  0  0  0  0  0  0  0  0
   -0.5869   -0.0696   -0.5240 C   0  0  0  0  0  0  0  0  0  0  0  0
    2.5936    1.0648   -1.9044 N   0  0  0  0  0  0  0  0  0  0  0  0
    3.7684    0.3876   -2.0443 N   0  0  0  0  0  0  0  0  0  0  0  0
    3.7790   -0.7339   -1.2302 C   0  0  0  0  0  0  0  0  0  0  0  0
    5.0805   -1.7511   -1.0964 S   0  0  0  0  0  0  0  0  0  0  0  0
    1.9529   -0.1130    1.9958 H   0  0  0  0  0  0  0  0  0  0  0  0
    3.5621   -0.8424    1.9387 H   0  0  0  0  0  0  0  0  0  0  0  0
    2.2072   -1.7424    2.6449 H   0  0  0  0  0  0  0  0  0  0  0  0
    1.1021   -1.8772    0.4300 H   0  0  0  0  0  0  0  0  0  0  0  0
    2.6953   -2.6148    0.3810 H   0  0  0  0  0  0  0  0  0  0  0  0
    0.9426    2.9187   -0.3972 H   0  0  0  0  0  0  0  0  0  0  0  0
   -3.0560   -1.0073   -0.0843 H   0  0  0  0  0  0  0  0  0  0  0  0
   -3.6602    1.2657    1.8746 H   0  0  0  0  0  0  0  0  0  0  0  0
   -2.7918   -0.2263    2.2667 H   0  0  0  0  0  0  0  0  0  0  0  0
   -4.4861   -0.2929    1.7571 H   0  0  0  0  0  0  0  0  0  0  0  0
   -3.8142    0.5640   -1.8638 H   0  0  0  0  0  0  0  0  0  0  0  0
   -4.2813    1.7442   -0.6298 H   0  0  0  0  0  0  0  0  0  0  0  0
   -5.0952    0.1768   -0.7045 H   0  0  0  0  0  0  0  0  0  0  0  0
   -0.6176   -1.1276   -0.7548 H   0  0  0  0  0  0  0  0  0  0  0  0
    4.5262    0.7291   -2.6235 H   0  0  0  0  0  0  0  0  0  0  0  0
  1  2  1  0
  2  3  1  0
  3  4  1  0
  4  5  1  0
  5  6  2  0
  6  7  1  0
  7  8  1  0
  8  9  1  0
  9 10  1  0
  9 11  1  0
  8 12  2  0
  4 13  2  0
 13 14  1  0
 14 15  1  0
 15 16  2  0
 15  3  1  0
 12  5  1  0
  1 17  1  0
  1 18  1  0
  1 19  1  0
  2 20  1  0
  2 21  1  0
  6 22  1  0
  9 23  1  0
 10 24  1  0
 10 25  1  0
 10 26  1  0
 11 27  1  0
 11 28  1  0
 11 29  1  0
 12 30  1  0
 14 31  1  0
M  END
$$$$
