
     RDKit          3D

 58 62  0  0  0  0  0  0  0  0999 V2000
   -0.1282    2.9485   -2.6056 O   0  0  0  0  0  0  0  0  0  0  0  0
   -0.5806    2.8123   -1.4693 C   0  0  0  0  0  0  0  0  0  0  0  0
   -1.8756    3.5221   -1.0857 C   0  0  0  0  0  0  0  0  0  0  0  0
   -2.7998    2.7434    0.2714 S   0  0  0  0  0  0  0  0  0  0  0  0
   -3.2140    1.1792   -0.4353 C   0  0  0  0  0  0  0  0  0  0  0  0
   -2.9890    1.0345   -1.6989 N   0  0  0  0  0  0  0  0  0  0  0  0
   -3.3780   -0.1492   -2.3225 C   0  0  0  0  0  0  0  0  0  0  0  0
   -3.0639   -0.3354   -3.6706 C   0  0  0  0  0  0  0  0  0  0  0  0
   -3.4586   -1.4970   -4.3384 C   0  0  0  0  0  0  0  0  0  0  0  0
   -4.1761   -2.4806   -3.6609 C   0  0  0  0  0  0  0  0  0  0  0  0
   -4.4927   -2.3044   -2.3142 C   0  0  0  0  0  0  0  0  0  0  0  0
   -4.0883   -1.1381   -1.6534 C   0  0  0  0  0  0  0  0  0  0  0  0
   -4.3683   -0.9350   -0.2200 C   0  0  0  0  0  0  0  0  0  0  0  0
   -5.0149   -1.7987    0.3698 O   0  0  0  0  0  0  0  0  0  0  0  0
   -3.8392    0.2219    0.3638 N   0  0  0  0  0  0  0  0  0  0  0  0
   -3.9341    0.3363    1.7889 C   0  0  0  0  0  0  0  0  0  0  0  0
   -5.1746    0.2100    2.4330 C   0  0  0  0  0  0  0  0  0  0  0  0
   -5.2606    0.3017    3.8248 C   0  0  0  0  0  0  0  0  0  0  0  0
   -4.1070    0.5042    4.5754 C   0  0  0  0  0  0  0  0  0  0  0  0
   -4.1946    0.5855    5.9087 F   0  0  0  0  0  0  0  0  0  0  0  0
   -2.8655    0.6099    3.9655 C   0  0  0  0  0  0  0  0  0  0  0  0
   -2.7868    0.5203    2.5796 C   0  0  0  0  0  0  0  0  0  0  0  0
   -1.5727    0.5673    2.0088 F   0  0  0  0  0  0  0  0  0  0  0  0
    0.0308    2.1271   -0.4343 N   0  0  0  0  0  0  0  0  0  0  0  0
    1.2445    1.4138   -0.4665 C   0  0  0  0  0  0  0  0  0  0  0  0
    1.6377    0.7632    0.7018 C   0  0  0  0  0  0  0  0  0  0  0  0
    2.8395    0.0402    0.7517 C   0  0  0  0  0  0  0  0  0  0  0  0
    3.6974   -0.0561   -0.3533 C   0  0  0  0  0  0  0  0  0  0  0  0
    4.8877   -0.7566   -0.2996 N   0  0  0  0  0  0  0  0  0  0  0  0
    5.1688   -1.7404    0.7558 C   0  0  0  0  0  0  0  0  0  0  0  0
    6.2776   -2.7032    0.3035 C   0  0  0  0  0  0  0  0  0  0  0  0
    7.5148   -2.0515   -0.0041 O   0  0  0  0  0  0  0  0  0  0  0  0
    7.3430   -0.7349   -0.5518 C   0  0  0  0  0  0  0  0  0  0  0  0
    5.9887   -0.4979   -1.2422 C   0  0  0  0  0  0  0  0  0  0  0  0
    3.2732    0.5974   -1.5190 C   0  0  0  0  0  0  0  0  0  0  0  0
    2.0703    1.3200   -1.5810 C   0  0  0  0  0  0  0  0  0  0  0  0
   -2.5195    3.5996   -1.9681 H   0  0  0  0  0  0  0  0  0  0  0  0
   -1.6114    4.5385   -0.7744 H   0  0  0  0  0  0  0  0  0  0  0  0
   -2.5042    0.4308   -4.2019 H   0  0  0  0  0  0  0  0  0  0  0  0
   -3.2036   -1.6318   -5.3872 H   0  0  0  0  0  0  0  0  0  0  0  0
   -4.4812   -3.3882   -4.1775 H   0  0  0  0  0  0  0  0  0  0  0  0
   -5.0432   -3.0773   -1.7816 H   0  0  0  0  0  0  0  0  0  0  0  0
   -6.0842    0.0467    1.8582 H   0  0  0  0  0  0  0  0  0  0  0  0
   -6.2193    0.2092    4.3267 H   0  0  0  0  0  0  0  0  0  0  0  0
   -1.9711    0.7450    4.5632 H   0  0  0  0  0  0  0  0  0  0  0  0
   -0.4800    2.1005    0.4421 H   0  0  0  0  0  0  0  0  0  0  0  0
    1.0236    0.8048    1.5969 H   0  0  0  0  0  0  0  0  0  0  0  0
    3.0997   -0.4289    1.6961 H   0  0  0  0  0  0  0  0  0  0  0  0
    5.4841   -1.2154    1.6640 H   0  0  0  0  0  0  0  0  0  0  0  0
    4.2773   -2.3346    0.9805 H   0  0  0  0  0  0  0  0  0  0  0  0
    6.4810   -3.4375    1.0891 H   0  0  0  0  0  0  0  0  0  0  0  0
    5.9625   -3.2583   -0.5864 H   0  0  0  0  0  0  0  0  0  0  0  0
    7.4761   -0.0191    0.2679 H   0  0  0  0  0  0  0  0  0  0  0  0
    8.1578   -0.5668   -1.2634 H   0  0  0  0  0  0  0  0  0  0  0  0
    5.9795    0.5368   -1.6023 H   0  0  0  0  0  0  0  0  0  0  0  0
    5.8842   -1.1680   -2.1032 H   0  0  0  0  0  0  0  0  0  0  0  0
    3.8630    0.5414   -2.4309 H   0  0  0  0  0  0  0  0  0  0  0  0
    1.8179    1.7933   -2.5231 H   0  0  0  0  0  0  0  0  0  0  0  0
  1  2  2  0
  2  3  1  0
  3  4  1  0
  4  5  1  0
  5  6  2  0
  6  7  1  0
  7  8  2  0
  8  9  1  0
  9 10  2  0
 10 11  1  0
 11 12  2  0
 12 13  1  0
 13 14  2  0
 13 15  1  0
 15 16  1  0
 16 17  2  0
 17 18  1  0
 18 19  2  0
 19 20  1  0
 19 21  1  0
 21 22  2  0
 22 23  1  0
  2 24  1  0
 24 25  1  0
 25 26  2  0
 26 27  1  0
 27 28  2  0
 28 29  1  0
 29 30  1  0
 30 31  1  0
 31 32  1  0
 32 33  1  0
 33 34  1  0
 28 35  1  0
 35 36  2  0
 15  5  1  0
 22 16  1  0
 36 25  1  0
 12  7  1  0
 34 29  1  0
  3 37  1  0
  3 38  1  0
  8 39  1  0
  9 40  1  0
 10 41  1  0
 11 42  1  0
 17 43  1  0
 18 44  1  0
 21 45  1  0
 24 46  1  0
 26 47  1  0
 27 48  1  0
 30 49  1  0
 30 50  1  0
 31 51  1  0
 31 52  1  0
 33 53  1  0
 33 54  1  0
 34 55  1  0
 34 56  1  0
 35 57  1  0
 36 58  1  0
M  END
$$$$
