
     RDKit          3D

 57 60  0  0  0  0  0  0  0  0999 V2000
   -5.5308    2.2625    4.5747 C   0  0  0  0  0  0  0  0  0  0  0  0
   -5.1236    2.4372    3.2229 O   0  0  0  0  0  0  0  0  0  0  0  0
   -4.4486    1.3991    2.6403 C   0  0  0  0  0  0  0  0  0  0  0  0
   -4.1426    0.1808    3.2442 C   0  0  0  0  0  0  0  0  0  0  0  0
   -3.4413   -0.8027    2.5367 C   0  0  0  0  0  0  0  0  0  0  0  0
   -3.0421   -0.5738    1.2207 C   0  0  0  0  0  0  0  0  0  0  0  0
   -2.3298   -1.5096    0.4390 N   0  0  0  0  0  0  0  0  0  0  0  0
   -1.8688   -2.7607    0.7982 C   0  0  0  0  0  0  0  0  0  0  0  0
   -2.0379   -3.3012    1.8893 O   0  0  0  0  0  0  0  0  0  0  0  0
   -1.1568   -3.5043   -0.3189 C   0  0  0  0  0  0  0  0  0  0  0  0
   -0.0859   -2.7248   -0.9247 N   0  0  0  0  0  0  0  0  0  0  0  0
    1.1543   -2.5708   -0.3644 C   0  0  0  0  0  0  0  0  0  0  0  0
    1.8964   -1.7587   -1.1963 C   0  0  0  0  0  0  0  0  0  0  0  0
    3.5162   -1.2175   -0.8986 S   0  0  0  0  0  6  0  0  0  0  0  0
    3.9627   -2.0384    0.2111 O   0  0  0  0  0  0  0  0  0  0  0  0
    4.1516   -1.2545   -2.2010 O   0  0  0  0  0  0  0  0  0  0  0  0
    3.2600    0.4706   -0.3623 C   0  0  0  0  0  0  0  0  0  0  0  0
    4.5918    1.0975   -0.0449 C   0  0  0  0  0  0  0  0  0  0  0  0
    5.2903    1.8202   -1.0226 C   0  0  0  0  0  0  0  0  0  0  0  0
    6.5281    2.3949   -0.7282 C   0  0  0  0  0  0  0  0  0  0  0  0
    7.0808    2.2513    0.5423 C   0  0  0  0  0  0  0  0  0  0  0  0
    6.3984    1.5302    1.5201 C   0  0  0  0  0  0  0  0  0  0  0  0
    5.1603    0.9552    1.2293 C   0  0  0  0  0  0  0  0  0  0  0  0
    1.0816   -1.4071   -2.3105 C   0  0  0  0  0  0  0  0  0  0  0  0
    1.2675   -0.6207   -3.4685 C   0  0  0  0  0  0  0  0  0  0  0  0
    0.2228   -0.4709   -4.3854 C   0  0  0  0  0  0  0  0  0  0  0  0
   -1.0003   -1.0935   -4.1692 C   0  0  0  0  0  0  0  0  0  0  0  0
   -1.2135   -1.8836   -3.0370 C   0  0  0  0  0  0  0  0  0  0  0  0
   -0.1607   -2.0285   -2.1169 C   0  0  0  0  0  0  0  0  0  0  0  0
   -3.3521    0.6566    0.6051 C   0  0  0  0  0  0  0  0  0  0  0  0
   -2.9175    0.7874   -0.6947 O   0  0  0  0  0  0  0  0  0  0  0  0
   -3.1920    2.0213   -1.3473 C   0  0  0  0  0  0  0  0  0  0  0  0
   -4.0527    1.6319    1.3195 C   0  0  0  0  0  0  0  0  0  0  0  0
   -6.0355    3.1801    4.8924 H   0  0  0  0  0  0  0  0  0  0  0  0
   -4.6681    2.1127    5.2317 H   0  0  0  0  0  0  0  0  0  0  0  0
   -6.2467    1.4396    4.6662 H   0  0  0  0  0  0  0  0  0  0  0  0
   -4.4331   -0.0431    4.2653 H   0  0  0  0  0  0  0  0  0  0  0  0
   -3.2230   -1.7366    3.0451 H   0  0  0  0  0  0  0  0  0  0  0  0
   -2.1130   -1.1577   -0.4908 H   0  0  0  0  0  0  0  0  0  0  0  0
   -0.7019   -4.4169    0.0825 H   0  0  0  0  0  0  0  0  0  0  0  0
   -1.8777   -3.7959   -1.0871 H   0  0  0  0  0  0  0  0  0  0  0  0
    1.4153   -3.0410    0.5772 H   0  0  0  0  0  0  0  0  0  0  0  0
    2.7526    1.0177   -1.1626 H   0  0  0  0  0  0  0  0  0  0  0  0
    2.6139    0.4589    0.5214 H   0  0  0  0  0  0  0  0  0  0  0  0
    4.8834    1.9333   -2.0253 H   0  0  0  0  0  0  0  0  0  0  0  0
    7.0661    2.9484   -1.4938 H   0  0  0  0  0  0  0  0  0  0  0  0
    8.0481    2.6934    0.7684 H   0  0  0  0  0  0  0  0  0  0  0  0
    6.8350    1.4077    2.5079 H   0  0  0  0  0  0  0  0  0  0  0  0
    4.6506    0.3830    2.0029 H   0  0  0  0  0  0  0  0  0  0  0  0
    2.2233   -0.1426   -3.6689 H   0  0  0  0  0  0  0  0  0  0  0  0
    0.3757    0.1285   -5.2798 H   0  0  0  0  0  0  0  0  0  0  0  0
   -1.8002   -0.9729   -4.8967 H   0  0  0  0  0  0  0  0  0  0  0  0
   -2.1740   -2.3686   -2.8928 H   0  0  0  0  0  0  0  0  0  0  0  0
   -2.7724    1.9638   -2.3560 H   0  0  0  0  0  0  0  0  0  0  0  0
   -4.2700    2.1851   -1.4436 H   0  0  0  0  0  0  0  0  0  0  0  0
   -2.7073    2.8580   -0.8327 H   0  0  0  0  0  0  0  0  0  0  0  0
   -4.3071    2.5897    0.8789 H   0  0  0  0  0  0  0  0  0  0  0  0
  1  2  1  0
  2  3  1  0
  3  4  2  0
  4  5  1  0
  5  6  2  0
  6  7  1  0
  7  8  1  0
  8  9  2  0
  8 10  1  0
 10 11  1  0
 11 12  1  0
 12 13  2  0
 13 14  1  0
 14 15  2  0
 14 16  2  0
 14 17  1  0
 17 18  1  0
 18 19  2  0
 19 20  1  0
 20 21  2  0
 21 22  1  0
 22 23  2  0
 13 24  1  0
 24 25  2  0
 25 26  1  0
 26 27  2  0
 27 28  1  0
 28 29  2  0
  6 30  1  0
 30 31  1  0
 31 32  1  0
 30 33  2  0
 33  3  1  0
 29 11  1  0
 23 18  1  0
 29 24  1  0
  1 34  1  0
  1 35  1  0
  1 36  1  0
  4 37  1  0
  5 38  1  0
  7 39  1  0
 10 40  1  0
 10 41  1  0
 12 42  1  0
 17 43  1  0
 17 44  1  0
 19 45  1  0
 20 46  1  0
 21 47  1  0
 22 48  1  0
 23 49  1  0
 25 50  1  0
 26 51  1  0
 27 52  1  0
 28 53  1  0
 32 54  1  0
 32 55  1  0
 32 56  1  0
 33 57  1  0
M  END
$$$$
