
     RDKit          3D

 49 53  0  0  0  0  0  0  0  0999 V2000
   -0.9674   -0.1502    3.2199 O   0  0  0  0  0  0  0  0  0  0  0  0
   -0.8962   -0.1389    1.9882 C   0  0  0  0  0  0  0  0  0  0  0  0
   -2.1056   -0.0362    1.1844 C   0  0  0  0  0  0  0  0  0  0  0  0
   -3.3927    0.2947    1.5746 C   0  0  0  0  0  0  0  0  0  0  0  0
   -4.2237    0.2179    0.4226 C   0  0  0  0  0  0  0  0  0  0  0  0
   -3.3804   -0.1772   -0.6070 C   0  0  0  0  0  0  0  0  0  0  0  0
   -3.7859   -0.3814   -1.9223 C   0  0  0  0  0  0  0  0  0  0  0  0
   -5.1400   -0.1668   -2.2027 C   0  0  0  0  0  0  0  0  0  0  0  0
   -6.0469    0.2334   -1.2068 C   0  0  0  0  0  0  0  0  0  0  0  0
   -7.4035    0.4453   -1.4960 C   0  0  0  0  0  0  0  0  0  0  0  0
   -8.2958    0.8419   -0.4959 C   0  0  0  0  0  0  0  0  0  0  0  0
   -7.8491    1.0334    0.8102 C   0  0  0  0  0  0  0  0  0  0  0  0
   -6.5061    0.8301    1.1261 C   0  0  0  0  0  0  0  0  0  0  0  0
   -5.5973    0.4306    0.1258 C   0  0  0  0  0  0  0  0  0  0  0  0
   -2.1098   -0.3380   -0.1503 O   0  0  0  0  0  0  0  0  0  0  0  0
    0.3516   -0.2226    1.3646 N   0  0  0  0  0  0  0  0  0  0  0  0
    1.5400   -0.4410    2.1928 C   0  0  0  0  0  0  0  0  0  0  0  0
    2.6413   -1.2330    1.4615 C   0  0  0  0  0  0  0  0  0  0  0  0
    2.9655   -0.6750    0.1278 N   0  0  0  0  0  0  0  0  0  0  0  0
    4.3305   -0.4577   -0.1101 C   0  0  0  0  0  0  0  0  0  0  0  0
    4.7256    0.8122   -0.3864 N   0  0  0  0  0  0  0  0  0  0  0  0
    6.0368    1.0635   -0.6139 C   0  0  0  0  0  0  0  0  0  0  0  0
    7.0260    0.0983   -0.5878 C   0  0  0  0  0  0  0  0  0  0  0  0
    8.4472    0.4640   -0.8758 C   0  0  0  0  0  0  0  0  0  0  0  0
    8.7178    0.4784   -2.2087 F   0  0  0  0  0  0  0  0  0  0  0  0
    9.3429   -0.3974   -0.3199 F   0  0  0  0  0  0  0  0  0  0  0  0
    8.7823    1.6991   -0.4115 F   0  0  0  0  0  0  0  0  0  0  0  0
    6.6264   -1.2135   -0.3335 C   0  0  0  0  0  0  0  0  0  0  0  0
    5.2781   -1.5000   -0.0960 C   0  0  0  0  0  0  0  0  0  0  0  0
    4.8602   -3.1630    0.1359 Cl  0  0  0  0  0  0  0  0  0  0  0  0
    2.0801    0.4085   -0.3375 C   0  0  0  0  0  0  0  0  0  0  0  0
    0.6069    0.0607   -0.0548 C   0  0  0  0  0  0  0  0  0  0  0  0
   -3.6839    0.5582    2.5821 H   0  0  0  0  0  0  0  0  0  0  0  0
   -3.0850   -0.6931   -2.6872 H   0  0  0  0  0  0  0  0  0  0  0  0
   -5.4864   -0.3196   -3.2237 H   0  0  0  0  0  0  0  0  0  0  0  0
   -7.7799    0.3024   -2.5067 H   0  0  0  0  0  0  0  0  0  0  0  0
   -9.3437    1.0009   -0.7385 H   0  0  0  0  0  0  0  0  0  0  0  0
   -8.5480    1.3410    1.5839 H   0  0  0  0  0  0  0  0  0  0  0  0
   -6.1758    0.9835    2.1501 H   0  0  0  0  0  0  0  0  0  0  0  0
    1.9150    0.5492    2.4796 H   0  0  0  0  0  0  0  0  0  0  0  0
    1.2706   -0.9665    3.1154 H   0  0  0  0  0  0  0  0  0  0  0  0
    2.2849   -2.2595    1.3140 H   0  0  0  0  0  0  0  0  0  0  0  0
    3.5190   -1.2752    2.1186 H   0  0  0  0  0  0  0  0  0  0  0  0
    6.2655    2.1069   -0.8244 H   0  0  0  0  0  0  0  0  0  0  0  0
    7.3615   -2.0165   -0.3312 H   0  0  0  0  0  0  0  0  0  0  0  0
    2.2029    0.5572   -1.4175 H   0  0  0  0  0  0  0  0  0  0  0  0
    2.3204    1.3531    0.1687 H   0  0  0  0  0  0  0  0  0  0  0  0
   -0.0232    0.8953   -0.3781 H   0  0  0  0  0  0  0  0  0  0  0  0
    0.3272   -0.8374   -0.6175 H   0  0  0  0  0  0  0  0  0  0  0  0
  1  2  2  0
  2  3  1  0
  3  4  2  0
  4  5  1  0
  5  6  2  0
  6  7  1  0
  7  8  2  0
  8  9  1  0
  9 10  2  0
 10 11  1  0
 11 12  2  0
 12 13  1  0
 13 14  2  0
  6 15  1  0
  2 16  1  0
 16 17  1  0
 17 18  1  0
 18 19  1  0
 19 20  1  0
 20 21  2  0
 21 22  1  0
 22 23  2  0
 23 24  1  0
 24 25  1  0
 24 26  1  0
 24 27  1  0
 23 28  1  0
 28 29  2  0
 29 30  1  0
 19 31  1  0
 31 32  1  0
 15  3  1  0
 32 16  1  0
 14  5  1  0
 29 20  1  0
 14  9  1  0
  4 33  1  0
  7 34  1  0
  8 35  1  0
 10 36  1  0
 11 37  1  0
 12 38  1  0
 13 39  1  0
 17 40  1  0
 17 41  1  0
 18 42  1  0
 18 43  1  0
 22 44  1  0
 28 45  1  0
 31 46  1  0
 31 47  1  0
 32 48  1  0
 32 49  1  0
M  END
$$$$
