
     RDKit          3D

 61 66  0  0  0  0  0  0  0  0999 V2000
   -3.2283    2.0366   -0.1697 C   0  0  0  0  0  0  0  0  0  0  0  0
   -1.7485    2.1217   -0.5235 C   0  0  0  0  0  0  0  0  0  0  0  0
   -0.8852    1.5871    0.6200 C   0  0  0  0  0  0  0  0  0  0  0  0
   -1.4547    1.5738   -1.9151 C   0  0  0  0  0  0  0  0  0  0  0  0
   -1.4959    2.5168   -2.9653 C   0  0  0  0  0  0  0  0  0  0  0  0
   -1.1699    2.1824   -4.2840 C   0  0  0  0  0  0  0  0  0  0  0  0
   -0.7875    0.8845   -4.5977 C   0  0  0  0  0  0  0  0  0  0  0  0
   -0.7539   -0.0802   -3.5972 C   0  0  0  0  0  0  0  0  0  0  0  0
   -1.1104    0.2538   -2.2745 C   0  0  0  0  0  0  0  0  0  0  0  0
   -1.1234   -0.8197   -1.3609 N   0  0  0  0  0  0  0  0  0  0  0  0
   -0.0283   -1.5058   -0.8853 C   0  0  0  0  0  0  0  0  0  0  0  0
    1.6096   -1.0146   -1.1475 S   0  0  0  0  0  0  0  0  0  0  0  0
    2.5455   -2.2778   -0.2480 C   0  0  0  0  0  0  0  0  0  0  0  0
    2.4638   -2.1412    1.2480 C   0  0  0  0  0  0  0  0  0  0  0  0
    1.8452   -3.1449    1.8977 C   0  0  0  0  0  0  0  0  0  0  0  0
    1.5967   -3.1772    3.3355 C   0  0  0  0  0  0  0  0  0  0  0  0
    1.1495   -4.1669    3.8995 O   0  0  0  0  0  0  0  0  0  0  0  0
    1.8618   -2.0131    4.0051 O   0  0  0  0  0  0  0  0  0  0  0  0
    2.5894   -0.9706    3.3969 C   0  0  0  0  0  0  0  0  0  0  0  0
    2.8931    0.0607    4.2775 C   0  0  0  0  0  0  0  0  0  0  0  0
    3.6587    1.1203    3.8373 C   0  0  0  0  0  0  0  0  0  0  0  0
    4.1432    1.1487    2.5328 C   0  0  0  0  0  0  0  0  0  0  0  0
    4.9381    2.2510    2.1681 C   0  0  0  0  0  0  0  0  0  0  0  0
    5.4949    2.3512    0.9004 C   0  0  0  0  0  0  0  0  0  0  0  0
    5.2802    1.3303   -0.0042 C   0  0  0  0  0  0  0  0  0  0  0  0
    4.4771    0.2339    0.3451 C   0  0  0  0  0  0  0  0  0  0  0  0
    3.8483    0.0917    1.6130 C   0  0  0  0  0  0  0  0  0  0  0  0
    2.9964   -0.9924    2.0486 C   0  0  0  0  0  0  0  0  0  0  0  0
   -0.4159   -2.5356   -0.1793 N   0  0  0  0  0  0  0  0  0  0  0  0
   -1.7803   -2.5648   -0.2016 N   0  0  0  0  0  0  0  0  0  0  0  0
   -2.2209   -1.5733   -0.9523 C   0  0  0  0  0  0  0  0  0  0  0  0
   -3.6386   -1.3630   -1.2593 C   0  0  0  0  0  0  0  0  0  0  0  0
   -4.5966   -1.6214   -0.2719 C   0  0  0  0  0  0  0  0  0  0  0  0
   -5.9467   -1.3874   -0.5148 C   0  0  0  0  0  0  0  0  0  0  0  0
   -6.3096   -0.9454   -1.7743 C   0  0  0  0  0  0  0  0  0  0  0  0
   -5.4320   -0.7146   -2.7678 N   0  0  0  0  0  0  0  0  0  0  0  0
   -4.1184   -0.9265   -2.4876 C   0  0  0  0  0  0  0  0  0  0  0  0
   -3.5261    1.0176    0.0796 H   0  0  0  0  0  0  0  0  0  0  0  0
   -3.8627    2.3854   -0.9913 H   0  0  0  0  0  0  0  0  0  0  0  0
   -3.4428    2.6565    0.7037 H   0  0  0  0  0  0  0  0  0  0  0  0
   -1.5009    3.1957   -0.5596 H   0  0  0  0  0  0  0  0  0  0  0  0
   -1.0278    2.1997    1.5157 H   0  0  0  0  0  0  0  0  0  0  0  0
   -1.1435    0.5618    0.8919 H   0  0  0  0  0  0  0  0  0  0  0  0
    0.1755    1.6256    0.3683 H   0  0  0  0  0  0  0  0  0  0  0  0
   -1.7807    3.5485   -2.7624 H   0  0  0  0  0  0  0  0  0  0  0  0
   -1.2063    2.9382   -5.0607 H   0  0  0  0  0  0  0  0  0  0  0  0
   -0.5206    0.6207   -5.6191 H   0  0  0  0  0  0  0  0  0  0  0  0
   -0.4716   -1.0987   -3.8619 H   0  0  0  0  0  0  0  0  0  0  0  0
    3.5915   -2.2812   -0.5731 H   0  0  0  0  0  0  0  0  0  0  0  0
    2.1673   -3.2478   -0.5866 H   0  0  0  0  0  0  0  0  0  0  0  0
    1.4270   -3.9981    1.3742 H   0  0  0  0  0  0  0  0  0  0  0  0
    2.5419    0.0310    5.3037 H   0  0  0  0  0  0  0  0  0  0  0  0
    3.9012    1.9112    4.5420 H   0  0  0  0  0  0  0  0  0  0  0  0
    5.1226    3.0590    2.8734 H   0  0  0  0  0  0  0  0  0  0  0  0
    6.1061    3.2074    0.6311 H   0  0  0  0  0  0  0  0  0  0  0  0
    5.7220    1.3825   -0.9995 H   0  0  0  0  0  0  0  0  0  0  0  0
    4.3860   -0.5153   -0.4240 H   0  0  0  0  0  0  0  0  0  0  0  0
   -4.2900   -1.9803    0.7064 H   0  0  0  0  0  0  0  0  0  0  0  0
   -6.6990   -1.5552    0.2512 H   0  0  0  0  0  0  0  0  0  0  0  0
   -7.3469   -0.7357   -2.0160 H   0  0  0  0  0  0  0  0  0  0  0  0
   -3.4686   -0.7366   -3.3313 H   0  0  0  0  0  0  0  0  0  0  0  0
  1  2  1  0
  2  3  1  0
  2  4  1  0
  4  5  2  0
  5  6  1  0
  6  7  2  0
  7  8  1  0
  8  9  2  0
  9 10  1  0
 10 11  1  0
 11 12  1  0
 12 13  1  0
 13 14  1  0
 14 15  2  0
 15 16  1  0
 16 17  2  0
 16 18  1  0
 18 19  1  0
 19 20  2  0
 20 21  1  0
 21 22  2  0
 22 23  1  0
 23 24  2  0
 24 25  1  0
 25 26  2  0
 26 27  1  0
 27 28  2  0
 11 29  2  0
 29 30  1  0
 30 31  2  0
 31 32  1  0
 32 33  2  0
 33 34  1  0
 34 35  2  0
 35 36  1  0
 36 37  2  0
  9  4  1  0
 31 10  1  0
 37 32  1  0
 28 14  1  0
 28 19  1  0
 27 22  1  0
  1 38  1  0
  1 39  1  0
  1 40  1  0
  2 41  1  0
  3 42  1  0
  3 43  1  0
  3 44  1  0
  5 45  1  0
  6 46  1  0
  7 47  1  0
  8 48  1  0
 13 49  1  0
 13 50  1  0
 15 51  1  0
 20 52  1  0
 21 53  1  0
 23 54  1  0
 24 55  1  0
 25 56  1  0
 26 57  1  0
 33 58  1  0
 34 59  1  0
 35 60  1  0
 37 61  1  0
M  END
$$$$
