
     RDKit          3D

 55 58  0  0  0  0  0  0  0  0999 V2000
    4.8122   -2.1133    1.0265 C   0  0  0  0  0  0  0  0  0  0  0  0
    3.7650   -1.2743    1.5497 N   0  0  0  0  0  0  0  0  0  0  0  0
    3.6649    0.0957    1.4202 C   0  0  0  0  0  0  0  0  0  0  0  0
    4.6424    0.9826    0.7231 C   0  0  0  0  0  0  0  0  0  0  0  0
    4.8953    0.6359   -0.7262 C   0  0  0  0  0  0  0  0  0  0  0  0
    6.2066    0.4043   -1.1731 C   0  0  0  0  0  0  0  0  0  0  0  0
    6.4559    0.1023   -2.5129 C   0  0  0  0  0  0  0  0  0  0  0  0
    5.3997    0.0378   -3.4237 C   0  0  0  0  0  0  0  0  0  0  0  0
    4.0939    0.2736   -2.9950 C   0  0  0  0  0  0  0  0  0  0  0  0
    3.8413    0.5745   -1.6541 C   0  0  0  0  0  0  0  0  0  0  0  0
    2.5734    0.5007    2.0497 N   0  0  0  0  0  0  0  0  0  0  0  0
    1.9501   -0.5972    2.5788 N   0  0  0  0  0  0  0  0  0  0  0  0
    2.6530   -1.6562    2.2481 C   0  0  0  0  0  0  0  0  0  0  0  0
    2.2260   -3.2969    2.5892 S   0  0  0  0  0  0  0  0  0  0  0  0
    0.6261   -3.0831    3.4257 C   0  0  0  0  0  0  0  0  0  0  0  0
   -0.4944   -2.8128    2.4287 C   0  0  0  0  0  0  0  0  0  0  0  0
   -1.1680   -3.7368    1.9752 O   0  0  0  0  0  0  0  0  0  0  0  0
   -0.6508   -1.4704    2.1344 N   0  0  0  0  0  0  0  0  0  0  0  0
   -1.6767   -0.8613    1.3886 C   0  0  0  0  0  0  0  0  0  0  0  0
   -1.5490    0.5018    1.1218 C   0  0  0  0  0  0  0  0  0  0  0  0
   -2.5510    1.1915    0.4220 C   0  0  0  0  0  0  0  0  0  0  0  0
   -3.7173    0.5545   -0.0296 C   0  0  0  0  0  0  0  0  0  0  0  0
   -4.7135    1.2367   -0.7086 N   0  0  0  0  0  0  0  0  0  0  0  0
   -6.0984    0.7391   -0.7647 C   0  0  0  0  0  0  0  0  0  0  0  0
   -7.0779    1.9185   -0.8954 C   0  0  0  0  0  0  0  0  0  0  0  0
   -6.8591    2.7375   -2.0561 O   0  0  0  0  0  0  0  0  0  0  0  0
   -5.4869    2.7657   -2.4768 C   0  0  0  0  0  0  0  0  0  0  0  0
   -4.4769    2.5460   -1.3365 C   0  0  0  0  0  0  0  0  0  0  0  0
   -3.8155   -0.8180    0.2448 C   0  0  0  0  0  0  0  0  0  0  0  0
   -2.8147   -1.5194    0.9399 C   0  0  0  0  0  0  0  0  0  0  0  0
    4.8922   -3.0312    1.6128 H   0  0  0  0  0  0  0  0  0  0  0  0
    4.5772   -2.3483   -0.0110 H   0  0  0  0  0  0  0  0  0  0  0  0
    5.7650   -1.5878    1.1000 H   0  0  0  0  0  0  0  0  0  0  0  0
    5.5821    0.9669    1.2868 H   0  0  0  0  0  0  0  0  0  0  0  0
    4.2865    2.0203    0.7610 H   0  0  0  0  0  0  0  0  0  0  0  0
    7.0493    0.4659   -0.4851 H   0  0  0  0  0  0  0  0  0  0  0  0
    7.4768   -0.0731   -2.8501 H   0  0  0  0  0  0  0  0  0  0  0  0
    5.5971   -0.1871   -4.4704 H   0  0  0  0  0  0  0  0  0  0  0  0
    3.2712    0.2310   -3.7079 H   0  0  0  0  0  0  0  0  0  0  0  0
    2.8153    0.7669   -1.3408 H   0  0  0  0  0  0  0  0  0  0  0  0
    0.6674   -2.2978    4.1871 H   0  0  0  0  0  0  0  0  0  0  0  0
    0.3877   -4.0165    3.9506 H   0  0  0  0  0  0  0  0  0  0  0  0
    0.1104   -0.8532    2.4282 H   0  0  0  0  0  0  0  0  0  0  0  0
   -0.6738    1.0534    1.4590 H   0  0  0  0  0  0  0  0  0  0  0  0
   -2.4052    2.2557    0.2641 H   0  0  0  0  0  0  0  0  0  0  0  0
   -6.2033    0.0702   -1.6288 H   0  0  0  0  0  0  0  0  0  0  0  0
   -6.3624    0.1856    0.1450 H   0  0  0  0  0  0  0  0  0  0  0  0
   -8.1095    1.5480   -0.9418 H   0  0  0  0  0  0  0  0  0  0  0  0
   -7.0042    2.5686   -0.0147 H   0  0  0  0  0  0  0  0  0  0  0  0
   -5.3647    1.9945   -3.2462 H   0  0  0  0  0  0  0  0  0  0  0  0
   -5.3099    3.7344   -2.9547 H   0  0  0  0  0  0  0  0  0  0  0  0
   -4.5934    3.3322   -0.5762 H   0  0  0  0  0  0  0  0  0  0  0  0
   -3.4644    2.6096   -1.7601 H   0  0  0  0  0  0  0  0  0  0  0  0
   -4.6762   -1.3891   -0.0974 H   0  0  0  0  0  0  0  0  0  0  0  0
   -2.9671   -2.5781    1.1190 H   0  0  0  0  0  0  0  0  0  0  0  0
  1  2  1  0
  2  3  1  0
  3  4  1  0
  4  5  1  0
  5  6  2  0
  6  7  1  0
  7  8  2  0
  8  9  1  0
  9 10  2  0
  3 11  2  0
 11 12  1  0
 12 13  2  0
 13 14  1  0
 14 15  1  0
 15 16  1  0
 16 17  2  0
 16 18  1  0
 18 19  1  0
 19 20  2  0
 20 21  1  0
 21 22  2  0
 22 23  1  0
 23 24  1  0
 24 25  1  0
 25 26  1  0
 26 27  1  0
 27 28  1  0
 22 29  1  0
 29 30  2  0
 13  2  1  0
 30 19  1  0
 10  5  1  0
 28 23  1  0
  1 31  1  0
  1 32  1  0
  1 33  1  0
  4 34  1  0
  4 35  1  0
  6 36  1  0
  7 37  1  0
  8 38  1  0
  9 39  1  0
 10 40  1  0
 15 41  1  0
 15 42  1  0
 18 43  1  0
 20 44  1  0
 21 45  1  0
 24 46  1  0
 24 47  1  0
 25 48  1  0
 25 49  1  0
 27 50  1  0
 27 51  1  0
 28 52  1  0
 28 53  1  0
 29 54  1  0
 30 55  1  0
M  END
$$$$
