
     RDKit          3D

 59 62  0  0  0  0  0  0  0  0999 V2000
   -8.0942   -0.5936   -1.6980 C   0  0  0  0  0  0  0  0  0  0  0  0
   -6.9345   -1.3707   -2.2972 C   0  0  0  0  0  0  0  0  0  0  0  0
   -5.7582   -1.3546   -1.4399 N   0  0  0  0  0  0  0  0  0  0  0  0
   -5.5038   -2.2800   -0.4461 C   0  0  0  0  0  0  0  0  0  0  0  0
   -6.2450   -3.3860    0.0051 C   0  0  0  0  0  0  0  0  0  0  0  0
   -5.7185   -4.1541    1.0480 C   0  0  0  0  0  0  0  0  0  0  0  0
   -4.4923   -3.8353    1.6233 C   0  0  0  0  0  0  0  0  0  0  0  0
   -3.7624   -2.7327    1.1697 C   0  0  0  0  0  0  0  0  0  0  0  0
   -4.2744   -1.9382    0.1205 C   0  0  0  0  0  0  0  0  0  0  0  0
   -3.7961   -0.7711   -0.5531 C   0  0  0  0  0  0  0  0  0  0  0  0
   -2.6310    0.0196   -0.4141 C   0  0  0  0  0  0  0  0  0  0  0  0
   -2.4330    1.1335   -1.2350 C   0  0  0  0  0  0  0  0  0  0  0  0
   -1.2997    1.9722   -1.1625 N   0  0  0  0  0  0  0  0  0  0  0  0
   -0.2034    1.8425   -0.3206 C   0  0  0  0  0  0  0  0  0  0  0  0
   -0.0311    0.9629    0.5201 O   0  0  0  0  0  0  0  0  0  0  0  0
    0.8281    2.9748   -0.5102 C   0  0  0  0  0  0  0  0  0  0  0  0
    0.3473    4.2225    0.2208 C   0  0  0  0  0  0  0  0  0  0  0  0
    2.1002    2.6165    0.0410 O   0  0  0  0  0  0  0  0  0  0  0  0
    2.8050    1.7392   -0.7169 C   0  0  0  0  0  0  0  0  0  0  0  0
    2.5167    1.3857   -1.8493 O   0  0  0  0  0  0  0  0  0  0  0  0
    4.0173    1.2840    0.0114 C   0  0  0  0  0  0  0  0  0  0  0  0
    5.0302    0.6453   -0.7101 C   0  0  0  0  0  0  0  0  0  0  0  0
    6.1867    0.1923   -0.0623 C   0  0  0  0  0  0  0  0  0  0  0  0
    6.3414    0.3630    1.3141 C   0  0  0  0  0  0  0  0  0  0  0  0
    7.4680   -0.0710    2.0458 N   0  0  0  0  0  0  0  0  0  0  0  0
    8.6253   -0.6604    1.5459 C   0  0  0  0  0  0  0  0  0  0  0  0
    8.8750   -0.8513    0.3618 O   0  0  0  0  0  0  0  0  0  0  0  0
    9.6053   -1.0065    2.6485 C   0  0  0  0  0  0  0  0  0  0  0  0
   10.5824   -2.0140    2.2315 C   0  0  0  0  0  0  0  0  0  0  0  0
   11.3858   -2.8151    1.9824 N   0  0  0  0  0  0  0  0  0  0  0  0
    5.3176    0.9919    2.0359 C   0  0  0  0  0  0  0  0  0  0  0  0
    4.1638    1.4519    1.3916 C   0  0  0  0  0  0  0  0  0  0  0  0
   -3.4021    1.4576   -2.1902 C   0  0  0  0  0  0  0  0  0  0  0  0
   -4.5657    0.6941   -2.3484 C   0  0  0  0  0  0  0  0  0  0  0  0
   -4.7407   -0.4221   -1.5170 C   0  0  0  0  0  0  0  0  0  0  0  0
   -7.8255    0.4559   -1.5365 H   0  0  0  0  0  0  0  0  0  0  0  0
   -8.3966   -1.0121   -0.7322 H   0  0  0  0  0  0  0  0  0  0  0  0
   -8.9581   -0.6257   -2.3688 H   0  0  0  0  0  0  0  0  0  0  0  0
   -6.6557   -0.9555   -3.2716 H   0  0  0  0  0  0  0  0  0  0  0  0
   -7.2150   -2.4149   -2.4700 H   0  0  0  0  0  0  0  0  0  0  0  0
   -7.2022   -3.6470   -0.4330 H   0  0  0  0  0  0  0  0  0  0  0  0
   -6.2745   -5.0147    1.4123 H   0  0  0  0  0  0  0  0  0  0  0  0
   -4.0956   -4.4463    2.4299 H   0  0  0  0  0  0  0  0  0  0  0  0
   -2.8045   -2.4890    1.6211 H   0  0  0  0  0  0  0  0  0  0  0  0
   -1.9096   -0.2723    0.3399 H   0  0  0  0  0  0  0  0  0  0  0  0
   -1.2696    2.7236   -1.8393 H   0  0  0  0  0  0  0  0  0  0  0  0
    0.9322    3.2123   -1.5762 H   0  0  0  0  0  0  0  0  0  0  0  0
    0.2447    4.0295    1.2956 H   0  0  0  0  0  0  0  0  0  0  0  0
   -0.6209    4.5670   -0.1542 H   0  0  0  0  0  0  0  0  0  0  0  0
    1.0754    5.0343    0.1123 H   0  0  0  0  0  0  0  0  0  0  0  0
    4.9275    0.4904   -1.7827 H   0  0  0  0  0  0  0  0  0  0  0  0
    6.9403   -0.3004   -0.6688 H   0  0  0  0  0  0  0  0  0  0  0  0
    7.4216    0.0912    3.0449 H   0  0  0  0  0  0  0  0  0  0  0  0
    9.0536   -1.3802    3.5195 H   0  0  0  0  0  0  0  0  0  0  0  0
   10.1165   -0.0831    2.9450 H   0  0  0  0  0  0  0  0  0  0  0  0
    5.3957    1.1331    3.1110 H   0  0  0  0  0  0  0  0  0  0  0  0
    3.3813    1.9237    1.9808 H   0  0  0  0  0  0  0  0  0  0  0  0
   -3.2703    2.3198   -2.8394 H   0  0  0  0  0  0  0  0  0  0  0  0
   -5.3005    0.9675   -3.0992 H   0  0  0  0  0  0  0  0  0  0  0  0
  1  2  1  0
  2  3  1  0
  3  4  1  0
  4  5  2  0
  5  6  1  0
  6  7  2  0
  7  8  1  0
  8  9  2  0
  9 10  1  0
 10 11  2  0
 11 12  1  0
 12 13  1  0
 13 14  1  0
 14 15  2  0
 14 16  1  0
 16 17  1  0
 16 18  1  0
 18 19  1  0
 19 20  2  0
 19 21  1  0
 21 22  2  0
 22 23  1  0
 23 24  2  0
 24 25  1  0
 25 26  1  0
 26 27  2  0
 26 28  1  0
 28 29  1  0
 29 30  3  0
 24 31  1  0
 31 32  2  0
 12 33  2  0
 33 34  1  0
 34 35  2  0
 35  3  1  0
  9  4  1  0
 35 10  1  0
 32 21  1  0
  1 36  1  0
  1 37  1  0
  1 38  1  0
  2 39  1  0
  2 40  1  0
  5 41  1  0
  6 42  1  0
  7 43  1  0
  8 44  1  0
 11 45  1  0
 13 46  1  0
 16 47  1  0
 17 48  1  0
 17 49  1  0
 17 50  1  0
 22 51  1  0
 23 52  1  0
 25 53  1  0
 28 54  1  0
 28 55  1  0
 31 56  1  0
 32 57  1  0
 33 58  1  0
 34 59  1  0
M  END
$$$$
