
     RDKit          3D

 36 38  0  0  0  0  0  0  0  0999 V2000
   -6.0010    0.9488   -0.1067 C   0  0  0  0  0  0  0  0  0  0  0  0
   -5.2538   -0.2303    0.3275 N   0  0  0  0  0  0  0  0  0  0  0  0
   -5.9604   -1.5042    0.2064 C   0  0  0  0  0  0  0  0  0  0  0  0
   -3.8566   -0.2177    0.2375 C   0  0  0  0  0  0  0  0  0  0  0  0
   -3.0881   -1.3899    0.3417 C   0  0  0  0  0  0  0  0  0  0  0  0
   -1.6858   -1.3794    0.2695 C   0  0  0  0  0  0  0  0  0  0  0  0
   -0.9888   -0.1829    0.1125 C   0  0  0  0  0  0  0  0  0  0  0  0
    0.4756   -0.2144    0.0161 C   0  0  0  0  0  0  0  0  0  0  0  0
    1.2817    0.7086    0.5662 C   0  0  0  0  0  0  0  0  0  0  0  0
    2.6983    0.6059    0.4425 C   0  0  0  0  0  0  0  0  0  0  0  0
    3.3721   -0.3360   -0.1887 N   0  0  0  0  0  0  0  0  0  0  0  0
    4.7349   -0.1113   -0.1009 C   0  0  0  0  0  0  0  0  0  0  0  0
    5.7437   -0.9212   -0.6612 C   0  0  0  0  0  0  0  0  0  0  0  0
    7.0883   -0.5740   -0.4940 C   0  0  0  0  0  0  0  0  0  0  0  0
    7.4368    0.5666    0.2223 C   0  0  0  0  0  0  0  0  0  0  0  0
    6.4544    1.3859    0.7874 C   0  0  0  0  0  0  0  0  0  0  0  0
    5.1073    1.0265    0.6125 C   0  0  0  0  0  0  0  0  0  0  0  0
    3.6907    1.8184    1.1775 S   0  0  0  0  0  0  0  0  0  0  0  0
   -1.7251    0.9958    0.0061 C   0  0  0  0  0  0  0  0  0  0  0  0
   -3.1277    0.9738    0.0779 C   0  0  0  0  0  0  0  0  0  0  0  0
   -5.7574    1.8216    0.5084 H   0  0  0  0  0  0  0  0  0  0  0  0
   -5.8047    1.1737   -1.1609 H   0  0  0  0  0  0  0  0  0  0  0  0
   -7.0810    0.7979    0.0028 H   0  0  0  0  0  0  0  0  0  0  0  0
   -5.7657   -1.9721   -0.7650 H   0  0  0  0  0  0  0  0  0  0  0  0
   -7.0441   -1.3674    0.2960 H   0  0  0  0  0  0  0  0  0  0  0  0
   -5.6789   -2.1923    1.0106 H   0  0  0  0  0  0  0  0  0  0  0  0
   -3.5594   -2.3573    0.4847 H   0  0  0  0  0  0  0  0  0  0  0  0
   -1.1504   -2.3228    0.3518 H   0  0  0  0  0  0  0  0  0  0  0  0
    0.8959   -1.0637   -0.5209 H   0  0  0  0  0  0  0  0  0  0  0  0
    0.8684    1.5408    1.1274 H   0  0  0  0  0  0  0  0  0  0  0  0
    5.4660   -1.8099   -1.2191 H   0  0  0  0  0  0  0  0  0  0  0  0
    7.8631   -1.2017   -0.9279 H   0  0  0  0  0  0  0  0  0  0  0  0
    8.4863    0.8260    0.3454 H   0  0  0  0  0  0  0  0  0  0  0  0
    6.7272    2.2758    1.3463 H   0  0  0  0  0  0  0  0  0  0  0  0
   -1.2288    1.9512   -0.1430 H   0  0  0  0  0  0  0  0  0  0  0  0
   -3.6330    1.9316    0.0025 H   0  0  0  0  0  0  0  0  0  0  0  0
  1  2  1  0
  2  3  1  0
  2  4  1  0
  4  5  2  0
  5  6  1  0
  6  7  2  0
  7  8  1  0
  8  9  2  3
  9 10  1  0
 10 11  2  0
 11 12  1  0
 12 13  2  0
 13 14  1  0
 14 15  2  0
 15 16  1  0
 16 17  2  0
 17 18  1  0
  7 19  1  0
 19 20  2  0
 20  4  1  0
 18 10  1  0
 17 12  1  0
  1 21  1  0
  1 22  1  0
  1 23  1  0
  3 24  1  0
  3 25  1  0
  3 26  1  0
  5 27  1  0
  6 28  1  0
  8 29  1  0
  9 30  1  0
 13 31  1  0
 14 32  1  0
 15 33  1  0
 16 34  1  0
 19 35  1  0
 20 36  1  0
M  END
$$$$
