
     RDKit          3D

 43 46  0  0  0  0  0  0  0  0999 V2000
   -7.6473   -0.7882    1.9368 C   0  0  0  0  0  0  0  0  0  0  0  0
   -7.3144    0.0095    0.8076 O   0  0  0  0  0  0  0  0  0  0  0  0
   -6.0226   -0.0571    0.3643 C   0  0  0  0  0  0  0  0  0  0  0  0
   -5.7394    0.7590   -0.7335 C   0  0  0  0  0  0  0  0  0  0  0  0
   -4.4572    0.7892   -1.2909 C   0  0  0  0  0  0  0  0  0  0  0  0
   -3.4399   -0.0103   -0.7602 C   0  0  0  0  0  0  0  0  0  0  0  0
   -2.0916   -0.0003   -1.3100 C   0  0  0  0  0  0  0  0  0  0  0  0
   -0.9984    0.0850   -0.4598 N   0  0  0  0  0  0  0  0  0  0  0  0
    0.1117    0.0912   -1.1562 C   0  0  0  0  0  0  0  0  0  0  0  0
    1.3278    0.1887   -0.5419 N   0  0  0  0  0  0  0  0  0  0  0  0
    2.5738    0.2094   -1.1276 C   0  0  0  0  0  0  0  0  0  0  0  0
    2.8264    0.1419   -2.3253 O   0  0  0  0  0  0  0  0  0  0  0  0
    3.6334    0.3279   -0.0989 C   0  0  0  0  0  0  0  0  0  0  0  0
    3.3282    0.3966    1.2463 N   0  0  0  0  0  0  0  0  0  0  0  0
    4.5003    0.4935    1.8319 C   0  0  0  0  0  0  0  0  0  0  0  0
    4.7882    0.5916    3.1628 N   0  0  0  0  0  0  0  0  0  0  0  0
    6.0473    0.6760    3.4622 C   0  0  0  0  0  0  0  0  0  0  0  0
    7.1866    0.6750    2.5033 C   0  0  0  0  0  0  0  0  0  0  0  0
    6.8600    0.5761    1.2023 C   0  0  0  0  0  0  0  0  0  0  0  0
    7.8753    0.5596    0.1026 C   0  0  0  0  0  0  0  0  0  0  0  0
    5.5057    0.4839    0.8546 N   0  0  0  0  0  0  0  0  0  0  0  0
    4.9461    0.3774   -0.3713 N   0  0  0  0  0  0  0  0  0  0  0  0
   -0.0717   -0.0323   -2.8408 S   0  0  0  0  0  0  0  0  0  0  0  0
   -1.7786   -0.1126   -2.6558 C   0  0  0  0  0  0  0  0  0  0  0  0
   -2.6461   -0.2867   -3.8529 C   0  0  0  0  0  0  0  0  0  0  0  0
   -3.7224   -0.8146    0.3509 C   0  0  0  0  0  0  0  0  0  0  0  0
   -5.0070   -0.8429    0.9079 C   0  0  0  0  0  0  0  0  0  0  0  0
   -7.0648   -0.4918    2.8154 H   0  0  0  0  0  0  0  0  0  0  0  0
   -8.7039   -0.6190    2.1657 H   0  0  0  0  0  0  0  0  0  0  0  0
   -7.5206   -1.8538    1.7185 H   0  0  0  0  0  0  0  0  0  0  0  0
   -6.5232    1.3845   -1.1539 H   0  0  0  0  0  0  0  0  0  0  0  0
   -4.2644    1.4556   -2.1272 H   0  0  0  0  0  0  0  0  0  0  0  0
    1.2889    0.2571    0.4699 H   0  0  0  0  0  0  0  0  0  0  0  0
    6.3346    0.7576    4.5243 H   0  0  0  0  0  0  0  0  0  0  0  0
    8.1958    0.7515    2.8839 H   0  0  0  0  0  0  0  0  0  0  0  0
    8.8959    0.6372    0.4929 H   0  0  0  0  0  0  0  0  0  0  0  0
    7.8103   -0.3722   -0.4691 H   0  0  0  0  0  0  0  0  0  0  0  0
    7.7181    1.4008   -0.5808 H   0  0  0  0  0  0  0  0  0  0  0  0
   -3.5156   -0.9097   -3.6200 H   0  0  0  0  0  0  0  0  0  0  0  0
   -3.0016    0.6855   -4.2091 H   0  0  0  0  0  0  0  0  0  0  0  0
   -2.1125   -0.7745   -4.6756 H   0  0  0  0  0  0  0  0  0  0  0  0
   -2.9371   -1.4264    0.7912 H   0  0  0  0  0  0  0  0  0  0  0  0
   -5.1744   -1.4856    1.7654 H   0  0  0  0  0  0  0  0  0  0  0  0
  1  2  1  0
  2  3  1  0
  3  4  2  0
  4  5  1  0
  5  6  2  0
  6  7  1  0
  7  8  1  0
  8  9  2  0
  9 10  1  0
 10 11  1  0
 11 12  2  0
 11 13  1  0
 13 14  1  0
 14 15  2  0
 15 16  1  0
 16 17  2  0
 17 18  1  0
 18 19  2  0
 19 20  1  0
 19 21  1  0
 21 22  1  0
  9 23  1  0
 23 24  1  0
 24 25  1  0
  6 26  1  0
 26 27  2  0
 27  3  1  0
 24  7  2  0
 22 13  2  0
 21 15  1  0
  1 28  1  0
  1 29  1  0
  1 30  1  0
  4 31  1  0
  5 32  1  0
 10 33  1  0
 17 34  1  0
 18 35  1  0
 20 36  1  0
 20 37  1  0
 20 38  1  0
 25 39  1  0
 25 40  1  0
 25 41  1  0
 26 42  1  0
 27 43  1  0
M  END
$$$$
