
     RDKit          3D

 42 44  0  0  0  0  0  0  0  0999 V2000
   -5.6979    1.8637    1.6032 C   0  0  0  0  0  0  0  0  0  0  0  0
   -4.6685    2.0206    0.6350 O   0  0  0  0  0  0  0  0  0  0  0  0
   -3.9425    0.9069    0.3146 C   0  0  0  0  0  0  0  0  0  0  0  0
   -2.9924    1.1016   -0.6938 C   0  0  0  0  0  0  0  0  0  0  0  0
   -2.1795    0.0506   -1.1215 C   0  0  0  0  0  0  0  0  0  0  0  0
   -2.3062   -1.2013   -0.5172 C   0  0  0  0  0  0  0  0  0  0  0  0
   -1.2839   -2.5529   -1.0591 S   0  0  0  0  0  6  0  0  0  0  0  0
   -1.9611   -3.7810   -0.6952 O   0  0  0  0  0  0  0  0  0  0  0  0
   -0.8888   -2.2966   -2.4266 O   0  0  0  0  0  0  0  0  0  0  0  0
    0.0614   -2.4557   -0.0460 N   0  0  0  0  0  0  0  0  0  0  0  0
    0.8002   -1.2412    0.0598 C   0  0  0  0  0  0  0  0  0  0  0  0
    1.4426   -0.7226   -1.0691 C   0  0  0  0  0  0  0  0  0  0  0  0
    2.1500    0.4833   -0.9999 C   0  0  0  0  0  0  0  0  0  0  0  0
    2.9372    1.1061   -2.4755 S   0  0  0  0  0  0  0  0  0  0  0  0
    4.5901    0.5954   -2.2420 C   0  0  0  0  0  0  0  0  0  0  0  0
    5.0026   -0.2857   -1.2727 N   0  0  0  0  0  0  0  0  0  0  0  0
    6.2913   -0.3893   -1.4917 C   0  0  0  0  0  0  0  0  0  0  0  0
    6.6335    0.3878   -2.5505 N   0  0  0  0  0  0  0  0  0  0  0  0
    5.5659    1.0216   -3.0544 N   0  0  0  0  0  0  0  0  0  0  0  0
    2.1995    1.1689    0.2185 C   0  0  0  0  0  0  0  0  0  0  0  0
    2.8661    2.3615    0.3024 O   0  0  0  0  0  0  0  0  0  0  0  0
    1.5727    0.6512    1.3539 C   0  0  0  0  0  0  0  0  0  0  0  0
    0.8690   -0.5622    1.2886 C   0  0  0  0  0  0  0  0  0  0  0  0
    0.2116   -1.0926    2.5320 C   0  0  0  0  0  0  0  0  0  0  0  0
   -3.2646   -1.4143    0.4778 C   0  0  0  0  0  0  0  0  0  0  0  0
   -4.0783   -0.3560    0.8962 C   0  0  0  0  0  0  0  0  0  0  0  0
   -5.2829    1.5820    2.5765 H   0  0  0  0  0  0  0  0  0  0  0  0
   -6.4488    1.1404    1.2686 H   0  0  0  0  0  0  0  0  0  0  0  0
   -6.1962    2.8307    1.7212 H   0  0  0  0  0  0  0  0  0  0  0  0
   -2.8903    2.0815   -1.1554 H   0  0  0  0  0  0  0  0  0  0  0  0
   -1.4560    0.2191   -1.9163 H   0  0  0  0  0  0  0  0  0  0  0  0
   -0.0270   -3.0490    0.7755 H   0  0  0  0  0  0  0  0  0  0  0  0
    1.4088   -1.2682   -2.0099 H   0  0  0  0  0  0  0  0  0  0  0  0
    6.9978   -0.9909   -0.9387 H   0  0  0  0  0  0  0  0  0  0  0  0
    7.5422    0.5291   -2.9768 H   0  0  0  0  0  0  0  0  0  0  0  0
    2.8655    2.6689    1.2223 H   0  0  0  0  0  0  0  0  0  0  0  0
    1.6241    1.1910    2.2957 H   0  0  0  0  0  0  0  0  0  0  0  0
    0.3576   -0.4201    3.3840 H   0  0  0  0  0  0  0  0  0  0  0  0
   -0.8664   -1.1993    2.3811 H   0  0  0  0  0  0  0  0  0  0  0  0
    0.6400   -2.0631    2.8023 H   0  0  0  0  0  0  0  0  0  0  0  0
   -3.3881   -2.3960    0.9298 H   0  0  0  0  0  0  0  0  0  0  0  0
   -4.8101   -0.5511    1.6733 H   0  0  0  0  0  0  0  0  0  0  0  0
  1  2  1  0
  2  3  1  0
  3  4  2  0
  4  5  1  0
  5  6  2  0
  6  7  1  0
  7  8  2  0
  7  9  2  0
  7 10  1  0
 10 11  1  0
 11 12  2  0
 12 13  1  0
 13 14  1  0
 14 15  1  0
 15 16  1  0
 16 17  2  0
 17 18  1  0
 18 19  1  0
 13 20  2  0
 20 21  1  0
 20 22  1  0
 22 23  2  0
 23 24  1  0
  6 25  1  0
 25 26  2  0
 26  3  1  0
 23 11  1  0
 19 15  2  0
  1 27  1  0
  1 28  1  0
  1 29  1  0
  4 30  1  0
  5 31  1  0
 10 32  1  0
 12 33  1  0
 17 34  1  0
 18 35  1  0
 21 36  1  0
 22 37  1  0
 24 38  1  0
 24 39  1  0
 24 40  1  0
 25 41  1  0
 26 42  1  0
M  END
$$$$
