
     RDKit          3D

 60 63  0  0  0  0  0  0  0  0999 V2000
   -4.3107   -1.4605   -2.2161 C   0  0  0  0  0  0  0  0  0  0  0  0
   -4.1874   -0.3485   -2.9556 C   0  0  0  0  0  0  0  0  0  0  0  0
   -4.1988    1.0945   -2.5142 C   0  0  0  0  0  0  0  0  0  0  0  0
   -4.3041    1.2513   -1.0706 N   0  0  0  0  0  0  0  0  0  0  0  0
   -5.5600    1.3604   -0.4835 C   0  0  0  0  0  0  0  0  0  0  0  0
   -6.6076    1.3542   -1.1242 O   0  0  0  0  0  0  0  0  0  0  0  0
   -5.6284    1.4815    1.0023 C   0  0  0  0  0  0  0  0  0  0  0  0
   -6.8914    1.5238    1.6130 C   0  0  0  0  0  0  0  0  0  0  0  0
   -6.9999    1.6109    3.0031 C   0  0  0  0  0  0  0  0  0  0  0  0
   -5.8484    1.6363    3.7838 C   0  0  0  0  0  0  0  0  0  0  0  0
   -4.5842    1.5978    3.1846 C   0  0  0  0  0  0  0  0  0  0  0  0
   -4.4683    1.5470    1.7899 C   0  0  0  0  0  0  0  0  0  0  0  0
   -3.2375    1.5479    1.0990 N   0  0  0  0  0  0  0  0  0  0  0  0
   -1.9192    1.7455    1.4631 C   0  0  0  0  0  0  0  0  0  0  0  0
   -1.3416    2.2889    3.0021 S   0  0  0  0  0  0  0  0  0  0  0  0
    0.4552    2.1604    2.7775 C   0  0  0  0  0  0  0  0  0  0  0  0
    0.9103    0.7087    2.6547 C   0  0  0  0  0  0  0  0  0  0  0  0
    0.4816   -0.1577    3.4135 O   0  0  0  0  0  0  0  0  0  0  0  0
    1.8574    0.5520    1.6521 N   0  0  0  0  0  0  0  0  0  0  0  0
    2.5330   -0.6052    1.2886 C   0  0  0  0  0  0  0  0  0  0  0  0
    2.2383   -2.0744    2.0709 S   0  0  0  0  0  0  0  0  0  0  0  0
    3.3779   -2.9084    1.1240 C   0  0  0  0  0  0  0  0  0  0  0  0
    3.5849   -4.3736    1.3579 C   0  0  0  0  0  0  0  0  0  0  0  0
    4.0145   -2.0752    0.2083 C   0  0  0  0  0  0  0  0  0  0  0  0
    5.1004   -2.5648   -0.7226 C   0  0  0  0  0  0  0  0  0  0  0  0
    4.5454   -3.1140   -2.0287 C   0  0  0  0  0  0  0  0  0  0  0  0
    3.4832   -0.7154    0.2755 C   0  0  0  0  0  0  0  0  0  0  0  0
    3.8352    0.4501   -0.5506 C   0  0  0  0  0  0  0  0  0  0  0  0
    3.4156    1.5819   -0.3095 O   0  0  0  0  0  0  0  0  0  0  0  0
    4.6475    0.1576   -1.6037 O   0  0  0  0  0  0  0  0  0  0  0  0
    4.9651    1.2692   -2.4488 C   0  0  0  0  0  0  0  0  0  0  0  0
    5.9395    0.7823   -3.5049 C   0  0  0  0  0  0  0  0  0  0  0  0
   -1.1358    1.5689    0.4217 N   0  0  0  0  0  0  0  0  0  0  0  0
   -1.9250    1.3366   -0.6699 N   0  0  0  0  0  0  0  0  0  0  0  0
   -3.1777    1.3612   -0.2719 C   0  0  0  0  0  0  0  0  0  0  0  0
   -4.2817   -2.4420   -2.6865 H   0  0  0  0  0  0  0  0  0  0  0  0
   -4.4495   -1.4357   -1.1423 H   0  0  0  0  0  0  0  0  0  0  0  0
   -4.0579   -0.4770   -4.0291 H   0  0  0  0  0  0  0  0  0  0  0  0
   -3.2805    1.5835   -2.8627 H   0  0  0  0  0  0  0  0  0  0  0  0
   -5.0395    1.6014   -3.0023 H   0  0  0  0  0  0  0  0  0  0  0  0
   -7.7956    1.4916    1.0085 H   0  0  0  0  0  0  0  0  0  0  0  0
   -7.9780    1.6534    3.4721 H   0  0  0  0  0  0  0  0  0  0  0  0
   -5.9293    1.6879    4.8705 H   0  0  0  0  0  0  0  0  0  0  0  0
   -3.7319    1.5874    3.8540 H   0  0  0  0  0  0  0  0  0  0  0  0
    0.9501    2.5886    3.6553 H   0  0  0  0  0  0  0  0  0  0  0  0
    0.7558    2.7614    1.9111 H   0  0  0  0  0  0  0  0  0  0  0  0
    2.0922    1.3712    1.0872 H   0  0  0  0  0  0  0  0  0  0  0  0
    2.8744   -4.7907    2.0788 H   0  0  0  0  0  0  0  0  0  0  0  0
    4.5931   -4.5570    1.7397 H   0  0  0  0  0  0  0  0  0  0  0  0
    3.4589   -4.9293    0.4227 H   0  0  0  0  0  0  0  0  0  0  0  0
    5.6748   -3.3545   -0.2282 H   0  0  0  0  0  0  0  0  0  0  0  0
    5.8312   -1.7753   -0.9213 H   0  0  0  0  0  0  0  0  0  0  0  0
    3.9751   -2.3547   -2.5749 H   0  0  0  0  0  0  0  0  0  0  0  0
    5.3605   -3.4618   -2.6721 H   0  0  0  0  0  0  0  0  0  0  0  0
    3.8791   -3.9608   -1.8410 H   0  0  0  0  0  0  0  0  0  0  0  0
    5.4247    2.0716   -1.8599 H   0  0  0  0  0  0  0  0  0  0  0  0
    4.0491    1.6350   -2.9248 H   0  0  0  0  0  0  0  0  0  0  0  0
    6.1779    1.5708   -4.2212 H   0  0  0  0  0  0  0  0  0  0  0  0
    5.5210   -0.0676   -4.0529 H   0  0  0  0  0  0  0  0  0  0  0  0
    6.8670    0.4316   -3.0371 H   0  0  0  0  0  0  0  0  0  0  0  0
  1  2  2  0
  2  3  1  0
  3  4  1  0
  4  5  1  0
  5  6  2  0
  5  7  1  0
  7  8  2  0
  8  9  1  0
  9 10  2  0
 10 11  1  0
 11 12  2  0
 12 13  1  0
 13 14  1  0
 14 15  1  0
 15 16  1  0
 16 17  1  0
 17 18  2  0
 17 19  1  0
 19 20  1  0
 20 21  1  0
 21 22  1  0
 22 23  1  0
 22 24  2  0
 24 25  1  0
 25 26  1  0
 24 27  1  0
 27 28  1  0
 28 29  2  0
 28 30  1  0
 30 31  1  0
 31 32  1  0
 14 33  2  0
 33 34  1  0
 34 35  2  0
 35  4  1  0
 12  7  1  0
 35 13  1  0
 27 20  2  0
  1 36  1  0
  1 37  1  0
  2 38  1  0
  3 39  1  0
  3 40  1  0
  8 41  1  0
  9 42  1  0
 10 43  1  0
 11 44  1  0
 16 45  1  0
 16 46  1  0
 19 47  1  0
 23 48  1  0
 23 49  1  0
 23 50  1  0
 25 51  1  0
 25 52  1  0
 26 53  1  0
 26 54  1  0
 26 55  1  0
 31 56  1  0
 31 57  1  0
 32 58  1  0
 32 59  1  0
 32 60  1  0
M  END
$$$$
