
     RDKit          3D

 53 55  0  0  0  0  0  0  0  0999 V2000
   -7.5513    0.0733   -2.8418 C   0  0  0  0  0  0  0  0  0  0  0  0
   -6.1444   -0.0442   -2.6732 O   0  0  0  0  0  0  0  0  0  0  0  0
   -5.6998   -0.5273   -1.4722 C   0  0  0  0  0  0  0  0  0  0  0  0
   -4.3079   -0.6143   -1.3564 C   0  0  0  0  0  0  0  0  0  0  0  0
   -3.7150   -1.0897   -0.1858 C   0  0  0  0  0  0  0  0  0  0  0  0
   -2.3193   -1.2057    0.0034 N   0  0  0  0  0  0  0  0  0  0  0  0
   -1.3136   -0.8667   -0.8887 C   0  0  0  0  0  0  0  0  0  0  0  0
   -1.4579   -0.3829   -2.0054 O   0  0  0  0  0  0  0  0  0  0  0  0
    0.0629   -1.1414   -0.3071 C   0  0  0  0  0  0  0  0  0  0  0  0
    1.1834   -0.9052   -1.3135 C   0  0  0  0  0  0  0  0  0  0  0  0
    1.3031    0.5302   -1.6102 N   0  0  0  0  0  0  0  0  0  0  0  0
    2.7546    1.0918   -2.2460 S   0  0  0  0  0  6  0  0  0  0  0  0
    3.3940    0.0051   -2.9537 O   0  0  0  0  0  0  0  0  0  0  0  0
    2.4748    2.3619   -2.8761 O   0  0  0  0  0  0  0  0  0  0  0  0
    3.6767    1.4308   -0.7655 C   0  0  0  0  0  0  0  0  0  0  0  0
    3.3226    2.5341    0.0182 C   0  0  0  0  0  0  0  0  0  0  0  0
    4.0387    2.8095    1.1837 C   0  0  0  0  0  0  0  0  0  0  0  0
    5.1132    1.9946    1.5435 C   0  0  0  0  0  0  0  0  0  0  0  0
    5.4741    0.8921    0.7577 C   0  0  0  0  0  0  0  0  0  0  0  0
    4.7473    0.6069   -0.4039 C   0  0  0  0  0  0  0  0  0  0  0  0
    6.5669   -0.0233    1.2356 C   0  0  0  0  0  0  0  0  0  0  0  0
    7.6113    0.7357    2.0370 C   0  0  0  0  0  0  0  0  0  0  0  0
    6.9844    1.6366    3.0756 C   0  0  0  0  0  0  0  0  0  0  0  0
    7.5248    1.8748    4.1532 O   0  0  0  0  0  0  0  0  0  0  0  0
    5.8231    2.2672    2.7156 N   0  0  0  0  0  0  0  0  0  0  0  0
   -4.5371   -1.4842    0.8806 C   0  0  0  0  0  0  0  0  0  0  0  0
   -5.9274   -1.4016    0.7753 C   0  0  0  0  0  0  0  0  0  0  0  0
   -6.8296   -1.7542    1.7428 O   0  0  0  0  0  0  0  0  0  0  0  0
   -6.3090   -2.2493    2.9695 C   0  0  0  0  0  0  0  0  0  0  0  0
   -6.5031   -0.9219   -0.4040 C   0  0  0  0  0  0  0  0  0  0  0  0
   -7.9784    0.7761   -2.1189 H   0  0  0  0  0  0  0  0  0  0  0  0
   -7.7356    0.4735   -3.8435 H   0  0  0  0  0  0  0  0  0  0  0  0
   -8.0393   -0.9049   -2.7794 H   0  0  0  0  0  0  0  0  0  0  0  0
   -3.7139   -0.2999   -2.2089 H   0  0  0  0  0  0  0  0  0  0  0  0
   -2.0253   -1.5683    0.9016 H   0  0  0  0  0  0  0  0  0  0  0  0
    0.2001   -0.5032    0.5739 H   0  0  0  0  0  0  0  0  0  0  0  0
    0.0922   -2.1887    0.0159 H   0  0  0  0  0  0  0  0  0  0  0  0
    0.9913   -1.4513   -2.2434 H   0  0  0  0  0  0  0  0  0  0  0  0
    2.1179   -1.2744   -0.8774 H   0  0  0  0  0  0  0  0  0  0  0  0
    0.4956    0.9452   -2.0902 H   0  0  0  0  0  0  0  0  0  0  0  0
    2.4938    3.1752   -0.2754 H   0  0  0  0  0  0  0  0  0  0  0  0
    3.7587    3.6660    1.7911 H   0  0  0  0  0  0  0  0  0  0  0  0
    5.0099   -0.2532   -1.0167 H   0  0  0  0  0  0  0  0  0  0  0  0
    7.0541   -0.5161    0.3863 H   0  0  0  0  0  0  0  0  0  0  0  0
    6.1110   -0.8035    1.8578 H   0  0  0  0  0  0  0  0  0  0  0  0
    8.2187    1.3683    1.3784 H   0  0  0  0  0  0  0  0  0  0  0  0
    8.2799    0.0263    2.5365 H   0  0  0  0  0  0  0  0  0  0  0  0
    5.4906    2.9727    3.3607 H   0  0  0  0  0  0  0  0  0  0  0  0
   -4.0783   -1.8544    1.7903 H   0  0  0  0  0  0  0  0  0  0  0  0
   -7.1554   -2.4795    3.6237 H   0  0  0  0  0  0  0  0  0  0  0  0
   -5.7466   -3.1759    2.8138 H   0  0  0  0  0  0  0  0  0  0  0  0
   -5.6958   -1.4936    3.4714 H   0  0  0  0  0  0  0  0  0  0  0  0
   -7.5855   -0.8694   -0.4567 H   0  0  0  0  0  0  0  0  0  0  0  0
  1  2  1  0
  2  3  1  0
  3  4  2  0
  4  5  1  0
  5  6  1  0
  6  7  1  0
  7  8  2  0
  7  9  1  0
  9 10  1  0
 10 11  1  0
 11 12  1  0
 12 13  2  0
 12 14  2  0
 12 15  1  0
 15 16  2  0
 16 17  1  0
 17 18  2  0
 18 19  1  0
 19 20  2  0
 19 21  1  0
 21 22  1  0
 22 23  1  0
 23 24  2  0
 23 25  1  0
  5 26  2  0
 26 27  1  0
 27 28  1  0
 28 29  1  0
 27 30  2  0
 30  3  1  0
 20 15  1  0
 25 18  1  0
  1 31  1  0
  1 32  1  0
  1 33  1  0
  4 34  1  0
  6 35  1  0
  9 36  1  0
  9 37  1  0
 10 38  1  0
 10 39  1  0
 11 40  1  0
 16 41  1  0
 17 42  1  0
 20 43  1  0
 21 44  1  0
 21 45  1  0
 22 46  1  0
 22 47  1  0
 25 48  1  0
 26 49  1  0
 29 50  1  0
 29 51  1  0
 29 52  1  0
 30 53  1  0
M  END
$$$$
