
     RDKit          3D

 33 33  0  0  0  0  0  0  0  0999 V2000
   -3.9103    3.4101   -0.9040 C   0  0  0  0  0  0  0  0  0  0  0  0
   -3.6631    2.5696    0.3238 C   0  0  0  0  0  0  0  0  0  0  0  0
   -4.4050    2.6496    1.2971 O   0  0  0  0  0  0  0  0  0  0  0  0
   -2.5764    1.7342    0.1752 N   0  0  0  0  0  0  0  0  0  0  0  0
   -2.0335    0.8265    1.1124 C   0  0  0  0  0  0  0  0  0  0  0  0
   -2.5311    0.6650    2.4069 C   0  0  0  0  0  0  0  0  0  0  0  0
   -1.9289   -0.2395    3.2840 C   0  0  0  0  0  0  0  0  0  0  0  0
   -0.8233   -0.9806    2.8754 C   0  0  0  0  0  0  0  0  0  0  0  0
   -0.3179   -0.8312    1.5824 C   0  0  0  0  0  0  0  0  0  0  0  0
   -0.9249    0.0585    0.6907 C   0  0  0  0  0  0  0  0  0  0  0  0
   -0.5169    0.2762   -0.6056 O   0  0  0  0  0  0  0  0  0  0  0  0
    0.3617   -0.6696   -1.1929 C   0  0  0  0  0  0  0  0  0  0  0  0
    1.8552   -0.4262   -0.9399 C   0  0  0  0  0  0  0  0  0  0  0  0
    2.3040    0.5769   -0.3942 O   0  0  0  0  0  0  0  0  0  0  0  0
    2.6716   -1.4451   -1.3945 N   0  0  0  0  0  0  0  0  0  0  0  0
    4.1160   -1.4036   -1.1378 C   0  0  0  0  0  0  0  0  0  0  0  0
    4.9368   -2.4030   -1.9502 C   0  0  0  0  0  0  0  0  0  0  0  0
    4.4788   -3.6632   -1.7543 F   0  0  0  0  0  0  0  0  0  0  0  0
    6.2390   -2.3768   -1.5919 F   0  0  0  0  0  0  0  0  0  0  0  0
    4.8607   -2.1455   -3.2746 F   0  0  0  0  0  0  0  0  0  0  0  0
   -4.5360    2.8507   -1.6060 H   0  0  0  0  0  0  0  0  0  0  0  0
   -2.9687    3.6842   -1.3894 H   0  0  0  0  0  0  0  0  0  0  0  0
   -4.4221    4.3330   -0.6134 H   0  0  0  0  0  0  0  0  0  0  0  0
   -2.0709    1.7552   -0.7052 H   0  0  0  0  0  0  0  0  0  0  0  0
   -3.3810    1.2372    2.7667 H   0  0  0  0  0  0  0  0  0  0  0  0
   -2.3200   -0.3524    4.2921 H   0  0  0  0  0  0  0  0  0  0  0  0
   -0.3478   -1.6697    3.5696 H   0  0  0  0  0  0  0  0  0  0  0  0
    0.5602   -1.4085    1.3166 H   0  0  0  0  0  0  0  0  0  0  0  0
    0.0869   -1.6977   -0.9266 H   0  0  0  0  0  0  0  0  0  0  0  0
    0.2216   -0.5872   -2.2775 H   0  0  0  0  0  0  0  0  0  0  0  0
    2.2570   -2.3400   -1.6339 H   0  0  0  0  0  0  0  0  0  0  0  0
    4.4755   -0.3873   -1.3333 H   0  0  0  0  0  0  0  0  0  0  0  0
    4.2529   -1.6000   -0.0678 H   0  0  0  0  0  0  0  0  0  0  0  0
  1  2  1  0
  2  3  2  0
  2  4  1  0
  4  5  1  0
  5  6  2  0
  6  7  1  0
  7  8  2  0
  8  9  1  0
  9 10  2  0
 10 11  1  0
 11 12  1  0
 12 13  1  0
 13 14  2  0
 13 15  1  0
 15 16  1  0
 16 17  1  0
 17 18  1  0
 17 19  1  0
 17 20  1  0
 10  5  1  0
  1 21  1  0
  1 22  1  0
  1 23  1  0
  4 24  1  0
  6 25  1  0
  7 26  1  0
  8 27  1  0
  9 28  1  0
 12 29  1  0
 12 30  1  0
 15 31  1  0
 16 32  1  0
 16 33  1  0
M  END
$$$$
