
     RDKit          3D

 32 32  0  0  0  0  0  0  0  0999 V2000
   -1.5525    4.5883   -3.2873 C   0  0  0  0  0  0  0  0  0  0  0  0
   -1.8879    3.5303   -2.8275 C   0  0  0  0  0  0  0  0  0  0  0  0
   -2.3036    2.2367   -2.2596 C   0  0  0  0  0  0  0  0  0  0  0  0
   -1.1661    1.3077   -2.1184 N   0  0  0  0  0  0  0  0  0  0  0  0
   -0.7138    0.8449   -3.4370 C   0  0  0  0  0  0  0  0  0  0  0  0
   -1.5507    0.1767   -1.2575 C   0  0  0  0  0  0  0  0  0  0  0  0
   -0.3901   -0.7345   -0.8436 C   0  0  0  0  0  0  0  0  0  0  0  0
    0.7484    0.0226   -0.1623 C   0  0  0  0  0  0  0  0  0  0  0  0
    1.7456   -0.8966    0.2914 O   0  0  0  0  0  0  0  0  0  0  0  0
    1.7028   -1.3555    1.5811 C   0  0  0  0  0  0  0  0  0  0  0  0
    0.6093   -1.2109    2.4411 C   0  0  0  0  0  0  0  0  0  0  0  0
    0.6622   -1.7295    3.7379 C   0  0  0  0  0  0  0  0  0  0  0  0
   -0.6930   -1.5434    4.7835 Cl  0  0  0  0  0  0  0  0  0  0  0  0
    1.7944   -2.3995    4.1940 C   0  0  0  0  0  0  0  0  0  0  0  0
    2.8865   -2.5582    3.3428 C   0  0  0  0  0  0  0  0  0  0  0  0
    2.8397   -2.0424    2.0436 C   0  0  0  0  0  0  0  0  0  0  0  0
    4.2254   -2.2752    1.0347 Cl  0  0  0  0  0  0  0  0  0  0  0  0
   -1.2466    5.5250   -3.6923 H   0  0  0  0  0  0  0  0  0  0  0  0
   -2.7332    2.4473   -1.2717 H   0  0  0  0  0  0  0  0  0  0  0  0
   -3.1042    1.7920   -2.8641 H   0  0  0  0  0  0  0  0  0  0  0  0
   -0.4206    1.6839   -4.0771 H   0  0  0  0  0  0  0  0  0  0  0  0
   -1.4879    0.2704   -3.9587 H   0  0  0  0  0  0  0  0  0  0  0  0
    0.1801    0.2193   -3.3504 H   0  0  0  0  0  0  0  0  0  0  0  0
   -1.9899    0.5657   -0.3291 H   0  0  0  0  0  0  0  0  0  0  0  0
   -2.3295   -0.4288   -1.7395 H   0  0  0  0  0  0  0  0  0  0  0  0
    0.0033   -1.2898   -1.7034 H   0  0  0  0  0  0  0  0  0  0  0  0
   -0.7784   -1.5065   -0.1681 H   0  0  0  0  0  0  0  0  0  0  0  0
    1.2456    0.6672   -0.8960 H   0  0  0  0  0  0  0  0  0  0  0  0
    0.4020    0.6896    0.6352 H   0  0  0  0  0  0  0  0  0  0  0  0
   -0.2999   -0.7111    2.1263 H   0  0  0  0  0  0  0  0  0  0  0  0
    1.8315   -2.8014    5.2031 H   0  0  0  0  0  0  0  0  0  0  0  0
    3.7710   -3.0841    3.6936 H   0  0  0  0  0  0  0  0  0  0  0  0
  1  2  3  0
  2  3  1  0
  3  4  1  0
  4  5  1  0
  4  6  1  0
  6  7  1  0
  7  8  1  0
  8  9  1  0
  9 10  1  0
 10 11  2  0
 11 12  1  0
 12 13  1  0
 12 14  2  0
 14 15  1  0
 15 16  2  0
 16 17  1  0
 16 10  1  0
  1 18  1  0
  3 19  1  0
  3 20  1  0
  5 21  1  0
  5 22  1  0
  5 23  1  0
  6 24  1  0
  6 25  1  0
  7 26  1  0
  7 27  1  0
  8 28  1  0
  8 29  1  0
 11 30  1  0
 14 31  1  0
 15 32  1  0
M  END
$$$$
