
     RDKit          3D

 61 65  0  0  0  0  0  0  0  0999 V2000
    6.3285   -4.1745    2.4939 C   0  0  0  0  0  0  0  0  0  0  0  0
    5.1468   -3.3676    2.0415 C   0  0  0  0  0  0  0  0  0  0  0  0
    5.2403   -2.5381    0.9211 C   0  0  0  0  0  0  0  0  0  0  0  0
    4.1298   -1.8097    0.4823 C   0  0  0  0  0  0  0  0  0  0  0  0
    2.8952   -1.9011    1.1450 C   0  0  0  0  0  0  0  0  0  0  0  0
    1.7288   -1.1349    0.6836 C   0  0  0  0  0  0  0  0  0  0  0  0
    1.7958    0.2421    0.4877 C   0  0  0  0  0  0  0  0  0  0  0  0
    0.6816    0.9695    0.0453 C   0  0  0  0  0  0  0  0  0  0  0  0
    0.7839    2.4145   -0.1838 C   0  0  0  0  0  0  0  0  0  0  0  0
    0.7572    3.3126    0.8958 C   0  0  0  0  0  0  0  0  0  0  0  0
    0.8566    4.6897    0.6821 C   0  0  0  0  0  0  0  0  0  0  0  0
    0.9863    5.1986   -0.6135 C   0  0  0  0  0  0  0  0  0  0  0  0
    1.1284    6.6763   -0.8391 C   0  0  0  0  0  0  0  0  0  0  0  0
    1.0495    4.3091   -1.6903 C   0  0  0  0  0  0  0  0  0  0  0  0
    0.9510    2.9315   -1.4788 C   0  0  0  0  0  0  0  0  0  0  0  0
   -0.5061    0.3341   -0.1993 N   0  0  0  0  0  4  0  0  0  0  0  0
   -1.6524    1.0876   -0.6509 C   0  0  0  0  0  0  0  0  0  0  0  0
   -2.0068    1.0318   -2.0005 C   0  0  0  0  0  0  0  0  0  0  0  0
   -3.1139    1.7609   -2.4284 C   0  0  0  0  0  0  0  0  0  0  0  0
   -3.8420    2.5280   -1.5140 C   0  0  0  0  0  0  0  0  0  0  0  0
   -3.4716    2.5724   -0.1667 C   0  0  0  0  0  0  0  0  0  0  0  0
   -2.3680    1.8473    0.2768 C   0  0  0  0  0  0  0  0  0  0  0  0
   -0.6022   -1.0187   -0.0131 C   0  0  0  0  0  0  0  0  0  0  0  0
   -1.8856   -1.6875   -0.2511 C   0  0  0  0  0  0  0  0  0  0  0  0
   -2.0992   -2.4255   -1.4267 C   0  0  0  0  0  0  0  0  0  0  0  0
   -3.3193   -3.0663   -1.6561 C   0  0  0  0  0  0  0  0  0  0  0  0
   -4.3506   -2.9850   -0.7159 C   0  0  0  0  0  0  0  0  0  0  0  0
   -5.6484   -3.7037   -0.9484 C   0  0  0  0  0  0  0  0  0  0  0  0
   -4.1333   -2.2819    0.4726 C   0  0  0  0  0  0  0  0  0  0  0  0
   -2.9137   -1.6407    0.7043 C   0  0  0  0  0  0  0  0  0  0  0  0
    0.5090   -1.7541    0.4237 C   0  0  0  0  0  0  0  0  0  0  0  0
    2.8093   -2.7501    2.2601 C   0  0  0  0  0  0  0  0  0  0  0  0
    3.9195   -3.4780    2.7003 C   0  0  0  0  0  0  0  0  0  0  0  0
    6.3086   -4.3200    3.5790 H   0  0  0  0  0  0  0  0  0  0  0  0
    6.3226   -5.1532    2.0045 H   0  0  0  0  0  0  0  0  0  0  0  0
    7.2665   -3.6636    2.2523 H   0  0  0  0  0  0  0  0  0  0  0  0
    6.1813   -2.4542    0.3801 H   0  0  0  0  0  0  0  0  0  0  0  0
    4.2449   -1.1799   -0.3975 H   0  0  0  0  0  0  0  0  0  0  0  0
    2.7305    0.7708    0.6824 H   0  0  0  0  0  0  0  0  0  0  0  0
    0.6618    2.9550    1.9202 H   0  0  0  0  0  0  0  0  0  0  0  0
    0.8374    5.3674    1.5347 H   0  0  0  0  0  0  0  0  0  0  0  0
    0.7153    6.9637   -1.8118 H   0  0  0  0  0  0  0  0  0  0  0  0
    0.5842    7.2419   -0.0753 H   0  0  0  0  0  0  0  0  0  0  0  0
    2.1849    6.9599   -0.8046 H   0  0  0  0  0  0  0  0  0  0  0  0
    1.1821    4.6879   -2.7029 H   0  0  0  0  0  0  0  0  0  0  0  0
    1.0152    2.2722   -2.3428 H   0  0  0  0  0  0  0  0  0  0  0  0
   -1.4423    0.4427   -2.7159 H   0  0  0  0  0  0  0  0  0  0  0  0
   -3.4176    1.7378   -3.4738 H   0  0  0  0  0  0  0  0  0  0  0  0
   -4.7067    3.0969   -1.8549 H   0  0  0  0  0  0  0  0  0  0  0  0
   -4.0500    3.1760    0.5310 H   0  0  0  0  0  0  0  0  0  0  0  0
   -2.0886    1.8813    1.3249 H   0  0  0  0  0  0  0  0  0  0  0  0
   -1.3190   -2.5163   -2.1811 H   0  0  0  0  0  0  0  0  0  0  0  0
   -3.4615   -3.6364   -2.5733 H   0  0  0  0  0  0  0  0  0  0  0  0
   -6.4743   -3.1929   -0.4422 H   0  0  0  0  0  0  0  0  0  0  0  0
   -5.5812   -4.7286   -0.5705 H   0  0  0  0  0  0  0  0  0  0  0  0
   -5.8909   -3.7339   -2.0159 H   0  0  0  0  0  0  0  0  0  0  0  0
   -4.9156   -2.2353    1.2292 H   0  0  0  0  0  0  0  0  0  0  0  0
   -2.7808   -1.1123    1.6468 H   0  0  0  0  0  0  0  0  0  0  0  0
    0.4106   -2.8325    0.5593 H   0  0  0  0  0  0  0  0  0  0  0  0
    1.8775   -2.8523    2.8126 H   0  0  0  0  0  0  0  0  0  0  0  0
    3.8208   -4.1309    3.5658 H   0  0  0  0  0  0  0  0  0  0  0  0
  1  2  1  0
  2  3  2  0
  3  4  1  0
  4  5  2  0
  5  6  1  0
  6  7  2  0
  7  8  1  0
  8  9  1  0
  9 10  2  0
 10 11  1  0
 11 12  2  0
 12 13  1  0
 12 14  1  0
 14 15  2  0
  8 16  2  0
 16 17  1  0
 17 18  2  0
 18 19  1  0
 19 20  2  0
 20 21  1  0
 21 22  2  0
 16 23  1  0
 23 24  1  0
 24 25  2  0
 25 26  1  0
 26 27  2  0
 27 28  1  0
 27 29  1  0
 29 30  2  0
 23 31  2  0
  5 32  1  0
 32 33  2  0
 33  2  1  0
 31  6  1  0
 15  9  1  0
 22 17  1  0
 30 24  1  0
  1 34  1  0
  1 35  1  0
  1 36  1  0
  3 37  1  0
  4 38  1  0
  7 39  1  0
 10 40  1  0
 11 41  1  0
 13 42  1  0
 13 43  1  0
 13 44  1  0
 14 45  1  0
 15 46  1  0
 18 47  1  0
 19 48  1  0
 20 49  1  0
 21 50  1  0
 22 51  1  0
 25 52  1  0
 26 53  1  0
 28 54  1  0
 28 55  1  0
 28 56  1  0
 29 57  1  0
 30 58  1  0
 31 59  1  0
 32 60  1  0
 33 61  1  0
M  CHG  1  16   1
M  END
$$$$
