
     RDKit          3D

 48 51  0  0  0  0  0  0  0  0999 V2000
    2.8175   -0.0218   -3.2031 C   0  0  0  0  0  0  0  0  0  0  0  0
    2.7383   -1.3281   -2.4274 C   0  0  0  0  0  0  0  0  0  0  0  0
    2.5838   -1.0743   -0.9978 N   0  0  0  0  0  0  0  0  0  0  0  0
    1.3923   -0.9339   -0.2787 C   0  0  0  0  0  0  0  0  0  0  0  0
    0.1466   -0.9614   -0.7918 C   0  0  0  0  0  0  0  0  0  0  0  0
   -1.1138   -0.8182   -0.0429 C   0  0  0  0  0  0  0  0  0  0  0  0
   -1.5269   -1.9178    0.7014 C   0  0  0  0  0  0  0  0  0  0  0  0
   -2.6950   -1.8571    1.4225 C   0  0  0  0  0  0  0  0  0  0  0  0
   -3.4890   -0.7255    1.3345 C   0  0  0  0  0  0  0  0  0  0  0  0
   -4.6723   -0.7286    2.0795 C   0  0  0  0  0  0  0  0  0  0  0  0
   -5.5431    0.3433    2.0229 C   0  0  0  0  0  0  0  0  0  0  0  0
   -5.2541    1.4068    1.1837 C   0  0  0  0  0  0  0  0  0  0  0  0
   -4.0757    1.4448    0.3970 C   0  0  0  0  0  0  0  0  0  0  0  0
   -4.0315    2.6156   -0.5531 C   0  0  0  0  0  0  0  0  0  0  0  0
   -3.1158    0.3919    0.5053 C   0  0  0  0  0  0  0  0  0  0  0  0
   -1.8654    0.3306   -0.1049 N   0  0  0  0  0  4  0  0  0  0  0  0
   -1.2211    1.5350   -0.7116 C   0  0  0  0  0  0  0  0  0  0  0  0
   -0.7081    2.4602    0.3778 C   0  0  0  0  0  0  0  0  0  0  0  0
    1.6377   -0.6532    1.4687 S   0  0  0  0  0  0  0  0  0  0  0  0
    3.4017   -0.6834    1.1876 C   0  0  0  0  0  0  0  0  0  0  0  0
    4.3783   -0.5012    2.1571 C   0  0  0  0  0  0  0  0  0  0  0  0
    5.7146   -0.5445    1.7662 C   0  0  0  0  0  0  0  0  0  0  0  0
    6.0502   -0.7650    0.4251 C   0  0  0  0  0  0  0  0  0  0  0  0
    5.0551   -0.9480   -0.5443 C   0  0  0  0  0  0  0  0  0  0  0  0
    3.7157   -0.9119   -0.1708 C   0  0  0  0  0  0  0  0  0  0  0  0
    2.9148   -0.2232   -4.2745 H   0  0  0  0  0  0  0  0  0  0  0  0
    1.9175    0.5833   -3.0514 H   0  0  0  0  0  0  0  0  0  0  0  0
    3.6788    0.5771   -2.8906 H   0  0  0  0  0  0  0  0  0  0  0  0
    3.6183   -1.9469   -2.6358 H   0  0  0  0  0  0  0  0  0  0  0  0
    1.8909   -1.9152   -2.8007 H   0  0  0  0  0  0  0  0  0  0  0  0
    0.0033   -1.1119   -1.8577 H   0  0  0  0  0  0  0  0  0  0  0  0
   -0.9194   -2.8213    0.7475 H   0  0  0  0  0  0  0  0  0  0  0  0
   -2.9838   -2.7122    2.0336 H   0  0  0  0  0  0  0  0  0  0  0  0
   -4.9363   -1.5712    2.7195 H   0  0  0  0  0  0  0  0  0  0  0  0
   -6.4610    0.3383    2.6082 H   0  0  0  0  0  0  0  0  0  0  0  0
   -5.9856    2.2155    1.1286 H   0  0  0  0  0  0  0  0  0  0  0  0
   -3.9232    2.2637   -1.5834 H   0  0  0  0  0  0  0  0  0  0  0  0
   -3.2478    3.3255   -0.2834 H   0  0  0  0  0  0  0  0  0  0  0  0
   -4.9682    3.1863   -0.5417 H   0  0  0  0  0  0  0  0  0  0  0  0
   -1.9085    2.0059   -1.4057 H   0  0  0  0  0  0  0  0  0  0  0  0
   -0.3856    1.2474   -1.3528 H   0  0  0  0  0  0  0  0  0  0  0  0
   -1.4941    2.7611    1.0752 H   0  0  0  0  0  0  0  0  0  0  0  0
   -0.2816    3.3647   -0.0667 H   0  0  0  0  0  0  0  0  0  0  0  0
    0.0746    1.9755    0.9669 H   0  0  0  0  0  0  0  0  0  0  0  0
    4.1148   -0.3296    3.1958 H   0  0  0  0  0  0  0  0  0  0  0  0
    6.5019   -0.4067    2.5045 H   0  0  0  0  0  0  0  0  0  0  0  0
    7.0985   -0.7954    0.1332 H   0  0  0  0  0  0  0  0  0  0  0  0
    5.3616   -1.1118   -1.5715 H   0  0  0  0  0  0  0  0  0  0  0  0
  1  2  1  0
  2  3  1  0
  3  4  1  0
  4  5  2  3
  5  6  1  0
  6  7  2  0
  7  8  1  0
  8  9  2  0
  9 10  1  0
 10 11  2  0
 11 12  1  0
 12 13  2  0
 13 14  1  0
 13 15  1  0
 15 16  2  0
 16 17  1  0
 17 18  1  0
  4 19  1  0
 19 20  1  0
 20 21  2  0
 21 22  1  0
 22 23  2  0
 23 24  1  0
 24 25  2  0
 25  3  1  0
 16  6  1  0
 25 20  1  0
 15  9  1  0
  1 26  1  0
  1 27  1  0
  1 28  1  0
  2 29  1  0
  2 30  1  0
  5 31  1  0
  7 32  1  0
  8 33  1  0
 10 34  1  0
 11 35  1  0
 12 36  1  0
 14 37  1  0
 14 38  1  0
 14 39  1  0
 17 40  1  0
 17 41  1  0
 18 42  1  0
 18 43  1  0
 18 44  1  0
 21 45  1  0
 22 46  1  0
 23 47  1  0
 24 48  1  0
M  CHG  1  16   1
M  END
$$$$
