
     RDKit          3D

 61 66  0  0  0  0  0  0  0  0999 V2000
    6.2413    3.5044    0.5509 F   0  0  0  0  0  0  0  0  0  0  0  0
    4.9193    3.5345    0.2223 C   0  0  0  0  0  0  0  0  0  0  0  0
    4.2408    3.4783    1.4019 F   0  0  0  0  0  0  0  0  0  0  0  0
    4.6900    4.7796   -0.2816 F   0  0  0  0  0  0  0  0  0  0  0  0
    4.5353    2.4194   -0.7190 C   0  0  0  0  0  0  0  0  0  0  0  0
    3.9883    2.6886   -1.9802 C   0  0  0  0  0  0  0  0  0  0  0  0
    3.6533    1.6444   -2.8412 C   0  0  0  0  0  0  0  0  0  0  0  0
    3.8527    0.3210   -2.4478 C   0  0  0  0  0  0  0  0  0  0  0  0
    4.3774    0.0201   -1.1831 C   0  0  0  0  0  0  0  0  0  0  0  0
    4.5750   -1.4176   -0.7441 C   0  0  0  0  0  0  0  0  0  0  0  0
    3.4457   -2.0641   -0.0732 N   0  0  0  0  0  0  0  0  0  0  0  0
    2.2327   -2.2335   -0.8848 C   0  0  0  0  0  0  0  0  0  0  0  0
    1.0573   -1.3037   -0.5075 C   0  0  0  0  0  0  0  0  0  0  0  0
    0.7010   -1.4113    0.9156 N   0  0  0  0  0  0  0  0  0  0  0  0
   -0.6223   -1.4430    1.3445 C   0  0  0  0  0  0  0  0  0  0  0  0
   -0.9164   -2.2097    2.3671 N   0  0  0  0  0  0  0  0  0  0  0  0
   -2.2403   -2.3257    2.8294 C   0  0  0  0  0  0  0  0  0  0  0  0
   -2.4927   -3.1701    3.9123 C   0  0  0  0  0  0  0  0  0  0  0  0
   -3.7908   -3.3315    4.4044 C   0  0  0  0  0  0  0  0  0  0  0  0
   -4.8533   -2.6471    3.8137 C   0  0  0  0  0  0  0  0  0  0  0  0
   -4.6238   -1.7986    2.7301 C   0  0  0  0  0  0  0  0  0  0  0  0
   -3.3193   -1.6475    2.2488 C   0  0  0  0  0  0  0  0  0  0  0  0
   -2.9956   -0.8026    1.1743 N   0  0  0  0  0  0  0  0  0  0  0  0
   -3.8202    0.0010    0.4228 C   0  0  0  0  0  0  0  0  0  0  0  0
   -3.0455    0.7153   -0.4710 C   0  0  0  0  0  0  0  0  0  0  0  0
   -3.5755    1.6795   -1.4259 C   0  0  0  0  0  0  0  0  0  0  0  0
   -4.7050    2.4545   -1.1270 C   0  0  0  0  0  0  0  0  0  0  0  0
   -5.2038    3.3737   -2.0542 C   0  0  0  0  0  0  0  0  0  0  0  0
   -4.5776    3.5292   -3.2894 C   0  0  0  0  0  0  0  0  0  0  0  0
   -3.4513    2.7694   -3.5972 C   0  0  0  0  0  0  0  0  0  0  0  0
   -2.9519    1.8508   -2.6697 C   0  0  0  0  0  0  0  0  0  0  0  0
   -1.7026    0.3001   -0.2546 C   0  0  0  0  0  0  0  0  0  0  0  0
   -1.6969   -0.6698    0.7336 C   0  0  0  0  0  0  0  0  0  0  0  0
    1.7556   -1.9659    1.7840 C   0  0  0  0  0  0  0  0  0  0  0  0
    3.1530   -1.5520    1.2750 C   0  0  0  0  0  0  0  0  0  0  0  0
    4.7277    1.0820   -0.3337 C   0  0  0  0  0  0  0  0  0  0  0  0
    3.8241    3.7164   -2.3005 H   0  0  0  0  0  0  0  0  0  0  0  0
    3.2390    1.8618   -3.8227 H   0  0  0  0  0  0  0  0  0  0  0  0
    3.5965   -0.4778   -3.1404 H   0  0  0  0  0  0  0  0  0  0  0  0
    5.4581   -1.4708   -0.0928 H   0  0  0  0  0  0  0  0  0  0  0  0
    4.8562   -2.0155   -1.6213 H   0  0  0  0  0  0  0  0  0  0  0  0
    2.4417   -2.1581   -1.9572 H   0  0  0  0  0  0  0  0  0  0  0  0
    1.8978   -3.2694   -0.7377 H   0  0  0  0  0  0  0  0  0  0  0  0
    1.3208   -0.2640   -0.7284 H   0  0  0  0  0  0  0  0  0  0  0  0
    0.2070   -1.5800   -1.1411 H   0  0  0  0  0  0  0  0  0  0  0  0
   -1.6669   -3.7061    4.3725 H   0  0  0  0  0  0  0  0  0  0  0  0
   -3.9698   -3.9924    5.2480 H   0  0  0  0  0  0  0  0  0  0  0  0
   -5.8614   -2.7746    4.2001 H   0  0  0  0  0  0  0  0  0  0  0  0
   -5.4655   -1.2750    2.2901 H   0  0  0  0  0  0  0  0  0  0  0  0
   -4.8887    0.0096    0.5815 H   0  0  0  0  0  0  0  0  0  0  0  0
   -5.2029    2.3620   -0.1651 H   0  0  0  0  0  0  0  0  0  0  0  0
   -6.0801    3.9681   -1.8090 H   0  0  0  0  0  0  0  0  0  0  0  0
   -4.9667    4.2425   -4.0111 H   0  0  0  0  0  0  0  0  0  0  0  0
   -2.9618    2.8876   -4.5611 H   0  0  0  0  0  0  0  0  0  0  0  0
   -2.0785    1.2612   -2.9366 H   0  0  0  0  0  0  0  0  0  0  0  0
   -0.8321    0.6824   -0.7679 H   0  0  0  0  0  0  0  0  0  0  0  0
    1.6755   -3.0591    1.8191 H   0  0  0  0  0  0  0  0  0  0  0  0
    1.6343   -1.5867    2.8053 H   0  0  0  0  0  0  0  0  0  0  0  0
    3.1925   -0.4586    1.3016 H   0  0  0  0  0  0  0  0  0  0  0  0
    3.9142   -1.9240    1.9696 H   0  0  0  0  0  0  0  0  0  0  0  0
    5.1547    0.8687    0.6463 H   0  0  0  0  0  0  0  0  0  0  0  0
  1  2  1  0
  2  3  1  0
  2  4  1  0
  2  5  1  0
  5  6  2  0
  6  7  1  0
  7  8  2  0
  8  9  1  0
  9 10  1  0
 10 11  1  0
 11 12  1  0
 12 13  1  0
 13 14  1  0
 14 15  1  0
 15 16  2  0
 16 17  1  0
 17 18  2  0
 18 19  1  0
 19 20  2  0
 20 21  1  0
 21 22  2  0
 22 23  1  0
 23 24  1  0
 24 25  2  0
 25 26  1  0
 26 27  2  0
 27 28  1  0
 28 29  2  0
 29 30  1  0
 30 31  2  0
 25 32  1  0
 32 33  2  0
 14 34  1  0
 34 35  1  0
  9 36  2  0
 36  5  1  0
 35 11  1  0
 33 15  1  0
 22 17  1  0
 33 23  1  0
 31 26  1  0
  6 37  1  0
  7 38  1  0
  8 39  1  0
 10 40  1  0
 10 41  1  0
 12 42  1  0
 12 43  1  0
 13 44  1  0
 13 45  1  0
 18 46  1  0
 19 47  1  0
 20 48  1  0
 21 49  1  0
 24 50  1  0
 27 51  1  0
 28 52  1  0
 29 53  1  0
 30 54  1  0
 31 55  1  0
 32 56  1  0
 34 57  1  0
 34 58  1  0
 35 59  1  0
 35 60  1  0
 36 61  1  0
M  END
$$$$
