
     RDKit          3D

 46 48  0  0  0  0  0  0  0  0999 V2000
   -3.4661    1.7866    1.0703 O   0  0  0  0  0  0  0  0  0  0  0  0
   -3.1863    0.6240    0.8091 C   0  0  0  0  0  0  0  0  0  0  0  0
   -4.0622   -0.4417    0.7115 N   0  0  0  0  0  0  0  0  0  0  0  0
   -5.4695   -0.3978    0.8210 C   0  0  0  0  0  0  0  0  0  0  0  0
   -6.1529   -1.6190    0.7754 C   0  0  0  0  0  0  0  0  0  0  0  0
   -7.5431   -1.6480    0.8720 C   0  0  0  0  0  0  0  0  0  0  0  0
   -8.1774   -2.8268    0.8271 F   0  0  0  0  0  0  0  0  0  0  0  0
   -8.2777   -0.4824    1.0116 C   0  0  0  0  0  0  0  0  0  0  0  0
   -7.5979    0.7250    1.0528 C   0  0  0  0  0  0  0  0  0  0  0  0
   -8.2934    1.8625    1.1827 F   0  0  0  0  0  0  0  0  0  0  0  0
   -6.2070    0.7801    0.9583 C   0  0  0  0  0  0  0  0  0  0  0  0
   -1.7524    0.2819    0.6057 C   0  0  0  0  0  0  0  0  0  0  0  0
   -1.3460   -0.6526   -0.3495 C   0  0  0  0  0  0  0  0  0  0  0  0
    0.0162   -0.9412   -0.5218 C   0  0  0  0  0  0  0  0  0  0  0  0
    1.0157   -0.2882    0.2201 C   0  0  0  0  0  0  0  0  0  0  0  0
    2.3673   -0.6482    0.1065 N   0  0  0  0  0  0  0  0  0  0  0  0
    2.8617   -1.3622   -1.0748 C   0  0  0  0  0  0  0  0  0  0  0  0
    4.3843   -1.5570   -1.0034 C   0  0  0  0  0  0  0  0  0  0  0  0
    5.1611   -0.2807   -1.2278 C   0  0  0  0  0  0  0  0  0  0  0  0
    5.6662    0.4463   -0.1415 C   0  0  0  0  0  0  0  0  0  0  0  0
    6.3626    1.6375   -0.3501 C   0  0  0  0  0  0  0  0  0  0  0  0
    6.5646    2.1112   -1.6447 C   0  0  0  0  0  0  0  0  0  0  0  0
    6.0694    1.3950   -2.7325 C   0  0  0  0  0  0  0  0  0  0  0  0
    5.3694    0.2052   -2.5263 C   0  0  0  0  0  0  0  0  0  0  0  0
    0.5673    0.6377    1.1929 C   0  0  0  0  0  0  0  0  0  0  0  0
    1.5207    1.3280    2.0611 N   0  0  0  0  0  4  0  0  0  0  0  0
    2.6035    1.6800    1.5684 O   0  0  0  0  0  0  0  0  0  0  0  0
    1.1783    1.5300    3.2353 O   0  0  0  0  0  1  0  0  0  0  0  0
   -0.7936    0.9378    1.3771 C   0  0  0  0  0  0  0  0  0  0  0  0
   -3.6565   -1.3648    0.6219 H   0  0  0  0  0  0  0  0  0  0  0  0
   -5.6274   -2.5627    0.6681 H   0  0  0  0  0  0  0  0  0  0  0  0
   -9.3579   -0.5116    1.0858 H   0  0  0  0  0  0  0  0  0  0  0  0
   -5.7413    1.7589    0.9926 H   0  0  0  0  0  0  0  0  0  0  0  0
   -2.0694   -1.1528   -0.9892 H   0  0  0  0  0  0  0  0  0  0  0  0
    0.2753   -1.6911   -1.2651 H   0  0  0  0  0  0  0  0  0  0  0  0
    2.9765    0.1469    0.3428 H   0  0  0  0  0  0  0  0  0  0  0  0
    2.4049   -2.3580   -1.1114 H   0  0  0  0  0  0  0  0  0  0  0  0
    2.5884   -0.8212   -1.9888 H   0  0  0  0  0  0  0  0  0  0  0  0
    4.6892   -2.2835   -1.7677 H   0  0  0  0  0  0  0  0  0  0  0  0
    4.6644   -1.9985   -0.0384 H   0  0  0  0  0  0  0  0  0  0  0  0
    5.5137    0.0962    0.8776 H   0  0  0  0  0  0  0  0  0  0  0  0
    6.7430    2.1981    0.5000 H   0  0  0  0  0  0  0  0  0  0  0  0
    7.1061    3.0398   -1.8046 H   0  0  0  0  0  0  0  0  0  0  0  0
    6.2272    1.7653   -3.7421 H   0  0  0  0  0  0  0  0  0  0  0  0
    4.9891   -0.3395   -3.3872 H   0  0  0  0  0  0  0  0  0  0  0  0
   -1.1082    1.6711    2.1193 H   0  0  0  0  0  0  0  0  0  0  0  0
  1  2  2  0
  2  3  1  0
  3  4  1  0
  4  5  2  0
  5  6  1  0
  6  7  1  0
  6  8  2  0
  8  9  1  0
  9 10  1  0
  9 11  2  0
  2 12  1  0
 12 13  2  0
 13 14  1  0
 14 15  2  0
 15 16  1  0
 16 17  1  0
 17 18  1  0
 18 19  1  0
 19 20  2  0
 20 21  1  0
 21 22  2  0
 22 23  1  0
 23 24  2  0
 15 25  1  0
 25 26  1  0
 26 27  2  0
 26 28  1  0
 25 29  2  0
 11  4  1  0
 29 12  1  0
 24 19  1  0
  3 30  1  0
  5 31  1  0
  8 32  1  0
 11 33  1  0
 13 34  1  0
 14 35  1  0
 16 36  1  0
 17 37  1  0
 17 38  1  0
 18 39  1  0
 18 40  1  0
 20 41  1  0
 21 42  1  0
 22 43  1  0
 23 44  1  0
 24 45  1  0
 29 46  1  0
M  CHG  2  26   1  28  -1
M  END
$$$$
