
     RDKit          3D

 26 28  0  0  0  0  0  0  0  0999 V2000
   -4.0374    0.9513   -0.0326 C   0  0  0  0  0  0  0  0  0  0  0  0
   -2.6058    0.5843    0.0072 C   0  0  0  0  0  0  0  0  0  0  0  0
   -1.7223    1.6122   -0.1197 O   0  0  0  0  0  0  0  0  0  0  0  0
   -0.4731    1.0810   -0.0574 C   0  0  0  0  0  0  0  0  0  0  0  0
    0.7122    1.8038   -0.1451 C   0  0  0  0  0  0  0  0  0  0  0  0
    1.8822    1.0477   -0.0542 C   0  0  0  0  0  0  0  0  0  0  0  0
    3.1001    1.7593   -0.1403 O   0  0  0  0  0  0  0  0  0  0  0  0
    4.3246    1.1113   -0.0623 C   0  0  0  0  0  0  0  0  0  0  0  0
    5.3918    1.7093   -0.1347 O   0  0  0  0  0  0  0  0  0  0  0  0
    4.2931   -0.3507    0.1141 C   0  0  0  0  0  0  0  0  0  0  0  0
    3.1511   -1.0398    0.1975 C   0  0  0  0  0  0  0  0  0  0  0  0
    1.8788   -0.3388    0.1131 C   0  0  0  0  0  0  0  0  0  0  0  0
    0.6595   -1.0285    0.1965 C   0  0  0  0  0  0  0  0  0  0  0  0
   -0.5441   -0.2976    0.1082 C   0  0  0  0  0  0  0  0  0  0  0  0
   -1.9366   -0.6204    0.1464 C   0  0  0  0  0  0  0  0  0  0  0  0
   -2.5343   -1.9683    0.3095 C   0  0  0  0  0  0  0  0  0  0  0  0
   -4.1732    2.0352    0.0354 H   0  0  0  0  0  0  0  0  0  0  0  0
   -4.4910    0.6081   -0.9673 H   0  0  0  0  0  0  0  0  0  0  0  0
   -4.5751    0.4911    0.8021 H   0  0  0  0  0  0  0  0  0  0  0  0
    0.7183    2.8780   -0.2742 H   0  0  0  0  0  0  0  0  0  0  0  0
    5.2591   -0.8372    0.1727 H   0  0  0  0  0  0  0  0  0  0  0  0
    3.1554   -2.1165    0.3274 H   0  0  0  0  0  0  0  0  0  0  0  0
    0.6315   -2.1060    0.3265 H   0  0  0  0  0  0  0  0  0  0  0  0
   -3.5999   -1.9685    0.0596 H   0  0  0  0  0  0  0  0  0  0  0  0
   -2.0385   -2.6927   -0.3447 H   0  0  0  0  0  0  0  0  0  0  0  0
   -2.4264   -2.3075    1.3447 H   0  0  0  0  0  0  0  0  0  0  0  0
  1  2  1  0
  2  3  1  0
  3  4  1  0
  4  5  2  0
  5  6  1  0
  6  7  1  0
  7  8  1  0
  8  9  2  0
  8 10  1  0
 10 11  2  0
 11 12  1  0
 12 13  1  0
 13 14  2  0
 14 15  1  0
 15 16  1  0
 15  2  2  0
 14  4  1  0
 12  6  2  0
  1 17  1  0
  1 18  1  0
  1 19  1  0
  5 20  1  0
 10 21  1  0
 11 22  1  0
 13 23  1  0
 16 24  1  0
 16 25  1  0
 16 26  1  0
M  END
$$$$
