
     RDKit          3D

 48 50  0  0  0  0  0  0  0  0999 V2000
    3.9695   -3.6556    2.8088 C   0  0  0  0  0  0  0  0  0  0  0  0
    3.9728   -2.7535    1.7085 O   0  0  0  0  0  0  0  0  0  0  0  0
    2.7625   -2.2681    1.2878 C   0  0  0  0  0  0  0  0  0  0  0  0
    1.5486   -2.4853    1.9497 C   0  0  0  0  0  0  0  0  0  0  0  0
    0.3589   -1.9538    1.4438 C   0  0  0  0  0  0  0  0  0  0  0  0
    0.3753   -1.2049    0.2681 C   0  0  0  0  0  0  0  0  0  0  0  0
   -0.8693   -0.6420   -0.2906 C   0  0  0  0  0  0  0  0  0  0  0  0
   -2.0121   -0.8077    0.2950 N   0  0  0  0  0  0  0  0  0  0  0  0
   -3.0740   -0.2367   -0.3342 N   0  0  0  0  0  0  0  0  0  0  0  0
   -4.3583   -0.3523    0.1867 C   0  0  0  0  0  0  0  0  0  0  0  0
   -4.6393   -0.9379    1.2237 O   0  0  0  0  0  0  0  0  0  0  0  0
   -5.3897    0.3340   -0.6734 C   0  0  0  0  0  0  0  0  0  0  0  0
   -4.8491    0.9248   -1.7862 N   0  0  0  0  0  0  0  0  0  0  0  0
   -5.7009    1.5526   -2.6253 C   0  0  0  0  0  0  0  0  0  0  0  0
   -4.8910    2.2176   -3.9907 Cl  0  0  0  0  0  0  0  0  0  0  0  0
   -7.0714    1.6494   -2.4235 C   0  0  0  0  0  0  0  0  0  0  0  0
   -8.1046    2.4677   -3.5483 Cl  0  0  0  0  0  0  0  0  0  0  0  0
   -7.6140    1.0756   -1.2578 C   0  0  0  0  0  0  0  0  0  0  0  0
   -9.0195    1.0252   -1.0797 N   0  0  0  0  0  0  0  0  0  0  0  0
   -6.7555    0.3697   -0.3799 C   0  0  0  0  0  0  0  0  0  0  0  0
   -7.4616   -0.3727    1.0177 Cl  0  0  0  0  0  0  0  0  0  0  0  0
    1.5793   -0.9784   -0.3995 C   0  0  0  0  0  0  0  0  0  0  0  0
    2.7866   -1.4913    0.1127 C   0  0  0  0  0  0  0  0  0  0  0  0
    4.0814   -1.2505   -0.6378 C   0  0  0  0  0  0  0  0  0  0  0  0
    4.1211    0.0380   -1.2619 O   0  0  0  0  0  0  0  0  0  0  0  0
    4.5376    1.1124   -0.5247 C   0  0  0  0  0  0  0  0  0  0  0  0
    4.7742    1.1184    0.8528 C   0  0  0  0  0  0  0  0  0  0  0  0
    5.1885    2.2947    1.4862 C   0  0  0  0  0  0  0  0  0  0  0  0
    5.3627    3.4593    0.7441 C   0  0  0  0  0  0  0  0  0  0  0  0
    5.7584    4.5809    1.3602 F   0  0  0  0  0  0  0  0  0  0  0  0
    5.1281    3.4758   -0.6216 C   0  0  0  0  0  0  0  0  0  0  0  0
    4.7142    2.3033   -1.2435 C   0  0  0  0  0  0  0  0  0  0  0  0
    4.4840    2.3285   -2.5658 F   0  0  0  0  0  0  0  0  0  0  0  0
    3.3485   -4.5337    2.6008 H   0  0  0  0  0  0  0  0  0  0  0  0
    3.6519   -3.1517    3.7271 H   0  0  0  0  0  0  0  0  0  0  0  0
    4.9966   -4.0026    2.9580 H   0  0  0  0  0  0  0  0  0  0  0  0
    1.4888   -3.0629    2.8666 H   0  0  0  0  0  0  0  0  0  0  0  0
   -0.5768   -2.1308    1.9708 H   0  0  0  0  0  0  0  0  0  0  0  0
   -0.7771   -0.0715   -1.2326 H   0  0  0  0  0  0  0  0  0  0  0  0
   -2.9527    0.2638   -1.2123 H   0  0  0  0  0  0  0  0  0  0  0  0
   -9.3143    0.8407   -0.1206 H   0  0  0  0  0  0  0  0  0  0  0  0
   -9.5349    1.7791   -1.5305 H   0  0  0  0  0  0  0  0  0  0  0  0
    1.5921   -0.3969   -1.3195 H   0  0  0  0  0  0  0  0  0  0  0  0
    4.1311   -1.9906   -1.4459 H   0  0  0  0  0  0  0  0  0  0  0  0
    4.9803   -1.4078   -0.0312 H   0  0  0  0  0  0  0  0  0  0  0  0
    4.6370    0.2343    1.4658 H   0  0  0  0  0  0  0  0  0  0  0  0
    5.3727    2.3096    2.5567 H   0  0  0  0  0  0  0  0  0  0  0  0
    5.2634    4.3840   -1.1954 H   0  0  0  0  0  0  0  0  0  0  0  0
  1  2  1  0
  2  3  1  0
  3  4  2  0
  4  5  1  0
  5  6  2  0
  6  7  1  0
  7  8  2  3
  8  9  1  0
  9 10  1  0
 10 11  2  0
 10 12  1  0
 12 13  2  0
 13 14  1  0
 14 15  1  0
 14 16  2  0
 16 17  1  0
 16 18  1  0
 18 19  1  0
 18 20  2  0
 20 21  1  0
  6 22  1  0
 22 23  2  0
 23 24  1  0
 24 25  1  0
 25 26  1  0
 26 27  2  0
 27 28  1  0
 28 29  2  0
 29 30  1  0
 29 31  1  0
 31 32  2  0
 32 33  1  0
 23  3  1  0
 32 26  1  0
 20 12  1  0
  1 34  1  0
  1 35  1  0
  1 36  1  0
  4 37  1  0
  5 38  1  0
  7 39  1  0
  9 40  1  0
 19 41  1  0
 19 42  1  0
 22 43  1  0
 24 44  1  0
 24 45  1  0
 27 46  1  0
 28 47  1  0
 31 48  1  0
M  END
$$$$
