
     RDKit          3D

 60 65  0  0  0  0  0  0  0  0999 V2000
    6.3359    2.0662    0.7832 C   0  0  0  0  0  0  0  0  0  0  0  0
    5.3033    2.7514    0.0722 O   0  0  0  0  0  0  0  0  0  0  0  0
    4.2235    1.9950   -0.2972 C   0  0  0  0  0  0  0  0  0  0  0  0
    3.1348    2.7345   -0.7636 C   0  0  0  0  0  0  0  0  0  0  0  0
    1.9667    2.0885   -1.1830 C   0  0  0  0  0  0  0  0  0  0  0  0
    1.8674    0.6915   -1.1661 C   0  0  0  0  0  0  0  0  0  0  0  0
    2.9882   -0.0357   -0.7606 C   0  0  0  0  0  0  0  0  0  0  0  0
    4.1425    0.6021   -0.2895 C   0  0  0  0  0  0  0  0  0  0  0  0
    3.0324   -1.4044   -0.8156 O   0  0  0  0  0  0  0  0  0  0  0  0
    2.1933   -1.9288   -1.8466 C   0  0  0  0  0  0  0  0  0  0  0  0
    0.7405   -1.5204   -1.6493 C   0  0  0  0  0  0  0  0  0  0  0  0
    0.6004   -0.0017   -1.6231 C   0  0  0  0  0  0  0  0  0  0  0  0
   -0.5257    0.2579   -0.7366 N   0  0  0  0  0  0  0  0  0  0  0  0
   -1.2342    1.4303   -0.8455 C   0  0  0  0  0  0  0  0  0  0  0  0
   -1.2441    2.0819   -1.8926 O   0  0  0  0  0  0  0  0  0  0  0  0
   -1.9449    1.9869    0.3350 C   0  0  0  0  0  0  0  0  0  0  0  0
   -2.9780    2.9116    0.0493 C   0  0  0  0  0  0  0  0  0  0  0  0
   -3.6075    3.6478    1.0639 C   0  0  0  0  0  0  0  0  0  0  0  0
   -4.7293    4.5827    0.7339 C   0  0  0  0  0  0  0  0  0  0  0  0
   -3.1477    3.5074    2.3758 C   0  0  0  0  0  0  0  0  0  0  0  0
   -2.1390    2.5784    2.6744 C   0  0  0  0  0  0  0  0  0  0  0  0
   -1.5459    1.7908    1.6678 C   0  0  0  0  0  0  0  0  0  0  0  0
   -0.6067    0.8549    2.1455 N   0  0  0  0  0  0  0  0  0  0  0  0
   -0.1758   -0.3285    1.6065 C   0  0  0  0  0  0  0  0  0  0  0  0
    0.5158   -1.0455    2.3426 O   0  0  0  0  0  0  0  0  0  0  0  0
   -0.7315   -0.8188    0.2463 C   0  0  0  0  0  0  0  0  0  0  0  0
   -2.2173   -1.1982    0.4354 C   0  0  0  0  0  0  0  0  0  0  0  0
    0.1511   -2.0141   -0.2970 C   0  0  0  0  0  0  0  0  0  0  0  0
   -0.5278   -3.3778   -0.4473 C   0  0  0  0  0  0  0  0  0  0  0  0
   -1.4587   -3.6486   -1.4704 C   0  0  0  0  0  0  0  0  0  0  0  0
   -2.0918   -4.8890   -1.5577 C   0  0  0  0  0  0  0  0  0  0  0  0
   -1.7950   -5.8824   -0.6282 C   0  0  0  0  0  0  0  0  0  0  0  0
   -0.8672   -5.6390    0.3882 C   0  0  0  0  0  0  0  0  0  0  0  0
   -0.2378   -4.3962    0.4812 C   0  0  0  0  0  0  0  0  0  0  0  0
    7.0485    2.8086    1.1549 H   0  0  0  0  0  0  0  0  0  0  0  0
    5.9297    1.5387    1.6590 H   0  0  0  0  0  0  0  0  0  0  0  0
    6.8777    1.3774    0.1236 H   0  0  0  0  0  0  0  0  0  0  0  0
    3.1852    3.8224   -0.8096 H   0  0  0  0  0  0  0  0  0  0  0  0
    1.1411    2.6953   -1.5481 H   0  0  0  0  0  0  0  0  0  0  0  0
    4.9766   -0.0136    0.0320 H   0  0  0  0  0  0  0  0  0  0  0  0
    2.3015   -3.0198   -1.8336 H   0  0  0  0  0  0  0  0  0  0  0  0
    2.5597   -1.5938   -2.8280 H   0  0  0  0  0  0  0  0  0  0  0  0
    0.1650   -1.8988   -2.5017 H   0  0  0  0  0  0  0  0  0  0  0  0
    0.3678    0.3607   -2.6330 H   0  0  0  0  0  0  0  0  0  0  0  0
   -3.2993    3.0528   -0.9812 H   0  0  0  0  0  0  0  0  0  0  0  0
   -4.3449    5.5013    0.2895 H   0  0  0  0  0  0  0  0  0  0  0  0
   -5.4151    4.1091    0.0277 H   0  0  0  0  0  0  0  0  0  0  0  0
   -5.3087    4.8312    1.6331 H   0  0  0  0  0  0  0  0  0  0  0  0
   -3.5834    4.0884    3.1888 H   0  0  0  0  0  0  0  0  0  0  0  0
   -1.8386    2.4765    3.7186 H   0  0  0  0  0  0  0  0  0  0  0  0
   -0.2793    0.9585    3.1022 H   0  0  0  0  0  0  0  0  0  0  0  0
   -2.8202   -0.4078    0.8981 H   0  0  0  0  0  0  0  0  0  0  0  0
   -2.7086   -1.4284   -0.5151 H   0  0  0  0  0  0  0  0  0  0  0  0
   -2.3169   -2.0484    1.1155 H   0  0  0  0  0  0  0  0  0  0  0  0
    0.9972   -2.1804    0.3841 H   0  0  0  0  0  0  0  0  0  0  0  0
   -1.7363   -2.8811   -2.1935 H   0  0  0  0  0  0  0  0  0  0  0  0
   -2.8263   -5.0699   -2.3353 H   0  0  0  0  0  0  0  0  0  0  0  0
   -2.3013   -6.8468   -0.6747 H   0  0  0  0  0  0  0  0  0  0  0  0
   -0.6384   -6.4284    1.1086 H   0  0  0  0  0  0  0  0  0  0  0  0
    0.4777   -4.2344    1.2866 H   0  0  0  0  0  0  0  0  0  0  0  0
  1  2  1  0
  2  3  1  0
  3  4  2  0
  4  5  1  0
  5  6  2  0
  6  7  1  0
  7  8  2  0
  7  9  1  0
  9 10  1  0
 10 11  1  0
 11 12  1  0
 12 13  1  0
 13 14  1  0
 14 15  2  0
 14 16  1  0
 16 17  2  0
 17 18  1  0
 18 19  1  0
 18 20  2  0
 20 21  1  0
 21 22  2  0
 22 23  1  0
 23 24  1  0
 24 25  2  0
 24 26  1  0
 26 27  1  0
 26 28  1  0
 28 29  1  0
 29 30  2  0
 30 31  1  0
 31 32  2  0
 32 33  1  0
 33 34  2  0
  8  3  1  0
 28 11  1  0
 34 29  1  0
 12  6  1  0
 26 13  1  0
 22 16  1  0
  1 35  1  0
  1 36  1  0
  1 37  1  0
  4 38  1  0
  5 39  1  0
  8 40  1  0
 10 41  1  0
 10 42  1  0
 11 43  1  0
 12 44  1  0
 17 45  1  0
 19 46  1  0
 19 47  1  0
 19 48  1  0
 20 49  1  0
 21 50  1  0
 23 51  1  0
 27 52  1  0
 27 53  1  0
 27 54  1  0
 28 55  1  0
 30 56  1  0
 31 57  1  0
 32 58  1  0
 33 59  1  0
 34 60  1  0
M  END
$$$$
