
     RDKit          3D

 59 62  0  0  0  0  0  0  0  0999 V2000
    4.2365    4.8957    2.8744 C   0  0  0  0  0  0  0  0  0  0  0  0
    3.9034    3.5473    3.1854 O   0  0  0  0  0  0  0  0  0  0  0  0
    3.4058    2.7851    2.1643 C   0  0  0  0  0  0  0  0  0  0  0  0
    3.2959    3.1779    0.8285 C   0  0  0  0  0  0  0  0  0  0  0  0
    2.7472    2.3081   -0.1209 C   0  0  0  0  0  0  0  0  0  0  0  0
    2.2961    1.0451    0.2636 C   0  0  0  0  0  0  0  0  0  0  0  0
    1.6472    0.1426   -0.6855 C   0  0  0  0  0  0  0  0  0  0  0  0
    1.1242   -1.0278   -0.2770 C   0  0  0  0  0  0  0  0  0  0  0  0
    0.3507   -1.9405   -1.1782 C   0  0  0  0  0  0  0  0  0  0  0  0
   -1.0905   -1.9328   -0.8187 N   0  0  0  0  0  0  0  0  0  0  0  0
   -1.6625   -3.2920   -0.5773 C   0  0  0  0  0  0  0  0  0  0  0  0
   -1.7518   -4.1593   -1.8404 C   0  0  0  0  0  0  0  0  0  0  0  0
   -2.1682   -5.5904   -1.5299 C   0  0  0  0  0  0  0  0  0  0  0  0
   -2.7860   -6.0219   -2.8361 C   0  0  0  0  0  0  0  0  0  0  0  0
   -3.4958   -4.7602   -3.2750 C   0  0  0  0  0  0  0  0  0  0  0  0
   -2.7366   -3.6597   -2.7597 O   0  0  0  0  0  0  0  0  0  0  0  0
   -2.1122   -0.8219   -1.6080 S   0  0  0  0  0  6  0  0  0  0  0  0
   -1.6967   -0.7227   -2.9913 O   0  0  0  0  0  0  0  0  0  0  0  0
   -3.4856   -1.0604   -1.2197 O   0  0  0  0  0  0  0  0  0  0  0  0
   -1.6769    0.7197   -0.8202 C   0  0  0  0  0  0  0  0  0  0  0  0
   -1.2872    1.8165   -1.5913 C   0  0  0  0  0  0  0  0  0  0  0  0
   -0.8793    2.9901   -0.9527 C   0  0  0  0  0  0  0  0  0  0  0  0
   -0.8620    3.0715    0.4496 C   0  0  0  0  0  0  0  0  0  0  0  0
   -0.3437    4.3226    1.0806 C   0  0  0  0  0  0  0  0  0  0  0  0
   -0.3707    4.4489    2.5811 C   0  0  0  0  0  0  0  0  0  0  0  0
    0.1103    5.2220    0.3750 O   0  0  0  0  0  0  0  0  0  0  0  0
   -1.2942    1.9762    1.2106 C   0  0  0  0  0  0  0  0  0  0  0  0
   -1.7074    0.8009    0.5762 C   0  0  0  0  0  0  0  0  0  0  0  0
    1.3369   -1.4863    1.1292 C   0  0  0  0  0  0  0  0  0  0  0  0
    0.9856   -2.5990    1.5108 O   0  0  0  0  0  0  0  0  0  0  0  0
    1.9456   -0.6067    1.9856 N   0  0  0  0  0  0  0  0  0  0  0  0
    2.4138    0.6543    1.5999 C   0  0  0  0  0  0  0  0  0  0  0  0
    2.9757    1.5108    2.5449 C   0  0  0  0  0  0  0  0  0  0  0  0
    3.3653    5.4430    2.4983 H   0  0  0  0  0  0  0  0  0  0  0  0
    5.0698    4.9405    2.1655 H   0  0  0  0  0  0  0  0  0  0  0  0
    4.5598    5.3814    3.7999 H   0  0  0  0  0  0  0  0  0  0  0  0
    3.6155    4.1594    0.4913 H   0  0  0  0  0  0  0  0  0  0  0  0
    2.6547    2.6431   -1.1516 H   0  0  0  0  0  0  0  0  0  0  0  0
    1.5330    0.4821   -1.7103 H   0  0  0  0  0  0  0  0  0  0  0  0
    0.7690   -2.9516   -1.0996 H   0  0  0  0  0  0  0  0  0  0  0  0
    0.4839   -1.6657   -2.2306 H   0  0  0  0  0  0  0  0  0  0  0  0
   -2.6507   -3.1801   -0.1161 H   0  0  0  0  0  0  0  0  0  0  0  0
   -1.0380   -3.7947    0.1712 H   0  0  0  0  0  0  0  0  0  0  0  0
   -0.7958   -4.1651   -2.3770 H   0  0  0  0  0  0  0  0  0  0  0  0
   -2.9275   -5.6155   -0.7387 H   0  0  0  0  0  0  0  0  0  0  0  0
   -1.3285   -6.2180   -1.2186 H   0  0  0  0  0  0  0  0  0  0  0  0
   -3.4574   -6.8796   -2.7442 H   0  0  0  0  0  0  0  0  0  0  0  0
   -1.9973   -6.2777   -3.5535 H   0  0  0  0  0  0  0  0  0  0  0  0
   -3.5738   -4.6786   -4.3625 H   0  0  0  0  0  0  0  0  0  0  0  0
   -4.5019   -4.7010   -2.8467 H   0  0  0  0  0  0  0  0  0  0  0  0
   -1.2814    1.7620   -2.6778 H   0  0  0  0  0  0  0  0  0  0  0  0
   -0.5568    3.8389   -1.5541 H   0  0  0  0  0  0  0  0  0  0  0  0
    0.2833    3.7005    3.0359 H   0  0  0  0  0  0  0  0  0  0  0  0
   -0.0026    5.4402    2.8642 H   0  0  0  0  0  0  0  0  0  0  0  0
   -1.3941    4.3515    2.9524 H   0  0  0  0  0  0  0  0  0  0  0  0
   -1.2988    2.0016    2.2965 H   0  0  0  0  0  0  0  0  0  0  0  0
   -2.0256   -0.0555    1.1679 H   0  0  0  0  0  0  0  0  0  0  0  0
    2.0607   -0.9237    2.9386 H   0  0  0  0  0  0  0  0  0  0  0  0
    3.0676    1.2089    3.5844 H   0  0  0  0  0  0  0  0  0  0  0  0
  1  2  1  0
  2  3  1  0
  3  4  2  0
  4  5  1  0
  5  6  2  0
  6  7  1  0
  7  8  2  0
  8  9  1  0
  9 10  1  0
 10 11  1  0
 11 12  1  0
 12 13  1  0
 13 14  1  0
 14 15  1  0
 15 16  1  0
 10 17  1  0
 17 18  2  0
 17 19  2  0
 17 20  1  0
 20 21  2  0
 21 22  1  0
 22 23  2  0
 23 24  1  0
 24 25  1  0
 24 26  2  0
 23 27  1  0
 27 28  2  0
  8 29  1  0
 29 30  2  0
 29 31  1  0
 31 32  1  0
 32 33  2  0
 33  3  1  0
 32  6  1  0
 16 12  1  0
 28 20  1  0
  1 34  1  0
  1 35  1  0
  1 36  1  0
  4 37  1  0
  5 38  1  0
  7 39  1  0
  9 40  1  0
  9 41  1  0
 11 42  1  0
 11 43  1  0
 12 44  1  0
 13 45  1  0
 13 46  1  0
 14 47  1  0
 14 48  1  0
 15 49  1  0
 15 50  1  0
 21 51  1  0
 22 52  1  0
 25 53  1  0
 25 54  1  0
 25 55  1  0
 27 56  1  0
 28 57  1  0
 31 58  1  0
 33 59  1  0
M  END
$$$$
