
     RDKit          3D

 59 61  0  0  0  0  0  0  0  0999 V2000
   -3.2245    4.4966   -3.0551 C   0  0  0  0  0  0  0  0  0  0  0  0
   -2.6827    3.0838   -3.0309 C   0  0  0  0  0  0  0  0  0  0  0  0
   -2.5185    2.6927   -1.6761 O   0  0  0  0  0  0  0  0  0  0  0  0
   -2.1146    1.4074   -1.4138 C   0  0  0  0  0  0  0  0  0  0  0  0
   -1.6962    0.4953   -2.3896 C   0  0  0  0  0  0  0  0  0  0  0  0
   -1.2911   -0.7871   -2.0133 C   0  0  0  0  0  0  0  0  0  0  0  0
   -0.8736   -1.6944   -2.9799 N   0  0  0  0  0  0  0  0  0  0  0  0
   -0.4213   -2.9589   -2.7095 C   0  0  0  0  0  0  0  0  0  0  0  0
   -0.0411   -3.8900   -4.0550 S   0  0  0  0  0  0  0  0  0  0  0  0
   -0.3462   -3.3279   -1.3645 N   0  0  0  0  0  0  0  0  0  0  0  0
    0.2012   -4.6359   -0.9501 C   0  0  0  0  0  0  0  0  0  0  0  0
    1.3589   -4.5652    0.0524 C   0  0  0  0  0  0  0  0  0  0  0  0
    2.4706   -3.6525   -0.4165 C   0  0  0  0  0  0  0  0  0  0  0  0
    2.7486   -3.4882   -1.5987 O   0  0  0  0  0  0  0  0  0  0  0  0
    3.1544   -3.0449    0.6148 N   0  0  0  0  0  0  0  0  0  0  0  0
    4.0718   -1.9563    0.3609 C   0  0  0  0  0  0  0  0  0  0  0  0
    3.3929   -0.6408    0.6398 C   0  0  0  0  0  0  0  0  0  0  0  0
    3.6051    0.0342    1.8491 C   0  0  0  0  0  0  0  0  0  0  0  0
    2.9170    1.2203    2.1359 C   0  0  0  0  0  0  0  0  0  0  0  0
    2.0138    1.7441    1.2167 C   0  0  0  0  0  0  0  0  0  0  0  0
    1.2800    2.8830    1.3764 O   0  0  0  0  0  0  0  0  0  0  0  0
    1.4004    3.5666    2.6213 C   0  0  0  0  0  0  0  0  0  0  0  0
    1.8097    1.0784    0.0054 C   0  0  0  0  0  0  0  0  0  0  0  0
    2.4878   -0.1069   -0.2821 C   0  0  0  0  0  0  0  0  0  0  0  0
   -0.8544   -2.5258   -0.3320 C   0  0  0  0  0  0  0  0  0  0  0  0
   -0.9551   -2.8935    0.8376 O   0  0  0  0  0  0  0  0  0  0  0  0
   -1.3026   -1.1673   -0.6825 C   0  0  0  0  0  0  0  0  0  0  0  0
   -1.7172   -0.2670    0.3031 C   0  0  0  0  0  0  0  0  0  0  0  0
   -2.1339    1.0181   -0.0583 C   0  0  0  0  0  0  0  0  0  0  0  0
   -2.5199    1.9751    0.8490 O   0  0  0  0  0  0  0  0  0  0  0  0
   -3.1451    1.5332    2.0512 C   0  0  0  0  0  0  0  0  0  0  0  0
   -2.1775    1.6411    3.2146 C   0  0  0  0  0  0  0  0  0  0  0  0
   -4.1741    4.5469   -2.5178 H   0  0  0  0  0  0  0  0  0  0  0  0
   -3.3766    4.8437   -4.0855 H   0  0  0  0  0  0  0  0  0  0  0  0
   -2.5365    5.1809   -2.5499 H   0  0  0  0  0  0  0  0  0  0  0  0
   -3.3937    2.4258   -3.5271 H   0  0  0  0  0  0  0  0  0  0  0  0
   -1.7269    3.0622   -3.5522 H   0  0  0  0  0  0  0  0  0  0  0  0
   -1.6691    0.7698   -3.4375 H   0  0  0  0  0  0  0  0  0  0  0  0
   -0.8846   -1.4298   -3.9589 H   0  0  0  0  0  0  0  0  0  0  0  0
    0.5311   -5.2220   -1.8097 H   0  0  0  0  0  0  0  0  0  0  0  0
   -0.6227   -5.1961   -0.4910 H   0  0  0  0  0  0  0  0  0  0  0  0
    1.0032   -4.2410    1.0328 H   0  0  0  0  0  0  0  0  0  0  0  0
    1.7810   -5.5656    0.1905 H   0  0  0  0  0  0  0  0  0  0  0  0
    2.7449   -3.0789    1.5371 H   0  0  0  0  0  0  0  0  0  0  0  0
    4.4432   -1.9817   -0.6686 H   0  0  0  0  0  0  0  0  0  0  0  0
    4.9302   -2.0951    1.0258 H   0  0  0  0  0  0  0  0  0  0  0  0
    4.3093   -0.3521    2.5831 H   0  0  0  0  0  0  0  0  0  0  0  0
    3.1126    1.7071    3.0857 H   0  0  0  0  0  0  0  0  0  0  0  0
    0.7470    4.4517    2.5909 H   0  0  0  0  0  0  0  0  0  0  0  0
    2.4324    3.9192    2.7831 H   0  0  0  0  0  0  0  0  0  0  0  0
    1.0610    2.9335    3.4502 H   0  0  0  0  0  0  0  0  0  0  0  0
    1.1090    1.4823   -0.7126 H   0  0  0  0  0  0  0  0  0  0  0  0
    2.3004   -0.6171   -1.2261 H   0  0  0  0  0  0  0  0  0  0  0  0
   -1.6819   -0.5774    1.3420 H   0  0  0  0  0  0  0  0  0  0  0  0
   -3.9852    2.2093    2.2340 H   0  0  0  0  0  0  0  0  0  0  0  0
   -3.5764    0.5300    1.9679 H   0  0  0  0  0  0  0  0  0  0  0  0
   -2.6570    1.3349    4.1483 H   0  0  0  0  0  0  0  0  0  0  0  0
   -1.2925    1.0238    3.0554 H   0  0  0  0  0  0  0  0  0  0  0  0
   -1.8247    2.6682    3.3229 H   0  0  0  0  0  0  0  0  0  0  0  0
  1  2  1  0
  2  3  1  0
  3  4  1  0
  4  5  2  0
  5  6  1  0
  6  7  1  0
  7  8  1  0
  8  9  2  0
  8 10  1  0
 10 11  1  0
 11 12  1  0
 12 13  1  0
 13 14  2  0
 13 15  1  0
 15 16  1  0
 16 17  1  0
 17 18  2  0
 18 19  1  0
 19 20  2  0
 20 21  1  0
 21 22  1  0
 20 23  1  0
 23 24  2  0
 10 25  1  0
 25 26  2  0
 25 27  1  0
 27 28  1  0
 28 29  2  0
 29 30  1  0
 30 31  1  0
 31 32  1  0
 29  4  1  0
 27  6  2  0
 24 17  1  0
  1 33  1  0
  1 34  1  0
  1 35  1  0
  2 36  1  0
  2 37  1  0
  5 38  1  0
  7 39  1  0
 11 40  1  0
 11 41  1  0
 12 42  1  0
 12 43  1  0
 15 44  1  0
 16 45  1  0
 16 46  1  0
 18 47  1  0
 19 48  1  0
 22 49  1  0
 22 50  1  0
 22 51  1  0
 23 52  1  0
 24 53  1  0
 28 54  1  0
 31 55  1  0
 31 56  1  0
 32 57  1  0
 32 58  1  0
 32 59  1  0
M  END
$$$$
