
     RDKit          3D

 39 42  0  0  0  0  0  0  0  0999 V2000
    6.0225    0.0555   -0.5686 C   0  0  0  0  0  0  0  0  0  0  0  0
    5.7880    0.8555    0.5630 C   0  0  0  0  0  0  0  0  0  0  0  0
    4.4873    1.2153    0.9310 C   0  0  0  0  0  0  0  0  0  0  0  0
    3.4344    0.7643    0.1529 C   0  0  0  0  0  0  0  0  0  0  0  0
    3.6773   -0.0391   -0.9828 C   0  0  0  0  0  0  0  0  0  0  0  0
    4.9618   -0.4000   -1.3541 C   0  0  0  0  0  0  0  0  0  0  0  0
    2.3704   -0.3999   -1.6597 C   0  0  0  0  0  0  0  0  0  0  0  0
    1.3565    0.2949   -0.7742 C   0  0  0  0  0  0  0  0  0  0  0  0
   -0.0224    0.3149   -0.9068 C   0  0  0  0  0  0  0  0  0  0  0  0
   -0.7782    1.0233    0.0419 C   0  0  0  0  0  0  0  0  0  0  0  0
   -2.2888    1.0767   -0.0740 C   0  0  0  0  0  0  0  0  0  0  0  0
   -2.9194   -0.2535   -0.0675 N   0  0  0  0  0  0  0  0  0  0  0  0
   -4.3538   -0.1410   -0.4067 C   0  0  0  0  0  0  0  0  0  0  0  0
   -5.0521   -1.5082   -0.3458 C   0  0  0  0  0  0  0  0  0  0  0  0
   -4.9208   -2.0973    0.9543 O   0  0  0  0  0  0  0  0  0  0  0  0
   -3.5332   -2.2576    1.2792 C   0  0  0  0  0  0  0  0  0  0  0  0
   -2.7958   -0.9089    1.2541 C   0  0  0  0  0  0  0  0  0  0  0  0
   -0.1210    1.6992    1.0951 C   0  0  0  0  0  0  0  0  0  0  0  0
    1.2735    1.6735    1.2191 C   0  0  0  0  0  0  0  0  0  0  0  0
    2.0067    0.9687    0.2808 C   0  0  0  0  0  0  0  0  0  0  0  0
    7.0429   -0.2109   -0.8341 H   0  0  0  0  0  0  0  0  0  0  0  0
    6.6298    1.1987    1.1599 H   0  0  0  0  0  0  0  0  0  0  0  0
    4.3172    1.8329    1.8060 H   0  0  0  0  0  0  0  0  0  0  0  0
    5.1428   -1.0175   -2.2273 H   0  0  0  0  0  0  0  0  0  0  0  0
    2.2156   -1.4827   -1.6493 H   0  0  0  0  0  0  0  0  0  0  0  0
    2.3371    0.0030   -2.6761 H   0  0  0  0  0  0  0  0  0  0  0  0
   -0.5116   -0.2133   -1.7201 H   0  0  0  0  0  0  0  0  0  0  0  0
   -2.5084    1.5854   -1.0225 H   0  0  0  0  0  0  0  0  0  0  0  0
   -2.7106    1.7097    0.7181 H   0  0  0  0  0  0  0  0  0  0  0  0
   -4.8513    0.5432    0.2932 H   0  0  0  0  0  0  0  0  0  0  0  0
   -4.4678    0.2660   -1.4179 H   0  0  0  0  0  0  0  0  0  0  0  0
   -6.1213   -1.3869   -0.5468 H   0  0  0  0  0  0  0  0  0  0  0  0
   -4.6481   -2.1962   -1.0984 H   0  0  0  0  0  0  0  0  0  0  0  0
   -3.4777   -2.6907    2.2830 H   0  0  0  0  0  0  0  0  0  0  0  0
   -3.0785   -2.9726    0.5829 H   0  0  0  0  0  0  0  0  0  0  0  0
   -1.7437   -1.0917    1.4980 H   0  0  0  0  0  0  0  0  0  0  0  0
   -3.2178   -0.2606    2.0333 H   0  0  0  0  0  0  0  0  0  0  0  0
   -0.7011    2.2517    1.8314 H   0  0  0  0  0  0  0  0  0  0  0  0
    1.7596    2.1965    2.0354 H   0  0  0  0  0  0  0  0  0  0  0  0
  1  2  2  0
  2  3  1  0
  3  4  2  0
  4  5  1  0
  5  6  2  0
  5  7  1  0
  7  8  1  0
  8  9  2  0
  9 10  1  0
 10 11  1  0
 11 12  1  0
 12 13  1  0
 13 14  1  0
 14 15  1  0
 15 16  1  0
 16 17  1  0
 10 18  2  0
 18 19  1  0
 19 20  2  0
  6  1  1  0
 20  8  1  0
 20  4  1  0
 17 12  1  0
  1 21  1  0
  2 22  1  0
  3 23  1  0
  6 24  1  0
  7 25  1  0
  7 26  1  0
  9 27  1  0
 11 28  1  0
 11 29  1  0
 13 30  1  0
 13 31  1  0
 14 32  1  0
 14 33  1  0
 16 34  1  0
 16 35  1  0
 17 36  1  0
 17 37  1  0
 18 38  1  0
 19 39  1  0
M  END
$$$$
