
     RDKit          3D

 53 56  0  0  0  0  0  0  0  0999 V2000
    8.3628   -2.1832   -1.9454 C   0  0  0  0  0  0  0  0  0  0  0  0
    7.5879   -3.0531   -0.9710 C   0  0  0  0  0  0  0  0  0  0  0  0
    6.2499   -3.2537   -1.4231 O   0  0  0  0  0  0  0  0  0  0  0  0
    5.2843   -2.3604   -1.0549 C   0  0  0  0  0  0  0  0  0  0  0  0
    5.4798   -1.1710   -0.3516 C   0  0  0  0  0  0  0  0  0  0  0  0
    4.3911   -0.3451   -0.0453 C   0  0  0  0  0  0  0  0  0  0  0  0
    3.1030   -0.7080   -0.4460 C   0  0  0  0  0  0  0  0  0  0  0  0
    1.9735    0.1829   -0.1064 C   0  0  0  0  0  0  0  0  0  0  0  0
    0.7615   -0.0897   -0.4739 N   0  0  0  0  0  0  0  0  0  0  0  0
   -0.2388    0.7987   -0.1627 N   0  0  0  0  0  0  0  0  0  0  0  0
   -0.1170    2.1866   -0.0886 C   0  0  0  0  0  0  0  0  0  0  0  0
    0.9345    2.8069   -0.2187 O   0  0  0  0  0  0  0  0  0  0  0  0
   -1.3862    2.8863    0.1318 C   0  0  0  0  0  0  0  0  0  0  0  0
   -1.5695    4.1753   -0.2875 N   0  0  0  0  0  0  0  0  0  0  0  0
   -2.8034    4.5413    0.0083 N   0  0  0  0  0  0  0  0  0  0  0  0
   -3.4490    3.5014    0.6055 N   0  0  0  0  0  0  0  0  0  0  0  0
   -4.8273    3.5846    0.9284 C   0  0  0  0  0  0  0  0  0  0  0  0
   -5.4874    2.5371    1.4230 N   0  0  0  0  0  0  0  0  0  0  0  0
   -6.7947    2.9985    1.5719 O   0  0  0  0  0  0  0  0  0  0  0  0
   -6.9118    4.3226    1.1653 N   0  0  0  0  0  0  0  0  0  0  0  0
   -5.6922    4.6846    0.7696 C   0  0  0  0  0  0  0  0  0  0  0  0
   -5.3752    5.9084    0.3063 N   0  0  0  0  0  0  0  0  0  0  0  0
   -2.5404    2.4589    0.7787 C   0  0  0  0  0  0  0  0  0  0  0  0
   -2.8141    1.1992    1.5116 C   0  0  0  0  0  0  0  0  0  0  0  0
   -3.0983    0.2393    0.4994 O   0  0  0  0  0  0  0  0  0  0  0  0
   -3.3749   -1.0370    0.9059 C   0  0  0  0  0  0  0  0  0  0  0  0
   -3.6551   -1.9286   -0.1363 C   0  0  0  0  0  0  0  0  0  0  0  0
   -3.9487   -3.2659    0.1337 C   0  0  0  0  0  0  0  0  0  0  0  0
   -3.9608   -3.7074    1.4495 C   0  0  0  0  0  0  0  0  0  0  0  0
   -4.2421   -4.9893    1.7150 F   0  0  0  0  0  0  0  0  0  0  0  0
   -3.6846   -2.8355    2.4960 C   0  0  0  0  0  0  0  0  0  0  0  0
   -3.3900   -1.4954    2.2258 C   0  0  0  0  0  0  0  0  0  0  0  0
    2.9004   -1.8922   -1.1553 C   0  0  0  0  0  0  0  0  0  0  0  0
    3.9911   -2.7113   -1.4565 C   0  0  0  0  0  0  0  0  0  0  0  0
    9.4074   -2.0913   -1.6348 H   0  0  0  0  0  0  0  0  0  0  0  0
    8.3317   -2.6144   -2.9516 H   0  0  0  0  0  0  0  0  0  0  0  0
    7.9317   -1.1803   -2.0177 H   0  0  0  0  0  0  0  0  0  0  0  0
    7.6329   -2.6747    0.0561 H   0  0  0  0  0  0  0  0  0  0  0  0
    8.0568   -4.0435   -0.9454 H   0  0  0  0  0  0  0  0  0  0  0  0
    6.4651   -0.8475   -0.0343 H   0  0  0  0  0  0  0  0  0  0  0  0
    4.5633    0.5807    0.4984 H   0  0  0  0  0  0  0  0  0  0  0  0
    2.2322    1.0664    0.5006 H   0  0  0  0  0  0  0  0  0  0  0  0
   -1.1681    0.4185   -0.3352 H   0  0  0  0  0  0  0  0  0  0  0  0
   -6.1218    6.5411    0.0373 H   0  0  0  0  0  0  0  0  0  0  0  0
   -4.4913    6.0760   -0.1738 H   0  0  0  0  0  0  0  0  0  0  0  0
   -1.9132    0.9054    2.0657 H   0  0  0  0  0  0  0  0  0  0  0  0
   -3.6287    1.2866    2.2333 H   0  0  0  0  0  0  0  0  0  0  0  0
   -3.6461   -1.5806   -1.1667 H   0  0  0  0  0  0  0  0  0  0  0  0
   -4.1665   -3.9606   -0.6709 H   0  0  0  0  0  0  0  0  0  0  0  0
   -3.7003   -3.2049    3.5168 H   0  0  0  0  0  0  0  0  0  0  0  0
   -3.1792   -0.8452    3.0682 H   0  0  0  0  0  0  0  0  0  0  0  0
    1.9040   -2.1841   -1.4771 H   0  0  0  0  0  0  0  0  0  0  0  0
    3.8318   -3.6336   -2.0107 H   0  0  0  0  0  0  0  0  0  0  0  0
  1  2  1  0
  2  3  1  0
  3  4  1  0
  4  5  2  0
  5  6  1  0
  6  7  2  0
  7  8  1  0
  8  9  2  3
  9 10  1  0
 10 11  1  0
 11 12  2  0
 11 13  1  0
 13 14  1  0
 14 15  2  0
 15 16  1  0
 16 17  1  0
 17 18  2  0
 18 19  1  0
 19 20  1  0
 20 21  2  0
 21 22  1  0
 16 23  1  0
 23 24  1  0
 24 25  1  0
 25 26  1  0
 26 27  2  0
 27 28  1  0
 28 29  2  0
 29 30  1  0
 29 31  1  0
 31 32  2  0
  7 33  1  0
 33 34  2  0
 34  4  1  0
 23 13  2  0
 32 26  1  0
 21 17  1  0
  1 35  1  0
  1 36  1  0
  1 37  1  0
  2 38  1  0
  2 39  1  0
  5 40  1  0
  6 41  1  0
  8 42  1  0
 10 43  1  0
 22 44  1  0
 22 45  1  0
 24 46  1  0
 24 47  1  0
 27 48  1  0
 28 49  1  0
 31 50  1  0
 32 51  1  0
 33 52  1  0
 34 53  1  0
M  END
$$$$
