
     RDKit          3D

 72 77  0  0  0  0  0  0  0  0999 V2000
   -9.7822    0.2165    2.4227 C   0  0  0  0  0  0  0  0  0  0  0  0
   -8.7275   -0.2147    1.4455 C   0  0  0  0  0  0  0  0  0  0  0  0
   -8.9509   -0.1182    0.0710 C   0  0  0  0  0  0  0  0  0  0  0  0
   -7.9847   -0.5570   -0.8352 C   0  0  0  0  0  0  0  0  0  0  0  0
   -6.7701   -1.1042   -0.3900 C   0  0  0  0  0  0  0  0  0  0  0  0
   -5.7932   -1.6018   -1.4236 C   0  0  0  0  0  0  0  0  0  0  0  0
   -6.5374   -1.2247    0.9989 C   0  0  0  0  0  0  0  0  0  0  0  0
   -5.2724   -1.8301    1.5715 C   0  0  0  0  0  0  0  0  0  0  0  0
   -4.3894   -0.8227    2.1351 N   0  0  0  0  0  0  0  0  0  0  0  0
   -4.5271   -0.4174    3.4255 N   0  0  0  0  0  0  0  0  0  0  0  0
   -3.5784    0.4861    3.6757 N   0  0  0  0  0  0  0  0  0  0  0  0
   -2.8342    0.6134    2.5441 C   0  0  0  0  0  0  0  0  0  0  0  0
   -1.6863    1.4306    2.2565 C   0  0  0  0  0  0  0  0  0  0  0  0
   -1.1682    2.2310    3.0268 O   0  0  0  0  0  0  0  0  0  0  0  0
   -1.1923    1.2156    0.9730 N   0  0  0  0  0  0  0  0  0  0  0  0
   -1.7553    0.3273    0.0629 C   0  0  0  0  0  0  0  0  0  0  0  0
   -1.0709    0.1748   -1.2932 C   0  0  0  0  0  0  0  0  0  0  0  0
    0.2200   -0.6476   -1.1572 C   0  0  0  0  0  0  0  0  0  0  0  0
    1.4498    0.2211   -0.9305 C   0  0  0  0  0  0  0  0  0  0  0  0
    1.6048    1.2602   -1.9870 N   0  0  0  0  0  0  0  0  0  0  0  0
    2.4210    2.6884   -1.5120 S   0  0  0  0  0  6  0  0  0  0  0  0
    1.7155    3.1973   -0.3456 O   0  0  0  0  0  0  0  0  0  0  0  0
    2.6309    3.5098   -2.6861 O   0  0  0  0  0  0  0  0  0  0  0  0
    4.0103    2.0817   -1.0083 C   0  0  0  0  0  0  0  0  0  0  0  0
    4.8313    1.4767   -1.9712 C   0  0  0  0  0  0  0  0  0  0  0  0
    6.0817    0.9863   -1.5960 C   0  0  0  0  0  0  0  0  0  0  0  0
    6.4990    1.1040   -0.2644 C   0  0  0  0  0  0  0  0  0  0  0  0
    8.1105    0.5085    0.1976 S   0  0  0  0  0  6  0  0  0  0  0  0
    8.4892    1.1449    1.4428 O   0  0  0  0  0  0  0  0  0  0  0  0
    8.9582    0.5550   -0.9799 O   0  0  0  0  0  0  0  0  0  0  0  0
    7.7441   -1.1147    0.5803 N   0  0  0  0  0  0  0  0  0  0  0  0
    8.7176   -2.0951    0.0696 C   0  0  0  0  0  0  0  0  0  0  0  0
    8.8441   -3.4562    0.7058 C   0  0  0  0  0  0  0  0  0  0  0  0
    9.9513   -2.4453    0.8449 C   0  0  0  0  0  0  0  0  0  0  0  0
    5.6903    1.7323    0.6905 C   0  0  0  0  0  0  0  0  0  0  0  0
    4.4338    2.2174    0.3167 C   0  0  0  0  0  0  0  0  0  0  0  0
    0.4132    1.4857   -2.8500 C   0  0  0  0  0  0  0  0  0  0  0  0
   -0.8569    1.5083   -2.0159 C   0  0  0  0  0  0  0  0  0  0  0  0
   -2.7985   -0.4169    0.3172 N   0  0  0  0  0  0  0  0  0  0  0  0
   -3.3016   -0.2249    1.5608 C   0  0  0  0  0  0  0  0  0  0  0  0
   -7.5282   -0.7755    1.8974 C   0  0  0  0  0  0  0  0  0  0  0  0
  -10.4617   -0.6167    2.6368 H   0  0  0  0  0  0  0  0  0  0  0  0
   -9.3280    0.5532    3.3627 H   0  0  0  0  0  0  0  0  0  0  0  0
  -10.3618    1.0562    2.0225 H   0  0  0  0  0  0  0  0  0  0  0  0
   -9.8823    0.2979   -0.3065 H   0  0  0  0  0  0  0  0  0  0  0  0
   -8.1943   -0.4718   -1.9014 H   0  0  0  0  0  0  0  0  0  0  0  0
   -5.8060   -2.6932   -1.4553 H   0  0  0  0  0  0  0  0  0  0  0  0
   -4.7816   -1.2497   -1.2170 H   0  0  0  0  0  0  0  0  0  0  0  0
   -6.0512   -1.2349   -2.4217 H   0  0  0  0  0  0  0  0  0  0  0  0
   -4.7077   -2.4000    0.8273 H   0  0  0  0  0  0  0  0  0  0  0  0
   -5.5220   -2.5406    2.3710 H   0  0  0  0  0  0  0  0  0  0  0  0
   -0.4130    1.8110    0.7283 H   0  0  0  0  0  0  0  0  0  0  0  0
   -1.7568   -0.4242   -1.9137 H   0  0  0  0  0  0  0  0  0  0  0  0
    0.1309   -1.3886   -0.3530 H   0  0  0  0  0  0  0  0  0  0  0  0
    0.3634   -1.2191   -2.0835 H   0  0  0  0  0  0  0  0  0  0  0  0
    2.3433   -0.4148   -0.9473 H   0  0  0  0  0  0  0  0  0  0  0  0
    1.3905    0.6784    0.0632 H   0  0  0  0  0  0  0  0  0  0  0  0
    4.5000    1.3900   -3.0041 H   0  0  0  0  0  0  0  0  0  0  0  0
    6.7270    0.5254   -2.3407 H   0  0  0  0  0  0  0  0  0  0  0  0
    7.6446   -1.1712    1.5993 H   0  0  0  0  0  0  0  0  0  0  0  0
    8.7949   -2.0671   -1.0188 H   0  0  0  0  0  0  0  0  0  0  0  0
    8.2439   -3.6781    1.5833 H   0  0  0  0  0  0  0  0  0  0  0  0
    9.0222   -4.3069    0.0581 H   0  0  0  0  0  0  0  0  0  0  0  0
   10.8621   -2.5994    0.2800 H   0  0  0  0  0  0  0  0  0  0  0  0
   10.1182   -1.9997    1.8227 H   0  0  0  0  0  0  0  0  0  0  0  0
    6.0321    1.8513    1.7163 H   0  0  0  0  0  0  0  0  0  0  0  0
    3.8020    2.7049    1.0580 H   0  0  0  0  0  0  0  0  0  0  0  0
    0.3758    0.6898   -3.6034 H   0  0  0  0  0  0  0  0  0  0  0  0
    0.5027    2.4180   -3.4183 H   0  0  0  0  0  0  0  0  0  0  0  0
   -1.7177    1.7046   -2.6678 H   0  0  0  0  0  0  0  0  0  0  0  0
   -0.8175    2.3537   -1.3197 H   0  0  0  0  0  0  0  0  0  0  0  0
   -7.3626   -0.8647    2.9710 H   0  0  0  0  0  0  0  0  0  0  0  0
  1  2  1  0
  2  3  2  0
  3  4  1  0
  4  5  2  0
  5  6  1  0
  5  7  1  0
  7  8  1  0
  8  9  1  0
  9 10  1  0
 10 11  2  0
 11 12  1  0
 12 13  1  0
 13 14  2  0
 13 15  1  0
 15 16  1  0
 16 17  1  0
 17 18  1  0
 18 19  1  0
 19 20  1  0
 20 21  1  0
 21 22  2  0
 21 23  2  0
 21 24  1  0
 24 25  2  0
 25 26  1  0
 26 27  2  0
 27 28  1  0
 28 29  2  0
 28 30  2  0
 28 31  1  0
 31 32  1  0
 32 33  1  0
 33 34  1  0
 27 35  1  0
 35 36  2  0
 20 37  1  0
 37 38  1  0
 16 39  2  0
 39 40  1  0
  7 41  2  0
 41  2  1  0
 40  9  1  0
 40 12  2  0
 38 17  1  0
 36 24  1  0
 34 32  1  0
  1 42  1  0
  1 43  1  0
  1 44  1  0
  3 45  1  0
  4 46  1  0
  6 47  1  0
  6 48  1  0
  6 49  1  0
  8 50  1  0
  8 51  1  0
 15 52  1  0
 17 53  1  0
 18 54  1  0
 18 55  1  0
 19 56  1  0
 19 57  1  0
 25 58  1  0
 26 59  1  0
 31 60  1  0
 32 61  1  0
 33 62  1  0
 33 63  1  0
 34 64  1  0
 34 65  1  0
 35 66  1  0
 36 67  1  0
 37 68  1  0
 37 69  1  0
 38 70  1  0
 38 71  1  0
 41 72  1  0
M  END
$$$$
