
     RDKit          3D

 46 48  0  0  0  0  0  0  0  0999 V2000
   -4.0166    2.4275   -1.2506 C   0  0  0  0  0  0  0  0  0  0  0  0
   -2.8466    1.8309   -0.9881 C   0  0  0  0  0  0  0  0  0  0  0  0
   -2.5952    0.3571   -1.1246 C   0  0  0  0  0  0  0  0  0  0  0  0
   -2.2265   -0.2464    0.1408 N   0  0  0  0  0  0  0  0  0  0  0  0
   -0.9711   -0.4404    0.6568 C   0  0  0  0  0  0  0  0  0  0  0  0
    0.4886    0.0644   -0.1203 S   0  0  0  0  0  0  0  0  0  0  0  0
    1.7147   -0.7483    0.9523 C   0  0  0  0  0  0  0  0  0  0  0  0
    3.1402   -0.4970    0.5132 C   0  0  0  0  0  0  0  0  0  0  0  0
    3.5848   -0.8670   -0.7678 C   0  0  0  0  0  0  0  0  0  0  0  0
    4.9174   -0.6735   -1.1456 C   0  0  0  0  0  0  0  0  0  0  0  0
    5.8340   -0.1275   -0.2402 C   0  0  0  0  0  0  0  0  0  0  0  0
    7.2711    0.0542   -0.5760 C   0  0  0  0  0  0  0  0  0  0  0  0
    8.1388    0.2629    0.2566 O   0  0  0  0  0  0  0  0  0  0  0  0
    7.4608   -0.0439   -1.9144 O   0  0  0  0  0  0  0  0  0  0  0  0
    8.8225    0.1080   -2.3179 C   0  0  0  0  0  0  0  0  0  0  0  0
    5.4033    0.2229    1.0452 C   0  0  0  0  0  0  0  0  0  0  0  0
    4.0674    0.0424    1.4161 C   0  0  0  0  0  0  0  0  0  0  0  0
   -1.0546   -1.0378    1.8224 N   0  0  0  0  0  0  0  0  0  0  0  0
   -2.3871   -1.2355    2.0957 N   0  0  0  0  0  0  0  0  0  0  0  0
   -3.0849   -0.7671    1.0823 C   0  0  0  0  0  0  0  0  0  0  0  0
   -4.5070   -0.7872    1.0099 C   0  0  0  0  0  0  0  0  0  0  0  0
   -5.3441   -2.0923    0.2832 S   0  0  0  0  0  0  0  0  0  0  0  0
   -6.8346   -1.3312    0.6489 C   0  0  0  0  0  0  0  0  0  0  0  0
   -8.0092   -1.8890    0.3189 N   0  0  0  0  0  0  0  0  0  0  0  0
   -6.7419   -0.1731    1.2478 N   0  0  0  0  0  0  0  0  0  0  0  0
   -5.4118    0.1422    1.4921 C   0  0  0  0  0  0  0  0  0  0  0  0
   -5.1230    1.4029    2.2227 C   0  0  0  0  0  0  0  0  0  0  0  0
   -4.8903    1.8733   -1.5821 H   0  0  0  0  0  0  0  0  0  0  0  0
   -4.1286    3.4994   -1.1354 H   0  0  0  0  0  0  0  0  0  0  0  0
   -2.0058    2.4424   -0.6631 H   0  0  0  0  0  0  0  0  0  0  0  0
   -3.4749   -0.1714   -1.5086 H   0  0  0  0  0  0  0  0  0  0  0  0
   -1.7931    0.1802   -1.8484 H   0  0  0  0  0  0  0  0  0  0  0  0
    1.5715   -0.3789    1.9741 H   0  0  0  0  0  0  0  0  0  0  0  0
    1.5390   -1.8290    0.9615 H   0  0  0  0  0  0  0  0  0  0  0  0
    2.8997   -1.3232   -1.4763 H   0  0  0  0  0  0  0  0  0  0  0  0
    5.2299   -0.9749   -2.1408 H   0  0  0  0  0  0  0  0  0  0  0  0
    9.2651    1.0153   -1.8966 H   0  0  0  0  0  0  0  0  0  0  0  0
    8.8425    0.1920   -3.4072 H   0  0  0  0  0  0  0  0  0  0  0  0
    9.3981   -0.7716   -2.0236 H   0  0  0  0  0  0  0  0  0  0  0  0
    6.1092    0.6245    1.7672 H   0  0  0  0  0  0  0  0  0  0  0  0
    3.7620    0.3039    2.4289 H   0  0  0  0  0  0  0  0  0  0  0  0
   -8.0296   -2.5731   -0.4273 H   0  0  0  0  0  0  0  0  0  0  0  0
   -8.8102   -1.2721    0.3562 H   0  0  0  0  0  0  0  0  0  0  0  0
   -5.5267    1.3478    3.2377 H   0  0  0  0  0  0  0  0  0  0  0  0
   -5.5963    2.2504    1.7142 H   0  0  0  0  0  0  0  0  0  0  0  0
   -4.0510    1.6072    2.2937 H   0  0  0  0  0  0  0  0  0  0  0  0
  1  2  2  0
  2  3  1  0
  3  4  1  0
  4  5  1  0
  5  6  1  0
  6  7  1  0
  7  8  1  0
  8  9  2  0
  9 10  1  0
 10 11  2  0
 11 12  1  0
 12 13  2  0
 12 14  1  0
 14 15  1  0
 11 16  1  0
 16 17  2  0
  5 18  2  0
 18 19  1  0
 19 20  2  0
 20 21  1  0
 21 22  1  0
 22 23  1  0
 23 24  1  0
 23 25  2  0
 25 26  1  0
 26 27  1  0
 20  4  1  0
 26 21  2  0
 17  8  1  0
  1 28  1  0
  1 29  1  0
  2 30  1  0
  3 31  1  0
  3 32  1  0
  7 33  1  0
  7 34  1  0
  9 35  1  0
 10 36  1  0
 15 37  1  0
 15 38  1  0
 15 39  1  0
 16 40  1  0
 17 41  1  0
 24 42  1  0
 24 43  1  0
 27 44  1  0
 27 45  1  0
 27 46  1  0
M  END
$$$$
