
     RDKit          3D

 57 59  0  0  0  0  0  0  0  0999 V2000
    6.1297   -5.4190   -1.1659 C   0  0  0  0  0  0  0  0  0  0  0  0
    6.5923   -4.1668   -1.6553 O   0  0  0  0  0  0  0  0  0  0  0  0
    6.3592   -3.0728   -0.8682 C   0  0  0  0  0  0  0  0  0  0  0  0
    5.7284   -3.0749    0.3752 C   0  0  0  0  0  0  0  0  0  0  0  0
    5.5551   -1.8771    1.0779 C   0  0  0  0  0  0  0  0  0  0  0  0
    6.0149   -0.6626    0.5506 C   0  0  0  0  0  0  0  0  0  0  0  0
    5.8019    0.6244    1.3032 C   0  0  0  0  0  0  0  0  0  0  0  0
    4.5013    1.1742    1.0250 N   0  0  0  0  0  0  0  0  0  0  0  0
    3.4128    0.9327    1.8280 C   0  0  0  0  0  0  0  0  0  0  0  0
    3.4179    0.3600    2.9088 O   0  0  0  0  0  0  0  0  0  0  0  0
    2.0842    1.4522    1.2326 C   0  0  0  0  0  0  0  0  0  0  0  0
    2.0602    1.9437    0.1135 O   0  0  0  0  0  0  0  0  0  0  0  0
    0.9991    1.2774    2.0588 N   0  0  0  0  0  0  0  0  0  0  0  0
   -0.3562    1.5240    1.5961 C   0  0  0  0  0  0  0  0  0  0  0  0
   -0.8566    0.4828    0.5714 C   0  0  0  0  0  0  0  0  0  0  0  0
   -0.7294   -0.8384    1.1559 O   0  0  0  0  0  0  0  0  0  0  0  0
   -2.0459   -1.3730    1.3076 C   0  0  0  0  0  0  0  0  0  0  0  0
   -2.8667   -0.6794    0.2476 C   0  0  0  0  0  0  0  0  0  0  0  0
   -2.2968    0.6742    0.2768 N   0  0  0  0  0  0  0  0  0  0  0  0
   -2.5978    1.6716   -1.0526 S   0  0  0  0  0  6  0  0  0  0  0  0
   -2.2508    0.9318   -2.2468 O   0  0  0  0  0  0  0  0  0  0  0  0
   -2.0296    2.9719   -0.7770 O   0  0  0  0  0  0  0  0  0  0  0  0
   -4.3641    1.8458   -0.9977 C   0  0  0  0  0  0  0  0  0  0  0  0
   -5.1592    1.2715   -1.9921 C   0  0  0  0  0  0  0  0  0  0  0  0
   -6.5495    1.4163   -1.9353 C   0  0  0  0  0  0  0  0  0  0  0  0
   -7.1397    2.1354   -0.8926 C   0  0  0  0  0  0  0  0  0  0  0  0
   -8.4798    2.3470   -0.7208 O   0  0  0  0  0  0  0  0  0  0  0  0
   -9.3470    1.8411   -1.7282 C   0  0  0  0  0  0  0  0  0  0  0  0
   -6.3295    2.7111    0.0925 C   0  0  0  0  0  0  0  0  0  0  0  0
   -4.9415    2.5743    0.0436 C   0  0  0  0  0  0  0  0  0  0  0  0
    6.6377   -0.6654   -0.7028 C   0  0  0  0  0  0  0  0  0  0  0  0
    6.8105   -1.8632   -1.4011 C   0  0  0  0  0  0  0  0  0  0  0  0
    5.0410   -5.4193   -1.0483 H   0  0  0  0  0  0  0  0  0  0  0  0
    6.3842   -6.1824   -1.9074 H   0  0  0  0  0  0  0  0  0  0  0  0
    6.6295   -5.6857   -0.2288 H   0  0  0  0  0  0  0  0  0  0  0  0
    5.3560   -3.9875    0.8278 H   0  0  0  0  0  0  0  0  0  0  0  0
    5.0517   -1.8952    2.0437 H   0  0  0  0  0  0  0  0  0  0  0  0
    5.9237    0.4589    2.3799 H   0  0  0  0  0  0  0  0  0  0  0  0
    6.5458    1.3705    1.0028 H   0  0  0  0  0  0  0  0  0  0  0  0
    4.3016    1.5453    0.1003 H   0  0  0  0  0  0  0  0  0  0  0  0
    1.1507    0.6811    2.8685 H   0  0  0  0  0  0  0  0  0  0  0  0
   -0.3912    2.5321    1.1721 H   0  0  0  0  0  0  0  0  0  0  0  0
   -0.9890    1.5090    2.4906 H   0  0  0  0  0  0  0  0  0  0  0  0
   -0.2440    0.4822   -0.3363 H   0  0  0  0  0  0  0  0  0  0  0  0
   -2.3988   -1.1277    2.3156 H   0  0  0  0  0  0  0  0  0  0  0  0
   -2.0280   -2.4598    1.1919 H   0  0  0  0  0  0  0  0  0  0  0  0
   -2.6995   -1.1537   -0.7251 H   0  0  0  0  0  0  0  0  0  0  0  0
   -3.9315   -0.6918    0.4902 H   0  0  0  0  0  0  0  0  0  0  0  0
   -4.7107    0.7165   -2.8134 H   0  0  0  0  0  0  0  0  0  0  0  0
   -7.1422    0.9593   -2.7213 H   0  0  0  0  0  0  0  0  0  0  0  0
   -9.2980    0.7484   -1.7772 H   0  0  0  0  0  0  0  0  0  0  0  0
   -9.1275    2.2915   -2.7019 H   0  0  0  0  0  0  0  0  0  0  0  0
  -10.3707    2.1166   -1.4570 H   0  0  0  0  0  0  0  0  0  0  0  0
   -6.7871    3.2775    0.9008 H   0  0  0  0  0  0  0  0  0  0  0  0
   -4.3225    3.0354    0.8097 H   0  0  0  0  0  0  0  0  0  0  0  0
    6.9929    0.2615   -1.1469 H   0  0  0  0  0  0  0  0  0  0  0  0
    7.2986   -1.8539   -2.3727 H   0  0  0  0  0  0  0  0  0  0  0  0
  1  2  1  0
  2  3  1  0
  3  4  2  0
  4  5  1  0
  5  6  2  0
  6  7  1  0
  7  8  1  0
  8  9  1  0
  9 10  2  0
  9 11  1  0
 11 12  2  0
 11 13  1  0
 13 14  1  0
 14 15  1  0
 15 16  1  0
 16 17  1  0
 17 18  1  0
 18 19  1  0
 19 20  1  0
 20 21  2  0
 20 22  2  0
 20 23  1  0
 23 24  2  0
 24 25  1  0
 25 26  2  0
 26 27  1  0
 27 28  1  0
 26 29  1  0
 29 30  2  0
  6 31  1  0
 31 32  2  0
 32  3  1  0
 19 15  1  0
 30 23  1  0
  1 33  1  0
  1 34  1  0
  1 35  1  0
  4 36  1  0
  5 37  1  0
  7 38  1  0
  7 39  1  0
  8 40  1  0
 13 41  1  0
 14 42  1  0
 14 43  1  0
 15 44  1  0
 17 45  1  0
 17 46  1  0
 18 47  1  0
 18 48  1  0
 24 49  1  0
 25 50  1  0
 28 51  1  0
 28 52  1  0
 28 53  1  0
 29 54  1  0
 30 55  1  0
 31 56  1  0
 32 57  1  0
M  END
$$$$
