
     RDKit          3D

 74 75  0  0  0  0  0  0  0  0999 V2000
   -1.7068    5.9725    3.5075 C   0  0  0  0  0  0  0  0  0  0  0  0
   -0.9323    5.0903    2.6979 O   0  0  0  0  0  0  0  0  0  0  0  0
   -0.8302    3.8069    3.1787 C   0  0  0  0  0  0  0  0  0  0  0  0
   -0.6161    3.5720    4.5388 C   0  0  0  0  0  0  0  0  0  0  0  0
   -0.5807    2.2732    5.0189 C   0  0  0  0  0  0  0  0  0  0  0  0
   -0.7493    1.2069    4.1380 C   0  0  0  0  0  0  0  0  0  0  0  0
   -0.8987    1.3880    2.7395 C   0  0  0  0  0  0  0  0  0  0  0  0
   -1.1303    0.1082    1.9022 C   0  0  0  0  0  0  0  0  0  0  0  0
   -0.1871   -1.1122    2.2139 C   0  0  0  0  0  0  0  0  0  0  0  0
    0.5877   -1.1679    3.1645 O   0  0  0  0  0  0  0  0  0  0  0  0
   -0.4117   -2.1988    1.3802 N   0  0  0  0  0  0  0  0  0  0  0  0
    0.2849   -3.4916    1.4548 C   0  0  0  0  0  0  0  0  0  0  0  0
   -0.2954   -4.4017    0.3555 C   0  0  0  0  0  0  0  0  0  0  0  0
    0.0408   -4.1697    2.8144 C   0  0  0  0  0  0  0  0  0  0  0  0
    1.7923   -3.3298    1.2144 C   0  0  0  0  0  0  0  0  0  0  0  0
   -1.3616    0.2105    0.4219 N   0  0  0  0  0  0  0  0  0  0  0  0
   -0.3224    0.6116   -0.4426 C   0  0  0  0  0  0  0  0  0  0  0  0
   -0.5190    0.8947   -1.6263 O   0  0  0  0  0  0  0  0  0  0  0  0
    1.1046    0.6783    0.1031 C   0  0  0  0  0  0  0  0  0  0  0  0
    2.0965    1.1036   -0.9797 C   0  0  0  0  0  0  0  0  0  0  0  0
    2.3547   -0.0109   -1.9820 C   0  0  0  0  0  0  0  0  0  0  0  0
    1.9907   -1.1667   -1.7911 O   0  0  0  0  0  0  0  0  0  0  0  0
    3.0788    0.4321   -3.0646 N   0  0  0  0  0  0  0  0  0  0  0  0
    3.4988   -0.3515   -4.1151 C   0  0  0  0  0  0  0  0  0  0  0  0
    3.2941   -1.7294   -4.3448 C   0  0  0  0  0  0  0  0  0  0  0  0
    3.9358   -1.9809   -5.5324 C   0  0  0  0  0  0  0  0  0  0  0  0
    4.1153   -3.1842   -6.3634 C   0  0  0  0  0  0  0  0  0  0  0  0
    4.4863   -0.8278   -5.9926 O   0  0  0  0  0  0  0  0  0  0  0  0
    4.2178    0.1957   -5.1036 N   0  0  0  0  0  0  0  0  0  0  0  0
   -2.7677    0.0731   -0.1472 C   0  0  0  0  0  0  0  0  0  0  0  0
   -3.8070   -0.5014    0.8496 C   0  0  0  0  0  0  0  0  0  0  0  0
   -3.3272    1.4348   -0.6100 C   0  0  0  0  0  0  0  0  0  0  0  0
   -2.7792   -0.9101   -1.3480 C   0  0  0  0  0  0  0  0  0  0  0  0
   -0.9261    2.7232    2.2689 C   0  0  0  0  0  0  0  0  0  0  0  0
   -1.1445    2.9084    0.9301 O   0  0  0  0  0  0  0  0  0  0  0  0
   -0.4490    3.9756    0.2931 C   0  0  0  0  0  0  0  0  0  0  0  0
   -1.0918    6.3977    4.3071 H   0  0  0  0  0  0  0  0  0  0  0  0
   -2.0456    6.7958    2.8731 H   0  0  0  0  0  0  0  0  0  0  0  0
   -2.5954    5.4812    3.9199 H   0  0  0  0  0  0  0  0  0  0  0  0
   -0.4828    4.3912    5.2383 H   0  0  0  0  0  0  0  0  0  0  0  0
   -0.4343    2.0846    6.0796 H   0  0  0  0  0  0  0  0  0  0  0  0
   -0.7582    0.2061    4.5711 H   0  0  0  0  0  0  0  0  0  0  0  0
   -2.0625   -0.2579    2.3380 H   0  0  0  0  0  0  0  0  0  0  0  0
   -0.8442   -1.9632    0.4918 H   0  0  0  0  0  0  0  0  0  0  0  0
    0.1815   -5.3884    0.3573 H   0  0  0  0  0  0  0  0  0  0  0  0
   -1.3740   -4.5470    0.4935 H   0  0  0  0  0  0  0  0  0  0  0  0
   -0.1535   -3.9603   -0.6379 H   0  0  0  0  0  0  0  0  0  0  0  0
    0.5039   -3.6181    3.6385 H   0  0  0  0  0  0  0  0  0  0  0  0
   -1.0316   -4.2433    3.0292 H   0  0  0  0  0  0  0  0  0  0  0  0
    0.4555   -5.1833    2.8296 H   0  0  0  0  0  0  0  0  0  0  0  0
    1.9874   -2.8649    0.2428 H   0  0  0  0  0  0  0  0  0  0  0  0
    2.2636   -2.6989    1.9752 H   0  0  0  0  0  0  0  0  0  0  0  0
    2.3019   -4.3006    1.2299 H   0  0  0  0  0  0  0  0  0  0  0  0
    1.1551    1.4105    0.9102 H   0  0  0  0  0  0  0  0  0  0  0  0
    1.4025   -0.2962    0.4923 H   0  0  0  0  0  0  0  0  0  0  0  0
    1.7483    2.0001   -1.5059 H   0  0  0  0  0  0  0  0  0  0  0  0
    3.0575    1.3420   -0.5087 H   0  0  0  0  0  0  0  0  0  0  0  0
    3.3418    1.4047   -3.1472 H   0  0  0  0  0  0  0  0  0  0  0  0
    2.7633   -2.4436   -3.7341 H   0  0  0  0  0  0  0  0  0  0  0  0
    3.1602   -3.4894   -6.8013 H   0  0  0  0  0  0  0  0  0  0  0  0
    4.4961   -4.0139   -5.7599 H   0  0  0  0  0  0  0  0  0  0  0  0
    4.8236   -3.0081   -7.1792 H   0  0  0  0  0  0  0  0  0  0  0  0
   -3.4970   -1.4797    1.2340 H   0  0  0  0  0  0  0  0  0  0  0  0
   -4.7826   -0.6410    0.3680 H   0  0  0  0  0  0  0  0  0  0  0  0
   -3.9778    0.1746    1.6960 H   0  0  0  0  0  0  0  0  0  0  0  0
   -2.6886    1.9268   -1.3482 H   0  0  0  0  0  0  0  0  0  0  0  0
   -3.4469    2.1188    0.2364 H   0  0  0  0  0  0  0  0  0  0  0  0
   -4.3158    1.3181   -1.0694 H   0  0  0  0  0  0  0  0  0  0  0  0
   -2.2383   -0.5319   -2.2186 H   0  0  0  0  0  0  0  0  0  0  0  0
   -3.8036   -1.1061   -1.6900 H   0  0  0  0  0  0  0  0  0  0  0  0
   -2.3348   -1.8733   -1.0756 H   0  0  0  0  0  0  0  0  0  0  0  0
   -1.0599    4.8831    0.2963 H   0  0  0  0  0  0  0  0  0  0  0  0
    0.5403    4.1543    0.7281 H   0  0  0  0  0  0  0  0  0  0  0  0
   -0.3000    3.6946   -0.7538 H   0  0  0  0  0  0  0  0  0  0  0  0
  1  2  1  0
  2  3  1  0
  3  4  2  0
  4  5  1  0
  5  6  2  0
  6  7  1  0
  7  8  1  0
  8  9  1  0
  9 10  2  0
  9 11  1  0
 11 12  1  0
 12 13  1  0
 12 14  1  0
 12 15  1  0
  8 16  1  0
 16 17  1  0
 17 18  2  0
 17 19  1  0
 19 20  1  0
 20 21  1  0
 21 22  2  0
 21 23  1  0
 23 24  1  0
 24 25  1  0
 25 26  2  0
 26 27  1  0
 26 28  1  0
 28 29  1  0
 16 30  1  0
 30 31  1  0
 30 32  1  0
 30 33  1  0
  7 34  2  0
 34 35  1  0
 35 36  1  0
 34  3  1  0
 29 24  2  0
  1 37  1  0
  1 38  1  0
  1 39  1  0
  4 40  1  0
  5 41  1  0
  6 42  1  0
  8 43  1  0
 11 44  1  0
 13 45  1  0
 13 46  1  0
 13 47  1  0
 14 48  1  0
 14 49  1  0
 14 50  1  0
 15 51  1  0
 15 52  1  0
 15 53  1  0
 19 54  1  0
 19 55  1  0
 20 56  1  0
 20 57  1  0
 23 58  1  0
 25 59  1  0
 27 60  1  0
 27 61  1  0
 27 62  1  0
 31 63  1  0
 31 64  1  0
 31 65  1  0
 32 66  1  0
 32 67  1  0
 32 68  1  0
 33 69  1  0
 33 70  1  0
 33 71  1  0
 36 72  1  0
 36 73  1  0
 36 74  1  0
M  END
$$$$
