
     RDKit          3D

 52 51  0  0  0  0  0  0  0  0999 V2000
   -5.6749    3.0384   -1.3631 C   0  0  0  0  0  0  0  0  0  0  0  0
   -5.7036    2.3155   -0.4039 C   0  0  0  0  0  0  0  0  0  0  0  0
   -5.7391    1.4480    0.7759 C   0  0  0  0  0  0  0  0  0  0  0  0
   -5.5888   -0.0385    0.4070 N   0  0  0  0  0  4  0  0  0  0  0  0
   -6.8003   -0.4766   -0.4257 C   0  0  0  0  0  0  0  0  0  0  0  0
   -5.5985   -0.8550    1.6971 C   0  0  0  0  0  0  0  0  0  0  0  0
   -4.3185   -0.3345   -0.4149 C   0  0  0  0  0  0  0  0  0  0  0  0
   -3.0212    0.0891    0.2762 C   0  0  0  0  0  0  0  0  0  0  0  0
   -1.8110   -0.2531   -0.5993 C   0  0  0  0  0  0  0  0  0  0  0  0
   -0.5016    0.1627    0.0735 C   0  0  0  0  0  0  0  0  0  0  0  0
    0.7060   -0.1779   -0.8014 C   0  0  0  0  0  0  0  0  0  0  0  0
    2.0159    0.2384   -0.1283 C   0  0  0  0  0  0  0  0  0  0  0  0
    3.2225   -0.1067   -1.0038 C   0  0  0  0  0  0  0  0  0  0  0  0
    4.5540    0.3925   -0.4338 C   0  0  0  0  0  0  0  0  0  0  0  0
    4.9368   -0.2770    0.8900 C   0  0  0  0  0  0  0  0  0  0  0  0
    6.3352    0.1220    1.3768 C   0  0  0  0  0  0  0  0  0  0  0  0
    7.4399   -0.8811    1.0314 C   0  0  0  0  0  0  0  0  0  0  0  0
    7.6930   -1.0498   -0.4566 C   0  0  0  0  0  0  0  0  0  0  0  0
   -5.6503    3.6925   -2.2070 H   0  0  0  0  0  0  0  0  0  0  0  0
   -6.6934    1.5519    1.3055 H   0  0  0  0  0  0  0  0  0  0  0  0
   -4.9378    1.6991    1.4783 H   0  0  0  0  0  0  0  0  0  0  0  0
   -7.7114   -0.2372    0.1310 H   0  0  0  0  0  0  0  0  0  0  0  0
   -6.7298   -1.5563   -0.5904 H   0  0  0  0  0  0  0  0  0  0  0  0
   -6.7857    0.0478   -1.3849 H   0  0  0  0  0  0  0  0  0  0  0  0
   -5.4335   -1.9066    1.4452 H   0  0  0  0  0  0  0  0  0  0  0  0
   -4.8104   -0.4875    2.3589 H   0  0  0  0  0  0  0  0  0  0  0  0
   -6.5728   -0.7281    2.1795 H   0  0  0  0  0  0  0  0  0  0  0  0
   -4.4253    0.1697   -1.3821 H   0  0  0  0  0  0  0  0  0  0  0  0
   -4.3134   -1.4155   -0.6022 H   0  0  0  0  0  0  0  0  0  0  0  0
   -2.9125   -0.4192    1.2397 H   0  0  0  0  0  0  0  0  0  0  0  0
   -3.0185    1.1666    0.4698 H   0  0  0  0  0  0  0  0  0  0  0  0
   -1.9033    0.2540   -1.5675 H   0  0  0  0  0  0  0  0  0  0  0  0
   -1.7949   -1.3316   -0.7985 H   0  0  0  0  0  0  0  0  0  0  0  0
   -0.4088   -0.3446    1.0414 H   0  0  0  0  0  0  0  0  0  0  0  0
   -0.5175    1.2410    0.2736 H   0  0  0  0  0  0  0  0  0  0  0  0
    0.7227   -1.2562   -1.0014 H   0  0  0  0  0  0  0  0  0  0  0  0
    0.6124    0.3294   -1.7693 H   0  0  0  0  0  0  0  0  0  0  0  0
    2.0970   -0.2685    0.8397 H   0  0  0  0  0  0  0  0  0  0  0  0
    2.0006    1.3171    0.0685 H   0  0  0  0  0  0  0  0  0  0  0  0
    3.0860    0.3436   -1.9950 H   0  0  0  0  0  0  0  0  0  0  0  0
    3.2722   -1.1920   -1.1550 H   0  0  0  0  0  0  0  0  0  0  0  0
    4.5062    1.4795   -0.2935 H   0  0  0  0  0  0  0  0  0  0  0  0
    5.3300    0.2111   -1.1841 H   0  0  0  0  0  0  0  0  0  0  0  0
    4.8542   -1.3671    0.8091 H   0  0  0  0  0  0  0  0  0  0  0  0
    4.2168    0.0372    1.6551 H   0  0  0  0  0  0  0  0  0  0  0  0
    6.6042    1.1203    1.0116 H   0  0  0  0  0  0  0  0  0  0  0  0
    6.3018    0.1947    2.4716 H   0  0  0  0  0  0  0  0  0  0  0  0
    8.3696   -0.5437    1.5055 H   0  0  0  0  0  0  0  0  0  0  0  0
    7.2026   -1.8576    1.4701 H   0  0  0  0  0  0  0  0  0  0  0  0
    6.8463   -1.5335   -0.9521 H   0  0  0  0  0  0  0  0  0  0  0  0
    7.8787   -0.0844   -0.9375 H   0  0  0  0  0  0  0  0  0  0  0  0
    8.5720   -1.6823   -0.6182 H   0  0  0  0  0  0  0  0  0  0  0  0
  1  2  3  0
  2  3  1  0
  3  4  1  0
  4  5  1  0
  4  6  1  0
  4  7  1  0
  7  8  1  0
  8  9  1  0
  9 10  1  0
 10 11  1  0
 11 12  1  0
 12 13  1  0
 13 14  1  0
 14 15  1  0
 15 16  1  0
 16 17  1  0
 17 18  1  0
  1 19  1  0
  3 20  1  0
  3 21  1  0
  5 22  1  0
  5 23  1  0
  5 24  1  0
  6 25  1  0
  6 26  1  0
  6 27  1  0
  7 28  1  0
  7 29  1  0
  8 30  1  0
  8 31  1  0
  9 32  1  0
  9 33  1  0
 10 34  1  0
 10 35  1  0
 11 36  1  0
 11 37  1  0
 12 38  1  0
 12 39  1  0
 13 40  1  0
 13 41  1  0
 14 42  1  0
 14 43  1  0
 15 44  1  0
 15 45  1  0
 16 46  1  0
 16 47  1  0
 17 48  1  0
 17 49  1  0
 18 50  1  0
 18 51  1  0
 18 52  1  0
M  CHG  1   4   1
M  END
$$$$
