
     RDKit          3D

 43 45  0  0  0  0  0  0  0  0999 V2000
    5.2165    4.4849   -0.1764 C   0  0  0  0  0  0  0  0  0  0  0  0
    4.7103    3.7167    0.9060 O   0  0  0  0  0  0  0  0  0  0  0  0
    3.7694    2.7581    0.6289 C   0  0  0  0  0  0  0  0  0  0  0  0
    3.2580    2.4955   -0.6445 C   0  0  0  0  0  0  0  0  0  0  0  0
    2.2940    1.4993   -0.8289 C   0  0  0  0  0  0  0  0  0  0  0  0
    1.8187    0.7596    0.2584 C   0  0  0  0  0  0  0  0  0  0  0  0
    0.8118   -0.2995    0.0999 C   0  0  0  0  0  0  0  0  0  0  0  0
   -0.2760   -0.1626   -0.6758 C   0  0  0  0  0  0  0  0  0  0  0  0
   -1.2914   -1.2145   -0.8082 C   0  0  0  0  0  0  0  0  0  0  0  0
   -0.9136   -2.4383   -1.3653 C   0  0  0  0  0  0  0  0  0  0  0  0
   -1.8535   -3.4338   -1.5614 C   0  0  0  0  0  0  0  0  0  0  0  0
   -3.1793   -3.1972   -1.2194 C   0  0  0  0  0  0  0  0  0  0  0  0
   -4.1444   -4.1922   -1.4349 C   0  0  0  0  0  0  0  0  0  0  0  0
   -5.4799   -3.9675   -1.1111 C   0  0  0  0  0  0  0  0  0  0  0  0
   -5.8654   -2.7469   -0.5726 C   0  0  0  0  0  0  0  0  0  0  0  0
   -4.9141   -1.7463   -0.3497 C   0  0  0  0  0  0  0  0  0  0  0  0
   -3.5530   -1.9461   -0.6581 C   0  0  0  0  0  0  0  0  0  0  0  0
   -2.5880   -0.9899   -0.4451 N   0  0  0  0  0  4  0  0  0  0  0  0
   -2.9661    0.2840    0.2150 C   0  0  0  0  0  0  0  0  0  0  0  0
    2.3478    1.0065    1.5328 C   0  0  0  0  0  0  0  0  0  0  0  0
    3.3164    2.0002    1.7264 C   0  0  0  0  0  0  0  0  0  0  0  0
    3.8645    2.3177    2.9441 O   0  0  0  0  0  0  0  0  0  0  0  0
    3.6279    1.4350    4.0309 C   0  0  0  0  0  0  0  0  0  0  0  0
    5.7263    3.8492   -0.9076 H   0  0  0  0  0  0  0  0  0  0  0  0
    4.4222    5.0726   -0.6479 H   0  0  0  0  0  0  0  0  0  0  0  0
    5.9541    5.1856    0.2266 H   0  0  0  0  0  0  0  0  0  0  0  0
    3.5949    3.0462   -1.5169 H   0  0  0  0  0  0  0  0  0  0  0  0
    1.9359    1.3091   -1.8379 H   0  0  0  0  0  0  0  0  0  0  0  0
    0.9899   -1.2020    0.6835 H   0  0  0  0  0  0  0  0  0  0  0  0
   -0.4602    0.7523   -1.2345 H   0  0  0  0  0  0  0  0  0  0  0  0
    0.1192   -2.6180   -1.6626 H   0  0  0  0  0  0  0  0  0  0  0  0
   -1.5436   -4.3835   -1.9972 H   0  0  0  0  0  0  0  0  0  0  0  0
   -3.8692   -5.1568   -1.8621 H   0  0  0  0  0  0  0  0  0  0  0  0
   -6.2212   -4.7466   -1.2844 H   0  0  0  0  0  0  0  0  0  0  0  0
   -6.9126   -2.5734   -0.3268 H   0  0  0  0  0  0  0  0  0  0  0  0
   -5.2856   -0.8132    0.0642 H   0  0  0  0  0  0  0  0  0  0  0  0
   -2.0979    0.8741    0.5068 H   0  0  0  0  0  0  0  0  0  0  0  0
   -3.5784    0.8537   -0.4892 H   0  0  0  0  0  0  0  0  0  0  0  0
   -3.5159    0.0476    1.1305 H   0  0  0  0  0  0  0  0  0  0  0  0
    1.9837    0.4249    2.3735 H   0  0  0  0  0  0  0  0  0  0  0  0
    4.2323    1.7756    4.8771 H   0  0  0  0  0  0  0  0  0  0  0  0
    2.5778    1.4669    4.3383 H   0  0  0  0  0  0  0  0  0  0  0  0
    3.9383    0.4129    3.7894 H   0  0  0  0  0  0  0  0  0  0  0  0
  1  2  1  0
  2  3  1  0
  3  4  2  0
  4  5  1  0
  5  6  2  0
  6  7  1  0
  7  8  2  3
  8  9  1  0
  9 10  2  0
 10 11  1  0
 11 12  2  0
 12 13  1  0
 13 14  2  0
 14 15  1  0
 15 16  2  0
 16 17  1  0
 17 18  2  0
 18 19  1  0
  6 20  1  0
 20 21  2  0
 21 22  1  0
 22 23  1  0
 21  3  1  0
 18  9  1  0
 17 12  1  0
  1 24  1  0
  1 25  1  0
  1 26  1  0
  4 27  1  0
  5 28  1  0
  7 29  1  0
  8 30  1  0
 10 31  1  0
 11 32  1  0
 13 33  1  0
 14 34  1  0
 15 35  1  0
 16 36  1  0
 19 37  1  0
 19 38  1  0
 19 39  1  0
 20 40  1  0
 23 41  1  0
 23 42  1  0
 23 43  1  0
M  CHG  1  18   1
M  END
$$$$
