
     RDKit          3D

 40 41  0  0  0  0  0  0  0  0999 V2000
    5.9716    0.8487   -4.5463 C   0  0  0  0  0  0  0  0  0  0  0  0
    4.6958    0.4469   -5.2733 C   0  0  0  0  0  0  0  0  0  0  0  0
    3.8058   -0.4673   -4.4335 C   0  0  0  0  0  0  0  0  0  0  0  0
    3.0776    0.2498   -3.3034 C   0  0  0  0  0  0  0  0  0  0  0  0
    3.0951    1.4683   -3.1815 O   0  0  0  0  0  0  0  0  0  0  0  0
    2.4037   -0.6492   -2.4899 N   0  0  0  0  0  0  0  0  0  0  0  0
    1.6262   -0.3608   -1.3497 C   0  0  0  0  0  0  0  0  0  0  0  0
    1.0244   -1.4447   -0.6962 C   0  0  0  0  0  0  0  0  0  0  0  0
    0.2340   -1.2496    0.4434 C   0  0  0  0  0  0  0  0  0  0  0  0
    0.0316    0.0416    0.9414 C   0  0  0  0  0  0  0  0  0  0  0  0
   -0.7971    0.3084    2.1493 C   0  0  0  0  0  0  0  0  0  0  0  0
   -0.6492    1.3371    2.8044 O   0  0  0  0  0  0  0  0  0  0  0  0
   -1.7513   -0.6418    2.4650 N   0  0  0  0  0  0  0  0  0  0  0  0
   -2.6928   -0.2871    3.4498 N   0  0  0  0  0  0  0  0  0  0  0  0
   -4.0178   -0.6325    3.2360 C   0  0  0  0  0  0  0  0  0  0  0  0
   -4.3183   -1.4242    2.3387 O   0  0  0  0  0  0  0  0  0  0  0  0
   -4.9988   -0.0052    4.1095 C   0  0  0  0  0  0  0  0  0  0  0  0
   -6.3693   -0.1954    4.0819 C   0  0  0  0  0  0  0  0  0  0  0  0
   -7.0517    0.5699    5.0710 C   0  0  0  0  0  0  0  0  0  0  0  0
   -6.1818    1.3232    5.8258 C   0  0  0  0  0  0  0  0  0  0  0  0
   -4.5576    1.1042    5.3407 S   0  0  0  0  0  0  0  0  0  0  0  0
    0.6443    1.1237    0.3015 C   0  0  0  0  0  0  0  0  0  0  0  0
    1.4323    0.9232   -0.8390 C   0  0  0  0  0  0  0  0  0  0  0  0
    5.7554    1.4182   -3.6376 H   0  0  0  0  0  0  0  0  0  0  0  0
    6.5931    1.4742   -5.1950 H   0  0  0  0  0  0  0  0  0  0  0  0
    6.5569   -0.0333   -4.2668 H   0  0  0  0  0  0  0  0  0  0  0  0
    4.9749   -0.0822   -6.1922 H   0  0  0  0  0  0  0  0  0  0  0  0
    4.1486    1.3469   -5.5762 H   0  0  0  0  0  0  0  0  0  0  0  0
    4.3985   -1.2898   -4.0162 H   0  0  0  0  0  0  0  0  0  0  0  0
    3.0373   -0.9026   -5.0842 H   0  0  0  0  0  0  0  0  0  0  0  0
    2.4708   -1.6261   -2.7463 H   0  0  0  0  0  0  0  0  0  0  0  0
    1.1660   -2.4599   -1.0595 H   0  0  0  0  0  0  0  0  0  0  0  0
   -0.1906   -2.1197    0.9363 H   0  0  0  0  0  0  0  0  0  0  0  0
   -2.0973   -1.2936    1.7615 H   0  0  0  0  0  0  0  0  0  0  0  0
   -2.4622    0.5336    4.0104 H   0  0  0  0  0  0  0  0  0  0  0  0
   -6.8564   -0.8593    3.3758 H   0  0  0  0  0  0  0  0  0  0  0  0
   -8.1248    0.5678    5.2197 H   0  0  0  0  0  0  0  0  0  0  0  0
   -6.4212    1.9935    6.6404 H   0  0  0  0  0  0  0  0  0  0  0  0
    0.5116    2.1347    0.6835 H   0  0  0  0  0  0  0  0  0  0  0  0
    1.8828    1.7974   -1.2995 H   0  0  0  0  0  0  0  0  0  0  0  0
  1  2  1  0
  2  3  1  0
  3  4  1  0
  4  5  2  0
  4  6  1  0
  6  7  1  0
  7  8  2  0
  8  9  1  0
  9 10  2  0
 10 11  1  0
 11 12  2  0
 11 13  1  0
 13 14  1  0
 14 15  1  0
 15 16  2  0
 15 17  1  0
 17 18  2  0
 18 19  1  0
 19 20  2  0
 20 21  1  0
 10 22  1  0
 22 23  2  0
 23  7  1  0
 21 17  1  0
  1 24  1  0
  1 25  1  0
  1 26  1  0
  2 27  1  0
  2 28  1  0
  3 29  1  0
  3 30  1  0
  6 31  1  0
  8 32  1  0
  9 33  1  0
 13 34  1  0
 14 35  1  0
 18 36  1  0
 19 37  1  0
 20 38  1  0
 22 39  1  0
 23 40  1  0
M  END
$$$$
