
     RDKit          3D

 61 63  0  0  0  0  0  0  0  0999 V2000
   -9.8806   -2.1240    1.0305 C   0  0  0  0  0  0  0  0  0  0  0  0
   -9.2920   -1.4851   -0.0951 O   0  0  0  0  0  0  0  0  0  0  0  0
   -7.9257   -1.4411   -0.1369 C   0  0  0  0  0  0  0  0  0  0  0  0
   -7.0573   -1.9505    0.8281 C   0  0  0  0  0  0  0  0  0  0  0  0
   -5.6721   -1.8388    0.6585 C   0  0  0  0  0  0  0  0  0  0  0  0
   -5.1376   -1.2227   -0.4810 C   0  0  0  0  0  0  0  0  0  0  0  0
   -3.6509   -1.0812   -0.6517 C   0  0  0  0  0  0  0  0  0  0  0  0
   -3.1859    0.1680   -0.1140 N   0  0  0  0  0  0  0  0  0  0  0  0
   -1.8946    0.5943   -0.3032 C   0  0  0  0  0  0  0  0  0  0  0  0
   -1.0541    0.0597   -1.0141 O   0  0  0  0  0  0  0  0  0  0  0  0
   -1.5324    1.8596    0.5057 C   0  0  0  0  0  0  0  0  0  0  0  0
   -2.2943    2.2728    1.3674 O   0  0  0  0  0  0  0  0  0  0  0  0
   -0.3174    2.3998    0.1529 N   0  0  0  0  0  0  0  0  0  0  0  0
    0.3944    3.3172    1.0336 C   0  0  0  0  0  0  0  0  0  0  0  0
    1.3755    2.5797    1.9699 C   0  0  0  0  0  0  0  0  0  0  0  0
    0.6537    1.7656    2.9100 O   0  0  0  0  0  0  0  0  0  0  0  0
    1.5268    0.6769    3.2128 C   0  0  0  0  0  0  0  0  0  0  0  0
    2.1490    0.3398    1.8774 C   0  0  0  0  0  0  0  0  0  0  0  0
    2.2341    1.6457    1.1918 N   0  0  0  0  0  0  0  0  0  0  0  0
    3.7699    2.2622    0.8705 S   0  0  0  0  0  6  0  0  0  0  0  0
    3.6049    3.5305    0.1959 O   0  0  0  0  0  0  0  0  0  0  0  0
    4.5394    2.1528    2.0913 O   0  0  0  0  0  0  0  0  0  0  0  0
    4.4056    1.1048   -0.3124 C   0  0  0  0  0  0  0  0  0  0  0  0
    3.7994    1.0211   -1.5664 C   0  0  0  0  0  0  0  0  0  0  0  0
    4.2834    0.1079   -2.5036 C   0  0  0  0  0  0  0  0  0  0  0  0
    5.3742   -0.7133   -2.1924 C   0  0  0  0  0  0  0  0  0  0  0  0
    5.9148   -1.6396   -3.0500 O   0  0  0  0  0  0  0  0  0  0  0  0
    5.3894   -1.7035   -4.3686 C   0  0  0  0  0  0  0  0  0  0  0  0
    5.9881   -0.6143   -0.9237 C   0  0  0  0  0  0  0  0  0  0  0  0
    7.0472   -1.4588   -0.6999 O   0  0  0  0  0  0  0  0  0  0  0  0
    7.7799   -1.2963    0.5067 C   0  0  0  0  0  0  0  0  0  0  0  0
    5.4997    0.2995    0.0145 C   0  0  0  0  0  0  0  0  0  0  0  0
   -6.0145   -0.7004   -1.4385 C   0  0  0  0  0  0  0  0  0  0  0  0
   -7.3960   -0.8151   -1.2672 C   0  0  0  0  0  0  0  0  0  0  0  0
   -9.5897   -3.1779    1.0834 H   0  0  0  0  0  0  0  0  0  0  0  0
  -10.9673   -2.0845    0.9068 H   0  0  0  0  0  0  0  0  0  0  0  0
   -9.6317   -1.5976    1.9580 H   0  0  0  0  0  0  0  0  0  0  0  0
   -7.4231   -2.4376    1.7259 H   0  0  0  0  0  0  0  0  0  0  0  0
   -5.0122   -2.2375    1.4265 H   0  0  0  0  0  0  0  0  0  0  0  0
   -3.1225   -1.8928   -0.1380 H   0  0  0  0  0  0  0  0  0  0  0  0
   -3.3718   -1.1454   -1.7100 H   0  0  0  0  0  0  0  0  0  0  0  0
   -3.7231    0.6465    0.6049 H   0  0  0  0  0  0  0  0  0  0  0  0
    0.2457    1.8239   -0.4675 H   0  0  0  0  0  0  0  0  0  0  0  0
   -0.3344    3.8826    1.6242 H   0  0  0  0  0  0  0  0  0  0  0  0
    0.9374    4.0092    0.3830 H   0  0  0  0  0  0  0  0  0  0  0  0
    1.9628    3.3023    2.5487 H   0  0  0  0  0  0  0  0  0  0  0  0
    0.9614   -0.1549    3.6404 H   0  0  0  0  0  0  0  0  0  0  0  0
    2.2748    1.0156    3.9384 H   0  0  0  0  0  0  0  0  0  0  0  0
    1.4814   -0.2984    1.2875 H   0  0  0  0  0  0  0  0  0  0  0  0
    3.1029   -0.1801    1.9906 H   0  0  0  0  0  0  0  0  0  0  0  0
    2.9551    1.6591   -1.8183 H   0  0  0  0  0  0  0  0  0  0  0  0
    3.7880    0.0599   -3.4681 H   0  0  0  0  0  0  0  0  0  0  0  0
    5.9598   -2.4574   -4.9196 H   0  0  0  0  0  0  0  0  0  0  0  0
    4.3414   -2.0213   -4.3604 H   0  0  0  0  0  0  0  0  0  0  0  0
    5.5105   -0.7484   -4.8905 H   0  0  0  0  0  0  0  0  0  0  0  0
    8.1947   -0.2859    0.5865 H   0  0  0  0  0  0  0  0  0  0  0  0
    7.1625   -1.5416    1.3774 H   0  0  0  0  0  0  0  0  0  0  0  0
    8.6185   -1.9989    0.4864 H   0  0  0  0  0  0  0  0  0  0  0  0
    5.9502    0.3962    0.9969 H   0  0  0  0  0  0  0  0  0  0  0  0
   -5.6285   -0.1993   -2.3238 H   0  0  0  0  0  0  0  0  0  0  0  0
   -8.0667   -0.4090   -2.0206 H   0  0  0  0  0  0  0  0  0  0  0  0
  1  2  1  0
  2  3  1  0
  3  4  2  0
  4  5  1  0
  5  6  2  0
  6  7  1  0
  7  8  1  0
  8  9  1  0
  9 10  2  0
  9 11  1  0
 11 12  2  0
 11 13  1  0
 13 14  1  0
 14 15  1  0
 15 16  1  0
 16 17  1  0
 17 18  1  0
 18 19  1  0
 19 20  1  0
 20 21  2  0
 20 22  2  0
 20 23  1  0
 23 24  2  0
 24 25  1  0
 25 26  2  0
 26 27  1  0
 27 28  1  0
 26 29  1  0
 29 30  1  0
 30 31  1  0
 29 32  2  0
  6 33  1  0
 33 34  2  0
 34  3  1  0
 19 15  1  0
 32 23  1  0
  1 35  1  0
  1 36  1  0
  1 37  1  0
  4 38  1  0
  5 39  1  0
  7 40  1  0
  7 41  1  0
  8 42  1  0
 13 43  1  0
 14 44  1  0
 14 45  1  0
 15 46  1  0
 17 47  1  0
 17 48  1  0
 18 49  1  0
 18 50  1  0
 24 51  1  0
 25 52  1  0
 28 53  1  0
 28 54  1  0
 28 55  1  0
 31 56  1  0
 31 57  1  0
 31 58  1  0
 32 59  1  0
 33 60  1  0
 34 61  1  0
M  END
$$$$
