
     RDKit          3D

 47 48  0  0  0  0  0  0  0  0999 V2000
   -5.0587   -1.0631    1.4348 C   0  0  0  0  0  0  0  0  0  0  0  0
   -4.6322    0.1541    0.6286 C   0  0  0  0  0  0  0  0  0  0  0  0
   -3.5282    0.8719    1.2834 N   0  0  0  0  0  0  0  0  0  0  0  0
   -3.9148    1.8541    2.3102 C   0  0  0  0  0  0  0  0  0  0  0  0
   -3.5316    1.3885    3.7088 C   0  0  0  0  0  0  0  0  0  0  0  0
   -2.1997    0.6533    0.9311 C   0  0  0  0  0  0  0  0  0  0  0  0
   -1.1827    1.5617    1.2653 C   0  0  0  0  0  0  0  0  0  0  0  0
    0.1559    1.3552    0.9098 C   0  0  0  0  0  0  0  0  0  0  0  0
    0.5278    0.2151    0.1991 C   0  0  0  0  0  0  0  0  0  0  0  0
    1.9329   -0.0064   -0.1636 C   0  0  0  0  0  0  0  0  0  0  0  0
    2.6002    0.8371   -0.9644 C   0  0  0  0  0  0  0  0  0  0  0  0
    3.9606    0.5493   -1.4134 C   0  0  0  0  0  0  0  0  0  0  0  0
    5.0314    1.2575   -0.8587 C   0  0  0  0  0  0  0  0  0  0  0  0
    6.3305    0.9803   -1.2634 C   0  0  0  0  0  0  0  0  0  0  0  0
    6.5455   -0.0030   -2.2162 C   0  0  0  0  0  0  0  0  0  0  0  0
    5.4594   -0.6854   -2.7500 C   0  0  0  0  0  0  0  0  0  0  0  0
    4.1939   -0.4040   -2.3577 N   0  0  0  0  0  4  0  0  0  0  0  0
    3.0777   -1.1536   -2.9748 C   0  0  0  0  0  0  0  0  0  0  0  0
   -0.4531   -0.7286   -0.1409 C   0  0  0  0  0  0  0  0  0  0  0  0
   -0.0152   -1.8288   -0.8442 O   0  0  0  0  0  0  0  0  0  0  0  0
   -0.9347   -2.9087   -0.9817 C   0  0  0  0  0  0  0  0  0  0  0  0
   -1.7913   -0.4930    0.2196 C   0  0  0  0  0  0  0  0  0  0  0  0
   -5.8478   -1.6075    0.9065 H   0  0  0  0  0  0  0  0  0  0  0  0
   -4.2247   -1.7508    1.6043 H   0  0  0  0  0  0  0  0  0  0  0  0
   -5.4530   -0.7692    2.4125 H   0  0  0  0  0  0  0  0  0  0  0  0
   -4.3755   -0.1353   -0.3971 H   0  0  0  0  0  0  0  0  0  0  0  0
   -5.4943    0.8239    0.5172 H   0  0  0  0  0  0  0  0  0  0  0  0
   -5.0016    2.0051    2.2966 H   0  0  0  0  0  0  0  0  0  0  0  0
   -3.4900    2.8406    2.0948 H   0  0  0  0  0  0  0  0  0  0  0  0
   -3.9841    0.4196    3.9415 H   0  0  0  0  0  0  0  0  0  0  0  0
   -2.4489    1.2849    3.8244 H   0  0  0  0  0  0  0  0  0  0  0  0
   -3.8791    2.1118    4.4534 H   0  0  0  0  0  0  0  0  0  0  0  0
   -1.4083    2.4740    1.8100 H   0  0  0  0  0  0  0  0  0  0  0  0
    0.8940    2.0959    1.2072 H   0  0  0  0  0  0  0  0  0  0  0  0
    2.3629   -0.9355    0.2051 H   0  0  0  0  0  0  0  0  0  0  0  0
    2.1508    1.7562   -1.3334 H   0  0  0  0  0  0  0  0  0  0  0  0
    4.8558    2.0213   -0.1027 H   0  0  0  0  0  0  0  0  0  0  0  0
    7.1694    1.5253   -0.8328 H   0  0  0  0  0  0  0  0  0  0  0  0
    7.5567   -0.2382   -2.5426 H   0  0  0  0  0  0  0  0  0  0  0  0
    5.5969   -1.4624   -3.4972 H   0  0  0  0  0  0  0  0  0  0  0  0
    2.2945   -0.4515   -3.2709 H   0  0  0  0  0  0  0  0  0  0  0  0
    2.7194   -1.8848   -2.2465 H   0  0  0  0  0  0  0  0  0  0  0  0
    3.4344   -1.6712   -3.8694 H   0  0  0  0  0  0  0  0  0  0  0  0
   -0.3993   -3.7426   -1.4458 H   0  0  0  0  0  0  0  0  0  0  0  0
   -1.2997   -3.2497   -0.0070 H   0  0  0  0  0  0  0  0  0  0  0  0
   -1.7612   -2.6355   -1.6453 H   0  0  0  0  0  0  0  0  0  0  0  0
   -2.5409   -1.2281   -0.0446 H   0  0  0  0  0  0  0  0  0  0  0  0
  1  2  1  0
  2  3  1  0
  3  4  1  0
  4  5  1  0
  3  6  1  0
  6  7  2  0
  7  8  1  0
  8  9  2  0
  9 10  1  0
 10 11  2  3
 11 12  1  0
 12 13  2  0
 13 14  1  0
 14 15  2  0
 15 16  1  0
 16 17  2  0
 17 18  1  0
  9 19  1  0
 19 20  1  0
 20 21  1  0
 19 22  2  0
 22  6  1  0
 17 12  1  0
  1 23  1  0
  1 24  1  0
  1 25  1  0
  2 26  1  0
  2 27  1  0
  4 28  1  0
  4 29  1  0
  5 30  1  0
  5 31  1  0
  5 32  1  0
  7 33  1  0
  8 34  1  0
 10 35  1  0
 11 36  1  0
 13 37  1  0
 14 38  1  0
 15 39  1  0
 16 40  1  0
 18 41  1  0
 18 42  1  0
 18 43  1  0
 21 44  1  0
 21 45  1  0
 21 46  1  0
 22 47  1  0
M  CHG  1  17   1
M  END
$$$$
