
     RDKit          3D

 37 38  0  0  0  0  0  0  0  0999 V2000
    6.0369   -0.1178   -0.7601 C   0  0  0  0  0  0  0  0  0  0  0  0
    4.7155   -0.3928   -1.4550 C   0  0  0  0  0  0  0  0  0  0  0  0
    3.6079   -0.4486   -0.5210 N   0  0  0  0  0  0  0  0  0  0  0  0
    2.7415    0.5600   -0.2191 C   0  0  0  0  0  0  0  0  0  0  0  0
    1.8694    0.0548    0.7248 C   0  0  0  0  0  0  0  0  0  0  0  0
    0.7373    0.7477    1.3870 C   0  0  0  0  0  0  0  0  0  0  0  0
   -0.4693    0.4207    0.6648 N   0  0  0  0  0  0  0  0  0  0  0  0
   -1.6971    0.7720    1.1759 C   0  0  0  0  0  0  0  0  0  0  0  0
   -1.8473    1.3058    2.2680 O   0  0  0  0  0  0  0  0  0  0  0  0
   -2.8769    0.5015    0.3099 C   0  0  0  0  0  0  0  0  0  0  0  0
   -2.8821   -0.5445   -0.6249 C   0  0  0  0  0  0  0  0  0  0  0  0
   -4.0116   -0.7783   -1.4138 C   0  0  0  0  0  0  0  0  0  0  0  0
   -5.1437    0.0249   -1.2703 C   0  0  0  0  0  0  0  0  0  0  0  0
   -5.1421    1.0613   -0.3260 C   0  0  0  0  0  0  0  0  0  0  0  0
   -6.3348    1.9034   -0.1729 N   0  0  0  0  0  4  0  0  0  0  0  0
   -6.2548    2.8869    0.5755 O   0  0  0  0  0  0  0  0  0  0  0  0
   -7.3495    1.5834   -0.8083 O   0  0  0  0  0  1  0  0  0  0  0  0
   -4.0153    1.3020    0.4695 C   0  0  0  0  0  0  0  0  0  0  0  0
    2.2989   -1.2886    0.9135 C   0  0  0  0  0  0  0  0  0  0  0  0
    1.7195   -2.3118    1.8196 C   0  0  0  0  0  0  0  0  0  0  0  0
    3.3485   -1.5890    0.1393 N   0  0  0  0  0  0  0  0  0  0  0  0
    6.8495   -0.0748   -1.4917 H   0  0  0  0  0  0  0  0  0  0  0  0
    6.2726   -0.9025   -0.0334 H   0  0  0  0  0  0  0  0  0  0  0  0
    6.0086    0.8363   -0.2232 H   0  0  0  0  0  0  0  0  0  0  0  0
    4.7473   -1.3485   -1.9896 H   0  0  0  0  0  0  0  0  0  0  0  0
    4.4965    0.3933   -2.1857 H   0  0  0  0  0  0  0  0  0  0  0  0
    2.8196    1.5354   -0.6788 H   0  0  0  0  0  0  0  0  0  0  0  0
    0.8661    1.8354    1.3626 H   0  0  0  0  0  0  0  0  0  0  0  0
    0.6325    0.4421    2.4335 H   0  0  0  0  0  0  0  0  0  0  0  0
   -0.3770    0.2331   -0.3240 H   0  0  0  0  0  0  0  0  0  0  0  0
   -2.0250   -1.2057   -0.7309 H   0  0  0  0  0  0  0  0  0  0  0  0
   -4.0126   -1.5944   -2.1341 H   0  0  0  0  0  0  0  0  0  0  0  0
   -6.0158   -0.1720   -1.8917 H   0  0  0  0  0  0  0  0  0  0  0  0
   -4.0098    2.1008    1.2103 H   0  0  0  0  0  0  0  0  0  0  0  0
    0.6649   -2.4805    1.5795 H   0  0  0  0  0  0  0  0  0  0  0  0
    1.7891   -1.9812    2.8607 H   0  0  0  0  0  0  0  0  0  0  0  0
    2.2428   -3.2697    1.7331 H   0  0  0  0  0  0  0  0  0  0  0  0
  1  2  1  0
  2  3  1  0
  3  4  1  0
  4  5  2  0
  5  6  1  0
  6  7  1  0
  7  8  1  0
  8  9  2  0
  8 10  1  0
 10 11  2  0
 11 12  1  0
 12 13  2  0
 13 14  1  0
 14 15  1  0
 15 16  2  0
 15 17  1  0
 14 18  2  0
  5 19  1  0
 19 20  1  0
 19 21  2  0
 21  3  1  0
 18 10  1  0
  1 22  1  0
  1 23  1  0
  1 24  1  0
  2 25  1  0
  2 26  1  0
  4 27  1  0
  6 28  1  0
  6 29  1  0
  7 30  1  0
 11 31  1  0
 12 32  1  0
 13 33  1  0
 18 34  1  0
 20 35  1  0
 20 36  1  0
 20 37  1  0
M  CHG  2  15   1  17  -1
M  END
$$$$
