
     RDKit          3D

 51 55  0  0  0  0  0  0  0  0999 V2000
   -7.5002   -1.2262    2.6418 F   0  0  0  0  0  0  0  0  0  0  0  0
   -6.8508   -0.2808    1.9501 C   0  0  0  0  0  0  0  0  0  0  0  0
   -7.5257    0.8721    1.5685 C   0  0  0  0  0  0  0  0  0  0  0  0
   -6.8520    1.8526    0.8435 C   0  0  0  0  0  0  0  0  0  0  0  0
   -5.5073    1.6719    0.5076 C   0  0  0  0  0  0  0  0  0  0  0  0
   -4.8235    0.5100    0.8969 C   0  0  0  0  0  0  0  0  0  0  0  0
   -3.3765    0.3062    0.5144 C   0  0  0  0  0  0  0  0  0  0  0  0
   -3.2458   -0.3789   -0.8583 C   0  0  0  0  0  0  0  0  0  0  0  0
   -1.8846   -0.6320   -1.3423 N   0  0  0  0  0  0  0  0  0  0  0  0
   -1.0496    0.5667   -1.5135 C   0  0  0  0  0  0  0  0  0  0  0  0
    0.0688    0.7555   -0.4630 C   0  0  0  0  0  0  0  0  0  0  0  0
    0.9241   -0.4328   -0.3320 N   0  0  0  0  0  0  0  0  0  0  0  0
    2.3070   -0.3339   -0.2028 C   0  0  0  0  0  0  0  0  0  0  0  0
    3.0431   -1.2414   -0.7981 N   0  0  0  0  0  0  0  0  0  0  0  0
    4.4478   -1.1880   -0.7419 C   0  0  0  0  0  0  0  0  0  0  0  0
    5.1756   -2.1749   -1.4095 C   0  0  0  0  0  0  0  0  0  0  0  0
    6.5727   -2.1653   -1.3936 C   0  0  0  0  0  0  0  0  0  0  0  0
    7.2570   -1.1624   -0.7068 C   0  0  0  0  0  0  0  0  0  0  0  0
    6.5494   -0.1657   -0.0335 C   0  0  0  0  0  0  0  0  0  0  0  0
    5.1520   -0.1887   -0.0594 C   0  0  0  0  0  0  0  0  0  0  0  0
    4.3616    0.7644    0.6023 N   0  0  0  0  0  0  0  0  0  0  0  0
    4.7522    1.8377    1.3680 C   0  0  0  0  0  0  0  0  0  0  0  0
    3.6223    2.4380    1.8762 C   0  0  0  0  0  0  0  0  0  0  0  0
    2.5102    1.7131    1.3890 C   0  0  0  0  0  0  0  0  0  0  0  0
    2.9835    0.7055    0.5652 C   0  0  0  0  0  0  0  0  0  0  0  0
    0.3385   -1.6880   -0.8400 C   0  0  0  0  0  0  0  0  0  0  0  0
   -1.1870   -1.7070   -0.6171 C   0  0  0  0  0  0  0  0  0  0  0  0
   -5.5126   -0.4722    1.6208 C   0  0  0  0  0  0  0  0  0  0  0  0
   -8.5705    0.9965    1.8351 H   0  0  0  0  0  0  0  0  0  0  0  0
   -7.3724    2.7566    0.5380 H   0  0  0  0  0  0  0  0  0  0  0  0
   -4.9967    2.4444   -0.0636 H   0  0  0  0  0  0  0  0  0  0  0  0
   -2.8854   -0.2832    1.2972 H   0  0  0  0  0  0  0  0  0  0  0  0
   -2.8740    1.2813    0.5111 H   0  0  0  0  0  0  0  0  0  0  0  0
   -3.7622    0.2311   -1.6116 H   0  0  0  0  0  0  0  0  0  0  0  0
   -3.7952   -1.3302   -0.8465 H   0  0  0  0  0  0  0  0  0  0  0  0
   -1.6589    1.4765   -1.5728 H   0  0  0  0  0  0  0  0  0  0  0  0
   -0.5694    0.4770   -2.4969 H   0  0  0  0  0  0  0  0  0  0  0  0
    0.6597    1.6268   -0.7665 H   0  0  0  0  0  0  0  0  0  0  0  0
   -0.3803    0.9738    0.5120 H   0  0  0  0  0  0  0  0  0  0  0  0
    4.6436   -2.9565   -1.9459 H   0  0  0  0  0  0  0  0  0  0  0  0
    7.1240   -2.9419   -1.9179 H   0  0  0  0  0  0  0  0  0  0  0  0
    8.3439   -1.1594   -0.6949 H   0  0  0  0  0  0  0  0  0  0  0  0
    7.1039    0.6016    0.4960 H   0  0  0  0  0  0  0  0  0  0  0  0
    5.7938    2.0854    1.5128 H   0  0  0  0  0  0  0  0  0  0  0  0
    3.6036    3.2958    2.5364 H   0  0  0  0  0  0  0  0  0  0  0  0
    1.4744    1.9122    1.6249 H   0  0  0  0  0  0  0  0  0  0  0  0
    0.5664   -1.8044   -1.9067 H   0  0  0  0  0  0  0  0  0  0  0  0
    0.7742   -2.5418   -0.3073 H   0  0  0  0  0  0  0  0  0  0  0  0
   -1.5850   -2.6726   -0.9487 H   0  0  0  0  0  0  0  0  0  0  0  0
   -1.3662   -1.6356    0.4620 H   0  0  0  0  0  0  0  0  0  0  0  0
   -5.0212   -1.3890    1.9330 H   0  0  0  0  0  0  0  0  0  0  0  0
  1  2  1  0
  2  3  2  0
  3  4  1  0
  4  5  2  0
  5  6  1  0
  6  7  1  0
  7  8  1  0
  8  9  1  0
  9 10  1  0
 10 11  1  0
 11 12  1  0
 12 13  1  0
 13 14  2  0
 14 15  1  0
 15 16  2  0
 16 17  1  0
 17 18  2  0
 18 19  1  0
 19 20  2  0
 20 21  1  0
 21 22  1  0
 22 23  2  0
 23 24  1  0
 24 25  2  0
 12 26  1  0
 26 27  1  0
  6 28  2  0
 28  2  1  0
 27  9  1  0
 25 13  1  0
 20 15  1  0
 25 21  1  0
  3 29  1  0
  4 30  1  0
  5 31  1  0
  7 32  1  0
  7 33  1  0
  8 34  1  0
  8 35  1  0
 10 36  1  0
 10 37  1  0
 11 38  1  0
 11 39  1  0
 16 40  1  0
 17 41  1  0
 18 42  1  0
 19 43  1  0
 22 44  1  0
 23 45  1  0
 24 46  1  0
 26 47  1  0
 26 48  1  0
 27 49  1  0
 27 50  1  0
 28 51  1  0
M  END
$$$$
