
     RDKit          3D

 52 55  0  0  0  0  0  0  0  0999 V2000
   -3.8290   -0.4098   -3.3086 C   0  0  0  0  0  0  0  0  0  0  0  0
   -3.5428   -1.5994   -2.4122 C   0  0  0  0  0  0  0  0  0  0  0  0
   -3.6129   -1.2047   -1.0358 O   0  0  0  0  0  0  0  0  0  0  0  0
   -2.4665   -0.7227   -0.4828 C   0  0  0  0  0  0  0  0  0  0  0  0
   -1.4086   -0.6102   -1.0946 O   0  0  0  0  0  0  0  0  0  0  0  0
   -2.6062   -0.3412    0.9262 C   0  0  0  0  0  0  0  0  0  0  0  0
   -3.7926   -0.4222    1.7531 C   0  0  0  0  0  0  0  0  0  0  0  0
   -5.1200   -0.8995    1.3994 C   0  0  0  0  0  0  0  0  0  0  0  0
   -6.0954    0.0025    0.9591 C   0  0  0  0  0  0  0  0  0  0  0  0
   -7.3685   -0.4581    0.6194 C   0  0  0  0  0  0  0  0  0  0  0  0
   -7.6690   -1.8171    0.7194 C   0  0  0  0  0  0  0  0  0  0  0  0
   -6.6984   -2.7185    1.1576 C   0  0  0  0  0  0  0  0  0  0  0  0
   -5.4245   -2.2619    1.4993 C   0  0  0  0  0  0  0  0  0  0  0  0
   -3.5632    0.0280    3.0372 C   0  0  0  0  0  0  0  0  0  0  0  0
   -1.9572    0.5394    3.2602 S   0  0  0  0  0  0  0  0  0  0  0  0
   -1.5380    0.1736    1.6563 C   0  0  0  0  0  0  0  0  0  0  0  0
   -0.2497    0.3874    1.1887 N   0  0  0  0  0  0  0  0  0  0  0  0
    0.8388    0.8931    1.8770 C   0  0  0  0  0  0  0  0  0  0  0  0
    0.8718    1.2640    3.0449 O   0  0  0  0  0  0  0  0  0  0  0  0
    2.0482    0.9616    1.0462 C   0  0  0  0  0  0  0  0  0  0  0  0
    3.3379    1.3949    1.4448 C   0  0  0  0  0  0  0  0  0  0  0  0
    4.1207    1.2596    0.3233 C   0  0  0  0  0  0  0  0  0  0  0  0
    5.5183    1.5439    0.0128 C   0  0  0  0  0  0  0  0  0  0  0  0
    6.1126    2.6824    0.5889 C   0  0  0  0  0  0  0  0  0  0  0  0
    7.4419    3.0114    0.3239 C   0  0  0  0  0  0  0  0  0  0  0  0
    8.1978    2.2039   -0.5178 C   0  0  0  0  0  0  0  0  0  0  0  0
    7.6295    1.0640   -1.0923 C   0  0  0  0  0  0  0  0  0  0  0  0
    6.2949    0.7216   -0.8334 C   0  0  0  0  0  0  0  0  0  0  0  0
    5.6886   -0.4058   -1.3282 O   0  0  0  0  0  0  0  0  0  0  0  0
    6.4015   -1.1847   -2.2791 C   0  0  0  0  0  0  0  0  0  0  0  0
    3.3437    0.7933   -0.6950 O   0  0  0  0  0  0  0  0  0  0  0  0
    2.0468    0.6011   -0.2486 N   0  0  0  0  0  0  0  0  0  0  0  0
   -3.0876    0.3821   -3.1608 H   0  0  0  0  0  0  0  0  0  0  0  0
   -4.8067    0.0218   -3.0719 H   0  0  0  0  0  0  0  0  0  0  0  0
   -3.8205   -0.7057   -4.3612 H   0  0  0  0  0  0  0  0  0  0  0  0
   -2.5766   -2.0589   -2.6494 H   0  0  0  0  0  0  0  0  0  0  0  0
   -4.3084   -2.3668   -2.5645 H   0  0  0  0  0  0  0  0  0  0  0  0
   -5.8699    1.0627    0.8763 H   0  0  0  0  0  0  0  0  0  0  0  0
   -8.1256    0.2429    0.2762 H   0  0  0  0  0  0  0  0  0  0  0  0
   -8.6609   -2.1742    0.4541 H   0  0  0  0  0  0  0  0  0  0  0  0
   -6.9335   -3.7766    1.2323 H   0  0  0  0  0  0  0  0  0  0  0  0
   -4.6741   -2.9719    1.8392 H   0  0  0  0  0  0  0  0  0  0  0  0
   -4.2645    0.0798    3.8599 H   0  0  0  0  0  0  0  0  0  0  0  0
   -0.0754    0.1371    0.2113 H   0  0  0  0  0  0  0  0  0  0  0  0
    3.6405    1.7398    2.4222 H   0  0  0  0  0  0  0  0  0  0  0  0
    5.5357    3.3347    1.2419 H   0  0  0  0  0  0  0  0  0  0  0  0
    7.8840    3.8980    0.7730 H   0  0  0  0  0  0  0  0  0  0  0  0
    9.2346    2.4565   -0.7261 H   0  0  0  0  0  0  0  0  0  0  0  0
    8.2608    0.4562   -1.7323 H   0  0  0  0  0  0  0  0  0  0  0  0
    7.2914   -1.6363   -1.8286 H   0  0  0  0  0  0  0  0  0  0  0  0
    6.6602   -0.5919   -3.1634 H   0  0  0  0  0  0  0  0  0  0  0  0
    5.7460   -1.9989   -2.6044 H   0  0  0  0  0  0  0  0  0  0  0  0
  1  2  1  0
  2  3  1  0
  3  4  1  0
  4  5  2  0
  4  6  1  0
  6  7  1  0
  7  8  1  0
  8  9  2  0
  9 10  1  0
 10 11  2  0
 11 12  1  0
 12 13  2  0
  7 14  2  0
 14 15  1  0
 15 16  1  0
 16 17  1  0
 17 18  1  0
 18 19  2  0
 18 20  1  0
 20 21  1  0
 21 22  2  0
 22 23  1  0
 23 24  2  0
 24 25  1  0
 25 26  2  0
 26 27  1  0
 27 28  2  0
 28 29  1  0
 29 30  1  0
 22 31  1  0
 31 32  1  0
 16  6  2  0
 32 20  2  0
 13  8  1  0
 28 23  1  0
  1 33  1  0
  1 34  1  0
  1 35  1  0
  2 36  1  0
  2 37  1  0
  9 38  1  0
 10 39  1  0
 11 40  1  0
 12 41  1  0
 13 42  1  0
 14 43  1  0
 17 44  1  0
 21 45  1  0
 24 46  1  0
 25 47  1  0
 26 48  1  0
 27 49  1  0
 30 50  1  0
 30 51  1  0
 30 52  1  0
M  END
$$$$
