
     RDKit          3D

 60 64  0  0  0  0  0  0  0  0999 V2000
   -8.1864    2.3439   -0.0052 C   0  0  0  0  0  0  0  0  0  0  0  0
   -7.2245    1.2538    0.3640 C   0  0  0  0  0  0  0  0  0  0  0  0
   -7.1732    0.7681    1.6749 C   0  0  0  0  0  0  0  0  0  0  0  0
   -6.2545   -0.2226    2.0287 C   0  0  0  0  0  0  0  0  0  0  0  0
   -5.3658   -0.7418    1.0774 C   0  0  0  0  0  0  0  0  0  0  0  0
   -4.3651   -1.8017    1.4624 C   0  0  0  0  0  0  0  0  0  0  0  0
   -3.1849   -1.2232    2.0688 N   0  0  0  0  0  0  0  0  0  0  0  0
   -3.0607   -1.1478    3.4179 N   0  0  0  0  0  0  0  0  0  0  0  0
   -1.8773   -0.5949    3.6855 N   0  0  0  0  0  0  0  0  0  0  0  0
   -1.2662   -0.3512    2.4940 C   0  0  0  0  0  0  0  0  0  0  0  0
    0.0153    0.2259    2.1931 C   0  0  0  0  0  0  0  0  0  0  0  0
    0.8296    0.6141    3.0226 O   0  0  0  0  0  0  0  0  0  0  0  0
    0.2513    0.2852    0.8227 N   0  0  0  0  0  0  0  0  0  0  0  0
   -0.6343   -0.1698   -0.1468 C   0  0  0  0  0  0  0  0  0  0  0  0
   -0.1983   -0.0934   -1.6104 C   0  0  0  0  0  0  0  0  0  0  0  0
    0.8106   -1.2018   -1.9406 C   0  0  0  0  0  0  0  0  0  0  0  0
    2.2505   -0.8333   -1.6053 C   0  0  0  0  0  0  0  0  0  0  0  0
    2.6281    0.5249   -2.0849 N   0  0  0  0  0  0  0  0  0  0  0  0
    3.4831    1.4994   -0.9700 S   0  0  0  0  0  6  0  0  0  0  0  0
    2.6402    1.5526    0.2095 O   0  0  0  0  0  0  0  0  0  0  0  0
    3.9137    2.7029   -1.6445 O   0  0  0  0  0  0  0  0  0  0  0  0
    4.9197    0.5297   -0.6100 C   0  0  0  0  0  0  0  0  0  0  0  0
    5.1408    0.0580    0.6854 C   0  0  0  0  0  0  0  0  0  0  0  0
    6.2741   -0.7132    0.9480 C   0  0  0  0  0  0  0  0  0  0  0  0
    7.1806   -1.0187   -0.0772 C   0  0  0  0  0  0  0  0  0  0  0  0
    8.4173   -1.8160    0.2199 C   0  0  0  0  0  0  0  0  0  0  0  0
    6.9548   -0.5185   -1.3673 C   0  0  0  0  0  0  0  0  0  0  0  0
    5.8241    0.2530   -1.6379 C   0  0  0  0  0  0  0  0  0  0  0  0
    1.5701    1.2377   -2.8428 C   0  0  0  0  0  0  0  0  0  0  0  0
    0.2755    1.2988   -2.0426 C   0  0  0  0  0  0  0  0  0  0  0  0
   -1.7941   -0.7081    0.1223 N   0  0  0  0  0  0  0  0  0  0  0  0
   -2.0600   -0.7578    1.4502 C   0  0  0  0  0  0  0  0  0  0  0  0
   -5.4023   -0.2362   -0.2292 C   0  0  0  0  0  0  0  0  0  0  0  0
   -6.3222    0.7542   -0.5814 C   0  0  0  0  0  0  0  0  0  0  0  0
   -8.4865    2.2604   -1.0550 H   0  0  0  0  0  0  0  0  0  0  0  0
   -7.7224    3.3221    0.1539 H   0  0  0  0  0  0  0  0  0  0  0  0
   -9.0979    2.2819    0.5986 H   0  0  0  0  0  0  0  0  0  0  0  0
   -7.8459    1.1625    2.4336 H   0  0  0  0  0  0  0  0  0  0  0  0
   -6.2291   -0.5777    3.0578 H   0  0  0  0  0  0  0  0  0  0  0  0
   -4.8051   -2.5110    2.1734 H   0  0  0  0  0  0  0  0  0  0  0  0
   -4.0476   -2.3830    0.5891 H   0  0  0  0  0  0  0  0  0  0  0  0
    1.1244    0.7534    0.5847 H   0  0  0  0  0  0  0  0  0  0  0  0
   -1.1028   -0.3180   -2.1953 H   0  0  0  0  0  0  0  0  0  0  0  0
    0.5461   -2.1342   -1.4268 H   0  0  0  0  0  0  0  0  0  0  0  0
    0.7471   -1.4214   -3.0149 H   0  0  0  0  0  0  0  0  0  0  0  0
    2.3959   -0.9277   -0.5247 H   0  0  0  0  0  0  0  0  0  0  0  0
    2.9286   -1.5559   -2.0739 H   0  0  0  0  0  0  0  0  0  0  0  0
    4.4497    0.2882    1.4938 H   0  0  0  0  0  0  0  0  0  0  0  0
    6.4500   -1.0716    1.9608 H   0  0  0  0  0  0  0  0  0  0  0  0
    8.2336   -2.5355    1.0248 H   0  0  0  0  0  0  0  0  0  0  0  0
    8.7345   -2.3866   -0.6592 H   0  0  0  0  0  0  0  0  0  0  0  0
    9.2299   -1.1475    0.5205 H   0  0  0  0  0  0  0  0  0  0  0  0
    7.6632   -0.7244   -2.1674 H   0  0  0  0  0  0  0  0  0  0  0  0
    5.6561    0.6388   -2.6411 H   0  0  0  0  0  0  0  0  0  0  0  0
    1.8958    2.2474   -3.1141 H   0  0  0  0  0  0  0  0  0  0  0  0
    1.4142    0.7185   -3.7965 H   0  0  0  0  0  0  0  0  0  0  0  0
    0.3909    1.9744   -1.1887 H   0  0  0  0  0  0  0  0  0  0  0  0
   -0.4991    1.7598   -2.6689 H   0  0  0  0  0  0  0  0  0  0  0  0
   -4.7058   -0.6024   -0.9811 H   0  0  0  0  0  0  0  0  0  0  0  0
   -6.3270    1.1373   -1.5993 H   0  0  0  0  0  0  0  0  0  0  0  0
  1  2  1  0
  2  3  2  0
  3  4  1  0
  4  5  2  0
  5  6  1  0
  6  7  1  0
  7  8  1  0
  8  9  2  0
  9 10  1  0
 10 11  1  0
 11 12  2  0
 11 13  1  0
 13 14  1  0
 14 15  1  0
 15 16  1  0
 16 17  1  0
 17 18  1  0
 18 19  1  0
 19 20  2  0
 19 21  2  0
 19 22  1  0
 22 23  2  0
 23 24  1  0
 24 25  2  0
 25 26  1  0
 25 27  1  0
 27 28  2  0
 18 29  1  0
 29 30  1  0
 14 31  2  0
 31 32  1  0
  5 33  1  0
 33 34  2  0
 34  2  1  0
 32  7  1  0
 32 10  2  0
 30 15  1  0
 28 22  1  0
  1 35  1  0
  1 36  1  0
  1 37  1  0
  3 38  1  0
  4 39  1  0
  6 40  1  0
  6 41  1  0
 13 42  1  0
 15 43  1  0
 16 44  1  0
 16 45  1  0
 17 46  1  0
 17 47  1  0
 23 48  1  0
 24 49  1  0
 26 50  1  0
 26 51  1  0
 26 52  1  0
 27 53  1  0
 28 54  1  0
 29 55  1  0
 29 56  1  0
 30 57  1  0
 30 58  1  0
 33 59  1  0
 34 60  1  0
M  END
$$$$
