
     RDKit          3D

 49 52  0  0  0  0  0  0  0  0999 V2000
    2.8849    2.0053    0.1780 C   0  0  0  0  0  0  0  0  0  0  0  0
    3.2640    1.2589    1.4298 C   0  0  0  0  0  0  0  0  0  0  0  0
    3.6404    2.0187    2.5547 C   0  0  0  0  0  0  0  0  0  0  0  0
    3.9995    1.3955    3.7458 C   0  0  0  0  0  0  0  0  0  0  0  0
    4.4592    2.3427    5.1057 Cl  0  0  0  0  0  0  0  0  0  0  0  0
    3.9886    0.0116    3.8363 C   0  0  0  0  0  0  0  0  0  0  0  0
    3.6036   -0.7546    2.7314 C   0  0  0  0  0  0  0  0  0  0  0  0
    3.2244   -0.1511    1.5244 C   0  0  0  0  0  0  0  0  0  0  0  0
    2.8176   -0.9057    0.3974 N   0  0  0  0  0  0  0  0  0  0  0  0
    2.6693   -2.2815    0.3002 C   0  0  0  0  0  0  0  0  0  0  0  0
    2.8000   -3.0949    1.2122 O   0  0  0  0  0  0  0  0  0  0  0  0
    2.3096   -2.7550   -1.1015 C   0  0  0  0  0  0  0  0  0  0  0  0
    0.5070   -2.8910   -1.2829 S   0  0  0  0  0  0  0  0  0  0  0  0
    0.0776   -1.2259   -1.4331 C   0  0  0  0  0  0  0  0  0  0  0  0
    0.9106   -0.2532   -1.7175 N   0  0  0  0  0  0  0  0  0  0  0  0
    0.1990    0.9153   -1.7178 N   0  0  0  0  0  0  0  0  0  0  0  0
   -1.0579    0.6371   -1.4235 C   0  0  0  0  0  0  0  0  0  0  0  0
   -2.1594    1.6383   -1.2900 C   0  0  0  0  0  0  0  0  0  0  0  0
   -2.5028    1.9361    0.1448 C   0  0  0  0  0  0  0  0  0  0  0  0
   -1.6520    2.2088    1.2006 C   0  0  0  0  0  0  0  0  0  0  0  0
   -2.3527    2.4413    2.4185 C   0  0  0  0  0  0  0  0  0  0  0  0
   -3.7163    2.3531    2.2532 C   0  0  0  0  0  0  0  0  0  0  0  0
   -4.1452    1.9967    0.6379 S   0  0  0  0  0  0  0  0  0  0  0  0
   -1.1829   -0.7266   -1.2526 N   0  0  0  0  0  0  0  0  0  0  0  0
   -2.3838   -1.4595   -0.9025 C   0  0  0  0  0  0  0  0  0  0  0  0
   -3.1305   -1.8519   -2.1225 C   0  0  0  0  0  0  0  0  0  0  0  0
   -3.0553   -2.9299   -2.9811 C   0  0  0  0  0  0  0  0  0  0  0  0
   -4.0565   -2.7299   -3.9613 C   0  0  0  0  0  0  0  0  0  0  0  0
   -4.6802   -1.5483   -3.6385 C   0  0  0  0  0  0  0  0  0  0  0  0
   -4.1263   -1.0093   -2.5227 O   0  0  0  0  0  0  0  0  0  0  0  0
    3.2131    3.0498    0.2205 H   0  0  0  0  0  0  0  0  0  0  0  0
    3.3611    1.5648   -0.7036 H   0  0  0  0  0  0  0  0  0  0  0  0
    1.7989    2.0005    0.0603 H   0  0  0  0  0  0  0  0  0  0  0  0
    3.6549    3.1050    2.4980 H   0  0  0  0  0  0  0  0  0  0  0  0
    4.2730   -0.4858    4.7597 H   0  0  0  0  0  0  0  0  0  0  0  0
    3.6119   -1.8329    2.8539 H   0  0  0  0  0  0  0  0  0  0  0  0
    2.5056   -0.3731   -0.4135 H   0  0  0  0  0  0  0  0  0  0  0  0
    2.7510   -3.7475   -1.2442 H   0  0  0  0  0  0  0  0  0  0  0  0
    2.7476   -2.1043   -1.8652 H   0  0  0  0  0  0  0  0  0  0  0  0
   -3.0364    1.2990   -1.8512 H   0  0  0  0  0  0  0  0  0  0  0  0
   -1.8410    2.5758   -1.7644 H   0  0  0  0  0  0  0  0  0  0  0  0
   -0.5718    2.2360    1.1063 H   0  0  0  0  0  0  0  0  0  0  0  0
   -1.8796    2.6666    3.3670 H   0  0  0  0  0  0  0  0  0  0  0  0
   -4.4839    2.4877    3.0031 H   0  0  0  0  0  0  0  0  0  0  0  0
   -2.1079   -2.3386   -0.3121 H   0  0  0  0  0  0  0  0  0  0  0  0
   -2.9972   -0.8338   -0.2500 H   0  0  0  0  0  0  0  0  0  0  0  0
   -2.3640   -3.7591   -2.9104 H   0  0  0  0  0  0  0  0  0  0  0  0
   -4.2965   -3.3685   -4.8001 H   0  0  0  0  0  0  0  0  0  0  0  0
   -5.4925   -0.9852   -4.0774 H   0  0  0  0  0  0  0  0  0  0  0  0
  1  2  1  0
  2  3  2  0
  3  4  1  0
  4  5  1  0
  4  6  2  0
  6  7  1  0
  7  8  2  0
  8  9  1  0
  9 10  1  0
 10 11  2  0
 10 12  1  0
 12 13  1  0
 13 14  1  0
 14 15  2  0
 15 16  1  0
 16 17  2  0
 17 18  1  0
 18 19  1  0
 19 20  2  0
 20 21  1  0
 21 22  2  0
 22 23  1  0
 17 24  1  0
 24 25  1  0
 25 26  1  0
 26 27  2  0
 27 28  1  0
 28 29  2  0
 29 30  1  0
  8  2  1  0
 24 14  1  0
 30 26  1  0
 23 19  1  0
  1 31  1  0
  1 32  1  0
  1 33  1  0
  3 34  1  0
  6 35  1  0
  7 36  1  0
  9 37  1  0
 12 38  1  0
 12 39  1  0
 18 40  1  0
 18 41  1  0
 20 42  1  0
 21 43  1  0
 22 44  1  0
 25 45  1  0
 25 46  1  0
 27 47  1  0
 28 48  1  0
 29 49  1  0
M  END
$$$$
