
     RDKit          3D

 46 49  0  0  0  0  0  0  0  0999 V2000
   -6.5716    2.1775   -0.6474 C   0  0  0  0  0  0  0  0  0  0  0  0
   -5.8093    2.2230    0.5521 O   0  0  0  0  0  0  0  0  0  0  0  0
   -4.6409    1.5138    0.5716 C   0  0  0  0  0  0  0  0  0  0  0  0
   -3.9063    1.6320    1.7535 C   0  0  0  0  0  0  0  0  0  0  0  0
   -2.6891    0.9628    1.9133 C   0  0  0  0  0  0  0  0  0  0  0  0
   -2.1952    0.1609    0.8808 C   0  0  0  0  0  0  0  0  0  0  0  0
   -0.9616   -0.5386    1.0218 N   0  0  0  0  0  0  0  0  0  0  0  0
    0.2453   -0.0888    1.5503 C   0  0  0  0  0  0  0  0  0  0  0  0
    0.5272    1.5304    2.1189 S   0  0  0  0  0  0  0  0  0  0  0  0
    2.3173    1.5244    2.3944 C   0  0  0  0  0  0  0  0  0  0  0  0
    3.0419    1.8875    1.1107 C   0  0  0  0  0  0  0  0  0  0  0  0
    3.3169    3.0612    0.8718 O   0  0  0  0  0  0  0  0  0  0  0  0
    3.3376    0.7931    0.3196 N   0  0  0  0  0  0  0  0  0  0  0  0
    4.0098    0.8435   -0.9158 C   0  0  0  0  0  0  0  0  0  0  0  0
    4.3817    2.0370   -1.4259 N   0  0  0  0  0  0  0  0  0  0  0  0
    5.0131    2.0584   -2.6237 C   0  0  0  0  0  0  0  0  0  0  0  0
    5.3042    0.9214   -3.3550 C   0  0  0  0  0  0  0  0  0  0  0  0
    6.1070    1.0229   -4.8670 Cl  0  0  0  0  0  0  0  0  0  0  0  0
    4.9336   -0.3085   -2.8315 C   0  0  0  0  0  0  0  0  0  0  0  0
    4.2808   -0.3508   -1.5978 C   0  0  0  0  0  0  0  0  0  0  0  0
    3.8652   -1.8952   -0.9543 Cl  0  0  0  0  0  0  0  0  0  0  0  0
    1.1991   -0.9929    1.4809 N   0  0  0  0  0  0  0  0  0  0  0  0
    0.5943   -2.1080    0.9674 C   0  0  0  0  0  0  0  0  0  0  0  0
    1.1379   -3.3856    0.7571 C   0  0  0  0  0  0  0  0  0  0  0  0
    0.3281   -4.3933    0.2247 C   0  0  0  0  0  0  0  0  0  0  0  0
   -1.0073   -4.1410   -0.0773 C   0  0  0  0  0  0  0  0  0  0  0  0
   -1.5708   -2.8785    0.1377 C   0  0  0  0  0  0  0  0  0  0  0  0
   -0.7391   -1.8639    0.6457 C   0  0  0  0  0  0  0  0  0  0  0  0
   -2.9331    0.0343   -0.3039 C   0  0  0  0  0  0  0  0  0  0  0  0
   -4.1493    0.7115   -0.4573 C   0  0  0  0  0  0  0  0  0  0  0  0
   -6.0055    2.5863   -1.4912 H   0  0  0  0  0  0  0  0  0  0  0  0
   -6.9161    1.1595   -0.8575 H   0  0  0  0  0  0  0  0  0  0  0  0
   -7.4565    2.8053   -0.5048 H   0  0  0  0  0  0  0  0  0  0  0  0
   -4.2887    2.2507    2.5623 H   0  0  0  0  0  0  0  0  0  0  0  0
   -2.1763    1.0565    2.8667 H   0  0  0  0  0  0  0  0  0  0  0  0
    2.6807    0.5755    2.8008 H   0  0  0  0  0  0  0  0  0  0  0  0
    2.5545    2.2914    3.1400 H   0  0  0  0  0  0  0  0  0  0  0  0
    2.9881   -0.1166    0.6163 H   0  0  0  0  0  0  0  0  0  0  0  0
    5.2809    3.0496   -2.9789 H   0  0  0  0  0  0  0  0  0  0  0  0
    5.1528   -1.2245   -3.3721 H   0  0  0  0  0  0  0  0  0  0  0  0
    2.1720   -3.5878    1.0154 H   0  0  0  0  0  0  0  0  0  0  0  0
    0.7434   -5.3848    0.0594 H   0  0  0  0  0  0  0  0  0  0  0  0
   -1.6285   -4.9430   -0.4718 H   0  0  0  0  0  0  0  0  0  0  0  0
   -2.6250   -2.7141   -0.0624 H   0  0  0  0  0  0  0  0  0  0  0  0
   -2.5610   -0.5512   -1.1419 H   0  0  0  0  0  0  0  0  0  0  0  0
   -4.6822    0.5967   -1.3954 H   0  0  0  0  0  0  0  0  0  0  0  0
  1  2  1  0
  2  3  1  0
  3  4  2  0
  4  5  1  0
  5  6  2  0
  6  7  1  0
  7  8  1  0
  8  9  1  0
  9 10  1  0
 10 11  1  0
 11 12  2  0
 11 13  1  0
 13 14  1  0
 14 15  2  0
 15 16  1  0
 16 17  2  0
 17 18  1  0
 17 19  1  0
 19 20  2  0
 20 21  1  0
  8 22  2  0
 22 23  1  0
 23 24  2  0
 24 25  1  0
 25 26  2  0
 26 27  1  0
 27 28  2  0
  6 29  1  0
 29 30  2  0
 30  3  1  0
 28  7  1  0
 20 14  1  0
 28 23  1  0
  1 31  1  0
  1 32  1  0
  1 33  1  0
  4 34  1  0
  5 35  1  0
 10 36  1  0
 10 37  1  0
 13 38  1  0
 16 39  1  0
 19 40  1  0
 24 41  1  0
 25 42  1  0
 26 43  1  0
 27 44  1  0
 29 45  1  0
 30 46  1  0
M  END
$$$$
