
     RDKit          3D

 54 57  0  0  0  0  0  0  0  0999 V2000
   -4.2968    1.0866   -4.0883 C   0  0  0  0  0  0  0  0  0  0  0  0
   -4.6205    1.8986   -2.9680 O   0  0  0  0  0  0  0  0  0  0  0  0
   -3.8915    1.7147   -1.8210 C   0  0  0  0  0  0  0  0  0  0  0  0
   -2.8836    0.7603   -1.6574 C   0  0  0  0  0  0  0  0  0  0  0  0
   -2.1715    0.6339   -0.4473 C   0  0  0  0  0  0  0  0  0  0  0  0
   -1.1088   -0.3857   -0.3105 C   0  0  0  0  0  0  0  0  0  0  0  0
    0.0161   -0.2049    0.4740 C   0  0  0  0  0  0  0  0  0  0  0  0
    0.9593   -1.2316    0.5327 C   0  0  0  0  0  0  0  0  0  0  0  0
    2.1654   -0.9622    1.3476 C   0  0  0  0  0  0  0  0  0  0  0  0
    2.0054   -0.6732    2.5253 O   0  0  0  0  0  0  0  0  0  0  0  0
    3.3474   -1.0135    0.6344 N   0  0  0  0  0  0  0  0  0  0  0  0
    4.6533   -0.8225    1.1302 C   0  0  0  0  0  0  0  0  0  0  0  0
    4.9506   -0.6034    2.4765 C   0  0  0  0  0  0  0  0  0  0  0  0
    6.2764   -0.4331    2.8891 C   0  0  0  0  0  0  0  0  0  0  0  0
    7.3044   -0.4810    1.9567 C   0  0  0  0  0  0  0  0  0  0  0  0
    8.5795   -0.3076    2.4048 O   0  0  0  0  0  0  0  0  0  0  0  0
    7.0302   -0.6980    0.6125 C   0  0  0  0  0  0  0  0  0  0  0  0
    5.7045   -0.8717    0.2024 C   0  0  0  0  0  0  0  0  0  0  0  0
    0.7640   -2.4479   -0.1542 C   0  0  0  0  0  0  0  0  0  0  0  0
    1.6288   -3.5712   -0.0901 C   0  0  0  0  0  0  0  0  0  0  0  0
    1.3584   -4.7277   -0.8181 C   0  0  0  0  0  0  0  0  0  0  0  0
    0.2215   -4.7841   -1.6109 C   0  0  0  0  0  0  0  0  0  0  0  0
   -0.6428   -3.6881   -1.6595 C   0  0  0  0  0  0  0  0  0  0  0  0
   -0.3987   -2.5253   -0.9406 C   0  0  0  0  0  0  0  0  0  0  0  0
   -1.2908   -1.5235   -1.0264 N   0  0  0  0  0  0  0  0  0  0  0  0
   -2.5131    1.4977    0.6131 C   0  0  0  0  0  0  0  0  0  0  0  0
   -3.5130    2.4662    0.4742 C   0  0  0  0  0  0  0  0  0  0  0  0
   -3.8952    3.3435    1.4564 O   0  0  0  0  0  0  0  0  0  0  0  0
   -3.1121    3.3882    2.6411 C   0  0  0  0  0  0  0  0  0  0  0  0
   -4.2063    2.5543   -0.7424 C   0  0  0  0  0  0  0  0  0  0  0  0
   -5.1663    3.5292   -0.9056 O   0  0  0  0  0  0  0  0  0  0  0  0
   -6.4398    3.0228   -0.5123 C   0  0  0  0  0  0  0  0  0  0  0  0
   -3.2641    1.2518   -4.4125 H   0  0  0  0  0  0  0  0  0  0  0  0
   -4.4819    0.0284   -3.8746 H   0  0  0  0  0  0  0  0  0  0  0  0
   -4.9538    1.3781   -4.9128 H   0  0  0  0  0  0  0  0  0  0  0  0
   -2.6227    0.0881   -2.4697 H   0  0  0  0  0  0  0  0  0  0  0  0
    0.1863    0.7169    1.0212 H   0  0  0  0  0  0  0  0  0  0  0  0
    3.2721   -1.1799   -0.3620 H   0  0  0  0  0  0  0  0  0  0  0  0
    4.1746   -0.5619    3.2350 H   0  0  0  0  0  0  0  0  0  0  0  0
    6.5007   -0.2663    3.9391 H   0  0  0  0  0  0  0  0  0  0  0  0
    9.1840   -0.3304    1.6446 H   0  0  0  0  0  0  0  0  0  0  0  0
    7.8256   -0.7379   -0.1253 H   0  0  0  0  0  0  0  0  0  0  0  0
    5.5072   -1.0421   -0.8528 H   0  0  0  0  0  0  0  0  0  0  0  0
    2.5120   -3.5623    0.5466 H   0  0  0  0  0  0  0  0  0  0  0  0
    2.0271   -5.5826   -0.7566 H   0  0  0  0  0  0  0  0  0  0  0  0
   -0.0068   -5.6807   -2.1817 H   0  0  0  0  0  0  0  0  0  0  0  0
   -1.5412   -3.7475   -2.2708 H   0  0  0  0  0  0  0  0  0  0  0  0
   -1.9982    1.3851    1.5624 H   0  0  0  0  0  0  0  0  0  0  0  0
   -3.4972    4.1994    3.2674 H   0  0  0  0  0  0  0  0  0  0  0  0
   -2.0636    3.6103    2.4175 H   0  0  0  0  0  0  0  0  0  0  0  0
   -3.2083    2.4566    3.2078 H   0  0  0  0  0  0  0  0  0  0  0  0
   -6.7112    2.1250   -1.0778 H   0  0  0  0  0  0  0  0  0  0  0  0
   -6.4677    2.8178    0.5636 H   0  0  0  0  0  0  0  0  0  0  0  0
   -7.1873    3.7931   -0.7272 H   0  0  0  0  0  0  0  0  0  0  0  0
  1  2  1  0
  2  3  1  0
  3  4  2  0
  4  5  1  0
  5  6  1  0
  6  7  2  0
  7  8  1  0
  8  9  1  0
  9 10  2  0
  9 11  1  0
 11 12  1  0
 12 13  2  0
 13 14  1  0
 14 15  2  0
 15 16  1  0
 15 17  1  0
 17 18  2  0
  8 19  2  0
 19 20  1  0
 20 21  2  0
 21 22  1  0
 22 23  2  0
 23 24  1  0
 24 25  2  0
  5 26  2  0
 26 27  1  0
 27 28  1  0
 28 29  1  0
 27 30  2  0
 30 31  1  0
 31 32  1  0
 30  3  1  0
 25  6  1  0
 18 12  1  0
 24 19  1  0
  1 33  1  0
  1 34  1  0
  1 35  1  0
  4 36  1  0
  7 37  1  0
 11 38  1  0
 13 39  1  0
 14 40  1  0
 16 41  1  0
 17 42  1  0
 18 43  1  0
 20 44  1  0
 21 45  1  0
 22 46  1  0
 23 47  1  0
 26 48  1  0
 29 49  1  0
 29 50  1  0
 29 51  1  0
 32 52  1  0
 32 53  1  0
 32 54  1  0
M  END
$$$$
