
     RDKit          3D

 35 37  0  0  0  0  0  0  0  0999 V2000
   -1.9015   -3.4131   -0.8136 C   0  0  0  0  0  0  0  0  0  0  0  0
   -1.9948   -1.8910   -0.8744 C   0  0  0  0  0  0  0  0  0  0  0  0
   -2.5575   -1.4603    0.3657 O   0  0  0  0  0  0  0  0  0  0  0  0
   -3.0660   -0.1931    0.4441 C   0  0  0  0  0  0  0  0  0  0  0  0
   -3.6558    0.1152    1.6743 C   0  0  0  0  0  0  0  0  0  0  0  0
   -4.2077    1.3773    1.9053 C   0  0  0  0  0  0  0  0  0  0  0  0
   -4.1673    2.3378    0.8994 C   0  0  0  0  0  0  0  0  0  0  0  0
   -4.9105    4.0486    1.2018 Br  0  0  0  0  0  0  0  0  0  0  0  0
   -3.5807    2.0441   -0.3296 C   0  0  0  0  0  0  0  0  0  0  0  0
   -3.0291    0.7780   -0.5581 C   0  0  0  0  0  0  0  0  0  0  0  0
   -0.5834   -1.3226   -1.1125 C   0  0  0  0  0  0  0  0  0  0  0  0
   -0.2083   -1.0470   -2.2482 O   0  0  0  0  0  0  0  0  0  0  0  0
    0.1452   -1.2206    0.0515 N   0  0  0  0  0  0  0  0  0  0  0  0
    1.4339   -0.7763    0.1900 C   0  0  0  0  0  0  0  0  0  0  0  0
    2.0097   -0.6575    1.3670 N   0  0  0  0  0  0  0  0  0  0  0  0
    3.3102   -0.1999    1.2660 N   0  0  0  0  0  0  0  0  0  0  0  0
    3.6485    0.0074    0.0132 C   0  0  0  0  0  0  0  0  0  0  0  0
    5.0642    0.5192   -0.3933 C   0  0  0  0  0  0  0  0  0  0  0  0
    5.7258    1.5889    0.4381 C   0  0  0  0  0  0  0  0  0  0  0  0
    5.2166    1.9182   -0.9346 C   0  0  0  0  0  0  0  0  0  0  0  0
    2.4295   -0.3535   -1.1271 S   0  0  0  0  0  0  0  0  0  0  0  0
   -1.2938   -3.7410    0.0375 H   0  0  0  0  0  0  0  0  0  0  0  0
   -2.8963   -3.8512   -0.6788 H   0  0  0  0  0  0  0  0  0  0  0  0
   -1.4584   -3.8215   -1.7275 H   0  0  0  0  0  0  0  0  0  0  0  0
   -2.6480   -1.6223   -1.7133 H   0  0  0  0  0  0  0  0  0  0  0  0
   -3.6890   -0.6340    2.4622 H   0  0  0  0  0  0  0  0  0  0  0  0
   -4.6623    1.5969    2.8675 H   0  0  0  0  0  0  0  0  0  0  0  0
   -3.5447    2.7924   -1.1177 H   0  0  0  0  0  0  0  0  0  0  0  0
   -2.5791    0.5976   -1.5295 H   0  0  0  0  0  0  0  0  0  0  0  0
   -0.3264   -1.4060    0.9294 H   0  0  0  0  0  0  0  0  0  0  0  0
    5.7086   -0.2508   -0.8037 H   0  0  0  0  0  0  0  0  0  0  0  0
    6.7975    1.5231    0.5848 H   0  0  0  0  0  0  0  0  0  0  0  0
    5.1876    1.9872    1.2916 H   0  0  0  0  0  0  0  0  0  0  0  0
    4.3390    2.5508   -1.0073 H   0  0  0  0  0  0  0  0  0  0  0  0
    5.9438    2.0789   -1.7221 H   0  0  0  0  0  0  0  0  0  0  0  0
  1  2  1  0
  2  3  1  0
  3  4  1  0
  4  5  2  0
  5  6  1  0
  6  7  2  0
  7  8  1  0
  7  9  1  0
  9 10  2  0
  2 11  1  0
 11 12  2  0
 11 13  1  0
 13 14  1  0
 14 15  2  0
 15 16  1  0
 16 17  2  0
 17 18  1  0
 18 19  1  0
 19 20  1  0
 17 21  1  0
 10  4  1  0
 21 14  1  0
 20 18  1  0
  1 22  1  0
  1 23  1  0
  1 24  1  0
  2 25  1  0
  5 26  1  0
  6 27  1  0
  9 28  1  0
 10 29  1  0
 13 30  1  0
 18 31  1  0
 19 32  1  0
 19 33  1  0
 20 34  1  0
 20 35  1  0
M  END
$$$$
