
     RDKit          3D

 51 53  0  0  0  0  0  0  0  0999 V2000
    7.3268   -3.0100   -0.6695 C   0  0  0  0  0  0  0  0  0  0  0  0
    7.1013   -1.7181   -1.2116 O   0  0  0  0  0  0  0  0  0  0  0  0
    6.1687   -0.9225   -0.5927 C   0  0  0  0  0  0  0  0  0  0  0  0
    5.5595   -1.2234    0.6308 C   0  0  0  0  0  0  0  0  0  0  0  0
    4.6288   -0.3446    1.1969 C   0  0  0  0  0  0  0  0  0  0  0  0
    4.3004    0.8523    0.5518 C   0  0  0  0  0  0  0  0  0  0  0  0
    3.3015    1.8072    1.1570 C   0  0  0  0  0  0  0  0  0  0  0  0
    1.9106    1.6749    0.5505 C   0  0  0  0  0  0  0  0  0  0  0  0
    1.6987    2.0023   -0.6138 O   0  0  0  0  0  0  0  0  0  0  0  0
    0.9739    1.1883    1.4500 N   0  0  0  0  0  0  0  0  0  0  0  0
   -0.3906    0.9227    1.2096 C   0  0  0  0  0  0  0  0  0  0  0  0
   -0.9994    1.0037   -0.0393 C   0  0  0  0  0  0  0  0  0  0  0  0
   -2.3627    0.7053   -0.1973 C   0  0  0  0  0  0  0  0  0  0  0  0
   -3.1408    0.3261    0.8942 C   0  0  0  0  0  0  0  0  0  0  0  0
   -4.5097   -0.0065    0.8174 N   0  0  0  0  0  0  0  0  0  0  0  0
   -5.3223    0.0429   -0.3015 C   0  0  0  0  0  0  0  0  0  0  0  0
   -5.0202    0.4724   -1.4091 O   0  0  0  0  0  0  0  0  0  0  0  0
   -6.7162   -0.4448   -0.0894 C   0  0  0  0  0  0  0  0  0  0  0  0
   -7.7489    0.1505   -0.8249 C   0  0  0  0  0  0  0  0  0  0  0  0
   -9.0678   -0.2730   -0.6562 C   0  0  0  0  0  0  0  0  0  0  0  0
   -9.3525   -1.2986    0.2427 C   0  0  0  0  0  0  0  0  0  0  0  0
  -11.1357   -1.8710    0.4756 Br  0  0  0  0  0  0  0  0  0  0  0  0
   -8.3312   -1.9133    0.9650 C   0  0  0  0  0  0  0  0  0  0  0  0
   -7.0105   -1.4916    0.7963 C   0  0  0  0  0  0  0  0  0  0  0  0
   -2.5313    0.2484    2.1483 C   0  0  0  0  0  0  0  0  0  0  0  0
   -1.1695    0.5400    2.3036 C   0  0  0  0  0  0  0  0  0  0  0  0
    4.9035    1.1487   -0.6819 C   0  0  0  0  0  0  0  0  0  0  0  0
    5.8342    0.2734   -1.2587 C   0  0  0  0  0  0  0  0  0  0  0  0
    6.4726    0.4984   -2.4569 O   0  0  0  0  0  0  0  0  0  0  0  0
    6.0216    1.5958   -3.2386 C   0  0  0  0  0  0  0  0  0  0  0  0
    8.0343   -3.5273   -1.3230 H   0  0  0  0  0  0  0  0  0  0  0  0
    6.4027   -3.5963   -0.6460 H   0  0  0  0  0  0  0  0  0  0  0  0
    7.7829   -2.9484    0.3225 H   0  0  0  0  0  0  0  0  0  0  0  0
    5.7925   -2.1335    1.1744 H   0  0  0  0  0  0  0  0  0  0  0  0
    4.1714   -0.6050    2.1501 H   0  0  0  0  0  0  0  0  0  0  0  0
    3.6344    2.8408    1.0098 H   0  0  0  0  0  0  0  0  0  0  0  0
    3.2691    1.6680    2.2418 H   0  0  0  0  0  0  0  0  0  0  0  0
    1.2885    1.0351    2.3932 H   0  0  0  0  0  0  0  0  0  0  0  0
   -0.4417    1.2770   -0.9280 H   0  0  0  0  0  0  0  0  0  0  0  0
   -2.7778    0.7721   -1.1971 H   0  0  0  0  0  0  0  0  0  0  0  0
   -4.9476   -0.2499    1.6949 H   0  0  0  0  0  0  0  0  0  0  0  0
   -7.5257    0.9464   -1.5328 H   0  0  0  0  0  0  0  0  0  0  0  0
   -9.8592    0.2000   -1.2310 H   0  0  0  0  0  0  0  0  0  0  0  0
   -8.5521   -2.7259    1.6516 H   0  0  0  0  0  0  0  0  0  0  0  0
   -6.2244   -2.0098    1.3370 H   0  0  0  0  0  0  0  0  0  0  0  0
   -3.1012   -0.0464    3.0220 H   0  0  0  0  0  0  0  0  0  0  0  0
   -0.7338    0.4584    3.2928 H   0  0  0  0  0  0  0  0  0  0  0  0
    4.6260    2.0754   -1.1795 H   0  0  0  0  0  0  0  0  0  0  0  0
    4.9522    1.5125   -3.4669 H   0  0  0  0  0  0  0  0  0  0  0  0
    6.5666    1.5736   -4.1875 H   0  0  0  0  0  0  0  0  0  0  0  0
    6.2502    2.5474   -2.7472 H   0  0  0  0  0  0  0  0  0  0  0  0
  1  2  1  0
  2  3  1  0
  3  4  2  0
  4  5  1  0
  5  6  2  0
  6  7  1  0
  7  8  1  0
  8  9  2  0
  8 10  1  0
 10 11  1  0
 11 12  2  0
 12 13  1  0
 13 14  2  0
 14 15  1  0
 15 16  1  0
 16 17  2  0
 16 18  1  0
 18 19  2  0
 19 20  1  0
 20 21  2  0
 21 22  1  0
 21 23  1  0
 23 24  2  0
 14 25  1  0
 25 26  2  0
  6 27  1  0
 27 28  2  0
 28 29  1  0
 29 30  1  0
 28  3  1  0
 26 11  1  0
 24 18  1  0
  1 31  1  0
  1 32  1  0
  1 33  1  0
  4 34  1  0
  5 35  1  0
  7 36  1  0
  7 37  1  0
 10 38  1  0
 12 39  1  0
 13 40  1  0
 15 41  1  0
 19 42  1  0
 20 43  1  0
 23 44  1  0
 24 45  1  0
 25 46  1  0
 26 47  1  0
 27 48  1  0
 30 49  1  0
 30 50  1  0
 30 51  1  0
M  END
$$$$
