
     RDKit          3D

 50 52  0  0  0  0  0  0  0  0999 V2000
    1.7299    1.5995   -2.6827 C   0  0  0  0  0  0  0  0  0  0  0  0
    2.3240    0.2014   -2.6499 C   0  0  0  0  0  0  0  0  0  0  0  0
    2.7706   -0.1693   -1.2993 N   0  0  0  0  0  4  0  0  0  0  0  0
    1.9836   -0.7884   -0.4280 C   0  0  0  0  0  0  0  0  0  0  0  0
    0.6496   -1.2090   -0.6530 C   0  0  0  0  0  0  0  0  0  0  0  0
   -0.3699   -0.7294    0.0773 C   0  0  0  0  0  0  0  0  0  0  0  0
   -1.7430   -1.1062   -0.1885 C   0  0  0  0  0  0  0  0  0  0  0  0
   -2.7915   -0.5729    0.4580 C   0  0  0  0  0  0  0  0  0  0  0  0
   -4.1498   -0.8401    0.2269 N   0  0  0  0  0  0  0  0  0  0  0  0
   -4.5734   -1.5274   -0.9337 C   0  0  0  0  0  0  0  0  0  0  0  0
   -5.8957   -2.2660   -0.8545 C   0  0  0  0  0  0  0  0  0  0  0  0
   -3.9135   -1.6102   -1.9751 O   0  0  0  0  0  0  0  0  0  0  0  0
   -5.1198   -0.2684    1.1292 C   0  0  0  0  0  0  0  0  0  0  0  0
   -6.2794    0.3557    0.6447 C   0  0  0  0  0  0  0  0  0  0  0  0
   -7.2019    0.9304    1.5236 C   0  0  0  0  0  0  0  0  0  0  0  0
   -6.9747    0.8942    2.8971 C   0  0  0  0  0  0  0  0  0  0  0  0
   -5.8222    0.2905    3.3939 C   0  0  0  0  0  0  0  0  0  0  0  0
   -4.8967   -0.2807    2.5159 C   0  0  0  0  0  0  0  0  0  0  0  0
    2.8034   -1.0587    1.0548 S   0  0  0  0  0  0  0  0  0  0  0  0
    4.2349   -0.2983    0.4832 C   0  0  0  0  0  0  0  0  0  0  0  0
    5.4505   -0.0979    1.1544 C   0  0  0  0  0  0  0  0  0  0  0  0
    6.4893    0.5621    0.4886 C   0  0  0  0  0  0  0  0  0  0  0  0
    7.6254    0.7026    1.2336 O   0  0  0  0  0  0  0  0  0  0  0  0
    8.7363    1.3557    0.6278 C   0  0  0  0  0  0  0  0  0  0  0  0
    6.3077    1.0113   -0.8159 C   0  0  0  0  0  0  0  0  0  0  0  0
    5.0899    0.8065   -1.4863 C   0  0  0  0  0  0  0  0  0  0  0  0
    4.0417    0.1362   -0.8244 C   0  0  0  0  0  0  0  0  0  0  0  0
    1.3998    1.8500   -3.6956 H   0  0  0  0  0  0  0  0  0  0  0  0
    0.8683    1.6765   -2.0116 H   0  0  0  0  0  0  0  0  0  0  0  0
    2.4652    2.3460   -2.3668 H   0  0  0  0  0  0  0  0  0  0  0  0
    1.5907   -0.5252   -3.0162 H   0  0  0  0  0  0  0  0  0  0  0  0
    3.1689    0.1323   -3.3438 H   0  0  0  0  0  0  0  0  0  0  0  0
    0.4601   -1.9078   -1.4648 H   0  0  0  0  0  0  0  0  0  0  0  0
   -0.2052   -0.0151    0.8832 H   0  0  0  0  0  0  0  0  0  0  0  0
   -1.8963   -1.8560   -0.9607 H   0  0  0  0  0  0  0  0  0  0  0  0
   -2.6045    0.1553    1.2449 H   0  0  0  0  0  0  0  0  0  0  0  0
   -6.1837   -2.4943    0.1750 H   0  0  0  0  0  0  0  0  0  0  0  0
   -6.6780   -1.6895   -1.3542 H   0  0  0  0  0  0  0  0  0  0  0  0
   -5.7854   -3.2260   -1.3718 H   0  0  0  0  0  0  0  0  0  0  0  0
   -6.4650    0.4463   -0.4230 H   0  0  0  0  0  0  0  0  0  0  0  0
   -8.0940    1.4165    1.1344 H   0  0  0  0  0  0  0  0  0  0  0  0
   -7.6945    1.3399    3.5804 H   0  0  0  0  0  0  0  0  0  0  0  0
   -5.6471    0.2594    4.4672 H   0  0  0  0  0  0  0  0  0  0  0  0
   -4.0202   -0.7680    2.9360 H   0  0  0  0  0  0  0  0  0  0  0  0
    5.5920   -0.4452    2.1761 H   0  0  0  0  0  0  0  0  0  0  0  0
    9.0825    0.8069   -0.2551 H   0  0  0  0  0  0  0  0  0  0  0  0
    8.4927    2.3945    0.3789 H   0  0  0  0  0  0  0  0  0  0  0  0
    9.5537    1.3682    1.3550 H   0  0  0  0  0  0  0  0  0  0  0  0
    7.1006    1.5323   -1.3481 H   0  0  0  0  0  0  0  0  0  0  0  0
    4.9940    1.1797   -2.5027 H   0  0  0  0  0  0  0  0  0  0  0  0
  1  2  1  0
  2  3  1  0
  3  4  2  0
  4  5  1  0
  5  6  2  3
  6  7  1  0
  7  8  2  3
  8  9  1  0
  9 10  1  0
 10 11  1  0
 10 12  2  0
  9 13  1  0
 13 14  2  0
 14 15  1  0
 15 16  2  0
 16 17  1  0
 17 18  2  0
  4 19  1  0
 19 20  1  0
 20 21  2  0
 21 22  1  0
 22 23  1  0
 23 24  1  0
 22 25  2  0
 25 26  1  0
 26 27  2  0
 27  3  1  0
 18 13  1  0
 27 20  1  0
  1 28  1  0
  1 29  1  0
  1 30  1  0
  2 31  1  0
  2 32  1  0
  5 33  1  0
  6 34  1  0
  7 35  1  0
  8 36  1  0
 11 37  1  0
 11 38  1  0
 11 39  1  0
 14 40  1  0
 15 41  1  0
 16 42  1  0
 17 43  1  0
 18 44  1  0
 21 45  1  0
 24 46  1  0
 24 47  1  0
 24 48  1  0
 25 49  1  0
 26 50  1  0
M  CHG  1   3   1
M  END
$$$$
