
     RDKit          3D

 51 53  0  0  0  0  0  0  0  0999 V2000
    6.4351   -0.8784   -3.3655 C   0  0  0  0  0  0  0  0  0  0  0  0
    6.1944    0.1874   -2.4702 O   0  0  0  0  0  0  0  0  0  0  0  0
    5.5629   -0.1069   -1.2835 C   0  0  0  0  0  0  0  0  0  0  0  0
    5.0900   -1.3775   -0.9393 C   0  0  0  0  0  0  0  0  0  0  0  0
    4.4360   -1.5819    0.2786 C   0  0  0  0  0  0  0  0  0  0  0  0
    4.2450   -0.5200    1.1735 C   0  0  0  0  0  0  0  0  0  0  0  0
    3.5010   -0.7529    2.4675 C   0  0  0  0  0  0  0  0  0  0  0  0
    2.0438   -1.1430    2.2540 C   0  0  0  0  0  0  0  0  0  0  0  0
    1.6346   -2.2433    2.6136 O   0  0  0  0  0  0  0  0  0  0  0  0
    1.2990   -0.1368    1.6565 N   0  0  0  0  0  0  0  0  0  0  0  0
   -0.0715   -0.1566    1.3297 C   0  0  0  0  0  0  0  0  0  0  0  0
   -0.9318   -1.2149    1.6179 C   0  0  0  0  0  0  0  0  0  0  0  0
   -2.2876   -1.1552    1.2590 C   0  0  0  0  0  0  0  0  0  0  0  0
   -2.8053   -0.0338    0.6105 C   0  0  0  0  0  0  0  0  0  0  0  0
   -4.1528    0.1012    0.2161 N   0  0  0  0  0  0  0  0  0  0  0  0
   -5.1890   -0.7852    0.4520 C   0  0  0  0  0  0  0  0  0  0  0  0
   -5.1362   -1.8251    1.0963 O   0  0  0  0  0  0  0  0  0  0  0  0
   -6.5075   -0.3820   -0.1191 C   0  0  0  0  0  0  0  0  0  0  0  0
   -6.6125    0.2930   -1.3401 C   0  0  0  0  0  0  0  0  0  0  0  0
   -7.8708    0.6482   -1.8366 C   0  0  0  0  0  0  0  0  0  0  0  0
   -9.0195    0.3194   -1.1201 C   0  0  0  0  0  0  0  0  0  0  0  0
  -10.7191    0.7981   -1.7969 Br  0  0  0  0  0  0  0  0  0  0  0  0
   -8.9264   -0.3675    0.0865 C   0  0  0  0  0  0  0  0  0  0  0  0
   -7.6695   -0.7207    0.5852 C   0  0  0  0  0  0  0  0  0  0  0  0
   -1.9415    1.0280    0.3186 C   0  0  0  0  0  0  0  0  0  0  0  0
   -0.5888    0.9671    0.6758 C   0  0  0  0  0  0  0  0  0  0  0  0
    4.7340    0.7550    0.8398 C   0  0  0  0  0  0  0  0  0  0  0  0
    5.3845    0.9700   -0.3844 C   0  0  0  0  0  0  0  0  0  0  0  0
    5.8761    2.1822   -0.7987 O   0  0  0  0  0  0  0  0  0  0  0  0
    5.6551    3.3066    0.0348 C   0  0  0  0  0  0  0  0  0  0  0  0
    7.0769   -1.6337   -2.9139 H   0  0  0  0  0  0  0  0  0  0  0  0
    6.9611   -0.4731   -4.2348 H   0  0  0  0  0  0  0  0  0  0  0  0
    5.4971   -1.3193   -3.7148 H   0  0  0  0  0  0  0  0  0  0  0  0
    5.2039   -2.2353   -1.6066 H   0  0  0  0  0  0  0  0  0  0  0  0
    4.0663   -2.5818    0.5176 H   0  0  0  0  0  0  0  0  0  0  0  0
    4.0011   -1.5529    3.0256 H   0  0  0  0  0  0  0  0  0  0  0  0
    3.5291    0.1368    3.1097 H   0  0  0  0  0  0  0  0  0  0  0  0
    1.8085    0.6815    1.3710 H   0  0  0  0  0  0  0  0  0  0  0  0
   -0.5877   -2.1137    2.1234 H   0  0  0  0  0  0  0  0  0  0  0  0
   -2.9091   -2.0134    1.5036 H   0  0  0  0  0  0  0  0  0  0  0  0
   -4.3868    0.9743   -0.2357 H   0  0  0  0  0  0  0  0  0  0  0  0
   -5.7322    0.5210   -1.9319 H   0  0  0  0  0  0  0  0  0  0  0  0
   -7.9457    1.1682   -2.7853 H   0  0  0  0  0  0  0  0  0  0  0  0
   -9.8200   -0.6365    0.6430 H   0  0  0  0  0  0  0  0  0  0  0  0
   -7.5978   -1.2626    1.5249 H   0  0  0  0  0  0  0  0  0  0  0  0
   -2.3036    1.9185   -0.1878 H   0  0  0  0  0  0  0  0  0  0  0  0
    0.0500    1.8126    0.4306 H   0  0  0  0  0  0  0  0  0  0  0  0
    4.5958    1.5690    1.5465 H   0  0  0  0  0  0  0  0  0  0  0  0
    4.5858    3.4908    0.1806 H   0  0  0  0  0  0  0  0  0  0  0  0
    6.0794    4.1794   -0.4717 H   0  0  0  0  0  0  0  0  0  0  0  0
    6.1662    3.1957    0.9935 H   0  0  0  0  0  0  0  0  0  0  0  0
  1  2  1  0
  2  3  1  0
  3  4  2  0
  4  5  1  0
  5  6  2  0
  6  7  1  0
  7  8  1  0
  8  9  2  0
  8 10  1  0
 10 11  1  0
 11 12  2  0
 12 13  1  0
 13 14  2  0
 14 15  1  0
 15 16  1  0
 16 17  2  0
 16 18  1  0
 18 19  2  0
 19 20  1  0
 20 21  2  0
 21 22  1  0
 21 23  1  0
 23 24  2  0
 14 25  1  0
 25 26  2  0
  6 27  1  0
 27 28  2  0
 28 29  1  0
 29 30  1  0
 28  3  1  0
 26 11  1  0
 24 18  1  0
  1 31  1  0
  1 32  1  0
  1 33  1  0
  4 34  1  0
  5 35  1  0
  7 36  1  0
  7 37  1  0
 10 38  1  0
 12 39  1  0
 13 40  1  0
 15 41  1  0
 19 42  1  0
 20 43  1  0
 23 44  1  0
 24 45  1  0
 25 46  1  0
 26 47  1  0
 27 48  1  0
 30 49  1  0
 30 50  1  0
 30 51  1  0
M  END
$$$$
