
     RDKit          3D

 30 31  0  0  0  0  0  0  0  0999 V2000
   -3.0305    0.8135   -0.7509 C   0  0  0  0  0  0  0  0  0  0  0  0
   -3.3098   -0.2689    0.2963 C   0  0  0  0  0  0  0  0  0  0  0  0
   -4.8033   -0.5996    0.2909 C   0  0  0  0  0  0  0  0  0  0  0  0
   -2.6324   -1.4888   -0.0397 O   0  0  0  0  0  0  0  0  0  0  0  0
   -1.3379   -1.6169    0.2823 C   0  0  0  0  0  0  0  0  0  0  0  0
   -0.6399   -2.5733   -0.0115 O   0  0  0  0  0  0  0  0  0  0  0  0
   -0.8010   -0.4549    1.0711 C   0  0  0  0  0  0  0  0  0  0  0  0
    0.3815    0.0671    0.9053 N   0  0  0  0  0  0  0  0  0  0  0  0
    1.1938   -0.5139   -0.0245 N   0  0  0  0  0  0  0  0  0  0  0  0
    2.5170   -0.0308   -0.1447 C   0  0  0  0  0  0  0  0  0  0  0  0
    3.4312   -0.7357   -0.9412 C   0  0  0  0  0  0  0  0  0  0  0  0
    4.7303   -0.2588   -1.1389 C   0  0  0  0  0  0  0  0  0  0  0  0
    5.1268    0.9435   -0.5589 C   0  0  0  0  0  0  0  0  0  0  0  0
    4.2222    1.6718    0.2096 C   0  0  0  0  0  0  0  0  0  0  0  0
    2.9237    1.1921    0.4044 C   0  0  0  0  0  0  0  0  0  0  0  0
   -1.7468    0.1763    2.0553 C   0  0  0  0  0  0  0  0  0  0  0  0
   -1.3876    0.5761    3.1473 O   0  0  0  0  0  0  0  0  0  0  0  0
   -3.0146    0.2115    1.6155 O   0  0  0  0  0  0  0  0  0  0  0  0
   -3.2987    0.4684   -1.7552 H   0  0  0  0  0  0  0  0  0  0  0  0
   -1.9705    1.0840   -0.7829 H   0  0  0  0  0  0  0  0  0  0  0  0
   -3.5838    1.7315   -0.5255 H   0  0  0  0  0  0  0  0  0  0  0  0
   -5.1247   -0.9864   -0.6822 H   0  0  0  0  0  0  0  0  0  0  0  0
   -5.0247   -1.3740    1.0350 H   0  0  0  0  0  0  0  0  0  0  0  0
   -5.4088    0.2764    0.5476 H   0  0  0  0  0  0  0  0  0  0  0  0
    1.1371   -1.5309   -0.1656 H   0  0  0  0  0  0  0  0  0  0  0  0
    3.1374   -1.6680   -1.4167 H   0  0  0  0  0  0  0  0  0  0  0  0
    5.4286   -0.8241   -1.7502 H   0  0  0  0  0  0  0  0  0  0  0  0
    6.1358    1.3167   -0.7115 H   0  0  0  0  0  0  0  0  0  0  0  0
    4.5211    2.6161    0.6564 H   0  0  0  0  0  0  0  0  0  0  0  0
    2.2284    1.7801    0.9980 H   0  0  0  0  0  0  0  0  0  0  0  0
  1  2  1  0
  2  3  1  0
  2  4  1  0
  4  5  1  0
  5  6  2  0
  5  7  1  0
  7  8  2  3
  8  9  1  0
  9 10  1  0
 10 11  2  0
 11 12  1  0
 12 13  2  0
 13 14  1  0
 14 15  2  0
  7 16  1  0
 16 17  2  0
 16 18  1  0
 18  2  1  0
 15 10  1  0
  1 19  1  0
  1 20  1  0
  1 21  1  0
  3 22  1  0
  3 23  1  0
  3 24  1  0
  9 25  1  0
 11 26  1  0
 12 27  1  0
 13 28  1  0
 14 29  1  0
 15 30  1  0
M  END
$$$$
