
     RDKit          3D

 57 59  0  0  0  0  0  0  0  0999 V2000
   -8.7221   -1.6795   -1.2734 C   0  0  0  0  0  0  0  0  0  0  0  0
   -7.8246   -0.8636   -0.5348 O   0  0  0  0  0  0  0  0  0  0  0  0
   -6.4806   -1.1097   -0.6698 C   0  0  0  0  0  0  0  0  0  0  0  0
   -5.9327   -2.0148   -1.5881 C   0  0  0  0  0  0  0  0  0  0  0  0
   -4.5505   -2.1984   -1.6591 C   0  0  0  0  0  0  0  0  0  0  0  0
   -3.7171   -1.4612   -0.8175 C   0  0  0  0  0  0  0  0  0  0  0  0
   -1.9565   -1.6773   -0.8919 S   0  0  0  0  0  6  0  0  0  0  0  0
   -1.6615   -2.7339   -1.8358 O   0  0  0  0  0  0  0  0  0  0  0  0
   -1.4718   -1.7199    0.4690 O   0  0  0  0  0  0  0  0  0  0  0  0
   -1.4471   -0.2248   -1.5853 N   0  0  0  0  0  0  0  0  0  0  0  0
   -1.8588    0.0421   -2.9802 C   0  0  0  0  0  0  0  0  0  0  0  0
   -0.5523    0.1025   -3.7388 C   0  0  0  0  0  0  0  0  0  0  0  0
    0.3621    0.6322   -2.7781 O   0  0  0  0  0  0  0  0  0  0  0  0
    0.0240   -0.0352   -1.5426 C   0  0  0  0  0  0  0  0  0  0  0  0
    0.4305    0.8674   -0.3616 C   0  0  0  0  0  0  0  0  0  0  0  0
    1.8447    1.1993   -0.3433 N   0  0  0  0  0  0  0  0  0  0  0  0
    2.8032    0.2678   -0.0240 C   0  0  0  0  0  0  0  0  0  0  0  0
    2.5934   -0.8686    0.3747 O   0  0  0  0  0  0  0  0  0  0  0  0
    4.2523    0.7666   -0.2258 C   0  0  0  0  0  0  0  0  0  0  0  0
    4.4609    1.8649   -0.7211 O   0  0  0  0  0  0  0  0  0  0  0  0
    5.2010   -0.1271    0.2115 N   0  0  0  0  0  0  0  0  0  0  0  0
    6.5979    0.2085    0.2865 C   0  0  0  0  0  0  0  0  0  0  0  0
    6.9464    0.7556    1.6482 C   0  0  0  0  0  0  0  0  0  0  0  0
    6.8233    2.1310    1.9088 C   0  0  0  0  0  0  0  0  0  0  0  0
    7.1246    2.6404    3.1722 C   0  0  0  0  0  0  0  0  0  0  0  0
    7.5411    1.7761    4.1777 C   0  0  0  0  0  0  0  0  0  0  0  0
    7.8293    2.2663    5.3911 F   0  0  0  0  0  0  0  0  0  0  0  0
    7.6567    0.4101    3.9456 C   0  0  0  0  0  0  0  0  0  0  0  0
    7.3576   -0.1025    2.6818 C   0  0  0  0  0  0  0  0  0  0  0  0
   -4.2459   -0.5594    0.1120 C   0  0  0  0  0  0  0  0  0  0  0  0
   -5.6295   -0.3811    0.1910 C   0  0  0  0  0  0  0  0  0  0  0  0
   -6.2467    0.4836    1.0604 O   0  0  0  0  0  0  0  0  0  0  0  0
   -5.4552    1.0526    2.0945 C   0  0  0  0  0  0  0  0  0  0  0  0
   -9.7410   -1.4007   -0.9871 H   0  0  0  0  0  0  0  0  0  0  0  0
   -8.5883   -2.7401   -1.0328 H   0  0  0  0  0  0  0  0  0  0  0  0
   -8.6187   -1.5023   -2.3486 H   0  0  0  0  0  0  0  0  0  0  0  0
   -6.5575   -2.5948   -2.2592 H   0  0  0  0  0  0  0  0  0  0  0  0
   -4.1393   -2.9131   -2.3696 H   0  0  0  0  0  0  0  0  0  0  0  0
   -2.5398   -0.6975   -3.4071 H   0  0  0  0  0  0  0  0  0  0  0  0
   -2.3610    1.0158   -2.9938 H   0  0  0  0  0  0  0  0  0  0  0  0
   -0.5996    0.7512   -4.6176 H   0  0  0  0  0  0  0  0  0  0  0  0
   -0.2093   -0.8928   -4.0426 H   0  0  0  0  0  0  0  0  0  0  0  0
    0.5660   -0.9883   -1.5284 H   0  0  0  0  0  0  0  0  0  0  0  0
    0.1791    0.3900    0.5912 H   0  0  0  0  0  0  0  0  0  0  0  0
   -0.1038    1.8232   -0.4150 H   0  0  0  0  0  0  0  0  0  0  0  0
    2.1712    2.0280   -0.8349 H   0  0  0  0  0  0  0  0  0  0  0  0
    4.8525   -0.9493    0.6974 H   0  0  0  0  0  0  0  0  0  0  0  0
    6.8552    0.9348   -0.4938 H   0  0  0  0  0  0  0  0  0  0  0  0
    7.1704   -0.7046    0.0849 H   0  0  0  0  0  0  0  0  0  0  0  0
    6.4858    2.8087    1.1261 H   0  0  0  0  0  0  0  0  0  0  0  0
    7.0338    3.7024    3.3779 H   0  0  0  0  0  0  0  0  0  0  0  0
    7.9775   -0.2444    4.7503 H   0  0  0  0  0  0  0  0  0  0  0  0
    7.4472   -1.1721    2.5066 H   0  0  0  0  0  0  0  0  0  0  0  0
   -3.5629   -0.0112    0.7545 H   0  0  0  0  0  0  0  0  0  0  0  0
   -4.7281    1.7648    1.6889 H   0  0  0  0  0  0  0  0  0  0  0  0
   -4.9596    0.2783    2.6914 H   0  0  0  0  0  0  0  0  0  0  0  0
   -6.1261    1.6043    2.7613 H   0  0  0  0  0  0  0  0  0  0  0  0
  1  2  1  0
  2  3  1  0
  3  4  2  0
  4  5  1  0
  5  6  2  0
  6  7  1  0
  7  8  2  0
  7  9  2  0
  7 10  1  0
 10 11  1  0
 11 12  1  0
 12 13  1  0
 13 14  1  0
 14 15  1  0
 15 16  1  0
 16 17  1  0
 17 18  2  0
 17 19  1  0
 19 20  2  0
 19 21  1  0
 21 22  1  0
 22 23  1  0
 23 24  2  0
 24 25  1  0
 25 26  2  0
 26 27  1  0
 26 28  1  0
 28 29  2  0
  6 30  1  0
 30 31  2  0
 31 32  1  0
 32 33  1  0
 31  3  1  0
 14 10  1  0
 29 23  1  0
  1 34  1  0
  1 35  1  0
  1 36  1  0
  4 37  1  0
  5 38  1  0
 11 39  1  0
 11 40  1  0
 12 41  1  0
 12 42  1  0
 14 43  1  0
 15 44  1  0
 15 45  1  0
 16 46  1  0
 21 47  1  0
 22 48  1  0
 22 49  1  0
 24 50  1  0
 25 51  1  0
 28 52  1  0
 29 53  1  0
 30 54  1  0
 33 55  1  0
 33 56  1  0
 33 57  1  0
M  END
$$$$
