
     RDKit          3D

 37 40  0  0  0  0  0  0  0  0999 V2000
   -2.1120    0.9015    2.3143 C   0  0  0  0  0  0  0  0  0  0  0  0
   -2.8977    1.0149    1.0203 C   0  0  0  0  0  0  0  0  0  0  0  0
   -2.8155   -0.2436    0.3476 O   0  0  0  0  0  0  0  0  0  0  0  0
   -3.1328   -0.2189   -0.9891 C   0  0  0  0  0  0  0  0  0  0  0  0
   -4.0823    0.6468   -1.5413 C   0  0  0  0  0  0  0  0  0  0  0  0
   -4.3741    0.5932   -2.9064 C   0  0  0  0  0  0  0  0  0  0  0  0
   -3.7299   -0.3315   -3.7246 C   0  0  0  0  0  0  0  0  0  0  0  0
   -2.7923   -1.2091   -3.1802 C   0  0  0  0  0  0  0  0  0  0  0  0
   -2.4854   -1.1584   -1.8137 C   0  0  0  0  0  0  0  0  0  0  0  0
   -1.5069   -2.1170   -1.2837 C   0  0  0  0  0  0  0  0  0  0  0  0
   -0.3068   -1.8047   -0.7732 C   0  0  0  0  0  0  0  0  0  0  0  0
    0.7478   -3.0431   -0.0871 S   0  0  0  0  0  0  0  0  0  0  0  0
    1.8756   -1.8315    0.3508 C   0  0  0  0  0  0  0  0  0  0  0  0
    3.0295   -1.8154    0.9514 N   0  0  0  0  0  0  0  0  0  0  0  0
    3.3389   -0.4644    0.9197 C   0  0  0  0  0  0  0  0  0  0  0  0
    4.6635    0.1014    1.5297 C   0  0  0  0  0  0  0  0  0  0  0  0
    5.0475    1.4292    1.5378 C   0  0  0  0  0  0  0  0  0  0  0  0
    6.3052    1.4869    2.1860 C   0  0  0  0  0  0  0  0  0  0  0  0
    6.6124    0.1933    2.5344 C   0  0  0  0  0  0  0  0  0  0  0  0
    5.6263   -0.6529    2.1420 O   0  0  0  0  0  0  0  0  0  0  0  0
    2.4182    0.3232    0.3241 N   0  0  0  0  0  0  0  0  0  0  0  0
    1.4973   -0.5947   -0.0232 N   0  0  0  0  0  0  0  0  0  0  0  0
    0.2990   -0.4326   -0.6860 C   0  0  0  0  0  0  0  0  0  0  0  0
   -0.0896    0.6446   -1.0968 O   0  0  0  0  0  0  0  0  0  0  0  0
   -2.1559    1.8367    2.8797 H   0  0  0  0  0  0  0  0  0  0  0  0
   -1.0634    0.6615    2.1095 H   0  0  0  0  0  0  0  0  0  0  0  0
   -2.5084    0.0928    2.9370 H   0  0  0  0  0  0  0  0  0  0  0  0
   -3.9435    1.2419    1.2539 H   0  0  0  0  0  0  0  0  0  0  0  0
   -2.4673    1.8184    0.4105 H   0  0  0  0  0  0  0  0  0  0  0  0
   -4.6195    1.3628   -0.9282 H   0  0  0  0  0  0  0  0  0  0  0  0
   -5.1103    1.2721   -3.3298 H   0  0  0  0  0  0  0  0  0  0  0  0
   -3.9604   -0.3716   -4.7861 H   0  0  0  0  0  0  0  0  0  0  0  0
   -2.3016   -1.9286   -3.8314 H   0  0  0  0  0  0  0  0  0  0  0  0
   -1.8462   -3.1506   -1.3049 H   0  0  0  0  0  0  0  0  0  0  0  0
    4.4797    2.2508    1.1227 H   0  0  0  0  0  0  0  0  0  0  0  0
    6.9114    2.3615    2.3757 H   0  0  0  0  0  0  0  0  0  0  0  0
    7.4496   -0.2690    3.0387 H   0  0  0  0  0  0  0  0  0  0  0  0
  1  2  1  0
  2  3  1  0
  3  4  1  0
  4  5  2  0
  5  6  1  0
  6  7  2  0
  7  8  1  0
  8  9  2  0
  9 10  1  0
 10 11  2  3
 11 12  1  0
 12 13  1  0
 13 14  2  0
 14 15  1  0
 15 16  1  0
 16 17  2  0
 17 18  1  0
 18 19  2  0
 19 20  1  0
 15 21  2  0
 21 22  1  0
 22 23  1  0
 23 24  2  0
  9  4  1  0
 23 11  1  0
 22 13  1  0
 20 16  1  0
  1 25  1  0
  1 26  1  0
  1 27  1  0
  2 28  1  0
  2 29  1  0
  5 30  1  0
  6 31  1  0
  7 32  1  0
  8 33  1  0
 10 34  1  0
 17 35  1  0
 18 36  1  0
 19 37  1  0
M  END
$$$$
