
     RDKit          3D

 63 66  0  0  0  0  0  0  0  0999 V2000
    0.5594   -2.7783   -0.7027 C   0  0  0  0  0  0  0  0  0  0  0  0
    1.2270   -1.9362    0.3461 C   0  0  0  0  0  0  0  0  0  0  0  0
    1.2803   -2.3924    1.5661 N   0  0  0  0  0  0  0  0  0  0  0  0
    1.9128   -1.6711    2.5825 N   0  0  0  0  0  0  0  0  0  0  0  0
    1.8820   -2.2878    3.9077 C   0  0  0  0  0  0  0  0  0  0  0  0
    0.8910   -1.6115    4.8450 C   0  0  0  0  0  0  0  0  0  0  0  0
   -0.5325   -1.9030    4.4307 C   0  0  0  0  0  0  0  0  0  0  0  0
   -0.9674   -3.0470    4.3271 O   0  0  0  0  0  0  0  0  0  0  0  0
   -1.3007   -0.7730    4.2467 N   0  0  0  0  0  0  0  0  0  0  0  0
   -2.6679   -0.8486    3.7854 C   0  0  0  0  0  0  0  0  0  0  0  0
   -2.7589   -0.5080    2.3208 C   0  0  0  0  0  0  0  0  0  0  0  0
   -2.9433    0.8161    1.9037 C   0  0  0  0  0  0  0  0  0  0  0  0
   -3.0161    1.1202    0.5415 C   0  0  0  0  0  0  0  0  0  0  0  0
   -2.9073    0.1147   -0.4237 C   0  0  0  0  0  0  0  0  0  0  0  0
   -3.0213    0.5562   -1.7101 O   0  0  0  0  0  0  0  0  0  0  0  0
   -2.7133   -0.3354   -2.7869 C   0  0  0  0  0  0  0  0  0  0  0  0
   -3.9711   -1.0783   -3.2318 C   0  0  0  0  0  0  0  0  0  0  0  0
   -2.1910    0.5336   -3.9282 C   0  0  0  0  0  0  0  0  0  0  0  0
   -2.7235   -1.2046   -0.0135 C   0  0  0  0  0  0  0  0  0  0  0  0
   -2.6369   -1.5123    1.3501 C   0  0  0  0  0  0  0  0  0  0  0  0
    2.5535   -0.4259    2.4143 C   0  0  0  0  0  0  0  0  0  0  0  0
    3.1028    0.1782    3.3322 O   0  0  0  0  0  0  0  0  0  0  0  0
    2.4782    0.0663    1.0448 C   0  0  0  0  0  0  0  0  0  0  0  0
    3.0098    1.1987    0.5774 N   0  0  0  0  0  0  0  0  0  0  0  0
    2.5957    1.2718   -0.7160 N   0  0  0  0  0  0  0  0  0  0  0  0
    2.8226    2.4782   -1.4411 C   0  0  0  0  0  0  0  0  0  0  0  0
    3.8145    3.3632   -0.9894 C   0  0  0  0  0  0  0  0  0  0  0  0
    4.0725    4.5500   -1.6783 C   0  0  0  0  0  0  0  0  0  0  0  0
    3.3345    4.8715   -2.8118 C   0  0  0  0  0  0  0  0  0  0  0  0
    2.3200    4.0180   -3.2447 C   0  0  0  0  0  0  0  0  0  0  0  0
    2.0650    2.8233   -2.5661 C   0  0  0  0  0  0  0  0  0  0  0  0
    1.9940    0.0743   -1.1193 C   0  0  0  0  0  0  0  0  0  0  0  0
    1.6938   -0.2840   -2.5295 C   0  0  0  0  0  0  0  0  0  0  0  0
    1.8317   -0.6631    0.0407 C   0  0  0  0  0  0  0  0  0  0  0  0
   -0.0446   -3.5606   -0.2358 H   0  0  0  0  0  0  0  0  0  0  0  0
   -0.0890   -2.1671   -1.3315 H   0  0  0  0  0  0  0  0  0  0  0  0
    1.3226   -3.2568   -1.3228 H   0  0  0  0  0  0  0  0  0  0  0  0
    2.8898   -2.2025    4.3360 H   0  0  0  0  0  0  0  0  0  0  0  0
    1.6626   -3.3577    3.7973 H   0  0  0  0  0  0  0  0  0  0  0  0
    1.0133   -2.0076    5.8610 H   0  0  0  0  0  0  0  0  0  0  0  0
    1.0674   -0.5321    4.8964 H   0  0  0  0  0  0  0  0  0  0  0  0
   -0.8463    0.1293    4.2020 H   0  0  0  0  0  0  0  0  0  0  0  0
   -3.0914   -1.8414    3.9767 H   0  0  0  0  0  0  0  0  0  0  0  0
   -3.2526   -0.1324    4.3752 H   0  0  0  0  0  0  0  0  0  0  0  0
   -3.0416    1.6178    2.6308 H   0  0  0  0  0  0  0  0  0  0  0  0
   -3.1683    2.1540    0.2290 H   0  0  0  0  0  0  0  0  0  0  0  0
   -1.9140   -1.0345   -2.5221 H   0  0  0  0  0  0  0  0  0  0  0  0
   -3.7482   -1.7497   -4.0713 H   0  0  0  0  0  0  0  0  0  0  0  0
   -4.7449   -0.3666   -3.5473 H   0  0  0  0  0  0  0  0  0  0  0  0
   -4.4052   -1.6705   -2.4142 H   0  0  0  0  0  0  0  0  0  0  0  0
   -1.9246   -0.0692   -4.8077 H   0  0  0  0  0  0  0  0  0  0  0  0
   -1.3034    1.0931   -3.6070 H   0  0  0  0  0  0  0  0  0  0  0  0
   -2.9398    1.2796   -4.2234 H   0  0  0  0  0  0  0  0  0  0  0  0
   -2.6571   -2.0238   -0.7194 H   0  0  0  0  0  0  0  0  0  0  0  0
   -2.4780   -2.5474    1.6546 H   0  0  0  0  0  0  0  0  0  0  0  0
    4.4064    3.1296   -0.1068 H   0  0  0  0  0  0  0  0  0  0  0  0
    4.8588    5.2161   -1.3306 H   0  0  0  0  0  0  0  0  0  0  0  0
    3.5323    5.7961   -3.3467 H   0  0  0  0  0  0  0  0  0  0  0  0
    1.7186    4.2871   -4.1099 H   0  0  0  0  0  0  0  0  0  0  0  0
    1.2323    2.2202   -2.9087 H   0  0  0  0  0  0  0  0  0  0  0  0
    2.3792    0.1963   -3.2331 H   0  0  0  0  0  0  0  0  0  0  0  0
    0.6672   -0.0141   -2.7835 H   0  0  0  0  0  0  0  0  0  0  0  0
    1.8085   -1.3588   -2.6961 H   0  0  0  0  0  0  0  0  0  0  0  0
  1  2  1  0
  2  3  2  0
  3  4  1  0
  4  5  1  0
  5  6  1  0
  6  7  1  0
  7  8  2  0
  7  9  1  0
  9 10  1  0
 10 11  1  0
 11 12  2  0
 12 13  1  0
 13 14  2  0
 14 15  1  0
 15 16  1  0
 16 17  1  0
 16 18  1  0
 14 19  1  0
 19 20  2  0
  4 21  1  0
 21 22  2  0
 21 23  1  0
 23 24  2  0
 24 25  1  0
 25 26  1  0
 26 27  2  0
 27 28  1  0
 28 29  2  0
 29 30  1  0
 30 31  2  0
 25 32  1  0
 32 33  1  0
 32 34  2  0
 34  2  1  0
 20 11  1  0
 34 23  1  0
 31 26  1  0
  1 35  1  0
  1 36  1  0
  1 37  1  0
  5 38  1  0
  5 39  1  0
  6 40  1  0
  6 41  1  0
  9 42  1  0
 10 43  1  0
 10 44  1  0
 12 45  1  0
 13 46  1  0
 16 47  1  0
 17 48  1  0
 17 49  1  0
 17 50  1  0
 18 51  1  0
 18 52  1  0
 18 53  1  0
 19 54  1  0
 20 55  1  0
 27 56  1  0
 28 57  1  0
 29 58  1  0
 30 59  1  0
 31 60  1  0
 33 61  1  0
 33 62  1  0
 33 63  1  0
M  END
$$$$
