
     RDKit          3D

 36 38  0  0  0  0  0  0  0  0999 V2000
    6.1955    0.4468    1.1976 C   0  0  0  0  0  0  0  0  0  0  0  0
    5.5166   -0.2022    0.0083 C   0  0  0  0  0  0  0  0  0  0  0  0
    4.0672    0.1047    0.0411 N   0  0  0  0  0  4  0  0  0  0  0  0
    3.6015    1.2116   -0.5819 C   0  0  0  0  0  0  0  0  0  0  0  0
    2.2450    1.5157   -0.5680 C   0  0  0  0  0  0  0  0  0  0  0  0
    1.3525    0.6654    0.0813 C   0  0  0  0  0  0  0  0  0  0  0  0
   -0.0730    1.0093    0.1102 C   0  0  0  0  0  0  0  0  0  0  0  0
   -1.0583    0.1150   -0.0813 C   0  0  0  0  0  0  0  0  0  0  0  0
   -2.4617    0.3940   -0.0679 C   0  0  0  0  0  0  0  0  0  0  0  0
   -3.0513    1.6043    0.2295 C   0  0  0  0  0  0  0  0  0  0  0  0
   -4.4106    1.4484    0.1353 N   0  0  0  0  0  0  0  0  0  0  0  0
   -4.7194    0.1555   -0.2175 C   0  0  0  0  0  0  0  0  0  0  0  0
   -5.9674   -0.4449   -0.4233 C   0  0  0  0  0  0  0  0  0  0  0  0
   -5.9870   -1.7954   -0.7808 C   0  0  0  0  0  0  0  0  0  0  0  0
   -4.8044   -2.5148   -0.9264 C   0  0  0  0  0  0  0  0  0  0  0  0
   -3.5645   -1.8993   -0.7166 C   0  0  0  0  0  0  0  0  0  0  0  0
   -3.5134   -0.5353   -0.3535 C   0  0  0  0  0  0  0  0  0  0  0  0
    1.8561   -0.4617    0.7286 C   0  0  0  0  0  0  0  0  0  0  0  0
    3.2204   -0.7258    0.6919 C   0  0  0  0  0  0  0  0  0  0  0  0
    7.2678    0.2299    1.1888 H   0  0  0  0  0  0  0  0  0  0  0  0
    6.0654    1.5337    1.1809 H   0  0  0  0  0  0  0  0  0  0  0  0
    5.7786    0.0766    2.1397 H   0  0  0  0  0  0  0  0  0  0  0  0
    5.6350   -1.2909    0.0229 H   0  0  0  0  0  0  0  0  0  0  0  0
    5.9224    0.1699   -0.9384 H   0  0  0  0  0  0  0  0  0  0  0  0
    4.3230    1.8496   -1.0846 H   0  0  0  0  0  0  0  0  0  0  0  0
    1.8903    2.4116   -1.0749 H   0  0  0  0  0  0  0  0  0  0  0  0
   -0.3065    2.0585    0.2764 H   0  0  0  0  0  0  0  0  0  0  0  0
   -0.7935   -0.9210   -0.2809 H   0  0  0  0  0  0  0  0  0  0  0  0
   -2.6405    2.5660    0.5036 H   0  0  0  0  0  0  0  0  0  0  0  0
   -5.0955    2.1733    0.3016 H   0  0  0  0  0  0  0  0  0  0  0  0
   -6.8924    0.1120   -0.3116 H   0  0  0  0  0  0  0  0  0  0  0  0
   -6.9416   -2.2902   -0.9481 H   0  0  0  0  0  0  0  0  0  0  0  0
   -4.8442   -3.5648   -1.2065 H   0  0  0  0  0  0  0  0  0  0  0  0
   -2.6537   -2.4767   -0.8369 H   0  0  0  0  0  0  0  0  0  0  0  0
    1.1962   -1.1341    1.2739 H   0  0  0  0  0  0  0  0  0  0  0  0
    3.6455   -1.5947    1.1866 H   0  0  0  0  0  0  0  0  0  0  0  0
  1  2  1  0
  2  3  1  0
  3  4  2  0
  4  5  1  0
  5  6  2  0
  6  7  1  0
  7  8  2  3
  8  9  1  0
  9 10  2  0
 10 11  1  0
 11 12  1  0
 12 13  2  0
 13 14  1  0
 14 15  2  0
 15 16  1  0
 16 17  2  0
  6 18  1  0
 18 19  2  0
 19  3  1  0
 17  9  1  0
 17 12  1  0
  1 20  1  0
  1 21  1  0
  1 22  1  0
  2 23  1  0
  2 24  1  0
  4 25  1  0
  5 26  1  0
  7 27  1  0
  8 28  1  0
 10 29  1  0
 11 30  1  0
 13 31  1  0
 14 32  1  0
 15 33  1  0
 16 34  1  0
 18 35  1  0
 19 36  1  0
M  CHG  1   3   1
M  END
$$$$
