
     RDKit          3D

 33 35  0  0  0  0  0  0  0  0999 V2000
    5.9474    0.2944    0.9386 C   0  0  0  0  0  0  0  0  0  0  0  0
    4.5107    0.2299    0.6211 N   0  0  0  0  0  4  0  0  0  0  0  0
    3.6726    1.1639    1.1227 C   0  0  0  0  0  0  0  0  0  0  0  0
    2.3144    1.1280    0.8273 C   0  0  0  0  0  0  0  0  0  0  0  0
    1.8091    0.1160    0.0130 C   0  0  0  0  0  0  0  0  0  0  0  0
    0.3784    0.1089   -0.3108 C   0  0  0  0  0  0  0  0  0  0  0  0
   -0.3710   -1.0030   -0.3951 C   0  0  0  0  0  0  0  0  0  0  0  0
   -1.7622   -1.0367   -0.7177 C   0  0  0  0  0  0  0  0  0  0  0  0
   -2.3301   -2.0733   -1.4268 C   0  0  0  0  0  0  0  0  0  0  0  0
   -3.6628   -1.7983   -1.5829 N   0  0  0  0  0  0  0  0  0  0  0  0
   -3.9802   -0.6123   -0.9617 C   0  0  0  0  0  0  0  0  0  0  0  0
   -5.2153    0.0395   -0.8573 C   0  0  0  0  0  0  0  0  0  0  0  0
   -5.2600    1.2375   -0.1409 C   0  0  0  0  0  0  0  0  0  0  0  0
   -4.1145    1.7580    0.4529 C   0  0  0  0  0  0  0  0  0  0  0  0
   -2.8868    1.0944    0.3375 C   0  0  0  0  0  0  0  0  0  0  0  0
   -2.8050   -0.1113   -0.3942 C   0  0  0  0  0  0  0  0  0  0  0  0
    2.6976   -0.8216   -0.5114 C   0  0  0  0  0  0  0  0  0  0  0  0
    4.0487   -0.7462   -0.1916 C   0  0  0  0  0  0  0  0  0  0  0  0
    6.4236    0.9147    0.1753 H   0  0  0  0  0  0  0  0  0  0  0  0
    6.0754    0.7316    1.9322 H   0  0  0  0  0  0  0  0  0  0  0  0
    6.3613   -0.7173    0.9331 H   0  0  0  0  0  0  0  0  0  0  0  0
    4.0977    1.9371    1.7566 H   0  0  0  0  0  0  0  0  0  0  0  0
    1.6552    1.8885    1.2428 H   0  0  0  0  0  0  0  0  0  0  0  0
   -0.0730    1.0824   -0.4913 H   0  0  0  0  0  0  0  0  0  0  0  0
    0.0913   -1.9745   -0.2326 H   0  0  0  0  0  0  0  0  0  0  0  0
   -1.9079   -2.9753   -1.8495 H   0  0  0  0  0  0  0  0  0  0  0  0
   -4.3279   -2.3824   -2.0716 H   0  0  0  0  0  0  0  0  0  0  0  0
   -6.1137   -0.3689   -1.3098 H   0  0  0  0  0  0  0  0  0  0  0  0
   -6.2062    1.7651   -0.0400 H   0  0  0  0  0  0  0  0  0  0  0  0
   -4.1751    2.6860    1.0163 H   0  0  0  0  0  0  0  0  0  0  0  0
   -2.0116    1.5098    0.8246 H   0  0  0  0  0  0  0  0  0  0  0  0
    2.3516   -1.6068   -1.1809 H   0  0  0  0  0  0  0  0  0  0  0  0
    4.7680   -1.4584   -0.5863 H   0  0  0  0  0  0  0  0  0  0  0  0
  1  2  1  0
  2  3  2  0
  3  4  1  0
  4  5  2  0
  5  6  1  0
  6  7  2  3
  7  8  1  0
  8  9  2  0
  9 10  1  0
 10 11  1  0
 11 12  2  0
 12 13  1  0
 13 14  2  0
 14 15  1  0
 15 16  2  0
  5 17  1  0
 17 18  2  0
 18  2  1  0
 16  8  1  0
 16 11  1  0
  1 19  1  0
  1 20  1  0
  1 21  1  0
  3 22  1  0
  4 23  1  0
  6 24  1  0
  7 25  1  0
  9 26  1  0
 10 27  1  0
 12 28  1  0
 13 29  1  0
 14 30  1  0
 15 31  1  0
 17 32  1  0
 18 33  1  0
M  CHG  1   2   1
M  END
$$$$
