
     RDKit          3D

 48 51  0  0  0  0  0  0  0  0999 V2000
    2.3214    2.2977   -0.2900 C   0  0  0  0  0  0  0  0  0  0  0  0
    1.7787    1.0697    0.4272 C   0  0  0  0  0  0  0  0  0  0  0  0
    2.1369   -0.1622   -0.2712 N   0  0  0  0  0  0  0  0  0  0  0  0
    1.4764   -0.8010   -1.3280 C   0  0  0  0  0  0  0  0  0  0  0  0
    0.2256   -0.6792   -1.8126 C   0  0  0  0  0  0  0  0  0  0  0  0
   -0.8495    0.1952   -1.3395 C   0  0  0  0  0  0  0  0  0  0  0  0
   -0.8695    1.4808   -1.8629 C   0  0  0  0  0  0  0  0  0  0  0  0
   -1.8380    2.3662   -1.4596 C   0  0  0  0  0  0  0  0  0  0  0  0
   -2.8147    1.9470   -0.5715 C   0  0  0  0  0  0  0  0  0  0  0  0
   -3.7660    2.9029   -0.2040 C   0  0  0  0  0  0  0  0  0  0  0  0
   -4.7962    2.5766    0.6557 C   0  0  0  0  0  0  0  0  0  0  0  0
   -4.8935    1.2802    1.1322 C   0  0  0  0  0  0  0  0  0  0  0  0
   -3.9574    0.2721    0.7834 C   0  0  0  0  0  0  0  0  0  0  0  0
   -4.3254   -1.0807    1.3426 C   0  0  0  0  0  0  0  0  0  0  0  0
   -2.8521    0.5943   -0.0662 C   0  0  0  0  0  0  0  0  0  0  0  0
   -1.8107   -0.2459   -0.4602 N   0  0  0  0  0  4  0  0  0  0  0  0
   -1.6485   -1.6292    0.0801 C   0  0  0  0  0  0  0  0  0  0  0  0
   -0.9457   -1.5902    1.4250 C   0  0  0  0  0  0  0  0  0  0  0  0
    2.4596   -2.0681   -2.1344 S   0  0  0  0  0  0  0  0  0  0  0  0
    3.7866   -1.7096   -1.0013 C   0  0  0  0  0  0  0  0  0  0  0  0
    5.0233   -2.3409   -0.9846 C   0  0  0  0  0  0  0  0  0  0  0  0
    5.9623   -1.9360   -0.0395 C   0  0  0  0  0  0  0  0  0  0  0  0
    5.6533   -0.9150    0.8656 C   0  0  0  0  0  0  0  0  0  0  0  0
    4.4016   -0.2849    0.8385 C   0  0  0  0  0  0  0  0  0  0  0  0
    3.4503   -0.6759   -0.1006 C   0  0  0  0  0  0  0  0  0  0  0  0
    3.4158    2.3097   -0.2925 H   0  0  0  0  0  0  0  0  0  0  0  0
    1.9775    3.2088    0.2097 H   0  0  0  0  0  0  0  0  0  0  0  0
    1.9898    2.3338   -1.3318 H   0  0  0  0  0  0  0  0  0  0  0  0
    0.6936    1.1574    0.5207 H   0  0  0  0  0  0  0  0  0  0  0  0
    2.1284    1.0562    1.4658 H   0  0  0  0  0  0  0  0  0  0  0  0
   -0.0826   -1.2965   -2.6576 H   0  0  0  0  0  0  0  0  0  0  0  0
   -0.1136    1.8048   -2.5776 H   0  0  0  0  0  0  0  0  0  0  0  0
   -1.8250    3.3807   -1.8588 H   0  0  0  0  0  0  0  0  0  0  0  0
   -3.7225    3.9235   -0.5858 H   0  0  0  0  0  0  0  0  0  0  0  0
   -5.5355    3.3238    0.9392 H   0  0  0  0  0  0  0  0  0  0  0  0
   -5.7391    1.0520    1.7848 H   0  0  0  0  0  0  0  0  0  0  0  0
   -3.5482   -1.4781    1.9952 H   0  0  0  0  0  0  0  0  0  0  0  0
   -4.5686   -1.7734    0.5316 H   0  0  0  0  0  0  0  0  0  0  0  0
   -5.2259   -1.0354    1.9676 H   0  0  0  0  0  0  0  0  0  0  0  0
   -1.0801   -2.2490   -0.6179 H   0  0  0  0  0  0  0  0  0  0  0  0
   -2.6135   -2.1233    0.1007 H   0  0  0  0  0  0  0  0  0  0  0  0
    0.0999   -1.2940    1.3159 H   0  0  0  0  0  0  0  0  0  0  0  0
   -1.4069   -0.8792    2.1159 H   0  0  0  0  0  0  0  0  0  0  0  0
   -0.9608   -2.5822    1.8867 H   0  0  0  0  0  0  0  0  0  0  0  0
    5.2599   -3.1299   -1.6918 H   0  0  0  0  0  0  0  0  0  0  0  0
    6.9397   -2.4127   -0.0056 H   0  0  0  0  0  0  0  0  0  0  0  0
    6.3966   -0.6070    1.5989 H   0  0  0  0  0  0  0  0  0  0  0  0
    4.2123    0.4995    1.5624 H   0  0  0  0  0  0  0  0  0  0  0  0
  1  2  1  0
  2  3  1  0
  3  4  1  0
  4  5  2  3
  5  6  1  0
  6  7  2  0
  7  8  1  0
  8  9  2  0
  9 10  1  0
 10 11  2  0
 11 12  1  0
 12 13  2  0
 13 14  1  0
 13 15  1  0
 15 16  2  0
 16 17  1  0
 17 18  1  0
  4 19  1  0
 19 20  1  0
 20 21  2  0
 21 22  1  0
 22 23  2  0
 23 24  1  0
 24 25  2  0
 25  3  1  0
 16  6  1  0
 25 20  1  0
 15  9  1  0
  1 26  1  0
  1 27  1  0
  1 28  1  0
  2 29  1  0
  2 30  1  0
  5 31  1  0
  7 32  1  0
  8 33  1  0
 10 34  1  0
 11 35  1  0
 12 36  1  0
 14 37  1  0
 14 38  1  0
 14 39  1  0
 17 40  1  0
 17 41  1  0
 18 42  1  0
 18 43  1  0
 18 44  1  0
 21 45  1  0
 22 46  1  0
 23 47  1  0
 24 48  1  0
M  CHG  1  16   1
M  END
$$$$
