
     RDKit          3D

 63 67  0  0  0  0  0  0  0  0999 V2000
   -4.7202   -0.5297    6.3676 C   0  0  0  0  0  0  0  0  0  0  0  0
   -3.7067   -0.5976    5.3725 O   0  0  0  0  0  0  0  0  0  0  0  0
   -4.1194   -0.7385    4.0755 C   0  0  0  0  0  0  0  0  0  0  0  0
   -5.4345   -0.8442    3.6439 C   0  0  0  0  0  0  0  0  0  0  0  0
   -5.7295   -0.9831    2.2828 C   0  0  0  0  0  0  0  0  0  0  0  0
   -4.6759   -1.0169    1.3491 C   0  0  0  0  0  0  0  0  0  0  0  0
   -4.8149   -1.1784   -0.3554 S   0  0  0  0  0  0  0  0  0  0  0  0
   -3.1225   -1.1116   -0.5861 C   0  0  0  0  0  0  0  0  0  0  0  0
   -2.6003   -1.2316   -1.9543 C   0  0  0  0  0  0  0  0  0  0  0  0
   -2.1352   -2.4838   -2.3881 C   0  0  0  0  0  0  0  0  0  0  0  0
   -1.6226   -2.6429   -3.6741 C   0  0  0  0  0  0  0  0  0  0  0  0
   -1.5673   -1.5516   -4.5358 C   0  0  0  0  0  0  0  0  0  0  0  0
   -2.0217   -0.2981   -4.1156 C   0  0  0  0  0  0  0  0  0  0  0  0
   -2.5413   -0.1252   -2.8271 C   0  0  0  0  0  0  0  0  0  0  0  0
   -2.9838    1.0742   -2.3272 O   0  0  0  0  0  0  0  0  0  0  0  0
   -3.1155    2.1550   -3.2401 C   0  0  0  0  0  0  0  0  0  0  0  0
   -2.4458   -0.9771    0.6154 C   0  0  0  0  0  0  0  0  0  0  0  0
   -0.9894   -0.9177    0.6693 C   0  0  0  0  0  0  0  0  0  0  0  0
   -0.2649   -1.9756    1.2236 C   0  0  0  0  0  0  0  0  0  0  0  0
    1.1302   -1.9171    1.2685 C   0  0  0  0  0  0  0  0  0  0  0  0
    1.8169   -0.8069    0.7680 C   0  0  0  0  0  0  0  0  0  0  0  0
    3.1773   -0.8927    0.8685 O   0  0  0  0  0  0  0  0  0  0  0  0
    3.9695    0.2301    0.4668 C   0  0  0  0  0  0  0  0  0  0  0  0
    4.2888    0.1637   -1.0344 C   0  0  0  0  0  0  0  0  0  0  0  0
    5.0963    1.2249   -1.6407 N   0  0  0  0  0  0  0  0  0  0  0  0
    4.4323    2.5274   -1.7840 C   0  0  0  0  0  0  0  0  0  0  0  0
    4.6560    3.5124   -0.6254 C   0  0  0  0  0  0  0  0  0  0  0  0
    6.0460    3.6542   -0.3162 O   0  0  0  0  0  0  0  0  0  0  0  0
    6.6130    2.3862    0.0295 C   0  0  0  0  0  0  0  0  0  0  0  0
    6.4602    1.3701   -1.1142 C   0  0  0  0  0  0  0  0  0  0  0  0
    1.0916    0.2503    0.2184 C   0  0  0  0  0  0  0  0  0  0  0  0
   -0.3061    0.1967    0.1726 C   0  0  0  0  0  0  0  0  0  0  0  0
   -3.3425   -0.9178    1.7485 C   0  0  0  0  0  0  0  0  0  0  0  0
   -3.0812   -0.7746    3.1368 C   0  0  0  0  0  0  0  0  0  0  0  0
   -4.2285   -0.4067    7.3375 H   0  0  0  0  0  0  0  0  0  0  0  0
   -5.3699    0.3379    6.2115 H   0  0  0  0  0  0  0  0  0  0  0  0
   -5.3003   -1.4577    6.4038 H   0  0  0  0  0  0  0  0  0  0  0  0
   -6.2677   -0.8217    4.3389 H   0  0  0  0  0  0  0  0  0  0  0  0
   -6.7613   -1.0629    1.9515 H   0  0  0  0  0  0  0  0  0  0  0  0
   -2.1710   -3.3405   -1.7186 H   0  0  0  0  0  0  0  0  0  0  0  0
   -1.2646   -3.6159   -4.0001 H   0  0  0  0  0  0  0  0  0  0  0  0
   -1.1637   -1.6733   -5.5381 H   0  0  0  0  0  0  0  0  0  0  0  0
   -1.9467    0.5260   -4.8171 H   0  0  0  0  0  0  0  0  0  0  0  0
   -3.7781    1.8957   -4.0725 H   0  0  0  0  0  0  0  0  0  0  0  0
   -3.5700    2.9926   -2.7023 H   0  0  0  0  0  0  0  0  0  0  0  0
   -2.1357    2.4848   -3.6004 H   0  0  0  0  0  0  0  0  0  0  0  0
   -0.7768   -2.8505    1.6166 H   0  0  0  0  0  0  0  0  0  0  0  0
    1.6875   -2.7466    1.6971 H   0  0  0  0  0  0  0  0  0  0  0  0
    4.9024    0.1453    1.0336 H   0  0  0  0  0  0  0  0  0  0  0  0
    3.5088    1.1720    0.7750 H   0  0  0  0  0  0  0  0  0  0  0  0
    3.3546    0.0731   -1.6027 H   0  0  0  0  0  0  0  0  0  0  0  0
    4.7896   -0.7956   -1.2254 H   0  0  0  0  0  0  0  0  0  0  0  0
    3.3595    2.4089   -1.9766 H   0  0  0  0  0  0  0  0  0  0  0  0
    4.8493    2.9877   -2.6894 H   0  0  0  0  0  0  0  0  0  0  0  0
    4.2816    4.5012   -0.9103 H   0  0  0  0  0  0  0  0  0  0  0  0
    4.1169    3.2120    0.2780 H   0  0  0  0  0  0  0  0  0  0  0  0
    7.6763    2.5479    0.2344 H   0  0  0  0  0  0  0  0  0  0  0  0
    6.1541    2.0319    0.9578 H   0  0  0  0  0  0  0  0  0  0  0  0
    6.8773    0.4004   -0.8183 H   0  0  0  0  0  0  0  0  0  0  0  0
    7.0794    1.7210   -1.9501 H   0  0  0  0  0  0  0  0  0  0  0  0
    1.5728    1.1293   -0.1943 H   0  0  0  0  0  0  0  0  0  0  0  0
   -0.8592    1.0283   -0.2598 H   0  0  0  0  0  0  0  0  0  0  0  0
   -2.0533   -0.6860    3.4819 H   0  0  0  0  0  0  0  0  0  0  0  0
  1  2  1  0
  2  3  1  0
  3  4  2  0
  4  5  1  0
  5  6  2  0
  6  7  1  0
  7  8  1  0
  8  9  1  0
  9 10  2  0
 10 11  1  0
 11 12  2  0
 12 13  1  0
 13 14  2  0
 14 15  1  0
 15 16  1  0
  8 17  2  0
 17 18  1  0
 18 19  2  0
 19 20  1  0
 20 21  2  0
 21 22  1  0
 22 23  1  0
 23 24  1  0
 24 25  1  0
 25 26  1  0
 26 27  1  0
 27 28  1  0
 28 29  1  0
 29 30  1  0
 21 31  1  0
 31 32  2  0
 17 33  1  0
 33 34  2  0
 34  3  1  0
 33  6  1  0
 14  9  1  0
 32 18  1  0
 30 25  1  0
  1 35  1  0
  1 36  1  0
  1 37  1  0
  4 38  1  0
  5 39  1  0
 10 40  1  0
 11 41  1  0
 12 42  1  0
 13 43  1  0
 16 44  1  0
 16 45  1  0
 16 46  1  0
 19 47  1  0
 20 48  1  0
 23 49  1  0
 23 50  1  0
 24 51  1  0
 24 52  1  0
 26 53  1  0
 26 54  1  0
 27 55  1  0
 27 56  1  0
 29 57  1  0
 29 58  1  0
 30 59  1  0
 30 60  1  0
 31 61  1  0
 32 62  1  0
 34 63  1  0
M  END
$$$$
