
     RDKit          3D

 33 35  0  0  0  0  0  0  0  0999 V2000
    5.9517    0.3284    0.9034 C   0  0  0  0  0  0  0  0  0  0  0  0
    4.5143    0.2400    0.5946 N   0  0  0  0  0  4  0  0  0  0  0  0
    3.7069    1.2898    0.8640 C   0  0  0  0  0  0  0  0  0  0  0  0
    2.3489    1.2318    0.5711 C   0  0  0  0  0  0  0  0  0  0  0  0
    1.8117    0.0786    0.0017 C   0  0  0  0  0  0  0  0  0  0  0  0
    0.3823    0.0446   -0.3261 C   0  0  0  0  0  0  0  0  0  0  0  0
   -0.4038   -1.0330   -0.1643 C   0  0  0  0  0  0  0  0  0  0  0  0
   -1.7946   -1.0939   -0.4845 C   0  0  0  0  0  0  0  0  0  0  0  0
   -2.3954   -2.2452   -0.9464 C   0  0  0  0  0  0  0  0  0  0  0  0
   -3.7178   -1.9699   -1.1736 N   0  0  0  0  0  0  0  0  0  0  0  0
   -3.9965   -0.6646   -0.8397 C   0  0  0  0  0  0  0  0  0  0  0  0
   -5.2093    0.0334   -0.8973 C   0  0  0  0  0  0  0  0  0  0  0  0
   -5.2154    1.3632   -0.4706 C   0  0  0  0  0  0  0  0  0  0  0  0
   -4.0544    1.9674    0.0014 C   0  0  0  0  0  0  0  0  0  0  0  0
   -2.8494    1.2557    0.0509 C   0  0  0  0  0  0  0  0  0  0  0  0
   -2.8064   -0.0862   -0.3886 C   0  0  0  0  0  0  0  0  0  0  0  0
    2.6694   -0.9814   -0.2886 C   0  0  0  0  0  0  0  0  0  0  0  0
    4.0216   -0.8792    0.0191 C   0  0  0  0  0  0  0  0  0  0  0  0
    6.3314   -0.6711    1.1304 H   0  0  0  0  0  0  0  0  0  0  0  0
    6.4501    0.7445    0.0244 H   0  0  0  0  0  0  0  0  0  0  0  0
    6.0920    0.9745    1.7738 H   0  0  0  0  0  0  0  0  0  0  0  0
    4.1563    2.1722    1.3109 H   0  0  0  0  0  0  0  0  0  0  0  0
    1.7147    2.0874    0.7976 H   0  0  0  0  0  0  0  0  0  0  0  0
   -0.0358    0.9660   -0.7263 H   0  0  0  0  0  0  0  0  0  0  0  0
    0.0253   -1.9568    0.2180 H   0  0  0  0  0  0  0  0  0  0  0  0
   -2.0028   -3.2325   -1.1502 H   0  0  0  0  0  0  0  0  0  0  0  0
   -4.4010   -2.6276   -1.5242 H   0  0  0  0  0  0  0  0  0  0  0  0
   -6.1199   -0.4376   -1.2544 H   0  0  0  0  0  0  0  0  0  0  0  0
   -6.1436    1.9301   -0.5007 H   0  0  0  0  0  0  0  0  0  0  0  0
   -4.0851    3.0002    0.3399 H   0  0  0  0  0  0  0  0  0  0  0  0
   -1.9618    1.7421    0.4400 H   0  0  0  0  0  0  0  0  0  0  0  0
    2.2987   -1.8861   -0.7667 H   0  0  0  0  0  0  0  0  0  0  0  0
    4.7175   -1.6849   -0.1975 H   0  0  0  0  0  0  0  0  0  0  0  0
  1  2  1  0
  2  3  2  0
  3  4  1  0
  4  5  2  0
  5  6  1  0
  6  7  2  3
  7  8  1  0
  8  9  2  0
  9 10  1  0
 10 11  1  0
 11 12  2  0
 12 13  1  0
 13 14  2  0
 14 15  1  0
 15 16  2  0
  5 17  1  0
 17 18  2  0
 18  2  1  0
 16  8  1  0
 16 11  1  0
  1 19  1  0
  1 20  1  0
  1 21  1  0
  3 22  1  0
  4 23  1  0
  6 24  1  0
  7 25  1  0
  9 26  1  0
 10 27  1  0
 12 28  1  0
 13 29  1  0
 14 30  1  0
 15 31  1  0
 17 32  1  0
 18 33  1  0
M  CHG  1   2   1
M  END
$$$$
