
     RDKit          3D

 38 39  0  0  0  0  0  0  0  0999 V2000
    4.6389    2.2770   -1.1718 C   0  0  0  0  0  0  0  0  0  0  0  0
    4.2062    0.8889   -0.8812 C   0  0  0  0  0  0  0  0  0  0  0  0
    4.5568   -0.2903   -1.5742 C   0  0  0  0  0  0  0  0  0  0  0  0
    3.9063   -1.3136   -0.9173 C   0  0  0  0  0  0  0  0  0  0  0  0
    3.8848   -2.7715   -1.1873 C   0  0  0  0  0  0  0  0  0  0  0  0
    3.2278   -0.7133    0.1112 N   0  0  0  0  0  0  0  0  0  0  0  0
    2.3772   -1.3270    1.1149 C   0  0  0  0  0  0  0  0  0  0  0  0
    0.9031   -1.0810    0.8704 C   0  0  0  0  0  0  0  0  0  0  0  0
    0.0732   -1.9504    1.1438 O   0  0  0  0  0  0  0  0  0  0  0  0
    0.5970    0.1994    0.4123 N   0  0  0  0  0  0  0  0  0  0  0  0
   -0.6604    0.7394    0.3377 N   0  0  0  0  0  0  0  0  0  0  0  0
   -1.6346   -0.0391   -0.0195 C   0  0  0  0  0  0  0  0  0  0  0  0
   -3.0279    0.4556   -0.0563 C   0  0  0  0  0  0  0  0  0  0  0  0
   -4.0269   -0.4308   -0.4732 C   0  0  0  0  0  0  0  0  0  0  0  0
   -5.3587    0.0082   -0.5129 C   0  0  0  0  0  0  0  0  0  0  0  0
   -6.4124   -0.9146   -0.9535 N   0  0  0  0  0  4  0  0  0  0  0  0
   -6.0586   -2.0071   -1.4201 O   0  0  0  0  0  0  0  0  0  0  0  0
   -7.5892   -0.5458   -0.8367 O   0  0  0  0  0  1  0  0  0  0  0  0
   -5.6968    1.3166   -0.1379 C   0  0  0  0  0  0  0  0  0  0  0  0
   -4.6925    2.1928    0.2779 C   0  0  0  0  0  0  0  0  0  0  0  0
   -3.3665    1.7638    0.3182 C   0  0  0  0  0  0  0  0  0  0  0  0
   -2.4450    2.6832    0.7380 O   0  0  0  0  0  0  0  0  0  0  0  0
    3.3857    0.6295    0.1437 N   0  0  0  0  0  0  0  0  0  0  0  0
    5.7125    2.3852   -0.9893 H   0  0  0  0  0  0  0  0  0  0  0  0
    4.4388    2.5304   -2.2177 H   0  0  0  0  0  0  0  0  0  0  0  0
    4.1121    3.0003   -0.5419 H   0  0  0  0  0  0  0  0  0  0  0  0
    5.1983   -0.3808   -2.4401 H   0  0  0  0  0  0  0  0  0  0  0  0
    4.3357   -3.3251   -0.3568 H   0  0  0  0  0  0  0  0  0  0  0  0
    4.4493   -3.0115   -2.0947 H   0  0  0  0  0  0  0  0  0  0  0  0
    2.8587   -3.1254   -1.3287 H   0  0  0  0  0  0  0  0  0  0  0  0
    2.5695   -2.4034    1.1234 H   0  0  0  0  0  0  0  0  0  0  0  0
    2.6566   -0.9138    2.0905 H   0  0  0  0  0  0  0  0  0  0  0  0
    1.3621    0.8853    0.4126 H   0  0  0  0  0  0  0  0  0  0  0  0
   -1.4805   -1.0849   -0.3369 H   0  0  0  0  0  0  0  0  0  0  0  0
   -3.7686   -1.4488   -0.7591 H   0  0  0  0  0  0  0  0  0  0  0  0
   -6.7271    1.6668   -0.1634 H   0  0  0  0  0  0  0  0  0  0  0  0
   -4.9403    3.2104    0.5733 H   0  0  0  0  0  0  0  0  0  0  0  0
   -1.5647    2.2454    0.7283 H   0  0  0  0  0  0  0  0  0  0  0  0
  1  2  1  0
  2  3  1  0
  3  4  2  0
  4  5  1  0
  4  6  1  0
  6  7  1  0
  7  8  1  0
  8  9  2  0
  8 10  1  0
 10 11  1  0
 11 12  2  3
 12 13  1  0
 13 14  2  0
 14 15  1  0
 15 16  1  0
 16 17  2  0
 16 18  1  0
 15 19  2  0
 19 20  1  0
 20 21  2  0
 21 22  1  0
  6 23  1  0
 23  2  2  0
 21 13  1  0
  1 24  1  0
  1 25  1  0
  1 26  1  0
  3 27  1  0
  5 28  1  0
  5 29  1  0
  5 30  1  0
  7 31  1  0
  7 32  1  0
 10 33  1  0
 12 34  1  0
 14 35  1  0
 19 36  1  0
 20 37  1  0
 22 38  1  0
M  CHG  2  16   1  18  -1
M  END
$$$$
