
     RDKit          3D

 46 48  0  0  0  0  0  0  0  0999 V2000
   -2.9057    1.1084   -0.7189 C   0  0  0  0  0  0  0  0  0  0  0  0
   -2.7639    0.7142    0.7395 C   0  0  0  0  0  0  0  0  0  0  0  0
   -2.6791   -0.7738    0.8604 N   0  0  0  0  0  4  0  0  0  0  0  0
   -1.4495   -1.3726    0.8816 C   0  0  0  0  0  0  0  0  0  0  0  0
   -0.2177   -0.5808    0.7932 C   0  0  0  0  0  0  0  0  0  0  0  0
    0.5510   -0.5793   -0.3074 C   0  0  0  0  0  0  0  0  0  0  0  0
    1.7686    0.2315   -0.4319 C   0  0  0  0  0  0  0  0  0  0  0  0
    2.6786    0.3890    0.6122 C   0  0  0  0  0  0  0  0  0  0  0  0
    3.8345    1.1679    0.4422 C   0  0  0  0  0  0  0  0  0  0  0  0
    4.1445    1.8040   -0.7719 C   0  0  0  0  0  0  0  0  0  0  0  0
    5.2827    2.6005   -0.9256 N   0  0  0  0  0  0  0  0  0  0  0  0
    6.3553    2.5163    0.0661 C   0  0  0  0  0  0  0  0  0  0  0  0
    5.7036    2.9969   -2.2699 C   0  0  0  0  0  0  0  0  0  0  0  0
    3.2134    1.6206   -1.8081 C   0  0  0  0  0  0  0  0  0  0  0  0
    2.0549    0.8433   -1.6511 C   0  0  0  0  0  0  0  0  0  0  0  0
   -1.3295   -2.7572    0.9990 C   0  0  0  0  0  0  0  0  0  0  0  0
   -2.4599   -3.5456    1.0945 C   0  0  0  0  0  0  0  0  0  0  0  0
   -3.7129   -2.9474    1.0626 C   0  0  0  0  0  0  0  0  0  0  0  0
   -4.8616   -3.7479    1.1500 C   0  0  0  0  0  0  0  0  0  0  0  0
   -6.1300   -3.1770    1.1082 C   0  0  0  0  0  0  0  0  0  0  0  0
   -6.2629   -1.8021    0.9748 C   0  0  0  0  0  0  0  0  0  0  0  0
   -5.1261   -0.9907    0.8884 C   0  0  0  0  0  0  0  0  0  0  0  0
   -3.8260   -1.5340    0.9368 C   0  0  0  0  0  0  0  0  0  0  0  0
   -2.0514    0.7644   -1.3095 H   0  0  0  0  0  0  0  0  0  0  0  0
   -2.9658    2.1971   -0.8113 H   0  0  0  0  0  0  0  0  0  0  0  0
   -3.8072    0.6802   -1.1668 H   0  0  0  0  0  0  0  0  0  0  0  0
   -3.5973    1.0738    1.3487 H   0  0  0  0  0  0  0  0  0  0  0  0
   -1.8783    1.1746    1.1844 H   0  0  0  0  0  0  0  0  0  0  0  0
    0.0358    0.0142    1.6672 H   0  0  0  0  0  0  0  0  0  0  0  0
    0.2872   -1.1612   -1.1896 H   0  0  0  0  0  0  0  0  0  0  0  0
    2.5225   -0.0914    1.5745 H   0  0  0  0  0  0  0  0  0  0  0  0
    4.4933    1.2593    1.3011 H   0  0  0  0  0  0  0  0  0  0  0  0
    6.0041    2.8260    1.0563 H   0  0  0  0  0  0  0  0  0  0  0  0
    6.7616    1.5002    0.1199 H   0  0  0  0  0  0  0  0  0  0  0  0
    7.1825    3.1905   -0.1826 H   0  0  0  0  0  0  0  0  0  0  0  0
    4.9379    3.6071   -2.7607 H   0  0  0  0  0  0  0  0  0  0  0  0
    5.9270    2.1191   -2.8863 H   0  0  0  0  0  0  0  0  0  0  0  0
    6.6062    3.6175   -2.2384 H   0  0  0  0  0  0  0  0  0  0  0  0
    3.3638    2.0832   -2.7794 H   0  0  0  0  0  0  0  0  0  0  0  0
    1.3838    0.7409   -2.5007 H   0  0  0  0  0  0  0  0  0  0  0  0
   -0.3474   -3.2287    1.0221 H   0  0  0  0  0  0  0  0  0  0  0  0
   -2.3511   -4.6259    1.1888 H   0  0  0  0  0  0  0  0  0  0  0  0
   -4.7840   -4.8309    1.2493 H   0  0  0  0  0  0  0  0  0  0  0  0
   -7.0151   -3.8082    1.1753 H   0  0  0  0  0  0  0  0  0  0  0  0
   -7.2573   -1.3585    0.9354 H   0  0  0  0  0  0  0  0  0  0  0  0
   -5.3134    0.0722    0.7730 H   0  0  0  0  0  0  0  0  0  0  0  0
  1  2  1  0
  2  3  1  0
  3  4  2  0
  4  5  1  0
  5  6  2  3
  6  7  1  0
  7  8  2  0
  8  9  1  0
  9 10  2  0
 10 11  1  0
 11 12  1  0
 11 13  1  0
 10 14  1  0
 14 15  2  0
  4 16  1  0
 16 17  2  0
 17 18  1  0
 18 19  2  0
 19 20  1  0
 20 21  2  0
 21 22  1  0
 22 23  2  0
 23  3  1  0
 15  7  1  0
 23 18  1  0
  1 24  1  0
  1 25  1  0
  1 26  1  0
  2 27  1  0
  2 28  1  0
  5 29  1  0
  6 30  1  0
  8 31  1  0
  9 32  1  0
 12 33  1  0
 12 34  1  0
 12 35  1  0
 13 36  1  0
 13 37  1  0
 13 38  1  0
 14 39  1  0
 15 40  1  0
 16 41  1  0
 17 42  1  0
 19 43  1  0
 20 44  1  0
 21 45  1  0
 22 46  1  0
M  CHG  1   3   1
M  END
$$$$
