
     RDKit          3D

 40 42  0  0  0  0  0  0  0  0999 V2000
   -5.4049    0.5209   -0.1990 C   0  0  0  0  0  0  0  0  0  0  0  0
   -3.9733    0.0925   -0.0645 C   0  0  0  0  0  0  0  0  0  0  0  0
   -3.4250   -0.8357   -0.9514 C   0  0  0  0  0  0  0  0  0  0  0  0
   -2.0962   -1.2866   -0.8256 C   0  0  0  0  0  0  0  0  0  0  0  0
   -1.6291   -2.3001   -1.8352 C   0  0  0  0  0  0  0  0  0  0  0  0
   -1.3007   -0.7771    0.2295 C   0  0  0  0  0  0  0  0  0  0  0  0
    0.4247   -1.2828    0.4417 S   0  0  0  0  0  6  0  0  0  0  0  0
    0.5877   -1.6482    1.8345 O   0  0  0  0  0  0  0  0  0  0  0  0
    0.8001   -2.2225   -0.5947 O   0  0  0  0  0  0  0  0  0  0  0  0
    1.2544    0.1735    0.1185 N   0  0  0  0  0  0  0  0  0  0  0  0
    1.0303    0.7689   -1.2417 C   0  0  0  0  0  0  0  0  0  0  0  0
    2.2947    1.5796   -1.5667 C   0  0  0  0  0  0  0  0  0  0  0  0
    3.2960    0.9867   -0.6314 C   0  0  0  0  0  0  0  0  0  0  0  0
    4.6646    1.2090   -0.6070 C   0  0  0  0  0  0  0  0  0  0  0  0
    5.4126    0.6152    0.4104 C   0  0  0  0  0  0  0  0  0  0  0  0
    4.7844   -0.1645    1.3927 C   0  0  0  0  0  0  0  0  0  0  0  0
    3.4017   -0.3712    1.3629 C   0  0  0  0  0  0  0  0  0  0  0  0
    2.6745    0.1821    0.3236 C   0  0  0  0  0  0  0  0  0  0  0  0
   -1.8545    0.1501    1.1525 C   0  0  0  0  0  0  0  0  0  0  0  0
   -1.1099    0.6988    2.3436 C   0  0  0  0  0  0  0  0  0  0  0  0
   -3.1900    0.5614    0.9901 C   0  0  0  0  0  0  0  0  0  0  0  0
   -6.0531   -0.1577    0.3639 H   0  0  0  0  0  0  0  0  0  0  0  0
   -5.7163    0.5190   -1.2489 H   0  0  0  0  0  0  0  0  0  0  0  0
   -5.5453    1.5393    0.1784 H   0  0  0  0  0  0  0  0  0  0  0  0
   -4.0513   -1.2235   -1.7549 H   0  0  0  0  0  0  0  0  0  0  0  0
   -0.8134   -1.8949   -2.4408 H   0  0  0  0  0  0  0  0  0  0  0  0
   -1.3299   -3.2284   -1.3396 H   0  0  0  0  0  0  0  0  0  0  0  0
   -2.4291   -2.5696   -2.5346 H   0  0  0  0  0  0  0  0  0  0  0  0
    0.1424    1.4082   -1.2462 H   0  0  0  0  0  0  0  0  0  0  0  0
    0.9028   -0.0169   -1.9951 H   0  0  0  0  0  0  0  0  0  0  0  0
    2.5811    1.4696   -2.6165 H   0  0  0  0  0  0  0  0  0  0  0  0
    2.1474    2.6394   -1.3331 H   0  0  0  0  0  0  0  0  0  0  0  0
    5.1454    1.8372   -1.3500 H   0  0  0  0  0  0  0  0  0  0  0  0
    6.4881    0.7706    0.4538 H   0  0  0  0  0  0  0  0  0  0  0  0
    5.3760   -0.6049    2.1921 H   0  0  0  0  0  0  0  0  0  0  0  0
    2.9303   -0.9527    2.1473 H   0  0  0  0  0  0  0  0  0  0  0  0
   -0.1443    1.1213    2.0594 H   0  0  0  0  0  0  0  0  0  0  0  0
   -0.9755   -0.0791    3.1006 H   0  0  0  0  0  0  0  0  0  0  0  0
   -1.6674    1.5147    2.8180 H   0  0  0  0  0  0  0  0  0  0  0  0
   -3.6298    1.2579    1.7036 H   0  0  0  0  0  0  0  0  0  0  0  0
  1  2  1  0
  2  3  2  0
  3  4  1  0
  4  5  1  0
  4  6  2  0
  6  7  1  0
  7  8  2  0
  7  9  2  0
  7 10  1  0
 10 11  1  0
 11 12  1  0
 12 13  1  0
 13 14  2  0
 14 15  1  0
 15 16  2  0
 16 17  1  0
 17 18  2  0
  6 19  1  0
 19 20  1  0
 19 21  2  0
 21  2  1  0
 18 10  1  0
 18 13  1  0
  1 22  1  0
  1 23  1  0
  1 24  1  0
  3 25  1  0
  5 26  1  0
  5 27  1  0
  5 28  1  0
 11 29  1  0
 11 30  1  0
 12 31  1  0
 12 32  1  0
 14 33  1  0
 15 34  1  0
 16 35  1  0
 17 36  1  0
 20 37  1  0
 20 38  1  0
 20 39  1  0
 21 40  1  0
M  END
$$$$
