
     RDKit          3D

 25 26  0  0  0  0  0  0  0  0999 V2000
   -4.6102   -1.0131   -0.4368 O   0  0  0  0  0  0  0  0  0  0  0  0
   -3.4773   -0.6282   -0.2053 C   0  0  0  0  0  0  0  0  0  0  0  0
   -2.9597    0.7663   -0.3621 C   0  0  0  0  0  0  0  0  0  0  0  0
   -1.6902    0.7232    0.4803 C   0  0  0  0  0  0  0  0  0  0  0  0
   -1.2494   -0.6855    0.4867 N   0  0  0  0  0  0  0  0  0  0  0  0
   -0.2224   -0.9522   -0.5425 C   0  0  0  0  0  0  0  0  0  0  0  0
    1.1274   -0.3509   -0.2047 C   0  0  0  0  0  0  0  0  0  0  0  0
    1.7567   -0.6475    1.0152 C   0  0  0  0  0  0  0  0  0  0  0  0
    3.0065   -0.1044    1.3210 C   0  0  0  0  0  0  0  0  0  0  0  0
    3.6381    0.7341    0.4061 C   0  0  0  0  0  0  0  0  0  0  0  0
    5.1777    1.4044    0.7812 Cl  0  0  0  0  0  0  0  0  0  0  0  0
    3.0318    1.0326   -0.8123 C   0  0  0  0  0  0  0  0  0  0  0  0
    1.7812    0.4898   -1.1185 C   0  0  0  0  0  0  0  0  0  0  0  0
   -2.4190   -1.4109    0.2071 N   0  0  0  0  0  0  0  0  0  0  0  0
   -2.7449    0.9501   -1.4189 H   0  0  0  0  0  0  0  0  0  0  0  0
   -3.6771    1.4950    0.0223 H   0  0  0  0  0  0  0  0  0  0  0  0
   -1.9334    1.0038    1.5132 H   0  0  0  0  0  0  0  0  0  0  0  0
   -0.9403    1.4391    0.1284 H   0  0  0  0  0  0  0  0  0  0  0  0
   -0.5610   -0.6076   -1.5289 H   0  0  0  0  0  0  0  0  0  0  0  0
   -0.0701   -2.0367   -0.6308 H   0  0  0  0  0  0  0  0  0  0  0  0
    1.2685   -1.3016    1.7357 H   0  0  0  0  0  0  0  0  0  0  0  0
    3.4783   -0.3395    2.2711 H   0  0  0  0  0  0  0  0  0  0  0  0
    3.5269    1.6843   -1.5273 H   0  0  0  0  0  0  0  0  0  0  0  0
    1.3221    0.7294   -2.0753 H   0  0  0  0  0  0  0  0  0  0  0  0
   -2.5601   -2.3738    0.4948 H   0  0  0  0  0  0  0  0  0  0  0  0
  1  2  2  0
  2  3  1  0
  3  4  1  0
  4  5  1  0
  5  6  1  0
  6  7  1  0
  7  8  2  0
  8  9  1  0
  9 10  2  0
 10 11  1  0
 10 12  1  0
 12 13  2  0
  5 14  1  0
 14  2  1  0
 13  7  1  0
  3 15  1  0
  3 16  1  0
  4 17  1  0
  4 18  1  0
  6 19  1  0
  6 20  1  0
  8 21  1  0
  9 22  1  0
 12 23  1  0
 13 24  1  0
 14 25  1  0
M  END
$$$$
