
     RDKit          3D

 40 42  0  0  0  0  0  0  0  0999 V2000
   -2.3383   -0.2496   -1.7291 C   0  0  0  0  0  0  0  0  0  0  0  0
   -2.8992   -0.3268   -0.3778 N   0  0  0  0  0  0  0  0  0  0  0  0
   -2.1229   -0.8498    0.6741 C   0  0  0  0  0  0  0  0  0  0  0  0
   -2.5476   -1.4574    1.6551 O   0  0  0  0  0  0  0  0  0  0  0  0
   -0.6495   -0.6615    0.6198 C   0  0  0  0  0  0  0  0  0  0  0  0
   -0.0956    0.5938    0.3506 C   0  0  0  0  0  0  0  0  0  0  0  0
    1.2946    0.7557    0.3262 C   0  0  0  0  0  0  0  0  0  0  0  0
    2.1393   -0.3263    0.5883 C   0  0  0  0  0  0  0  0  0  0  0  0
    3.5434   -0.2468    0.5839 N   0  0  0  0  0  0  0  0  0  0  0  0
    4.3442    0.8468    0.3038 C   0  0  0  0  0  0  0  0  0  0  0  0
    3.9422    1.9624   -0.0096 O   0  0  0  0  0  0  0  0  0  0  0  0
    5.7603    0.5407    0.4124 C   0  0  0  0  0  0  0  0  0  0  0  0
    6.8794    1.3297    0.2241 C   0  0  0  0  0  0  0  0  0  0  0  0
    8.0052    0.5065    0.4648 C   0  0  0  0  0  0  0  0  0  0  0  0
    7.5100   -0.7350    0.7851 C   0  0  0  0  0  0  0  0  0  0  0  0
    6.1521   -0.7297    0.7568 O   0  0  0  0  0  0  0  0  0  0  0  0
    1.5738   -1.5741    0.8865 C   0  0  0  0  0  0  0  0  0  0  0  0
    0.1862   -1.7422    0.9094 C   0  0  0  0  0  0  0  0  0  0  0  0
   -4.2991   -0.0013   -0.2094 C   0  0  0  0  0  0  0  0  0  0  0  0
   -5.1083    0.3406   -1.3090 C   0  0  0  0  0  0  0  0  0  0  0  0
   -6.4588    0.6804   -1.1524 C   0  0  0  0  0  0  0  0  0  0  0  0
   -7.0325    0.6991    0.1121 C   0  0  0  0  0  0  0  0  0  0  0  0
   -6.2526    0.3856    1.2177 C   0  0  0  0  0  0  0  0  0  0  0  0
   -4.9026    0.0464    1.0570 C   0  0  0  0  0  0  0  0  0  0  0  0
   -2.9246   -0.8810   -2.4049 H   0  0  0  0  0  0  0  0  0  0  0  0
   -1.3156   -0.6296   -1.7828 H   0  0  0  0  0  0  0  0  0  0  0  0
   -2.3473    0.7910   -2.0675 H   0  0  0  0  0  0  0  0  0  0  0  0
   -0.7362    1.4541    0.1717 H   0  0  0  0  0  0  0  0  0  0  0  0
    1.6840    1.7462    0.1115 H   0  0  0  0  0  0  0  0  0  0  0  0
    4.0557   -1.0927    0.8120 H   0  0  0  0  0  0  0  0  0  0  0  0
    6.8686    2.3754   -0.0535 H   0  0  0  0  0  0  0  0  0  0  0  0
    9.0488    0.7840    0.4119 H   0  0  0  0  0  0  0  0  0  0  0  0
    7.9697   -1.6788    1.0454 H   0  0  0  0  0  0  0  0  0  0  0  0
    2.2033   -2.4318    1.1112 H   0  0  0  0  0  0  0  0  0  0  0  0
   -0.2415   -2.7115    1.1568 H   0  0  0  0  0  0  0  0  0  0  0  0
   -4.7222    0.3526   -2.3229 H   0  0  0  0  0  0  0  0  0  0  0  0
   -7.0583    0.9314   -2.0237 H   0  0  0  0  0  0  0  0  0  0  0  0
   -8.0792    0.9616    0.2373 H   0  0  0  0  0  0  0  0  0  0  0  0
   -6.6856    0.4053    2.2147 H   0  0  0  0  0  0  0  0  0  0  0  0
   -4.3434   -0.1632    1.9638 H   0  0  0  0  0  0  0  0  0  0  0  0
  1  2  1  0
  2  3  1  0
  3  4  2  0
  3  5  1  0
  5  6  2  0
  6  7  1  0
  7  8  2  0
  8  9  1  0
  9 10  1  0
 10 11  2  0
 10 12  1  0
 12 13  2  0
 13 14  1  0
 14 15  2  0
 15 16  1  0
  8 17  1  0
 17 18  2  0
  2 19  1  0
 19 20  2  0
 20 21  1  0
 21 22  2  0
 22 23  1  0
 23 24  2  0
 18  5  1  0
 24 19  1  0
 16 12  1  0
  1 25  1  0
  1 26  1  0
  1 27  1  0
  6 28  1  0
  7 29  1  0
  9 30  1  0
 13 31  1  0
 14 32  1  0
 15 33  1  0
 17 34  1  0
 18 35  1  0
 20 36  1  0
 21 37  1  0
 22 38  1  0
 23 39  1  0
 24 40  1  0
M  END
$$$$
