
     RDKit          3D

 27 27  0  0  0  0  0  0  0  0999 V2000
   -5.4905   -1.6501    0.6459 C   0  0  0  0  0  0  0  0  0  0  0  0
   -4.7278   -0.8707   -0.1326 C   0  0  0  0  0  0  0  0  0  0  0  0
   -4.2237    0.4828    0.2524 C   0  0  0  0  0  0  0  0  0  0  0  0
   -2.7991    0.3848    0.4086 N   0  0  0  0  0  0  0  0  0  0  0  0
   -1.9103    0.8048   -0.5523 C   0  0  0  0  0  0  0  0  0  0  0  0
   -2.1881    1.3723   -1.5993 O   0  0  0  0  0  0  0  0  0  0  0  0
   -0.4380    0.4893   -0.2164 C   0  0  0  0  0  0  0  0  0  0  0  0
   -0.1758   -0.1188    0.8132 O   0  0  0  0  0  0  0  0  0  0  0  0
    0.4251    0.9555   -1.1925 N   0  0  0  0  0  0  0  0  0  0  0  0
    1.7727    0.7196   -1.2919 N   0  0  0  0  0  0  0  0  0  0  0  0
    2.4540    0.4325   -0.2281 C   0  0  0  0  0  0  0  0  0  0  0  0
    3.8625    0.1424   -0.2978 C   0  0  0  0  0  0  0  0  0  0  0  0
    4.7714   -0.1802    0.6925 C   0  0  0  0  0  0  0  0  0  0  0  0
    6.0221   -0.3623    0.0531 C   0  0  0  0  0  0  0  0  0  0  0  0
    5.8020   -0.1405   -1.2852 C   0  0  0  0  0  0  0  0  0  0  0  0
    4.4989    0.1656   -1.5082 O   0  0  0  0  0  0  0  0  0  0  0  0
   -5.7936   -1.3442    1.6424 H   0  0  0  0  0  0  0  0  0  0  0  0
   -5.8287   -2.6209    0.2954 H   0  0  0  0  0  0  0  0  0  0  0  0
   -4.4600   -1.2213   -1.1277 H   0  0  0  0  0  0  0  0  0  0  0  0
   -4.4832    1.2173   -0.5161 H   0  0  0  0  0  0  0  0  0  0  0  0
   -4.6381    0.8160    1.2091 H   0  0  0  0  0  0  0  0  0  0  0  0
   -2.4174   -0.1488    1.1845 H   0  0  0  0  0  0  0  0  0  0  0  0
   -0.0106    1.3138   -2.0438 H   0  0  0  0  0  0  0  0  0  0  0  0
    2.0218    0.4186    0.7844 H   0  0  0  0  0  0  0  0  0  0  0  0
    4.5554   -0.2739    1.7478 H   0  0  0  0  0  0  0  0  0  0  0  0
    6.9667   -0.6234    0.5091 H   0  0  0  0  0  0  0  0  0  0  0  0
    6.4324   -0.1601   -2.1633 H   0  0  0  0  0  0  0  0  0  0  0  0
  1  2  2  0
  2  3  1  0
  3  4  1  0
  4  5  1  0
  5  6  2  0
  5  7  1  0
  7  8  2  0
  7  9  1  0
  9 10  1  0
 10 11  2  3
 11 12  1  0
 12 13  2  0
 13 14  1  0
 14 15  2  0
 15 16  1  0
 16 12  1  0
  1 17  1  0
  1 18  1  0
  2 19  1  0
  3 20  1  0
  3 21  1  0
  4 22  1  0
  9 23  1  0
 11 24  1  0
 13 25  1  0
 14 26  1  0
 15 27  1  0
M  END
$$$$
