
     RDKit          3D

 40 42  0  0  0  0  0  0  0  0999 V2000
   -2.6308    4.0537    3.8932 C   0  0  0  0  0  0  0  0  0  0  0  0
   -1.8516    3.4021    2.8970 O   0  0  0  0  0  0  0  0  0  0  0  0
   -2.0430    2.0544    2.7450 C   0  0  0  0  0  0  0  0  0  0  0  0
   -2.9217    1.2651    3.4813 C   0  0  0  0  0  0  0  0  0  0  0  0
   -3.0347   -0.1102    3.2388 C   0  0  0  0  0  0  0  0  0  0  0  0
   -2.2376   -0.6765    2.2323 C   0  0  0  0  0  0  0  0  0  0  0  0
   -1.3452    0.0874    1.4753 C   0  0  0  0  0  0  0  0  0  0  0  0
   -1.2554    1.4712    1.7438 C   0  0  0  0  0  0  0  0  0  0  0  0
   -0.7034   -0.7981    0.5526 C   0  0  0  0  0  0  0  0  0  0  0  0
    0.2902   -0.4374   -0.4116 C   0  0  0  0  0  0  0  0  0  0  0  0
    0.8605   -1.2604   -1.3084 C   0  0  0  0  0  0  0  0  0  0  0  0
    1.8742   -0.8245   -2.2747 C   0  0  0  0  0  0  0  0  0  0  0  0
    1.8056   -1.2832   -3.5884 C   0  0  0  0  0  0  0  0  0  0  0  0
    2.7727   -0.8913   -4.5075 C   0  0  0  0  0  0  0  0  0  0  0  0
    3.7841   -0.0754   -4.1363 N   0  0  0  0  0  4  0  0  0  0  0  0
    4.8055    0.3235   -5.1194 C   0  0  0  0  0  0  0  0  0  0  0  0
    3.8850    0.3626   -2.8615 C   0  0  0  0  0  0  0  0  0  0  0  0
    2.9395   -0.0021   -1.9103 C   0  0  0  0  0  0  0  0  0  0  0  0
   -1.2147   -2.0598    0.7699 C   0  0  0  0  0  0  0  0  0  0  0  0
   -2.1373   -1.9753    1.7817 N   0  0  0  0  0  0  0  0  0  0  0  0
   -2.8948   -3.0925    2.3020 C   0  0  0  0  0  0  0  0  0  0  0  0
   -3.7002    3.9786    3.6694 H   0  0  0  0  0  0  0  0  0  0  0  0
   -2.4055    3.6607    4.8901 H   0  0  0  0  0  0  0  0  0  0  0  0
   -2.3627    5.1146    3.8855 H   0  0  0  0  0  0  0  0  0  0  0  0
   -3.5449    1.6871    4.2638 H   0  0  0  0  0  0  0  0  0  0  0  0
   -3.7248   -0.7125    3.8217 H   0  0  0  0  0  0  0  0  0  0  0  0
   -0.5751    2.0976    1.1757 H   0  0  0  0  0  0  0  0  0  0  0  0
    0.5834    0.6103   -0.4036 H   0  0  0  0  0  0  0  0  0  0  0  0
    0.5646   -2.3054   -1.3644 H   0  0  0  0  0  0  0  0  0  0  0  0
    0.9961   -1.9383   -3.9066 H   0  0  0  0  0  0  0  0  0  0  0  0
    2.7454   -1.2281   -5.5400 H   0  0  0  0  0  0  0  0  0  0  0  0
    5.0753    1.3678   -4.9414 H   0  0  0  0  0  0  0  0  0  0  0  0
    5.6676   -0.3335   -4.9807 H   0  0  0  0  0  0  0  0  0  0  0  0
    4.4009    0.2205   -6.1287 H   0  0  0  0  0  0  0  0  0  0  0  0
    4.7286    1.0005   -2.6123 H   0  0  0  0  0  0  0  0  0  0  0  0
    3.0474    0.3518   -0.8863 H   0  0  0  0  0  0  0  0  0  0  0  0
   -1.0051   -3.0107    0.2994 H   0  0  0  0  0  0  0  0  0  0  0  0
   -2.6186   -4.0038    1.7658 H   0  0  0  0  0  0  0  0  0  0  0  0
   -2.6615   -3.2039    3.3640 H   0  0  0  0  0  0  0  0  0  0  0  0
   -3.9581   -2.8865    2.1569 H   0  0  0  0  0  0  0  0  0  0  0  0
  1  2  1  0
  2  3  1  0
  3  4  2  0
  4  5  1  0
  5  6  2  0
  6  7  1  0
  7  8  2  0
  7  9  1  0
  9 10  1  0
 10 11  2  3
 11 12  1  0
 12 13  2  0
 13 14  1  0
 14 15  2  0
 15 16  1  0
 15 17  1  0
 17 18  2  0
  9 19  2  0
 19 20  1  0
 20 21  1  0
  8  3  1  0
 18 12  1  0
 20  6  1  0
  1 22  1  0
  1 23  1  0
  1 24  1  0
  4 25  1  0
  5 26  1  0
  8 27  1  0
 10 28  1  0
 11 29  1  0
 13 30  1  0
 14 31  1  0
 16 32  1  0
 16 33  1  0
 16 34  1  0
 17 35  1  0
 18 36  1  0
 19 37  1  0
 21 38  1  0
 21 39  1  0
 21 40  1  0
M  CHG  1  15   1
M  END
$$$$
