
     RDKit          3D

 60 63  0  0  0  0  0  0  0  0999 V2000
    2.8255    2.3410   -3.3654 C   0  0  0  0  0  0  0  0  0  0  0  0
    4.0570    2.1857   -2.4904 C   0  0  0  0  0  0  0  0  0  0  0  0
    3.6833    1.4180   -1.3477 O   0  0  0  0  0  0  0  0  0  0  0  0
    4.6429    1.1657   -0.4020 C   0  0  0  0  0  0  0  0  0  0  0  0
    5.9714    1.5977   -0.4860 C   0  0  0  0  0  0  0  0  0  0  0  0
    6.8818    1.2996    0.5340 C   0  0  0  0  0  0  0  0  0  0  0  0
    6.4770    0.5686    1.6480 C   0  0  0  0  0  0  0  0  0  0  0  0
    5.1585    0.1301    1.7458 C   0  0  0  0  0  0  0  0  0  0  0  0
    4.2447    0.4247    0.7250 C   0  0  0  0  0  0  0  0  0  0  0  0
    2.8497   -0.0521    0.8414 C   0  0  0  0  0  0  0  0  0  0  0  0
    2.4196   -0.6745    1.8940 N   0  0  0  0  0  0  0  0  0  0  0  0
    1.1026   -1.0370    1.8495 N   0  0  0  0  0  0  0  0  0  0  0  0
    0.5375   -1.7813    2.8729 C   0  0  0  0  0  0  0  0  0  0  0  0
    1.1590   -2.1800    3.8557 O   0  0  0  0  0  0  0  0  0  0  0  0
   -0.8824   -2.1031    2.6914 C   0  0  0  0  0  0  0  0  0  0  0  0
   -1.4123   -3.2192    3.2803 N   0  0  0  0  0  0  0  0  0  0  0  0
   -2.6925   -3.2873    2.9785 N   0  0  0  0  0  0  0  0  0  0  0  0
   -3.0396   -2.2018    2.2343 N   0  0  0  0  0  0  0  0  0  0  0  0
   -4.3884   -2.0250    1.8253 C   0  0  0  0  0  0  0  0  0  0  0  0
   -4.7687   -0.9818    1.0890 N   0  0  0  0  0  0  0  0  0  0  0  0
   -6.1338   -1.1768    0.8932 O   0  0  0  0  0  0  0  0  0  0  0  0
   -6.5709   -2.3394    1.5150 N   0  0  0  0  0  0  0  0  0  0  0  0
   -5.4923   -2.8591    2.0995 C   0  0  0  0  0  0  0  0  0  0  0  0
   -5.4940   -3.9918    2.8229 N   0  0  0  0  0  0  0  0  0  0  0  0
   -1.8951   -1.4281    2.0074 C   0  0  0  0  0  0  0  0  0  0  0  0
   -1.8601   -0.1316    1.2692 C   0  0  0  0  0  0  0  0  0  0  0  0
   -0.9271   -0.1851    0.1254 N   0  0  0  0  0  0  0  0  0  0  0  0
   -1.4105   -1.0225   -0.9906 C   0  0  0  0  0  0  0  0  0  0  0  0
   -2.5553   -0.4168   -1.8078 C   0  0  0  0  0  0  0  0  0  0  0  0
   -2.2130    0.9913   -2.3029 C   0  0  0  0  0  0  0  0  0  0  0  0
   -3.4057    1.6281   -3.0111 C   0  0  0  0  0  0  0  0  0  0  0  0
   -1.7418    1.8582   -1.1318 C   0  0  0  0  0  0  0  0  0  0  0  0
   -0.6082    1.1733   -0.3663 C   0  0  0  0  0  0  0  0  0  0  0  0
    2.4424    1.3611   -3.6694 H   0  0  0  0  0  0  0  0  0  0  0  0
    3.0545    2.9247   -4.2614 H   0  0  0  0  0  0  0  0  0  0  0  0
    2.0212    2.8395   -2.8139 H   0  0  0  0  0  0  0  0  0  0  0  0
    4.4062    3.1787   -2.1853 H   0  0  0  0  0  0  0  0  0  0  0  0
    4.8376    1.6669   -3.0583 H   0  0  0  0  0  0  0  0  0  0  0  0
    6.3365    2.1705   -1.3322 H   0  0  0  0  0  0  0  0  0  0  0  0
    7.9119    1.6407    0.4577 H   0  0  0  0  0  0  0  0  0  0  0  0
    7.1853    0.3380    2.4400 H   0  0  0  0  0  0  0  0  0  0  0  0
    4.8465   -0.4429    2.6173 H   0  0  0  0  0  0  0  0  0  0  0  0
    2.1823    0.1423   -0.0140 H   0  0  0  0  0  0  0  0  0  0  0  0
    0.5391   -0.7897    1.0338 H   0  0  0  0  0  0  0  0  0  0  0  0
   -4.6361   -4.4125    3.1786 H   0  0  0  0  0  0  0  0  0  0  0  0
   -6.3196   -4.5785    2.8658 H   0  0  0  0  0  0  0  0  0  0  0  0
   -2.8338    0.2445    0.9654 H   0  0  0  0  0  0  0  0  0  0  0  0
   -1.4867    0.6088    1.9912 H   0  0  0  0  0  0  0  0  0  0  0  0
   -0.5607   -1.2016   -1.6628 H   0  0  0  0  0  0  0  0  0  0  0  0
   -1.7017   -2.0169   -0.6330 H   0  0  0  0  0  0  0  0  0  0  0  0
   -2.7659   -1.0675   -2.6653 H   0  0  0  0  0  0  0  0  0  0  0  0
   -3.4709   -0.3895   -1.2087 H   0  0  0  0  0  0  0  0  0  0  0  0
   -1.3915    0.9126   -3.0277 H   0  0  0  0  0  0  0  0  0  0  0  0
   -3.1466    2.6229   -3.3885 H   0  0  0  0  0  0  0  0  0  0  0  0
   -4.2609    1.7346   -2.3350 H   0  0  0  0  0  0  0  0  0  0  0  0
   -3.7220    1.0175   -3.8633 H   0  0  0  0  0  0  0  0  0  0  0  0
   -2.5777    2.0736   -0.4552 H   0  0  0  0  0  0  0  0  0  0  0  0
   -1.3874    2.8256   -1.5080 H   0  0  0  0  0  0  0  0  0  0  0  0
    0.2634    1.0991   -1.0294 H   0  0  0  0  0  0  0  0  0  0  0  0
   -0.2840    1.8096    0.4663 H   0  0  0  0  0  0  0  0  0  0  0  0
  1  2  1  0
  2  3  1  0
  3  4  1  0
  4  5  2  0
  5  6  1  0
  6  7  2  0
  7  8  1  0
  8  9  2  0
  9 10  1  0
 10 11  2  3
 11 12  1  0
 12 13  1  0
 13 14  2  0
 13 15  1  0
 15 16  1  0
 16 17  2  0
 17 18  1  0
 18 19  1  0
 19 20  2  0
 20 21  1  0
 21 22  1  0
 22 23  2  0
 23 24  1  0
 18 25  1  0
 25 26  1  0
 26 27  1  0
 27 28  1  0
 28 29  1  0
 29 30  1  0
 30 31  1  0
 30 32  1  0
 32 33  1  0
  9  4  1  0
 25 15  2  0
 33 27  1  0
 23 19  1  0
  1 34  1  0
  1 35  1  0
  1 36  1  0
  2 37  1  0
  2 38  1  0
  5 39  1  0
  6 40  1  0
  7 41  1  0
  8 42  1  0
 10 43  1  0
 12 44  1  0
 24 45  1  0
 24 46  1  0
 26 47  1  0
 26 48  1  0
 28 49  1  0
 28 50  1  0
 29 51  1  0
 29 52  1  0
 30 53  1  0
 31 54  1  0
 31 55  1  0
 31 56  1  0
 32 57  1  0
 32 58  1  0
 33 59  1  0
 33 60  1  0
M  END
$$$$
