
     RDKit          3D

 46 49  0  0  0  0  0  0  0  0999 V2000
    3.0702    2.7859   -0.4577 O   0  0  0  0  0  0  0  0  0  0  0  0
    2.9690    1.9050    0.3957 C   0  0  0  0  0  0  0  0  0  0  0  0
    3.1794    2.2265    1.8721 C   0  0  0  0  0  0  0  0  0  0  0  0
    1.5869    2.5727    2.6911 S   0  0  0  0  0  0  0  0  0  0  0  0
    0.9071    0.9844    2.6962 C   0  0  0  0  0  0  0  0  0  0  0  0
    1.6059   -0.1236    2.7642 N   0  0  0  0  0  0  0  0  0  0  0  0
    0.7409   -1.1718    2.6046 N   0  0  0  0  0  0  0  0  0  0  0  0
   -0.4781   -0.6883    2.4477 C   0  0  0  0  0  0  0  0  0  0  0  0
   -1.7137   -1.5081    2.2723 C   0  0  0  0  0  0  0  0  0  0  0  0
   -1.7644   -2.2095    0.9455 C   0  0  0  0  0  0  0  0  0  0  0  0
   -2.3116   -1.7668   -0.2432 C   0  0  0  0  0  0  0  0  0  0  0  0
   -2.1969   -2.7277   -1.2891 C   0  0  0  0  0  0  0  0  0  0  0  0
   -1.5614   -3.8741   -0.8667 C   0  0  0  0  0  0  0  0  0  0  0  0
   -1.1121   -3.7891    0.7795 S   0  0  0  0  0  0  0  0  0  0  0  0
   -0.4145    0.6917    2.5277 N   0  0  0  0  0  0  0  0  0  0  0  0
   -1.5244    1.6245    2.5245 C   0  0  0  0  0  0  0  0  0  0  0  0
   -2.0621    1.8621    1.1612 C   0  0  0  0  0  0  0  0  0  0  0  0
   -3.3457    2.0037    0.6692 C   0  0  0  0  0  0  0  0  0  0  0  0
   -3.2148    2.2430   -0.7217 C   0  0  0  0  0  0  0  0  0  0  0  0
   -1.8646    2.2362   -0.9899 C   0  0  0  0  0  0  0  0  0  0  0  0
   -1.1589    2.0126    0.1486 O   0  0  0  0  0  0  0  0  0  0  0  0
    2.6565    0.5748    0.1622 N   0  0  0  0  0  0  0  0  0  0  0  0
    2.3740   -0.0380   -1.0711 C   0  0  0  0  0  0  0  0  0  0  0  0
    1.8902   -1.3531   -1.0297 C   0  0  0  0  0  0  0  0  0  0  0  0
    1.5799   -2.0339   -2.2102 C   0  0  0  0  0  0  0  0  0  0  0  0
    1.7677   -1.4055   -3.4399 C   0  0  0  0  0  0  0  0  0  0  0  0
    1.3520   -2.3223   -5.0401 Br  0  0  0  0  0  0  0  0  0  0  0  0
    2.2592   -0.1041   -3.4975 C   0  0  0  0  0  0  0  0  0  0  0  0
    2.5605    0.5788   -2.3118 C   0  0  0  0  0  0  0  0  0  0  0  0
    3.7146    1.4136    2.3767 H   0  0  0  0  0  0  0  0  0  0  0  0
    3.8116    3.1167    1.9422 H   0  0  0  0  0  0  0  0  0  0  0  0
   -1.7514   -2.2462    3.0889 H   0  0  0  0  0  0  0  0  0  0  0  0
   -2.6174   -0.8992    2.3877 H   0  0  0  0  0  0  0  0  0  0  0  0
   -2.7797   -0.8001   -0.3639 H   0  0  0  0  0  0  0  0  0  0  0  0
   -2.5637   -2.5839   -2.2994 H   0  0  0  0  0  0  0  0  0  0  0  0
   -1.3403   -4.7605   -1.4488 H   0  0  0  0  0  0  0  0  0  0  0  0
   -1.2067    2.5710    2.9702 H   0  0  0  0  0  0  0  0  0  0  0  0
   -2.2979    1.2133    3.1849 H   0  0  0  0  0  0  0  0  0  0  0  0
   -4.2639    1.9496    1.2380 H   0  0  0  0  0  0  0  0  0  0  0  0
   -4.0047    2.4047   -1.4415 H   0  0  0  0  0  0  0  0  0  0  0  0
   -1.2759    2.3709   -1.8891 H   0  0  0  0  0  0  0  0  0  0  0  0
    2.4899   -0.0077    0.9887 H   0  0  0  0  0  0  0  0  0  0  0  0
    1.7316   -1.8586   -0.0761 H   0  0  0  0  0  0  0  0  0  0  0  0
    1.2004   -3.0505   -2.1528 H   0  0  0  0  0  0  0  0  0  0  0  0
    2.4264    0.3919   -4.4545 H   0  0  0  0  0  0  0  0  0  0  0  0
    2.9511    1.5893   -2.3933 H   0  0  0  0  0  0  0  0  0  0  0  0
  1  2  2  0
  2  3  1  0
  3  4  1  0
  4  5  1  0
  5  6  2  0
  6  7  1  0
  7  8  2  0
  8  9  1  0
  9 10  1  0
 10 11  2  0
 11 12  1  0
 12 13  2  0
 13 14  1  0
  8 15  1  0
 15 16  1  0
 16 17  1  0
 17 18  2  0
 18 19  1  0
 19 20  2  0
 20 21  1  0
  2 22  1  0
 22 23  1  0
 23 24  2  0
 24 25  1  0
 25 26  2  0
 26 27  1  0
 26 28  1  0
 28 29  2  0
 15  5  1  0
 21 17  1  0
 29 23  1  0
 14 10  1  0
  3 30  1  0
  3 31  1  0
  9 32  1  0
  9 33  1  0
 11 34  1  0
 12 35  1  0
 13 36  1  0
 16 37  1  0
 16 38  1  0
 18 39  1  0
 19 40  1  0
 20 41  1  0
 22 42  1  0
 24 43  1  0
 25 44  1  0
 28 45  1  0
 29 46  1  0
M  END
$$$$
