
     RDKit          3D

 51 54  0  0  0  0  0  0  0  0999 V2000
    5.9323    2.0670   -4.0054 C   0  0  0  0  0  0  0  0  0  0  0  0
    5.7928    1.3882   -2.6513 C   0  0  0  0  0  0  0  0  0  0  0  0
    4.3731    1.4267   -2.1491 C   0  0  0  0  0  0  0  0  0  0  0  0
    3.9178    2.5000   -1.3807 C   0  0  0  0  0  0  0  0  0  0  0  0
    2.5919    2.5436   -0.9316 C   0  0  0  0  0  0  0  0  0  0  0  0
    1.6781    1.5209   -1.2367 C   0  0  0  0  0  0  0  0  0  0  0  0
    0.3061    1.5768   -0.7658 N   0  0  0  0  0  0  0  0  0  0  0  0
   -0.3179    2.8289   -0.7027 C   0  0  0  0  0  0  0  0  0  0  0  0
    0.1430    3.8869   -1.1343 O   0  0  0  0  0  0  0  0  0  0  0  0
   -1.6691    2.8873   -0.1242 C   0  0  0  0  0  0  0  0  0  0  0  0
   -2.2788    4.1387    0.0782 C   0  0  0  0  0  0  0  0  0  0  0  0
   -3.5589    4.2183    0.6171 C   0  0  0  0  0  0  0  0  0  0  0  0
   -4.2279    3.0496    0.9560 C   0  0  0  0  0  0  0  0  0  0  0  0
   -3.6197    1.8061    0.7488 C   0  0  0  0  0  0  0  0  0  0  0  0
   -2.3312    1.7088    0.1968 C   0  0  0  0  0  0  0  0  0  0  0  0
   -1.6850    0.4706   -0.0376 N   0  0  0  0  0  0  0  0  0  0  0  0
   -2.3480   -0.7978    0.2733 C   0  0  0  0  0  0  0  0  0  0  0  0
   -2.1241   -1.2119    1.7326 C   0  0  0  0  0  0  0  0  0  0  0  0
   -2.0770   -0.4098    2.6624 O   0  0  0  0  0  0  0  0  0  0  0  0
   -2.0569   -2.5757    1.9262 N   0  0  0  0  0  0  0  0  0  0  0  0
   -1.7183   -3.0998    3.2294 C   0  0  0  0  0  0  0  0  0  0  0  0
   -1.9472   -4.5645    3.2290 C   0  0  0  0  0  0  0  0  0  0  0  0
   -2.6795   -5.4083    4.0387 C   0  0  0  0  0  0  0  0  0  0  0  0
   -2.4924   -6.7156    3.5278 C   0  0  0  0  0  0  0  0  0  0  0  0
   -1.6656   -6.5871    2.4373 C   0  0  0  0  0  0  0  0  0  0  0  0
   -1.3280   -5.2856    2.2465 O   0  0  0  0  0  0  0  0  0  0  0  0
   -0.3481    0.3818   -0.4321 C   0  0  0  0  0  0  0  0  0  0  0  0
    0.1925   -0.7303   -0.4427 O   0  0  0  0  0  0  0  0  0  0  0  0
    2.1503    0.4524   -2.0157 C   0  0  0  0  0  0  0  0  0  0  0  0
    3.4757    0.4053   -2.4678 C   0  0  0  0  0  0  0  0  0  0  0  0
    5.3080    1.5780   -4.7614 H   0  0  0  0  0  0  0  0  0  0  0  0
    5.6350    3.1200   -3.9547 H   0  0  0  0  0  0  0  0  0  0  0  0
    6.9724    2.0242   -4.3447 H   0  0  0  0  0  0  0  0  0  0  0  0
    6.1312    0.3473   -2.7220 H   0  0  0  0  0  0  0  0  0  0  0  0
    6.4549    1.8732   -1.9238 H   0  0  0  0  0  0  0  0  0  0  0  0
    4.5895    3.3154   -1.1210 H   0  0  0  0  0  0  0  0  0  0  0  0
    2.3005    3.3904   -0.3143 H   0  0  0  0  0  0  0  0  0  0  0  0
   -1.7532    5.0556   -0.1837 H   0  0  0  0  0  0  0  0  0  0  0  0
   -4.0263    5.1867    0.7773 H   0  0  0  0  0  0  0  0  0  0  0  0
   -5.2228    3.0997    1.3927 H   0  0  0  0  0  0  0  0  0  0  0  0
   -4.1810    0.9315    1.0622 H   0  0  0  0  0  0  0  0  0  0  0  0
   -3.4211   -0.7483    0.0665 H   0  0  0  0  0  0  0  0  0  0  0  0
   -1.9616   -1.5817   -0.3896 H   0  0  0  0  0  0  0  0  0  0  0  0
   -1.7756   -3.1534    1.1422 H   0  0  0  0  0  0  0  0  0  0  0  0
   -0.6655   -2.8724    3.4291 H   0  0  0  0  0  0  0  0  0  0  0  0
   -2.3288   -2.6029    3.9910 H   0  0  0  0  0  0  0  0  0  0  0  0
   -3.2731   -5.1139    4.8938 H   0  0  0  0  0  0  0  0  0  0  0  0
   -2.9083   -7.6384    3.9075 H   0  0  0  0  0  0  0  0  0  0  0  0
   -1.2422   -7.2886    1.7313 H   0  0  0  0  0  0  0  0  0  0  0  0
    1.4921   -0.3568   -2.3213 H   0  0  0  0  0  0  0  0  0  0  0  0
    3.7957   -0.4370   -3.0774 H   0  0  0  0  0  0  0  0  0  0  0  0
  1  2  1  0
  2  3  1  0
  3  4  2  0
  4  5  1  0
  5  6  2  0
  6  7  1  0
  7  8  1  0
  8  9  2  0
  8 10  1  0
 10 11  2  0
 11 12  1  0
 12 13  2  0
 13 14  1  0
 14 15  2  0
 15 16  1  0
 16 17  1  0
 17 18  1  0
 18 19  2  0
 18 20  1  0
 20 21  1  0
 21 22  1  0
 22 23  2  0
 23 24  1  0
 24 25  2  0
 25 26  1  0
 16 27  1  0
 27 28  2  0
  6 29  1  0
 29 30  2  0
 30  3  1  0
 27  7  1  0
 15 10  1  0
 26 22  1  0
  1 31  1  0
  1 32  1  0
  1 33  1  0
  2 34  1  0
  2 35  1  0
  4 36  1  0
  5 37  1  0
 11 38  1  0
 12 39  1  0
 13 40  1  0
 14 41  1  0
 17 42  1  0
 17 43  1  0
 20 44  1  0
 21 45  1  0
 21 46  1  0
 23 47  1  0
 24 48  1  0
 25 49  1  0
 29 50  1  0
 30 51  1  0
M  END
$$$$
