
     RDKit          3D

 43 44  0  0  0  0  0  0  0  0999 V2000
   -2.7952    2.6609    1.2061 C   0  0  0  0  0  0  0  0  0  0  0  0
   -2.7733    1.1748    1.5070 C   0  0  0  0  0  0  0  0  0  0  0  0
   -3.2933    0.4206    0.3356 N   0  0  0  0  0  4  0  0  0  0  0  0
   -4.6317    0.2048    0.2647 C   0  0  0  0  0  0  0  0  0  0  0  0
   -5.2025   -0.5118   -0.7848 C   0  0  0  0  0  0  0  0  0  0  0  0
   -6.6814   -0.7633   -0.8249 C   0  0  0  0  0  0  0  0  0  0  0  0
   -4.3677   -1.0378   -1.7636 C   0  0  0  0  0  0  0  0  0  0  0  0
   -2.9993   -0.8139   -1.6866 C   0  0  0  0  0  0  0  0  0  0  0  0
   -2.4636   -0.0762   -0.6237 C   0  0  0  0  0  0  0  0  0  0  0  0
   -1.0214    0.1775   -0.5726 C   0  0  0  0  0  0  0  0  0  0  0  0
   -0.1254   -0.8118   -0.4264 C   0  0  0  0  0  0  0  0  0  0  0  0
    1.3277   -0.5954   -0.3976 C   0  0  0  0  0  0  0  0  0  0  0  0
    1.9179    0.5107    0.2126 C   0  0  0  0  0  0  0  0  0  0  0  0
    3.3147    0.6585    0.2309 C   0  0  0  0  0  0  0  0  0  0  0  0
    4.1820   -0.2899   -0.3372 C   0  0  0  0  0  0  0  0  0  0  0  0
    5.5686   -0.1217   -0.3373 N   0  0  0  0  0  0  0  0  0  0  0  0
    6.1751    0.8489    0.5733 C   0  0  0  0  0  0  0  0  0  0  0  0
    6.4307   -1.2333   -0.7385 C   0  0  0  0  0  0  0  0  0  0  0  0
    3.5601   -1.3957   -0.9400 C   0  0  0  0  0  0  0  0  0  0  0  0
    2.1654   -1.5555   -0.9631 C   0  0  0  0  0  0  0  0  0  0  0  0
   -2.4174    3.2267    2.0630 H   0  0  0  0  0  0  0  0  0  0  0  0
   -2.1764    2.9029    0.3370 H   0  0  0  0  0  0  0  0  0  0  0  0
   -3.8126    3.0044    0.9931 H   0  0  0  0  0  0  0  0  0  0  0  0
   -3.4129    0.9414    2.3660 H   0  0  0  0  0  0  0  0  0  0  0  0
   -1.7690    0.8216    1.7557 H   0  0  0  0  0  0  0  0  0  0  0  0
   -5.2421    0.6187    1.0638 H   0  0  0  0  0  0  0  0  0  0  0  0
   -6.9170   -1.6938   -0.2994 H   0  0  0  0  0  0  0  0  0  0  0  0
   -7.0364   -0.8394   -1.8580 H   0  0  0  0  0  0  0  0  0  0  0  0
   -7.2298    0.0586   -0.3526 H   0  0  0  0  0  0  0  0  0  0  0  0
   -4.7741   -1.6177   -2.5923 H   0  0  0  0  0  0  0  0  0  0  0  0
   -2.3496   -1.2123   -2.4651 H   0  0  0  0  0  0  0  0  0  0  0  0
   -0.7108    1.2126   -0.6845 H   0  0  0  0  0  0  0  0  0  0  0  0
   -0.4383   -1.8523   -0.3463 H   0  0  0  0  0  0  0  0  0  0  0  0
    1.3192    1.2800    0.6906 H   0  0  0  0  0  0  0  0  0  0  0  0
    3.7074    1.5525    0.7067 H   0  0  0  0  0  0  0  0  0  0  0  0
    5.8460    1.8675    0.3416 H   0  0  0  0  0  0  0  0  0  0  0  0
    5.9347    0.6125    1.6157 H   0  0  0  0  0  0  0  0  0  0  0  0
    7.2669    0.8573    0.4806 H   0  0  0  0  0  0  0  0  0  0  0  0
    6.3051   -2.0894   -0.0665 H   0  0  0  0  0  0  0  0  0  0  0  0
    7.4880   -0.9464   -0.7153 H   0  0  0  0  0  0  0  0  0  0  0  0
    6.2264   -1.5409   -1.7697 H   0  0  0  0  0  0  0  0  0  0  0  0
    4.1488   -2.1746   -1.4164 H   0  0  0  0  0  0  0  0  0  0  0  0
    1.7566   -2.4405   -1.4460 H   0  0  0  0  0  0  0  0  0  0  0  0
  1  2  1  0
  2  3  1  0
  3  4  2  0
  4  5  1  0
  5  6  1  0
  5  7  2  0
  7  8  1  0
  8  9  2  0
  9 10  1  0
 10 11  2  3
 11 12  1  0
 12 13  2  0
 13 14  1  0
 14 15  2  0
 15 16  1  0
 16 17  1  0
 16 18  1  0
 15 19  1  0
 19 20  2  0
  9  3  1  0
 20 12  1  0
  1 21  1  0
  1 22  1  0
  1 23  1  0
  2 24  1  0
  2 25  1  0
  4 26  1  0
  6 27  1  0
  6 28  1  0
  6 29  1  0
  7 30  1  0
  8 31  1  0
 10 32  1  0
 11 33  1  0
 13 34  1  0
 14 35  1  0
 17 36  1  0
 17 37  1  0
 17 38  1  0
 18 39  1  0
 18 40  1  0
 18 41  1  0
 19 42  1  0
 20 43  1  0
M  CHG  1   3   1
M  END
$$$$
