
     RDKit          3D

 60 65  0  0  0  0  0  0  0  0999 V2000
    0.6575   -2.8015    2.8853 O   0  0  0  0  0  0  0  0  0  0  0  0
    1.3652   -1.9477    2.3640 C   0  0  0  0  0  0  0  0  0  0  0  0
    0.8581   -0.7553    1.8622 N   0  0  0  0  0  0  0  0  0  0  0  0
    1.6321    0.2337    1.2559 C   0  0  0  0  0  0  0  0  0  0  0  0
    0.8844    1.4646    0.7589 C   0  0  0  0  0  0  0  0  0  0  0  0
   -0.1013    1.0472   -0.3491 C   0  0  0  0  0  0  0  0  0  0  0  0
   -1.2645    2.0059   -0.5405 C   0  0  0  0  0  0  0  0  0  0  0  0
   -1.8630    2.4006    0.7553 N   0  0  0  0  0  0  0  0  0  0  0  0
   -2.8017    1.2483    1.6019 S   0  0  0  0  0  6  0  0  0  0  0  0
   -3.3931    1.9094    2.7441 O   0  0  0  0  0  0  0  0  0  0  0  0
   -1.9770    0.0664    1.7764 O   0  0  0  0  0  0  0  0  0  0  0  0
   -4.1061    0.8795    0.4632 C   0  0  0  0  0  0  0  0  0  0  0  0
   -5.0446    1.8742    0.1642 C   0  0  0  0  0  0  0  0  0  0  0  0
   -6.0808    1.5950   -0.7272 C   0  0  0  0  0  0  0  0  0  0  0  0
   -6.1770    0.3288   -1.3043 C   0  0  0  0  0  0  0  0  0  0  0  0
   -5.2224   -0.6542   -1.0137 C   0  0  0  0  0  0  0  0  0  0  0  0
   -4.1932   -0.3897   -0.1137 C   0  0  0  0  0  0  0  0  0  0  0  0
   -5.2407   -1.9066   -1.5718 O   0  0  0  0  0  0  0  0  0  0  0  0
   -6.1217   -1.9680   -2.6998 C   0  0  0  0  0  0  0  0  0  0  0  0
   -7.4402   -1.2779   -2.3921 C   0  0  0  0  0  0  0  0  0  0  0  0
   -7.2331    0.1195   -2.1537 O   0  0  0  0  0  0  0  0  0  0  0  0
   -0.8716    3.1297    1.5822 C   0  0  0  0  0  0  0  0  0  0  0  0
    0.2782    2.2111    1.9613 C   0  0  0  0  0  0  0  0  0  0  0  0
    2.9254    0.1604    1.0968 N   0  0  0  0  0  0  0  0  0  0  0  0
    3.4441   -0.9970    1.5763 C   0  0  0  0  0  0  0  0  0  0  0  0
    2.7901   -2.0397    2.1876 C   0  0  0  0  0  0  0  0  0  0  0  0
    3.6691   -3.0217    2.5294 N   0  0  0  0  0  0  0  0  0  0  0  0
    4.8807   -2.6227    2.1412 N   0  0  0  0  0  0  0  0  0  0  0  0
    4.7451   -1.4096    1.5506 N   0  0  0  0  0  0  0  0  0  0  0  0
    5.8964   -0.7024    1.0321 C   0  0  0  0  0  0  0  0  0  0  0  0
    6.0554   -0.9213   -0.4518 C   0  0  0  0  0  0  0  0  0  0  0  0
    6.6897   -2.0754   -0.9405 C   0  0  0  0  0  0  0  0  0  0  0  0
    6.8226   -2.2867   -2.3156 C   0  0  0  0  0  0  0  0  0  0  0  0
    6.3186   -1.3500   -3.2159 C   0  0  0  0  0  0  0  0  0  0  0  0
    5.6821   -0.2127   -2.7345 C   0  0  0  0  0  0  0  0  0  0  0  0
    5.1900    0.6843   -3.5992 F   0  0  0  0  0  0  0  0  0  0  0  0
    5.5444    0.0093   -1.3680 C   0  0  0  0  0  0  0  0  0  0  0  0
   -0.1509   -0.6460    1.9574 H   0  0  0  0  0  0  0  0  0  0  0  0
    1.6161    2.1423    0.2972 H   0  0  0  0  0  0  0  0  0  0  0  0
    0.4487    0.9628   -1.2960 H   0  0  0  0  0  0  0  0  0  0  0  0
   -0.4956    0.0395   -0.1816 H   0  0  0  0  0  0  0  0  0  0  0  0
   -0.9158    2.9131   -1.0503 H   0  0  0  0  0  0  0  0  0  0  0  0
   -2.0196    1.5711   -1.2021 H   0  0  0  0  0  0  0  0  0  0  0  0
   -4.9748    2.8571    0.6258 H   0  0  0  0  0  0  0  0  0  0  0  0
   -6.8209    2.3560   -0.9608 H   0  0  0  0  0  0  0  0  0  0  0  0
   -3.4713   -1.1676    0.1212 H   0  0  0  0  0  0  0  0  0  0  0  0
   -6.2917   -3.0243   -2.9306 H   0  0  0  0  0  0  0  0  0  0  0  0
   -5.6187   -1.5067   -3.5587 H   0  0  0  0  0  0  0  0  0  0  0  0
   -7.9271   -1.7144   -1.5111 H   0  0  0  0  0  0  0  0  0  0  0  0
   -8.1240   -1.3716   -3.2415 H   0  0  0  0  0  0  0  0  0  0  0  0
   -0.4973    3.9896    1.0129 H   0  0  0  0  0  0  0  0  0  0  0  0
   -1.3497    3.5462    2.4751 H   0  0  0  0  0  0  0  0  0  0  0  0
    1.0657    2.8024    2.4467 H   0  0  0  0  0  0  0  0  0  0  0  0
   -0.0607    1.5146    2.7361 H   0  0  0  0  0  0  0  0  0  0  0  0
    5.7734    0.3617    1.2651 H   0  0  0  0  0  0  0  0  0  0  0  0
    6.7861   -1.0467    1.5727 H   0  0  0  0  0  0  0  0  0  0  0  0
    7.0762   -2.8244   -0.2498 H   0  0  0  0  0  0  0  0  0  0  0  0
    7.3137   -3.1850   -2.6819 H   0  0  0  0  0  0  0  0  0  0  0  0
    6.4122   -1.5024   -4.2862 H   0  0  0  0  0  0  0  0  0  0  0  0
    5.0293    0.9049   -1.0314 H   0  0  0  0  0  0  0  0  0  0  0  0
  1  2  2  0
  2  3  1  0
  3  4  1  0
  4  5  1  0
  5  6  1  0
  6  7  1  0
  7  8  1  0
  8  9  1  0
  9 10  2  0
  9 11  2  0
  9 12  1  0
 12 13  2  0
 13 14  1  0
 14 15  2  0
 15 16  1  0
 16 17  2  0
 16 18  1  0
 18 19  1  0
 19 20  1  0
 20 21  1  0
  8 22  1  0
 22 23  1  0
  4 24  2  0
 24 25  1  0
 25 26  2  0
 26 27  1  0
 27 28  2  0
 28 29  1  0
 29 30  1  0
 30 31  1  0
 31 32  2  0
 32 33  1  0
 33 34  2  0
 34 35  1  0
 35 36  1  0
 35 37  2  0
 26  2  1  0
 37 31  1  0
 23  5  1  0
 29 25  1  0
 17 12  1  0
 21 15  1  0
  3 38  1  0
  5 39  1  0
  6 40  1  0
  6 41  1  0
  7 42  1  0
  7 43  1  0
 13 44  1  0
 14 45  1  0
 17 46  1  0
 19 47  1  0
 19 48  1  0
 20 49  1  0
 20 50  1  0
 22 51  1  0
 22 52  1  0
 23 53  1  0
 23 54  1  0
 30 55  1  0
 30 56  1  0
 32 57  1  0
 33 58  1  0
 34 59  1  0
 37 60  1  0
M  END
$$$$
