
     RDKit          3D

 42 44  0  0  0  0  0  0  0  0999 V2000
   -6.2787   -1.7324   -1.8732 C   0  0  0  0  0  0  0  0  0  0  0  0
   -5.1778   -1.3107   -1.0790 O   0  0  0  0  0  0  0  0  0  0  0  0
   -5.4268   -0.4088   -0.0733 C   0  0  0  0  0  0  0  0  0  0  0  0
   -6.6907    0.1204    0.2157 C   0  0  0  0  0  0  0  0  0  0  0  0
   -6.8557    1.0335    1.2600 C   0  0  0  0  0  0  0  0  0  0  0  0
   -5.7629    1.4219    2.0277 C   0  0  0  0  0  0  0  0  0  0  0  0
   -4.4988    0.9022    1.7497 C   0  0  0  0  0  0  0  0  0  0  0  0
   -4.3118   -0.0044    0.6929 C   0  0  0  0  0  0  0  0  0  0  0  0
   -2.9753   -0.5709    0.4266 C   0  0  0  0  0  0  0  0  0  0  0  0
   -1.8461    0.1533    0.4376 C   0  0  0  0  0  0  0  0  0  0  0  0
   -0.5281   -0.4179    0.1494 C   0  0  0  0  0  0  0  0  0  0  0  0
    0.5927    0.2217    0.1387 N   0  0  0  0  0  0  0  0  0  0  0  0
    1.5049   -0.7540   -0.1811 C   0  0  0  0  0  0  0  0  0  0  0  0
    2.8188   -0.5157   -0.3010 C   0  0  0  0  0  0  0  0  0  0  0  0
    3.8574   -1.4692   -0.6357 C   0  0  0  0  0  0  0  0  0  0  0  0
    5.1715   -1.2058   -0.7289 C   0  0  0  0  0  0  0  0  0  0  0  0
    5.8102    0.0906   -0.4918 C   0  0  0  0  0  0  0  0  0  0  0  0
    6.2314    0.8675   -1.5757 C   0  0  0  0  0  0  0  0  0  0  0  0
    6.8412    2.1046   -1.3577 C   0  0  0  0  0  0  0  0  0  0  0  0
    7.0338    2.5686   -0.0569 C   0  0  0  0  0  0  0  0  0  0  0  0
    6.6174    1.7973    1.0276 C   0  0  0  0  0  0  0  0  0  0  0  0
    6.0074    0.5602    0.8115 C   0  0  0  0  0  0  0  0  0  0  0  0
    0.8035   -2.0590   -0.3591 C   0  0  0  0  0  0  0  0  0  0  0  0
    1.2401   -3.1568   -0.6391 O   0  0  0  0  0  0  0  0  0  0  0  0
   -0.4990   -1.7396   -0.1254 O   0  0  0  0  0  0  0  0  0  0  0  0
   -7.0273   -2.2523   -1.2664 H   0  0  0  0  0  0  0  0  0  0  0  0
   -6.7210   -0.8897   -2.4145 H   0  0  0  0  0  0  0  0  0  0  0  0
   -5.9020   -2.4426   -2.6155 H   0  0  0  0  0  0  0  0  0  0  0  0
   -7.5718   -0.1582   -0.3526 H   0  0  0  0  0  0  0  0  0  0  0  0
   -7.8418    1.4371    1.4765 H   0  0  0  0  0  0  0  0  0  0  0  0
   -5.8940    2.1244    2.8469 H   0  0  0  0  0  0  0  0  0  0  0  0
   -3.6631    1.2046    2.3766 H   0  0  0  0  0  0  0  0  0  0  0  0
   -2.9662   -1.6308    0.1807 H   0  0  0  0  0  0  0  0  0  0  0  0
   -1.8456    1.2176    0.6463 H   0  0  0  0  0  0  0  0  0  0  0  0
    3.1409    0.5111   -0.1339 H   0  0  0  0  0  0  0  0  0  0  0  0
    3.5496   -2.4930   -0.8427 H   0  0  0  0  0  0  0  0  0  0  0  0
    5.8554   -2.0045   -1.0088 H   0  0  0  0  0  0  0  0  0  0  0  0
    6.0825    0.5170   -2.5941 H   0  0  0  0  0  0  0  0  0  0  0  0
    7.1644    2.7062   -2.2031 H   0  0  0  0  0  0  0  0  0  0  0  0
    7.5081    3.5320    0.1118 H   0  0  0  0  0  0  0  0  0  0  0  0
    6.7671    2.1584    2.0416 H   0  0  0  0  0  0  0  0  0  0  0  0
    5.6861   -0.0342    1.6636 H   0  0  0  0  0  0  0  0  0  0  0  0
  1  2  1  0
  2  3  1  0
  3  4  2  0
  4  5  1  0
  5  6  2  0
  6  7  1  0
  7  8  2  0
  8  9  1  0
  9 10  2  3
 10 11  1  0
 11 12  2  0
 12 13  1  0
 13 14  2  3
 14 15  1  0
 15 16  2  3
 16 17  1  0
 17 18  2  0
 18 19  1  0
 19 20  2  0
 20 21  1  0
 21 22  2  0
 13 23  1  0
 23 24  2  0
 23 25  1  0
  8  3  1  0
 25 11  1  0
 22 17  1  0
  1 26  1  0
  1 27  1  0
  1 28  1  0
  4 29  1  0
  5 30  1  0
  6 31  1  0
  7 32  1  0
  9 33  1  0
 10 34  1  0
 14 35  1  0
 15 36  1  0
 16 37  1  0
 18 38  1  0
 19 39  1  0
 20 40  1  0
 21 41  1  0
 22 42  1  0
M  END
$$$$
