
     RDKit          3D

 38 39  0  0  0  0  0  0  0  0999 V2000
   -0.1607   -1.1828   -1.7010 C   0  0  0  0  0  0  0  0  0  0  0  0
   -0.3831   -0.6949   -0.3440 N   0  0  0  0  0  0  0  0  0  0  0  0
   -1.7616   -0.7418    0.1576 C   0  0  0  0  0  0  0  0  0  0  0  0
   -2.5979    0.4537   -0.3095 C   0  0  0  0  0  0  0  0  0  0  0  0
   -3.9720    0.4558    0.3094 C   0  0  0  0  0  0  0  0  0  0  0  0
   -4.4983    1.6299    0.8473 C   0  0  0  0  0  0  0  0  0  0  0  0
   -5.7913    1.6134    1.3650 C   0  0  0  0  0  0  0  0  0  0  0  0
   -6.5222    0.4326    1.3336 C   0  0  0  0  0  0  0  0  0  0  0  0
   -5.9312   -0.6861    0.7713 C   0  0  0  0  0  0  0  0  0  0  0  0
   -4.6807   -0.7001    0.2576 N   0  0  0  0  0  0  0  0  0  0  0  0
    0.5759   -0.0505    0.4359 C   0  0  0  0  0  0  0  0  0  0  0  0
    0.2969    0.6158    1.4321 O   0  0  0  0  0  0  0  0  0  0  0  0
    2.0091   -0.1795    0.0808 C   0  0  0  0  0  0  0  0  0  0  0  0
    2.8019    0.9717    0.0459 C   0  0  0  0  0  0  0  0  0  0  0  0
    4.1686    0.8754   -0.2417 C   0  0  0  0  0  0  0  0  0  0  0  0
    4.7501   -0.3694   -0.4844 C   0  0  0  0  0  0  0  0  0  0  0  0
    6.0618   -0.6081   -0.7810 O   0  0  0  0  0  0  0  0  0  0  0  0
    6.9681    0.4772   -0.6828 C   0  0  0  0  0  0  0  0  0  0  0  0
    6.6729    1.4401   -1.5860 F   0  0  0  0  0  0  0  0  0  0  0  0
    6.9661    1.0083    0.5606 F   0  0  0  0  0  0  0  0  0  0  0  0
    8.2149    0.0242   -0.9443 F   0  0  0  0  0  0  0  0  0  0  0  0
    3.9517   -1.5184   -0.4335 C   0  0  0  0  0  0  0  0  0  0  0  0
    2.5888   -1.4319   -0.1381 C   0  0  0  0  0  0  0  0  0  0  0  0
   -0.9602   -0.8165   -2.3523 H   0  0  0  0  0  0  0  0  0  0  0  0
    0.7867   -0.8323   -2.1137 H   0  0  0  0  0  0  0  0  0  0  0  0
   -0.1811   -2.2757   -1.6893 H   0  0  0  0  0  0  0  0  0  0  0  0
   -1.7355   -0.7669    1.2529 H   0  0  0  0  0  0  0  0  0  0  0  0
   -2.2046   -1.6917   -0.1676 H   0  0  0  0  0  0  0  0  0  0  0  0
   -2.7159    0.4317   -1.4016 H   0  0  0  0  0  0  0  0  0  0  0  0
   -2.0722    1.3810   -0.0618 H   0  0  0  0  0  0  0  0  0  0  0  0
   -3.9201    2.5497    0.8540 H   0  0  0  0  0  0  0  0  0  0  0  0
   -6.2284    2.5198    1.7822 H   0  0  0  0  0  0  0  0  0  0  0  0
   -7.5302    0.3889    1.7304 H   0  0  0  0  0  0  0  0  0  0  0  0
   -6.4610   -1.6310    0.7165 H   0  0  0  0  0  0  0  0  0  0  0  0
    2.3565    1.9422    0.2515 H   0  0  0  0  0  0  0  0  0  0  0  0
    4.7428    1.7983   -0.2579 H   0  0  0  0  0  0  0  0  0  0  0  0
    4.3992   -2.4953   -0.5970 H   0  0  0  0  0  0  0  0  0  0  0  0
    1.9963   -2.3369   -0.0545 H   0  0  0  0  0  0  0  0  0  0  0  0
  1  2  1  0
  2  3  1  0
  3  4  1  0
  4  5  1  0
  5  6  2  0
  6  7  1  0
  7  8  2  0
  8  9  1  0
  9 10  2  0
  2 11  1  0
 11 12  2  0
 11 13  1  0
 13 14  2  0
 14 15  1  0
 15 16  2  0
 16 17  1  0
 17 18  1  0
 18 19  1  0
 18 20  1  0
 18 21  1  0
 16 22  1  0
 22 23  2  0
 10  5  1  0
 23 13  1  0
  1 24  1  0
  1 25  1  0
  1 26  1  0
  3 27  1  0
  3 28  1  0
  4 29  1  0
  4 30  1  0
  6 31  1  0
  7 32  1  0
  8 33  1  0
  9 34  1  0
 14 35  1  0
 15 36  1  0
 22 37  1  0
 23 38  1  0
M  END
$$$$
