
     RDKit          3D

 44 46  0  0  0  0  0  0  0  0999 V2000
    5.6935    2.4163   -2.6011 C   0  0  0  0  0  0  0  0  0  0  0  0
    4.4926    1.8288   -1.9106 C   0  0  0  0  0  0  0  0  0  0  0  0
    3.2151    2.3240   -2.2120 C   0  0  0  0  0  0  0  0  0  0  0  0
    2.0757    1.8041   -1.5907 C   0  0  0  0  0  0  0  0  0  0  0  0
    2.1964    0.7744   -0.6541 C   0  0  0  0  0  0  0  0  0  0  0  0
    1.0141    0.1777    0.0437 C   0  0  0  0  0  0  0  0  0  0  0  0
    1.2070   -0.6392    0.9430 O   0  0  0  0  0  0  0  0  0  0  0  0
   -0.3794    0.6269   -0.3916 C   0  0  0  0  0  0  0  0  0  0  0  0
   -1.3845   -0.1414    0.2536 O   0  0  0  0  0  0  0  0  0  0  0  0
   -2.6983    0.1959    0.0404 C   0  0  0  0  0  0  0  0  0  0  0  0
   -3.1104    1.2389   -0.8020 C   0  0  0  0  0  0  0  0  0  0  0  0
   -4.4669    1.5227   -0.9738 C   0  0  0  0  0  0  0  0  0  0  0  0
   -5.4253    0.7692   -0.3082 C   0  0  0  0  0  0  0  0  0  0  0  0
   -5.0270   -0.2735    0.5278 C   0  0  0  0  0  0  0  0  0  0  0  0
   -3.6651   -0.5847    0.7179 C   0  0  0  0  0  0  0  0  0  0  0  0
   -3.3062   -1.7082    1.6102 C   0  0  0  0  0  0  0  0  0  0  0  0
   -3.8208   -2.9977    1.3869 C   0  0  0  0  0  0  0  0  0  0  0  0
   -3.4993   -4.0615    2.2348 C   0  0  0  0  0  0  0  0  0  0  0  0
   -2.6552   -3.8545    3.3225 C   0  0  0  0  0  0  0  0  0  0  0  0
   -2.1325   -2.5863    3.5613 C   0  0  0  0  0  0  0  0  0  0  0  0
   -2.4577   -1.5235    2.7139 C   0  0  0  0  0  0  0  0  0  0  0  0
    3.4717    0.2788   -0.3468 C   0  0  0  0  0  0  0  0  0  0  0  0
    4.6237    0.7941   -0.9650 C   0  0  0  0  0  0  0  0  0  0  0  0
    5.9688    0.2263   -0.6014 C   0  0  0  0  0  0  0  0  0  0  0  0
    5.4062    3.2001   -3.3101 H   0  0  0  0  0  0  0  0  0  0  0  0
    6.3706    2.8665   -1.8684 H   0  0  0  0  0  0  0  0  0  0  0  0
    6.2251    1.6427   -3.1642 H   0  0  0  0  0  0  0  0  0  0  0  0
    3.0984    3.1264   -2.9386 H   0  0  0  0  0  0  0  0  0  0  0  0
    1.1141    2.2301   -1.8586 H   0  0  0  0  0  0  0  0  0  0  0  0
   -0.4802    1.6814   -0.1096 H   0  0  0  0  0  0  0  0  0  0  0  0
   -0.4626    0.4844   -1.4749 H   0  0  0  0  0  0  0  0  0  0  0  0
   -2.4006    1.8525   -1.3454 H   0  0  0  0  0  0  0  0  0  0  0  0
   -4.7740    2.3347   -1.6281 H   0  0  0  0  0  0  0  0  0  0  0  0
   -6.4818    0.9899   -0.4357 H   0  0  0  0  0  0  0  0  0  0  0  0
   -5.7913   -0.8478    1.0490 H   0  0  0  0  0  0  0  0  0  0  0  0
   -4.4704   -3.1842    0.5345 H   0  0  0  0  0  0  0  0  0  0  0  0
   -3.9024   -5.0513    2.0396 H   0  0  0  0  0  0  0  0  0  0  0  0
   -2.3972   -4.6812    3.9784 H   0  0  0  0  0  0  0  0  0  0  0  0
   -1.4629   -2.4206    4.4009 H   0  0  0  0  0  0  0  0  0  0  0  0
   -2.0316   -0.5426    2.9143 H   0  0  0  0  0  0  0  0  0  0  0  0
    3.5688   -0.5229    0.3856 H   0  0  0  0  0  0  0  0  0  0  0  0
    6.4466   -0.2127   -1.4830 H   0  0  0  0  0  0  0  0  0  0  0  0
    5.8826   -0.5622    0.1538 H   0  0  0  0  0  0  0  0  0  0  0  0
    6.6127    1.0087   -0.1876 H   0  0  0  0  0  0  0  0  0  0  0  0
  1  2  1  0
  2  3  2  0
  3  4  1  0
  4  5  2  0
  5  6  1  0
  6  7  2  0
  6  8  1  0
  8  9  1  0
  9 10  1  0
 10 11  2  0
 11 12  1  0
 12 13  2  0
 13 14  1  0
 14 15  2  0
 15 16  1  0
 16 17  2  0
 17 18  1  0
 18 19  2  0
 19 20  1  0
 20 21  2  0
  5 22  1  0
 22 23  2  0
 23 24  1  0
 23  2  1  0
 15 10  1  0
 21 16  1  0
  1 25  1  0
  1 26  1  0
  1 27  1  0
  3 28  1  0
  4 29  1  0
  8 30  1  0
  8 31  1  0
 11 32  1  0
 12 33  1  0
 13 34  1  0
 14 35  1  0
 17 36  1  0
 18 37  1  0
 19 38  1  0
 20 39  1  0
 21 40  1  0
 22 41  1  0
 24 42  1  0
 24 43  1  0
 24 44  1  0
M  END
$$$$
