
     RDKit          3D

 42 44  0  0  0  0  0  0  0  0999 V2000
    6.5149   -0.6978   -2.1835 C   0  0  0  0  0  0  0  0  0  0  0  0
    5.7783   -1.0786   -1.0188 O   0  0  0  0  0  0  0  0  0  0  0  0
    4.4479   -0.7715   -1.0747 C   0  0  0  0  0  0  0  0  0  0  0  0
    3.8949   -0.2518   -2.0345 O   0  0  0  0  0  0  0  0  0  0  0  0
    3.7725   -1.2329    0.1917 C   0  0  0  0  0  0  0  0  0  0  0  0
    2.5782   -0.4585    0.4975 N   0  0  0  0  0  0  0  0  0  0  0  0
    1.3023   -0.8315    0.1513 C   0  0  0  0  0  0  0  0  0  0  0  0
    0.4338    0.1320    0.6160 C   0  0  0  0  0  0  0  0  0  0  0  0
   -0.9862    0.1484    0.4399 C   0  0  0  0  0  0  0  0  0  0  0  0
   -1.7177   -0.7937   -0.1802 C   0  0  0  0  0  0  0  0  0  0  0  0
   -3.1722   -0.7097   -0.3463 C   0  0  0  0  0  0  0  0  0  0  0  0
   -3.8002    0.4604   -0.7712 C   0  0  0  0  0  0  0  0  0  0  0  0
   -5.1795    0.4786   -0.9441 C   0  0  0  0  0  0  0  0  0  0  0  0
   -5.9163   -0.6310   -0.7153 N   0  0  0  0  0  4  0  0  0  0  0  0
   -7.3779   -0.5915   -0.8917 C   0  0  0  0  0  0  0  0  0  0  0  0
   -5.3281   -1.7782   -0.3086 C   0  0  0  0  0  0  0  0  0  0  0  0
   -3.9515   -1.8432   -0.1262 C   0  0  0  0  0  0  0  0  0  0  0  0
    1.2153    1.1212    1.2939 C   0  0  0  0  0  0  0  0  0  0  0  0
    0.9127    2.3224    1.9742 C   0  0  0  0  0  0  0  0  0  0  0  0
    1.9421    3.0836    2.5374 C   0  0  0  0  0  0  0  0  0  0  0  0
    3.2648    2.6696    2.4310 C   0  0  0  0  0  0  0  0  0  0  0  0
    3.5960    1.4879    1.7632 C   0  0  0  0  0  0  0  0  0  0  0  0
    2.5554    0.7269    1.2041 C   0  0  0  0  0  0  0  0  0  0  0  0
    6.4516    0.3835   -2.3407 H   0  0  0  0  0  0  0  0  0  0  0  0
    6.1488   -1.2408   -3.0604 H   0  0  0  0  0  0  0  0  0  0  0  0
    7.5633   -0.9640   -2.0229 H   0  0  0  0  0  0  0  0  0  0  0  0
    4.4509   -1.1430    1.0461 H   0  0  0  0  0  0  0  0  0  0  0  0
    3.4845   -2.2834    0.0826 H   0  0  0  0  0  0  0  0  0  0  0  0
    1.1338   -1.7387   -0.4137 H   0  0  0  0  0  0  0  0  0  0  0  0
   -1.4953    1.0142    0.8574 H   0  0  0  0  0  0  0  0  0  0  0  0
   -1.2429   -1.6846   -0.5842 H   0  0  0  0  0  0  0  0  0  0  0  0
   -3.2228    1.3588   -0.9818 H   0  0  0  0  0  0  0  0  0  0  0  0
   -5.6994    1.3753   -1.2694 H   0  0  0  0  0  0  0  0  0  0  0  0
   -7.6444    0.2327   -1.5582 H   0  0  0  0  0  0  0  0  0  0  0  0
   -7.7031   -1.5363   -1.3354 H   0  0  0  0  0  0  0  0  0  0  0  0
   -7.8228   -0.4481    0.0958 H   0  0  0  0  0  0  0  0  0  0  0  0
   -5.9683   -2.6381   -0.1327 H   0  0  0  0  0  0  0  0  0  0  0  0
   -3.4953   -2.7766    0.1989 H   0  0  0  0  0  0  0  0  0  0  0  0
   -0.1135    2.6634    2.0660 H   0  0  0  0  0  0  0  0  0  0  0  0
    1.7062    4.0072    3.0602 H   0  0  0  0  0  0  0  0  0  0  0  0
    4.0547    3.2744    2.8714 H   0  0  0  0  0  0  0  0  0  0  0  0
    4.6348    1.1829    1.6850 H   0  0  0  0  0  0  0  0  0  0  0  0
  1  2  1  0
  2  3  1  0
  3  4  2  0
  3  5  1  0
  5  6  1  0
  6  7  1  0
  7  8  2  0
  8  9  1  0
  9 10  2  3
 10 11  1  0
 11 12  2  0
 12 13  1  0
 13 14  2  0
 14 15  1  0
 14 16  1  0
 16 17  2  0
  8 18  1  0
 18 19  2  0
 19 20  1  0
 20 21  2  0
 21 22  1  0
 22 23  2  0
 23  6  1  0
 17 11  1  0
 23 18  1  0
  1 24  1  0
  1 25  1  0
  1 26  1  0
  5 27  1  0
  5 28  1  0
  7 29  1  0
  9 30  1  0
 10 31  1  0
 12 32  1  0
 13 33  1  0
 15 34  1  0
 15 35  1  0
 15 36  1  0
 16 37  1  0
 17 38  1  0
 19 39  1  0
 20 40  1  0
 21 41  1  0
 22 42  1  0
M  CHG  1  14   1
M  END
$$$$
