
     RDKit          3D

 41 44  0  0  0  0  0  0  0  0999 V2000
   -2.6127    2.0527   -2.6802 O   0  0  0  0  0  0  0  0  0  0  0  0
   -1.8605    1.4908   -1.5761 S   0  0  0  0  0  6  0  0  0  0  0  0
   -1.6062    2.2655   -0.3809 O   0  0  0  0  0  0  0  0  0  0  0  0
   -0.3969    0.9578   -2.2421 N   0  0  0  0  0  0  0  0  0  0  0  0
    0.6758    0.6669   -1.3415 C   0  0  0  0  0  0  0  0  0  0  0  0
    0.7432   -0.6345   -0.8366 C   0  0  0  0  0  0  0  0  0  0  0  0
    1.7025   -0.9753    0.1149 C   0  0  0  0  0  0  0  0  0  0  0  0
    1.7526   -2.6651    0.6989 S   0  0  0  0  0  0  0  0  0  0  0  0
    1.0102   -2.5231    2.2697 C   0  0  0  0  0  0  0  0  0  0  0  0
    0.0533   -3.3819    2.7231 N   0  0  0  0  0  0  0  0  0  0  0  0
   -0.2085   -2.9343    3.9270 C   0  0  0  0  0  0  0  0  0  0  0  0
    0.5742   -1.8501    4.1856 N   0  0  0  0  0  0  0  0  0  0  0  0
    1.3881   -1.5850    3.1502 N   0  0  0  0  0  0  0  0  0  0  0  0
    2.6083    0.0071    0.5437 C   0  0  0  0  0  0  0  0  0  0  0  0
    3.5383   -0.2892    1.5162 O   0  0  0  0  0  0  0  0  0  0  0  0
    2.5874    1.3184    0.0188 C   0  0  0  0  0  0  0  0  0  0  0  0
    3.5165    2.2989    0.4280 C   0  0  0  0  0  0  0  0  0  0  0  0
    3.4810    3.5959   -0.0829 C   0  0  0  0  0  0  0  0  0  0  0  0
    2.5082    3.9439   -1.0094 C   0  0  0  0  0  0  0  0  0  0  0  0
    1.5766    2.9922   -1.4282 C   0  0  0  0  0  0  0  0  0  0  0  0
    1.5972    1.6649   -0.9347 C   0  0  0  0  0  0  0  0  0  0  0  0
   -2.6489   -0.0295   -1.1083 C   0  0  0  0  0  0  0  0  0  0  0  0
   -2.5394   -0.4889    0.2094 C   0  0  0  0  0  0  0  0  0  0  0  0
   -3.1530   -1.6880    0.5704 C   0  0  0  0  0  0  0  0  0  0  0  0
   -3.8910   -2.4063   -0.3732 C   0  0  0  0  0  0  0  0  0  0  0  0
   -4.0191   -1.9298   -1.6800 C   0  0  0  0  0  0  0  0  0  0  0  0
   -3.3994   -0.7373   -2.0524 C   0  0  0  0  0  0  0  0  0  0  0  0
   -0.1731    1.4628   -3.0997 H   0  0  0  0  0  0  0  0  0  0  0  0
    0.0403   -1.3853   -1.1911 H   0  0  0  0  0  0  0  0  0  0  0  0
   -0.9198   -3.3378    4.6329 H   0  0  0  0  0  0  0  0  0  0  0  0
    0.6134   -1.2642    5.0165 H   0  0  0  0  0  0  0  0  0  0  0  0
    3.1884   -1.0607    2.0086 H   0  0  0  0  0  0  0  0  0  0  0  0
    4.2832    2.0473    1.1602 H   0  0  0  0  0  0  0  0  0  0  0  0
    4.2089    4.3307    0.2504 H   0  0  0  0  0  0  0  0  0  0  0  0
    2.4659    4.9565   -1.4031 H   0  0  0  0  0  0  0  0  0  0  0  0
    0.8196    3.3086   -2.1424 H   0  0  0  0  0  0  0  0  0  0  0  0
   -1.9695    0.0696    0.9505 H   0  0  0  0  0  0  0  0  0  0  0  0
   -3.0564   -2.0655    1.5860 H   0  0  0  0  0  0  0  0  0  0  0  0
   -4.3702   -3.3402   -0.0880 H   0  0  0  0  0  0  0  0  0  0  0  0
   -4.6045   -2.4893   -2.4059 H   0  0  0  0  0  0  0  0  0  0  0  0
   -3.5036   -0.3691   -3.0706 H   0  0  0  0  0  0  0  0  0  0  0  0
  1  2  2  0
  2  3  2  0
  2  4  1  0
  4  5  1  0
  5  6  2  0
  6  7  1  0
  7  8  1  0
  8  9  1  0
  9 10  1  0
 10 11  2  0
 11 12  1  0
 12 13  1  0
  7 14  2  0
 14 15  1  0
 14 16  1  0
 16 17  2  0
 17 18  1  0
 18 19  2  0
 19 20  1  0
 20 21  2  0
  2 22  1  0
 22 23  2  0
 23 24  1  0
 24 25  2  0
 25 26  1  0
 26 27  2  0
 21  5  1  0
 27 22  1  0
 13  9  2  0
 21 16  1  0
  4 28  1  0
  6 29  1  0
 11 30  1  0
 12 31  1  0
 15 32  1  0
 17 33  1  0
 18 34  1  0
 19 35  1  0
 20 36  1  0
 23 37  1  0
 24 38  1  0
 25 39  1  0
 26 40  1  0
 27 41  1  0
M  END
$$$$
