
     RDKit          3D

 57 61  0  0  0  0  0  0  0  0999 V2000
   -3.8459   -0.2717   -3.9186 C   0  0  0  0  0  0  0  0  0  0  0  0
   -3.7496    0.2826   -2.5264 C   0  0  0  0  0  0  0  0  0  0  0  0
   -2.5180    0.6959   -2.0057 C   0  0  0  0  0  0  0  0  0  0  0  0
   -2.4365    1.2293   -0.7169 C   0  0  0  0  0  0  0  0  0  0  0  0
   -3.5890    1.3672    0.0717 C   0  0  0  0  0  0  0  0  0  0  0  0
   -3.4916    1.9019    1.4804 C   0  0  0  0  0  0  0  0  0  0  0  0
   -3.4811    0.8270    2.4504 N   0  0  0  0  0  0  0  0  0  0  0  0
   -4.5702    0.5486    3.2072 N   0  0  0  0  0  0  0  0  0  0  0  0
   -4.2914   -0.5349    3.9357 N   0  0  0  0  0  0  0  0  0  0  0  0
   -3.0188   -0.9082    3.6366 C   0  0  0  0  0  0  0  0  0  0  0  0
   -2.2288   -2.0272    4.0754 C   0  0  0  0  0  0  0  0  0  0  0  0
   -2.5660   -2.8689    4.9006 O   0  0  0  0  0  0  0  0  0  0  0  0
   -0.9883   -2.0703    3.4490 N   0  0  0  0  0  0  0  0  0  0  0  0
   -0.5300   -1.1028    2.5618 C   0  0  0  0  0  0  0  0  0  0  0  0
    0.8443   -1.3678    1.9695 C   0  0  0  0  0  0  0  0  0  0  0  0
    1.6284   -0.0687    1.7517 C   0  0  0  0  0  0  0  0  0  0  0  0
    2.9275   -0.3048    0.9888 C   0  0  0  0  0  0  0  0  0  0  0  0
    2.6958   -1.0552   -0.2664 N   0  0  0  0  0  0  0  0  0  0  0  0
    2.2767   -0.1781   -1.6666 S   0  0  0  0  0  6  0  0  0  0  0  0
    2.0661   -1.0963   -2.7636 O   0  0  0  0  0  0  0  0  0  0  0  0
    1.2396    0.7680   -1.3014 O   0  0  0  0  0  0  0  0  0  0  0  0
    3.7449    0.7368   -2.0108 C   0  0  0  0  0  0  0  0  0  0  0  0
    3.7486    2.1344   -1.9262 C   0  0  0  0  0  0  0  0  0  0  0  0
    4.9151    2.8388   -2.2340 C   0  0  0  0  0  0  0  0  0  0  0  0
    6.0638    2.1509   -2.6294 C   0  0  0  0  0  0  0  0  0  0  0  0
    6.0517    0.7564   -2.7138 C   0  0  0  0  0  0  0  0  0  0  0  0
    4.8892    0.0534   -2.4033 C   0  0  0  0  0  0  0  0  0  0  0  0
    4.9125   -1.2843   -2.4793 F   0  0  0  0  0  0  0  0  0  0  0  0
    1.9935   -2.3402   -0.0546 C   0  0  0  0  0  0  0  0  0  0  0  0
    0.6605   -2.1231    0.6446 C   0  0  0  0  0  0  0  0  0  0  0  0
   -1.2290   -0.0691    2.1868 N   0  0  0  0  0  0  0  0  0  0  0  0
   -2.4645   -0.0382    2.7330 C   0  0  0  0  0  0  0  0  0  0  0  0
   -4.8234    0.9594   -0.4551 C   0  0  0  0  0  0  0  0  0  0  0  0
   -4.9037    0.4282   -1.7456 C   0  0  0  0  0  0  0  0  0  0  0  0
   -4.5482   -1.1121   -3.9537 H   0  0  0  0  0  0  0  0  0  0  0  0
   -4.1856    0.5035   -4.6094 H   0  0  0  0  0  0  0  0  0  0  0  0
   -2.8792   -0.6472   -4.2639 H   0  0  0  0  0  0  0  0  0  0  0  0
   -1.6069    0.5967   -2.5915 H   0  0  0  0  0  0  0  0  0  0  0  0
   -1.4576    1.5170   -0.3297 H   0  0  0  0  0  0  0  0  0  0  0  0
   -2.5764    2.4871    1.6251 H   0  0  0  0  0  0  0  0  0  0  0  0
   -4.3392    2.5630    1.7009 H   0  0  0  0  0  0  0  0  0  0  0  0
   -0.4056   -2.8464    3.7249 H   0  0  0  0  0  0  0  0  0  0  0  0
    1.4088   -2.0055    2.6622 H   0  0  0  0  0  0  0  0  0  0  0  0
    1.8535    0.3871    2.7236 H   0  0  0  0  0  0  0  0  0  0  0  0
    1.0188    0.6636    1.2135 H   0  0  0  0  0  0  0  0  0  0  0  0
    3.6229   -0.8849    1.6076 H   0  0  0  0  0  0  0  0  0  0  0  0
    3.4265    0.6482    0.7873 H   0  0  0  0  0  0  0  0  0  0  0  0
    2.8547    2.6774   -1.6288 H   0  0  0  0  0  0  0  0  0  0  0  0
    4.9268    3.9265   -2.1725 H   0  0  0  0  0  0  0  0  0  0  0  0
    6.9692    2.7022   -2.8771 H   0  0  0  0  0  0  0  0  0  0  0  0
    6.9392    0.2136   -3.0226 H   0  0  0  0  0  0  0  0  0  0  0  0
    1.8487   -2.8713   -1.0014 H   0  0  0  0  0  0  0  0  0  0  0  0
    2.6381   -2.9869    0.5546 H   0  0  0  0  0  0  0  0  0  0  0  0
   -0.0163   -1.5646   -0.0155 H   0  0  0  0  0  0  0  0  0  0  0  0
    0.1803   -3.0923    0.8278 H   0  0  0  0  0  0  0  0  0  0  0  0
   -5.7321    1.0382    0.1410 H   0  0  0  0  0  0  0  0  0  0  0  0
   -5.8728    0.1182   -2.1349 H   0  0  0  0  0  0  0  0  0  0  0  0
  1  2  1  0
  2  3  2  0
  3  4  1  0
  4  5  2  0
  5  6  1  0
  6  7  1  0
  7  8  1  0
  8  9  2  0
  9 10  1  0
 10 11  1  0
 11 12  2  0
 11 13  1  0
 13 14  1  0
 14 15  1  0
 15 16  1  0
 16 17  1  0
 17 18  1  0
 18 19  1  0
 19 20  2  0
 19 21  2  0
 19 22  1  0
 22 23  2  0
 23 24  1  0
 24 25  2  0
 25 26  1  0
 26 27  2  0
 27 28  1  0
 18 29  1  0
 29 30  1  0
 14 31  2  0
 31 32  1  0
  5 33  1  0
 33 34  2  0
 34  2  1  0
 32  7  1  0
 32 10  2  0
 30 15  1  0
 27 22  1  0
  1 35  1  0
  1 36  1  0
  1 37  1  0
  3 38  1  0
  4 39  1  0
  6 40  1  0
  6 41  1  0
 13 42  1  0
 15 43  1  0
 16 44  1  0
 16 45  1  0
 17 46  1  0
 17 47  1  0
 23 48  1  0
 24 49  1  0
 25 50  1  0
 26 51  1  0
 29 52  1  0
 29 53  1  0
 30 54  1  0
 30 55  1  0
 33 56  1  0
 34 57  1  0
M  END
$$$$
