
     RDKit          3D

 37 39  0  0  0  0  0  0  0  0999 V2000
    7.3159    0.0891    1.3275 O   0  0  0  0  0  0  0  0  0  0  0  0
    5.9245   -0.1753    1.4029 C   0  0  0  0  0  0  0  0  0  0  0  0
    5.1750    0.8688    0.5807 C   0  0  0  0  0  0  0  0  0  0  0  0
    3.7184    0.6175    0.6442 N   0  0  0  0  0  4  0  0  0  0  0  0
    3.1363   -0.1833   -0.2776 C   0  0  0  0  0  0  0  0  0  0  0  0
    1.7682   -0.4265   -0.2417 C   0  0  0  0  0  0  0  0  0  0  0  0
    0.9854    0.1706    0.7453 C   0  0  0  0  0  0  0  0  0  0  0  0
   -0.4575   -0.0712    0.8487 C   0  0  0  0  0  0  0  0  0  0  0  0
   -1.2898   -0.0713   -0.2071 C   0  0  0  0  0  0  0  0  0  0  0  0
   -2.7022   -0.2970   -0.1647 C   0  0  0  0  0  0  0  0  0  0  0  0
   -3.4426   -0.6356    0.9481 C   0  0  0  0  0  0  0  0  0  0  0  0
   -4.7524   -0.7651    0.5626 N   0  0  0  0  0  0  0  0  0  0  0  0
   -4.8802   -0.5183   -0.7843 C   0  0  0  0  0  0  0  0  0  0  0  0
   -6.0209   -0.5378   -1.5960 C   0  0  0  0  0  0  0  0  0  0  0  0
   -5.8579   -0.2424   -2.9518 C   0  0  0  0  0  0  0  0  0  0  0  0
   -4.6033    0.0606   -3.4729 C   0  0  0  0  0  0  0  0  0  0  0  0
   -3.4726    0.0756   -2.6473 C   0  0  0  0  0  0  0  0  0  0  0  0
   -3.6064   -0.2198   -1.2727 C   0  0  0  0  0  0  0  0  0  0  0  0
    1.6088    0.9833    1.6900 C   0  0  0  0  0  0  0  0  0  0  0  0
    2.9797    1.2013    1.6154 C   0  0  0  0  0  0  0  0  0  0  0  0
    7.7889   -0.5838    1.8543 H   0  0  0  0  0  0  0  0  0  0  0  0
    5.7355   -1.1828    1.0190 H   0  0  0  0  0  0  0  0  0  0  0  0
    5.6152   -0.1405    2.4523 H   0  0  0  0  0  0  0  0  0  0  0  0
    5.4869    0.8499   -0.4700 H   0  0  0  0  0  0  0  0  0  0  0  0
    5.3707    1.8829    0.9478 H   0  0  0  0  0  0  0  0  0  0  0  0
    3.7742   -0.6291   -1.0363 H   0  0  0  0  0  0  0  0  0  0  0  0
    1.3236   -1.0893   -0.9822 H   0  0  0  0  0  0  0  0  0  0  0  0
   -0.8427   -0.2336    1.8528 H   0  0  0  0  0  0  0  0  0  0  0  0
   -0.8822    0.1297   -1.1954 H   0  0  0  0  0  0  0  0  0  0  0  0
   -3.1698   -0.8018    1.9808 H   0  0  0  0  0  0  0  0  0  0  0  0
   -5.5207   -1.0086    1.1731 H   0  0  0  0  0  0  0  0  0  0  0  0
   -7.0015   -0.7729   -1.1943 H   0  0  0  0  0  0  0  0  0  0  0  0
   -6.7256   -0.2490   -3.6083 H   0  0  0  0  0  0  0  0  0  0  0  0
   -4.5009    0.2887   -4.5312 H   0  0  0  0  0  0  0  0  0  0  0  0
   -2.5037    0.3164   -3.0723 H   0  0  0  0  0  0  0  0  0  0  0  0
    1.0309    1.4613    2.4795 H   0  0  0  0  0  0  0  0  0  0  0  0
    3.4947    1.8392    2.3289 H   0  0  0  0  0  0  0  0  0  0  0  0
  1  2  1  0
  2  3  1  0
  3  4  1  0
  4  5  2  0
  5  6  1  0
  6  7  2  0
  7  8  1  0
  8  9  2  3
  9 10  1  0
 10 11  2  0
 11 12  1  0
 12 13  1  0
 13 14  2  0
 14 15  1  0
 15 16  2  0
 16 17  1  0
 17 18  2  0
  7 19  1  0
 19 20  2  0
 20  4  1  0
 18 10  1  0
 18 13  1  0
  1 21  1  0
  2 22  1  0
  2 23  1  0
  3 24  1  0
  3 25  1  0
  5 26  1  0
  6 27  1  0
  8 28  1  0
  9 29  1  0
 11 30  1  0
 12 31  1  0
 14 32  1  0
 15 33  1  0
 16 34  1  0
 17 35  1  0
 19 36  1  0
 20 37  1  0
M  CHG  1   4   1
M  END
$$$$
