
     RDKit          3D

 39 39  0  0  0  0  0  0  0  0999 V2000
   -2.8020   -2.8159    0.0587 C   0  0  0  0  0  0  0  0  0  0  0  0
   -1.4702   -2.6625   -0.6513 C   0  0  0  0  0  0  0  0  0  0  0  0
   -1.0190   -1.3032   -0.5612 O   0  0  0  0  0  0  0  0  0  0  0  0
   -0.3158   -0.9750    0.5758 C   0  0  0  0  0  0  0  0  0  0  0  0
   -0.0351   -1.7901    1.4474 O   0  0  0  0  0  0  0  0  0  0  0  0
    0.1339    0.5102    0.5425 C   0  0  0  0  0  0  0  0  0  0  0  0
   -0.7697    1.2765   -0.3387 N   0  0  0  0  0  0  0  0  0  0  0  0
   -2.0634    1.5606    0.0176 C   0  0  0  0  0  0  0  0  0  0  0  0
   -2.5108    1.3218    1.1289 O   0  0  0  0  0  0  0  0  0  0  0  0
   -2.8666    2.1795   -1.1084 C   0  0  0  0  0  0  0  0  0  0  0  0
   -4.2859    2.5153   -0.6877 C   0  0  0  0  0  0  0  0  0  0  0  0
    1.3559    0.7252   -0.2910 N   0  0  0  0  0  0  0  0  0  0  0  0
    2.6141    0.1589   -0.1513 C   0  0  0  0  0  0  0  0  0  0  0  0
    3.6240    0.6290   -1.0118 C   0  0  0  0  0  0  0  0  0  0  0  0
    4.9142    0.0894   -1.0092 C   0  0  0  0  0  0  0  0  0  0  0  0
    5.2222   -0.9564   -0.1507 C   0  0  0  0  0  0  0  0  0  0  0  0
    4.2362   -1.4576    0.6908 C   0  0  0  0  0  0  0  0  0  0  0  0
    2.9448   -0.9112    0.6791 C   0  0  0  0  0  0  0  0  0  0  0  0
    0.2520    1.0108    2.0200 C   0  0  0  0  0  0  0  0  0  0  0  0
    1.3863    0.5772    2.6267 F   0  0  0  0  0  0  0  0  0  0  0  0
    0.3175    2.3730    2.0504 F   0  0  0  0  0  0  0  0  0  0  0  0
   -0.7694    0.6422    2.8216 F   0  0  0  0  0  0  0  0  0  0  0  0
   -2.7060   -2.5960    1.1266 H   0  0  0  0  0  0  0  0  0  0  0  0
   -3.5363   -2.1116   -0.3460 H   0  0  0  0  0  0  0  0  0  0  0  0
   -3.1876   -3.8329   -0.0552 H   0  0  0  0  0  0  0  0  0  0  0  0
   -0.7207   -3.3598   -0.2601 H   0  0  0  0  0  0  0  0  0  0  0  0
   -1.5930   -2.8877   -1.7157 H   0  0  0  0  0  0  0  0  0  0  0  0
   -0.6007    1.0916   -1.3174 H   0  0  0  0  0  0  0  0  0  0  0  0
   -2.3566    3.0909   -1.4395 H   0  0  0  0  0  0  0  0  0  0  0  0
   -2.8914    1.4737   -1.9462 H   0  0  0  0  0  0  0  0  0  0  0  0
   -4.2912    3.2259    0.1454 H   0  0  0  0  0  0  0  0  0  0  0  0
   -4.8355    2.9617   -1.5220 H   0  0  0  0  0  0  0  0  0  0  0  0
   -4.8232    1.6171   -0.3655 H   0  0  0  0  0  0  0  0  0  0  0  0
    1.4473    1.7245   -0.4697 H   0  0  0  0  0  0  0  0  0  0  0  0
    3.4090    1.4331   -1.7128 H   0  0  0  0  0  0  0  0  0  0  0  0
    5.6701    0.4840   -1.6826 H   0  0  0  0  0  0  0  0  0  0  0  0
    6.2211   -1.3832   -0.1395 H   0  0  0  0  0  0  0  0  0  0  0  0
    4.4642   -2.2798    1.3652 H   0  0  0  0  0  0  0  0  0  0  0  0
    2.2372   -1.3492    1.3719 H   0  0  0  0  0  0  0  0  0  0  0  0
  1  2  1  0
  2  3  1  0
  3  4  1  0
  4  5  2  0
  4  6  1  0
  6  7  1  0
  7  8  1  0
  8  9  2  0
  8 10  1  0
 10 11  1  0
  6 12  1  0
 12 13  1  0
 13 14  2  0
 14 15  1  0
 15 16  2  0
 16 17  1  0
 17 18  2  0
  6 19  1  0
 19 20  1  0
 19 21  1  0
 19 22  1  0
 18 13  1  0
  1 23  1  0
  1 24  1  0
  1 25  1  0
  2 26  1  0
  2 27  1  0
  7 28  1  0
 10 29  1  0
 10 30  1  0
 11 31  1  0
 11 32  1  0
 11 33  1  0
 12 34  1  0
 14 35  1  0
 15 36  1  0
 16 37  1  0
 17 38  1  0
 18 39  1  0
M  END
$$$$
