
     RDKit          3D

 31 32  0  0  0  0  0  0  0  0999 V2000
   -3.4203    1.8657   -0.9720 C   0  0  0  0  0  0  0  0  0  0  0  0
   -3.2536    0.6406   -0.1130 C   0  0  0  0  0  0  0  0  0  0  0  0
   -4.2614    0.1181    0.3705 O   0  0  0  0  0  0  0  0  0  0  0  0
   -1.9055    0.0909    0.1341 C   0  0  0  0  0  0  0  0  0  0  0  0
   -1.6725   -1.0428    0.9105 C   0  0  0  0  0  0  0  0  0  0  0  0
   -2.6143   -1.9367    1.6404 C   0  0  0  0  0  0  0  0  0  0  0  0
   -0.3250   -1.2793    0.9361 N   0  0  0  0  0  0  0  0  0  0  0  0
    0.3385   -0.3346    0.2008 C   0  0  0  0  0  0  0  0  0  0  0  0
    1.7891   -0.3644    0.0725 C   0  0  0  0  0  0  0  0  0  0  0  0
    2.3896   -1.0905   -0.9612 C   0  0  0  0  0  0  0  0  0  0  0  0
    3.7802   -1.1229   -1.0802 C   0  0  0  0  0  0  0  0  0  0  0  0
    4.5748   -0.4298   -0.1674 C   0  0  0  0  0  0  0  0  0  0  0  0
    3.9810    0.2972    0.8641 C   0  0  0  0  0  0  0  0  0  0  0  0
    2.5905    0.3306    0.9841 C   0  0  0  0  0  0  0  0  0  0  0  0
   -0.6068    0.5411   -0.3193 C   0  0  0  0  0  0  0  0  0  0  0  0
   -0.2888    1.7162   -1.1821 C   0  0  0  0  0  0  0  0  0  0  0  0
   -2.9046    2.7167   -0.5226 H   0  0  0  0  0  0  0  0  0  0  0  0
   -3.0590    1.6713   -1.9839 H   0  0  0  0  0  0  0  0  0  0  0  0
   -4.4837    2.1178   -1.0400 H   0  0  0  0  0  0  0  0  0  0  0  0
   -3.1745   -1.3713    2.3918 H   0  0  0  0  0  0  0  0  0  0  0  0
   -2.0841   -2.7433    2.1577 H   0  0  0  0  0  0  0  0  0  0  0  0
   -3.3229   -2.3967    0.9444 H   0  0  0  0  0  0  0  0  0  0  0  0
    0.1263   -2.0403    1.4267 H   0  0  0  0  0  0  0  0  0  0  0  0
    1.7763   -1.6299   -1.6791 H   0  0  0  0  0  0  0  0  0  0  0  0
    4.2427   -1.6868   -1.8861 H   0  0  0  0  0  0  0  0  0  0  0  0
    5.6575   -0.4543   -0.2613 H   0  0  0  0  0  0  0  0  0  0  0  0
    4.6000    0.8397    1.5738 H   0  0  0  0  0  0  0  0  0  0  0  0
    2.1343    0.9025    1.7887 H   0  0  0  0  0  0  0  0  0  0  0  0
   -0.6171    2.6439   -0.7049 H   0  0  0  0  0  0  0  0  0  0  0  0
    0.7861    1.8118   -1.3652 H   0  0  0  0  0  0  0  0  0  0  0  0
   -0.7728    1.6194   -2.1580 H   0  0  0  0  0  0  0  0  0  0  0  0
  1  2  1  0
  2  3  2  0
  2  4  1  0
  4  5  2  0
  5  6  1  0
  5  7  1  0
  7  8  1  0
  8  9  1  0
  9 10  2  0
 10 11  1  0
 11 12  2  0
 12 13  1  0
 13 14  2  0
  8 15  2  0
 15 16  1  0
 15  4  1  0
 14  9  1  0
  1 17  1  0
  1 18  1  0
  1 19  1  0
  6 20  1  0
  6 21  1  0
  6 22  1  0
  7 23  1  0
 10 24  1  0
 11 25  1  0
 12 26  1  0
 13 27  1  0
 14 28  1  0
 16 29  1  0
 16 30  1  0
 16 31  1  0
M  END
$$$$
