
     RDKit          3D

 57 62  0  0  0  0  0  0  0  0999 V2000
    7.1421    3.8306   -0.0297 C   0  0  0  0  0  0  0  0  0  0  0  0
    7.0743    2.4282   -0.2731 O   0  0  0  0  0  0  0  0  0  0  0  0
    5.8693    1.8175   -0.0730 C   0  0  0  0  0  0  0  0  0  0  0  0
    5.8660    0.4415   -0.3107 C   0  0  0  0  0  0  0  0  0  0  0  0
    4.7005   -0.3153   -0.1470 C   0  0  0  0  0  0  0  0  0  0  0  0
    3.5202    0.3032    0.2613 C   0  0  0  0  0  0  0  0  0  0  0  0
    2.2024   -0.5298    0.4540 C   0  0  0  0  0  0  0  0  0  0  0  0
    0.9468   -0.0253    0.7692 C   0  0  0  0  0  0  0  0  0  0  0  0
    0.0369   -1.0799    0.8352 N   0  0  0  0  0  4  0  0  0  0  0  0
   -1.4124   -0.9771    1.0943 C   0  0  0  0  0  0  0  0  0  0  0  0
   -2.2135   -1.1804   -0.2099 C   0  0  0  0  0  0  0  0  0  0  0  0
   -1.8461   -2.0775   -0.9753 O   0  0  0  0  0  0  0  0  0  0  0  0
   -3.2147   -0.2299   -0.4723 N   0  0  0  0  0  0  0  0  0  0  0  0
   -3.5671    0.1424   -1.8255 C   0  0  0  0  0  0  0  0  0  0  0  0
   -3.4641   -0.7744   -2.8873 C   0  0  0  0  0  0  0  0  0  0  0  0
   -3.7889   -0.4171   -4.2016 C   0  0  0  0  0  0  0  0  0  0  0  0
   -4.2214    0.8696   -4.4883 C   0  0  0  0  0  0  0  0  0  0  0  0
   -4.3323    1.7986   -3.4590 C   0  0  0  0  0  0  0  0  0  0  0  0
   -4.0124    1.4432   -2.1384 C   0  0  0  0  0  0  0  0  0  0  0  0
   -4.1040    2.7284   -0.9120 S   0  0  0  0  0  0  0  0  0  0  0  0
   -4.4369    1.7141    0.5014 C   0  0  0  0  0  0  0  0  0  0  0  0
   -5.1573    2.2810    1.5629 C   0  0  0  0  0  0  0  0  0  0  0  0
   -5.4501    1.5335    2.7016 C   0  0  0  0  0  0  0  0  0  0  0  0
   -5.0320    0.2112    2.7823 C   0  0  0  0  0  0  0  0  0  0  0  0
   -4.3066   -0.3557    1.7312 C   0  0  0  0  0  0  0  0  0  0  0  0
   -3.9696    0.3932    0.5849 C   0  0  0  0  0  0  0  0  0  0  0  0
    0.6996   -2.1964    0.5456 C   0  0  0  0  0  0  0  0  0  0  0  0
    1.9818   -1.8918    0.3603 N   0  0  0  0  0  0  0  0  0  0  0  0
    2.7848   -3.0769    0.0925 C   0  0  0  0  0  0  0  0  0  0  0  0
    1.8444   -4.2463    0.4894 C   0  0  0  0  0  0  0  0  0  0  0  0
    0.4254   -3.6483    0.4281 C   0  0  0  0  0  0  0  0  0  0  0  0
    3.5170    1.6846    0.4943 C   0  0  0  0  0  0  0  0  0  0  0  0
    4.6885    2.4372    0.3294 C   0  0  0  0  0  0  0  0  0  0  0  0
    6.4747    4.3810   -0.7031 H   0  0  0  0  0  0  0  0  0  0  0  0
    6.9225    4.0591    1.0200 H   0  0  0  0  0  0  0  0  0  0  0  0
    8.1660    4.1575   -0.2352 H   0  0  0  0  0  0  0  0  0  0  0  0
    6.7860   -0.0446   -0.6320 H   0  0  0  0  0  0  0  0  0  0  0  0
    4.7561   -1.3745   -0.3625 H   0  0  0  0  0  0  0  0  0  0  0  0
    0.5771    0.9704    0.9450 H   0  0  0  0  0  0  0  0  0  0  0  0
   -1.5874    0.0049    1.5404 H   0  0  0  0  0  0  0  0  0  0  0  0
   -1.6836   -1.7572    1.8121 H   0  0  0  0  0  0  0  0  0  0  0  0
   -3.1784   -1.8095   -2.7267 H   0  0  0  0  0  0  0  0  0  0  0  0
   -3.7118   -1.1540   -4.9985 H   0  0  0  0  0  0  0  0  0  0  0  0
   -4.4760    1.1488   -5.5083 H   0  0  0  0  0  0  0  0  0  0  0  0
   -4.6675    2.8072   -3.6952 H   0  0  0  0  0  0  0  0  0  0  0  0
   -5.5128    3.3093    1.5020 H   0  0  0  0  0  0  0  0  0  0  0  0
   -6.0259    1.9784    3.5107 H   0  0  0  0  0  0  0  0  0  0  0  0
   -5.2994   -0.3869    3.6512 H   0  0  0  0  0  0  0  0  0  0  0  0
   -4.0674   -1.4143    1.8072 H   0  0  0  0  0  0  0  0  0  0  0  0
    3.6930   -3.0824    0.6984 H   0  0  0  0  0  0  0  0  0  0  0  0
    3.0241   -3.1070   -0.9745 H   0  0  0  0  0  0  0  0  0  0  0  0
    1.9674   -5.1258   -0.1479 H   0  0  0  0  0  0  0  0  0  0  0  0
    2.0631   -4.5430    1.5217 H   0  0  0  0  0  0  0  0  0  0  0  0
   -0.0410   -3.8119   -0.5443 H   0  0  0  0  0  0  0  0  0  0  0  0
   -0.2166   -3.9604    1.2525 H   0  0  0  0  0  0  0  0  0  0  0  0
    2.6227    2.2131    0.8128 H   0  0  0  0  0  0  0  0  0  0  0  0
    4.6442    3.5056    0.5208 H   0  0  0  0  0  0  0  0  0  0  0  0
  1  2  1  0
  2  3  1  0
  3  4  2  0
  4  5  1  0
  5  6  2  0
  6  7  1  0
  7  8  2  0
  8  9  1  0
  9 10  1  0
 10 11  1  0
 11 12  2  0
 11 13  1  0
 13 14  1  0
 14 15  2  0
 15 16  1  0
 16 17  2  0
 17 18  1  0
 18 19  2  0
 19 20  1  0
 20 21  1  0
 21 22  2  0
 22 23  1  0
 23 24  2  0
 24 25  1  0
 25 26  2  0
  9 27  2  0
 27 28  1  0
 28 29  1  0
 29 30  1  0
 30 31  1  0
  6 32  1  0
 32 33  2  0
 33  3  1  0
 28  7  1  0
 26 13  1  0
 31 27  1  0
 19 14  1  0
 26 21  1  0
  1 34  1  0
  1 35  1  0
  1 36  1  0
  4 37  1  0
  5 38  1  0
  8 39  1  0
 10 40  1  0
 10 41  1  0
 15 42  1  0
 16 43  1  0
 17 44  1  0
 18 45  1  0
 22 46  1  0
 23 47  1  0
 24 48  1  0
 25 49  1  0
 29 50  1  0
 29 51  1  0
 30 52  1  0
 30 53  1  0
 31 54  1  0
 31 55  1  0
 32 56  1  0
 33 57  1  0
M  CHG  1   9   1
M  END
$$$$
