
     RDKit          3D

 59 62  0  0  0  0  0  0  0  0999 V2000
    8.2182   -0.0917    1.5485 C   0  0  0  0  0  0  0  0  0  0  0  0
    7.2425   -0.3630    2.5469 O   0  0  0  0  0  0  0  0  0  0  0  0
    5.9295   -0.2410    2.1835 C   0  0  0  0  0  0  0  0  0  0  0  0
    5.0159   -0.5455    3.1985 C   0  0  0  0  0  0  0  0  0  0  0  0
    3.6392   -0.4652    2.9721 C   0  0  0  0  0  0  0  0  0  0  0  0
    3.1655   -0.0755    1.7199 C   0  0  0  0  0  0  0  0  0  0  0  0
    1.7342    0.0193    1.4381 C   0  0  0  0  0  0  0  0  0  0  0  0
    1.2843    0.3762    0.2208 C   0  0  0  0  0  0  0  0  0  0  0  0
   -0.1698    0.5008   -0.1363 C   0  0  0  0  0  0  0  0  0  0  0  0
   -0.9216   -0.7811   -0.1107 N   0  0  0  0  0  0  0  0  0  0  0  0
   -0.2681   -1.9764   -0.7053 C   0  0  0  0  0  0  0  0  0  0  0  0
   -0.2451   -1.9065   -2.2352 C   0  0  0  0  0  0  0  0  0  0  0  0
   -1.6255   -1.8744   -2.8736 C   0  0  0  0  0  0  0  0  0  0  0  0
   -1.3399   -2.4428   -4.2406 C   0  0  0  0  0  0  0  0  0  0  0  0
   -0.3169   -3.5134   -3.9280 C   0  0  0  0  0  0  0  0  0  0  0  0
    0.4116   -3.0734   -2.7720 O   0  0  0  0  0  0  0  0  0  0  0  0
   -2.0325   -1.0370    1.1353 S   0  0  0  0  0  6  0  0  0  0  0  0
   -2.7462   -2.2712    0.8915 O   0  0  0  0  0  0  0  0  0  0  0  0
   -1.3605   -0.7900    2.3929 O   0  0  0  0  0  0  0  0  0  0  0  0
   -3.2068    0.2770    0.8759 C   0  0  0  0  0  0  0  0  0  0  0  0
   -3.3513    1.2908    1.8270 C   0  0  0  0  0  0  0  0  0  0  0  0
   -4.2801    2.3143    1.6110 C   0  0  0  0  0  0  0  0  0  0  0  0
   -5.0661    2.3203    0.4498 C   0  0  0  0  0  0  0  0  0  0  0  0
   -6.0696    3.3919    0.1732 C   0  0  0  0  0  0  0  0  0  0  0  0
   -6.3218    4.4453    1.2198 C   0  0  0  0  0  0  0  0  0  0  0  0
   -6.6694    3.4042   -0.8996 O   0  0  0  0  0  0  0  0  0  0  0  0
   -4.9148    1.2904   -0.4922 C   0  0  0  0  0  0  0  0  0  0  0  0
   -3.9907    0.2654   -0.2799 C   0  0  0  0  0  0  0  0  0  0  0  0
    2.2664    0.7297   -0.8507 C   0  0  0  0  0  0  0  0  0  0  0  0
    1.9024    1.1040   -1.9615 O   0  0  0  0  0  0  0  0  0  0  0  0
    3.5967    0.6234   -0.5465 N   0  0  0  0  0  0  0  0  0  0  0  0
    4.0800    0.2292    0.7066 C   0  0  0  0  0  0  0  0  0  0  0  0
    5.4574    0.1495    0.9294 C   0  0  0  0  0  0  0  0  0  0  0  0
    9.2054   -0.2465    1.9946 H   0  0  0  0  0  0  0  0  0  0  0  0
    8.1624    0.9502    1.2161 H   0  0  0  0  0  0  0  0  0  0  0  0
    8.1220   -0.7824    0.7042 H   0  0  0  0  0  0  0  0  0  0  0  0
    5.3819   -0.8510    4.1765 H   0  0  0  0  0  0  0  0  0  0  0  0
    2.9519   -0.7114    3.7778 H   0  0  0  0  0  0  0  0  0  0  0  0
    1.0500   -0.2215    2.2447 H   0  0  0  0  0  0  0  0  0  0  0  0
   -0.3181    0.9369   -1.1305 H   0  0  0  0  0  0  0  0  0  0  0  0
   -0.6229    1.2280    0.5473 H   0  0  0  0  0  0  0  0  0  0  0  0
   -0.7869   -2.8969   -0.4144 H   0  0  0  0  0  0  0  0  0  0  0  0
    0.7476   -2.1100   -0.3193 H   0  0  0  0  0  0  0  0  0  0  0  0
    0.3356   -1.0400   -2.5701 H   0  0  0  0  0  0  0  0  0  0  0  0
   -2.0559   -0.8697   -2.9066 H   0  0  0  0  0  0  0  0  0  0  0  0
   -2.3221   -2.5318   -2.3395 H   0  0  0  0  0  0  0  0  0  0  0  0
   -0.8911   -1.6711   -4.8774 H   0  0  0  0  0  0  0  0  0  0  0  0
   -2.2251   -2.8333   -4.7491 H   0  0  0  0  0  0  0  0  0  0  0  0
    0.3761   -3.6864   -4.7562 H   0  0  0  0  0  0  0  0  0  0  0  0
   -0.8012   -4.4621   -3.6737 H   0  0  0  0  0  0  0  0  0  0  0  0
   -2.7514    1.2915    2.7352 H   0  0  0  0  0  0  0  0  0  0  0  0
   -4.3708    3.0928    2.3635 H   0  0  0  0  0  0  0  0  0  0  0  0
   -5.4306    5.0632    1.3555 H   0  0  0  0  0  0  0  0  0  0  0  0
   -7.1402    5.0921    0.8882 H   0  0  0  0  0  0  0  0  0  0  0  0
   -6.6234    3.9814    2.1626 H   0  0  0  0  0  0  0  0  0  0  0  0
   -5.5242    1.2799   -1.3953 H   0  0  0  0  0  0  0  0  0  0  0  0
   -3.8921   -0.5353   -1.0096 H   0  0  0  0  0  0  0  0  0  0  0  0
    4.2386    0.8565   -1.2920 H   0  0  0  0  0  0  0  0  0  0  0  0
    6.1375    0.3932    0.1219 H   0  0  0  0  0  0  0  0  0  0  0  0
  1  2  1  0
  2  3  1  0
  3  4  2  0
  4  5  1  0
  5  6  2  0
  6  7  1  0
  7  8  2  0
  8  9  1  0
  9 10  1  0
 10 11  1  0
 11 12  1  0
 12 13  1  0
 13 14  1  0
 14 15  1  0
 15 16  1  0
 10 17  1  0
 17 18  2  0
 17 19  2  0
 17 20  1  0
 20 21  2  0
 21 22  1  0
 22 23  2  0
 23 24  1  0
 24 25  1  0
 24 26  2  0
 23 27  1  0
 27 28  2  0
  8 29  1  0
 29 30  2  0
 29 31  1  0
 31 32  1  0
 32 33  2  0
 33  3  1  0
 32  6  1  0
 16 12  1  0
 28 20  1  0
  1 34  1  0
  1 35  1  0
  1 36  1  0
  4 37  1  0
  5 38  1  0
  7 39  1  0
  9 40  1  0
  9 41  1  0
 11 42  1  0
 11 43  1  0
 12 44  1  0
 13 45  1  0
 13 46  1  0
 14 47  1  0
 14 48  1  0
 15 49  1  0
 15 50  1  0
 21 51  1  0
 22 52  1  0
 25 53  1  0
 25 54  1  0
 25 55  1  0
 27 56  1  0
 28 57  1  0
 31 58  1  0
 33 59  1  0
M  END
$$$$
