
     RDKit          3D

 35 37  0  0  0  0  0  0  0  0999 V2000
    7.3473    0.0827   -1.7210 C   0  0  0  0  0  0  0  0  0  0  0  0
    5.9624   -0.0875   -1.4159 O   0  0  0  0  0  0  0  0  0  0  0  0
    5.4297    0.9269   -0.6901 C   0  0  0  0  0  0  0  0  0  0  0  0
    6.0282    1.9162   -0.2976 O   0  0  0  0  0  0  0  0  0  0  0  0
    3.9867    0.6804   -0.4201 C   0  0  0  0  0  0  0  0  0  0  0  0
    3.2763    1.6429    0.3092 C   0  0  0  0  0  0  0  0  0  0  0  0
    1.9187    1.4594    0.5895 C   0  0  0  0  0  0  0  0  0  0  0  0
    1.2532    0.3146    0.1385 C   0  0  0  0  0  0  0  0  0  0  0  0
   -0.1688    0.1400    0.4601 C   0  0  0  0  0  0  0  0  0  0  0  0
   -1.1745    0.0552   -0.4360 C   0  0  0  0  0  0  0  0  0  0  0  0
   -0.9597    0.1100   -1.8461 C   0  0  0  0  0  0  0  0  0  0  0  0
   -0.7697    0.1667   -2.9904 N   0  0  0  0  0  0  0  0  0  0  0  0
   -2.5123   -0.1240    0.0319 C   0  0  0  0  0  0  0  0  0  0  0  0
   -3.2893   -1.1541   -0.2386 N   0  0  0  0  0  0  0  0  0  0  0  0
   -4.5331   -1.0055    0.3514 C   0  0  0  0  0  0  0  0  0  0  0  0
   -5.6009   -1.9218    0.2696 C   0  0  0  0  0  0  0  0  0  0  0  0
   -6.8080   -1.6427    0.9186 C   0  0  0  0  0  0  0  0  0  0  0  0
   -6.9615   -0.4658    1.6443 C   0  0  0  0  0  0  0  0  0  0  0  0
   -5.9170    0.4592    1.7394 C   0  0  0  0  0  0  0  0  0  0  0  0
   -4.7094    0.1677    1.0833 C   0  0  0  0  0  0  0  0  0  0  0  0
   -3.2632    1.0939    1.0116 S   0  0  0  0  0  0  0  0  0  0  0  0
    1.9646   -0.6541   -0.5793 C   0  0  0  0  0  0  0  0  0  0  0  0
    3.3229   -0.4711   -0.8619 C   0  0  0  0  0  0  0  0  0  0  0  0
    7.4999    0.9858   -2.3203 H   0  0  0  0  0  0  0  0  0  0  0  0
    7.6734   -0.7809   -2.3072 H   0  0  0  0  0  0  0  0  0  0  0  0
    7.9402    0.1215   -0.8018 H   0  0  0  0  0  0  0  0  0  0  0  0
    3.7778    2.5428    0.6618 H   0  0  0  0  0  0  0  0  0  0  0  0
    1.3901    2.2233    1.1563 H   0  0  0  0  0  0  0  0  0  0  0  0
   -0.3727    0.0889    1.5290 H   0  0  0  0  0  0  0  0  0  0  0  0
   -5.4776   -2.8382   -0.2993 H   0  0  0  0  0  0  0  0  0  0  0  0
   -7.6301   -2.3518    0.8522 H   0  0  0  0  0  0  0  0  0  0  0  0
   -7.9065   -0.2601    2.1434 H   0  0  0  0  0  0  0  0  0  0  0  0
   -6.0398    1.3783    2.3044 H   0  0  0  0  0  0  0  0  0  0  0  0
    1.4751   -1.5619   -0.9278 H   0  0  0  0  0  0  0  0  0  0  0  0
    3.8478   -1.2369   -1.4283 H   0  0  0  0  0  0  0  0  0  0  0  0
  1  2  1  0
  2  3  1  0
  3  4  2  0
  3  5  1  0
  5  6  2  0
  6  7  1  0
  7  8  2  0
  8  9  1  0
  9 10  2  3
 10 11  1  0
 11 12  3  0
 10 13  1  0
 13 14  2  0
 14 15  1  0
 15 16  2  0
 16 17  1  0
 17 18  2  0
 18 19  1  0
 19 20  2  0
 20 21  1  0
  8 22  1  0
 22 23  2  0
 23  5  1  0
 21 13  1  0
 20 15  1  0
  1 24  1  0
  1 25  1  0
  1 26  1  0
  6 27  1  0
  7 28  1  0
  9 29  1  0
 16 30  1  0
 17 31  1  0
 18 32  1  0
 19 33  1  0
 22 34  1  0
 23 35  1  0
M  END
$$$$
