
     RDKit          3D

 36 38  0  0  0  0  0  0  0  0999 V2000
   -2.0882    3.4237    1.0014 C   0  0  0  0  0  0  0  0  0  0  0  0
   -2.2868    2.1605    0.3677 O   0  0  0  0  0  0  0  0  0  0  0  0
   -1.1566    1.3997    0.2739 C   0  0  0  0  0  0  0  0  0  0  0  0
   -0.0583    1.7536    0.6901 O   0  0  0  0  0  0  0  0  0  0  0  0
   -1.3906    0.1151   -0.3806 C   0  0  0  0  0  0  0  0  0  0  0  0
   -0.3806   -0.8231   -0.6159 C   0  0  0  0  0  0  0  0  0  0  0  0
    0.9544   -0.6959   -0.2742 N   0  0  0  0  0  0  0  0  0  0  0  0
    1.9851   -1.5917   -0.4858 C   0  0  0  0  0  0  0  0  0  0  0  0
    1.9273   -2.6908   -1.0243 O   0  0  0  0  0  0  0  0  0  0  0  0
    3.2654   -1.0711    0.0337 C   0  0  0  0  0  0  0  0  0  0  0  0
    4.5309   -1.7125   -0.0060 C   0  0  0  0  0  0  0  0  0  0  0  0
    5.4036   -0.8387    0.5965 C   0  0  0  0  0  0  0  0  0  0  0  0
    4.6587    0.2431    0.9570 N   0  0  0  0  0  0  0  0  0  0  0  0
    5.1252    1.4338    1.6257 C   0  0  0  0  0  0  0  0  0  0  0  0
    3.3576    0.1362    0.6309 N   0  0  0  0  0  0  0  0  0  0  0  0
   -0.9536   -2.2311   -1.4137 S   0  0  0  0  0  0  0  0  0  0  0  0
   -2.5031   -1.6239   -1.4465 C   0  0  0  0  0  0  0  0  0  0  0  0
   -2.6288   -0.3895   -0.8758 C   0  0  0  0  0  0  0  0  0  0  0  0
   -4.0376    0.0810   -0.9456 C   0  0  0  0  0  0  0  0  0  0  0  0
   -4.8071   -1.2173   -1.3449 C   0  0  0  0  0  0  0  0  0  0  0  0
   -3.7639   -2.1811   -1.9858 C   0  0  0  0  0  0  0  0  0  0  0  0
   -1.7449    3.2869    2.0317 H   0  0  0  0  0  0  0  0  0  0  0  0
   -1.3780    4.0315    0.4321 H   0  0  0  0  0  0  0  0  0  0  0  0
   -3.0488    3.9457    1.0241 H   0  0  0  0  0  0  0  0  0  0  0  0
    1.2362    0.1665    0.1994 H   0  0  0  0  0  0  0  0  0  0  0  0
    4.7551   -2.6845   -0.4239 H   0  0  0  0  0  0  0  0  0  0  0  0
    6.4650   -0.8998    0.7915 H   0  0  0  0  0  0  0  0  0  0  0  0
    4.5879    1.5299    2.5724 H   0  0  0  0  0  0  0  0  0  0  0  0
    4.9245    2.2923    0.9799 H   0  0  0  0  0  0  0  0  0  0  0  0
    6.1987    1.3497    1.8123 H   0  0  0  0  0  0  0  0  0  0  0  0
   -4.4049    0.4722    0.0071 H   0  0  0  0  0  0  0  0  0  0  0  0
   -4.1477    0.8454   -1.7219 H   0  0  0  0  0  0  0  0  0  0  0  0
   -5.2127   -1.6836   -0.4371 H   0  0  0  0  0  0  0  0  0  0  0  0
   -5.6498   -1.0122   -2.0123 H   0  0  0  0  0  0  0  0  0  0  0  0
   -3.9447   -3.2170   -1.6863 H   0  0  0  0  0  0  0  0  0  0  0  0
   -3.7889   -2.1031   -3.0775 H   0  0  0  0  0  0  0  0  0  0  0  0
  1  2  1  0
  2  3  1  0
  3  4  2  0
  3  5  1  0
  5  6  2  0
  6  7  1  0
  7  8  1  0
  8  9  2  0
  8 10  1  0
 10 11  1  0
 11 12  2  0
 12 13  1  0
 13 14  1  0
 13 15  1  0
  6 16  1  0
 16 17  1  0
 17 18  2  0
 18 19  1  0
 19 20  1  0
 20 21  1  0
 18  5  1  0
 15 10  2  0
 21 17  1  0
  1 22  1  0
  1 23  1  0
  1 24  1  0
  7 25  1  0
 11 26  1  0
 12 27  1  0
 14 28  1  0
 14 29  1  0
 14 30  1  0
 19 31  1  0
 19 32  1  0
 20 33  1  0
 20 34  1  0
 21 35  1  0
 21 36  1  0
M  END
$$$$
