
     RDKit          3D

 39 41  0  0  0  0  0  0  0  0999 V2000
    4.5700   -0.3327    0.7372 C   0  0  0  0  0  0  0  0  0  0  0  0
    3.6372   -1.1966    0.0114 N   0  0  0  0  0  0  0  0  0  0  0  0
    4.3556   -1.9289   -1.0354 C   0  0  0  0  0  0  0  0  0  0  0  0
    2.5226   -0.4345   -0.5834 C   0  0  0  0  0  0  0  0  0  0  0  0
    1.5518    0.1472    0.4640 C   0  0  0  0  0  0  0  0  0  0  0  0
    0.3840    0.8392   -0.2001 C   0  0  0  0  0  0  0  0  0  0  0  0
   -0.9430    0.6585   -0.0065 C   0  0  0  0  0  0  0  0  0  0  0  0
   -1.8733    1.3376   -0.9532 C   0  0  0  0  0  0  0  0  0  0  0  0
   -1.7447    2.6969   -1.2810 C   0  0  0  0  0  0  0  0  0  0  0  0
   -2.6356    3.2998   -2.1711 C   0  0  0  0  0  0  0  0  0  0  0  0
   -3.6683    2.5554   -2.7361 C   0  0  0  0  0  0  0  0  0  0  0  0
   -3.8210    1.2089   -2.4032 C   0  0  0  0  0  0  0  0  0  0  0  0
   -2.9374    0.5968   -1.5049 C   0  0  0  0  0  0  0  0  0  0  0  0
   -3.2028   -1.1300   -1.0950 S   0  0  0  0  0  0  0  0  0  0  0  0
   -2.5213   -1.1856    0.5626 C   0  0  0  0  0  0  0  0  0  0  0  0
   -3.0592   -2.1094    1.4688 C   0  0  0  0  0  0  0  0  0  0  0  0
   -2.6057   -2.1472    2.7883 C   0  0  0  0  0  0  0  0  0  0  0  0
   -1.6244   -1.2523    3.2061 C   0  0  0  0  0  0  0  0  0  0  0  0
   -1.0903   -1.2753    4.8418 Cl  0  0  0  0  0  0  0  0  0  0  0  0
   -1.0754   -0.3335    2.3126 C   0  0  0  0  0  0  0  0  0  0  0  0
   -1.4906   -0.3160    0.9725 C   0  0  0  0  0  0  0  0  0  0  0  0
    4.9852    0.4557    0.0992 H   0  0  0  0  0  0  0  0  0  0  0  0
    4.0879    0.1354    1.6008 H   0  0  0  0  0  0  0  0  0  0  0  0
    5.4031   -0.9201    1.1405 H   0  0  0  0  0  0  0  0  0  0  0  0
    4.7943   -1.2575   -1.7825 H   0  0  0  0  0  0  0  0  0  0  0  0
    5.1587   -2.5346   -0.6007 H   0  0  0  0  0  0  0  0  0  0  0  0
    3.6844   -2.6266   -1.5487 H   0  0  0  0  0  0  0  0  0  0  0  0
    2.9063    0.3670   -1.2293 H   0  0  0  0  0  0  0  0  0  0  0  0
    1.9407   -1.1071   -1.2286 H   0  0  0  0  0  0  0  0  0  0  0  0
    2.0614    0.8893    1.0880 H   0  0  0  0  0  0  0  0  0  0  0  0
    1.2310   -0.6688    1.1167 H   0  0  0  0  0  0  0  0  0  0  0  0
    0.7032    1.5360   -0.9761 H   0  0  0  0  0  0  0  0  0  0  0  0
   -0.9559    3.2999   -0.8377 H   0  0  0  0  0  0  0  0  0  0  0  0
   -2.5250    4.3523   -2.4202 H   0  0  0  0  0  0  0  0  0  0  0  0
   -4.3615    3.0245   -3.4300 H   0  0  0  0  0  0  0  0  0  0  0  0
   -4.6388    0.6429   -2.8433 H   0  0  0  0  0  0  0  0  0  0  0  0
   -3.8443   -2.7946    1.1572 H   0  0  0  0  0  0  0  0  0  0  0  0
   -3.0324   -2.8637    3.4852 H   0  0  0  0  0  0  0  0  0  0  0  0
   -0.3264    0.3719    2.6629 H   0  0  0  0  0  0  0  0  0  0  0  0
  1  2  1  0
  2  3  1  0
  2  4  1  0
  4  5  1  0
  5  6  1  0
  6  7  2  3
  7  8  1  0
  8  9  2  0
  9 10  1  0
 10 11  2  0
 11 12  1  0
 12 13  2  0
 13 14  1  0
 14 15  1  0
 15 16  2  0
 16 17  1  0
 17 18  2  0
 18 19  1  0
 18 20  1  0
 20 21  2  0
 21  7  1  0
 13  8  1  0
 21 15  1  0
  1 22  1  0
  1 23  1  0
  1 24  1  0
  3 25  1  0
  3 26  1  0
  3 27  1  0
  4 28  1  0
  4 29  1  0
  5 30  1  0
  5 31  1  0
  6 32  1  0
  9 33  1  0
 10 34  1  0
 11 35  1  0
 12 36  1  0
 16 37  1  0
 17 38  1  0
 20 39  1  0
M  END
$$$$
