
     RDKit          3D

 81 84  0  0  0  0  0  0  0  0999 V2000
   -7.1091    5.0199    0.0493 C   0  0  0  0  0  0  0  0  0  0  0  0
   -6.3525    4.5457    1.1572 O   0  0  0  0  0  0  0  0  0  0  0  0
   -5.5911    3.4270    0.9535 C   0  0  0  0  0  0  0  0  0  0  0  0
   -4.9509    2.9445    2.0997 C   0  0  0  0  0  0  0  0  0  0  0  0
   -4.1433    1.8070    2.0398 C   0  0  0  0  0  0  0  0  0  0  0  0
   -3.9664    1.1557    0.8172 C   0  0  0  0  0  0  0  0  0  0  0  0
   -2.9376   -0.2894    0.7581 S   0  0  0  0  0  6  0  0  0  0  0  0
   -3.3661   -1.1737    1.8205 O   0  0  0  0  0  0  0  0  0  0  0  0
   -2.8489   -0.7424   -0.6115 O   0  0  0  0  0  0  0  0  0  0  0  0
   -1.4123    0.3354    1.1869 N   0  0  0  0  0  0  0  0  0  0  0  0
   -0.7541    1.1854    0.1766 C   0  0  0  0  0  0  0  0  0  0  0  0
   -0.5063   -0.5940    1.9229 C   0  0  0  0  0  0  0  0  0  0  0  0
   -0.0175   -1.8083    1.0943 C   0  0  0  0  0  0  0  0  0  0  0  0
    1.0712   -1.3595    0.2860 O   0  0  0  0  0  0  0  0  0  0  0  0
    1.3553   -1.9183   -0.9376 C   0  0  0  0  0  0  0  0  0  0  0  0
    2.3293   -1.1509   -1.6402 C   0  0  0  0  0  0  0  0  0  0  0  0
    2.8387   -0.0057   -0.9797 N   0  0  0  0  0  0  0  0  0  0  0  0
    3.4720    1.0833   -1.5513 C   0  0  0  0  0  0  0  0  0  0  0  0
    3.6416    1.2495   -2.7507 O   0  0  0  0  0  0  0  0  0  0  0  0
    3.8641    1.9695   -0.5609 N   0  0  0  0  0  0  0  0  0  0  0  0
    4.2634    3.3094   -0.7270 C   0  0  0  0  0  0  0  0  0  0  0  0
    4.8129    3.9628    0.3818 C   0  0  0  0  0  0  0  0  0  0  0  0
    5.1716    5.3129    0.3062 C   0  0  0  0  0  0  0  0  0  0  0  0
    4.9756    6.0396   -0.8781 C   0  0  0  0  0  0  0  0  0  0  0  0
    5.3405    7.5012   -0.9423 C   0  0  0  0  0  0  0  0  0  0  0  0
    6.6852    7.7059   -0.9773 F   0  0  0  0  0  0  0  0  0  0  0  0
    4.8879    8.1963    0.1376 F   0  0  0  0  0  0  0  0  0  0  0  0
    4.8326    8.1405   -2.0330 F   0  0  0  0  0  0  0  0  0  0  0  0
    4.4333    5.3780   -1.9882 C   0  0  0  0  0  0  0  0  0  0  0  0
    4.0810    4.0254   -1.9128 C   0  0  0  0  0  0  0  0  0  0  0  0
    2.7691   -1.5338   -2.9081 C   0  0  0  0  0  0  0  0  0  0  0  0
    2.2481   -2.6729   -3.5055 C   0  0  0  0  0  0  0  0  0  0  0  0
    1.2953   -3.4308   -2.8318 C   0  0  0  0  0  0  0  0  0  0  0  0
    0.8427   -3.0795   -1.5418 C   0  0  0  0  0  0  0  0  0  0  0  0
   -0.1689   -4.0391   -1.0107 C   0  0  0  0  0  0  0  0  0  0  0  0
   -1.0666   -4.3855   -1.7798 O   0  0  0  0  0  0  0  0  0  0  0  0
   -0.0565   -4.5729    0.2738 N   0  0  0  0  0  0  0  0  0  0  0  0
   -1.0531   -5.5632    0.7642 C   0  0  0  0  0  0  0  0  0  0  0  0
   -0.8523   -6.9222    0.0897 C   0  0  0  0  0  0  0  0  0  0  0  0
   -2.5177   -5.0713    0.6988 C   0  0  0  0  0  0  0  0  0  0  0  0
   -3.1479   -5.3276   -0.5490 O   0  0  0  0  0  0  0  0  0  0  0  0
    0.9669   -4.1477    1.2214 C   0  0  0  0  0  0  0  0  0  0  0  0
    0.4846   -2.9374    2.0304 C   0  0  0  0  0  0  0  0  0  0  0  0
    1.6138   -2.4931    2.9666 C   0  0  0  0  0  0  0  0  0  0  0  0
   -4.5992    1.6249   -0.3357 C   0  0  0  0  0  0  0  0  0  0  0  0
   -5.4102    2.7647   -0.2643 C   0  0  0  0  0  0  0  0  0  0  0  0
   -7.7069    5.8715    0.3918 H   0  0  0  0  0  0  0  0  0  0  0  0
   -6.4520    5.3692   -0.7552 H   0  0  0  0  0  0  0  0  0  0  0  0
   -7.8048    4.2552   -0.3119 H   0  0  0  0  0  0  0  0  0  0  0  0
   -5.0933    3.4572    3.0490 H   0  0  0  0  0  0  0  0  0  0  0  0
   -3.6644    1.4339    2.9417 H   0  0  0  0  0  0  0  0  0  0  0  0
   -1.3819    2.0442   -0.0737 H   0  0  0  0  0  0  0  0  0  0  0  0
    0.1840    1.5843    0.5735 H   0  0  0  0  0  0  0  0  0  0  0  0
   -0.5313    0.6220   -0.7339 H   0  0  0  0  0  0  0  0  0  0  0  0
   -1.0368   -0.9297    2.8229 H   0  0  0  0  0  0  0  0  0  0  0  0
    0.3517   -0.0049    2.2722 H   0  0  0  0  0  0  0  0  0  0  0  0
   -0.8495   -2.1484    0.4736 H   0  0  0  0  0  0  0  0  0  0  0  0
    2.4406    0.1441   -0.0630 H   0  0  0  0  0  0  0  0  0  0  0  0
    4.0118    1.5618    0.3495 H   0  0  0  0  0  0  0  0  0  0  0  0
    4.9680    3.4349    1.3211 H   0  0  0  0  0  0  0  0  0  0  0  0
    5.5933    5.8017    1.1813 H   0  0  0  0  0  0  0  0  0  0  0  0
    4.2705    5.9142   -2.9237 H   0  0  0  0  0  0  0  0  0  0  0  0
    3.6472    3.5609   -2.7945 H   0  0  0  0  0  0  0  0  0  0  0  0
    3.5216   -0.9643   -3.4462 H   0  0  0  0  0  0  0  0  0  0  0  0
    2.5823   -2.9686   -4.4965 H   0  0  0  0  0  0  0  0  0  0  0  0
    0.8977   -4.3202   -3.3245 H   0  0  0  0  0  0  0  0  0  0  0  0
   -0.8390   -5.7006    1.8321 H   0  0  0  0  0  0  0  0  0  0  0  0
    0.1673   -7.2878    0.2628 H   0  0  0  0  0  0  0  0  0  0  0  0
   -1.5478   -7.6643    0.4987 H   0  0  0  0  0  0  0  0  0  0  0  0
   -1.0021   -6.8763   -0.9939 H   0  0  0  0  0  0  0  0  0  0  0  0
   -3.1075   -5.6001    1.4570 H   0  0  0  0  0  0  0  0  0  0  0  0
   -2.5903   -3.9988    0.9180 H   0  0  0  0  0  0  0  0  0  0  0  0
   -2.5614   -4.9408   -1.2377 H   0  0  0  0  0  0  0  0  0  0  0  0
    1.1989   -4.9882    1.8865 H   0  0  0  0  0  0  0  0  0  0  0  0
    1.9016   -3.9319    0.6925 H   0  0  0  0  0  0  0  0  0  0  0  0
   -0.3643   -3.2567    2.6509 H   0  0  0  0  0  0  0  0  0  0  0  0
    1.9383   -3.3255    3.6036 H   0  0  0  0  0  0  0  0  0  0  0  0
    1.2889   -1.6898    3.6349 H   0  0  0  0  0  0  0  0  0  0  0  0
    2.4866   -2.1408    2.4053 H   0  0  0  0  0  0  0  0  0  0  0  0
   -4.4765    1.1097   -1.2870 H   0  0  0  0  0  0  0  0  0  0  0  0
   -5.8886    3.1078   -1.1766 H   0  0  0  0  0  0  0  0  0  0  0  0
  1  2  1  0
  2  3  1  0
  3  4  2  0
  4  5  1  0
  5  6  2  0
  6  7  1  0
  7  8  2  0
  7  9  2  0
  7 10  1  0
 10 11  1  0
 10 12  1  0
 12 13  1  0
 13 14  1  0
 14 15  1  0
 15 16  2  0
 16 17  1  0
 17 18  1  0
 18 19  2  0
 18 20  1  0
 20 21  1  0
 21 22  2  0
 22 23  1  0
 23 24  2  0
 24 25  1  0
 25 26  1  0
 25 27  1  0
 25 28  1  0
 24 29  1  0
 29 30  2  0
 16 31  1  0
 31 32  2  0
 32 33  1  0
 33 34  2  0
 34 35  1  0
 35 36  2  0
 35 37  1  0
 37 38  1  0
 38 39  1  0
 38 40  1  0
 40 41  1  0
 37 42  1  0
 42 43  1  0
 43 44  1  0
  6 45  1  0
 45 46  2  0
 46  3  1  0
 43 13  1  0
 34 15  1  0
 30 21  1  0
  1 47  1  0
  1 48  1  0
  1 49  1  0
  4 50  1  0
  5 51  1  0
 11 52  1  0
 11 53  1  0
 11 54  1  0
 12 55  1  0
 12 56  1  0
 13 57  1  0
 17 58  1  0
 20 59  1  0
 22 60  1  0
 23 61  1  0
 29 62  1  0
 30 63  1  0
 31 64  1  0
 32 65  1  0
 33 66  1  0
 38 67  1  0
 39 68  1  0
 39 69  1  0
 39 70  1  0
 40 71  1  0
 40 72  1  0
 41 73  1  0
 42 74  1  0
 42 75  1  0
 43 76  1  0
 44 77  1  0
 44 78  1  0
 44 79  1  0
 45 80  1  0
 46 81  1  0
M  END
$$$$
