
     RDKit          3D

 51 55  0  0  0  0  0  0  0  0999 V2000
    5.3642   -1.0757    2.3919 F   0  0  0  0  0  0  0  0  0  0  0  0
    5.6733   -0.3498    1.3071 C   0  0  0  0  0  0  0  0  0  0  0  0
    6.7228    0.5611    1.3864 C   0  0  0  0  0  0  0  0  0  0  0  0
    7.0550    1.3285    0.2718 C   0  0  0  0  0  0  0  0  0  0  0  0
    6.3322    1.1809   -0.9124 C   0  0  0  0  0  0  0  0  0  0  0  0
    5.2802    0.2638   -0.9852 C   0  0  0  0  0  0  0  0  0  0  0  0
    4.9437   -0.5189    0.1270 C   0  0  0  0  0  0  0  0  0  0  0  0
    3.8022   -1.5030    0.0672 C   0  0  0  0  0  0  0  0  0  0  0  0
    2.4776   -0.9347    0.6106 C   0  0  0  0  0  0  0  0  0  0  0  0
    1.9005    0.1351   -0.2223 N   0  0  0  0  0  0  0  0  0  0  0  0
    1.2819   -0.3562   -1.4719 C   0  0  0  0  0  0  0  0  0  0  0  0
   -0.2465   -0.5787   -1.4183 C   0  0  0  0  0  0  0  0  0  0  0  0
   -0.9893    0.6199   -0.9612 N   0  0  0  0  0  0  0  0  0  0  0  0
   -2.2610    0.3969   -0.4296 C   0  0  0  0  0  0  0  0  0  0  0  0
   -2.4936    0.7075    0.8213 N   0  0  0  0  0  0  0  0  0  0  0  0
   -3.7516    0.4552    1.4025 C   0  0  0  0  0  0  0  0  0  0  0  0
   -3.9434    0.7979    2.7423 C   0  0  0  0  0  0  0  0  0  0  0  0
   -5.1679    0.5587    3.3719 C   0  0  0  0  0  0  0  0  0  0  0  0
   -6.2166   -0.0290    2.6634 C   0  0  0  0  0  0  0  0  0  0  0  0
   -6.0477   -0.3794    1.3234 C   0  0  0  0  0  0  0  0  0  0  0  0
   -4.8168   -0.1343    0.7074 C   0  0  0  0  0  0  0  0  0  0  0  0
   -4.5647   -0.4436   -0.6388 N   0  0  0  0  0  0  0  0  0  0  0  0
   -5.3979   -1.0002   -1.5803 C   0  0  0  0  0  0  0  0  0  0  0  0
   -4.7210   -1.0475   -2.7797 C   0  0  0  0  0  0  0  0  0  0  0  0
   -3.4305   -0.5149   -2.5535 C   0  0  0  0  0  0  0  0  0  0  0  0
   -3.3414   -0.1802   -1.2141 C   0  0  0  0  0  0  0  0  0  0  0  0
   -0.1262    1.6284   -0.3067 C   0  0  0  0  0  0  0  0  0  0  0  0
    0.9367    0.9401    0.5682 C   0  0  0  0  0  0  0  0  0  0  0  0
    7.2709    0.6675    2.3167 H   0  0  0  0  0  0  0  0  0  0  0  0
    7.8711    2.0441    0.3264 H   0  0  0  0  0  0  0  0  0  0  0  0
    6.5832    1.7855   -1.7806 H   0  0  0  0  0  0  0  0  0  0  0  0
    4.7155    0.1712   -1.9100 H   0  0  0  0  0  0  0  0  0  0  0  0
    4.0730   -2.3867    0.6601 H   0  0  0  0  0  0  0  0  0  0  0  0
    3.6881   -1.8749   -0.9575 H   0  0  0  0  0  0  0  0  0  0  0  0
    2.6720   -0.5465    1.6198 H   0  0  0  0  0  0  0  0  0  0  0  0
    1.7533   -1.7515    0.7255 H   0  0  0  0  0  0  0  0  0  0  0  0
    1.4875    0.3957   -2.2455 H   0  0  0  0  0  0  0  0  0  0  0  0
    1.7623   -1.2732   -1.8297 H   0  0  0  0  0  0  0  0  0  0  0  0
   -0.5870   -0.8600   -2.4192 H   0  0  0  0  0  0  0  0  0  0  0  0
   -0.4558   -1.4204   -0.7455 H   0  0  0  0  0  0  0  0  0  0  0  0
   -3.1281    1.2542    3.2974 H   0  0  0  0  0  0  0  0  0  0  0  0
   -5.3009    0.8318    4.4156 H   0  0  0  0  0  0  0  0  0  0  0  0
   -7.1678   -0.2122    3.1574 H   0  0  0  0  0  0  0  0  0  0  0  0
   -6.8782   -0.8321    0.7923 H   0  0  0  0  0  0  0  0  0  0  0  0
   -6.4067   -1.3031   -1.3408 H   0  0  0  0  0  0  0  0  0  0  0  0
   -5.1196   -1.4138   -3.7171 H   0  0  0  0  0  0  0  0  0  0  0  0
   -2.6521   -0.3825   -3.2924 H   0  0  0  0  0  0  0  0  0  0  0  0
   -0.7108    2.3349    0.2940 H   0  0  0  0  0  0  0  0  0  0  0  0
    0.3582    2.2330   -1.0841 H   0  0  0  0  0  0  0  0  0  0  0  0
    1.4977    1.7010    1.1226 H   0  0  0  0  0  0  0  0  0  0  0  0
    0.4200    0.3102    1.3050 H   0  0  0  0  0  0  0  0  0  0  0  0
  1  2  1  0
  2  3  2  0
  3  4  1  0
  4  5  2  0
  5  6  1  0
  6  7  2  0
  7  8  1  0
  8  9  1  0
  9 10  1  0
 10 11  1  0
 11 12  1  0
 12 13  1  0
 13 14  1  0
 14 15  2  0
 15 16  1  0
 16 17  2  0
 17 18  1  0
 18 19  2  0
 19 20  1  0
 20 21  2  0
 21 22  1  0
 22 23  1  0
 23 24  2  0
 24 25  1  0
 25 26  2  0
 13 27  1  0
 27 28  1  0
  7  2  1  0
 28 10  1  0
 26 14  1  0
 21 16  1  0
 26 22  1  0
  3 29  1  0
  4 30  1  0
  5 31  1  0
  6 32  1  0
  8 33  1  0
  8 34  1  0
  9 35  1  0
  9 36  1  0
 11 37  1  0
 11 38  1  0
 12 39  1  0
 12 40  1  0
 17 41  1  0
 18 42  1  0
 19 43  1  0
 20 44  1  0
 23 45  1  0
 24 46  1  0
 25 47  1  0
 27 48  1  0
 27 49  1  0
 28 50  1  0
 28 51  1  0
M  END
$$$$
