
     RDKit          3D

 53 55  0  0  0  0  0  0  0  0999 V2000
   -4.0315   -2.0908    5.6523 C   0  0  0  0  0  0  0  0  0  0  0  0
   -2.8674   -1.7426    4.9139 O   0  0  0  0  0  0  0  0  0  0  0  0
   -2.8952   -1.9725    3.5663 C   0  0  0  0  0  0  0  0  0  0  0  0
   -1.6982   -1.6799    2.9017 C   0  0  0  0  0  0  0  0  0  0  0  0
   -1.5852   -1.8641    1.5229 C   0  0  0  0  0  0  0  0  0  0  0  0
   -2.6860   -2.3388    0.8055 C   0  0  0  0  0  0  0  0  0  0  0  0
   -2.5477   -2.5539   -0.9497 S   0  0  0  0  0  6  0  0  0  0  0  0
   -3.8461   -2.9213   -1.4752 O   0  0  0  0  0  0  0  0  0  0  0  0
   -1.3798   -3.3712   -1.1966 O   0  0  0  0  0  0  0  0  0  0  0  0
   -2.2090   -0.9940   -1.4859 N   0  0  0  0  0  0  0  0  0  0  0  0
   -3.2140    0.0500   -1.2504 C   0  0  0  0  0  0  0  0  0  0  0  0
   -2.7558    1.1280   -2.2045 C   0  0  0  0  0  0  0  0  0  0  0  0
   -2.2748    0.4265   -3.3537 O   0  0  0  0  0  0  0  0  0  0  0  0
   -1.8935   -0.8996   -2.9339 C   0  0  0  0  0  0  0  0  0  0  0  0
   -0.3911   -1.1391   -3.2120 C   0  0  0  0  0  0  0  0  0  0  0  0
    0.4774   -0.5457   -2.2062 N   0  0  0  0  0  0  0  0  0  0  0  0
    0.9420    0.7432   -2.2958 C   0  0  0  0  0  0  0  0  0  0  0  0
    0.9261    1.4610   -3.2857 O   0  0  0  0  0  0  0  0  0  0  0  0
    1.5218    1.2762   -0.9650 C   0  0  0  0  0  0  0  0  0  0  0  0
    1.3811    0.6326    0.0665 O   0  0  0  0  0  0  0  0  0  0  0  0
    2.1649    2.4838   -1.0953 N   0  0  0  0  0  0  0  0  0  0  0  0
    2.9172    3.0786   -0.0223 C   0  0  0  0  0  0  0  0  0  0  0  0
    4.3739    2.7020   -0.1142 C   0  0  0  0  0  0  0  0  0  0  0  0
    4.8415    1.5306    0.5040 C   0  0  0  0  0  0  0  0  0  0  0  0
    6.1847    1.1656    0.4017 C   0  0  0  0  0  0  0  0  0  0  0  0
    7.0580    1.9655   -0.3249 C   0  0  0  0  0  0  0  0  0  0  0  0
    8.3471    1.6151   -0.4232 F   0  0  0  0  0  0  0  0  0  0  0  0
    6.6141    3.1230   -0.9534 C   0  0  0  0  0  0  0  0  0  0  0  0
    5.2712    3.4908   -0.8526 C   0  0  0  0  0  0  0  0  0  0  0  0
   -3.8866   -2.6370    1.4552 C   0  0  0  0  0  0  0  0  0  0  0  0
   -3.9882   -2.4525    2.8383 C   0  0  0  0  0  0  0  0  0  0  0  0
   -3.8373   -1.8641    6.7062 H   0  0  0  0  0  0  0  0  0  0  0  0
   -4.8944   -1.4933    5.3359 H   0  0  0  0  0  0  0  0  0  0  0  0
   -4.2426   -3.1639    5.5738 H   0  0  0  0  0  0  0  0  0  0  0  0
   -0.8446   -1.3068    3.4659 H   0  0  0  0  0  0  0  0  0  0  0  0
   -0.6465   -1.6335    1.0233 H   0  0  0  0  0  0  0  0  0  0  0  0
   -4.2130   -0.3003   -1.5307 H   0  0  0  0  0  0  0  0  0  0  0  0
   -3.2198    0.4035   -0.2172 H   0  0  0  0  0  0  0  0  0  0  0  0
   -3.5583    1.8139   -2.4893 H   0  0  0  0  0  0  0  0  0  0  0  0
   -1.9263    1.7088   -1.7864 H   0  0  0  0  0  0  0  0  0  0  0  0
   -2.4986   -1.5905   -3.5313 H   0  0  0  0  0  0  0  0  0  0  0  0
   -0.1223   -0.7362   -4.1946 H   0  0  0  0  0  0  0  0  0  0  0  0
   -0.1733   -2.2110   -3.2045 H   0  0  0  0  0  0  0  0  0  0  0  0
    0.4578   -0.9475   -1.2724 H   0  0  0  0  0  0  0  0  0  0  0  0
    2.2695    2.8370   -2.0426 H   0  0  0  0  0  0  0  0  0  0  0  0
    2.7995    4.1654   -0.0975 H   0  0  0  0  0  0  0  0  0  0  0  0
    2.5051    2.7724    0.9461 H   0  0  0  0  0  0  0  0  0  0  0  0
    4.1563    0.8953    1.0645 H   0  0  0  0  0  0  0  0  0  0  0  0
    6.5517    0.2626    0.8792 H   0  0  0  0  0  0  0  0  0  0  0  0
    7.3152    3.7281   -1.5195 H   0  0  0  0  0  0  0  0  0  0  0  0
    4.9286    4.3941   -1.3525 H   0  0  0  0  0  0  0  0  0  0  0  0
   -4.7440   -3.0133    0.8999 H   0  0  0  0  0  0  0  0  0  0  0  0
   -4.9337   -2.6917    3.3159 H   0  0  0  0  0  0  0  0  0  0  0  0
  1  2  1  0
  2  3  1  0
  3  4  2  0
  4  5  1  0
  5  6  2  0
  6  7  1  0
  7  8  2  0
  7  9  2  0
  7 10  1  0
 10 11  1  0
 11 12  1  0
 12 13  1  0
 13 14  1  0
 14 15  1  0
 15 16  1  0
 16 17  1  0
 17 18  2  0
 17 19  1  0
 19 20  2  0
 19 21  1  0
 21 22  1  0
 22 23  1  0
 23 24  2  0
 24 25  1  0
 25 26  2  0
 26 27  1  0
 26 28  1  0
 28 29  2  0
  6 30  1  0
 30 31  2  0
 31  3  1  0
 14 10  1  0
 29 23  1  0
  1 32  1  0
  1 33  1  0
  1 34  1  0
  4 35  1  0
  5 36  1  0
 11 37  1  0
 11 38  1  0
 12 39  1  0
 12 40  1  0
 14 41  1  0
 15 42  1  0
 15 43  1  0
 16 44  1  0
 21 45  1  0
 22 46  1  0
 22 47  1  0
 24 48  1  0
 25 49  1  0
 28 50  1  0
 29 51  1  0
 30 52  1  0
 31 53  1  0
M  END
$$$$
