
     RDKit          3D

 36 38  0  0  0  0  0  0  0  0999 V2000
    5.8636   -0.7873    1.0611 C   0  0  0  0  0  0  0  0  0  0  0  0
    5.5509    0.3735    0.1384 C   0  0  0  0  0  0  0  0  0  0  0  0
    4.0847    0.5848    0.0939 N   0  0  0  0  0  4  0  0  0  0  0  0
    3.3422   -0.0587   -0.8361 C   0  0  0  0  0  0  0  0  0  0  0  0
    1.9659    0.1263   -0.8973 C   0  0  0  0  0  0  0  0  0  0  0  0
    1.3417    0.9780    0.0127 C   0  0  0  0  0  0  0  0  0  0  0  0
   -0.1023    1.2326   -0.0219 C   0  0  0  0  0  0  0  0  0  0  0  0
   -1.0246    0.2668   -0.1759 C   0  0  0  0  0  0  0  0  0  0  0  0
   -2.4426    0.4560   -0.2130 C   0  0  0  0  0  0  0  0  0  0  0  0
   -3.1065    1.6641   -0.1864 C   0  0  0  0  0  0  0  0  0  0  0  0
   -4.4528    1.4095   -0.2450 N   0  0  0  0  0  0  0  0  0  0  0  0
   -4.6799    0.0546   -0.3108 C   0  0  0  0  0  0  0  0  0  0  0  0
   -5.8873   -0.6505   -0.3846 C   0  0  0  0  0  0  0  0  0  0  0  0
   -5.8223   -2.0450   -0.4409 C   0  0  0  0  0  0  0  0  0  0  0  0
   -4.5975   -2.7059   -0.4236 C   0  0  0  0  0  0  0  0  0  0  0  0
   -3.3991   -1.9857   -0.3496 C   0  0  0  0  0  0  0  0  0  0  0  0
   -3.4335   -0.5749   -0.2924 C   0  0  0  0  0  0  0  0  0  0  0  0
    2.1284    1.6441    0.9499 C   0  0  0  0  0  0  0  0  0  0  0  0
    3.5013    1.4275    0.9770 C   0  0  0  0  0  0  0  0  0  0  0  0
    6.9434   -0.9576    1.1060 H   0  0  0  0  0  0  0  0  0  0  0  0
    5.3855   -1.7081    0.7120 H   0  0  0  0  0  0  0  0  0  0  0  0
    5.5049   -0.5910    2.0767 H   0  0  0  0  0  0  0  0  0  0  0  0
    5.8989    0.1806   -0.8820 H   0  0  0  0  0  0  0  0  0  0  0  0
    6.0188    1.3005    0.4862 H   0  0  0  0  0  0  0  0  0  0  0  0
    3.8591   -0.7187   -1.5273 H   0  0  0  0  0  0  0  0  0  0  0  0
    1.3909   -0.3897   -1.6643 H   0  0  0  0  0  0  0  0  0  0  0  0
   -0.4064    2.2685    0.1096 H   0  0  0  0  0  0  0  0  0  0  0  0
   -0.6920   -0.7646   -0.2693 H   0  0  0  0  0  0  0  0  0  0  0  0
   -2.7567    2.6857   -0.1351 H   0  0  0  0  0  0  0  0  0  0  0  0
   -5.1814    2.1104   -0.2429 H   0  0  0  0  0  0  0  0  0  0  0  0
   -6.8450   -0.1395   -0.3978 H   0  0  0  0  0  0  0  0  0  0  0  0
   -6.7435   -2.6210   -0.4985 H   0  0  0  0  0  0  0  0  0  0  0  0
   -4.5715   -3.7922   -0.4671 H   0  0  0  0  0  0  0  0  0  0  0  0
   -2.4545   -2.5195   -0.3353 H   0  0  0  0  0  0  0  0  0  0  0  0
    1.6777    2.3248    1.6704 H   0  0  0  0  0  0  0  0  0  0  0  0
    4.1415    1.9215    1.7025 H   0  0  0  0  0  0  0  0  0  0  0  0
  1  2  1  0
  2  3  1  0
  3  4  2  0
  4  5  1  0
  5  6  2  0
  6  7  1  0
  7  8  2  3
  8  9  1  0
  9 10  2  0
 10 11  1  0
 11 12  1  0
 12 13  2  0
 13 14  1  0
 14 15  2  0
 15 16  1  0
 16 17  2  0
  6 18  1  0
 18 19  2  0
 19  3  1  0
 17  9  1  0
 17 12  1  0
  1 20  1  0
  1 21  1  0
  1 22  1  0
  2 23  1  0
  2 24  1  0
  4 25  1  0
  5 26  1  0
  7 27  1  0
  8 28  1  0
 10 29  1  0
 11 30  1  0
 13 31  1  0
 14 32  1  0
 15 33  1  0
 16 34  1  0
 18 35  1  0
 19 36  1  0
M  CHG  1   3   1
M  END
$$$$
