
     RDKit          3D

 30 31  0  0  0  0  0  0  0  0999 V2000
   -3.0435   -0.9141   -0.5795 C   0  0  0  0  0  0  0  0  0  0  0  0
   -3.2751   -0.0468    0.6616 C   0  0  0  0  0  0  0  0  0  0  0  0
   -4.7264   -0.2025    1.1194 C   0  0  0  0  0  0  0  0  0  0  0  0
   -2.4636   -0.4976    1.7561 O   0  0  0  0  0  0  0  0  0  0  0  0
   -1.1834   -0.1057    1.8133 C   0  0  0  0  0  0  0  0  0  0  0  0
   -0.3795   -0.4773    2.6524 O   0  0  0  0  0  0  0  0  0  0  0  0
   -0.8088    0.8701    0.7325 C   0  0  0  0  0  0  0  0  0  0  0  0
    0.3246    0.8609    0.0894 N   0  0  0  0  0  0  0  0  0  0  0  0
    1.2418   -0.0800    0.4575 N   0  0  0  0  0  0  0  0  0  0  0  0
    2.5161   -0.0395   -0.1532 C   0  0  0  0  0  0  0  0  0  0  0  0
    3.5390   -0.8583    0.3471 C   0  0  0  0  0  0  0  0  0  0  0  0
    4.7945   -0.8970   -0.2665 C   0  0  0  0  0  0  0  0  0  0  0  0
    5.0377   -0.1318   -1.4043 C   0  0  0  0  0  0  0  0  0  0  0  0
    4.0237    0.6631   -1.9325 C   0  0  0  0  0  0  0  0  0  0  0  0
    2.7692    0.6986   -1.3166 C   0  0  0  0  0  0  0  0  0  0  0  0
   -1.8666    1.8622    0.3346 C   0  0  0  0  0  0  0  0  0  0  0  0
   -1.6114    3.0211    0.0641 O   0  0  0  0  0  0  0  0  0  0  0  0
   -3.1045    1.3431    0.3497 O   0  0  0  0  0  0  0  0  0  0  0  0
   -3.2186   -1.9725   -0.3586 H   0  0  0  0  0  0  0  0  0  0  0  0
   -2.0149   -0.8342   -0.9449 H   0  0  0  0  0  0  0  0  0  0  0  0
   -3.6959   -0.6051   -1.4033 H   0  0  0  0  0  0  0  0  0  0  0  0
   -5.4283    0.1281    0.3462 H   0  0  0  0  0  0  0  0  0  0  0  0
   -4.9521   -1.2395    1.3906 H   0  0  0  0  0  0  0  0  0  0  0  0
   -4.9133    0.4115    2.0085 H   0  0  0  0  0  0  0  0  0  0  0  0
    1.2930   -0.3621    1.4450 H   0  0  0  0  0  0  0  0  0  0  0  0
    3.3656   -1.4761    1.2244 H   0  0  0  0  0  0  0  0  0  0  0  0
    5.5786   -1.5290    0.1418 H   0  0  0  0  0  0  0  0  0  0  0  0
    6.0125   -0.1606   -1.8835 H   0  0  0  0  0  0  0  0  0  0  0  0
    4.2027    1.2545   -2.8263 H   0  0  0  0  0  0  0  0  0  0  0  0
    1.9869    1.3165   -1.7500 H   0  0  0  0  0  0  0  0  0  0  0  0
  1  2  1  0
  2  3  1  0
  2  4  1  0
  4  5  1  0
  5  6  2  0
  5  7  1  0
  7  8  2  3
  8  9  1  0
  9 10  1  0
 10 11  2  0
 11 12  1  0
 12 13  2  0
 13 14  1  0
 14 15  2  0
  7 16  1  0
 16 17  2  0
 16 18  1  0
 18  2  1  0
 15 10  1  0
  1 19  1  0
  1 20  1  0
  1 21  1  0
  3 22  1  0
  3 23  1  0
  3 24  1  0
  9 25  1  0
 11 26  1  0
 12 27  1  0
 13 28  1  0
 14 29  1  0
 15 30  1  0
M  END
$$$$
