
     RDKit          3D

 56 60  0  0  0  0  0  0  0  0999 V2000
   -1.9696    4.1095   -0.2583 C   0  0  0  0  0  0  0  0  0  0  0  0
   -2.5380    3.2205   -1.3300 C   0  0  0  0  0  0  0  0  0  0  0  0
   -2.9014    3.7815   -2.5621 C   0  0  0  0  0  0  0  0  0  0  0  0
   -3.4525    2.9907   -3.5685 C   0  0  0  0  0  0  0  0  0  0  0  0
   -3.6544    1.6280   -3.3585 C   0  0  0  0  0  0  0  0  0  0  0  0
   -3.2954    1.0312   -2.1419 C   0  0  0  0  0  0  0  0  0  0  0  0
   -3.5566   -0.4360   -1.9407 C   0  0  0  0  0  0  0  0  0  0  0  0
   -2.7263    1.8348   -1.1285 C   0  0  0  0  0  0  0  0  0  0  0  0
   -2.3555    1.2448    0.1160 N   0  0  0  0  0  0  0  0  0  0  0  0
   -1.0747    0.7475    0.3501 C   0  0  0  0  0  0  0  0  0  0  0  0
    0.1170    0.8438   -0.9429 S   0  0  0  0  0  0  0  0  0  0  0  0
    1.5952    0.2211   -0.0856 C   0  0  0  0  0  0  0  0  0  0  0  0
    2.8186    0.3213   -0.9913 C   0  0  0  0  0  0  0  0  0  0  0  0
    3.0481    1.3492   -1.6378 O   0  0  0  0  0  0  0  0  0  0  0  0
    3.6315   -0.8036   -1.1306 N   0  0  0  0  0  0  0  0  0  0  0  0
    4.4269   -0.8700   -2.3593 C   0  0  0  0  0  0  0  0  0  0  0  0
    4.7690   -2.2723   -2.8408 C   0  0  0  0  0  0  0  0  0  0  0  0
    5.1442   -2.5108   -3.9879 O   0  0  0  0  0  0  0  0  0  0  0  0
    4.7743   -3.2596   -1.8957 N   0  0  0  0  0  0  0  0  0  0  0  0
    4.4364   -3.0372   -0.5579 C   0  0  0  0  0  0  0  0  0  0  0  0
    4.6510   -4.0728    0.3564 C   0  0  0  0  0  0  0  0  0  0  0  0
    4.3681   -3.8769    1.7055 C   0  0  0  0  0  0  0  0  0  0  0  0
    3.8846   -2.6457    2.1377 C   0  0  0  0  0  0  0  0  0  0  0  0
    3.6540   -1.6160    1.2190 C   0  0  0  0  0  0  0  0  0  0  0  0
    3.8890   -1.8069   -0.1484 C   0  0  0  0  0  0  0  0  0  0  0  0
   -0.7064    0.2059    1.4675 N   0  0  0  0  0  0  0  0  0  0  0  0
   -1.6383    0.1117    2.5046 C   0  0  0  0  0  0  0  0  0  0  0  0
   -1.2418   -0.4697    3.7119 C   0  0  0  0  0  0  0  0  0  0  0  0
   -2.1399   -0.5856    4.7763 C   0  0  0  0  0  0  0  0  0  0  0  0
   -3.4465   -0.1193    4.6408 C   0  0  0  0  0  0  0  0  0  0  0  0
   -3.8537    0.4619    3.4408 C   0  0  0  0  0  0  0  0  0  0  0  0
   -2.9455    0.5731    2.3801 C   0  0  0  0  0  0  0  0  0  0  0  0
   -3.3444    1.1819    1.0988 C   0  0  0  0  0  0  0  0  0  0  0  0
   -4.4990    1.5882    0.9784 O   0  0  0  0  0  0  0  0  0  0  0  0
   -1.9202    5.1530   -0.5873 H   0  0  0  0  0  0  0  0  0  0  0  0
   -0.9530    3.8001    0.0012 H   0  0  0  0  0  0  0  0  0  0  0  0
   -2.5998    4.0795    0.6362 H   0  0  0  0  0  0  0  0  0  0  0  0
   -2.7622    4.8446   -2.7459 H   0  0  0  0  0  0  0  0  0  0  0  0
   -3.7334    3.4401   -4.5178 H   0  0  0  0  0  0  0  0  0  0  0  0
   -4.0984    1.0335   -4.1541 H   0  0  0  0  0  0  0  0  0  0  0  0
   -2.6512   -0.9518   -1.6079 H   0  0  0  0  0  0  0  0  0  0  0  0
   -4.3507   -0.5802   -1.2019 H   0  0  0  0  0  0  0  0  0  0  0  0
   -3.8753   -0.9170   -2.8717 H   0  0  0  0  0  0  0  0  0  0  0  0
    1.7890    0.8179    0.8104 H   0  0  0  0  0  0  0  0  0  0  0  0
    1.3876   -0.8171    0.1797 H   0  0  0  0  0  0  0  0  0  0  0  0
    5.3609   -0.3234   -2.1846 H   0  0  0  0  0  0  0  0  0  0  0  0
    3.8797   -0.3748   -3.1703 H   0  0  0  0  0  0  0  0  0  0  0  0
    5.1044   -4.1647   -2.2036 H   0  0  0  0  0  0  0  0  0  0  0  0
    5.0531   -5.0292    0.0327 H   0  0  0  0  0  0  0  0  0  0  0  0
    4.5438   -4.6760    2.4216 H   0  0  0  0  0  0  0  0  0  0  0  0
    3.6935   -2.4801    3.1959 H   0  0  0  0  0  0  0  0  0  0  0  0
    3.3274   -0.6609    1.6165 H   0  0  0  0  0  0  0  0  0  0  0  0
   -0.2243   -0.8358    3.8227 H   0  0  0  0  0  0  0  0  0  0  0  0
   -1.8185   -1.0399    5.7106 H   0  0  0  0  0  0  0  0  0  0  0  0
   -4.1472   -0.2081    5.4678 H   0  0  0  0  0  0  0  0  0  0  0  0
   -4.8732    0.8264    3.3327 H   0  0  0  0  0  0  0  0  0  0  0  0
  1  2  1  0
  2  3  2  0
  3  4  1  0
  4  5  2  0
  5  6  1  0
  6  7  1  0
  6  8  2  0
  8  9  1  0
  9 10  1  0
 10 11  1  0
 11 12  1  0
 12 13  1  0
 13 14  2  0
 13 15  1  0
 15 16  1  0
 16 17  1  0
 17 18  2  0
 17 19  1  0
 19 20  1  0
 20 21  2  0
 21 22  1  0
 22 23  2  0
 23 24  1  0
 24 25  2  0
 10 26  2  0
 26 27  1  0
 27 28  2  0
 28 29  1  0
 29 30  2  0
 30 31  1  0
 31 32  2  0
 32 33  1  0
 33 34  2  0
  8  2  1  0
 33  9  1  0
 25 15  1  0
 32 27  1  0
 25 20  1  0
  1 35  1  0
  1 36  1  0
  1 37  1  0
  3 38  1  0
  4 39  1  0
  5 40  1  0
  7 41  1  0
  7 42  1  0
  7 43  1  0
 12 44  1  0
 12 45  1  0
 16 46  1  0
 16 47  1  0
 19 48  1  0
 21 49  1  0
 22 50  1  0
 23 51  1  0
 24 52  1  0
 28 53  1  0
 29 54  1  0
 30 55  1  0
 31 56  1  0
M  END
$$$$
