
     RDKit          3D

 59 61  0  0  0  0  0  0  0  0999 V2000
   -7.8486    0.5396   -3.9460 C   0  0  0  0  0  0  0  0  0  0  0  0
   -6.4534    0.1319   -3.5078 C   0  0  0  0  0  0  0  0  0  0  0  0
   -6.3552    0.3431   -2.1023 O   0  0  0  0  0  0  0  0  0  0  0  0
   -5.1771    0.0170   -1.4776 C   0  0  0  0  0  0  0  0  0  0  0  0
   -4.0413   -0.4696   -2.1363 C   0  0  0  0  0  0  0  0  0  0  0  0
   -2.8904   -0.7693   -1.4060 C   0  0  0  0  0  0  0  0  0  0  0  0
   -1.7571   -1.2474   -2.0596 N   0  0  0  0  0  0  0  0  0  0  0  0
   -0.5895   -1.5840   -1.4293 C   0  0  0  0  0  0  0  0  0  0  0  0
    0.6520   -2.1199   -2.4219 S   0  0  0  0  0  0  0  0  0  0  0  0
   -0.5578   -1.4421   -0.0433 N   0  0  0  0  0  0  0  0  0  0  0  0
    0.6403   -1.7840    0.7452 C   0  0  0  0  0  0  0  0  0  0  0  0
    1.5490   -0.5740    0.9494 C   0  0  0  0  0  0  0  0  0  0  0  0
    2.7859   -0.9493    1.7336 C   0  0  0  0  0  0  0  0  0  0  0  0
    3.0406   -2.0949    2.0872 O   0  0  0  0  0  0  0  0  0  0  0  0
    3.5969    0.1310    2.0022 N   0  0  0  0  0  0  0  0  0  0  0  0
    4.8896   -0.0224    2.6310 C   0  0  0  0  0  0  0  0  0  0  0  0
    5.9915    0.0894    1.6096 C   0  0  0  0  0  0  0  0  0  0  0  0
    6.7027    1.2852    1.4444 C   0  0  0  0  0  0  0  0  0  0  0  0
    7.7111    1.3893    0.4785 C   0  0  0  0  0  0  0  0  0  0  0  0
    8.0166    0.3007   -0.3386 C   0  0  0  0  0  0  0  0  0  0  0  0
    8.9725    0.2707   -1.3163 O   0  0  0  0  0  0  0  0  0  0  0  0
    9.7389    1.4534   -1.5035 C   0  0  0  0  0  0  0  0  0  0  0  0
    7.3038   -0.8895   -0.1820 C   0  0  0  0  0  0  0  0  0  0  0  0
    6.2984   -0.9972    0.7814 C   0  0  0  0  0  0  0  0  0  0  0  0
   -1.6236   -0.9077    0.6972 C   0  0  0  0  0  0  0  0  0  0  0  0
   -1.5732   -0.6753    1.9037 O   0  0  0  0  0  0  0  0  0  0  0  0
   -2.8631   -0.5868   -0.0333 C   0  0  0  0  0  0  0  0  0  0  0  0
   -3.9894   -0.0996    0.6387 C   0  0  0  0  0  0  0  0  0  0  0  0
   -5.1505    0.2039   -0.0778 C   0  0  0  0  0  0  0  0  0  0  0  0
   -6.3056    0.6854    0.4861 O   0  0  0  0  0  0  0  0  0  0  0  0
   -6.3304    0.8778    1.8983 C   0  0  0  0  0  0  0  0  0  0  0  0
   -7.7050    1.4016    2.2743 C   0  0  0  0  0  0  0  0  0  0  0  0
   -8.6061   -0.0473   -3.4161 H   0  0  0  0  0  0  0  0  0  0  0  0
   -8.0357    1.5917   -3.7066 H   0  0  0  0  0  0  0  0  0  0  0  0
   -7.9774    0.3939   -5.0221 H   0  0  0  0  0  0  0  0  0  0  0  0
   -5.7183    0.7490   -4.0370 H   0  0  0  0  0  0  0  0  0  0  0  0
   -6.2990   -0.9268   -3.7456 H   0  0  0  0  0  0  0  0  0  0  0  0
   -4.0361   -0.6185   -3.2100 H   0  0  0  0  0  0  0  0  0  0  0  0
   -1.7711   -1.3700   -3.0666 H   0  0  0  0  0  0  0  0  0  0  0  0
    0.3223   -2.1743    1.7206 H   0  0  0  0  0  0  0  0  0  0  0  0
    1.1869   -2.6026    0.2660 H   0  0  0  0  0  0  0  0  0  0  0  0
    1.8640   -0.1627   -0.0162 H   0  0  0  0  0  0  0  0  0  0  0  0
    1.0170    0.2163    1.4914 H   0  0  0  0  0  0  0  0  0  0  0  0
    3.4037    1.0128    1.5477 H   0  0  0  0  0  0  0  0  0  0  0  0
    4.9801    0.7718    3.3802 H   0  0  0  0  0  0  0  0  0  0  0  0
    4.9597   -0.9785    3.1613 H   0  0  0  0  0  0  0  0  0  0  0  0
    6.4800    2.1477    2.0687 H   0  0  0  0  0  0  0  0  0  0  0  0
    8.2368    2.3341    0.3907 H   0  0  0  0  0  0  0  0  0  0  0  0
    9.1044    2.2896   -1.8153 H   0  0  0  0  0  0  0  0  0  0  0  0
   10.4567    1.2630   -2.3073 H   0  0  0  0  0  0  0  0  0  0  0  0
   10.3075    1.7028   -0.6015 H   0  0  0  0  0  0  0  0  0  0  0  0
    7.5318   -1.7423   -0.8171 H   0  0  0  0  0  0  0  0  0  0  0  0
    5.7521   -1.9341    0.8815 H   0  0  0  0  0  0  0  0  0  0  0  0
   -3.9325    0.0325    1.7147 H   0  0  0  0  0  0  0  0  0  0  0  0
   -5.5745    1.6137    2.1950 H   0  0  0  0  0  0  0  0  0  0  0  0
   -6.1565   -0.0728    2.4154 H   0  0  0  0  0  0  0  0  0  0  0  0
   -7.9152    2.3417    1.7533 H   0  0  0  0  0  0  0  0  0  0  0  0
   -7.7761    1.5714    3.3522 H   0  0  0  0  0  0  0  0  0  0  0  0
   -8.4831    0.6910    1.9761 H   0  0  0  0  0  0  0  0  0  0  0  0
  1  2  1  0
  2  3  1  0
  3  4  1  0
  4  5  2  0
  5  6  1  0
  6  7  1  0
  7  8  1  0
  8  9  2  0
  8 10  1  0
 10 11  1  0
 11 12  1  0
 12 13  1  0
 13 14  2  0
 13 15  1  0
 15 16  1  0
 16 17  1  0
 17 18  2  0
 18 19  1  0
 19 20  2  0
 20 21  1  0
 21 22  1  0
 20 23  1  0
 23 24  2  0
 10 25  1  0
 25 26  2  0
 25 27  1  0
 27 28  1  0
 28 29  2  0
 29 30  1  0
 30 31  1  0
 31 32  1  0
 29  4  1  0
 27  6  2  0
 24 17  1  0
  1 33  1  0
  1 34  1  0
  1 35  1  0
  2 36  1  0
  2 37  1  0
  5 38  1  0
  7 39  1  0
 11 40  1  0
 11 41  1  0
 12 42  1  0
 12 43  1  0
 15 44  1  0
 16 45  1  0
 16 46  1  0
 18 47  1  0
 19 48  1  0
 22 49  1  0
 22 50  1  0
 22 51  1  0
 23 52  1  0
 24 53  1  0
 28 54  1  0
 31 55  1  0
 31 56  1  0
 32 57  1  0
 32 58  1  0
 32 59  1  0
M  END
$$$$
