
     RDKit          3D

 59 62  0  0  0  0  0  0  0  0999 V2000
   -8.1040   -0.7033   -2.5033 C   0  0  0  0  0  0  0  0  0  0  0  0
   -7.7214   -0.4450   -1.0566 C   0  0  0  0  0  0  0  0  0  0  0  0
   -6.3690   -0.8887   -0.7563 N   0  0  0  0  0  0  0  0  0  0  0  0
   -6.0383   -2.1653   -0.3423 C   0  0  0  0  0  0  0  0  0  0  0  0
   -6.8315   -3.3060   -0.1299 C   0  0  0  0  0  0  0  0  0  0  0  0
   -6.2020   -4.4783    0.2993 C   0  0  0  0  0  0  0  0  0  0  0  0
   -4.8282   -4.5159    0.5117 C   0  0  0  0  0  0  0  0  0  0  0  0
   -4.0460   -3.3776    0.2937 C   0  0  0  0  0  0  0  0  0  0  0  0
   -4.6567   -2.1817   -0.1417 C   0  0  0  0  0  0  0  0  0  0  0  0
   -4.1572   -0.8786   -0.4548 C   0  0  0  0  0  0  0  0  0  0  0  0
   -2.8627   -0.3067   -0.4441 C   0  0  0  0  0  0  0  0  0  0  0  0
   -2.6804    1.0287   -0.8135 C   0  0  0  0  0  0  0  0  0  0  0  0
   -1.4263    1.6772   -0.8351 N   0  0  0  0  0  0  0  0  0  0  0  0
   -0.1851    1.1459   -0.5026 C   0  0  0  0  0  0  0  0  0  0  0  0
    0.0244    0.0068   -0.0937 O   0  0  0  0  0  0  0  0  0  0  0  0
    0.9579    2.1676   -0.6792 C   0  0  0  0  0  0  0  0  0  0  0  0
    1.1460    2.5143   -2.1527 C   0  0  0  0  0  0  0  0  0  0  0  0
    2.1804    1.6043   -0.1821 O   0  0  0  0  0  0  0  0  0  0  0  0
    3.0789    2.4857    0.3147 C   0  0  0  0  0  0  0  0  0  0  0  0
    2.9380    3.6973    0.3661 O   0  0  0  0  0  0  0  0  0  0  0  0
    4.3034    1.7762    0.7715 C   0  0  0  0  0  0  0  0  0  0  0  0
    4.3758    0.3822    0.8624 C   0  0  0  0  0  0  0  0  0  0  0  0
    5.5583   -0.2330    1.2905 C   0  0  0  0  0  0  0  0  0  0  0  0
    6.6839    0.5297    1.6315 C   0  0  0  0  0  0  0  0  0  0  0  0
    7.8356   -0.1732    2.0470 N   0  0  0  0  0  0  0  0  0  0  0  0
    9.0769    0.3607    2.3634 C   0  0  0  0  0  0  0  0  0  0  0  0
    9.3874    1.5478    2.3254 O   0  0  0  0  0  0  0  0  0  0  0  0
   10.0895   -0.6797    2.7857 C   0  0  0  0  0  0  0  0  0  0  0  0
   10.7951   -1.1962    1.6154 C   0  0  0  0  0  0  0  0  0  0  0  0
   11.3434   -1.6475    0.6976 N   0  0  0  0  0  0  0  0  0  0  0  0
    6.6030    1.9200    1.5456 C   0  0  0  0  0  0  0  0  0  0  0  0
    5.4212    2.5402    1.1211 C   0  0  0  0  0  0  0  0  0  0  0  0
   -3.7898    1.7890   -1.1952 C   0  0  0  0  0  0  0  0  0  0  0  0
   -5.0816    1.2494   -1.2176 C   0  0  0  0  0  0  0  0  0  0  0  0
   -5.2429   -0.0910   -0.8388 C   0  0  0  0  0  0  0  0  0  0  0  0
   -9.1178   -0.3416   -2.6976 H   0  0  0  0  0  0  0  0  0  0  0  0
   -8.0763   -1.7722   -2.7340 H   0  0  0  0  0  0  0  0  0  0  0  0
   -7.4215   -0.1942   -3.1909 H   0  0  0  0  0  0  0  0  0  0  0  0
   -7.7915    0.6226   -0.8241 H   0  0  0  0  0  0  0  0  0  0  0  0
   -8.4075   -0.9587   -0.3760 H   0  0  0  0  0  0  0  0  0  0  0  0
   -7.9042   -3.2928   -0.2933 H   0  0  0  0  0  0  0  0  0  0  0  0
   -6.7959   -5.3735    0.4684 H   0  0  0  0  0  0  0  0  0  0  0  0
   -4.3559   -5.4356    0.8471 H   0  0  0  0  0  0  0  0  0  0  0  0
   -2.9721   -3.4140    0.4576 H   0  0  0  0  0  0  0  0  0  0  0  0
   -2.0340   -0.9361   -0.1423 H   0  0  0  0  0  0  0  0  0  0  0  0
   -1.4472    2.6509   -1.1099 H   0  0  0  0  0  0  0  0  0  0  0  0
    0.6796    3.0586   -0.1014 H   0  0  0  0  0  0  0  0  0  0  0  0
    0.2484    2.9635   -2.5882 H   0  0  0  0  0  0  0  0  0  0  0  0
    1.9776    3.2146   -2.2851 H   0  0  0  0  0  0  0  0  0  0  0  0
    1.3917    1.6170   -2.7323 H   0  0  0  0  0  0  0  0  0  0  0  0
    3.5203   -0.2398    0.6058 H   0  0  0  0  0  0  0  0  0  0  0  0
    5.5800   -1.3187    1.3464 H   0  0  0  0  0  0  0  0  0  0  0  0
    7.7436   -1.1826    2.0594 H   0  0  0  0  0  0  0  0  0  0  0  0
    9.5884   -1.4887    3.3282 H   0  0  0  0  0  0  0  0  0  0  0  0
   10.7883   -0.2142    3.4896 H   0  0  0  0  0  0  0  0  0  0  0  0
    7.4399    2.5614    1.8051 H   0  0  0  0  0  0  0  0  0  0  0  0
    5.3856    3.6268    1.0625 H   0  0  0  0  0  0  0  0  0  0  0  0
   -3.6721    2.8296   -1.4885 H   0  0  0  0  0  0  0  0  0  0  0  0
   -5.9233    1.8624   -1.5224 H   0  0  0  0  0  0  0  0  0  0  0  0
  1  2  1  0
  2  3  1  0
  3  4  1  0
  4  5  2  0
  5  6  1  0
  6  7  2  0
  7  8  1  0
  8  9  2  0
  9 10  1  0
 10 11  2  0
 11 12  1  0
 12 13  1  0
 13 14  1  0
 14 15  2  0
 14 16  1  0
 16 17  1  0
 16 18  1  0
 18 19  1  0
 19 20  2  0
 19 21  1  0
 21 22  2  0
 22 23  1  0
 23 24  2  0
 24 25  1  0
 25 26  1  0
 26 27  2  0
 26 28  1  0
 28 29  1  0
 29 30  3  0
 24 31  1  0
 31 32  2  0
 12 33  2  0
 33 34  1  0
 34 35  2  0
 35  3  1  0
  9  4  1  0
 35 10  1  0
 32 21  1  0
  1 36  1  0
  1 37  1  0
  1 38  1  0
  2 39  1  0
  2 40  1  0
  5 41  1  0
  6 42  1  0
  7 43  1  0
  8 44  1  0
 11 45  1  0
 13 46  1  0
 16 47  1  0
 17 48  1  0
 17 49  1  0
 17 50  1  0
 22 51  1  0
 23 52  1  0
 25 53  1  0
 28 54  1  0
 28 55  1  0
 31 56  1  0
 32 57  1  0
 33 58  1  0
 34 59  1  0
M  END
$$$$
