
     RDKit          3D

 68 70  0  0  0  0  0  0  0  0999 V2000
   -4.9441    6.0362    0.4668 C   0  0  0  0  0  0  0  0  0  0  0  0
   -3.7037    5.7124    1.0829 O   0  0  0  0  0  0  0  0  0  0  0  0
   -3.3258    4.3989    1.0522 C   0  0  0  0  0  0  0  0  0  0  0  0
   -2.1507    4.1121    1.7473 C   0  0  0  0  0  0  0  0  0  0  0  0
   -1.6512    2.8078    1.7965 C   0  0  0  0  0  0  0  0  0  0  0  0
   -2.3208    1.7540    1.1491 C   0  0  0  0  0  0  0  0  0  0  0  0
   -1.7067    0.3540    1.1984 C   0  0  0  0  0  0  0  0  0  0  0  0
   -2.6981   -0.8549    1.1921 C   0  0  0  0  0  0  0  0  0  0  0  0
   -3.9212   -0.7455    1.1974 O   0  0  0  0  0  0  0  0  0  0  0  0
   -2.0687   -2.0920    1.2938 N   0  0  0  0  0  0  0  0  0  0  0  0
   -2.7611   -3.3831    1.4127 C   0  0  0  0  0  0  0  0  0  0  0  0
   -1.6889   -4.4882    1.4213 C   0  0  0  0  0  0  0  0  0  0  0  0
   -3.5548   -3.4593    2.7259 C   0  0  0  0  0  0  0  0  0  0  0  0
   -3.6926   -3.6295    0.2139 C   0  0  0  0  0  0  0  0  0  0  0  0
   -0.5826    0.1756    0.2308 N   0  0  0  0  0  0  0  0  0  0  0  0
    0.5413   -0.5253    0.6713 C   0  0  0  0  0  0  0  0  0  0  0  0
    0.5778   -1.0804    1.7725 O   0  0  0  0  0  0  0  0  0  0  0  0
    1.7371   -0.5595   -0.2691 C   0  0  0  0  0  0  0  0  0  0  0  0
    3.0238   -0.8641    0.4949 C   0  0  0  0  0  0  0  0  0  0  0  0
    4.2558   -0.5902   -0.3435 C   0  0  0  0  0  0  0  0  0  0  0  0
    4.1894   -0.3413   -1.5420 O   0  0  0  0  0  0  0  0  0  0  0  0
    5.4111   -0.6713    0.3999 N   0  0  0  0  0  0  0  0  0  0  0  0
    6.6814   -0.4398   -0.0772 C   0  0  0  0  0  0  0  0  0  0  0  0
    7.1054   -0.1068   -1.3815 C   0  0  0  0  0  0  0  0  0  0  0  0
    8.4687    0.0169   -1.2806 C   0  0  0  0  0  0  0  0  0  0  0  0
    9.5461    0.3430   -2.2304 C   0  0  0  0  0  0  0  0  0  0  0  0
    8.8432   -0.2247    0.0032 O   0  0  0  0  0  0  0  0  0  0  0  0
    7.7231   -0.5152    0.7592 N   0  0  0  0  0  0  0  0  0  0  0  0
   -0.9091    0.2202   -1.1574 C   0  0  0  0  0  0  0  0  0  0  0  0
   -1.1036    1.4519   -1.7949 C   0  0  0  0  0  0  0  0  0  0  0  0
   -1.4167    1.5044   -3.1566 C   0  0  0  0  0  0  0  0  0  0  0  0
   -1.5312    0.3247   -3.8890 C   0  0  0  0  0  0  0  0  0  0  0  0
   -1.3299   -0.8951   -3.2539 C   0  0  0  0  0  0  0  0  0  0  0  0
   -1.4363   -2.0301   -3.9580 F   0  0  0  0  0  0  0  0  0  0  0  0
   -1.0178   -0.9605   -1.9000 C   0  0  0  0  0  0  0  0  0  0  0  0
   -3.4913    2.0595    0.4383 C   0  0  0  0  0  0  0  0  0  0  0  0
   -3.9931    3.3672    0.3954 C   0  0  0  0  0  0  0  0  0  0  0  0
   -4.9053    5.8582   -0.6127 H   0  0  0  0  0  0  0  0  0  0  0  0
   -5.1253    7.1044    0.6205 H   0  0  0  0  0  0  0  0  0  0  0  0
   -5.7725    5.4892    0.9291 H   0  0  0  0  0  0  0  0  0  0  0  0
   -1.6189    4.9130    2.2571 H   0  0  0  0  0  0  0  0  0  0  0  0
   -0.7282    2.6222    2.3433 H   0  0  0  0  0  0  0  0  0  0  0  0
   -1.2741    0.2916    2.2096 H   0  0  0  0  0  0  0  0  0  0  0  0
   -1.1183   -2.0557    1.6605 H   0  0  0  0  0  0  0  0  0  0  0  0
   -2.1404   -5.4847    1.4898 H   0  0  0  0  0  0  0  0  0  0  0  0
   -1.0801   -4.4537    0.5104 H   0  0  0  0  0  0  0  0  0  0  0  0
   -1.0081   -4.3688    2.2717 H   0  0  0  0  0  0  0  0  0  0  0  0
   -2.9099   -3.2545    3.5879 H   0  0  0  0  0  0  0  0  0  0  0  0
   -3.9977   -4.4518    2.8649 H   0  0  0  0  0  0  0  0  0  0  0  0
   -4.3718   -2.7306    2.7534 H   0  0  0  0  0  0  0  0  0  0  0  0
   -3.1507   -3.5252   -0.7337 H   0  0  0  0  0  0  0  0  0  0  0  0
   -4.1201   -4.6383    0.2484 H   0  0  0  0  0  0  0  0  0  0  0  0
   -4.5303   -2.9248    0.1912 H   0  0  0  0  0  0  0  0  0  0  0  0
    1.8224    0.4128   -0.7698 H   0  0  0  0  0  0  0  0  0  0  0  0
    1.5801   -1.3315   -1.0296 H   0  0  0  0  0  0  0  0  0  0  0  0
    3.0803   -0.2500    1.4011 H   0  0  0  0  0  0  0  0  0  0  0  0
    3.0399   -1.9176    0.7973 H   0  0  0  0  0  0  0  0  0  0  0  0
    5.3792   -0.8871    1.3866 H   0  0  0  0  0  0  0  0  0  0  0  0
    6.5088    0.0261   -2.2718 H   0  0  0  0  0  0  0  0  0  0  0  0
   10.0492    1.2689   -1.9354 H   0  0  0  0  0  0  0  0  0  0  0  0
    9.1501    0.4778   -3.2421 H   0  0  0  0  0  0  0  0  0  0  0  0
   10.2893   -0.4605   -2.2595 H   0  0  0  0  0  0  0  0  0  0  0  0
   -0.9935    2.3856   -1.2477 H   0  0  0  0  0  0  0  0  0  0  0  0
   -1.5654    2.4661   -3.6427 H   0  0  0  0  0  0  0  0  0  0  0  0
   -1.7715    0.3481   -4.9475 H   0  0  0  0  0  0  0  0  0  0  0  0
   -0.8837   -1.9365   -1.4430 H   0  0  0  0  0  0  0  0  0  0  0  0
   -4.0322    1.2851   -0.1032 H   0  0  0  0  0  0  0  0  0  0  0  0
   -4.9053    3.5403   -0.1658 H   0  0  0  0  0  0  0  0  0  0  0  0
  1  2  1  0
  2  3  1  0
  3  4  2  0
  4  5  1  0
  5  6  2  0
  6  7  1  0
  7  8  1  0
  8  9  2  0
  8 10  1  0
 10 11  1  0
 11 12  1  0
 11 13  1  0
 11 14  1  0
  7 15  1  0
 15 16  1  0
 16 17  2  0
 16 18  1  0
 18 19  1  0
 19 20  1  0
 20 21  2  0
 20 22  1  0
 22 23  1  0
 23 24  1  0
 24 25  2  0
 25 26  1  0
 25 27  1  0
 27 28  1  0
 15 29  1  0
 29 30  2  0
 30 31  1  0
 31 32  2  0
 32 33  1  0
 33 34  1  0
 33 35  2  0
  6 36  1  0
 36 37  2  0
 37  3  1  0
 28 23  2  0
 35 29  1  0
  1 38  1  0
  1 39  1  0
  1 40  1  0
  4 41  1  0
  5 42  1  0
  7 43  1  0
 10 44  1  0
 12 45  1  0
 12 46  1  0
 12 47  1  0
 13 48  1  0
 13 49  1  0
 13 50  1  0
 14 51  1  0
 14 52  1  0
 14 53  1  0
 18 54  1  0
 18 55  1  0
 19 56  1  0
 19 57  1  0
 22 58  1  0
 24 59  1  0
 26 60  1  0
 26 61  1  0
 26 62  1  0
 30 63  1  0
 31 64  1  0
 32 65  1  0
 35 66  1  0
 36 67  1  0
 37 68  1  0
M  END
$$$$
