
     RDKit          3D

 50 52  0  0  0  0  0  0  0  0999 V2000
    7.3899    3.2412   -0.6773 C   0  0  0  0  0  0  0  0  0  0  0  0
    7.2015    1.8383   -0.8149 O   0  0  0  0  0  0  0  0  0  0  0  0
    5.9263    1.3698   -0.6644 C   0  0  0  0  0  0  0  0  0  0  0  0
    5.7892   -0.0107   -0.8071 C   0  0  0  0  0  0  0  0  0  0  0  0
    4.5374   -0.6202   -0.6772 C   0  0  0  0  0  0  0  0  0  0  0  0
    3.3990    0.1450   -0.4035 C   0  0  0  0  0  0  0  0  0  0  0  0
    2.1755   -0.5430   -0.2852 N   0  0  0  0  0  0  0  0  0  0  0  0
    0.9127   -0.0029   -0.0831 C   0  0  0  0  0  0  0  0  0  0  0  0
    0.6396    1.1950    0.0036 O   0  0  0  0  0  0  0  0  0  0  0  0
   -0.1978   -1.0827    0.0164 C   0  0  0  0  0  0  0  0  0  0  0  0
   -1.4387   -0.4493    0.4341 N   0  0  0  0  0  0  0  0  0  0  0  0
   -2.3004   -1.0613    1.3121 C   0  0  0  0  0  0  0  0  0  0  0  0
   -2.1073   -2.1836    1.7676 O   0  0  0  0  0  0  0  0  0  0  0  0
   -3.4911   -0.2715    1.7327 C   0  0  0  0  0  0  0  0  0  0  0  0
   -4.0376    0.7368    0.9298 C   0  0  0  0  0  0  0  0  0  0  0  0
   -5.1577    1.4508    1.3670 C   0  0  0  0  0  0  0  0  0  0  0  0
   -5.7544    1.1547    2.5987 C   0  0  0  0  0  0  0  0  0  0  0  0
   -6.9363    1.9438    3.0804 C   0  0  0  0  0  0  0  0  0  0  0  0
   -5.2053    0.1451    3.3978 C   0  0  0  0  0  0  0  0  0  0  0  0
   -4.0866   -0.5704    2.9635 C   0  0  0  0  0  0  0  0  0  0  0  0
   -0.4051   -1.8343   -1.2879 C   0  0  0  0  0  0  0  0  0  0  0  0
   -0.6508   -3.2165   -1.2584 C   0  0  0  0  0  0  0  0  0  0  0  0
   -0.8500   -3.9296   -2.4414 C   0  0  0  0  0  0  0  0  0  0  0  0
   -0.8171   -3.2696   -3.6676 C   0  0  0  0  0  0  0  0  0  0  0  0
   -0.5969   -1.8945   -3.7118 C   0  0  0  0  0  0  0  0  0  0  0  0
   -0.4000   -1.1781   -2.5298 C   0  0  0  0  0  0  0  0  0  0  0  0
    3.5390    1.5253   -0.2588 C   0  0  0  0  0  0  0  0  0  0  0  0
    4.7954    2.1355   -0.3891 C   0  0  0  0  0  0  0  0  0  0  0  0
    7.1195    3.5793    0.3285 H   0  0  0  0  0  0  0  0  0  0  0  0
    8.4537    3.4514   -0.8241 H   0  0  0  0  0  0  0  0  0  0  0  0
    6.8331    3.7912   -1.4432 H   0  0  0  0  0  0  0  0  0  0  0  0
    6.6649   -0.6185   -1.0215 H   0  0  0  0  0  0  0  0  0  0  0  0
    4.4732   -1.6984   -0.7966 H   0  0  0  0  0  0  0  0  0  0  0  0
    2.2189   -1.5480   -0.4163 H   0  0  0  0  0  0  0  0  0  0  0  0
    0.1248   -1.7802    0.8008 H   0  0  0  0  0  0  0  0  0  0  0  0
   -1.4988    0.5487    0.2683 H   0  0  0  0  0  0  0  0  0  0  0  0
   -3.6222    0.9662   -0.0470 H   0  0  0  0  0  0  0  0  0  0  0  0
   -5.5679    2.2351    0.7340 H   0  0  0  0  0  0  0  0  0  0  0  0
   -7.5352    2.3054    2.2379 H   0  0  0  0  0  0  0  0  0  0  0  0
   -7.5915    1.3245    3.7020 H   0  0  0  0  0  0  0  0  0  0  0  0
   -6.5979    2.8027    3.6679 H   0  0  0  0  0  0  0  0  0  0  0  0
   -5.6465   -0.0948    4.3629 H   0  0  0  0  0  0  0  0  0  0  0  0
   -3.6771   -1.3594    3.5911 H   0  0  0  0  0  0  0  0  0  0  0  0
   -0.7084   -3.7433   -0.3063 H   0  0  0  0  0  0  0  0  0  0  0  0
   -1.0433   -4.9987   -2.4038 H   0  0  0  0  0  0  0  0  0  0  0  0
   -0.9773   -3.8247   -4.5882 H   0  0  0  0  0  0  0  0  0  0  0  0
   -0.5864   -1.3772   -4.6679 H   0  0  0  0  0  0  0  0  0  0  0  0
   -0.2462   -0.1020   -2.5903 H   0  0  0  0  0  0  0  0  0  0  0  0
    2.6904    2.1652   -0.0387 H   0  0  0  0  0  0  0  0  0  0  0  0
    4.8481    3.2123   -0.2671 H   0  0  0  0  0  0  0  0  0  0  0  0
  1  2  1  0
  2  3  1  0
  3  4  2  0
  4  5  1  0
  5  6  2  0
  6  7  1  0
  7  8  1  0
  8  9  2  0
  8 10  1  0
 10 11  1  0
 11 12  1  0
 12 13  2  0
 12 14  1  0
 14 15  2  0
 15 16  1  0
 16 17  2  0
 17 18  1  0
 17 19  1  0
 19 20  2  0
 10 21  1  0
 21 22  2  0
 22 23  1  0
 23 24  2  0
 24 25  1  0
 25 26  2  0
  6 27  1  0
 27 28  2  0
 28  3  1  0
 20 14  1  0
 26 21  1  0
  1 29  1  0
  1 30  1  0
  1 31  1  0
  4 32  1  0
  5 33  1  0
  7 34  1  0
 10 35  1  0
 11 36  1  0
 15 37  1  0
 16 38  1  0
 18 39  1  0
 18 40  1  0
 18 41  1  0
 19 42  1  0
 20 43  1  0
 22 44  1  0
 23 45  1  0
 24 46  1  0
 25 47  1  0
 26 48  1  0
 27 49  1  0
 28 50  1  0
M  END
$$$$
