
     RDKit          3D

 34 35  0  0  0  0  0  0  0  0999 V2000
    3.9735   -0.5302    2.5913 C   0  0  0  0  0  0  0  0  0  0  0  0
    3.2357    0.4218    1.8350 O   0  0  0  0  0  0  0  0  0  0  0  0
    2.6867   -0.0123    0.6608 C   0  0  0  0  0  0  0  0  0  0  0  0
    2.0611    0.9833   -0.0937 C   0  0  0  0  0  0  0  0  0  0  0  0
    1.4481    0.6731   -1.3099 C   0  0  0  0  0  0  0  0  0  0  0  0
    1.4382   -0.6417   -1.7765 C   0  0  0  0  0  0  0  0  0  0  0  0
    0.8175   -0.9534   -2.9895 N   0  0  0  0  0  0  0  0  0  0  0  0
   -0.4454   -1.2624   -3.0062 C   0  0  0  0  0  0  0  0  0  0  0  0
   -1.3767   -1.3691   -1.8280 C   0  0  0  0  0  0  0  0  0  0  0  0
   -2.2639   -0.1545   -1.7040 C   0  0  0  0  0  0  0  0  0  0  0  0
   -2.8601    0.2849   -2.6884 O   0  0  0  0  0  0  0  0  0  0  0  0
   -2.4774    0.5044   -0.3784 C   0  0  0  0  0  0  0  0  0  0  0  0
   -1.6336    0.3137    0.7226 C   0  0  0  0  0  0  0  0  0  0  0  0
   -1.8903    0.9716    1.9317 C   0  0  0  0  0  0  0  0  0  0  0  0
   -2.9886    1.8212    2.0454 C   0  0  0  0  0  0  0  0  0  0  0  0
   -3.2990    2.6237    3.5338 Cl  0  0  0  0  0  0  0  0  0  0  0  0
   -3.8324    2.0255    0.9577 C   0  0  0  0  0  0  0  0  0  0  0  0
   -3.5750    1.3719   -0.2510 C   0  0  0  0  0  0  0  0  0  0  0  0
    2.0865   -1.6319   -1.0363 C   0  0  0  0  0  0  0  0  0  0  0  0
    2.7028   -1.3229    0.1821 C   0  0  0  0  0  0  0  0  0  0  0  0
    4.3771   -0.0183    3.4703 H   0  0  0  0  0  0  0  0  0  0  0  0
    3.3255   -1.3388    2.9451 H   0  0  0  0  0  0  0  0  0  0  0  0
    4.8189   -0.9230    2.0169 H   0  0  0  0  0  0  0  0  0  0  0  0
    2.0579    2.0105    0.2636 H   0  0  0  0  0  0  0  0  0  0  0  0
    0.9787    1.4587   -1.8960 H   0  0  0  0  0  0  0  0  0  0  0  0
   -0.9009   -1.4428   -3.9958 H   0  0  0  0  0  0  0  0  0  0  0  0
   -0.8276   -1.5970   -0.9180 H   0  0  0  0  0  0  0  0  0  0  0  0
   -2.0355   -2.2268   -2.0093 H   0  0  0  0  0  0  0  0  0  0  0  0
   -0.7531   -0.3190    0.6774 H   0  0  0  0  0  0  0  0  0  0  0  0
   -1.2228    0.8208    2.7772 H   0  0  0  0  0  0  0  0  0  0  0  0
   -4.6875    2.6920    1.0384 H   0  0  0  0  0  0  0  0  0  0  0  0
   -4.2402    1.5446   -1.0966 H   0  0  0  0  0  0  0  0  0  0  0  0
    2.1132   -2.6509   -1.4132 H   0  0  0  0  0  0  0  0  0  0  0  0
    3.1884   -2.1264    0.7253 H   0  0  0  0  0  0  0  0  0  0  0  0
  1  2  1  0
  2  3  1  0
  3  4  2  0
  4  5  1  0
  5  6  2  0
  6  7  1  0
  7  8  2  3
  8  9  1  0
  9 10  1  0
 10 11  2  0
 10 12  1  0
 12 13  2  0
 13 14  1  0
 14 15  2  0
 15 16  1  0
 15 17  1  0
 17 18  2  0
  6 19  1  0
 19 20  2  0
 20  3  1  0
 18 12  1  0
  1 21  1  0
  1 22  1  0
  1 23  1  0
  4 24  1  0
  5 25  1  0
  8 26  1  0
  9 27  1  0
  9 28  1  0
 13 29  1  0
 14 30  1  0
 17 31  1  0
 18 32  1  0
 19 33  1  0
 20 34  1  0
M  END
$$$$
