
     RDKit          3D

 43 44  0  0  0  0  0  0  0  0999 V2000
   -2.8430    1.6602    2.2529 C   0  0  0  0  0  0  0  0  0  0  0  0
   -2.8198    0.2074    1.8189 C   0  0  0  0  0  0  0  0  0  0  0  0
   -3.3054    0.0971    0.4176 N   0  0  0  0  0  4  0  0  0  0  0  0
   -4.6393   -0.0582    0.2193 C   0  0  0  0  0  0  0  0  0  0  0  0
   -5.1758   -0.2107   -1.0574 C   0  0  0  0  0  0  0  0  0  0  0  0
   -6.6574   -0.3465   -1.2538 C   0  0  0  0  0  0  0  0  0  0  0  0
   -4.3165   -0.1776   -2.1495 C   0  0  0  0  0  0  0  0  0  0  0  0
   -2.9529   -0.0178   -1.9411 C   0  0  0  0  0  0  0  0  0  0  0  0
   -2.4495    0.1169   -0.6417 C   0  0  0  0  0  0  0  0  0  0  0  0
   -1.0114    0.3099   -0.4402 C   0  0  0  0  0  0  0  0  0  0  0  0
   -0.1200   -0.6573   -0.7099 C   0  0  0  0  0  0  0  0  0  0  0  0
    1.3331   -0.5113   -0.5382 C   0  0  0  0  0  0  0  0  0  0  0  0
    2.1862   -1.2461   -1.3612 C   0  0  0  0  0  0  0  0  0  0  0  0
    3.5800   -1.1641   -1.2109 C   0  0  0  0  0  0  0  0  0  0  0  0
    4.1861   -0.3514   -0.2394 C   0  0  0  0  0  0  0  0  0  0  0  0
    5.5724   -0.2875   -0.0771 N   0  0  0  0  0  0  0  0  0  0  0  0
    6.4451   -0.8809   -1.0903 C   0  0  0  0  0  0  0  0  0  0  0  0
    6.1522    0.8232    0.6782 C   0  0  0  0  0  0  0  0  0  0  0  0
    3.3043    0.3565    0.5942 C   0  0  0  0  0  0  0  0  0  0  0  0
    1.9083    0.2820    0.4540 C   0  0  0  0  0  0  0  0  0  0  0  0
   -2.2022    2.2785    1.6175 H   0  0  0  0  0  0  0  0  0  0  0  0
   -3.8564    2.0708    2.1993 H   0  0  0  0  0  0  0  0  0  0  0  0
   -2.4923    1.7530    3.2852 H   0  0  0  0  0  0  0  0  0  0  0  0
   -3.4796   -0.3987    2.4503 H   0  0  0  0  0  0  0  0  0  0  0  0
   -1.8201   -0.2281    1.8971 H   0  0  0  0  0  0  0  0  0  0  0  0
   -5.2735   -0.0584    1.1026 H   0  0  0  0  0  0  0  0  0  0  0  0
   -6.8798   -0.9520   -2.1387 H   0  0  0  0  0  0  0  0  0  0  0  0
   -7.1208   -0.8436   -0.3951 H   0  0  0  0  0  0  0  0  0  0  0  0
   -7.1104    0.6419   -1.3773 H   0  0  0  0  0  0  0  0  0  0  0  0
   -4.6999   -0.2732   -3.1653 H   0  0  0  0  0  0  0  0  0  0  0  0
   -2.2818    0.0117   -2.7988 H   0  0  0  0  0  0  0  0  0  0  0  0
   -0.7043    1.2870   -0.0790 H   0  0  0  0  0  0  0  0  0  0  0  0
   -0.4415   -1.6232   -1.0989 H   0  0  0  0  0  0  0  0  0  0  0  0
    1.7913   -1.8963   -2.1389 H   0  0  0  0  0  0  0  0  0  0  0  0
    4.1801   -1.7665   -1.8870 H   0  0  0  0  0  0  0  0  0  0  0  0
    7.5005   -0.7853   -0.8114 H   0  0  0  0  0  0  0  0  0  0  0  0
    6.2592   -1.9554   -1.1934 H   0  0  0  0  0  0  0  0  0  0  0  0
    6.3120   -0.3886   -2.0599 H   0  0  0  0  0  0  0  0  0  0  0  0
    5.8371    0.7954    1.7267 H   0  0  0  0  0  0  0  0  0  0  0  0
    5.8749    1.7864    0.2358 H   0  0  0  0  0  0  0  0  0  0  0  0
    7.2467    0.7700    0.6919 H   0  0  0  0  0  0  0  0  0  0  0  0
    3.6845    0.9830    1.3960 H   0  0  0  0  0  0  0  0  0  0  0  0
    1.2994    0.8477    1.1524 H   0  0  0  0  0  0  0  0  0  0  0  0
  1  2  1  0
  2  3  1  0
  3  4  2  0
  4  5  1  0
  5  6  1  0
  5  7  2  0
  7  8  1  0
  8  9  2  0
  9 10  1  0
 10 11  2  3
 11 12  1  0
 12 13  2  0
 13 14  1  0
 14 15  2  0
 15 16  1  0
 16 17  1  0
 16 18  1  0
 15 19  1  0
 19 20  2  0
  9  3  1  0
 20 12  1  0
  1 21  1  0
  1 22  1  0
  1 23  1  0
  2 24  1  0
  2 25  1  0
  4 26  1  0
  6 27  1  0
  6 28  1  0
  6 29  1  0
  7 30  1  0
  8 31  1  0
 10 32  1  0
 11 33  1  0
 13 34  1  0
 14 35  1  0
 17 36  1  0
 17 37  1  0
 17 38  1  0
 18 39  1  0
 18 40  1  0
 18 41  1  0
 19 42  1  0
 20 43  1  0
M  CHG  1   3   1
M  END
$$$$
