
     RDKit          3D

 71 73  0  0  0  0  0  0  0  0999 V2000
   -7.1635   -0.5334   -2.4672 C   0  0  0  0  0  0  0  0  0  0  0  0
   -7.0512   -0.7568   -1.0665 O   0  0  0  0  0  0  0  0  0  0  0  0
   -5.7881   -0.8889   -0.5446 C   0  0  0  0  0  0  0  0  0  0  0  0
   -4.6080   -0.7963   -1.2928 C   0  0  0  0  0  0  0  0  0  0  0  0
   -3.3680   -0.9553   -0.6700 C   0  0  0  0  0  0  0  0  0  0  0  0
   -2.1199   -0.8896   -1.4301 C   0  0  0  0  0  0  0  0  0  0  0  0
   -0.9262   -1.0306   -0.8251 C   0  0  0  0  0  0  0  0  0  0  0  0
    0.3736   -1.0460   -1.5774 C   0  0  0  0  0  0  0  0  0  0  0  0
    1.1957    0.1406   -1.2989 N   0  0  0  0  0  0  0  0  0  0  0  0
    0.7142    1.4301   -1.8380 C   0  0  0  0  0  0  0  0  0  0  0  0
    0.7271    2.5280   -0.7619 C   0  0  0  0  0  0  0  0  0  0  0  0
    0.1136    3.8282   -1.2360 C   0  0  0  0  0  0  0  0  0  0  0  0
   -1.2332    4.0879   -0.9110 C   0  0  0  0  0  0  0  0  0  0  0  0
   -1.8468    5.2798   -1.2982 C   0  0  0  0  0  0  0  0  0  0  0  0
   -1.1251    6.2297   -2.0095 C   0  0  0  0  0  0  0  0  0  0  0  0
    0.2081    5.9838   -2.3476 C   0  0  0  0  0  0  0  0  0  0  0  0
    0.8440    4.7900   -1.9625 C   0  0  0  0  0  0  0  0  0  0  0  0
    2.2815    4.5783   -2.3510 C   0  0  0  0  0  0  0  0  0  0  0  0
    2.5416   -0.0438   -0.9209 C   0  0  0  0  0  0  0  0  0  0  0  0
    3.8370    0.8111   -1.5555 S   0  0  0  0  0  0  0  0  0  0  0  0
    2.6646   -1.0157    0.0610 N   0  0  0  0  0  0  0  0  0  0  0  0
    3.8690   -1.2813    0.8482 C   0  0  0  0  0  0  0  0  0  0  0  0
    3.6479   -2.4592    1.7938 C   0  0  0  0  0  0  0  0  0  0  0  0
    4.7852   -2.6148    2.8105 C   0  0  0  0  0  0  0  0  0  0  0  0
    6.0962   -2.8437    2.1866 N   0  0  0  0  0  0  0  0  0  0  0  0
    7.1722   -2.5544    3.1379 C   0  0  0  0  0  0  0  0  0  0  0  0
    6.2281   -4.2145    1.6929 C   0  0  0  0  0  0  0  0  0  0  0  0
   -0.8708   -1.2842    0.6462 C   0  0  0  0  0  0  0  0  0  0  0  0
    0.1927   -1.4330    1.2380 O   0  0  0  0  0  0  0  0  0  0  0  0
   -2.0634   -1.3590    1.3180 N   0  0  0  0  0  0  0  0  0  0  0  0
   -3.3115   -1.2025    0.7050 C   0  0  0  0  0  0  0  0  0  0  0  0
   -4.4776   -1.2986    1.4652 C   0  0  0  0  0  0  0  0  0  0  0  0
   -5.7219   -1.1499    0.8431 C   0  0  0  0  0  0  0  0  0  0  0  0
   -6.9291   -1.2190    1.4968 O   0  0  0  0  0  0  0  0  0  0  0  0
   -6.9304   -1.7160    2.8277 C   0  0  0  0  0  0  0  0  0  0  0  0
   -6.8025   -1.4005   -3.0243 H   0  0  0  0  0  0  0  0  0  0  0  0
   -8.2262   -0.4043   -2.7018 H   0  0  0  0  0  0  0  0  0  0  0  0
   -6.6420    0.3801   -2.7703 H   0  0  0  0  0  0  0  0  0  0  0  0
   -4.6337   -0.6043   -2.3585 H   0  0  0  0  0  0  0  0  0  0  0  0
   -2.1926   -0.7393   -2.5015 H   0  0  0  0  0  0  0  0  0  0  0  0
    0.9214   -1.9714   -1.3601 H   0  0  0  0  0  0  0  0  0  0  0  0
    0.2064   -1.0615   -2.6631 H   0  0  0  0  0  0  0  0  0  0  0  0
   -0.3180    1.3038   -2.1943 H   0  0  0  0  0  0  0  0  0  0  0  0
    1.3049    1.7010   -2.7208 H   0  0  0  0  0  0  0  0  0  0  0  0
    1.7333    2.7158   -0.3717 H   0  0  0  0  0  0  0  0  0  0  0  0
    0.1665    2.1707    0.1125 H   0  0  0  0  0  0  0  0  0  0  0  0
   -1.8121    3.3576   -0.3495 H   0  0  0  0  0  0  0  0  0  0  0  0
   -2.8845    5.4672   -1.0363 H   0  0  0  0  0  0  0  0  0  0  0  0
   -1.5989    7.1620   -2.3078 H   0  0  0  0  0  0  0  0  0  0  0  0
    0.7516    6.7360   -2.9169 H   0  0  0  0  0  0  0  0  0  0  0  0
    2.8908    4.3452   -1.4740 H   0  0  0  0  0  0  0  0  0  0  0  0
    2.7170    5.4786   -2.8000 H   0  0  0  0  0  0  0  0  0  0  0  0
    2.3580    3.7738   -3.0851 H   0  0  0  0  0  0  0  0  0  0  0  0
    1.7974   -1.1586    0.5783 H   0  0  0  0  0  0  0  0  0  0  0  0
    4.7022   -1.4797    0.1668 H   0  0  0  0  0  0  0  0  0  0  0  0
    4.0956   -0.3679    1.4103 H   0  0  0  0  0  0  0  0  0  0  0  0
    3.5102   -3.3779    1.2155 H   0  0  0  0  0  0  0  0  0  0  0  0
    2.7148   -2.3126    2.3505 H   0  0  0  0  0  0  0  0  0  0  0  0
    4.8088   -1.6936    3.4092 H   0  0  0  0  0  0  0  0  0  0  0  0
    4.5403   -3.4225    3.5097 H   0  0  0  0  0  0  0  0  0  0  0  0
    8.1496   -2.6772    2.6615 H   0  0  0  0  0  0  0  0  0  0  0  0
    7.1183   -1.5145    3.4772 H   0  0  0  0  0  0  0  0  0  0  0  0
    7.1272   -3.2035    4.0206 H   0  0  0  0  0  0  0  0  0  0  0  0
    6.1709   -4.9504    2.5030 H   0  0  0  0  0  0  0  0  0  0  0  0
    5.4583   -4.4548    0.9540 H   0  0  0  0  0  0  0  0  0  0  0  0
    7.1868   -4.3448    1.1783 H   0  0  0  0  0  0  0  0  0  0  0  0
   -1.9945   -1.5304    2.3126 H   0  0  0  0  0  0  0  0  0  0  0  0
   -4.3959   -1.4882    2.5307 H   0  0  0  0  0  0  0  0  0  0  0  0
   -7.9718   -1.7592    3.1645 H   0  0  0  0  0  0  0  0  0  0  0  0
   -6.3939   -1.0431    3.5035 H   0  0  0  0  0  0  0  0  0  0  0  0
   -6.5208   -2.7322    2.8709 H   0  0  0  0  0  0  0  0  0  0  0  0
  1  2  1  0
  2  3  1  0
  3  4  2  0
  4  5  1  0
  5  6  1  0
  6  7  2  0
  7  8  1  0
  8  9  1  0
  9 10  1  0
 10 11  1  0
 11 12  1  0
 12 13  2  0
 13 14  1  0
 14 15  2  0
 15 16  1  0
 16 17  2  0
 17 18  1  0
  9 19  1  0
 19 20  2  0
 19 21  1  0
 21 22  1  0
 22 23  1  0
 23 24  1  0
 24 25  1  0
 25 26  1  0
 25 27  1  0
  7 28  1  0
 28 29  2  0
 28 30  1  0
 30 31  1  0
 31 32  1  0
 32 33  2  0
 33 34  1  0
 34 35  1  0
 33  3  1  0
 31  5  2  0
 17 12  1  0
  1 36  1  0
  1 37  1  0
  1 38  1  0
  4 39  1  0
  6 40  1  0
  8 41  1  0
  8 42  1  0
 10 43  1  0
 10 44  1  0
 11 45  1  0
 11 46  1  0
 13 47  1  0
 14 48  1  0
 15 49  1  0
 16 50  1  0
 18 51  1  0
 18 52  1  0
 18 53  1  0
 21 54  1  0
 22 55  1  0
 22 56  1  0
 23 57  1  0
 23 58  1  0
 24 59  1  0
 24 60  1  0
 26 61  1  0
 26 62  1  0
 26 63  1  0
 27 64  1  0
 27 65  1  0
 27 66  1  0
 30 67  1  0
 32 68  1  0
 35 69  1  0
 35 70  1  0
 35 71  1  0
M  END
$$$$
