
     RDKit          3D

 45 47  0  0  0  0  0  0  0  0999 V2000
   -7.4674    1.9446    4.4487 C   0  0  0  0  0  0  0  0  0  0  0  0
   -7.4361    1.2189    3.2264 O   0  0  0  0  0  0  0  0  0  0  0  0
   -6.2364    0.6716    2.8639 C   0  0  0  0  0  0  0  0  0  0  0  0
   -6.2521   -0.0172    1.6493 C   0  0  0  0  0  0  0  0  0  0  0  0
   -5.0947   -0.6253    1.1573 C   0  0  0  0  0  0  0  0  0  0  0  0
   -3.8998   -0.5562    1.8813 C   0  0  0  0  0  0  0  0  0  0  0  0
   -2.6418   -1.1928    1.3495 C   0  0  0  0  0  0  0  0  0  0  0  0
   -1.7717   -0.1939    0.5874 C   0  0  0  0  0  0  0  0  0  0  0  0
   -0.5824   -0.8270    0.0442 N   0  0  0  0  0  0  0  0  0  0  0  0
    0.5269   -0.0720   -0.3037 C   0  0  0  0  0  0  0  0  0  0  0  0
    0.5905    1.1284   -0.0499 O   0  0  0  0  0  0  0  0  0  0  0  0
    1.5759   -0.8034   -0.9927 C   0  0  0  0  0  0  0  0  0  0  0  0
    1.7514   -2.1350   -1.3240 C   0  0  0  0  0  0  0  0  0  0  0  0
    2.9908   -2.2302   -2.0073 C   0  0  0  0  0  0  0  0  0  0  0  0
    3.5224   -0.9581   -2.0484 C   0  0  0  0  0  0  0  0  0  0  0  0
    4.7386   -0.3489   -2.5858 C   0  0  0  0  0  0  0  0  0  0  0  0
    4.6531    0.9530   -3.1214 C   0  0  0  0  0  0  0  0  0  0  0  0
    5.7692    1.5961   -3.6652 C   0  0  0  0  0  0  0  0  0  0  0  0
    7.0001    0.9367   -3.6769 C   0  0  0  0  0  0  0  0  0  0  0  0
    8.1785    1.6011   -4.2468 N   0  0  0  0  0  4  0  0  0  0  0  0
    9.2525    0.9841   -4.2254 O   0  0  0  0  0  0  0  0  0  0  0  0
    8.0279    2.7365   -4.7184 O   0  0  0  0  0  1  0  0  0  0  0  0
    7.1188   -0.3519   -3.1462 C   0  0  0  0  0  0  0  0  0  0  0  0
    5.9936   -0.9880   -2.6021 C   0  0  0  0  0  0  0  0  0  0  0  0
    6.2581   -2.5606   -1.9272 Cl  0  0  0  0  0  0  0  0  0  0  0  0
    2.6585   -0.0931   -1.4397 O   0  0  0  0  0  0  0  0  0  0  0  0
   -3.8852    0.1387    3.0972 C   0  0  0  0  0  0  0  0  0  0  0  0
   -5.0464    0.7476    3.5866 C   0  0  0  0  0  0  0  0  0  0  0  0
   -8.4861    2.3188    4.5893 H   0  0  0  0  0  0  0  0  0  0  0  0
   -7.2309    1.2962    5.2989 H   0  0  0  0  0  0  0  0  0  0  0  0
   -6.7973    2.8099    4.4119 H   0  0  0  0  0  0  0  0  0  0  0  0
   -7.1761   -0.0784    1.0794 H   0  0  0  0  0  0  0  0  0  0  0  0
   -5.1386   -1.1507    0.2063 H   0  0  0  0  0  0  0  0  0  0  0  0
   -2.0735   -1.6298    2.1810 H   0  0  0  0  0  0  0  0  0  0  0  0
   -2.9024   -2.0377    0.6987 H   0  0  0  0  0  0  0  0  0  0  0  0
   -2.3210    0.2378   -0.2576 H   0  0  0  0  0  0  0  0  0  0  0  0
   -1.4734    0.6346    1.2404 H   0  0  0  0  0  0  0  0  0  0  0  0
   -0.6878   -1.7329   -0.3882 H   0  0  0  0  0  0  0  0  0  0  0  0
    1.0773   -2.9501   -1.1040 H   0  0  0  0  0  0  0  0  0  0  0  0
    3.4343   -3.1259   -2.4199 H   0  0  0  0  0  0  0  0  0  0  0  0
    3.6984    1.4810   -3.1186 H   0  0  0  0  0  0  0  0  0  0  0  0
    5.6567    2.6014   -4.0678 H   0  0  0  0  0  0  0  0  0  0  0  0
    8.0787   -0.8656   -3.1434 H   0  0  0  0  0  0  0  0  0  0  0  0
   -2.9661    0.2141    3.6753 H   0  0  0  0  0  0  0  0  0  0  0  0
   -4.9847    1.2735    4.5334 H   0  0  0  0  0  0  0  0  0  0  0  0
  1  2  1  0
  2  3  1  0
  3  4  2  0
  4  5  1  0
  5  6  2  0
  6  7  1  0
  7  8  1  0
  8  9  1  0
  9 10  1  0
 10 11  2  0
 10 12  1  0
 12 13  2  0
 13 14  1  0
 14 15  2  0
 15 16  1  0
 16 17  2  0
 17 18  1  0
 18 19  2  0
 19 20  1  0
 20 21  2  0
 20 22  1  0
 19 23  1  0
 23 24  2  0
 24 25  1  0
 15 26  1  0
  6 27  1  0
 27 28  2  0
 28  3  1  0
 26 12  1  0
 24 16  1  0
  1 29  1  0
  1 30  1  0
  1 31  1  0
  4 32  1  0
  5 33  1  0
  7 34  1  0
  7 35  1  0
  8 36  1  0
  8 37  1  0
  9 38  1  0
 13 39  1  0
 14 40  1  0
 17 41  1  0
 18 42  1  0
 23 43  1  0
 27 44  1  0
 28 45  1  0
M  CHG  2  20   1  22  -1
M  END
$$$$
