
     RDKit          3D

 35 36  0  0  0  0  0  0  0  0999 V2000
   -5.5485   -1.8733   -2.0351 C   0  0  0  0  0  0  0  0  0  0  0  0
   -4.3776   -1.1475   -1.4420 C   0  0  0  0  0  0  0  0  0  0  0  0
   -4.5483    0.0616   -0.7619 C   0  0  0  0  0  0  0  0  0  0  0  0
   -3.4513    0.7351   -0.2100 C   0  0  0  0  0  0  0  0  0  0  0  0
   -2.1617    0.2131   -0.3271 C   0  0  0  0  0  0  0  0  0  0  0  0
   -1.0231    0.8492    0.2109 N   0  0  0  0  0  0  0  0  0  0  0  0
   -0.9367    2.0464    0.8949 C   0  0  0  0  0  0  0  0  0  0  0  0
   -1.8664    2.7984    1.1711 O   0  0  0  0  0  0  0  0  0  0  0  0
    0.4980    2.3917    1.3040 C   0  0  0  0  0  0  0  0  0  0  0  0
    1.4192    1.3857    0.8672 O   0  0  0  0  0  0  0  0  0  0  0  0
    2.6976    1.6145    1.2448 C   0  0  0  0  0  0  0  0  0  0  0  0
    3.1238    2.5930    1.8312 O   0  0  0  0  0  0  0  0  0  0  0  0
    3.5529    0.5295    0.7365 C   0  0  0  0  0  0  0  0  0  0  0  0
    4.6615    0.9047   -0.0355 C   0  0  0  0  0  0  0  0  0  0  0  0
    5.5014   -0.0766   -0.5558 C   0  0  0  0  0  0  0  0  0  0  0  0
    6.8538    0.3773   -1.5152 Cl  0  0  0  0  0  0  0  0  0  0  0  0
    5.2524   -1.4254   -0.3059 C   0  0  0  0  0  0  0  0  0  0  0  0
    4.1594   -1.7975    0.4816 C   0  0  0  0  0  0  0  0  0  0  0  0
    3.3089   -0.8218    1.0117 C   0  0  0  0  0  0  0  0  0  0  0  0
    2.0204   -1.3537    2.0308 Cl  0  0  0  0  0  0  0  0  0  0  0  0
   -1.9939   -1.0029   -1.0141 C   0  0  0  0  0  0  0  0  0  0  0  0
   -0.2719   -1.7860   -1.2383 Br  0  0  0  0  0  0  0  0  0  0  0  0
   -3.0890   -1.6771   -1.5655 C   0  0  0  0  0  0  0  0  0  0  0  0
   -5.6381   -2.8702   -1.5917 H   0  0  0  0  0  0  0  0  0  0  0  0
   -6.4868   -1.3394   -1.8525 H   0  0  0  0  0  0  0  0  0  0  0  0
   -5.4224   -1.9705   -3.1182 H   0  0  0  0  0  0  0  0  0  0  0  0
   -5.5397    0.4976   -0.6516 H   0  0  0  0  0  0  0  0  0  0  0  0
   -3.6438    1.6691    0.3091 H   0  0  0  0  0  0  0  0  0  0  0  0
   -0.1409    0.3603    0.0781 H   0  0  0  0  0  0  0  0  0  0  0  0
    0.7554    3.3500    0.8398 H   0  0  0  0  0  0  0  0  0  0  0  0
    0.5231    2.4673    2.3968 H   0  0  0  0  0  0  0  0  0  0  0  0
    4.8619    1.9567   -0.2294 H   0  0  0  0  0  0  0  0  0  0  0  0
    5.9096   -2.1911   -0.7122 H   0  0  0  0  0  0  0  0  0  0  0  0
    3.9836   -2.8519    0.6857 H   0  0  0  0  0  0  0  0  0  0  0  0
   -2.9427   -2.6164   -2.0941 H   0  0  0  0  0  0  0  0  0  0  0  0
  1  2  1  0
  2  3  2  0
  3  4  1  0
  4  5  2  0
  5  6  1  0
  6  7  1  0
  7  8  2  0
  7  9  1  0
  9 10  1  0
 10 11  1  0
 11 12  2  0
 11 13  1  0
 13 14  2  0
 14 15  1  0
 15 16  1  0
 15 17  2  0
 17 18  1  0
 18 19  2  0
 19 20  1  0
  5 21  1  0
 21 22  1  0
 21 23  2  0
 23  2  1  0
 19 13  1  0
  1 24  1  0
  1 25  1  0
  1 26  1  0
  3 27  1  0
  4 28  1  0
  6 29  1  0
  9 30  1  0
  9 31  1  0
 14 32  1  0
 17 33  1  0
 18 34  1  0
 23 35  1  0
M  END
$$$$
