
     RDKit          3D

 53 54  0  0  0  0  0  0  0  0999 V2000
   -7.2095    1.2201   -0.7952 C   0  0  0  0  0  0  0  0  0  0  0  0
   -5.9231    0.4118   -0.8155 C   0  0  0  0  0  0  0  0  0  0  0  0
   -4.9872    0.9483    0.2018 N   0  0  0  0  0  0  0  0  0  0  0  0
   -4.6570    0.0149    1.3053 C   0  0  0  0  0  0  0  0  0  0  0  0
   -5.8389   -0.1298    2.2504 C   0  0  0  0  0  0  0  0  0  0  0  0
   -3.7449    1.9761   -0.3494 S   0  0  0  0  0  6  0  0  0  0  0  0
   -4.2842    2.8307   -1.3859 O   0  0  0  0  0  0  0  0  0  0  0  0
   -3.0670    2.5328    0.8021 O   0  0  0  0  0  0  0  0  0  0  0  0
   -2.6045    0.8463   -1.1308 C   0  0  0  0  0  0  0  0  0  0  0  0
   -2.7029    0.6015   -2.5041 C   0  0  0  0  0  0  0  0  0  0  0  0
   -1.8027   -0.2691   -3.1150 C   0  0  0  0  0  0  0  0  0  0  0  0
   -0.7972   -0.8752   -2.3587 C   0  0  0  0  0  0  0  0  0  0  0  0
   -0.6732   -0.6031   -0.9881 C   0  0  0  0  0  0  0  0  0  0  0  0
    0.4292   -1.2665   -0.2430 C   0  0  0  0  0  0  0  0  0  0  0  0
    1.1305   -2.1483   -0.7168 O   0  0  0  0  0  0  0  0  0  0  0  0
    0.5534   -0.7513    1.0038 O   0  0  0  0  0  0  0  0  0  0  0  0
    1.6058   -1.3101    1.7932 C   0  0  0  0  0  0  0  0  0  0  0  0
    3.0058   -0.8531    1.3691 C   0  0  0  0  0  0  0  0  0  0  0  0
    3.5901    0.0950    1.8924 O   0  0  0  0  0  0  0  0  0  0  0  0
    3.5731   -1.5998    0.3555 N   0  0  0  0  0  0  0  0  0  0  0  0
    4.7898   -1.1478   -0.2928 C   0  0  0  0  0  0  0  0  0  0  0  0
    6.0219   -1.1890    0.6238 C   0  0  0  0  0  0  0  0  0  0  0  0
    6.8943   -0.0541    0.4009 N   0  0  0  0  0  0  0  0  0  0  0  0
    6.8612    1.1258    1.1072 C   0  0  0  0  0  0  0  0  0  0  0  0
    5.9668    1.3483    2.1118 O   0  0  0  0  0  0  0  0  0  0  0  0
    7.7724    2.0251    0.7251 C   0  0  0  0  0  0  0  0  0  0  0  0
    8.7274    1.4417   -0.6015 S   0  0  0  0  0  0  0  0  0  0  0  0
    7.8352   -0.0881   -0.6200 C   0  0  0  0  0  0  0  0  0  0  0  0
    8.0359   -0.9872   -1.4204 O   0  0  0  0  0  0  0  0  0  0  0  0
   -1.5793    0.2681   -0.3718 C   0  0  0  0  0  0  0  0  0  0  0  0
   -7.9139    0.8305   -1.5370 H   0  0  0  0  0  0  0  0  0  0  0  0
   -7.0210    2.2738   -1.0276 H   0  0  0  0  0  0  0  0  0  0  0  0
   -7.6905    1.1785    0.1873 H   0  0  0  0  0  0  0  0  0  0  0  0
   -5.4860    0.4460   -1.8179 H   0  0  0  0  0  0  0  0  0  0  0  0
   -6.1469   -0.6442   -0.6222 H   0  0  0  0  0  0  0  0  0  0  0  0
   -4.3688   -0.9614    0.8998 H   0  0  0  0  0  0  0  0  0  0  0  0
   -3.8089    0.3874    1.8885 H   0  0  0  0  0  0  0  0  0  0  0  0
   -6.6951   -0.5994    1.7567 H   0  0  0  0  0  0  0  0  0  0  0  0
   -5.5646   -0.7550    3.1063 H   0  0  0  0  0  0  0  0  0  0  0  0
   -6.1617    0.8462    2.6267 H   0  0  0  0  0  0  0  0  0  0  0  0
   -3.4704    1.0873   -3.1031 H   0  0  0  0  0  0  0  0  0  0  0  0
   -1.8762   -0.4698   -4.1815 H   0  0  0  0  0  0  0  0  0  0  0  0
   -0.0993   -1.5521   -2.8495 H   0  0  0  0  0  0  0  0  0  0  0  0
    1.4494   -0.9861    2.8284 H   0  0  0  0  0  0  0  0  0  0  0  0
    1.5490   -2.4056    1.7984 H   0  0  0  0  0  0  0  0  0  0  0  0
    2.9159   -2.1374   -0.2156 H   0  0  0  0  0  0  0  0  0  0  0  0
    4.5991   -0.1324   -0.6608 H   0  0  0  0  0  0  0  0  0  0  0  0
    4.9524   -1.7913   -1.1639 H   0  0  0  0  0  0  0  0  0  0  0  0
    5.7673   -1.2442    1.6879 H   0  0  0  0  0  0  0  0  0  0  0  0
    6.5842   -2.1063    0.4064 H   0  0  0  0  0  0  0  0  0  0  0  0
    5.1563    0.8137    1.9652 H   0  0  0  0  0  0  0  0  0  0  0  0
    7.9008    3.0038    1.1646 H   0  0  0  0  0  0  0  0  0  0  0  0
   -1.4928    0.5038    0.6863 H   0  0  0  0  0  0  0  0  0  0  0  0
  1  2  1  0
  2  3  1  0
  3  4  1  0
  4  5  1  0
  3  6  1  0
  6  7  2  0
  6  8  2  0
  6  9  1  0
  9 10  2  0
 10 11  1  0
 11 12  2  0
 12 13  1  0
 13 14  1  0
 14 15  2  0
 14 16  1  0
 16 17  1  0
 17 18  1  0
 18 19  2  0
 18 20  1  0
 20 21  1  0
 21 22  1  0
 22 23  1  0
 23 24  1  0
 24 25  1  0
 24 26  2  0
 26 27  1  0
 27 28  1  0
 28 29  2  0
 13 30  2  0
 30  9  1  0
 28 23  1  0
  1 31  1  0
  1 32  1  0
  1 33  1  0
  2 34  1  0
  2 35  1  0
  4 36  1  0
  4 37  1  0
  5 38  1  0
  5 39  1  0
  5 40  1  0
 10 41  1  0
 11 42  1  0
 12 43  1  0
 17 44  1  0
 17 45  1  0
 20 46  1  0
 21 47  1  0
 21 48  1  0
 22 49  1  0
 22 50  1  0
 25 51  1  0
 26 52  1  0
 30 53  1  0
M  END
$$$$
