
     RDKit          3D

 57 62  0  0  0  0  0  0  0  0999 V2000
    7.1253    3.8063   -0.2578 C   0  0  0  0  0  0  0  0  0  0  0  0
    7.0738    2.3885   -0.3670 O   0  0  0  0  0  0  0  0  0  0  0  0
    5.8679    1.7885   -0.1439 C   0  0  0  0  0  0  0  0  0  0  0  0
    5.8731    0.4004   -0.2870 C   0  0  0  0  0  0  0  0  0  0  0  0
    4.7083   -0.3480   -0.0888 C   0  0  0  0  0  0  0  0  0  0  0  0
    3.5202    0.2912    0.2604 C   0  0  0  0  0  0  0  0  0  0  0  0
    2.2011   -0.5321    0.4854 C   0  0  0  0  0  0  0  0  0  0  0  0
    0.9438   -0.0137    0.7728 C   0  0  0  0  0  0  0  0  0  0  0  0
    0.0318   -1.0640    0.8718 N   0  0  0  0  0  4  0  0  0  0  0  0
   -1.4211   -0.9533    1.1027 C   0  0  0  0  0  0  0  0  0  0  0  0
   -2.1939   -1.1495   -0.2200 C   0  0  0  0  0  0  0  0  0  0  0  0
   -1.8018   -2.0288   -0.9926 O   0  0  0  0  0  0  0  0  0  0  0  0
   -3.2057   -0.2080   -0.4780 N   0  0  0  0  0  0  0  0  0  0  0  0
   -3.5148    0.2219   -1.8233 C   0  0  0  0  0  0  0  0  0  0  0  0
   -3.3317   -0.6329   -2.9253 C   0  0  0  0  0  0  0  0  0  0  0  0
   -3.6156   -0.2197   -4.2321 C   0  0  0  0  0  0  0  0  0  0  0  0
   -4.0836    1.0641   -4.4717 C   0  0  0  0  0  0  0  0  0  0  0  0
   -4.2682    1.9344   -3.4028 C   0  0  0  0  0  0  0  0  0  0  0  0
   -3.9912    1.5220   -2.0891 C   0  0  0  0  0  0  0  0  0  0  0  0
   -4.1734    2.7424   -0.8079 S   0  0  0  0  0  0  0  0  0  0  0  0
   -4.5126    1.6543    0.5461 C   0  0  0  0  0  0  0  0  0  0  0  0
   -5.2748    2.1507    1.6136 C   0  0  0  0  0  0  0  0  0  0  0  0
   -5.5756    1.3431    2.7077 C   0  0  0  0  0  0  0  0  0  0  0  0
   -5.1272    0.0291    2.7362 C   0  0  0  0  0  0  0  0  0  0  0  0
   -4.3587   -0.4676    1.6803 C   0  0  0  0  0  0  0  0  0  0  0  0
   -4.0109    0.3446    0.5813 C   0  0  0  0  0  0  0  0  0  0  0  0
    0.6943   -2.1908    0.6267 C   0  0  0  0  0  0  0  0  0  0  0  0
    1.9797   -1.8971    0.4474 N   0  0  0  0  0  0  0  0  0  0  0  0
    2.7805   -3.0922    0.2217 C   0  0  0  0  0  0  0  0  0  0  0  0
    1.8273   -4.2482    0.6313 C   0  0  0  0  0  0  0  0  0  0  0  0
    0.4120   -3.6435    0.5460 C   0  0  0  0  0  0  0  0  0  0  0  0
    3.5094    1.6844    0.4013 C   0  0  0  0  0  0  0  0  0  0  0  0
    4.6801    2.4288    0.2009 C   0  0  0  0  0  0  0  0  0  0  0  0
    8.1505    4.1215   -0.4743 H   0  0  0  0  0  0  0  0  0  0  0  0
    6.8834    4.1317    0.7593 H   0  0  0  0  0  0  0  0  0  0  0  0
    6.4673    4.2823   -0.9922 H   0  0  0  0  0  0  0  0  0  0  0  0
    6.7991   -0.1028   -0.5608 H   0  0  0  0  0  0  0  0  0  0  0  0
    4.7720   -1.4188   -0.2287 H   0  0  0  0  0  0  0  0  0  0  0  0
    0.5736    0.9887    0.9063 H   0  0  0  0  0  0  0  0  0  0  0  0
   -1.6025    0.0291    1.5471 H   0  0  0  0  0  0  0  0  0  0  0  0
   -1.7114   -1.7346    1.8116 H   0  0  0  0  0  0  0  0  0  0  0  0
   -3.0103   -1.6631   -2.8068 H   0  0  0  0  0  0  0  0  0  0  0  0
   -3.4780   -0.9109   -5.0612 H   0  0  0  0  0  0  0  0  0  0  0  0
   -4.3056    1.3876   -5.4859 H   0  0  0  0  0  0  0  0  0  0  0  0
   -4.6267    2.9427   -3.6027 H   0  0  0  0  0  0  0  0  0  0  0  0
   -5.6528    3.1721    1.5939 H   0  0  0  0  0  0  0  0  0  0  0  0
   -6.1818    1.7343    3.5224 H   0  0  0  0  0  0  0  0  0  0  0  0
   -5.3995   -0.6162    3.5692 H   0  0  0  0  0  0  0  0  0  0  0  0
   -4.0977   -1.5229    1.7097 H   0  0  0  0  0  0  0  0  0  0  0  0
    3.0381   -3.1491   -0.8399 H   0  0  0  0  0  0  0  0  0  0  0  0
    3.6782   -3.0870    0.8437 H   0  0  0  0  0  0  0  0  0  0  0  0
    2.0349   -4.5285    1.6710 H   0  0  0  0  0  0  0  0  0  0  0  0
    1.9497   -5.1400    0.0108 H   0  0  0  0  0  0  0  0  0  0  0  0
   -0.0522   -3.8281   -0.4239 H   0  0  0  0  0  0  0  0  0  0  0  0
   -0.2359   -3.9295    1.3751 H   0  0  0  0  0  0  0  0  0  0  0  0
    2.6087    2.2291    0.6694 H   0  0  0  0  0  0  0  0  0  0  0  0
    4.6311    3.5069    0.3221 H   0  0  0  0  0  0  0  0  0  0  0  0
  1  2  1  0
  2  3  1  0
  3  4  2  0
  4  5  1  0
  5  6  2  0
  6  7  1  0
  7  8  2  0
  8  9  1  0
  9 10  1  0
 10 11  1  0
 11 12  2  0
 11 13  1  0
 13 14  1  0
 14 15  2  0
 15 16  1  0
 16 17  2  0
 17 18  1  0
 18 19  2  0
 19 20  1  0
 20 21  1  0
 21 22  2  0
 22 23  1  0
 23 24  2  0
 24 25  1  0
 25 26  2  0
  9 27  2  0
 27 28  1  0
 28 29  1  0
 29 30  1  0
 30 31  1  0
  6 32  1  0
 32 33  2  0
 33  3  1  0
 28  7  1  0
 26 13  1  0
 31 27  1  0
 19 14  1  0
 26 21  1  0
  1 34  1  0
  1 35  1  0
  1 36  1  0
  4 37  1  0
  5 38  1  0
  8 39  1  0
 10 40  1  0
 10 41  1  0
 15 42  1  0
 16 43  1  0
 17 44  1  0
 18 45  1  0
 22 46  1  0
 23 47  1  0
 24 48  1  0
 25 49  1  0
 29 50  1  0
 29 51  1  0
 30 52  1  0
 30 53  1  0
 31 54  1  0
 31 55  1  0
 32 56  1  0
 33 57  1  0
M  CHG  1   9   1
M  END
$$$$
