
     RDKit          3D

 60 65  0  0  0  0  0  0  0  0999 V2000
    4.1357   -2.3775   -4.1769 O   0  0  0  0  0  0  0  0  0  0  0  0
    3.7861   -1.8640   -3.1202 C   0  0  0  0  0  0  0  0  0  0  0  0
    2.6652   -1.0464   -3.0363 N   0  0  0  0  0  0  0  0  0  0  0  0
    2.2368   -0.4208   -1.8675 C   0  0  0  0  0  0  0  0  0  0  0  0
    0.9722    0.4149   -2.0234 C   0  0  0  0  0  0  0  0  0  0  0  0
   -0.2425   -0.5261   -2.0366 C   0  0  0  0  0  0  0  0  0  0  0  0
   -1.4963    0.1565   -1.5075 C   0  0  0  0  0  0  0  0  0  0  0  0
   -1.3166    0.6280   -0.1084 N   0  0  0  0  0  0  0  0  0  0  0  0
   -2.1442   -0.2545    1.1012 S   0  0  0  0  0  6  0  0  0  0  0  0
   -1.8833    0.3750    2.3779 O   0  0  0  0  0  0  0  0  0  0  0  0
   -1.8563   -1.6555    0.8776 O   0  0  0  0  0  0  0  0  0  0  0  0
   -3.8451    0.0531    0.7029 C   0  0  0  0  0  0  0  0  0  0  0  0
   -4.3360    1.3603    0.8001 C   0  0  0  0  0  0  0  0  0  0  0  0
   -5.6731    1.6163    0.4958 C   0  0  0  0  0  0  0  0  0  0  0  0
   -6.5080    0.5695    0.1054 C   0  0  0  0  0  0  0  0  0  0  0  0
   -6.0031   -0.7323   -0.0086 C   0  0  0  0  0  0  0  0  0  0  0  0
   -4.6736   -0.9998    0.3075 C   0  0  0  0  0  0  0  0  0  0  0  0
   -6.7622   -1.7983   -0.4181 O   0  0  0  0  0  0  0  0  0  0  0  0
   -7.9915   -1.3708   -1.0165 C   0  0  0  0  0  0  0  0  0  0  0  0
   -8.6429   -0.2768   -0.1870 C   0  0  0  0  0  0  0  0  0  0  0  0
   -7.8151    0.8919   -0.1567 O   0  0  0  0  0  0  0  0  0  0  0  0
    0.0810    0.9715    0.2708 C   0  0  0  0  0  0  0  0  0  0  0  0
    0.8485    1.4928   -0.9376 C   0  0  0  0  0  0  0  0  0  0  0  0
    2.8182   -0.5621   -0.7084 N   0  0  0  0  0  0  0  0  0  0  0  0
    3.9138   -1.3585   -0.7628 C   0  0  0  0  0  0  0  0  0  0  0  0
    4.4434   -2.0101   -1.8504 C   0  0  0  0  0  0  0  0  0  0  0  0
    5.5516   -2.7145   -1.4950 N   0  0  0  0  0  0  0  0  0  0  0  0
    5.7388   -2.5255   -0.1885 N   0  0  0  0  0  0  0  0  0  0  0  0
    4.7566   -1.7021    0.2552 N   0  0  0  0  0  0  0  0  0  0  0  0
    4.6613   -1.3460    1.6556 C   0  0  0  0  0  0  0  0  0  0  0  0
    5.1714    0.0506    1.9106 C   0  0  0  0  0  0  0  0  0  0  0  0
    4.2744    1.1134    2.1100 C   0  0  0  0  0  0  0  0  0  0  0  0
    4.7446    2.4092    2.3393 C   0  0  0  0  0  0  0  0  0  0  0  0
    6.1156    2.6564    2.3685 C   0  0  0  0  0  0  0  0  0  0  0  0
    7.0048    1.6078    2.1659 C   0  0  0  0  0  0  0  0  0  0  0  0
    8.3223    1.8477    2.1920 F   0  0  0  0  0  0  0  0  0  0  0  0
    6.5490    0.3134    1.9368 C   0  0  0  0  0  0  0  0  0  0  0  0
    2.1787   -0.9114   -3.9102 H   0  0  0  0  0  0  0  0  0  0  0  0
    1.0375    0.9253   -2.9938 H   0  0  0  0  0  0  0  0  0  0  0  0
   -0.0416   -1.4241   -1.4372 H   0  0  0  0  0  0  0  0  0  0  0  0
   -0.4187   -0.8777   -3.0606 H   0  0  0  0  0  0  0  0  0  0  0  0
   -1.7484    1.0261   -2.1264 H   0  0  0  0  0  0  0  0  0  0  0  0
   -2.3435   -0.5310   -1.5926 H   0  0  0  0  0  0  0  0  0  0  0  0
   -3.6852    2.1721    1.1181 H   0  0  0  0  0  0  0  0  0  0  0  0
   -6.0689    2.6253    0.5773 H   0  0  0  0  0  0  0  0  0  0  0  0
   -4.2951   -2.0162    0.2355 H   0  0  0  0  0  0  0  0  0  0  0  0
   -7.7801   -1.0280   -2.0370 H   0  0  0  0  0  0  0  0  0  0  0  0
   -8.6507   -2.2422   -1.0786 H   0  0  0  0  0  0  0  0  0  0  0  0
   -9.6042    0.0091   -0.6252 H   0  0  0  0  0  0  0  0  0  0  0  0
   -8.8213   -0.6059    0.8442 H   0  0  0  0  0  0  0  0  0  0  0  0
    0.5846    0.0990    0.7013 H   0  0  0  0  0  0  0  0  0  0  0  0
    0.0490    1.7579    1.0332 H   0  0  0  0  0  0  0  0  0  0  0  0
    0.3128    2.3564   -1.3539 H   0  0  0  0  0  0  0  0  0  0  0  0
    1.8328    1.8630   -0.6280 H   0  0  0  0  0  0  0  0  0  0  0  0
    3.6114   -1.4494    1.9535 H   0  0  0  0  0  0  0  0  0  0  0  0
    5.2343   -2.0754    2.2400 H   0  0  0  0  0  0  0  0  0  0  0  0
    3.1999    0.9382    2.0838 H   0  0  0  0  0  0  0  0  0  0  0  0
    4.0420    3.2241    2.4946 H   0  0  0  0  0  0  0  0  0  0  0  0
    6.4971    3.6568    2.5458 H   0  0  0  0  0  0  0  0  0  0  0  0
    7.2762   -0.4787    1.7751 H   0  0  0  0  0  0  0  0  0  0  0  0
  1  2  2  0
  2  3  1  0
  3  4  1  0
  4  5  1  0
  5  6  1  0
  6  7  1  0
  7  8  1  0
  8  9  1  0
  9 10  2  0
  9 11  2  0
  9 12  1  0
 12 13  2  0
 13 14  1  0
 14 15  2  0
 15 16  1  0
 16 17  2  0
 16 18  1  0
 18 19  1  0
 19 20  1  0
 20 21  1  0
  8 22  1  0
 22 23  1  0
  4 24  2  0
 24 25  1  0
 25 26  2  0
 26 27  1  0
 27 28  2  0
 28 29  1  0
 29 30  1  0
 30 31  1  0
 31 32  2  0
 32 33  1  0
 33 34  2  0
 34 35  1  0
 35 36  1  0
 35 37  2  0
 26  2  1  0
 37 31  1  0
 23  5  1  0
 29 25  1  0
 17 12  1  0
 21 15  1  0
  3 38  1  0
  5 39  1  0
  6 40  1  0
  6 41  1  0
  7 42  1  0
  7 43  1  0
 13 44  1  0
 14 45  1  0
 17 46  1  0
 19 47  1  0
 19 48  1  0
 20 49  1  0
 20 50  1  0
 22 51  1  0
 22 52  1  0
 23 53  1  0
 23 54  1  0
 30 55  1  0
 30 56  1  0
 32 57  1  0
 33 58  1  0
 34 59  1  0
 37 60  1  0
M  END
$$$$
