
     RDKit          3D

 60 62  0  0  0  0  0  0  0  0999 V2000
   -8.9158    1.3852    0.3705 C   0  0  0  0  0  0  0  0  0  0  0  0
   -8.3883    0.2672    1.2566 C   0  0  0  0  0  0  0  0  0  0  0  0
   -6.8980    0.0956    1.1149 C   0  0  0  0  0  0  0  0  0  0  0  0
   -6.0166    0.8229    1.9200 C   0  0  0  0  0  0  0  0  0  0  0  0
   -4.6342    0.6743    1.7703 C   0  0  0  0  0  0  0  0  0  0  0  0
   -4.1062   -0.1986    0.8110 C   0  0  0  0  0  0  0  0  0  0  0  0
   -2.7010   -0.2914    0.7311 N   0  0  0  0  0  0  0  0  0  0  0  0
   -1.9553   -1.0434   -0.1614 C   0  0  0  0  0  0  0  0  0  0  0  0
   -2.3910   -1.7630   -1.0592 O   0  0  0  0  0  0  0  0  0  0  0  0
   -0.4363   -0.9518    0.0904 C   0  0  0  0  0  0  0  0  0  0  0  0
    0.2670   -1.2750   -1.1740 N   0  0  0  0  0  0  0  0  0  0  0  0
    0.5791    0.0113   -2.2146 S   0  0  0  0  0  6  0  0  0  0  0  0
    0.7366   -0.5470   -3.5380 O   0  0  0  0  0  0  0  0  0  0  0  0
   -0.3604    1.0715   -1.9263 O   0  0  0  0  0  0  0  0  0  0  0  0
    2.1903    0.5089   -1.6538 C   0  0  0  0  0  0  0  0  0  0  0  0
    2.3331    1.6769   -0.8865 C   0  0  0  0  0  0  0  0  0  0  0  0
    3.5974    2.0655   -0.4309 C   0  0  0  0  0  0  0  0  0  0  0  0
    4.6935    1.2837   -0.7619 C   0  0  0  0  0  0  0  0  0  0  0  0
    4.5434    0.1325   -1.5391 C   0  0  0  0  0  0  0  0  0  0  0  0
    3.2984   -0.2728   -1.9965 C   0  0  0  0  0  0  0  0  0  0  0  0
    5.8526   -0.5530   -1.7595 C   0  0  0  0  0  0  0  0  0  0  0  0
    6.8353    0.4035   -1.0727 C   0  0  0  0  0  0  0  0  0  0  0  0
    6.0477    1.4685   -0.4280 N   0  0  0  0  0  0  0  0  0  0  0  0
    6.5575    2.4947    0.3475 C   0  0  0  0  0  0  0  0  0  0  0  0
    8.0571    2.4841    0.5269 C   0  0  0  0  0  0  0  0  0  0  0  0
    5.8881    3.3744    0.8877 O   0  0  0  0  0  0  0  0  0  0  0  0
    0.0036   -1.9058    1.2229 C   0  0  0  0  0  0  0  0  0  0  0  0
    1.4637   -1.6529    1.6138 C   0  0  0  0  0  0  0  0  0  0  0  0
   -0.1946   -3.3890    0.8924 C   0  0  0  0  0  0  0  0  0  0  0  0
   -4.9858   -0.9201    0.0047 C   0  0  0  0  0  0  0  0  0  0  0  0
   -6.3700   -0.7723    0.1532 C   0  0  0  0  0  0  0  0  0  0  0  0
   -9.9989    1.4858    0.4925 H   0  0  0  0  0  0  0  0  0  0  0  0
   -8.4552    2.3455    0.6258 H   0  0  0  0  0  0  0  0  0  0  0  0
   -8.7102    1.1850   -0.6865 H   0  0  0  0  0  0  0  0  0  0  0  0
   -8.8938   -0.6735    1.0067 H   0  0  0  0  0  0  0  0  0  0  0  0
   -8.6374    0.4756    2.3043 H   0  0  0  0  0  0  0  0  0  0  0  0
   -6.4002    1.5135    2.6677 H   0  0  0  0  0  0  0  0  0  0  0  0
   -3.9812    1.2575    2.4142 H   0  0  0  0  0  0  0  0  0  0  0  0
   -2.1903    0.3069    1.3679 H   0  0  0  0  0  0  0  0  0  0  0  0
   -0.1921    0.0715    0.4015 H   0  0  0  0  0  0  0  0  0  0  0  0
   -0.1640   -2.0456   -1.6975 H   0  0  0  0  0  0  0  0  0  0  0  0
    1.4687    2.2898   -0.6408 H   0  0  0  0  0  0  0  0  0  0  0  0
    3.6971    2.9691    0.1617 H   0  0  0  0  0  0  0  0  0  0  0  0
    3.1854   -1.1712   -2.5969 H   0  0  0  0  0  0  0  0  0  0  0  0
    5.8622   -1.5365   -1.2791 H   0  0  0  0  0  0  0  0  0  0  0  0
    6.0814   -0.6605   -2.8239 H   0  0  0  0  0  0  0  0  0  0  0  0
    7.4411   -0.1141   -0.3214 H   0  0  0  0  0  0  0  0  0  0  0  0
    7.5130    0.8630   -1.8011 H   0  0  0  0  0  0  0  0  0  0  0  0
    8.3601    3.3668    1.0982 H   0  0  0  0  0  0  0  0  0  0  0  0
    8.5596    2.5206   -0.4430 H   0  0  0  0  0  0  0  0  0  0  0  0
    8.3627    1.5939    1.0824 H   0  0  0  0  0  0  0  0  0  0  0  0
   -0.6108   -1.6883    2.1069 H   0  0  0  0  0  0  0  0  0  0  0  0
    1.7421   -2.2621    2.4806 H   0  0  0  0  0  0  0  0  0  0  0  0
    2.1496   -1.9011    0.7971 H   0  0  0  0  0  0  0  0  0  0  0  0
    1.6196   -0.6028    1.8827 H   0  0  0  0  0  0  0  0  0  0  0  0
    0.0867   -4.0119    1.7488 H   0  0  0  0  0  0  0  0  0  0  0  0
    0.4192   -3.7022    0.0417 H   0  0  0  0  0  0  0  0  0  0  0  0
   -1.2408   -3.6093    0.6601 H   0  0  0  0  0  0  0  0  0  0  0  0
   -4.6324   -1.6074   -0.7570 H   0  0  0  0  0  0  0  0  0  0  0  0
   -7.0319   -1.3423   -0.4956 H   0  0  0  0  0  0  0  0  0  0  0  0
  1  2  1  0
  2  3  1  0
  3  4  2  0
  4  5  1  0
  5  6  2  0
  6  7  1  0
  7  8  1  0
  8  9  2  0
  8 10  1  0
 10 11  1  0
 11 12  1  0
 12 13  2  0
 12 14  2  0
 12 15  1  0
 15 16  2  0
 16 17  1  0
 17 18  2  0
 18 19  1  0
 19 20  2  0
 19 21  1  0
 21 22  1  0
 22 23  1  0
 23 24  1  0
 24 25  1  0
 24 26  2  0
 10 27  1  0
 27 28  1  0
 27 29  1  0
  6 30  1  0
 30 31  2  0
 31  3  1  0
 20 15  1  0
 23 18  1  0
  1 32  1  0
  1 33  1  0
  1 34  1  0
  2 35  1  0
  2 36  1  0
  4 37  1  0
  5 38  1  0
  7 39  1  0
 10 40  1  0
 11 41  1  0
 16 42  1  0
 17 43  1  0
 20 44  1  0
 21 45  1  0
 21 46  1  0
 22 47  1  0
 22 48  1  0
 25 49  1  0
 25 50  1  0
 25 51  1  0
 27 52  1  0
 28 53  1  0
 28 54  1  0
 28 55  1  0
 29 56  1  0
 29 57  1  0
 29 58  1  0
 30 59  1  0
 31 60  1  0
M  END
$$$$
