
     RDKit          3D

 35 37  0  0  0  0  0  0  0  0999 V2000
   -0.8452   -0.9789   -0.7558 O   0  0  0  0  0  0  0  0  0  0  0  0
   -0.6483    0.0948   -1.3092 C   0  0  0  0  0  0  0  0  0  0  0  0
   -1.6361    1.2042   -1.4573 C   0  0  0  0  0  0  0  0  0  0  0  0
   -2.8748    1.2783   -0.9496 C   0  0  0  0  0  0  0  0  0  0  0  0
   -3.5238    0.2758   -0.1016 C   0  0  0  0  0  0  0  0  0  0  0  0
   -4.6424   -0.4145   -0.5873 C   0  0  0  0  0  0  0  0  0  0  0  0
   -5.2886   -1.3566    0.2155 C   0  0  0  0  0  0  0  0  0  0  0  0
   -4.8190   -1.5998    1.5009 C   0  0  0  0  0  0  0  0  0  0  0  0
   -5.4409   -2.5028    2.2703 F   0  0  0  0  0  0  0  0  0  0  0  0
   -3.7170   -0.9168    2.0012 C   0  0  0  0  0  0  0  0  0  0  0  0
   -3.0694    0.0263    1.2007 C   0  0  0  0  0  0  0  0  0  0  0  0
   -0.9668    2.4670   -2.4446 S   0  0  0  0  0  0  0  0  0  0  0  0
    0.5786    1.6416   -2.6519 C   0  0  0  0  0  0  0  0  0  0  0  0
    1.8204    2.2548   -3.5821 S   0  0  0  0  0  0  0  0  0  0  0  0
    0.5255    0.4561   -1.9506 N   0  0  0  0  0  0  0  0  0  0  0  0
    1.6220   -0.4403   -1.8955 N   0  0  0  0  0  0  0  0  0  0  0  0
    2.4342   -0.2206   -0.7413 C   0  0  0  0  0  0  0  0  0  0  0  0
    2.2689    0.9158   -0.0137 N   0  0  0  0  0  0  0  0  0  0  0  0
    3.0869    1.1246    1.0454 C   0  0  0  0  0  0  0  0  0  0  0  0
    4.0829    0.2464    1.4426 C   0  0  0  0  0  0  0  0  0  0  0  0
    4.9521    0.5752    2.6164 C   0  0  0  0  0  0  0  0  0  0  0  0
    5.4924   -0.5271    3.2042 F   0  0  0  0  0  0  0  0  0  0  0  0
    5.9998    1.3723    2.2763 F   0  0  0  0  0  0  0  0  0  0  0  0
    4.2830    1.2329    3.6025 F   0  0  0  0  0  0  0  0  0  0  0  0
    4.2561   -0.9154    0.6857 C   0  0  0  0  0  0  0  0  0  0  0  0
    3.4305   -1.1528   -0.4133 C   0  0  0  0  0  0  0  0  0  0  0  0
    3.6573   -2.6027   -1.3219 Cl  0  0  0  0  0  0  0  0  0  0  0  0
   -3.4995    2.1437   -1.1647 H   0  0  0  0  0  0  0  0  0  0  0  0
   -5.0145   -0.2298   -1.5924 H   0  0  0  0  0  0  0  0  0  0  0  0
   -6.1517   -1.9016   -0.1528 H   0  0  0  0  0  0  0  0  0  0  0  0
   -3.3672   -1.1240    3.0073 H   0  0  0  0  0  0  0  0  0  0  0  0
   -2.2063    0.5548    1.5985 H   0  0  0  0  0  0  0  0  0  0  0  0
    1.2826   -1.4061   -1.8501 H   0  0  0  0  0  0  0  0  0  0  0  0
    2.9063    2.0563    1.5796 H   0  0  0  0  0  0  0  0  0  0  0  0
    5.0322   -1.6312    0.9505 H   0  0  0  0  0  0  0  0  0  0  0  0
  1  2  2  0
  2  3  1  0
  3  4  2  3
  4  5  1  0
  5  6  2  0
  6  7  1  0
  7  8  2  0
  8  9  1  0
  8 10  1  0
 10 11  2  0
  3 12  1  0
 12 13  1  0
 13 14  2  0
 13 15  1  0
 15 16  1  0
 16 17  1  0
 17 18  2  0
 18 19  1  0
 19 20  2  0
 20 21  1  0
 21 22  1  0
 21 23  1  0
 21 24  1  0
 20 25  1  0
 25 26  2  0
 26 27  1  0
 15  2  1  0
 26 17  1  0
 11  5  1  0
  4 28  1  0
  6 29  1  0
  7 30  1  0
 10 31  1  0
 11 32  1  0
 16 33  1  0
 19 34  1  0
 25 35  1  0
M  END
$$$$
