
     RDKit          3D

 26 28  0  0  0  0  0  0  0  0999 V2000
   -4.0368    0.9177   -0.2073 C   0  0  0  0  0  0  0  0  0  0  0  0
   -2.6054    0.5640   -0.0981 C   0  0  0  0  0  0  0  0  0  0  0  0
   -1.7214    1.5656   -0.3605 O   0  0  0  0  0  0  0  0  0  0  0  0
   -0.4726    1.0511   -0.2118 C   0  0  0  0  0  0  0  0  0  0  0  0
    0.7131    1.7552   -0.3945 C   0  0  0  0  0  0  0  0  0  0  0  0
    1.8827    1.0214   -0.1884 C   0  0  0  0  0  0  0  0  0  0  0  0
    3.1010    1.7147   -0.3681 O   0  0  0  0  0  0  0  0  0  0  0  0
    4.3251    1.0859   -0.1903 C   0  0  0  0  0  0  0  0  0  0  0  0
    5.3926    1.6686   -0.3410 O   0  0  0  0  0  0  0  0  0  0  0  0
    4.2928   -0.3356    0.1939 C   0  0  0  0  0  0  0  0  0  0  0  0
    3.1505   -1.0069    0.3682 C   0  0  0  0  0  0  0  0  0  0  0  0
    1.8786   -0.3267    0.1762 C   0  0  0  0  0  0  0  0  0  0  0  0
    0.6590   -0.9987    0.3502 C   0  0  0  0  0  0  0  0  0  0  0  0
   -0.5443   -0.2893    0.1509 C   0  0  0  0  0  0  0  0  0  0  0  0
   -1.9369   -0.6043    0.2283 C   0  0  0  0  0  0  0  0  0  0  0  0
   -2.5353   -1.9157    0.5788 C   0  0  0  0  0  0  0  0  0  0  0  0
   -4.1708    1.8970   -0.6774 H   0  0  0  0  0  0  0  0  0  0  0  0
   -4.4963    0.9495    0.7852 H   0  0  0  0  0  0  0  0  0  0  0  0
   -4.5702    0.1776   -0.8118 H   0  0  0  0  0  0  0  0  0  0  0  0
    0.7198    2.7995   -0.6773 H   0  0  0  0  0  0  0  0  0  0  0  0
    5.2586   -0.8076    0.3277 H   0  0  0  0  0  0  0  0  0  0  0  0
    3.1542   -2.0538    0.6513 H   0  0  0  0  0  0  0  0  0  0  0  0
    0.6303   -2.0464    0.6333 H   0  0  0  0  0  0  0  0  0  0  0  0
   -3.6023   -1.8233    0.8043 H   0  0  0  0  0  0  0  0  0  0  0  0
   -2.0442   -2.3416    1.4597 H   0  0  0  0  0  0  0  0  0  0  0  0
   -2.4219   -2.6180   -0.2532 H   0  0  0  0  0  0  0  0  0  0  0  0
  1  2  1  0
  2  3  1  0
  3  4  1  0
  4  5  2  0
  5  6  1  0
  6  7  1  0
  7  8  1  0
  8  9  2  0
  8 10  1  0
 10 11  2  0
 11 12  1  0
 12 13  1  0
 13 14  2  0
 14 15  1  0
 15 16  1  0
 15  2  2  0
 14  4  1  0
 12  6  2  0
  1 17  1  0
  1 18  1  0
  1 19  1  0
  5 20  1  0
 10 21  1  0
 11 22  1  0
 13 23  1  0
 16 24  1  0
 16 25  1  0
 16 26  1  0
M  END
$$$$
