
     RDKit          3D

 36 37  0  0  0  0  0  0  0  0999 V2000
    6.3735    0.4801    1.8421 C   0  0  0  0  0  0  0  0  0  0  0  0
    5.0440    0.0646    1.5270 O   0  0  0  0  0  0  0  0  0  0  0  0
    4.5441    0.6287    0.3986 C   0  0  0  0  0  0  0  0  0  0  0  0
    5.1295    1.4232   -0.3205 O   0  0  0  0  0  0  0  0  0  0  0  0
    3.1598    0.1477    0.1382 C   0  0  0  0  0  0  0  0  0  0  0  0
    2.4932    0.6311   -0.9940 C   0  0  0  0  0  0  0  0  0  0  0  0
    1.1908    0.2108   -1.2829 C   0  0  0  0  0  0  0  0  0  0  0  0
    0.5240   -0.6945   -0.4430 C   0  0  0  0  0  0  0  0  0  0  0  0
   -0.8841   -1.1864   -0.7488 C   0  0  0  0  0  0  0  0  0  0  0  0
   -1.4968   -0.4065   -1.7827 O   0  0  0  0  0  0  0  0  0  0  0  0
   -2.9131   -0.5437   -1.7371 C   0  0  0  0  0  0  0  0  0  0  0  0
   -3.4446    0.1235   -0.4572 C   0  0  0  0  0  0  0  0  0  0  0  0
   -4.7552   -0.5627   -0.0423 C   0  0  0  0  0  0  0  0  0  0  0  0
   -3.7194    1.6161   -0.6972 C   0  0  0  0  0  0  0  0  0  0  0  0
   -2.3825   -0.0184    0.6467 C   0  0  0  0  0  0  0  0  0  0  0  0
   -1.6639   -1.2344    0.4554 O   0  0  0  0  0  0  0  0  0  0  0  0
    1.2066   -1.1824    0.6849 C   0  0  0  0  0  0  0  0  0  0  0  0
    2.5092   -0.7642    0.9772 C   0  0  0  0  0  0  0  0  0  0  0  0
    6.6782   -0.0284    2.7610 H   0  0  0  0  0  0  0  0  0  0  0  0
    7.0644    0.1942    1.0428 H   0  0  0  0  0  0  0  0  0  0  0  0
    6.4066    1.5601    2.0167 H   0  0  0  0  0  0  0  0  0  0  0  0
    2.9846    1.3379   -1.6604 H   0  0  0  0  0  0  0  0  0  0  0  0
    0.6992    0.6002   -2.1730 H   0  0  0  0  0  0  0  0  0  0  0  0
   -0.7957   -2.2154   -1.1182 H   0  0  0  0  0  0  0  0  0  0  0  0
   -3.1683   -1.6101   -1.7903 H   0  0  0  0  0  0  0  0  0  0  0  0
   -3.3312   -0.0729   -2.6335 H   0  0  0  0  0  0  0  0  0  0  0  0
   -5.1806   -0.0959    0.8532 H   0  0  0  0  0  0  0  0  0  0  0  0
   -4.5942   -1.6232    0.1818 H   0  0  0  0  0  0  0  0  0  0  0  0
   -5.5040   -0.4986   -0.8398 H   0  0  0  0  0  0  0  0  0  0  0  0
   -4.4926    1.7589   -1.4605 H   0  0  0  0  0  0  0  0  0  0  0  0
   -2.8171    2.1358   -1.0386 H   0  0  0  0  0  0  0  0  0  0  0  0
   -4.0618    2.1070    0.2208 H   0  0  0  0  0  0  0  0  0  0  0  0
   -2.8445   -0.0498    1.6396 H   0  0  0  0  0  0  0  0  0  0  0  0
   -1.6752    0.8207    0.6555 H   0  0  0  0  0  0  0  0  0  0  0  0
    0.7167   -1.8929    1.3497 H   0  0  0  0  0  0  0  0  0  0  0  0
    3.0002   -1.1600    1.8626 H   0  0  0  0  0  0  0  0  0  0  0  0
  1  2  1  0
  2  3  1  0
  3  4  2  0
  3  5  1  0
  5  6  2  0
  6  7  1  0
  7  8  2  0
  8  9  1  0
  9 10  1  0
 10 11  1  0
 11 12  1  0
 12 13  1  0
 12 14  1  0
 12 15  1  0
 15 16  1  0
  8 17  1  0
 17 18  2  0
 18  5  1  0
 16  9  1  0
  1 19  1  0
  1 20  1  0
  1 21  1  0
  6 22  1  0
  7 23  1  0
  9 24  1  0
 11 25  1  0
 11 26  1  0
 13 27  1  0
 13 28  1  0
 13 29  1  0
 14 30  1  0
 14 31  1  0
 14 32  1  0
 15 33  1  0
 15 34  1  0
 17 35  1  0
 18 36  1  0
M  END
$$$$
