
     RDKit          3D

 49 51  0  0  0  0  0  0  0  0999 V2000
    0.8101    1.9455    0.8553 C   0  0  0  0  0  0  0  0  0  0  0  0
   -0.0821    1.1591   -0.0672 C   0  0  0  0  0  0  0  0  0  0  0  0
   -1.4165    1.5555   -0.2450 C   0  0  0  0  0  0  0  0  0  0  0  0
   -2.2479    0.8303   -1.1002 C   0  0  0  0  0  0  0  0  0  0  0  0
   -3.9391    1.3192   -1.3351 S   0  0  0  0  0  6  0  0  0  0  0  0
   -4.1681    1.3775   -2.7625 O   0  0  0  0  0  0  0  0  0  0  0  0
   -4.2081    2.4594   -0.4862 O   0  0  0  0  0  0  0  0  0  0  0  0
   -4.7966   -0.0118   -0.7106 N   0  0  0  0  0  0  0  0  0  0  0  0
   -4.6783   -0.2692    0.7600 C   0  0  0  0  0  0  0  0  0  0  0  0
   -5.6665    0.5748    1.5758 C   0  0  0  0  0  0  0  0  0  0  0  0
   -7.0134    0.3982    1.1158 O   0  0  0  0  0  0  0  0  0  0  0  0
   -7.1264    0.7778   -0.2637 C   0  0  0  0  0  0  0  0  0  0  0  0
   -6.2284   -0.0996   -1.1390 C   0  0  0  0  0  0  0  0  0  0  0  0
   -1.7635   -0.2795   -1.7936 C   0  0  0  0  0  0  0  0  0  0  0  0
   -0.4354   -0.6766   -1.6211 C   0  0  0  0  0  0  0  0  0  0  0  0
    0.4094    0.0352   -0.7616 C   0  0  0  0  0  0  0  0  0  0  0  0
    1.7226   -0.2727   -0.5244 O   0  0  0  0  0  0  0  0  0  0  0  0
    2.2828   -1.3765   -1.2317 C   0  0  0  0  0  0  0  0  0  0  0  0
    3.7595   -1.5646   -0.8687 C   0  0  0  0  0  0  0  0  0  0  0  0
    4.4087   -2.4921   -1.3445 O   0  0  0  0  0  0  0  0  0  0  0  0
    4.2273   -0.6057    0.0073 N   0  0  0  0  0  0  0  0  0  0  0  0
    5.5193   -0.4664    0.5474 C   0  0  0  0  0  0  0  0  0  0  0  0
    6.5870   -1.3175    0.2620 C   0  0  0  0  0  0  0  0  0  0  0  0
    7.8390   -1.0965    0.8501 C   0  0  0  0  0  0  0  0  0  0  0  0
    8.0237   -0.0244    1.7237 C   0  0  0  0  0  0  0  0  0  0  0  0
    9.7171    0.2638    2.5113 Br  0  0  0  0  0  0  0  0  0  0  0  0
    6.9702    0.8333    2.0188 C   0  0  0  0  0  0  0  0  0  0  0  0
    5.7318    0.6034    1.4286 C   0  0  0  0  0  0  0  0  0  0  0  0
    4.7148    1.4328    1.7156 F   0  0  0  0  0  0  0  0  0  0  0  0
    1.6513    2.3696    0.2974 H   0  0  0  0  0  0  0  0  0  0  0  0
    0.2713    2.7741    1.3268 H   0  0  0  0  0  0  0  0  0  0  0  0
    1.1914    1.3013    1.6543 H   0  0  0  0  0  0  0  0  0  0  0  0
   -1.8009    2.4283    0.2796 H   0  0  0  0  0  0  0  0  0  0  0  0
   -4.8973   -1.3335    0.9128 H   0  0  0  0  0  0  0  0  0  0  0  0
   -3.6546   -0.1075    1.1086 H   0  0  0  0  0  0  0  0  0  0  0  0
   -5.4189    1.6405    1.5541 H   0  0  0  0  0  0  0  0  0  0  0  0
   -5.6351    0.2589    2.6237 H   0  0  0  0  0  0  0  0  0  0  0  0
   -8.1723    0.6417   -0.5562 H   0  0  0  0  0  0  0  0  0  0  0  0
   -6.8887    1.8421   -0.3682 H   0  0  0  0  0  0  0  0  0  0  0  0
   -6.3390    0.1602   -2.1960 H   0  0  0  0  0  0  0  0  0  0  0  0
   -6.5291   -1.1501   -1.0397 H   0  0  0  0  0  0  0  0  0  0  0  0
   -2.4138   -0.8335   -2.4678 H   0  0  0  0  0  0  0  0  0  0  0  0
   -0.0942   -1.5447   -2.1764 H   0  0  0  0  0  0  0  0  0  0  0  0
    1.7639   -2.3021   -0.9577 H   0  0  0  0  0  0  0  0  0  0  0  0
    2.2376   -1.1980   -2.3120 H   0  0  0  0  0  0  0  0  0  0  0  0
    3.5418    0.0890    0.3017 H   0  0  0  0  0  0  0  0  0  0  0  0
    6.4808   -2.1613   -0.4132 H   0  0  0  0  0  0  0  0  0  0  0  0
    8.6609   -1.7696    0.6165 H   0  0  0  0  0  0  0  0  0  0  0  0
    7.0923    1.6726    2.6950 H   0  0  0  0  0  0  0  0  0  0  0  0
  1  2  1  0
  2  3  2  0
  3  4  1  0
  4  5  1  0
  5  6  2  0
  5  7  2  0
  5  8  1  0
  8  9  1  0
  9 10  1  0
 10 11  1  0
 11 12  1  0
 12 13  1  0
  4 14  2  0
 14 15  1  0
 15 16  2  0
 16 17  1  0
 17 18  1  0
 18 19  1  0
 19 20  2  0
 19 21  1  0
 21 22  1  0
 22 23  2  0
 23 24  1  0
 24 25  2  0
 25 26  1  0
 25 27  1  0
 27 28  2  0
 28 29  1  0
 16  2  1  0
 28 22  1  0
 13  8  1  0
  1 30  1  0
  1 31  1  0
  1 32  1  0
  3 33  1  0
  9 34  1  0
  9 35  1  0
 10 36  1  0
 10 37  1  0
 12 38  1  0
 12 39  1  0
 13 40  1  0
 13 41  1  0
 14 42  1  0
 15 43  1  0
 18 44  1  0
 18 45  1  0
 21 46  1  0
 23 47  1  0
 24 48  1  0
 27 49  1  0
M  END
$$$$
