
     RDKit          3D

 44 47  0  0  0  0  0  0  0  0999 V2000
   -1.9810    4.7810   -1.0167 C   0  0  0  0  0  0  0  0  0  0  0  0
   -2.0000    3.4134   -0.5176 N   0  0  0  0  0  0  0  0  0  0  0  0
   -3.1813    2.8609   -0.0611 C   0  0  0  0  0  0  0  0  0  0  0  0
   -4.2454    3.4782   -0.0539 O   0  0  0  0  0  0  0  0  0  0  0  0
   -3.1446    1.4502    0.4334 C   0  0  0  0  0  0  0  0  0  0  0  0
   -4.3912    0.9008    0.8647 C   0  0  0  0  0  0  0  0  0  0  0  0
   -5.3791    0.4091    1.2256 N   0  0  0  0  0  0  0  0  0  0  0  0
   -1.9908    0.7442    0.4564 C   0  0  0  0  0  0  0  0  0  0  0  0
   -2.0186   -0.6623    0.9317 C   0  0  0  0  0  0  0  0  0  0  0  0
   -1.8669   -0.9520    2.2959 C   0  0  0  0  0  0  0  0  0  0  0  0
   -1.8614   -2.2785    2.7308 C   0  0  0  0  0  0  0  0  0  0  0  0
   -2.0044   -3.3063    1.8054 C   0  0  0  0  0  0  0  0  0  0  0  0
   -1.9909   -4.5776    2.2250 F   0  0  0  0  0  0  0  0  0  0  0  0
   -2.1558   -3.0348    0.4504 C   0  0  0  0  0  0  0  0  0  0  0  0
   -2.1646   -1.7107    0.0096 C   0  0  0  0  0  0  0  0  0  0  0  0
   -0.7522    1.4027   -0.0211 C   0  0  0  0  0  0  0  0  0  0  0  0
    0.4842    0.7350   -0.0077 C   0  0  0  0  0  0  0  0  0  0  0  0
    1.6271    1.3625   -0.5037 C   0  0  0  0  0  0  0  0  0  0  0  0
    2.9561    0.7170   -0.5242 C   0  0  0  0  0  0  0  0  0  0  0  0
    3.9578    1.4108   -0.3598 O   0  0  0  0  0  0  0  0  0  0  0  0
    3.1368   -0.7464   -0.7015 C   0  0  0  0  0  0  0  0  0  0  0  0
    2.2521   -1.4900   -1.4933 C   0  0  0  0  0  0  0  0  0  0  0  0
    2.4217   -2.8691   -1.6134 C   0  0  0  0  0  0  0  0  0  0  0  0
    1.3048   -3.7762   -2.5566 Cl  0  0  0  0  0  0  0  0  0  0  0  0
    3.4753   -3.5167   -0.9752 C   0  0  0  0  0  0  0  0  0  0  0  0
    4.3810   -2.7739   -0.2169 C   0  0  0  0  0  0  0  0  0  0  0  0
    5.6874   -3.6087    0.5423 Cl  0  0  0  0  0  0  0  0  0  0  0  0
    4.2248   -1.3883   -0.0863 C   0  0  0  0  0  0  0  0  0  0  0  0
    5.1444   -0.6873    0.6530 O   0  0  0  0  0  0  0  0  0  0  0  0
    1.5041    2.6665   -0.9487 C   0  0  0  0  0  0  0  0  0  0  0  0
    0.3301    3.3415   -0.9660 N   0  0  0  0  0  0  0  0  0  0  0  0
   -0.7783    2.7105   -0.5068 C   0  0  0  0  0  0  0  0  0  0  0  0
   -1.3152    5.3862   -0.3928 H   0  0  0  0  0  0  0  0  0  0  0  0
   -2.9756    5.2351   -0.9922 H   0  0  0  0  0  0  0  0  0  0  0  0
   -1.6314    4.7856   -2.0543 H   0  0  0  0  0  0  0  0  0  0  0  0
   -1.7539   -0.1548    3.0278 H   0  0  0  0  0  0  0  0  0  0  0  0
   -1.7500   -2.5179    3.7841 H   0  0  0  0  0  0  0  0  0  0  0  0
   -2.2707   -3.8560   -0.2510 H   0  0  0  0  0  0  0  0  0  0  0  0
   -2.2883   -1.5082   -1.0523 H   0  0  0  0  0  0  0  0  0  0  0  0
    0.5579   -0.2680    0.4048 H   0  0  0  0  0  0  0  0  0  0  0  0
    1.4356   -1.0117   -2.0281 H   0  0  0  0  0  0  0  0  0  0  0  0
    3.5985   -4.5925   -1.0736 H   0  0  0  0  0  0  0  0  0  0  0  0
    5.0508    0.2708    0.4521 H   0  0  0  0  0  0  0  0  0  0  0  0
    2.3612    3.2256   -1.3183 H   0  0  0  0  0  0  0  0  0  0  0  0
  1  2  1  0
  2  3  1  0
  3  4  2  0
  3  5  1  0
  5  6  1  0
  6  7  3  0
  5  8  2  0
  8  9  1  0
  9 10  2  0
 10 11  1  0
 11 12  2  0
 12 13  1  0
 12 14  1  0
 14 15  2  0
  8 16  1  0
 16 17  2  0
 17 18  1  0
 18 19  1  0
 19 20  2  0
 19 21  1  0
 21 22  2  0
 22 23  1  0
 23 24  1  0
 23 25  2  0
 25 26  1  0
 26 27  1  0
 26 28  2  0
 28 29  1  0
 18 30  2  0
 30 31  1  0
 31 32  2  0
 32  2  1  0
 15  9  1  0
 32 16  1  0
 28 21  1  0
  1 33  1  0
  1 34  1  0
  1 35  1  0
 10 36  1  0
 11 37  1  0
 14 38  1  0
 15 39  1  0
 17 40  1  0
 22 41  1  0
 25 42  1  0
 29 43  1  0
 30 44  1  0
M  END
$$$$
