
     RDKit          3D

 43 45  0  0  0  0  0  0  0  0999 V2000
   -7.7628   -0.3851    0.7970 C   0  0  0  0  0  0  0  0  0  0  0  0
   -6.8037   -0.0007   -0.2370 N   0  0  0  0  0  0  0  0  0  0  0  0
   -7.3035   -0.0457   -1.6099 C   0  0  0  0  0  0  0  0  0  0  0  0
   -5.4379   -0.2006   -0.0035 C   0  0  0  0  0  0  0  0  0  0  0  0
   -4.9253   -0.4348    1.2841 C   0  0  0  0  0  0  0  0  0  0  0  0
   -3.5542   -0.6182    1.5267 C   0  0  0  0  0  0  0  0  0  0  0  0
   -2.6301   -0.5518    0.4854 C   0  0  0  0  0  0  0  0  0  0  0  0
   -1.2070   -0.7772    0.7734 C   0  0  0  0  0  0  0  0  0  0  0  0
   -0.2059   -0.1218    0.1640 C   0  0  0  0  0  0  0  0  0  0  0  0
    1.1892   -0.3636    0.4788 C   0  0  0  0  0  0  0  0  0  0  0  0
    2.2514    0.2395   -0.0754 C   0  0  0  0  0  0  0  0  0  0  0  0
    2.2599    1.4471   -1.2868 S   0  0  0  0  0  0  0  0  0  0  0  0
    4.0225    1.4851   -1.3738 C   0  0  0  0  0  0  0  0  0  0  0  0
    4.7635    2.3658   -2.5912 S   0  0  0  0  0  0  0  0  0  0  0  0
    4.5645    0.6544   -0.3976 N   0  0  0  0  0  0  0  0  0  0  0  0
    5.9683    0.5179   -0.1295 C   0  0  0  0  0  0  0  0  0  0  0  0
    6.5233   -0.7381    0.1662 C   0  0  0  0  0  0  0  0  0  0  0  0
    7.8879   -0.8821    0.4368 C   0  0  0  0  0  0  0  0  0  0  0  0
    8.7223    0.2304    0.4279 C   0  0  0  0  0  0  0  0  0  0  0  0
    8.1906    1.4866    0.1568 C   0  0  0  0  0  0  0  0  0  0  0  0
    6.8252    1.6292   -0.1142 C   0  0  0  0  0  0  0  0  0  0  0  0
    3.6434   -0.0926    0.3387 C   0  0  0  0  0  0  0  0  0  0  0  0
    3.8687   -0.8990    1.2343 O   0  0  0  0  0  0  0  0  0  0  0  0
   -3.1109   -0.3209   -0.8025 C   0  0  0  0  0  0  0  0  0  0  0  0
   -4.4844   -0.1398   -1.0343 C   0  0  0  0  0  0  0  0  0  0  0  0
   -7.6158    0.1997    1.7114 H   0  0  0  0  0  0  0  0  0  0  0  0
   -8.7924   -0.1876    0.4780 H   0  0  0  0  0  0  0  0  0  0  0  0
   -7.6878   -1.4538    1.0264 H   0  0  0  0  0  0  0  0  0  0  0  0
   -6.8546    0.7441   -2.2217 H   0  0  0  0  0  0  0  0  0  0  0  0
   -8.3851    0.1275   -1.6449 H   0  0  0  0  0  0  0  0  0  0  0  0
   -7.1104   -1.0222   -2.0676 H   0  0  0  0  0  0  0  0  0  0  0  0
   -5.5817   -0.4785    2.1475 H   0  0  0  0  0  0  0  0  0  0  0  0
   -3.2246   -0.7991    2.5472 H   0  0  0  0  0  0  0  0  0  0  0  0
   -0.9992   -1.5131    1.5471 H   0  0  0  0  0  0  0  0  0  0  0  0
   -0.4333    0.6319   -0.5865 H   0  0  0  0  0  0  0  0  0  0  0  0
    1.3726   -1.1157    1.2478 H   0  0  0  0  0  0  0  0  0  0  0  0
    5.9104   -1.6370    0.1691 H   0  0  0  0  0  0  0  0  0  0  0  0
    8.2950   -1.8665    0.6546 H   0  0  0  0  0  0  0  0  0  0  0  0
    9.7825    0.1197    0.6401 H   0  0  0  0  0  0  0  0  0  0  0  0
    8.8351    2.3624    0.1655 H   0  0  0  0  0  0  0  0  0  0  0  0
    6.4498    2.6374   -0.2675 H   0  0  0  0  0  0  0  0  0  0  0  0
   -2.4330   -0.2837   -1.6515 H   0  0  0  0  0  0  0  0  0  0  0  0
   -4.7823    0.0502   -2.0608 H   0  0  0  0  0  0  0  0  0  0  0  0
  1  2  1  0
  2  3  1  0
  2  4  1  0
  4  5  2  0
  5  6  1  0
  6  7  2  0
  7  8  1  0
  8  9  2  3
  9 10  1  0
 10 11  2  3
 11 12  1  0
 12 13  1  0
 13 14  2  0
 13 15  1  0
 15 16  1  0
 16 17  2  0
 17 18  1  0
 18 19  2  0
 19 20  1  0
 20 21  2  0
 15 22  1  0
 22 23  2  0
  7 24  1  0
 24 25  2  0
 25  4  1  0
 22 11  1  0
 21 16  1  0
  1 26  1  0
  1 27  1  0
  1 28  1  0
  3 29  1  0
  3 30  1  0
  3 31  1  0
  5 32  1  0
  6 33  1  0
  8 34  1  0
  9 35  1  0
 10 36  1  0
 17 37  1  0
 18 38  1  0
 19 39  1  0
 20 40  1  0
 21 41  1  0
 24 42  1  0
 25 43  1  0
M  END
$$$$
