
     RDKit          3D

 68 71  0  0  0  0  0  0  0  0999 V2000
    5.0504    7.2129    2.0121 C   0  0  0  0  0  0  0  0  0  0  0  0
    5.2071    5.7551    1.8809 C   0  0  0  0  0  0  0  0  0  0  0  0
    4.5098    4.7696    1.2280 C   0  0  0  0  0  0  0  0  0  0  0  0
    5.2100    3.5807    1.5270 C   0  0  0  0  0  0  0  0  0  0  0  0
    4.9520    2.2878    1.1297 N   0  0  0  0  0  0  0  0  0  0  0  0
    3.9117    1.8991    0.3195 C   0  0  0  0  0  0  0  0  0  0  0  0
    3.0875    2.6464   -0.1991 O   0  0  0  0  0  0  0  0  0  0  0  0
    3.9216    0.4073    0.0322 C   0  0  0  0  0  0  0  0  0  0  0  0
    2.5084   -0.1271   -0.1933 C   0  0  0  0  0  0  0  0  0  0  0  0
    1.7578   -0.2868    1.1206 C   0  0  0  0  0  0  0  0  0  0  0  0
    2.3279   -0.0454    2.1874 O   0  0  0  0  0  0  0  0  0  0  0  0
    0.4514   -0.7569    1.0681 N   0  0  0  0  0  0  0  0  0  0  0  0
   -0.2846   -0.8266    2.3354 C   0  0  0  0  0  0  0  0  0  0  0  0
   -0.1137   -2.1676    2.9601 C   0  0  0  0  0  0  0  0  0  0  0  0
    0.9803   -2.8740    3.4186 C   0  0  0  0  0  0  0  0  0  0  0  0
    0.4876   -4.1076    3.9053 C   0  0  0  0  0  0  0  0  0  0  0  0
   -0.8746   -4.0729    3.7248 C   0  0  0  0  0  0  0  0  0  0  0  0
   -1.2509   -2.8958    3.1646 O   0  0  0  0  0  0  0  0  0  0  0  0
   -0.3098   -0.9581   -0.1838 C   0  0  0  0  0  0  0  0  0  0  0  0
   -1.2508    0.2424   -0.5012 C   0  0  0  0  0  0  0  0  0  0  0  0
   -1.4469    1.1749    0.2756 O   0  0  0  0  0  0  0  0  0  0  0  0
   -1.8380    0.1861   -1.7578 N   0  0  0  0  0  0  0  0  0  0  0  0
   -2.8186    1.1783   -2.1901 C   0  0  0  0  0  0  0  0  0  0  0  0
   -2.9161    1.1952   -3.7175 C   0  0  0  0  0  0  0  0  0  0  0  0
   -3.5055   -0.0945   -4.2983 C   0  0  0  0  0  0  0  0  0  0  0  0
   -4.5049   -0.7876   -3.3718 C   0  0  0  0  0  0  0  0  0  0  0  0
   -5.1909    0.1979   -2.4386 C   0  0  0  0  0  0  0  0  0  0  0  0
   -4.1950    0.9381   -1.5409 C   0  0  0  0  0  0  0  0  0  0  0  0
   -0.9926   -2.3216   -0.2573 C   0  0  0  0  0  0  0  0  0  0  0  0
   -2.3465   -2.5059    0.0669 C   0  0  0  0  0  0  0  0  0  0  0  0
   -2.9357   -3.7684   -0.0252 C   0  0  0  0  0  0  0  0  0  0  0  0
   -2.1796   -4.8655   -0.4310 C   0  0  0  0  0  0  0  0  0  0  0  0
   -0.8307   -4.7047   -0.7363 C   0  0  0  0  0  0  0  0  0  0  0  0
   -0.2394   -3.4435   -0.6462 C   0  0  0  0  0  0  0  0  0  0  0  0
    6.2653    3.8319    2.3111 N   0  0  0  0  0  0  0  0  0  0  0  0
    6.2621    5.1969    2.5309 O   0  0  0  0  0  0  0  0  0  0  0  0
    5.9681    7.7270    1.7097 H   0  0  0  0  0  0  0  0  0  0  0  0
    4.8285    7.4820    3.0492 H   0  0  0  0  0  0  0  0  0  0  0  0
    4.2334    7.5787    1.3819 H   0  0  0  0  0  0  0  0  0  0  0  0
    3.6206    4.8949    0.6284 H   0  0  0  0  0  0  0  0  0  0  0  0
    5.5818    1.6057    1.5280 H   0  0  0  0  0  0  0  0  0  0  0  0
    4.5107    0.2686   -0.8822 H   0  0  0  0  0  0  0  0  0  0  0  0
    4.4285   -0.1409    0.8343 H   0  0  0  0  0  0  0  0  0  0  0  0
    2.5860   -1.1184   -0.6546 H   0  0  0  0  0  0  0  0  0  0  0  0
    1.9471    0.5360   -0.8589 H   0  0  0  0  0  0  0  0  0  0  0  0
   -1.3435   -0.6065    2.1678 H   0  0  0  0  0  0  0  0  0  0  0  0
    0.0863   -0.0611    3.0266 H   0  0  0  0  0  0  0  0  0  0  0  0
    2.0058   -2.5309    3.3976 H   0  0  0  0  0  0  0  0  0  0  0  0
    1.0532   -4.9205    4.3360 H   0  0  0  0  0  0  0  0  0  0  0  0
   -1.6766   -4.7665    3.9338 H   0  0  0  0  0  0  0  0  0  0  0  0
    0.3921   -0.9480   -1.0242 H   0  0  0  0  0  0  0  0  0  0  0  0
   -1.8291   -0.7081   -2.2347 H   0  0  0  0  0  0  0  0  0  0  0  0
   -2.4459    2.1525   -1.8497 H   0  0  0  0  0  0  0  0  0  0  0  0
   -3.5522    2.0382   -4.0175 H   0  0  0  0  0  0  0  0  0  0  0  0
   -1.9322    1.3766   -4.1668 H   0  0  0  0  0  0  0  0  0  0  0  0
   -2.7001   -0.7992   -4.5382 H   0  0  0  0  0  0  0  0  0  0  0  0
   -3.9909    0.1438   -5.2527 H   0  0  0  0  0  0  0  0  0  0  0  0
   -5.2502   -1.3224   -3.9715 H   0  0  0  0  0  0  0  0  0  0  0  0
   -3.9872   -1.5490   -2.7755 H   0  0  0  0  0  0  0  0  0  0  0  0
   -5.7500    0.9282   -3.0375 H   0  0  0  0  0  0  0  0  0  0  0  0
   -5.9287   -0.3209   -1.8159 H   0  0  0  0  0  0  0  0  0  0  0  0
   -4.6402    1.9064   -1.2790 H   0  0  0  0  0  0  0  0  0  0  0  0
   -4.0868    0.3935   -0.5955 H   0  0  0  0  0  0  0  0  0  0  0  0
   -2.9575   -1.6752    0.4147 H   0  0  0  0  0  0  0  0  0  0  0  0
   -3.9832   -3.8973    0.2360 H   0  0  0  0  0  0  0  0  0  0  0  0
   -2.6384   -5.8489   -0.4932 H   0  0  0  0  0  0  0  0  0  0  0  0
   -0.2356   -5.5643   -1.0348 H   0  0  0  0  0  0  0  0  0  0  0  0
    0.8200   -3.3440   -0.8724 H   0  0  0  0  0  0  0  0  0  0  0  0
  1  2  1  0
  2  3  2  0
  3  4  1  0
  4  5  1  0
  5  6  1  0
  6  7  2  0
  6  8  1  0
  8  9  1  0
  9 10  1  0
 10 11  2  0
 10 12  1  0
 12 13  1  0
 13 14  1  0
 14 15  2  0
 15 16  1  0
 16 17  2  0
 17 18  1  0
 12 19  1  0
 19 20  1  0
 20 21  2  0
 20 22  1  0
 22 23  1  0
 23 24  1  0
 24 25  1  0
 25 26  1  0
 26 27  1  0
 27 28  1  0
 19 29  1  0
 29 30  2  0
 30 31  1  0
 31 32  2  0
 32 33  1  0
 33 34  2  0
  4 35  2  0
 35 36  1  0
 36  2  1  0
 18 14  1  0
 28 23  1  0
 34 29  1  0
  1 37  1  0
  1 38  1  0
  1 39  1  0
  3 40  1  0
  5 41  1  0
  8 42  1  0
  8 43  1  0
  9 44  1  0
  9 45  1  0
 13 46  1  0
 13 47  1  0
 15 48  1  0
 16 49  1  0
 17 50  1  0
 19 51  1  0
 22 52  1  0
 23 53  1  0
 24 54  1  0
 24 55  1  0
 25 56  1  0
 25 57  1  0
 26 58  1  0
 26 59  1  0
 27 60  1  0
 27 61  1  0
 28 62  1  0
 28 63  1  0
 30 64  1  0
 31 65  1  0
 32 66  1  0
 33 67  1  0
 34 68  1  0
M  END
$$$$
