
     RDKit          3D

 47 49  0  0  0  0  0  0  0  0999 V2000
   -3.8819    2.5712    1.5913 C   0  0  0  0  0  0  0  0  0  0  0  0
   -2.7744    1.6920    1.0347 C   0  0  0  0  0  0  0  0  0  0  0  0
   -3.1606    0.2741    1.0281 N   0  0  0  0  0  4  0  0  0  0  0  0
   -2.8660   -0.5642    2.0139 C   0  0  0  0  0  0  0  0  0  0  0  0
   -2.1281   -0.2981    3.1926 C   0  0  0  0  0  0  0  0  0  0  0  0
   -0.7951   -0.1328    3.2157 C   0  0  0  0  0  0  0  0  0  0  0  0
    0.1124   -0.1988    2.0881 C   0  0  0  0  0  0  0  0  0  0  0  0
    1.4140    0.1123    2.1904 C   0  0  0  0  0  0  0  0  0  0  0  0
    2.3327    0.0793    1.0460 C   0  0  0  0  0  0  0  0  0  0  0  0
    2.3616   -0.9795    0.1398 C   0  0  0  0  0  0  0  0  0  0  0  0
    3.2596   -0.9719   -0.9395 C   0  0  0  0  0  0  0  0  0  0  0  0
    4.1762    0.0731   -1.1511 C   0  0  0  0  0  0  0  0  0  0  0  0
    5.0501    0.0878   -2.2439 N   0  0  0  0  0  0  0  0  0  0  0  0
    5.2759   -1.1514   -2.9890 C   0  0  0  0  0  0  0  0  0  0  0  0
    6.1752    1.0247   -2.2402 C   0  0  0  0  0  0  0  0  0  0  0  0
    4.1279    1.1225   -0.2172 C   0  0  0  0  0  0  0  0  0  0  0  0
    3.2357    1.1251    0.8666 C   0  0  0  0  0  0  0  0  0  0  0  0
   -3.5382   -2.1156    1.7278 S   0  0  0  0  0  0  0  0  0  0  0  0
   -4.1917   -1.6295    0.2138 C   0  0  0  0  0  0  0  0  0  0  0  0
   -4.9276   -2.3904   -0.7077 C   0  0  0  0  0  0  0  0  0  0  0  0
   -5.3662   -1.7654   -1.8772 C   0  0  0  0  0  0  0  0  0  0  0  0
   -5.0811   -0.4261   -2.1212 C   0  0  0  0  0  0  0  0  0  0  0  0
   -4.3483    0.3293   -1.1971 C   0  0  0  0  0  0  0  0  0  0  0  0
   -3.8944   -0.2875   -0.0127 C   0  0  0  0  0  0  0  0  0  0  0  0
   -3.5747    3.6211    1.5842 H   0  0  0  0  0  0  0  0  0  0  0  0
   -4.7977    2.4789    0.9986 H   0  0  0  0  0  0  0  0  0  0  0  0
   -4.1236    2.2915    2.6214 H   0  0  0  0  0  0  0  0  0  0  0  0
   -2.5178    2.0018    0.0154 H   0  0  0  0  0  0  0  0  0  0  0  0
   -1.8647    1.8453    1.6202 H   0  0  0  0  0  0  0  0  0  0  0  0
   -2.6737   -0.2761    4.1349 H   0  0  0  0  0  0  0  0  0  0  0  0
   -0.3303    0.0551    4.1866 H   0  0  0  0  0  0  0  0  0  0  0  0
   -0.2774   -0.5100    1.1220 H   0  0  0  0  0  0  0  0  0  0  0  0
    1.8493    0.4446    3.1310 H   0  0  0  0  0  0  0  0  0  0  0  0
    1.7003   -1.8341    0.2571 H   0  0  0  0  0  0  0  0  0  0  0  0
    3.2214   -1.8229   -1.6130 H   0  0  0  0  0  0  0  0  0  0  0  0
    4.3522   -1.5014   -3.4630 H   0  0  0  0  0  0  0  0  0  0  0  0
    5.6780   -1.9354   -2.3378 H   0  0  0  0  0  0  0  0  0  0  0  0
    5.9924   -1.0003   -3.8051 H   0  0  0  0  0  0  0  0  0  0  0  0
    6.8381    0.8406   -1.3876 H   0  0  0  0  0  0  0  0  0  0  0  0
    6.7740    0.9294   -3.1528 H   0  0  0  0  0  0  0  0  0  0  0  0
    5.8267    2.0626   -2.2200 H   0  0  0  0  0  0  0  0  0  0  0  0
    4.7905    1.9783   -0.3050 H   0  0  0  0  0  0  0  0  0  0  0  0
    3.2582    1.9659    1.5562 H   0  0  0  0  0  0  0  0  0  0  0  0
   -5.1581   -3.4371   -0.5215 H   0  0  0  0  0  0  0  0  0  0  0  0
   -5.9401   -2.3369   -2.6073 H   0  0  0  0  0  0  0  0  0  0  0  0
   -5.4366    0.0376   -3.0415 H   0  0  0  0  0  0  0  0  0  0  0  0
   -4.1541    1.3735   -1.4250 H   0  0  0  0  0  0  0  0  0  0  0  0
  1  2  1  0
  2  3  1  0
  3  4  2  0
  4  5  1  0
  5  6  2  3
  6  7  1  0
  7  8  2  3
  8  9  1  0
  9 10  2  0
 10 11  1  0
 11 12  2  0
 12 13  1  0
 13 14  1  0
 13 15  1  0
 12 16  1  0
 16 17  2  0
  4 18  1  0
 18 19  1  0
 19 20  2  0
 20 21  1  0
 21 22  2  0
 22 23  1  0
 23 24  2  0
 24  3  1  0
 17  9  1  0
 24 19  1  0
  1 25  1  0
  1 26  1  0
  1 27  1  0
  2 28  1  0
  2 29  1  0
  5 30  1  0
  6 31  1  0
  7 32  1  0
  8 33  1  0
 10 34  1  0
 11 35  1  0
 14 36  1  0
 14 37  1  0
 14 38  1  0
 15 39  1  0
 15 40  1  0
 15 41  1  0
 16 42  1  0
 17 43  1  0
 20 44  1  0
 21 45  1  0
 22 46  1  0
 23 47  1  0
M  CHG  1   3   1
M  END
$$$$
