
     RDKit          3D

 45 47  0  0  0  0  0  0  0  0999 V2000
   -2.7598   -0.0424   -2.5767 O   0  0  0  0  0  0  0  0  0  0  0  0
   -2.9737   -0.4654   -1.4381 C   0  0  0  0  0  0  0  0  0  0  0  0
   -4.3125   -1.0988   -1.0987 C   0  0  0  0  0  0  0  0  0  0  0  0
   -5.2595   -0.1610   -0.3871 C   0  0  0  0  0  0  0  0  0  0  0  0
   -5.6140    1.0681   -0.9647 C   0  0  0  0  0  0  0  0  0  0  0  0
   -6.4971    1.9306   -0.3113 C   0  0  0  0  0  0  0  0  0  0  0  0
   -7.0379    1.5657    0.9188 C   0  0  0  0  0  0  0  0  0  0  0  0
   -8.1258    2.6274    1.7244 Cl  0  0  0  0  0  0  0  0  0  0  0  0
   -6.7064    0.3436    1.4991 C   0  0  0  0  0  0  0  0  0  0  0  0
   -5.8228   -0.5195    0.8463 C   0  0  0  0  0  0  0  0  0  0  0  0
   -1.9420   -0.3489   -0.4031 C   0  0  0  0  0  0  0  0  0  0  0  0
   -2.0083   -0.7650    0.9127 C   0  0  0  0  0  0  0  0  0  0  0  0
   -0.8214   -0.4575    1.5246 N   0  0  0  0  0  0  0  0  0  0  0  0
    0.0344    0.1573    0.6365 C   0  0  0  0  0  0  0  0  0  0  0  0
    1.3570    0.5793    1.0427 C   0  0  0  0  0  0  0  0  0  0  0  0
    1.7894    0.3661    2.1709 O   0  0  0  0  0  0  0  0  0  0  0  0
    2.0897    1.2339    0.0785 N   0  0  0  0  0  0  0  0  0  0  0  0
    3.3937    1.7968    0.3572 C   0  0  0  0  0  0  0  0  0  0  0  0
    4.4979    0.7466    0.4555 C   0  0  0  0  0  0  0  0  0  0  0  0
    4.6732   -0.0295   -0.8470 C   0  0  0  0  0  0  0  0  0  0  0  0
    5.7806   -0.9619   -0.7803 N   0  0  0  0  0  0  0  0  0  0  0  0
    5.7348   -2.2374   -0.2933 C   0  0  0  0  0  0  0  0  0  0  0  0
    7.0120   -2.7220   -0.4547 C   0  0  0  0  0  0  0  0  0  0  0  0
    7.8223   -1.7768   -1.0301 N   0  0  0  0  0  0  0  0  0  0  0  0
    7.0526   -0.7282   -1.2165 C   0  0  0  0  0  0  0  0  0  0  0  0
   -0.6452    0.2292   -0.5678 C   0  0  0  0  0  0  0  0  0  0  0  0
   -4.1375   -2.0112   -0.5167 H   0  0  0  0  0  0  0  0  0  0  0  0
   -4.7838   -1.4295   -2.0330 H   0  0  0  0  0  0  0  0  0  0  0  0
   -5.2051    1.3639   -1.9303 H   0  0  0  0  0  0  0  0  0  0  0  0
   -6.7592    2.8810   -0.7686 H   0  0  0  0  0  0  0  0  0  0  0  0
   -7.1340    0.0562    2.4560 H   0  0  0  0  0  0  0  0  0  0  0  0
   -5.5813   -1.4736    1.3101 H   0  0  0  0  0  0  0  0  0  0  0  0
   -2.7926   -1.2495    1.4785 H   0  0  0  0  0  0  0  0  0  0  0  0
   -0.5816   -0.6418    2.4925 H   0  0  0  0  0  0  0  0  0  0  0  0
    1.6279    1.4893   -0.7830 H   0  0  0  0  0  0  0  0  0  0  0  0
    3.3329    2.3555    1.2980 H   0  0  0  0  0  0  0  0  0  0  0  0
    3.6168    2.5109   -0.4428 H   0  0  0  0  0  0  0  0  0  0  0  0
    4.2880    0.0482    1.2746 H   0  0  0  0  0  0  0  0  0  0  0  0
    5.4380    1.2508    0.7129 H   0  0  0  0  0  0  0  0  0  0  0  0
    4.8648    0.6507   -1.6850 H   0  0  0  0  0  0  0  0  0  0  0  0
    3.7763   -0.6109   -1.0896 H   0  0  0  0  0  0  0  0  0  0  0  0
    4.8371   -2.6785    0.1166 H   0  0  0  0  0  0  0  0  0  0  0  0
    7.3908   -3.7000   -0.1881 H   0  0  0  0  0  0  0  0  0  0  0  0
    7.3650    0.2100   -1.6560 H   0  0  0  0  0  0  0  0  0  0  0  0
   -0.2740    0.6484   -1.4948 H   0  0  0  0  0  0  0  0  0  0  0  0
  1  2  2  0
  2  3  1  0
  3  4  1  0
  4  5  2  0
  5  6  1  0
  6  7  2  0
  7  8  1  0
  7  9  1  0
  9 10  2  0
  2 11  1  0
 11 12  2  0
 12 13  1  0
 13 14  1  0
 14 15  1  0
 15 16  2  0
 15 17  1  0
 17 18  1  0
 18 19  1  0
 19 20  1  0
 20 21  1  0
 21 22  1  0
 22 23  2  0
 23 24  1  0
 24 25  2  0
 14 26  2  0
 10  4  1  0
 26 11  1  0
 25 21  1  0
  3 27  1  0
  3 28  1  0
  5 29  1  0
  6 30  1  0
  9 31  1  0
 10 32  1  0
 12 33  1  0
 13 34  1  0
 17 35  1  0
 18 36  1  0
 18 37  1  0
 19 38  1  0
 19 39  1  0
 20 40  1  0
 20 41  1  0
 22 42  1  0
 23 43  1  0
 25 44  1  0
 26 45  1  0
M  END
$$$$
