
     RDKit          3D

 36 37  0  0  0  0  0  0  0  0999 V2000
   -3.5838   -2.1237    1.4725 C   0  0  0  0  0  0  0  0  0  0  0  0
   -3.7399   -1.8281   -0.0073 C   0  0  0  0  0  0  0  0  0  0  0  0
   -2.6872   -0.9569   -0.4520 O   0  0  0  0  0  0  0  0  0  0  0  0
   -2.9097    0.3716   -0.2767 C   0  0  0  0  0  0  0  0  0  0  0  0
   -3.9355    0.8689    0.1618 O   0  0  0  0  0  0  0  0  0  0  0  0
   -1.7507    1.1777   -0.7489 C   0  0  0  0  0  0  0  0  0  0  0  0
   -1.9960    2.5402   -0.9944 C   0  0  0  0  0  0  0  0  0  0  0  0
   -0.9753    3.3804   -1.4426 C   0  0  0  0  0  0  0  0  0  0  0  0
    0.3033    2.8705   -1.6474 C   0  0  0  0  0  0  0  0  0  0  0  0
    0.5639    1.5226   -1.3989 C   0  0  0  0  0  0  0  0  0  0  0  0
   -0.4548    0.6696   -0.9554 C   0  0  0  0  0  0  0  0  0  0  0  0
   -0.0867   -0.6795   -0.6428 N   0  0  0  0  0  0  0  0  0  0  0  0
    0.4961   -0.9690    0.9256 S   0  0  0  0  0  6  0  0  0  0  0  0
    0.3283   -2.3825    1.1844 O   0  0  0  0  0  0  0  0  0  0  0  0
   -0.0778    0.0171    1.8182 O   0  0  0  0  0  0  0  0  0  0  0  0
    2.2204   -0.6537    0.7811 C   0  0  0  0  0  0  0  0  0  0  0  0
    2.8177    0.3706    1.5234 C   0  0  0  0  0  0  0  0  0  0  0  0
    4.1888    0.6011    1.3964 C   0  0  0  0  0  0  0  0  0  0  0  0
    4.9548   -0.1886    0.5362 C   0  0  0  0  0  0  0  0  0  0  0  0
    4.3507   -1.2101   -0.1986 C   0  0  0  0  0  0  0  0  0  0  0  0
    2.9831   -1.4401   -0.0719 C   0  0  0  0  0  0  0  0  0  0  0  0
    2.4289   -2.4159   -0.8032 F   0  0  0  0  0  0  0  0  0  0  0  0
   -2.5984   -2.5542    1.6767 H   0  0  0  0  0  0  0  0  0  0  0  0
   -3.6603   -1.2080    2.0672 H   0  0  0  0  0  0  0  0  0  0  0  0
   -4.3515   -2.8254    1.8106 H   0  0  0  0  0  0  0  0  0  0  0  0
   -3.6481   -2.7568   -0.5799 H   0  0  0  0  0  0  0  0  0  0  0  0
   -4.7266   -1.4073   -0.2321 H   0  0  0  0  0  0  0  0  0  0  0  0
   -2.9903    2.9552   -0.8331 H   0  0  0  0  0  0  0  0  0  0  0  0
   -1.1803    4.4324   -1.6281 H   0  0  0  0  0  0  0  0  0  0  0  0
    1.1003    3.5232   -1.9959 H   0  0  0  0  0  0  0  0  0  0  0  0
    1.5680    1.1407   -1.5656 H   0  0  0  0  0  0  0  0  0  0  0  0
   -0.8028   -1.3842   -0.8491 H   0  0  0  0  0  0  0  0  0  0  0  0
    2.2280    0.9875    2.1988 H   0  0  0  0  0  0  0  0  0  0  0  0
    4.6618    1.3944    1.9719 H   0  0  0  0  0  0  0  0  0  0  0  0
    6.0235   -0.0097    0.4410 H   0  0  0  0  0  0  0  0  0  0  0  0
    4.9380   -1.8302   -0.8695 H   0  0  0  0  0  0  0  0  0  0  0  0
  1  2  1  0
  2  3  1  0
  3  4  1  0
  4  5  2  0
  4  6  1  0
  6  7  2  0
  7  8  1  0
  8  9  2  0
  9 10  1  0
 10 11  2  0
 11 12  1  0
 12 13  1  0
 13 14  2  0
 13 15  2  0
 13 16  1  0
 16 17  2  0
 17 18  1  0
 18 19  2  0
 19 20  1  0
 20 21  2  0
 21 22  1  0
 11  6  1  0
 21 16  1  0
  1 23  1  0
  1 24  1  0
  1 25  1  0
  2 26  1  0
  2 27  1  0
  7 28  1  0
  8 29  1  0
  9 30  1  0
 10 31  1  0
 12 32  1  0
 17 33  1  0
 18 34  1  0
 19 35  1  0
 20 36  1  0
M  END
$$$$
