
     RDKit          3D

 54 57  0  0  0  0  0  0  0  0999 V2000
   -4.9795    4.3113    0.1347 C   0  0  0  0  0  0  0  0  0  0  0  0
   -3.9341    4.1276    1.0802 O   0  0  0  0  0  0  0  0  0  0  0  0
   -3.0487    3.1145    0.8387 C   0  0  0  0  0  0  0  0  0  0  0  0
   -2.0437    2.9773    1.8015 C   0  0  0  0  0  0  0  0  0  0  0  0
   -1.0702    1.9827    1.6851 C   0  0  0  0  0  0  0  0  0  0  0  0
   -1.1111    1.1026    0.6018 C   0  0  0  0  0  0  0  0  0  0  0  0
   -0.1404    0.0793    0.4779 N   0  0  0  0  0  0  0  0  0  0  0  0
   -0.3686   -1.2748    0.2607 C   0  0  0  0  0  0  0  0  0  0  0  0
   -1.6985   -1.9574    0.3526 C   0  0  0  0  0  0  0  0  0  0  0  0
   -2.1725   -2.0749    1.7757 C   0  0  0  0  0  0  0  0  0  0  0  0
   -1.4781   -2.5377    2.8838 C   0  0  0  0  0  0  0  0  0  0  0  0
   -2.3276   -2.4438    4.0082 C   0  0  0  0  0  0  0  0  0  0  0  0
   -3.5291   -1.9388    3.5679 C   0  0  0  0  0  0  0  0  0  0  0  0
   -3.4389   -1.7364    2.2129 N   0  0  0  0  0  0  0  0  0  0  0  0
   -4.5335   -1.2472    1.4018 C   0  0  0  0  0  0  0  0  0  0  0  0
    0.7901   -1.9002    0.1416 N   0  0  0  0  0  0  0  0  0  0  0  0
    1.7893   -0.9932    0.3333 N   0  0  0  0  0  0  0  0  0  0  0  0
    1.2368    0.1771    0.5572 C   0  0  0  0  0  0  0  0  0  0  0  0
    2.1302    1.6512    0.7404 S   0  0  0  0  0  0  0  0  0  0  0  0
    3.8305    1.0193    0.8515 C   0  0  0  0  0  0  0  0  0  0  0  0
    4.4461    0.8686   -0.5319 C   0  0  0  0  0  0  0  0  0  0  0  0
    5.1616    1.7544   -0.9939 O   0  0  0  0  0  0  0  0  0  0  0  0
    4.1266   -0.3212   -1.1605 N   0  0  0  0  0  0  0  0  0  0  0  0
    4.5789   -0.7810   -2.4164 C   0  0  0  0  0  0  0  0  0  0  0  0
    5.5547   -0.1416   -3.1823 C   0  0  0  0  0  0  0  0  0  0  0  0
    5.9504   -0.6754   -4.4170 C   0  0  0  0  0  0  0  0  0  0  0  0
    5.3768   -1.8540   -4.8954 C   0  0  0  0  0  0  0  0  0  0  0  0
    4.4047   -2.5018   -4.1400 C   0  0  0  0  0  0  0  0  0  0  0  0
    4.0174   -1.9653   -2.9131 C   0  0  0  0  0  0  0  0  0  0  0  0
    3.0760   -2.6063   -2.2017 F   0  0  0  0  0  0  0  0  0  0  0  0
   -2.1120    1.2335   -0.3690 C   0  0  0  0  0  0  0  0  0  0  0  0
   -3.0744    2.2438   -0.2513 C   0  0  0  0  0  0  0  0  0  0  0  0
   -4.5790    4.5713   -0.8526 H   0  0  0  0  0  0  0  0  0  0  0  0
   -5.6225    3.4267    0.0804 H   0  0  0  0  0  0  0  0  0  0  0  0
   -5.5940    5.1492    0.4785 H   0  0  0  0  0  0  0  0  0  0  0  0
   -2.0237    3.6501    2.6576 H   0  0  0  0  0  0  0  0  0  0  0  0
   -0.3223    1.8926    2.4686 H   0  0  0  0  0  0  0  0  0  0  0  0
   -2.4337   -1.4628   -0.2854 H   0  0  0  0  0  0  0  0  0  0  0  0
   -1.5961   -2.9739   -0.0507 H   0  0  0  0  0  0  0  0  0  0  0  0
   -0.4543   -2.8915    2.8807 H   0  0  0  0  0  0  0  0  0  0  0  0
   -2.0881   -2.7139    5.0290 H   0  0  0  0  0  0  0  0  0  0  0  0
   -4.4402   -1.7167    4.1119 H   0  0  0  0  0  0  0  0  0  0  0  0
   -4.6354   -1.8856    0.5201 H   0  0  0  0  0  0  0  0  0  0  0  0
   -5.4588   -1.2814    1.9820 H   0  0  0  0  0  0  0  0  0  0  0  0
   -4.3162   -0.2175    1.1157 H   0  0  0  0  0  0  0  0  0  0  0  0
    4.4295    1.7492    1.4070 H   0  0  0  0  0  0  0  0  0  0  0  0
    3.8884    0.0799    1.4107 H   0  0  0  0  0  0  0  0  0  0  0  0
    3.4093   -0.9073   -0.7205 H   0  0  0  0  0  0  0  0  0  0  0  0
    6.0367    0.7706   -2.8458 H   0  0  0  0  0  0  0  0  0  0  0  0
    6.7166   -0.1661   -4.9999 H   0  0  0  0  0  0  0  0  0  0  0  0
    5.6927   -2.2660   -5.8511 H   0  0  0  0  0  0  0  0  0  0  0  0
    3.9451   -3.4208   -4.4911 H   0  0  0  0  0  0  0  0  0  0  0  0
   -2.1365    0.5934   -1.2487 H   0  0  0  0  0  0  0  0  0  0  0  0
   -3.8266    2.3286   -1.0315 H   0  0  0  0  0  0  0  0  0  0  0  0
  1  2  1  0
  2  3  1  0
  3  4  2  0
  4  5  1  0
  5  6  2  0
  6  7  1  0
  7  8  1  0
  8  9  1  0
  9 10  1  0
 10 11  2  0
 11 12  1  0
 12 13  2  0
 13 14  1  0
 14 15  1  0
  8 16  2  0
 16 17  1  0
 17 18  2  0
 18 19  1  0
 19 20  1  0
 20 21  1  0
 21 22  2  0
 21 23  1  0
 23 24  1  0
 24 25  2  0
 25 26  1  0
 26 27  2  0
 27 28  1  0
 28 29  2  0
 29 30  1  0
  6 31  1  0
 31 32  2  0
 32  3  1  0
 18  7  1  0
 29 24  1  0
 14 10  1  0
  1 33  1  0
  1 34  1  0
  1 35  1  0
  4 36  1  0
  5 37  1  0
  9 38  1  0
  9 39  1  0
 11 40  1  0
 12 41  1  0
 13 42  1  0
 15 43  1  0
 15 44  1  0
 15 45  1  0
 20 46  1  0
 20 47  1  0
 23 48  1  0
 25 49  1  0
 26 50  1  0
 27 51  1  0
 28 52  1  0
 31 53  1  0
 32 54  1  0
M  END
$$$$
