
     RDKit          3D

 51 53  0  0  0  0  0  0  0  0999 V2000
   -9.6016   -0.4594    1.1098 C   0  0  0  0  0  0  0  0  0  0  0  0
   -8.2069   -0.1982    0.6255 C   0  0  0  0  0  0  0  0  0  0  0  0
   -7.9585    0.7623   -0.3593 C   0  0  0  0  0  0  0  0  0  0  0  0
   -6.6524    1.0211   -0.7921 C   0  0  0  0  0  0  0  0  0  0  0  0
   -5.5741    0.3312   -0.2398 C   0  0  0  0  0  0  0  0  0  0  0  0
   -4.2347    0.5317   -0.6185 N   0  0  0  0  0  0  0  0  0  0  0  0
   -3.7338    1.3938   -1.5766 C   0  0  0  0  0  0  0  0  0  0  0  0
   -4.3812    2.1568   -2.2891 O   0  0  0  0  0  0  0  0  0  0  0  0
   -2.2077    1.3232   -1.7027 C   0  0  0  0  0  0  0  0  0  0  0  0
   -1.6504    0.3848   -0.7832 O   0  0  0  0  0  0  0  0  0  0  0  0
   -0.2884    0.2639   -0.7730 C   0  0  0  0  0  0  0  0  0  0  0  0
    0.5998    0.9110   -1.6321 C   0  0  0  0  0  0  0  0  0  0  0  0
    1.9781    0.6937   -1.5132 C   0  0  0  0  0  0  0  0  0  0  0  0
    2.4763   -0.1507   -0.5181 C   0  0  0  0  0  0  0  0  0  0  0  0
    3.8771   -0.4698   -0.4031 N   0  0  0  0  0  0  0  0  0  0  0  0
    4.3358   -1.4918   -1.3765 C   0  0  0  0  0  0  0  0  0  0  0  0
    4.9042    0.8977   -0.2499 S   0  0  0  0  0  6  0  0  0  0  0  0
    5.2356    1.3628   -1.5825 O   0  0  0  0  0  0  0  0  0  0  0  0
    4.3629    1.7974    0.7468 O   0  0  0  0  0  0  0  0  0  0  0  0
    6.3741    0.1849    0.4595 C   0  0  0  0  0  0  0  0  0  0  0  0
    6.3181   -0.3141    1.7670 C   0  0  0  0  0  0  0  0  0  0  0  0
    7.4650   -0.8657    2.3385 C   0  0  0  0  0  0  0  0  0  0  0  0
    8.6471   -0.9061    1.6041 C   0  0  0  0  0  0  0  0  0  0  0  0
    9.7466   -1.4338    2.1571 F   0  0  0  0  0  0  0  0  0  0  0  0
    8.7080   -0.4033    0.3071 C   0  0  0  0  0  0  0  0  0  0  0  0
    7.5659    0.1509   -0.2732 C   0  0  0  0  0  0  0  0  0  0  0  0
    1.5873   -0.8243    0.3179 C   0  0  0  0  0  0  0  0  0  0  0  0
    0.2124   -0.6096    0.1960 C   0  0  0  0  0  0  0  0  0  0  0  0
   -5.8211   -0.6204    0.7562 C   0  0  0  0  0  0  0  0  0  0  0  0
   -7.1254   -0.8816    1.1875 C   0  0  0  0  0  0  0  0  0  0  0  0
   -9.7668   -1.5332    1.2436 H   0  0  0  0  0  0  0  0  0  0  0  0
  -10.3455   -0.1025    0.3897 H   0  0  0  0  0  0  0  0  0  0  0  0
   -9.7684    0.0503    2.0631 H   0  0  0  0  0  0  0  0  0  0  0  0
   -8.7797    1.3210   -0.8036 H   0  0  0  0  0  0  0  0  0  0  0  0
   -6.5139    1.7743   -1.5611 H   0  0  0  0  0  0  0  0  0  0  0  0
   -3.5319   -0.0235   -0.1404 H   0  0  0  0  0  0  0  0  0  0  0  0
   -1.8227    2.3291   -1.4973 H   0  0  0  0  0  0  0  0  0  0  0  0
   -1.9872    1.0159   -2.7317 H   0  0  0  0  0  0  0  0  0  0  0  0
    0.2610    1.5889   -2.4097 H   0  0  0  0  0  0  0  0  0  0  0  0
    2.6492    1.1958   -2.2056 H   0  0  0  0  0  0  0  0  0  0  0  0
    5.3449   -1.8354   -1.1341 H   0  0  0  0  0  0  0  0  0  0  0  0
    4.3195   -1.1047   -2.4003 H   0  0  0  0  0  0  0  0  0  0  0  0
    3.6859   -2.3732   -1.3296 H   0  0  0  0  0  0  0  0  0  0  0  0
    5.3930   -0.2676    2.3375 H   0  0  0  0  0  0  0  0  0  0  0  0
    7.4487   -1.2570    3.3516 H   0  0  0  0  0  0  0  0  0  0  0  0
    9.6458   -0.4408   -0.2383 H   0  0  0  0  0  0  0  0  0  0  0  0
    7.6145    0.5531   -1.2821 H   0  0  0  0  0  0  0  0  0  0  0  0
    1.9603   -1.5082    1.0741 H   0  0  0  0  0  0  0  0  0  0  0  0
   -0.4701   -1.1269    0.8648 H   0  0  0  0  0  0  0  0  0  0  0  0
   -5.0040   -1.1716    1.2122 H   0  0  0  0  0  0  0  0  0  0  0  0
   -7.2904   -1.6219    1.9672 H   0  0  0  0  0  0  0  0  0  0  0  0
  1  2  1  0
  2  3  2  0
  3  4  1  0
  4  5  2  0
  5  6  1  0
  6  7  1  0
  7  8  2  0
  7  9  1  0
  9 10  1  0
 10 11  1  0
 11 12  2  0
 12 13  1  0
 13 14  2  0
 14 15  1  0
 15 16  1  0
 15 17  1  0
 17 18  2  0
 17 19  2  0
 17 20  1  0
 20 21  2  0
 21 22  1  0
 22 23  2  0
 23 24  1  0
 23 25  1  0
 25 26  2  0
 14 27  1  0
 27 28  2  0
  5 29  1  0
 29 30  2  0
 30  2  1  0
 28 11  1  0
 26 20  1  0
  1 31  1  0
  1 32  1  0
  1 33  1  0
  3 34  1  0
  4 35  1  0
  6 36  1  0
  9 37  1  0
  9 38  1  0
 12 39  1  0
 13 40  1  0
 16 41  1  0
 16 42  1  0
 16 43  1  0
 21 44  1  0
 22 45  1  0
 25 46  1  0
 26 47  1  0
 27 48  1  0
 28 49  1  0
 29 50  1  0
 30 51  1  0
M  END
$$$$
