
     RDKit          3D

 48 50  0  0  0  0  0  0  0  0999 V2000
   -5.2539   -2.3417   -1.0880 C   0  0  0  0  0  0  0  0  0  0  0  0
   -5.3726   -0.9354   -1.2523 O   0  0  0  0  0  0  0  0  0  0  0  0
   -4.2164   -0.1989   -1.2560 C   0  0  0  0  0  0  0  0  0  0  0  0
   -2.9545   -0.6932   -0.9188 C   0  0  0  0  0  0  0  0  0  0  0  0
   -1.8308    0.1451   -0.9486 C   0  0  0  0  0  0  0  0  0  0  0  0
   -0.5184   -0.4222   -0.6036 C   0  0  0  0  0  0  0  0  0  0  0  0
    0.2808   -0.0156    0.4041 C   0  0  0  0  0  0  0  0  0  0  0  0
   -0.0666    1.0504    1.2766 C   0  0  0  0  0  0  0  0  0  0  0  0
   -0.2921    1.9073    2.0256 N   0  0  0  0  0  0  0  0  0  0  0  0
    1.5836   -0.7501    0.5915 C   0  0  0  0  0  0  0  0  0  0  0  0
    1.8677   -1.6876   -0.1489 O   0  0  0  0  0  0  0  0  0  0  0  0
    2.3526   -0.3225    1.6617 N   0  0  0  0  0  0  0  0  0  0  0  0
    3.6096   -0.8573    2.0565 C   0  0  0  0  0  0  0  0  0  0  0  0
    3.8022   -0.9298    3.4446 C   0  0  0  0  0  0  0  0  0  0  0  0
    4.9590   -1.4907    3.9680 C   0  0  0  0  0  0  0  0  0  0  0  0
    5.9428   -1.9624    3.1046 C   0  0  0  0  0  0  0  0  0  0  0  0
    5.8234   -1.8544    1.7287 C   0  0  0  0  0  0  0  0  0  0  0  0
    6.8607   -2.2909    0.9932 N   0  0  0  0  0  0  0  0  0  0  0  0
    6.8057   -2.1369   -0.3441 C   0  0  0  0  0  0  0  0  0  0  0  0
    5.7538   -1.5359   -0.9962 C   0  0  0  0  0  0  0  0  0  0  0  0
    4.6829   -1.0911   -0.2275 C   0  0  0  0  0  0  0  0  0  0  0  0
    4.6564   -1.2709    1.1755 C   0  0  0  0  0  0  0  0  0  0  0  0
   -1.9662    1.4849   -1.3413 C   0  0  0  0  0  0  0  0  0  0  0  0
   -3.2209    2.0020   -1.6724 C   0  0  0  0  0  0  0  0  0  0  0  0
   -3.4592    3.2944   -2.0623 O   0  0  0  0  0  0  0  0  0  0  0  0
   -2.3546    4.1868   -2.1008 C   0  0  0  0  0  0  0  0  0  0  0  0
   -4.3410    1.1551   -1.6109 C   0  0  0  0  0  0  0  0  0  0  0  0
   -5.5758    1.6418   -1.9822 O   0  0  0  0  0  0  0  0  0  0  0  0
   -6.2479    2.1736   -0.8418 C   0  0  0  0  0  0  0  0  0  0  0  0
   -4.9012   -2.5897   -0.0818 H   0  0  0  0  0  0  0  0  0  0  0  0
   -6.2504   -2.7776   -1.2073 H   0  0  0  0  0  0  0  0  0  0  0  0
   -4.6051   -2.7791   -1.8542 H   0  0  0  0  0  0  0  0  0  0  0  0
   -2.8233   -1.7299   -0.6239 H   0  0  0  0  0  0  0  0  0  0  0  0
   -0.2227   -1.2613   -1.2343 H   0  0  0  0  0  0  0  0  0  0  0  0
    1.8806    0.2042    2.3890 H   0  0  0  0  0  0  0  0  0  0  0  0
    3.0355   -0.5908    4.1375 H   0  0  0  0  0  0  0  0  0  0  0  0
    5.0950   -1.5726    5.0431 H   0  0  0  0  0  0  0  0  0  0  0  0
    6.8459   -2.4074    3.5178 H   0  0  0  0  0  0  0  0  0  0  0  0
    7.6663   -2.5114   -0.8902 H   0  0  0  0  0  0  0  0  0  0  0  0
    5.7601   -1.4125   -2.0728 H   0  0  0  0  0  0  0  0  0  0  0  0
    3.8719   -0.5874   -0.7423 H   0  0  0  0  0  0  0  0  0  0  0  0
   -1.0798    2.1088   -1.3932 H   0  0  0  0  0  0  0  0  0  0  0  0
   -2.7278    5.1680   -2.4096 H   0  0  0  0  0  0  0  0  0  0  0  0
   -1.6137    3.8652   -2.8400 H   0  0  0  0  0  0  0  0  0  0  0  0
   -1.9027    4.2998   -1.1098 H   0  0  0  0  0  0  0  0  0  0  0  0
   -5.6952    3.0136   -0.4071 H   0  0  0  0  0  0  0  0  0  0  0  0
   -7.2223    2.5463   -1.1718 H   0  0  0  0  0  0  0  0  0  0  0  0
   -6.4212    1.4018   -0.0839 H   0  0  0  0  0  0  0  0  0  0  0  0
  1  2  1  0
  2  3  1  0
  3  4  2  0
  4  5  1  0
  5  6  1  0
  6  7  2  3
  7  8  1  0
  8  9  3  0
  7 10  1  0
 10 11  2  0
 10 12  1  0
 12 13  1  0
 13 14  2  0
 14 15  1  0
 15 16  2  0
 16 17  1  0
 17 18  2  0
 18 19  1  0
 19 20  2  0
 20 21  1  0
 21 22  2  0
  5 23  2  0
 23 24  1  0
 24 25  1  0
 25 26  1  0
 24 27  2  0
 27 28  1  0
 28 29  1  0
 27  3  1  0
 22 13  1  0
 22 17  1  0
  1 30  1  0
  1 31  1  0
  1 32  1  0
  4 33  1  0
  6 34  1  0
 12 35  1  0
 14 36  1  0
 15 37  1  0
 16 38  1  0
 19 39  1  0
 20 40  1  0
 21 41  1  0
 23 42  1  0
 26 43  1  0
 26 44  1  0
 26 45  1  0
 29 46  1  0
 29 47  1  0
 29 48  1  0
M  END
$$$$
