
     RDKit          3D

 51 55  0  0  0  0  0  0  0  0999 V2000
   -2.0373    1.2525    1.8654 C   0  0  0  0  0  0  0  0  0  0  0  0
   -1.8148    0.1457    0.8618 C   0  0  0  0  0  0  0  0  0  0  0  0
   -0.7563    0.3650   -0.0150 N   0  0  0  0  0  0  0  0  0  0  0  0
   -0.4363   -0.5181   -0.9896 C   0  0  0  0  0  0  0  0  0  0  0  0
    0.5080   -0.5565   -1.9940 C   0  0  0  0  0  0  0  0  0  0  0  0
    1.5561    0.3892   -2.3169 C   0  0  0  0  0  0  0  0  0  0  0  0
    2.0565    0.4448   -3.4342 O   0  0  0  0  0  0  0  0  0  0  0  0
    1.9637    1.1759   -1.2609 N   0  0  0  0  0  0  0  0  0  0  0  0
    3.1177    2.0376   -1.3727 C   0  0  0  0  0  0  0  0  0  0  0  0
    4.3488    1.3549   -0.8337 C   0  0  0  0  0  0  0  0  0  0  0  0
    5.1049    0.4966   -1.6667 C   0  0  0  0  0  0  0  0  0  0  0  0
    6.2362   -0.1673   -1.1814 C   0  0  0  0  0  0  0  0  0  0  0  0
    6.5832    0.0386    0.1353 C   0  0  0  0  0  0  0  0  0  0  0  0
    5.8504    0.8631    0.9558 C   0  0  0  0  0  0  0  0  0  0  0  0
    4.7305    1.5315    0.5065 C   0  0  0  0  0  0  0  0  0  0  0  0
    6.3568    0.9251    2.2166 O   0  0  0  0  0  0  0  0  0  0  0  0
    7.4978    0.0491    2.0926 C   0  0  0  0  0  0  0  0  0  0  0  0
    7.6443   -0.5206    0.7755 O   0  0  0  0  0  0  0  0  0  0  0  0
    0.2139   -1.7584   -2.6809 C   0  0  0  0  0  0  0  0  0  0  0  0
   -0.7858   -2.4532   -2.1314 N   0  0  0  0  0  0  0  0  0  0  0  0
   -1.1840   -1.6745   -1.0905 N   0  0  0  0  0  0  0  0  0  0  0  0
   -2.2444   -2.0183   -0.2366 C   0  0  0  0  0  0  0  0  0  0  0  0
   -2.8289   -3.0894   -0.3493 O   0  0  0  0  0  0  0  0  0  0  0  0
   -2.5772   -0.9755    0.8009 C   0  0  0  0  0  0  0  0  0  0  0  0
   -3.7513   -1.3241    1.6842 C   0  0  0  0  0  0  0  0  0  0  0  0
   -5.0796   -0.8858    1.1126 C   0  0  0  0  0  0  0  0  0  0  0  0
   -5.7618   -1.6833    0.1815 C   0  0  0  0  0  0  0  0  0  0  0  0
   -6.9801   -1.2621   -0.3592 C   0  0  0  0  0  0  0  0  0  0  0  0
   -7.5338   -0.0412    0.0241 C   0  0  0  0  0  0  0  0  0  0  0  0
   -6.8683    0.7594    0.9496 C   0  0  0  0  0  0  0  0  0  0  0  0
   -5.6537    0.3346    1.4825 C   0  0  0  0  0  0  0  0  0  0  0  0
   -5.0353    1.1244    2.3719 F   0  0  0  0  0  0  0  0  0  0  0  0
   -2.6041    0.9378    2.7426 H   0  0  0  0  0  0  0  0  0  0  0  0
   -2.5622    2.0883    1.3915 H   0  0  0  0  0  0  0  0  0  0  0  0
   -1.0765    1.6228    2.2403 H   0  0  0  0  0  0  0  0  0  0  0  0
   -0.3762    1.3120   -0.0136 H   0  0  0  0  0  0  0  0  0  0  0  0
    1.7209    0.8519   -0.3346 H   0  0  0  0  0  0  0  0  0  0  0  0
    3.2746    2.3484   -2.4118 H   0  0  0  0  0  0  0  0  0  0  0  0
    2.9034    2.9425   -0.7935 H   0  0  0  0  0  0  0  0  0  0  0  0
    4.8045    0.3432   -2.7034 H   0  0  0  0  0  0  0  0  0  0  0  0
    6.8184   -0.8241   -1.8184 H   0  0  0  0  0  0  0  0  0  0  0  0
    4.1731    2.1735    1.1801 H   0  0  0  0  0  0  0  0  0  0  0  0
    7.3934   -0.7662    2.8179 H   0  0  0  0  0  0  0  0  0  0  0  0
    8.4037    0.6183    2.3314 H   0  0  0  0  0  0  0  0  0  0  0  0
    0.7119   -2.1597   -3.5559 H   0  0  0  0  0  0  0  0  0  0  0  0
   -3.7824   -2.4061    1.8700 H   0  0  0  0  0  0  0  0  0  0  0  0
   -3.6291   -0.9042    2.6889 H   0  0  0  0  0  0  0  0  0  0  0  0
   -5.3495   -2.6419   -0.1322 H   0  0  0  0  0  0  0  0  0  0  0  0
   -7.4953   -1.8909   -1.0824 H   0  0  0  0  0  0  0  0  0  0  0  0
   -8.4815    0.2833   -0.3979 H   0  0  0  0  0  0  0  0  0  0  0  0
   -7.2869    1.7115    1.2598 H   0  0  0  0  0  0  0  0  0  0  0  0
  1  2  1  0
  2  3  1  0
  3  4  1  0
  4  5  2  0
  5  6  1  0
  6  7  2  0
  6  8  1  0
  8  9  1  0
  9 10  1  0
 10 11  2  0
 11 12  1  0
 12 13  2  0
 13 14  1  0
 14 15  2  0
 14 16  1  0
 16 17  1  0
 17 18  1  0
  5 19  1  0
 19 20  2  0
 20 21  1  0
 21 22  1  0
 22 23  2  0
 22 24  1  0
 24 25  1  0
 25 26  1  0
 26 27  2  0
 27 28  1  0
 28 29  2  0
 29 30  1  0
 30 31  2  0
 31 32  1  0
 24  2  2  0
 31 26  1  0
 21  4  1  0
 15 10  1  0
 18 13  1  0
  1 33  1  0
  1 34  1  0
  1 35  1  0
  3 36  1  0
  8 37  1  0
  9 38  1  0
  9 39  1  0
 11 40  1  0
 12 41  1  0
 15 42  1  0
 17 43  1  0
 17 44  1  0
 19 45  1  0
 25 46  1  0
 25 47  1  0
 27 48  1  0
 28 49  1  0
 29 50  1  0
 30 51  1  0
M  END
$$$$
