
     RDKit          3D

 44 46  0  0  0  0  0  0  0  0999 V2000
   -4.9936    1.6888    1.5988 C   0  0  0  0  0  0  0  0  0  0  0  0
   -4.3394    0.5570    0.8614 C   0  0  0  0  0  0  0  0  0  0  0  0
   -3.7793    0.7719   -0.4054 C   0  0  0  0  0  0  0  0  0  0  0  0
   -3.1956   -0.2822   -1.1090 C   0  0  0  0  0  0  0  0  0  0  0  0
   -3.1673   -1.5573   -0.5388 C   0  0  0  0  0  0  0  0  0  0  0  0
   -2.4136   -2.9040   -1.4225 S   0  0  0  0  0  6  0  0  0  0  0  0
   -3.0405   -4.1288   -0.9700 O   0  0  0  0  0  0  0  0  0  0  0  0
   -2.3725   -2.5595   -2.8273 O   0  0  0  0  0  0  0  0  0  0  0  0
   -0.8390   -2.9316   -0.8014 N   0  0  0  0  0  0  0  0  0  0  0  0
   -0.0627   -1.7390   -0.8388 C   0  0  0  0  0  0  0  0  0  0  0  0
    0.3502   -1.1998   -2.0557 C   0  0  0  0  0  0  0  0  0  0  0  0
    1.0646    0.0044   -2.0915 C   0  0  0  0  0  0  0  0  0  0  0  0
    1.5021    0.5830   -3.4068 C   0  0  0  0  0  0  0  0  0  0  0  0
    1.3632    0.6528   -0.8837 C   0  0  0  0  0  0  0  0  0  0  0  0
    2.0676    1.8257   -0.9705 O   0  0  0  0  0  0  0  0  0  0  0  0
    0.9476    0.1215    0.3490 C   0  0  0  0  0  0  0  0  0  0  0  0
    1.1877    0.9377    1.9222 S   0  0  0  0  0  0  0  0  0  0  0  0
    2.9188    0.9161    2.0813 C   0  0  0  0  0  0  0  0  0  0  0  0
    3.5437    0.3310    3.1044 N   0  0  0  0  0  0  0  0  0  0  0  0
    4.8289    0.5840    2.8126 N   0  0  0  0  0  0  0  0  0  0  0  0
    4.9443    1.3051    1.6572 C   0  0  0  0  0  0  0  0  0  0  0  0
    6.2455    1.7256    1.0977 C   0  0  0  0  0  0  0  0  0  0  0  0
    3.7409    1.5355    1.1758 N   0  0  0  0  0  0  0  0  0  0  0  0
    0.2296   -1.0822    0.3570 C   0  0  0  0  0  0  0  0  0  0  0  0
   -3.7518   -1.7942    0.7080 C   0  0  0  0  0  0  0  0  0  0  0  0
   -4.3370   -0.7354    1.4042 C   0  0  0  0  0  0  0  0  0  0  0  0
   -4.9535    1.5261    2.6810 H   0  0  0  0  0  0  0  0  0  0  0  0
   -6.0407    1.7786    1.2936 H   0  0  0  0  0  0  0  0  0  0  0  0
   -4.4809    2.6346    1.3939 H   0  0  0  0  0  0  0  0  0  0  0  0
   -3.7942    1.7645   -0.8514 H   0  0  0  0  0  0  0  0  0  0  0  0
   -2.7613   -0.0994   -2.0896 H   0  0  0  0  0  0  0  0  0  0  0  0
   -0.7781   -3.5130    0.0329 H   0  0  0  0  0  0  0  0  0  0  0  0
    0.1157   -1.7183   -2.9836 H   0  0  0  0  0  0  0  0  0  0  0  0
    1.1813   -0.0416   -4.2472 H   0  0  0  0  0  0  0  0  0  0  0  0
    2.5939    0.6556   -3.4445 H   0  0  0  0  0  0  0  0  0  0  0  0
    1.0660    1.5772   -3.5478 H   0  0  0  0  0  0  0  0  0  0  0  0
    2.5769    1.9360   -0.1397 H   0  0  0  0  0  0  0  0  0  0  0  0
    5.5571    0.2445    3.4317 H   0  0  0  0  0  0  0  0  0  0  0  0
    6.1015    2.2935    0.1733 H   0  0  0  0  0  0  0  0  0  0  0  0
    6.8668    0.8544    0.8687 H   0  0  0  0  0  0  0  0  0  0  0  0
    6.7839    2.3612    1.8074 H   0  0  0  0  0  0  0  0  0  0  0  0
   -0.1212   -1.4946    1.2997 H   0  0  0  0  0  0  0  0  0  0  0  0
   -3.7609   -2.7920    1.1402 H   0  0  0  0  0  0  0  0  0  0  0  0
   -4.7949   -0.9233    2.3733 H   0  0  0  0  0  0  0  0  0  0  0  0
  1  2  1  0
  2  3  2  0
  3  4  1  0
  4  5  2  0
  5  6  1  0
  6  7  2  0
  6  8  2  0
  6  9  1  0
  9 10  1  0
 10 11  2  0
 11 12  1  0
 12 13  1  0
 12 14  2  0
 14 15  1  0
 14 16  1  0
 16 17  1  0
 17 18  1  0
 18 19  2  0
 19 20  1  0
 20 21  1  0
 21 22  1  0
 21 23  2  0
 16 24  2  0
  5 25  1  0
 25 26  2  0
 26  2  1  0
 24 10  1  0
 23 18  1  0
  1 27  1  0
  1 28  1  0
  1 29  1  0
  3 30  1  0
  4 31  1  0
  9 32  1  0
 11 33  1  0
 13 34  1  0
 13 35  1  0
 13 36  1  0
 15 37  1  0
 20 38  1  0
 22 39  1  0
 22 40  1  0
 22 41  1  0
 24 42  1  0
 25 43  1  0
 26 44  1  0
M  END
$$$$
