
     RDKit          3D

 44 47  0  0  0  0  0  0  0  0999 V2000
   -4.0462    2.0851   -1.0882 C   0  0  0  0  0  0  0  0  0  0  0  0
   -2.6937    1.6100   -0.5662 C   0  0  0  0  0  0  0  0  0  0  0  0
   -2.8069    1.1522    0.8845 C   0  0  0  0  0  0  0  0  0  0  0  0
   -1.5510    0.4641    1.3730 C   0  0  0  0  0  0  0  0  0  0  0  0
   -0.6840    1.0954    1.9843 O   0  0  0  0  0  0  0  0  0  0  0  0
   -1.4512   -0.9053    1.1481 N   0  0  0  0  0  0  0  0  0  0  0  0
   -0.2732   -1.5937    1.6818 C   0  0  0  0  0  0  0  0  0  0  0  0
    0.9201   -1.3952    0.7366 C   0  0  0  0  0  0  0  0  0  0  0  0
    1.1397   -2.1814   -0.1745 O   0  0  0  0  0  0  0  0  0  0  0  0
    1.6444   -0.2437    1.0276 N   0  0  0  0  0  0  0  0  0  0  0  0
    2.8167    0.2231    0.4024 C   0  0  0  0  0  0  0  0  0  0  0  0
    3.3704   -0.3598   -0.7581 C   0  0  0  0  0  0  0  0  0  0  0  0
    4.5421    0.1574   -1.3304 C   0  0  0  0  0  0  0  0  0  0  0  0
    5.1419    1.2394   -0.7118 C   0  0  0  0  0  0  0  0  0  0  0  0
    4.6111    1.8065    0.4239 C   0  0  0  0  0  0  0  0  0  0  0  0
    3.4491    1.3333    0.9972 C   0  0  0  0  0  0  0  0  0  0  0  0
    5.3600    2.8535    0.8888 O   0  0  0  0  0  0  0  0  0  0  0  0
    6.3900    2.9078   -0.1199 C   0  0  0  0  0  0  0  0  0  0  0  0
    6.2797    1.8694   -1.1187 O   0  0  0  0  0  0  0  0  0  0  0  0
   -2.2972   -1.6322    0.2513 C   0  0  0  0  0  0  0  0  0  0  0  0
   -2.7909   -2.8848    0.6698 C   0  0  0  0  0  0  0  0  0  0  0  0
   -3.6204   -3.6445   -0.1629 C   0  0  0  0  0  0  0  0  0  0  0  0
   -3.9565   -3.1747   -1.4287 C   0  0  0  0  0  0  0  0  0  0  0  0
   -3.4700   -1.9381   -1.8605 C   0  0  0  0  0  0  0  0  0  0  0  0
   -2.6575   -1.1472   -1.0277 C   0  0  0  0  0  0  0  0  0  0  0  0
   -2.0071    0.3692   -1.7301 S   0  0  0  0  0  0  0  0  0  0  0  0
   -4.4674    2.8430   -0.4213 H   0  0  0  0  0  0  0  0  0  0  0  0
   -4.7682    1.2660   -1.1487 H   0  0  0  0  0  0  0  0  0  0  0  0
   -3.9570    2.5424   -2.0844 H   0  0  0  0  0  0  0  0  0  0  0  0
   -1.9992    2.4630   -0.6058 H   0  0  0  0  0  0  0  0  0  0  0  0
   -2.9781    2.0273    1.5277 H   0  0  0  0  0  0  0  0  0  0  0  0
   -3.6780    0.5048    1.0511 H   0  0  0  0  0  0  0  0  0  0  0  0
   -0.4355   -2.6679    1.8178 H   0  0  0  0  0  0  0  0  0  0  0  0
   -0.0325   -1.1916    2.6746 H   0  0  0  0  0  0  0  0  0  0  0  0
    1.2454    0.3618    1.7428 H   0  0  0  0  0  0  0  0  0  0  0  0
    2.8900   -1.2032   -1.2589 H   0  0  0  0  0  0  0  0  0  0  0  0
    4.9599   -0.2753   -2.2330 H   0  0  0  0  0  0  0  0  0  0  0  0
    3.0587    1.8098    1.8950 H   0  0  0  0  0  0  0  0  0  0  0  0
    7.3659    2.8221    0.3744 H   0  0  0  0  0  0  0  0  0  0  0  0
    6.3349    3.8789   -0.6223 H   0  0  0  0  0  0  0  0  0  0  0  0
   -2.5663   -3.2670    1.6619 H   0  0  0  0  0  0  0  0  0  0  0  0
   -4.0168   -4.6001    0.1820 H   0  0  0  0  0  0  0  0  0  0  0  0
   -4.5893   -3.7780   -2.0842 H   0  0  0  0  0  0  0  0  0  0  0  0
   -3.7261   -1.6019   -2.8652 H   0  0  0  0  0  0  0  0  0  0  0  0
  1  2  1  0
  2  3  1  0
  3  4  1  0
  4  5  2  0
  4  6  1  0
  6  7  1  0
  7  8  1  0
  8  9  2  0
  8 10  1  0
 10 11  1  0
 11 12  2  0
 12 13  1  0
 13 14  2  0
 14 15  1  0
 15 16  2  0
 15 17  1  0
 17 18  1  0
 18 19  1  0
  6 20  1  0
 20 21  2  0
 21 22  1  0
 22 23  2  0
 23 24  1  0
 24 25  2  0
 25 26  1  0
 26  2  1  0
 16 11  1  0
 25 20  1  0
 19 14  1  0
  1 27  1  0
  1 28  1  0
  1 29  1  0
  2 30  1  0
  3 31  1  0
  3 32  1  0
  7 33  1  0
  7 34  1  0
 10 35  1  0
 12 36  1  0
 13 37  1  0
 16 38  1  0
 18 39  1  0
 18 40  1  0
 21 41  1  0
 22 42  1  0
 23 43  1  0
 24 44  1  0
M  END
$$$$
