
     RDKit          3D

 42 44  0  0  0  0  0  0  0  0999 V2000
   -3.9922    1.7943    2.8248 C   0  0  0  0  0  0  0  0  0  0  0  0
   -2.7245    2.0414    2.2274 O   0  0  0  0  0  0  0  0  0  0  0  0
   -2.4815    1.4455    1.0201 C   0  0  0  0  0  0  0  0  0  0  0  0
   -3.3384    0.5698    0.3488 C   0  0  0  0  0  0  0  0  0  0  0  0
   -2.9675    0.0319   -0.8881 C   0  0  0  0  0  0  0  0  0  0  0  0
   -1.7314    0.3667   -1.4472 C   0  0  0  0  0  0  0  0  0  0  0  0
   -1.2800   -0.2838   -3.0410 S   0  0  0  0  0  6  0  0  0  0  0  0
   -0.3329    0.6262   -3.6470 O   0  0  0  0  0  0  0  0  0  0  0  0
   -2.5046   -0.6463   -3.7245 O   0  0  0  0  0  0  0  0  0  0  0  0
   -0.5130   -1.7402   -2.6724 N   0  0  0  0  0  0  0  0  0  0  0  0
    0.5437   -1.7862   -1.7160 C   0  0  0  0  0  0  0  0  0  0  0  0
    1.6789   -0.9860   -1.8868 C   0  0  0  0  0  0  0  0  0  0  0  0
    2.6999   -0.9693   -0.9287 C   0  0  0  0  0  0  0  0  0  0  0  0
    4.0810    0.1298   -1.1969 S   0  0  0  0  0  0  0  0  0  0  0  0
    3.9232    1.1705    0.1886 C   0  0  0  0  0  0  0  0  0  0  0  0
    4.4776    0.8378    1.3965 N   0  0  0  0  0  0  0  0  0  0  0  0
    4.0686    1.8091    2.1802 C   0  0  0  0  0  0  0  0  0  0  0  0
    3.3057    2.6786    1.4670 N   0  0  0  0  0  0  0  0  0  0  0  0
    3.1783    2.2782    0.1922 N   0  0  0  0  0  0  0  0  0  0  0  0
    2.5896   -1.8123    0.1818 C   0  0  0  0  0  0  0  0  0  0  0  0
    3.5334   -1.8862    1.1702 O   0  0  0  0  0  0  0  0  0  0  0  0
    1.4810   -2.6424    0.3387 C   0  0  0  0  0  0  0  0  0  0  0  0
    0.4398   -2.6333   -0.6005 C   0  0  0  0  0  0  0  0  0  0  0  0
   -0.7469   -3.5268   -0.3777 C   0  0  0  0  0  0  0  0  0  0  0  0
   -0.8763    1.2547   -0.7922 C   0  0  0  0  0  0  0  0  0  0  0  0
   -1.2522    1.7801    0.4445 C   0  0  0  0  0  0  0  0  0  0  0  0
   -4.0416    2.3734    3.7543 H   0  0  0  0  0  0  0  0  0  0  0  0
   -4.8091    2.1351    2.1766 H   0  0  0  0  0  0  0  0  0  0  0  0
   -4.1067    0.7351    3.0844 H   0  0  0  0  0  0  0  0  0  0  0  0
   -4.3051    0.2916    0.7563 H   0  0  0  0  0  0  0  0  0  0  0  0
   -3.6500   -0.6361   -1.4087 H   0  0  0  0  0  0  0  0  0  0  0  0
   -1.1437   -2.5349   -2.7439 H   0  0  0  0  0  0  0  0  0  0  0  0
    1.7704   -0.3594   -2.7720 H   0  0  0  0  0  0  0  0  0  0  0  0
    4.2800    1.9249    3.2354 H   0  0  0  0  0  0  0  0  0  0  0  0
    2.8310    3.5191    1.7778 H   0  0  0  0  0  0  0  0  0  0  0  0
    4.1453   -1.1217    1.0858 H   0  0  0  0  0  0  0  0  0  0  0  0
    1.4321   -3.2884    1.2122 H   0  0  0  0  0  0  0  0  0  0  0  0
   -0.6741   -4.0626    0.5736 H   0  0  0  0  0  0  0  0  0  0  0  0
   -0.8119   -4.2747   -1.1754 H   0  0  0  0  0  0  0  0  0  0  0  0
   -1.6693   -2.9379   -0.3503 H   0  0  0  0  0  0  0  0  0  0  0  0
    0.0777    1.5421   -1.2278 H   0  0  0  0  0  0  0  0  0  0  0  0
   -0.5844    2.4651    0.9601 H   0  0  0  0  0  0  0  0  0  0  0  0
  1  2  1  0
  2  3  1  0
  3  4  2  0
  4  5  1  0
  5  6  2  0
  6  7  1  0
  7  8  2  0
  7  9  2  0
  7 10  1  0
 10 11  1  0
 11 12  2  0
 12 13  1  0
 13 14  1  0
 14 15  1  0
 15 16  1  0
 16 17  2  0
 17 18  1  0
 18 19  1  0
 13 20  2  0
 20 21  1  0
 20 22  1  0
 22 23  2  0
 23 24  1  0
  6 25  1  0
 25 26  2  0
 26  3  1  0
 23 11  1  0
 19 15  2  0
  1 27  1  0
  1 28  1  0
  1 29  1  0
  4 30  1  0
  5 31  1  0
 10 32  1  0
 12 33  1  0
 17 34  1  0
 18 35  1  0
 21 36  1  0
 22 37  1  0
 24 38  1  0
 24 39  1  0
 24 40  1  0
 25 41  1  0
 26 42  1  0
M  END
$$$$
