
     RDKit          3D

 38 39  0  0  0  0  0  0  0  0999 V2000
    0.4217    2.8278    2.7620 C   0  0  0  0  0  0  0  0  0  0  0  0
    0.1948    2.1645    1.4241 C   0  0  0  0  0  0  0  0  0  0  0  0
    1.1535    1.0756    1.0745 C   0  0  0  0  0  0  0  0  0  0  0  0
    1.9332    1.2055   -0.0077 C   0  0  0  0  0  0  0  0  0  0  0  0
    2.9055    0.1948   -0.4406 C   0  0  0  0  0  0  0  0  0  0  0  0
    3.6954   -0.5231    0.4670 C   0  0  0  0  0  0  0  0  0  0  0  0
    4.6315   -1.4554    0.0114 C   0  0  0  0  0  0  0  0  0  0  0  0
    4.7932   -1.6726   -1.3553 C   0  0  0  0  0  0  0  0  0  0  0  0
    4.0229   -0.9551   -2.2678 C   0  0  0  0  0  0  0  0  0  0  0  0
    3.0878   -0.0223   -1.8124 C   0  0  0  0  0  0  0  0  0  0  0  0
   -0.8072    2.5953    0.7176 N   0  0  0  0  0  0  0  0  0  0  0  0
   -1.0665    1.9300   -0.4545 N   0  0  0  0  0  0  0  0  0  0  0  0
   -1.8957    0.7820   -0.3981 C   0  0  0  0  0  0  0  0  0  0  0  0
   -1.8787   -0.0332    0.6738 N   0  0  0  0  0  0  0  0  0  0  0  0
   -2.6867   -1.1098    0.6548 C   0  0  0  0  0  0  0  0  0  0  0  0
   -2.6605   -2.0089    1.8529 C   0  0  0  0  0  0  0  0  0  0  0  0
   -3.5118   -1.3936   -0.4125 C   0  0  0  0  0  0  0  0  0  0  0  0
   -3.4698   -0.5117   -1.4717 C   0  0  0  0  0  0  0  0  0  0  0  0
   -4.3308   -0.7380   -2.6775 C   0  0  0  0  0  0  0  0  0  0  0  0
   -2.6705    0.5738   -1.4775 N   0  0  0  0  0  0  0  0  0  0  0  0
    0.5615    3.9027    2.6141 H   0  0  0  0  0  0  0  0  0  0  0  0
   -0.4533    2.6649    3.3980 H   0  0  0  0  0  0  0  0  0  0  0  0
    1.3049    2.4228    3.2636 H   0  0  0  0  0  0  0  0  0  0  0  0
    1.1739    0.2218    1.7390 H   0  0  0  0  0  0  0  0  0  0  0  0
    1.8380    2.0829   -0.6438 H   0  0  0  0  0  0  0  0  0  0  0  0
    3.5996   -0.3584    1.5370 H   0  0  0  0  0  0  0  0  0  0  0  0
    5.2372   -2.0080    0.7248 H   0  0  0  0  0  0  0  0  0  0  0  0
    5.5215   -2.3975   -1.7092 H   0  0  0  0  0  0  0  0  0  0  0  0
    4.1483   -1.1197   -3.3346 H   0  0  0  0  0  0  0  0  0  0  0  0
    2.4926    0.5267   -2.5391 H   0  0  0  0  0  0  0  0  0  0  0  0
   -1.5215    2.4925   -1.1720 H   0  0  0  0  0  0  0  0  0  0  0  0
   -2.3522   -3.0180    1.5622 H   0  0  0  0  0  0  0  0  0  0  0  0
   -3.6521   -2.0542    2.3139 H   0  0  0  0  0  0  0  0  0  0  0  0
   -1.9529   -1.6396    2.6024 H   0  0  0  0  0  0  0  0  0  0  0  0
   -4.1576   -2.2622   -0.4184 H   0  0  0  0  0  0  0  0  0  0  0  0
   -4.1764    0.0509   -3.4208 H   0  0  0  0  0  0  0  0  0  0  0  0
   -4.0850   -1.6974   -3.1433 H   0  0  0  0  0  0  0  0  0  0  0  0
   -5.3878   -0.7360   -2.3935 H   0  0  0  0  0  0  0  0  0  0  0  0
  1  2  1  0
  2  3  1  0
  3  4  2  3
  4  5  1  0
  5  6  2  0
  6  7  1  0
  7  8  2  0
  8  9  1  0
  9 10  2  0
  2 11  2  3
 11 12  1  0
 12 13  1  0
 13 14  2  0
 14 15  1  0
 15 16  1  0
 15 17  2  0
 17 18  1  0
 18 19  1  0
 18 20  2  0
 10  5  1  0
 20 13  1  0
  1 21  1  0
  1 22  1  0
  1 23  1  0
  3 24  1  0
  4 25  1  0
  6 26  1  0
  7 27  1  0
  8 28  1  0
  9 29  1  0
 10 30  1  0
 12 31  1  0
 16 32  1  0
 16 33  1  0
 16 34  1  0
 17 35  1  0
 19 36  1  0
 19 37  1  0
 19 38  1  0
M  END
$$$$
