
     RDKit          3D

 61 64  0  0  0  0  0  0  0  0999 V2000
    5.3305    5.7925    2.2109 C   0  0  0  0  0  0  0  0  0  0  0  0
    6.0496    4.5720    2.4231 O   0  0  0  0  0  0  0  0  0  0  0  0
    5.4045    3.4266    2.0430 C   0  0  0  0  0  0  0  0  0  0  0  0
    4.0161    3.2779    2.1644 C   0  0  0  0  0  0  0  0  0  0  0  0
    3.3760    2.1019    1.7533 C   0  0  0  0  0  0  0  0  0  0  0  0
    4.1138    1.0501    1.2166 C   0  0  0  0  0  0  0  0  0  0  0  0
    3.5540   -0.1627    0.7657 N   0  0  0  0  0  0  0  0  0  0  0  0
    2.2359   -0.5927    0.8830 C   0  0  0  0  0  0  0  0  0  0  0  0
    1.3250    0.0204    1.4328 O   0  0  0  0  0  0  0  0  0  0  0  0
    2.0740   -1.9843    0.2809 C   0  0  0  0  0  0  0  0  0  0  0  0
    0.3972   -2.6444    0.4074 S   0  0  0  0  0  0  0  0  0  0  0  0
   -0.4060   -1.7801   -0.8647 C   0  0  0  0  0  0  0  0  0  0  0  0
    0.1442   -0.8410   -1.6001 N   0  0  0  0  0  0  0  0  0  0  0  0
   -0.8244   -0.3299   -2.4165 N   0  0  0  0  0  0  0  0  0  0  0  0
   -1.9538   -0.9743   -2.1841 C   0  0  0  0  0  0  0  0  0  0  0  0
   -3.1748   -0.8541   -3.0418 C   0  0  0  0  0  0  0  0  0  0  0  0
   -4.2204    0.1137   -2.5631 C   0  0  0  0  0  0  0  0  0  0  0  0
   -5.5667   -0.1281   -2.3247 C   0  0  0  0  0  0  0  0  0  0  0  0
   -6.1678    1.0901   -1.9232 C   0  0  0  0  0  0  0  0  0  0  0  0
   -5.1813    2.0563   -1.9390 C   0  0  0  0  0  0  0  0  0  0  0  0
   -4.0043    1.4673   -2.3434 N   0  0  0  0  0  0  0  0  0  0  0  0
   -2.7572    2.2006   -2.5308 C   0  0  0  0  0  0  0  0  0  0  0  0
   -1.7456   -1.9146   -1.1800 N   0  0  0  0  0  0  0  0  0  0  0  0
   -2.6854   -2.8487   -0.6696 C   0  0  0  0  0  0  0  0  0  0  0  0
   -2.3705   -4.2147   -0.6103 C   0  0  0  0  0  0  0  0  0  0  0  0
   -3.3193   -5.1260   -0.1351 C   0  0  0  0  0  0  0  0  0  0  0  0
   -4.5766   -4.6852    0.3079 C   0  0  0  0  0  0  0  0  0  0  0  0
   -5.6004   -5.6709    0.7821 C   0  0  0  0  0  0  0  0  0  0  0  0
   -4.8785   -3.3195    0.2528 C   0  0  0  0  0  0  0  0  0  0  0  0
   -3.9371   -2.4019   -0.2327 C   0  0  0  0  0  0  0  0  0  0  0  0
    5.5036    1.1932    1.1035 C   0  0  0  0  0  0  0  0  0  0  0  0
    6.1571    2.3592    1.5350 C   0  0  0  0  0  0  0  0  0  0  0  0
    7.5103    2.3219    1.3344 O   0  0  0  0  0  0  0  0  0  0  0  0
    8.3137    3.0658    2.2512 C   0  0  0  0  0  0  0  0  0  0  0  0
    6.0596    6.6118    2.2149 H   0  0  0  0  0  0  0  0  0  0  0  0
    4.8198    5.8065    1.2407 H   0  0  0  0  0  0  0  0  0  0  0  0
    4.6214    5.9740    3.0258 H   0  0  0  0  0  0  0  0  0  0  0  0
    3.3995    4.0621    2.5946 H   0  0  0  0  0  0  0  0  0  0  0  0
    2.2954    2.0511    1.8481 H   0  0  0  0  0  0  0  0  0  0  0  0
    4.2092   -0.8170    0.3457 H   0  0  0  0  0  0  0  0  0  0  0  0
    2.4020   -1.9771   -0.7640 H   0  0  0  0  0  0  0  0  0  0  0  0
    2.7311   -2.6642    0.8324 H   0  0  0  0  0  0  0  0  0  0  0  0
   -2.8582   -0.5291   -4.0402 H   0  0  0  0  0  0  0  0  0  0  0  0
   -3.6241   -1.8395   -3.1998 H   0  0  0  0  0  0  0  0  0  0  0  0
   -6.0699   -1.0901   -2.4333 H   0  0  0  0  0  0  0  0  0  0  0  0
   -7.2065    1.2462   -1.6563 H   0  0  0  0  0  0  0  0  0  0  0  0
   -5.2263    3.1186   -1.7129 H   0  0  0  0  0  0  0  0  0  0  0  0
   -2.9716    3.2746   -2.5863 H   0  0  0  0  0  0  0  0  0  0  0  0
   -2.1178    2.0005   -1.6654 H   0  0  0  0  0  0  0  0  0  0  0  0
   -2.2833    1.8762   -3.4673 H   0  0  0  0  0  0  0  0  0  0  0  0
   -1.4108   -4.5975   -0.9601 H   0  0  0  0  0  0  0  0  0  0  0  0
   -3.0732   -6.1844   -0.1106 H   0  0  0  0  0  0  0  0  0  0  0  0
   -5.1196   -6.5385    1.2570 H   0  0  0  0  0  0  0  0  0  0  0  0
   -6.1990   -6.0165   -0.0640 H   0  0  0  0  0  0  0  0  0  0  0  0
   -6.2642   -5.2196    1.5289 H   0  0  0  0  0  0  0  0  0  0  0  0
   -5.8472   -2.9543    0.5975 H   0  0  0  0  0  0  0  0  0  0  0  0
   -4.1898   -1.3448   -0.2100 H   0  0  0  0  0  0  0  0  0  0  0  0
    6.1126    0.3927    0.6855 H   0  0  0  0  0  0  0  0  0  0  0  0
    9.3264    2.6439    2.2105 H   0  0  0  0  0  0  0  0  0  0  0  0
    8.3832    4.1183    1.9507 H   0  0  0  0  0  0  0  0  0  0  0  0
    7.9659    2.9598    3.2853 H   0  0  0  0  0  0  0  0  0  0  0  0
  1  2  1  0
  2  3  1  0
  3  4  2  0
  4  5  1  0
  5  6  2  0
  6  7  1  0
  7  8  1  0
  8  9  2  0
  8 10  1  0
 10 11  1  0
 11 12  1  0
 12 13  2  0
 13 14  1  0
 14 15  2  0
 15 16  1  0
 16 17  1  0
 17 18  2  0
 18 19  1  0
 19 20  2  0
 20 21  1  0
 21 22  1  0
 15 23  1  0
 23 24  1  0
 24 25  2  0
 25 26  1  0
 26 27  2  0
 27 28  1  0
 27 29  1  0
 29 30  2  0
  6 31  1  0
 31 32  2  0
 32 33  1  0
 33 34  1  0
 32  3  1  0
 23 12  1  0
 30 24  1  0
 21 17  1  0
  1 35  1  0
  1 36  1  0
  1 37  1  0
  4 38  1  0
  5 39  1  0
  7 40  1  0
 10 41  1  0
 10 42  1  0
 16 43  1  0
 16 44  1  0
 18 45  1  0
 19 46  1  0
 20 47  1  0
 22 48  1  0
 22 49  1  0
 22 50  1  0
 25 51  1  0
 26 52  1  0
 28 53  1  0
 28 54  1  0
 28 55  1  0
 29 56  1  0
 30 57  1  0
 31 58  1  0
 34 59  1  0
 34 60  1  0
 34 61  1  0
M  END
$$$$
