
     RDKit          3D

 67 72  0  0  0  0  0  0  0  0999 V2000
   -4.7179   -4.6137    1.3504 C   0  0  0  0  0  0  0  0  0  0  0  0
   -3.6411   -3.5881    1.5403 C   0  0  0  0  0  0  0  0  0  0  0  0
   -3.2334   -3.1768    2.8237 C   0  0  0  0  0  0  0  0  0  0  0  0
   -3.9447   -3.8533    4.2504 Cl  0  0  0  0  0  0  0  0  0  0  0  0
   -2.2380   -2.1958    3.0042 C   0  0  0  0  0  0  0  0  0  0  0  0
   -1.6190   -1.5945    1.9074 C   0  0  0  0  0  0  0  0  0  0  0  0
   -2.0051   -1.9953    0.6361 C   0  0  0  0  0  0  0  0  0  0  0  0
   -3.0047   -2.9683    0.4701 C   0  0  0  0  0  0  0  0  0  0  0  0
   -3.2399   -3.1726   -0.8879 N   0  0  0  0  0  0  0  0  0  0  0  0
   -2.4443   -2.3491   -1.6865 C   0  0  0  0  0  0  0  0  0  0  0  0
   -2.4863   -2.3243   -2.9090 O   0  0  0  0  0  0  0  0  0  0  0  0
   -1.5388   -1.5338   -0.7241 C   0  0  1  0  0  0  0  0  0  0  0  0
   -1.7516   -0.0738   -0.7938 C   0  0  0  0  0  0  0  0  0  0  0  0
   -0.5657    0.5937   -1.0962 C   0  0  0  0  0  0  0  0  0  0  0  0
   -0.8060    1.9395   -1.1272 C   0  0  0  0  0  0  0  0  0  0  0  0
    0.0789    2.9242   -1.2699 O   0  0  0  0  0  0  0  0  0  0  0  0
   -2.1865    2.1124   -0.9096 N   0  0  0  0  0  0  0  0  0  0  0  0
   -2.8845    3.3561   -0.8967 C   0  0  0  0  0  0  0  0  0  0  0  0
   -2.5576    4.3551   -1.8266 C   0  0  0  0  0  0  0  0  0  0  0  0
   -3.2503    5.5676   -1.8138 C   0  0  0  0  0  0  0  0  0  0  0  0
   -4.2577    5.7764   -0.8791 C   0  0  0  0  0  0  0  0  0  0  0  0
   -4.9177    6.9412   -0.8704 F   0  0  0  0  0  0  0  0  0  0  0  0
   -4.5902    4.7945    0.0474 C   0  0  0  0  0  0  0  0  0  0  0  0
   -3.9053    3.5779    0.0408 C   0  0  0  0  0  0  0  0  0  0  0  0
   -2.7641    0.8446   -0.7080 C   0  0  0  0  0  0  0  0  0  0  0  0
   -4.0664    0.6172   -0.5450 O   0  0  0  0  0  0  0  0  0  0  0  0
    0.5622   -0.3426   -1.2757 C   0  0  1  0  0  0  0  0  0  0  0  0
    1.7573   -0.0958   -0.3359 C   0  0  0  0  0  0  0  0  0  0  0  0
    2.7194   -1.2074   -0.3574 N   0  0  0  0  0  0  0  0  0  0  0  0
    4.0716   -1.0512   -0.1348 C   0  0  0  0  0  0  0  0  0  0  0  0
    4.8760   -1.9708   -0.2171 O   0  0  0  0  0  0  0  0  0  0  0  0
    4.3936    0.2283    0.1853 O   0  0  0  0  0  0  0  0  0  0  0  0
    5.7742    0.6155    0.4126 C   0  0  0  0  0  0  0  0  0  0  0  0
    5.7144    2.1229    0.7046 C   0  0  0  0  0  0  0  0  0  0  0  0
    6.6298    0.3973   -0.8424 C   0  0  0  0  0  0  0  0  0  0  0  0
    6.3586   -0.0964    1.6377 C   0  0  0  0  0  0  0  0  0  0  0  0
    2.2019   -2.5325   -0.7005 C   0  0  0  0  0  0  0  0  0  0  0  0
    0.7035   -2.6691   -0.3782 C   0  0  0  0  0  0  0  0  0  0  0  0
   -0.0978   -1.6809   -1.0926 N   0  0  0  0  0  0  0  0  0  0  0  0
   -5.6711   -4.2334    1.7317 H   0  0  0  0  0  0  0  0  0  0  0  0
   -4.8679   -4.8747    0.2995 H   0  0  0  0  0  0  0  0  0  0  0  0
   -4.4627   -5.5418    1.8741 H   0  0  0  0  0  0  0  0  0  0  0  0
   -1.9468   -1.8945    4.0088 H   0  0  0  0  0  0  0  0  0  0  0  0
   -0.8597   -0.8313    2.0499 H   0  0  0  0  0  0  0  0  0  0  0  0
   -3.9263   -3.7912   -1.2900 H   0  0  0  0  0  0  0  0  0  0  0  0
   -0.3034    3.7553   -0.9357 H   0  0  0  0  0  0  0  0  0  0  0  0
   -1.8059    4.1911   -2.5976 H   0  0  0  0  0  0  0  0  0  0  0  0
   -3.0206    6.3468   -2.5349 H   0  0  0  0  0  0  0  0  0  0  0  0
   -5.3746    4.9863    0.7732 H   0  0  0  0  0  0  0  0  0  0  0  0
   -4.1520    2.8366    0.7990 H   0  0  0  0  0  0  0  0  0  0  0  0
   -4.5687    1.3459   -0.9519 H   0  0  0  0  0  0  0  0  0  0  0  0
    0.9136   -0.3001   -2.3148 H   0  0  0  0  0  0  0  0  0  0  0  0
    1.4219    0.0051    0.7042 H   0  0  0  0  0  0  0  0  0  0  0  0
    2.2544    0.8428   -0.6044 H   0  0  0  0  0  0  0  0  0  0  0  0
    5.0963    2.3247    1.5880 H   0  0  0  0  0  0  0  0  0  0  0  0
    5.2488    2.6643   -0.1277 H   0  0  0  0  0  0  0  0  0  0  0  0
    6.7117    2.5439    0.8764 H   0  0  0  0  0  0  0  0  0  0  0  0
    6.1486    0.8384   -1.7224 H   0  0  0  0  0  0  0  0  0  0  0  0
    7.6258    0.8440   -0.7313 H   0  0  0  0  0  0  0  0  0  0  0  0
    6.7724   -0.6661   -1.0604 H   0  0  0  0  0  0  0  0  0  0  0  0
    6.4678   -1.1736    1.4753 H   0  0  0  0  0  0  0  0  0  0  0  0
    7.3491    0.2991    1.8915 H   0  0  0  0  0  0  0  0  0  0  0  0
    5.7016    0.0235    2.5089 H   0  0  0  0  0  0  0  0  0  0  0  0
    2.7707   -3.2992   -0.1626 H   0  0  0  0  0  0  0  0  0  0  0  0
    2.3782   -2.6838   -1.7722 H   0  0  0  0  0  0  0  0  0  0  0  0
    0.6025   -2.5584    0.7063 H   0  0  0  0  0  0  0  0  0  0  0  0
    0.3691   -3.6781   -0.6442 H   0  0  0  0  0  0  0  0  0  0  0  0
  1  2  1  0
  2  3  2  0
  3  4  1  0
  3  5  1  0
  5  6  2  0
  6  7  1  0
  7  8  2  0
  8  9  1  0
  9 10  1  0
 10 11  2  0
 10 12  1  0
 12 13  1  0
 13 14  1  0
 14 15  2  0
 15 16  1  0
 15 17  1  0
 17 18  1  0
 18 19  2  0
 19 20  1  0
 20 21  2  0
 21 22  1  0
 21 23  1  0
 23 24  2  0
 17 25  1  0
 25 26  1  0
 14 27  1  0
 27 28  1  0
 28 29  1  0
 29 30  1  0
 30 31  2  0
 30 32  1  0
 32 33  1  0
 33 34  1  0
 33 35  1  0
 33 36  1  0
 29 37  1  0
 37 38  1  0
 38 39  1  0
  8  2  1  0
 12 39  1  6
 12  7  1  0
 25 13  2  0
 39 27  1  0
 24 18  1  0
  1 40  1  0
  1 41  1  0
  1 42  1  0
  5 43  1  0
  6 44  1  0
  9 45  1  0
 16 46  1  0
 19 47  1  0
 20 48  1  0
 23 49  1  0
 24 50  1  0
 26 51  1  0
 27 52  1  6
 28 53  1  0
 28 54  1  0
 34 55  1  0
 34 56  1  0
 34 57  1  0
 35 58  1  0
 35 59  1  0
 35 60  1  0
 36 61  1  0
 36 62  1  0
 36 63  1  0
 37 64  1  0
 37 65  1  0
 38 66  1  0
 38 67  1  0
M  END
$$$$
