
     RDKit          3D

125128  0  0  0  0  0  0  0  0999 V2000
   -0.3587    6.6866   -1.5765 C   0  0  0  0  0  0  0  0  0  0  0  0
   -1.4336    5.7711   -2.1499 C   0  0  0  0  0  0  0  0  0  0  0  0
   -1.6146    4.5015   -1.3274 C   0  0  0  0  0  0  0  0  0  0  0  0
   -2.6513    4.4480   -0.4629 C   0  0  0  0  0  0  0  0  0  0  0  0
   -3.1508    3.3861    0.4935 C   0  0  0  0  0  0  0  0  0  0  0  0
   -2.6085    3.6903    1.8923 C   0  0  0  0  0  0  0  0  0  0  0  0
   -4.6926    3.3327    0.4645 C   0  0  0  0  0  0  0  0  0  0  0  0
   -5.2900    2.2000    1.3328 C   0  0  0  0  0  0  0  0  0  0  0  0
   -5.9820    2.7874    2.5704 C   0  0  0  0  0  0  0  0  0  0  0  0
   -6.3070    1.3547    0.5397 C   0  0  0  0  0  0  0  0  0  0  0  0
   -5.7034    0.4299   -0.5486 C   0  0  0  0  0  0  0  0  0  0  0  0
   -6.7412    0.1916   -1.5116 O   0  0  0  0  0  0  0  0  0  0  0  0
   -6.7016    1.0992   -2.6030 C   0  0  0  0  0  0  0  0  0  0  0  0
   -5.2046   -0.9197    0.0546 C   0  0  0  0  0  0  0  0  0  0  0  0
   -4.0143   -0.6529    0.8113 O   0  0  0  0  0  0  0  0  0  0  0  0
   -3.5269   -1.7424    1.5881 C   0  0  0  0  0  0  0  0  0  0  0  0
   -4.0074   -1.5311    2.9244 O   0  0  0  0  0  0  0  0  0  0  0  0
   -1.9879   -1.6043    1.6449 C   0  0  0  0  0  0  0  0  0  0  0  0
   -1.3991   -1.0318    2.5619 O   0  0  0  0  0  0  0  0  0  0  0  0
   -1.1937   -2.1240    0.4555 C   0  0  0  0  0  0  0  0  0  0  0  0
   -1.5156   -1.7246   -0.6573 O   0  0  0  0  0  0  0  0  0  0  0  0
   -0.1507   -3.0298    0.6941 N   0  0  0  0  0  0  0  0  0  0  0  0
    0.3657   -3.2986    2.0398 C   0  0  0  0  0  0  0  0  0  0  0  0
    1.0060   -4.6777    2.1687 C   0  0  0  0  0  0  0  0  0  0  0  0
    2.0074   -4.9432    1.0531 C   0  0  0  0  0  0  0  0  0  0  0  0
    1.3300   -4.7629   -0.3028 C   0  0  0  0  0  0  0  0  0  0  0  0
    0.7284   -3.3592   -0.4518 C   0  0  0  0  0  0  0  0  0  0  0  0
    1.8469   -2.3353   -0.7535 C   0  0  0  0  0  0  0  0  0  0  0  0
    2.7329   -2.5291   -1.5787 O   0  0  0  0  0  0  0  0  0  0  0  0
    1.6942   -1.1958   -0.0249 O   0  0  0  0  0  0  0  0  0  0  0  0
    2.5493   -0.0831   -0.3784 C   0  0  0  0  0  0  0  0  0  0  0  0
    3.7531   -0.1095    0.5691 C   0  0  0  0  0  0  0  0  0  0  0  0
    3.4408   -0.0364    2.0413 C   0  0  0  0  0  0  0  0  0  0  0  0
    4.9953   -0.1987    0.0476 C   0  0  0  0  0  0  0  0  0  0  0  0
    6.3316   -0.2306    0.7631 C   0  0  0  0  0  0  0  0  0  0  0  0
    7.1162    1.0584    0.4867 C   0  0  0  0  0  0  0  0  0  0  0  0
    7.6146    1.1843   -0.9551 C   0  0  0  0  0  0  0  0  0  0  0  0
    7.9279   -0.1582   -1.6225 C   0  0  0  0  0  0  0  0  0  0  0  0
    9.0170    0.0288   -2.5323 O   0  0  0  0  0  0  0  0  0  0  0  0
    8.2862   -1.2560   -0.6084 C   0  0  0  0  0  0  0  0  0  0  0  0
    9.4777   -0.8218    0.0776 O   0  0  0  0  0  0  0  0  0  0  0  0
   10.2303   -1.8909    0.6387 C   0  0  0  0  0  0  0  0  0  0  0  0
    7.1340   -1.4963    0.3792 C   0  0  0  0  0  0  0  0  0  0  0  0
    1.6899    1.2159   -0.2949 C   0  0  0  0  0  0  0  0  0  0  0  0
    2.5418    2.4684   -0.5182 C   0  0  0  0  0  0  0  0  0  0  0  0
    0.4996    1.1117   -1.2885 C   0  0  0  0  0  0  0  0  0  0  0  0
    0.9391    1.1600   -2.6419 O   0  0  0  0  0  0  0  0  0  0  0  0
   -0.6672    2.0691   -1.0028 C   0  0  0  0  0  0  0  0  0  0  0  0
   -0.5753    3.4433   -1.6241 C   0  0  0  0  0  0  0  0  0  0  0  0
    0.3362    3.7074   -2.4147 O   0  0  0  0  0  0  0  0  0  0  0  0
   -4.0823   -3.1160    1.1453 C   0  0  0  0  0  0  0  0  0  0  0  0
   -3.3653   -4.3245    1.7571 C   0  0  0  0  0  0  0  0  0  0  0  0
   -4.2246   -3.2411   -0.3761 C   0  0  0  0  0  0  0  0  0  0  0  0
   -4.8825   -1.9985   -1.0145 C   0  0  0  0  0  0  0  0  0  0  0  0
   -6.0732   -2.4486   -1.6741 O   0  0  0  0  0  0  0  0  0  0  0  0
   -5.8393   -2.8178   -3.0267 C   0  0  0  0  0  0  0  0  0  0  0  0
    0.6342    6.2398   -1.6530 H   0  0  0  0  0  0  0  0  0  0  0  0
   -0.5512    6.9147   -0.5240 H   0  0  0  0  0  0  0  0  0  0  0  0
   -0.3426    7.6320   -2.1239 H   0  0  0  0  0  0  0  0  0  0  0  0
   -2.3742    6.3334   -2.1926 H   0  0  0  0  0  0  0  0  0  0  0  0
   -1.2009    5.5244   -3.1924 H   0  0  0  0  0  0  0  0  0  0  0  0
   -3.2588    5.3541   -0.3981 H   0  0  0  0  0  0  0  0  0  0  0  0
   -2.8173    2.3946    0.1885 H   0  0  0  0  0  0  0  0  0  0  0  0
   -3.0236    4.6254    2.2889 H   0  0  0  0  0  0  0  0  0  0  0  0
   -2.8485    2.8837    2.5961 H   0  0  0  0  0  0  0  0  0  0  0  0
   -1.5175    3.7941    1.8807 H   0  0  0  0  0  0  0  0  0  0  0  0
   -5.0954    4.3011    0.7862 H   0  0  0  0  0  0  0  0  0  0  0  0
   -5.0068    3.2103   -0.5781 H   0  0  0  0  0  0  0  0  0  0  0  0
   -4.4968    1.5442    1.6922 H   0  0  0  0  0  0  0  0  0  0  0  0
   -6.3420    1.9878    3.2245 H   0  0  0  0  0  0  0  0  0  0  0  0
   -6.8383    3.4067    2.2873 H   0  0  0  0  0  0  0  0  0  0  0  0
   -5.2952    3.4083    3.1541 H   0  0  0  0  0  0  0  0  0  0  0  0
   -6.8943    0.7331    1.2282 H   0  0  0  0  0  0  0  0  0  0  0  0
   -7.0388    2.0347    0.0858 H   0  0  0  0  0  0  0  0  0  0  0  0
   -4.8526    0.9201   -1.0358 H   0  0  0  0  0  0  0  0  0  0  0  0
   -5.7494    1.0030   -3.1351 H   0  0  0  0  0  0  0  0  0  0  0  0
   -7.5119    0.8474   -3.2932 H   0  0  0  0  0  0  0  0  0  0  0  0
   -6.8441    2.1284   -2.2641 H   0  0  0  0  0  0  0  0  0  0  0  0
   -6.0007   -1.2935    0.7136 H   0  0  0  0  0  0  0  0  0  0  0  0
   -3.4129   -0.8605    3.3137 H   0  0  0  0  0  0  0  0  0  0  0  0
    1.0923   -2.5163    2.2797 H   0  0  0  0  0  0  0  0  0  0  0  0
   -0.4392   -3.2328    2.7777 H   0  0  0  0  0  0  0  0  0  0  0  0
    1.4983   -4.7697    3.1425 H   0  0  0  0  0  0  0  0  0  0  0  0
    0.2200   -5.4435    2.1337 H   0  0  0  0  0  0  0  0  0  0  0  0
    2.8598   -4.2588    1.1436 H   0  0  0  0  0  0  0  0  0  0  0  0
    2.3949   -5.9642    1.1392 H   0  0  0  0  0  0  0  0  0  0  0  0
    2.0522   -4.9667   -1.1017 H   0  0  0  0  0  0  0  0  0  0  0  0
    0.5271   -5.5059   -0.4012 H   0  0  0  0  0  0  0  0  0  0  0  0
    0.1027   -3.3569   -1.3547 H   0  0  0  0  0  0  0  0  0  0  0  0
    2.8787   -0.1854   -1.4216 H   0  0  0  0  0  0  0  0  0  0  0  0
    4.3269   -0.0689    2.6789 H   0  0  0  0  0  0  0  0  0  0  0  0
    2.8038   -0.8775    2.3406 H   0  0  0  0  0  0  0  0  0  0  0  0
    2.9184    0.8966    2.2726 H   0  0  0  0  0  0  0  0  0  0  0  0
    5.0609   -0.2543   -1.0394 H   0  0  0  0  0  0  0  0  0  0  0  0
    6.1620   -0.2844    1.8427 H   0  0  0  0  0  0  0  0  0  0  0  0
    7.9804    1.0918    1.1648 H   0  0  0  0  0  0  0  0  0  0  0  0
    6.5123    1.9402    0.7402 H   0  0  0  0  0  0  0  0  0  0  0  0
    8.4887    1.8453   -0.9740 H   0  0  0  0  0  0  0  0  0  0  0  0
    6.8528    1.6977   -1.5585 H   0  0  0  0  0  0  0  0  0  0  0  0
    7.0676   -0.4831   -2.2192 H   0  0  0  0  0  0  0  0  0  0  0  0
    9.8029    0.1502   -1.9639 H   0  0  0  0  0  0  0  0  0  0  0  0
    8.5245   -2.1769   -1.1531 H   0  0  0  0  0  0  0  0  0  0  0  0
    9.6787   -2.3762    1.4494 H   0  0  0  0  0  0  0  0  0  0  0  0
   10.4959   -2.6247   -0.1308 H   0  0  0  0  0  0  0  0  0  0  0  0
   11.1527   -1.4720    1.0553 H   0  0  0  0  0  0  0  0  0  0  0  0
    7.5263   -1.9354    1.3032 H   0  0  0  0  0  0  0  0  0  0  0  0
    6.4550   -2.2472   -0.0468 H   0  0  0  0  0  0  0  0  0  0  0  0
    1.2569    1.2668    0.7130 H   0  0  0  0  0  0  0  0  0  0  0  0
    3.3520    2.5379    0.2146 H   0  0  0  0  0  0  0  0  0  0  0  0
    1.9406    3.3747   -0.3970 H   0  0  0  0  0  0  0  0  0  0  0  0
    2.9950    2.4739   -1.5167 H   0  0  0  0  0  0  0  0  0  0  0  0
    0.0687    0.1172   -1.1728 H   0  0  0  0  0  0  0  0  0  0  0  0
    1.0668    2.1072   -2.8750 H   0  0  0  0  0  0  0  0  0  0  0  0
   -0.7685    2.1604    0.0807 H   0  0  0  0  0  0  0  0  0  0  0  0
   -1.5750    1.6126   -1.4197 H   0  0  0  0  0  0  0  0  0  0  0  0
   -5.1047   -3.1849    1.5492 H   0  0  0  0  0  0  0  0  0  0  0  0
   -3.9437   -5.2382    1.5807 H   0  0  0  0  0  0  0  0  0  0  0  0
   -3.2448   -4.2067    2.8411 H   0  0  0  0  0  0  0  0  0  0  0  0
   -2.3798   -4.4813    1.3136 H   0  0  0  0  0  0  0  0  0  0  0  0
   -4.8167   -4.1397   -0.5955 H   0  0  0  0  0  0  0  0  0  0  0  0
   -3.2514   -3.4211   -0.8443 H   0  0  0  0  0  0  0  0  0  0  0  0
   -4.1805   -1.5605   -1.7421 H   0  0  0  0  0  0  0  0  0  0  0  0
   -6.7821   -3.1619   -3.4577 H   0  0  0  0  0  0  0  0  0  0  0  0
   -5.4931   -1.9551   -3.6061 H   0  0  0  0  0  0  0  0  0  0  0  0
   -5.1032   -3.6259   -3.0881 H   0  0  0  0  0  0  0  0  0  0  0  0
  1  2  1  0
  2  3  1  0
  3  4  2  3
  4  5  1  0
  5  6  1  0
  5  7  1  0
  7  8  1  0
  8  9  1  0
  8 10  1  0
 10 11  1  0
 11 12  1  0
 12 13  1  0
 11 14  1  0
 14 15  1  0
 15 16  1  0
 16 17  1  0
 16 18  1  0
 18 19  2  0
 18 20  1  0
 20 21  2  0
 20 22  1  0
 22 23  1  0
 23 24  1  0
 24 25  1  0
 25 26  1  0
 26 27  1  0
 27 28  1  0
 28 29  2  0
 28 30  1  0
 30 31  1  0
 31 32  1  0
 32 33  1  0
 32 34  2  3
 34 35  1  0
 35 36  1  0
 36 37  1  0
 37 38  1  0
 38 39  1  0
 38 40  1  0
 40 41  1  0
 41 42  1  0
 40 43  1  0
 31 44  1  0
 44 45  1  0
 44 46  1  0
 46 47  1  0
 46 48  1  0
 48 49  1  0
 49 50  2  0
 16 51  1  0
 51 52  1  0
 51 53  1  0
 53 54  1  0
 54 55  1  0
 55 56  1  0
 49  3  1  0
 54 14  1  0
 27 22  1  0
 43 35  1  0
  1 57  1  0
  1 58  1  0
  1 59  1  0
  2 60  1  0
  2 61  1  0
  4 62  1  0
  5 63  1  0
  6 64  1  0
  6 65  1  0
  6 66  1  0
  7 67  1  0
  7 68  1  0
  8 69  1  0
  9 70  1  0
  9 71  1  0
  9 72  1  0
 10 73  1  0
 10 74  1  0
 11 75  1  0
 13 76  1  0
 13 77  1  0
 13 78  1  0
 14 79  1  0
 17 80  1  0
 23 81  1  0
 23 82  1  0
 24 83  1  0
 24 84  1  0
 25 85  1  0
 25 86  1  0
 26 87  1  0
 26 88  1  0
 27 89  1  0
 31 90  1  0
 33 91  1  0
 33 92  1  0
 33 93  1  0
 34 94  1  0
 35 95  1  0
 36 96  1  0
 36 97  1  0
 37 98  1  0
 37 99  1  0
 38100  1  0
 39101  1  0
 40102  1  0
 42103  1  0
 42104  1  0
 42105  1  0
 43106  1  0
 43107  1  0
 44108  1  0
 45109  1  0
 45110  1  0
 45111  1  0
 46112  1  0
 47113  1  0
 48114  1  0
 48115  1  0
 51116  1  0
 52117  1  0
 52118  1  0
 52119  1  0
 53120  1  0
 53121  1  0
 54122  1  0
 56123  1  0
 56124  1  0
 56125  1  0
M  END
$$$$
