
     RDKit          3D

 59 63  0  0  0  0  0  0  0  0999 V2000
   -4.4911   -3.8057   -1.8313 C   0  0  0  0  0  0  0  0  0  0  0  0
   -4.4192   -2.2875   -1.7273 C   0  0  0  0  0  0  0  0  0  0  0  0
   -3.0430   -1.7764   -1.2759 C   0  0  0  0  0  0  0  0  0  0  0  0
   -2.7879   -2.1857    0.1030 N   0  0  0  0  0  0  0  0  0  0  0  0
   -1.5625   -1.7018    0.5742 C   0  0  0  0  0  0  0  0  0  0  0  0
   -0.9347   -2.5102    1.4368 N   0  0  0  0  0  0  0  0  0  0  0  0
    0.2005   -2.0350    1.9476 C   0  0  0  0  0  0  0  0  0  0  0  0
    0.7816   -0.8728    1.6293 N   0  0  0  0  0  0  0  0  0  0  0  0
    0.1725   -0.0943    0.7095 C   0  0  0  0  0  0  0  0  0  0  0  0
    0.8951    1.0214    0.2439 N   0  0  0  0  0  0  0  0  0  0  0  0
    1.9849    1.4935    1.1370 C   0  0  0  0  0  0  0  0  0  0  0  0
    3.3085    0.6967    1.0031 C   0  0  0  0  0  0  0  0  0  0  0  0
    3.7241    0.5880   -0.4170 N   0  0  0  0  0  0  0  0  0  0  0  0
    4.9503   -0.0953   -0.5660 C   0  0  0  0  0  0  0  0  0  0  0  0
    6.1133    0.4450   -0.0096 C   0  0  0  0  0  0  0  0  0  0  0  0
    7.3325   -0.2158   -0.1592 C   0  0  0  0  0  0  0  0  0  0  0  0
    7.3727   -1.4054   -0.8692 C   0  0  0  0  0  0  0  0  0  0  0  0
    6.1886   -1.8728   -1.4081 C   0  0  0  0  0  0  0  0  0  0  0  0
    4.9983   -1.2438   -1.2776 N   0  0  0  0  0  0  0  0  0  0  0  0
    2.6537    0.0071   -1.2592 C   0  0  0  0  0  0  0  0  0  0  0  0
    1.3703    0.8584   -1.1592 C   0  0  0  0  0  0  0  0  0  0  0  0
   -1.0854   -0.4414    0.1883 C   0  0  0  0  0  0  0  0  0  0  0  0
   -1.9007    0.3624   -0.6906 N   0  0  0  0  0  0  0  0  0  0  0  0
   -1.8892    1.8221   -0.6069 C   0  0  0  0  0  0  0  0  0  0  0  0
   -2.6922    2.3427    0.5704 C   0  0  0  0  0  0  0  0  0  0  0  0
   -4.0709    2.5786    0.4425 C   0  0  0  0  0  0  0  0  0  0  0  0
   -4.8171    3.0418    1.5279 C   0  0  0  0  0  0  0  0  0  0  0  0
   -4.1906    3.2646    2.7513 C   0  0  0  0  0  0  0  0  0  0  0  0
   -5.2011    3.8863    4.2246 Br  0  0  0  0  0  0  0  0  0  0  0  0
   -2.8251    3.0295    2.8987 C   0  0  0  0  0  0  0  0  0  0  0  0
   -2.0789    2.5712    1.8109 C   0  0  0  0  0  0  0  0  0  0  0  0
   -2.9648   -0.2325   -1.3879 C   0  0  0  0  0  0  0  0  0  0  0  0
   -3.7351    0.4091   -2.1049 O   0  0  0  0  0  0  0  0  0  0  0  0
   -4.3766   -4.2824   -0.8524 H   0  0  0  0  0  0  0  0  0  0  0  0
   -3.7113   -4.1919   -2.4981 H   0  0  0  0  0  0  0  0  0  0  0  0
   -5.4633   -4.1082   -2.2360 H   0  0  0  0  0  0  0  0  0  0  0  0
   -5.1984   -1.9368   -1.0389 H   0  0  0  0  0  0  0  0  0  0  0  0
   -4.6617   -1.8724   -2.7135 H   0  0  0  0  0  0  0  0  0  0  0  0
   -2.2743   -2.1881   -1.9441 H   0  0  0  0  0  0  0  0  0  0  0  0
   -2.8360   -3.1767    0.3174 H   0  0  0  0  0  0  0  0  0  0  0  0
    0.7092   -2.6534    2.6796 H   0  0  0  0  0  0  0  0  0  0  0  0
    1.6543    1.5164    2.1830 H   0  0  0  0  0  0  0  0  0  0  0  0
    2.1881    2.5386    0.8660 H   0  0  0  0  0  0  0  0  0  0  0  0
    4.0652    1.2281    1.5923 H   0  0  0  0  0  0  0  0  0  0  0  0
    3.2060   -0.3048    1.4374 H   0  0  0  0  0  0  0  0  0  0  0  0
    6.0793    1.3899    0.5217 H   0  0  0  0  0  0  0  0  0  0  0  0
    8.2391    0.2013    0.2719 H   0  0  0  0  0  0  0  0  0  0  0  0
    8.3006   -1.9482   -1.0068 H   0  0  0  0  0  0  0  0  0  0  0  0
    6.1596   -2.7951   -1.9805 H   0  0  0  0  0  0  0  0  0  0  0  0
    2.9630   -0.0040   -2.3119 H   0  0  0  0  0  0  0  0  0  0  0  0
    2.4330   -1.0234   -0.9517 H   0  0  0  0  0  0  0  0  0  0  0  0
    1.5810    1.8611   -1.5534 H   0  0  0  0  0  0  0  0  0  0  0  0
    0.5973    0.4323   -1.8081 H   0  0  0  0  0  0  0  0  0  0  0  0
   -0.8834    2.2395   -0.5885 H   0  0  0  0  0  0  0  0  0  0  0  0
   -2.3231    2.2358   -1.5273 H   0  0  0  0  0  0  0  0  0  0  0  0
   -4.5743    2.3960   -0.5082 H   0  0  0  0  0  0  0  0  0  0  0  0
   -5.8842    3.2183    1.4078 H   0  0  0  0  0  0  0  0  0  0  0  0
   -2.3323    3.1960    3.8539 H   0  0  0  0  0  0  0  0  0  0  0  0
   -1.0143    2.3900    1.9395 H   0  0  0  0  0  0  0  0  0  0  0  0
  1  2  1  0
  2  3  1  0
  3  4  1  0
  4  5  1  0
  5  6  2  0
  6  7  1  0
  7  8  2  0
  8  9  1  0
  9 10  1  0
 10 11  1  0
 11 12  1  0
 12 13  1  0
 13 14  1  0
 14 15  2  0
 15 16  1  0
 16 17  2  0
 17 18  1  0
 18 19  2  0
 13 20  1  0
 20 21  1  0
  9 22  2  0
 22 23  1  0
 23 24  1  0
 24 25  1  0
 25 26  2  0
 26 27  1  0
 27 28  2  0
 28 29  1  0
 28 30  1  0
 30 31  2  0
 23 32  1  0
 32 33  2  0
 32  3  1  0
 22  5  1  0
 31 25  1  0
 21 10  1  0
 19 14  1  0
  1 34  1  0
  1 35  1  0
  1 36  1  0
  2 37  1  0
  2 38  1  0
  3 39  1  0
  4 40  1  0
  7 41  1  0
 11 42  1  0
 11 43  1  0
 12 44  1  0
 12 45  1  0
 15 46  1  0
 16 47  1  0
 17 48  1  0
 18 49  1  0
 20 50  1  0
 20 51  1  0
 21 52  1  0
 21 53  1  0
 24 54  1  0
 24 55  1  0
 26 56  1  0
 27 57  1  0
 30 58  1  0
 31 59  1  0
M  END
$$$$
