
     RDKit          3D

 57 61  0  0  0  0  0  0  0  0999 V2000
    2.7796    5.2459   -0.6724 O   0  0  0  0  0  0  0  0  0  0  0  0
    2.5861    4.0384   -0.5877 C   0  0  0  0  0  0  0  0  0  0  0  0
    1.4949    3.5149    0.0958 N   0  0  0  0  0  0  0  0  0  0  0  0
    1.2362    2.1524    0.2350 C   0  0  0  0  0  0  0  0  0  0  0  0
   -0.0344    1.8249    1.0103 C   0  0  0  0  0  0  0  0  0  0  0  0
   -1.2461    2.0692    0.0966 C   0  0  0  0  0  0  0  0  0  0  0  0
   -2.4154    1.1626    0.4526 C   0  0  0  0  0  0  0  0  0  0  0  0
   -2.0509   -0.2729    0.3189 N   0  0  0  0  0  0  0  0  0  0  0  0
   -2.6955   -1.1039   -1.0174 S   0  0  0  0  0  6  0  0  0  0  0  0
   -2.4797   -0.2527   -2.1695 O   0  0  0  0  0  0  0  0  0  0  0  0
   -2.2373   -2.4733   -1.0107 O   0  0  0  0  0  0  0  0  0  0  0  0
   -4.4453   -1.1398   -0.6734 C   0  0  0  0  0  0  0  0  0  0  0  0
   -5.3054   -0.7270   -1.7065 C   0  0  0  0  0  0  0  0  0  0  0  0
   -6.6847   -0.7131   -1.5116 C   0  0  0  0  0  0  0  0  0  0  0  0
   -7.2130   -1.1067   -0.2877 C   0  0  0  0  0  0  0  0  0  0  0  0
   -6.3619   -1.5177    0.7407 C   0  0  0  0  0  0  0  0  0  0  0  0
   -4.9609   -1.5524    0.5698 C   0  0  0  0  0  0  0  0  0  0  0  0
   -4.1145   -1.9786    1.7483 C   0  0  0  0  0  0  0  0  0  0  0  0
   -3.0266   -2.7266    1.4474 F   0  0  0  0  0  0  0  0  0  0  0  0
   -4.8228   -2.7388    2.6385 F   0  0  0  0  0  0  0  0  0  0  0  0
   -3.6739   -0.9152    2.4777 F   0  0  0  0  0  0  0  0  0  0  0  0
   -0.6220   -0.5951    0.5884 C   0  0  0  0  0  0  0  0  0  0  0  0
   -0.0243    0.3979    1.5780 C   0  0  0  0  0  0  0  0  0  0  0  0
    1.9738    1.2131   -0.2893 N   0  0  0  0  0  0  0  0  0  0  0  0
    3.0471    1.6982   -0.9597 C   0  0  0  0  0  0  0  0  0  0  0  0
    3.4146    3.0079   -1.1515 C   0  0  0  0  0  0  0  0  0  0  0  0
    4.5600    3.0823   -1.8820 N   0  0  0  0  0  0  0  0  0  0  0  0
    4.9335    1.8331   -2.1621 N   0  0  0  0  0  0  0  0  0  0  0  0
    4.0273    0.9953   -1.5996 N   0  0  0  0  0  0  0  0  0  0  0  0
    4.1429   -0.4399   -1.7539 C   0  0  0  0  0  0  0  0  0  0  0  0
    4.6755   -1.0885   -0.5004 C   0  0  0  0  0  0  0  0  0  0  0  0
    6.0436   -1.0255   -0.1875 C   0  0  0  0  0  0  0  0  0  0  0  0
    6.5334   -1.6101    0.9835 C   0  0  0  0  0  0  0  0  0  0  0  0
    5.6613   -2.2599    1.8550 C   0  0  0  0  0  0  0  0  0  0  0  0
    4.3067   -2.3173    1.5506 C   0  0  0  0  0  0  0  0  0  0  0  0
    3.4662   -2.9326    2.3929 F   0  0  0  0  0  0  0  0  0  0  0  0
    3.8074   -1.7409    0.3873 C   0  0  0  0  0  0  0  0  0  0  0  0
    0.8912    4.2064    0.5154 H   0  0  0  0  0  0  0  0  0  0  0  0
   -0.0835    2.5206    1.8591 H   0  0  0  0  0  0  0  0  0  0  0  0
   -1.5557    3.1185    0.1757 H   0  0  0  0  0  0  0  0  0  0  0  0
   -0.9740    1.9104   -0.9555 H   0  0  0  0  0  0  0  0  0  0  0  0
   -2.7343    1.3389    1.4868 H   0  0  0  0  0  0  0  0  0  0  0  0
   -3.2768    1.4132   -0.1751 H   0  0  0  0  0  0  0  0  0  0  0  0
   -4.9075   -0.4180   -2.6725 H   0  0  0  0  0  0  0  0  0  0  0  0
   -7.3458   -0.3974   -2.3159 H   0  0  0  0  0  0  0  0  0  0  0  0
   -8.2897   -1.0968   -0.1316 H   0  0  0  0  0  0  0  0  0  0  0  0
   -6.8042   -1.8186    1.6914 H   0  0  0  0  0  0  0  0  0  0  0  0
   -0.0511   -0.5963   -0.3466 H   0  0  0  0  0  0  0  0  0  0  0  0
   -0.5697   -1.6001    1.0214 H   0  0  0  0  0  0  0  0  0  0  0  0
    0.9891    0.0871    1.8577 H   0  0  0  0  0  0  0  0  0  0  0  0
   -0.6169    0.3789    2.5026 H   0  0  0  0  0  0  0  0  0  0  0  0
    3.1513   -0.8272   -2.0150 H   0  0  0  0  0  0  0  0  0  0  0  0
    4.8039   -0.6472   -2.6034 H   0  0  0  0  0  0  0  0  0  0  0  0
    6.7368   -0.5107   -0.8527 H   0  0  0  0  0  0  0  0  0  0  0  0
    7.5938   -1.5526    1.2167 H   0  0  0  0  0  0  0  0  0  0  0  0
    6.0271   -2.7169    2.7687 H   0  0  0  0  0  0  0  0  0  0  0  0
    2.7404   -1.7996    0.1904 H   0  0  0  0  0  0  0  0  0  0  0  0
  1  2  2  0
  2  3  1  0
  3  4  1  0
  4  5  1  0
  5  6  1  0
  6  7  1  0
  7  8  1  0
  8  9  1  0
  9 10  2  0
  9 11  2  0
  9 12  1  0
 12 13  2  0
 13 14  1  0
 14 15  2  0
 15 16  1  0
 16 17  2  0
 17 18  1  0
 18 19  1  0
 18 20  1  0
 18 21  1  0
  8 22  1  0
 22 23  1  0
  4 24  2  0
 24 25  1  0
 25 26  2  0
 26 27  1  0
 27 28  2  0
 28 29  1  0
 29 30  1  0
 30 31  1  0
 31 32  2  0
 32 33  1  0
 33 34  2  0
 34 35  1  0
 35 36  1  0
 35 37  2  0
 26  2  1  0
 37 31  1  0
 23  5  1  0
 29 25  1  0
 17 12  1  0
  3 38  1  0
  5 39  1  0
  6 40  1  0
  6 41  1  0
  7 42  1  0
  7 43  1  0
 13 44  1  0
 14 45  1  0
 15 46  1  0
 16 47  1  0
 22 48  1  0
 22 49  1  0
 23 50  1  0
 23 51  1  0
 30 52  1  0
 30 53  1  0
 32 54  1  0
 33 55  1  0
 34 56  1  0
 37 57  1  0
M  END
$$$$
