
     RDKit          3D

 57 60  0  0  0  0  0  0  0  0999 V2000
   -7.0105    4.4861   -0.0743 C   0  0  0  0  0  0  0  0  0  0  0  0
   -7.4344    3.1090    0.4140 C   0  0  0  0  0  0  0  0  0  0  0  0
   -6.3152    2.1050    0.3073 C   0  0  0  0  0  0  0  0  0  0  0  0
   -6.1698    1.3203   -0.8397 C   0  0  0  0  0  0  0  0  0  0  0  0
   -5.1265    0.3936   -0.9373 C   0  0  0  0  0  0  0  0  0  0  0  0
   -4.1880    0.2274    0.0974 C   0  0  0  0  0  0  0  0  0  0  0  0
   -3.0877   -0.7517   -0.0312 C   0  0  0  0  0  0  0  0  0  0  0  0
   -1.8435   -0.5683    0.5449 C   0  0  0  0  0  0  0  0  0  0  0  0
   -0.8692   -1.5502    0.3590 C   0  0  0  0  0  0  0  0  0  0  0  0
    0.4605   -1.2651    0.9485 C   0  0  0  0  0  0  0  0  0  0  0  0
    0.5153   -1.0000    2.1418 O   0  0  0  0  0  0  0  0  0  0  0  0
    1.4964   -1.2704    0.0342 N   0  0  0  0  0  0  0  0  0  0  0  0
    2.8635   -1.0409    0.2894 C   0  0  0  0  0  0  0  0  0  0  0  0
    3.7298   -1.0530   -0.8128 C   0  0  0  0  0  0  0  0  0  0  0  0
    5.0994   -0.8305   -0.6473 C   0  0  0  0  0  0  0  0  0  0  0  0
    5.6071   -0.5811    0.6277 C   0  0  0  0  0  0  0  0  0  0  0  0
    7.3460   -0.3120    0.8494 S   0  0  0  0  0  6  0  0  0  0  0  0
    8.0644   -0.8996   -0.2582 O   0  0  0  0  0  0  0  0  0  0  0  0
    7.6717   -0.6665    2.2166 O   0  0  0  0  0  0  0  0  0  0  0  0
    7.4834    1.3421    0.7881 N   0  0  0  0  0  0  0  0  0  0  0  0
    7.2477    2.1362   -0.3398 C   0  0  0  0  0  0  0  0  0  0  0  0
    7.5047    3.6003   -0.1172 C   0  0  0  0  0  0  0  0  0  0  0  0
    6.8446    1.6958   -1.4054 O   0  0  0  0  0  0  0  0  0  0  0  0
    4.7600   -0.5881    1.7375 C   0  0  0  0  0  0  0  0  0  0  0  0
    3.3907   -0.8167    1.5640 C   0  0  0  0  0  0  0  0  0  0  0  0
   -1.1486   -2.7327   -0.3599 C   0  0  0  0  0  0  0  0  0  0  0  0
   -0.2526   -3.8205   -0.5312 C   0  0  0  0  0  0  0  0  0  0  0  0
   -0.6154   -4.9408   -1.2768 C   0  0  0  0  0  0  0  0  0  0  0  0
   -1.8766   -4.9990   -1.8504 C   0  0  0  0  0  0  0  0  0  0  0  0
   -2.7700   -3.9416   -1.6625 C   0  0  0  0  0  0  0  0  0  0  0  0
   -2.4341   -2.8151   -0.9232 C   0  0  0  0  0  0  0  0  0  0  0  0
   -3.3599   -1.8525   -0.7765 N   0  0  0  0  0  0  0  0  0  0  0  0
   -4.3510    1.0241    1.2447 C   0  0  0  0  0  0  0  0  0  0  0  0
   -5.3944    1.9517    1.3476 C   0  0  0  0  0  0  0  0  0  0  0  0
   -6.1732    4.8750    0.5149 H   0  0  0  0  0  0  0  0  0  0  0  0
   -6.6975    4.4577   -1.1233 H   0  0  0  0  0  0  0  0  0  0  0  0
   -7.8439    5.1911    0.0141 H   0  0  0  0  0  0  0  0  0  0  0  0
   -8.2999    2.7615   -0.1633 H   0  0  0  0  0  0  0  0  0  0  0  0
   -7.7724    3.1729    1.4554 H   0  0  0  0  0  0  0  0  0  0  0  0
   -6.8704    1.4170   -1.6664 H   0  0  0  0  0  0  0  0  0  0  0  0
   -5.0453   -0.2078   -1.8419 H   0  0  0  0  0  0  0  0  0  0  0  0
   -1.6090    0.3273    1.1115 H   0  0  0  0  0  0  0  0  0  0  0  0
    1.2468   -1.4239   -0.9364 H   0  0  0  0  0  0  0  0  0  0  0  0
    3.3542   -1.2315   -1.8175 H   0  0  0  0  0  0  0  0  0  0  0  0
    5.7572   -0.8369   -1.5147 H   0  0  0  0  0  0  0  0  0  0  0  0
    7.7916    1.7471    1.6665 H   0  0  0  0  0  0  0  0  0  0  0  0
    6.8074    3.9835    0.6323 H   0  0  0  0  0  0  0  0  0  0  0  0
    8.5351    3.7452    0.2216 H   0  0  0  0  0  0  0  0  0  0  0  0
    7.3593    4.1470   -1.0535 H   0  0  0  0  0  0  0  0  0  0  0  0
    5.1491   -0.4236    2.7400 H   0  0  0  0  0  0  0  0  0  0  0  0
    2.7619   -0.8178    2.4493 H   0  0  0  0  0  0  0  0  0  0  0  0
    0.7318   -3.8144   -0.0657 H   0  0  0  0  0  0  0  0  0  0  0  0
    0.0807   -5.7667   -1.3992 H   0  0  0  0  0  0  0  0  0  0  0  0
   -2.1773   -5.8666   -2.4333 H   0  0  0  0  0  0  0  0  0  0  0  0
   -3.7637   -4.0021   -2.1014 H   0  0  0  0  0  0  0  0  0  0  0  0
   -3.6747    0.9225    2.0910 H   0  0  0  0  0  0  0  0  0  0  0  0
   -5.4858    2.5481    2.2529 H   0  0  0  0  0  0  0  0  0  0  0  0
  1  2  1  0
  2  3  1  0
  3  4  2  0
  4  5  1  0
  5  6  2  0
  6  7  1  0
  7  8  2  0
  8  9  1  0
  9 10  1  0
 10 11  2  0
 10 12  1  0
 12 13  1  0
 13 14  2  0
 14 15  1  0
 15 16  2  0
 16 17  1  0
 17 18  2  0
 17 19  2  0
 17 20  1  0
 20 21  1  0
 21 22  1  0
 21 23  2  0
 16 24  1  0
 24 25  2  0
  9 26  2  0
 26 27  1  0
 27 28  2  0
 28 29  1  0
 29 30  2  0
 30 31  1  0
 31 32  2  0
  6 33  1  0
 33 34  2  0
 34  3  1  0
 32  7  1  0
 25 13  1  0
 31 26  1  0
  1 35  1  0
  1 36  1  0
  1 37  1  0
  2 38  1  0
  2 39  1  0
  4 40  1  0
  5 41  1  0
  8 42  1  0
 12 43  1  0
 14 44  1  0
 15 45  1  0
 20 46  1  0
 22 47  1  0
 22 48  1  0
 22 49  1  0
 24 50  1  0
 25 51  1  0
 27 52  1  0
 28 53  1  0
 29 54  1  0
 30 55  1  0
 33 56  1  0
 34 57  1  0
M  END
$$$$
