
     RDKit          3D

 33 33  0  0  0  0  0  0  0  0999 V2000
   -2.9137   -2.4452    1.0144 C   0  0  0  0  0  0  0  0  0  0  0  0
   -3.1306   -0.9601    0.7174 C   0  0  0  0  0  0  0  0  0  0  0  0
   -3.9515   -0.3211    1.8389 C   0  0  0  0  0  0  0  0  0  0  0  0
   -1.8090   -0.3387    0.5605 N   0  0  0  0  0  0  0  0  0  0  0  0
   -1.8717    1.0115    0.0011 C   0  0  0  0  0  0  0  0  0  0  0  0
   -0.4683    1.5128   -0.3337 C   0  0  0  0  0  0  0  0  0  0  0  0
    0.1785    0.7303   -1.4759 C   0  0  0  0  0  0  0  0  0  0  0  0
    1.4795    1.2507   -1.7577 O   0  0  0  0  0  0  0  0  0  0  0  0
    2.5668    0.7330   -1.1073 C   0  0  0  0  0  0  0  0  0  0  0  0
    2.5044   -0.1984   -0.0652 C   0  0  0  0  0  0  0  0  0  0  0  0
    3.6756   -0.6643    0.5427 C   0  0  0  0  0  0  0  0  0  0  0  0
    4.9160   -0.1991    0.1147 C   0  0  0  0  0  0  0  0  0  0  0  0
    6.3506   -0.7761    0.8683 Cl  0  0  0  0  0  0  0  0  0  0  0  0
    5.0008    0.7308   -0.9154 C   0  0  0  0  0  0  0  0  0  0  0  0
    3.8291    1.1944   -1.5210 C   0  0  0  0  0  0  0  0  0  0  0  0
    4.0091    2.4679   -2.9227 Br  0  0  0  0  0  0  0  0  0  0  0  0
   -2.3465   -2.9277    0.2103 H   0  0  0  0  0  0  0  0  0  0  0  0
   -3.8734   -2.9665    1.0996 H   0  0  0  0  0  0  0  0  0  0  0  0
   -2.3660   -2.5943    1.9521 H   0  0  0  0  0  0  0  0  0  0  0  0
   -3.6880   -0.8890   -0.2247 H   0  0  0  0  0  0  0  0  0  0  0  0
   -4.8967   -0.8575    1.9776 H   0  0  0  0  0  0  0  0  0  0  0  0
   -4.2004    0.7203    1.6120 H   0  0  0  0  0  0  0  0  0  0  0  0
   -3.4127   -0.3424    2.7928 H   0  0  0  0  0  0  0  0  0  0  0  0
   -1.3372   -0.3117    1.4652 H   0  0  0  0  0  0  0  0  0  0  0  0
   -2.3243    1.7009    0.7221 H   0  0  0  0  0  0  0  0  0  0  0  0
   -2.4847    1.0263   -0.9079 H   0  0  0  0  0  0  0  0  0  0  0  0
   -0.5225    2.5709   -0.6204 H   0  0  0  0  0  0  0  0  0  0  0  0
    0.1673    1.4890    0.5598 H   0  0  0  0  0  0  0  0  0  0  0  0
    0.1940   -0.3534   -1.3178 H   0  0  0  0  0  0  0  0  0  0  0  0
   -0.4147    0.8853   -2.3852 H   0  0  0  0  0  0  0  0  0  0  0  0
    1.5594   -0.5814    0.3074 H   0  0  0  0  0  0  0  0  0  0  0  0
    3.6093   -1.3893    1.3504 H   0  0  0  0  0  0  0  0  0  0  0  0
    5.9714    1.0919   -1.2439 H   0  0  0  0  0  0  0  0  0  0  0  0
  1  2  1  0
  2  3  1  0
  2  4  1  0
  4  5  1  0
  5  6  1  0
  6  7  1  0
  7  8  1  0
  8  9  1  0
  9 10  2  0
 10 11  1  0
 11 12  2  0
 12 13  1  0
 12 14  1  0
 14 15  2  0
 15 16  1  0
 15  9  1  0
  1 17  1  0
  1 18  1  0
  1 19  1  0
  2 20  1  0
  3 21  1  0
  3 22  1  0
  3 23  1  0
  4 24  1  0
  5 25  1  0
  5 26  1  0
  6 27  1  0
  6 28  1  0
  7 29  1  0
  7 30  1  0
 10 31  1  0
 11 32  1  0
 14 33  1  0
M  END
$$$$
