
     RDKit          3D

 25 26  0  0  0  0  0  0  0  0999 V2000
   -4.8055    0.0527    0.2147 O   0  0  0  0  0  0  0  0  0  0  0  0
   -3.5994    0.1801    0.0923 C   0  0  0  0  0  0  0  0  0  0  0  0
   -2.8868    1.2571   -0.6689 C   0  0  0  0  0  0  0  0  0  0  0  0
   -1.4546    0.7344   -0.7063 C   0  0  0  0  0  0  0  0  0  0  0  0
   -1.3437   -0.1095    0.4965 N   0  0  0  0  0  0  0  0  0  0  0  0
   -0.3436   -1.1782    0.3360 C   0  0  0  0  0  0  0  0  0  0  0  0
    1.0732   -0.6502    0.2435 C   0  0  0  0  0  0  0  0  0  0  0  0
    1.6380    0.0596    1.3154 C   0  0  0  0  0  0  0  0  0  0  0  0
    2.9441    0.5472    1.2345 C   0  0  0  0  0  0  0  0  0  0  0  0
    3.6940    0.3262    0.0820 C   0  0  0  0  0  0  0  0  0  0  0  0
    5.3031    0.9268   -0.0197 Cl  0  0  0  0  0  0  0  0  0  0  0  0
    3.1493   -0.3778   -0.9900 C   0  0  0  0  0  0  0  0  0  0  0  0
    1.8425   -0.8654   -0.9099 C   0  0  0  0  0  0  0  0  0  0  0  0
   -2.6346   -0.6173    0.6730 N   0  0  0  0  0  0  0  0  0  0  0  0
   -3.3060    1.3685   -1.6717 H   0  0  0  0  0  0  0  0  0  0  0  0
   -2.9622    2.1946   -0.1096 H   0  0  0  0  0  0  0  0  0  0  0  0
   -0.7292    1.5542   -0.7020 H   0  0  0  0  0  0  0  0  0  0  0  0
   -1.3152    0.1512   -1.6264 H   0  0  0  0  0  0  0  0  0  0  0  0
   -0.3822   -1.8452    1.2079 H   0  0  0  0  0  0  0  0  0  0  0  0
   -0.5775   -1.8057   -0.5348 H   0  0  0  0  0  0  0  0  0  0  0  0
    1.0549    0.2406    2.2168 H   0  0  0  0  0  0  0  0  0  0  0  0
    3.3668    1.0975    2.0707 H   0  0  0  0  0  0  0  0  0  0  0  0
    3.7355   -0.5502   -1.8887 H   0  0  0  0  0  0  0  0  0  0  0  0
    1.4302   -1.4132   -1.7546 H   0  0  0  0  0  0  0  0  0  0  0  0
   -2.8910   -1.2781    1.3993 H   0  0  0  0  0  0  0  0  0  0  0  0
  1  2  2  0
  2  3  1  0
  3  4  1  0
  4  5  1  0
  5  6  1  0
  6  7  1  0
  7  8  2  0
  8  9  1  0
  9 10  2  0
 10 11  1  0
 10 12  1  0
 12 13  2  0
  5 14  1  0
 14  2  1  0
 13  7  1  0
  3 15  1  0
  3 16  1  0
  4 17  1  0
  4 18  1  0
  6 19  1  0
  6 20  1  0
  8 21  1  0
  9 22  1  0
 12 23  1  0
 13 24  1  0
 14 25  1  0
M  END
$$$$
