
     RDKit          3D

 57 62  0  0  0  0  0  0  0  0999 V2000
    6.1539   -1.6137    1.4672 C   0  0  0  0  0  0  0  0  0  0  0  0
    4.7833   -1.2462    1.5478 O   0  0  0  0  0  0  0  0  0  0  0  0
    4.0091   -1.4856    0.4438 C   0  0  0  0  0  0  0  0  0  0  0  0
    4.4555   -2.0605   -0.7620 C   0  0  0  0  0  0  0  0  0  0  0  0
    3.5749   -2.2660   -1.8317 C   0  0  0  0  0  0  0  0  0  0  0  0
    2.2627   -1.8807   -1.6615 C   0  0  0  0  0  0  0  0  0  0  0  0
    1.8012   -1.3002   -0.4785 C   0  0  0  0  0  0  0  0  0  0  0  0
    2.6686   -1.1058    0.5861 C   0  0  0  0  0  0  0  0  0  0  0  0
    0.3408   -1.0008   -0.6249 C   0  0  0  0  0  0  0  0  0  0  0  0
   -0.5276   -1.6278    0.4221 N   0  0  0  0  0  0  0  0  0  0  0  0
   -1.5226   -0.6150    0.9145 C   0  0  2  0  0  0  0  0  0  0  0  0
   -2.9488   -0.8323    0.3640 C   0  0  0  0  0  0  0  0  0  0  0  0
   -3.5557   -2.1663    0.7313 C   0  0  0  0  0  0  0  0  0  0  0  0
   -3.7610   -3.1413   -0.2554 C   0  0  0  0  0  0  0  0  0  0  0  0
   -4.3125   -4.3790    0.0774 C   0  0  0  0  0  0  0  0  0  0  0  0
   -4.6654   -4.6536    1.3970 C   0  0  0  0  0  0  0  0  0  0  0  0
   -4.4683   -3.6904    2.3849 C   0  0  0  0  0  0  0  0  0  0  0  0
   -3.9168   -2.4514    2.0549 C   0  0  0  0  0  0  0  0  0  0  0  0
   -0.9401    0.6625    0.4392 C   0  0  0  0  0  0  0  0  0  0  0  0
    0.0995    0.4394   -0.4601 C   0  0  0  0  0  0  0  0  0  0  0  0
    0.5921    1.6470   -0.8749 C   0  0  0  0  0  0  0  0  0  0  0  0
    1.6506    1.8776   -1.6507 O   0  0  0  0  0  0  0  0  0  0  0  0
   -0.1950    2.6481   -0.2687 N   0  0  0  0  0  0  0  0  0  0  0  0
   -0.1049    4.0542   -0.5223 C   0  0  0  0  0  0  0  0  0  0  0  0
   -0.3957    4.9829    0.4846 C   0  0  0  0  0  0  0  0  0  0  0  0
   -0.2967    6.3534    0.2289 C   0  0  0  0  0  0  0  0  0  0  0  0
    0.0813    6.8062   -1.0332 C   0  0  0  0  0  0  0  0  0  0  0  0
    0.3556    5.8902   -2.0460 C   0  0  0  0  0  0  0  0  0  0  0  0
    0.2612    4.5190   -1.7952 C   0  0  0  0  0  0  0  0  0  0  0  0
   -1.1015    2.0134    0.6043 C   0  0  0  0  0  0  0  0  0  0  0  0
   -1.9742    2.6836    1.3522 O   0  0  0  0  0  0  0  0  0  0  0  0
    0.0241   -1.5378   -2.0493 C   0  0  0  0  0  0  0  0  0  0  0  0
   -1.0623   -1.5985   -2.6077 O   0  0  0  0  0  0  0  0  0  0  0  0
    1.2260   -2.0140   -2.5770 N   0  0  0  0  0  0  0  0  0  0  0  0
    6.6247   -1.3599    2.4219 H   0  0  0  0  0  0  0  0  0  0  0  0
    6.2655   -2.6927    1.3179 H   0  0  0  0  0  0  0  0  0  0  0  0
    6.6685   -1.0495    0.6824 H   0  0  0  0  0  0  0  0  0  0  0  0
    5.4896   -2.3622   -0.8946 H   0  0  0  0  0  0  0  0  0  0  0  0
    3.9213   -2.7143   -2.7556 H   0  0  0  0  0  0  0  0  0  0  0  0
    2.3138   -0.6646    1.5127 H   0  0  0  0  0  0  0  0  0  0  0  0
   -1.0240   -2.4127    0.0030 H   0  0  0  0  0  0  0  0  0  0  0  0
   -1.5242   -0.6489    2.0098 H   0  0  0  0  0  0  0  0  0  0  0  0
   -3.6122   -0.0413    0.7401 H   0  0  0  0  0  0  0  0  0  0  0  0
   -2.9564   -0.7131   -0.7280 H   0  0  0  0  0  0  0  0  0  0  0  0
   -3.4901   -2.9427   -1.2916 H   0  0  0  0  0  0  0  0  0  0  0  0
   -4.4670   -5.1284   -0.6945 H   0  0  0  0  0  0  0  0  0  0  0  0
   -5.0948   -5.6179    1.6553 H   0  0  0  0  0  0  0  0  0  0  0  0
   -4.7444   -3.9052    3.4140 H   0  0  0  0  0  0  0  0  0  0  0  0
   -3.7716   -1.7128    2.8393 H   0  0  0  0  0  0  0  0  0  0  0  0
    2.0057    2.7584   -1.4321 H   0  0  0  0  0  0  0  0  0  0  0  0
   -0.6708    4.6665    1.4870 H   0  0  0  0  0  0  0  0  0  0  0  0
   -0.5158    7.0670    1.0193 H   0  0  0  0  0  0  0  0  0  0  0  0
    0.1512    7.8730   -1.2297 H   0  0  0  0  0  0  0  0  0  0  0  0
    0.6270    6.2431   -3.0379 H   0  0  0  0  0  0  0  0  0  0  0  0
    0.4241    3.8342   -2.6250 H   0  0  0  0  0  0  0  0  0  0  0  0
   -2.5095    2.0349    1.8404 H   0  0  0  0  0  0  0  0  0  0  0  0
    1.2979   -2.4216   -3.4960 H   0  0  0  0  0  0  0  0  0  0  0  0
  1  2  1  0
  2  3  1  0
  3  4  2  0
  4  5  1  0
  5  6  2  0
  6  7  1  0
  7  8  2  0
  7  9  1  0
  9 10  1  0
 10 11  1  0
 11 12  1  0
 12 13  1  0
 13 14  2  0
 14 15  1  0
 15 16  2  0
 16 17  1  0
 17 18  2  0
 11 19  1  0
 19 20  1  0
 20 21  2  0
 21 22  1  0
 21 23  1  0
 23 24  1  0
 24 25  2  0
 25 26  1  0
 26 27  2  0
 27 28  1  0
 28 29  2  0
 23 30  1  0
 30 31  1  0
  9 32  1  0
 32 33  2  0
 32 34  1  0
  8  3  1  0
 20  9  1  0
 29 24  1  0
 34  6  1  0
 18 13  1  0
 30 19  2  0
  1 35  1  0
  1 36  1  0
  1 37  1  0
  4 38  1  0
  5 39  1  0
  8 40  1  0
 10 41  1  0
 11 42  1  1
 12 43  1  0
 12 44  1  0
 14 45  1  0
 15 46  1  0
 16 47  1  0
 17 48  1  0
 18 49  1  0
 22 50  1  0
 25 51  1  0
 26 52  1  0
 27 53  1  0
 28 54  1  0
 29 55  1  0
 31 56  1  0
 34 57  1  0
M  END
$$$$
