
     RDKit          3D

 49 52  0  0  0  0  0  0  0  0999 V2000
   -8.8374   -5.0992    0.4852 C   0  0  0  0  0  0  0  0  0  0  0  0
   -7.6663   -4.4849   -0.0537 O   0  0  0  0  0  0  0  0  0  0  0  0
   -6.7464   -4.1100    0.8818 C   0  0  0  0  0  0  0  0  0  0  0  0
   -6.8975   -4.2825    2.0858 O   0  0  0  0  0  0  0  0  0  0  0  0
   -5.5995   -3.4980    0.2480 C   0  0  0  0  0  0  0  0  0  0  0  0
   -4.3091   -2.9238    1.2379 S   0  0  0  0  0  0  0  0  0  0  0  0
   -3.4691   -2.4274   -0.1543 C   0  0  0  0  0  0  0  0  0  0  0  0
   -2.2547   -1.8579    0.1036 N   0  0  0  0  0  0  0  0  0  0  0  0
   -1.4258   -1.3878   -0.8957 C   0  0  0  0  0  0  0  0  0  0  0  0
   -1.6470   -1.4014   -2.1028 O   0  0  0  0  0  0  0  0  0  0  0  0
   -0.1352   -0.8049   -0.3475 C   0  0  0  0  0  0  0  0  0  0  0  0
   -0.3502    0.9820   -0.1006 S   0  0  0  0  0  0  0  0  0  0  0  0
    1.1146    1.3461    0.7350 C   0  0  0  0  0  0  0  0  0  0  0  0
    1.8210    0.5044    1.4505 N   0  0  0  0  0  0  0  0  0  0  0  0
    2.9085    1.1812    1.9382 N   0  0  0  0  0  0  0  0  0  0  0  0
    2.8484    2.4262    1.5058 C   0  0  0  0  0  0  0  0  0  0  0  0
    3.8551    3.4813    1.7856 C   0  0  0  0  0  0  0  0  0  0  0  0
    4.6635    3.7400    0.6121 N   0  0  0  0  0  0  0  0  0  0  0  0
    4.4018    4.8166   -0.1587 N   0  0  0  0  0  0  0  0  0  0  0  0
    5.2969    4.8314   -1.1378 N   0  0  0  0  0  0  0  0  0  0  0  0
    6.1280    3.7532   -0.9735 C   0  0  0  0  0  0  0  0  0  0  0  0
    7.2278    3.3218   -1.7275 C   0  0  0  0  0  0  0  0  0  0  0  0
    7.8980    2.1583   -1.3259 C   0  0  0  0  0  0  0  0  0  0  0  0
    7.4791    1.4403   -0.2020 C   0  0  0  0  0  0  0  0  0  0  0  0
    6.3837    1.8595    0.5633 C   0  0  0  0  0  0  0  0  0  0  0  0
    5.7370    3.0275    0.1457 C   0  0  0  0  0  0  0  0  0  0  0  0
    1.7035    2.5799    0.7533 N   0  0  0  0  0  0  0  0  0  0  0  0
    1.2447    3.7771    0.0952 C   0  0  0  0  0  0  0  0  0  0  0  0
   -4.0619   -2.6437   -1.2951 N   0  0  0  0  0  0  0  0  0  0  0  0
   -5.2911   -3.2549   -1.0853 C   0  0  0  0  0  0  0  0  0  0  0  0
   -6.1040   -3.5719   -2.2912 C   0  0  0  0  0  0  0  0  0  0  0  0
   -9.4731   -5.4060   -0.3505 H   0  0  0  0  0  0  0  0  0  0  0  0
   -8.5765   -5.9905    1.0650 H   0  0  0  0  0  0  0  0  0  0  0  0
   -9.3928   -4.3838    1.1004 H   0  0  0  0  0  0  0  0  0  0  0  0
   -1.9977   -1.7680    1.0756 H   0  0  0  0  0  0  0  0  0  0  0  0
    0.6715   -0.9968   -1.0636 H   0  0  0  0  0  0  0  0  0  0  0  0
    0.1239   -1.3034    0.5927 H   0  0  0  0  0  0  0  0  0  0  0  0
    4.5330    3.1680    2.5876 H   0  0  0  0  0  0  0  0  0  0  0  0
    3.3879    4.4186    2.1039 H   0  0  0  0  0  0  0  0  0  0  0  0
    7.5454    3.8784   -2.6027 H   0  0  0  0  0  0  0  0  0  0  0  0
    8.7524    1.8068   -1.9015 H   0  0  0  0  0  0  0  0  0  0  0  0
    8.0110    0.5325    0.0816 H   0  0  0  0  0  0  0  0  0  0  0  0
    6.0528    1.2913    1.4272 H   0  0  0  0  0  0  0  0  0  0  0  0
    1.6588    4.6569    0.5920 H   0  0  0  0  0  0  0  0  0  0  0  0
    0.1543    3.8371    0.1581 H   0  0  0  0  0  0  0  0  0  0  0  0
    1.5694    3.7398   -0.9481 H   0  0  0  0  0  0  0  0  0  0  0  0
   -6.2528   -4.6527   -2.3819 H   0  0  0  0  0  0  0  0  0  0  0  0
   -7.0802   -3.0803   -2.2404 H   0  0  0  0  0  0  0  0  0  0  0  0
   -5.6036   -3.2266   -3.2011 H   0  0  0  0  0  0  0  0  0  0  0  0
  1  2  1  0
  2  3  1  0
  3  4  2  0
  3  5  1  0
  5  6  1  0
  6  7  1  0
  7  8  1  0
  8  9  1  0
  9 10  2  0
  9 11  1  0
 11 12  1  0
 12 13  1  0
 13 14  2  0
 14 15  1  0
 15 16  2  0
 16 17  1  0
 17 18  1  0
 18 19  1  0
 19 20  2  0
 20 21  1  0
 21 22  2  0
 22 23  1  0
 23 24  2  0
 24 25  1  0
 25 26  2  0
 16 27  1  0
 27 28  1  0
  7 29  2  0
 29 30  1  0
 30 31  1  0
 30  5  2  0
 27 13  1  0
 26 18  1  0
 26 21  1  0
  1 32  1  0
  1 33  1  0
  1 34  1  0
  8 35  1  0
 11 36  1  0
 11 37  1  0
 17 38  1  0
 17 39  1  0
 22 40  1  0
 23 41  1  0
 24 42  1  0
 25 43  1  0
 28 44  1  0
 28 45  1  0
 28 46  1  0
 31 47  1  0
 31 48  1  0
 31 49  1  0
M  END
$$$$
