
     RDKit          3D

 63 66  0  0  0  0  0  0  0  0999 V2000
   -5.0901   -3.9658    0.5595 C   0  0  0  0  0  0  0  0  0  0  0  0
   -3.9543   -2.9817    0.5399 C   0  0  0  0  0  0  0  0  0  0  0  0
   -2.7223   -3.4147    0.0203 C   0  0  0  0  0  0  0  0  0  0  0  0
   -1.6147   -2.5628   -0.0309 C   0  0  0  0  0  0  0  0  0  0  0  0
   -1.7061   -1.2519    0.4356 C   0  0  0  0  0  0  0  0  0  0  0  0
   -0.5643   -0.4327    0.3182 N   0  0  0  0  0  0  0  0  0  0  0  0
   -0.5213    0.9440    0.4662 C   0  0  0  0  0  0  0  0  0  0  0  0
   -1.4873    1.6832    0.6206 O   0  0  0  0  0  0  0  0  0  0  0  0
    0.8345    1.5590    0.3455 C   0  0  0  0  0  0  0  0  0  0  0  0
    0.9301    2.8722   -0.1426 C   0  0  0  0  0  0  0  0  0  0  0  0
    2.1746    3.4958   -0.2716 C   0  0  0  0  0  0  0  0  0  0  0  0
    3.3344    2.8123    0.0879 C   0  0  0  0  0  0  0  0  0  0  0  0
    3.2377    1.5063    0.5810 C   0  0  0  0  0  0  0  0  0  0  0  0
    4.7296    0.6501    1.0429 S   0  0  0  0  0  6  0  0  0  0  0  0
    4.3542   -0.7022    1.4090 O   0  0  0  0  0  0  0  0  0  0  0  0
    5.4284    1.5180    1.9658 O   0  0  0  0  0  0  0  0  0  0  0  0
    5.5785    0.5794   -0.4461 N   0  0  0  0  0  0  0  0  0  0  0  0
    4.9443   -0.2582   -1.4930 C   0  0  0  0  0  0  0  0  0  0  0  0
    6.9982    0.3568   -0.3168 C   0  0  0  0  0  0  0  0  0  0  0  0
    7.8500    1.1901   -1.0473 C   0  0  0  0  0  0  0  0  0  0  0  0
    9.2275    0.9669   -1.0402 C   0  0  0  0  0  0  0  0  0  0  0  0
    9.7545   -0.1045   -0.3197 C   0  0  0  0  0  0  0  0  0  0  0  0
    8.9050   -0.9567    0.3871 C   0  0  0  0  0  0  0  0  0  0  0  0
    7.5262   -0.7365    0.3771 C   0  0  0  0  0  0  0  0  0  0  0  0
    1.9962    0.8764    0.7267 C   0  0  0  0  0  0  0  0  0  0  0  0
   -2.9051   -0.8247    1.0005 C   0  0  0  0  0  0  0  0  0  0  0  0
   -4.0341   -1.6661    1.0338 C   0  0  0  0  0  0  0  0  0  0  0  0
   -5.5065   -0.9726    1.7893 S   0  0  0  0  0  6  0  0  0  0  0  0
   -6.4514   -2.0370    2.0514 O   0  0  0  0  0  0  0  0  0  0  0  0
   -5.0721   -0.1087    2.8674 O   0  0  0  0  0  0  0  0  0  0  0  0
   -6.1692    0.0035    0.5707 N   0  0  0  0  0  0  0  0  0  0  0  0
   -6.7145   -0.6841   -0.6302 C   0  0  0  0  0  0  0  0  0  0  0  0
   -7.5711    0.3031   -1.4338 C   0  0  0  0  0  0  0  0  0  0  0  0
   -6.8164    1.4664   -1.8088 O   0  0  0  0  0  0  0  0  0  0  0  0
   -6.3364    2.1473   -0.6365 C   0  0  0  0  0  0  0  0  0  0  0  0
   -5.4211    1.2378    0.1925 C   0  0  0  0  0  0  0  0  0  0  0  0
   -4.8358   -4.8795    0.0095 H   0  0  0  0  0  0  0  0  0  0  0  0
   -5.9745   -3.5511    0.0678 H   0  0  0  0  0  0  0  0  0  0  0  0
   -5.3227   -4.2631    1.5863 H   0  0  0  0  0  0  0  0  0  0  0  0
   -2.6127   -4.4309   -0.3562 H   0  0  0  0  0  0  0  0  0  0  0  0
   -0.6891   -2.9426   -0.4554 H   0  0  0  0  0  0  0  0  0  0  0  0
    0.2707   -0.8921   -0.0211 H   0  0  0  0  0  0  0  0  0  0  0  0
    0.0286    3.4179   -0.4183 H   0  0  0  0  0  0  0  0  0  0  0  0
    2.2343    4.5165   -0.6440 H   0  0  0  0  0  0  0  0  0  0  0  0
    4.3044    3.2990   -0.0004 H   0  0  0  0  0  0  0  0  0  0  0  0
    4.9212   -1.3128   -1.2006 H   0  0  0  0  0  0  0  0  0  0  0  0
    3.9258    0.0822   -1.6995 H   0  0  0  0  0  0  0  0  0  0  0  0
    5.5009   -0.1731   -2.4325 H   0  0  0  0  0  0  0  0  0  0  0  0
    7.4444    2.0232   -1.6140 H   0  0  0  0  0  0  0  0  0  0  0  0
    9.8887    1.6278   -1.5953 H   0  0  0  0  0  0  0  0  0  0  0  0
   10.8282   -0.2767   -0.3102 H   0  0  0  0  0  0  0  0  0  0  0  0
    9.3151   -1.7964    0.9436 H   0  0  0  0  0  0  0  0  0  0  0  0
    6.8809   -1.4243    0.9180 H   0  0  0  0  0  0  0  0  0  0  0  0
    1.9439   -0.1172    1.1666 H   0  0  0  0  0  0  0  0  0  0  0  0
   -2.9819    0.1677    1.4375 H   0  0  0  0  0  0  0  0  0  0  0  0
   -5.8846   -1.0407   -1.2504 H   0  0  0  0  0  0  0  0  0  0  0  0
   -7.3392   -1.5337   -0.3392 H   0  0  0  0  0  0  0  0  0  0  0  0
   -7.9209   -0.1745   -2.3543 H   0  0  0  0  0  0  0  0  0  0  0  0
   -8.4525    0.6183   -0.8628 H   0  0  0  0  0  0  0  0  0  0  0  0
   -7.1943    2.4916   -0.0464 H   0  0  0  0  0  0  0  0  0  0  0  0
   -5.7825    3.0303   -0.9705 H   0  0  0  0  0  0  0  0  0  0  0  0
   -5.0914    1.7802    1.0831 H   0  0  0  0  0  0  0  0  0  0  0  0
   -4.5505    0.9629   -0.4125 H   0  0  0  0  0  0  0  0  0  0  0  0
  1  2  1  0
  2  3  2  0
  3  4  1  0
  4  5  2  0
  5  6  1  0
  6  7  1  0
  7  8  2  0
  7  9  1  0
  9 10  2  0
 10 11  1  0
 11 12  2  0
 12 13  1  0
 13 14  1  0
 14 15  2  0
 14 16  2  0
 14 17  1  0
 17 18  1  0
 17 19  1  0
 19 20  2  0
 20 21  1  0
 21 22  2  0
 22 23  1  0
 23 24  2  0
 13 25  2  0
  5 26  1  0
 26 27  2  0
 27 28  1  0
 28 29  2  0
 28 30  2  0
 28 31  1  0
 31 32  1  0
 32 33  1  0
 33 34  1  0
 34 35  1  0
 35 36  1  0
 27  2  1  0
 36 31  1  0
 25  9  1  0
 24 19  1  0
  1 37  1  0
  1 38  1  0
  1 39  1  0
  3 40  1  0
  4 41  1  0
  6 42  1  0
 10 43  1  0
 11 44  1  0
 12 45  1  0
 18 46  1  0
 18 47  1  0
 18 48  1  0
 20 49  1  0
 21 50  1  0
 22 51  1  0
 23 52  1  0
 24 53  1  0
 25 54  1  0
 26 55  1  0
 32 56  1  0
 32 57  1  0
 33 58  1  0
 33 59  1  0
 35 60  1  0
 35 61  1  0
 36 62  1  0
 36 63  1  0
M  END
$$$$
