
     RDKit          3D

 44 45  0  0  0  0  0  0  0  0999 V2000
   -6.6356   -1.9880    1.0051 C   0  0  0  0  0  0  0  0  0  0  0  0
   -6.0379   -1.1621    2.1339 C   0  0  0  0  0  0  0  0  0  0  0  0
   -5.8512    0.3019    1.7437 C   0  0  0  0  0  0  0  0  0  0  0  0
   -4.9995    0.4225    0.5936 O   0  0  0  0  0  0  0  0  0  0  0  0
   -3.6658    0.4498    0.8408 C   0  0  0  0  0  0  0  0  0  0  0  0
   -3.1362    0.4048    1.9398 O   0  0  0  0  0  0  0  0  0  0  0  0
   -2.8994    0.5317   -0.4339 C   0  0  0  0  0  0  0  0  0  0  0  0
   -3.5220    0.5381   -1.6890 C   0  0  0  0  0  0  0  0  0  0  0  0
   -2.7486    0.6051   -2.8483 C   0  0  0  0  0  0  0  0  0  0  0  0
   -1.3538    0.6595   -2.7622 C   0  0  0  0  0  0  0  0  0  0  0  0
   -0.7177    0.6483   -1.5189 C   0  0  0  0  0  0  0  0  0  0  0  0
    0.6789    0.6788   -1.3514 N   0  0  0  0  0  0  0  0  0  0  0  0
    1.6578    0.7257   -2.3281 C   0  0  0  0  0  0  0  0  0  0  0  0
    1.4802    0.7970   -3.5410 O   0  0  0  0  0  0  0  0  0  0  0  0
    3.0785    0.6864   -1.7560 C   0  0  0  0  0  0  0  0  0  0  0  0
    3.0666    0.5545   -0.3348 O   0  0  0  0  0  0  0  0  0  0  0  0
    4.2757    0.2995    0.2522 C   0  0  0  0  0  0  0  0  0  0  0  0
    5.5219    0.6385   -0.2843 C   0  0  0  0  0  0  0  0  0  0  0  0
    6.6946    0.3402    0.4189 C   0  0  0  0  0  0  0  0  0  0  0  0
    6.6140   -0.3073    1.6584 C   0  0  0  0  0  0  0  0  0  0  0  0
    7.8439   -0.6330    2.3896 N   0  0  0  0  0  4  0  0  0  0  0  0
    7.7487   -1.3862    3.3696 O   0  0  0  0  0  0  0  0  0  0  0  0
    8.9053   -0.1384    1.9791 O   0  0  0  0  0  1  0  0  0  0  0  0
    5.3687   -0.6393    2.2084 C   0  0  0  0  0  0  0  0  0  0  0  0
    4.2038   -0.3240    1.5036 C   0  0  0  0  0  0  0  0  0  0  0  0
   -1.4985    0.5880   -0.3568 C   0  0  0  0  0  0  0  0  0  0  0  0
   -5.9594   -2.0296    0.1453 H   0  0  0  0  0  0  0  0  0  0  0  0
   -6.8082   -3.0139    1.3419 H   0  0  0  0  0  0  0  0  0  0  0  0
   -7.5926   -1.5736    0.6706 H   0  0  0  0  0  0  0  0  0  0  0  0
   -6.6864   -1.2240    3.0146 H   0  0  0  0  0  0  0  0  0  0  0  0
   -5.0720   -1.6039    2.4047 H   0  0  0  0  0  0  0  0  0  0  0  0
   -6.8168    0.7441    1.4729 H   0  0  0  0  0  0  0  0  0  0  0  0
   -5.4611    0.8892    2.5844 H   0  0  0  0  0  0  0  0  0  0  0  0
   -4.6046    0.4887   -1.7816 H   0  0  0  0  0  0  0  0  0  0  0  0
   -3.2291    0.6110   -3.8251 H   0  0  0  0  0  0  0  0  0  0  0  0
   -0.7923    0.7047   -3.6899 H   0  0  0  0  0  0  0  0  0  0  0  0
    1.0325    0.6367   -0.3985 H   0  0  0  0  0  0  0  0  0  0  0  0
    3.5645    1.6220   -2.0479 H   0  0  0  0  0  0  0  0  0  0  0  0
    3.5806   -0.1750   -2.2105 H   0  0  0  0  0  0  0  0  0  0  0  0
    5.6170    1.1490   -1.2404 H   0  0  0  0  0  0  0  0  0  0  0  0
    7.6567    0.6178   -0.0124 H   0  0  0  0  0  0  0  0  0  0  0  0
    5.2884   -1.1375    3.1725 H   0  0  0  0  0  0  0  0  0  0  0  0
    3.2342   -0.5781    1.9296 H   0  0  0  0  0  0  0  0  0  0  0  0
   -1.0236    0.5804    0.6254 H   0  0  0  0  0  0  0  0  0  0  0  0
  1  2  1  0
  2  3  1  0
  3  4  1  0
  4  5  1  0
  5  6  2  0
  5  7  1  0
  7  8  2  0
  8  9  1  0
  9 10  2  0
 10 11  1  0
 11 12  1  0
 12 13  1  0
 13 14  2  0
 13 15  1  0
 15 16  1  0
 16 17  1  0
 17 18  2  0
 18 19  1  0
 19 20  2  0
 20 21  1  0
 21 22  2  0
 21 23  1  0
 20 24  1  0
 24 25  2  0
 11 26  2  0
 26  7  1  0
 25 17  1  0
  1 27  1  0
  1 28  1  0
  1 29  1  0
  2 30  1  0
  2 31  1  0
  3 32  1  0
  3 33  1  0
  8 34  1  0
  9 35  1  0
 10 36  1  0
 12 37  1  0
 15 38  1  0
 15 39  1  0
 18 40  1  0
 19 41  1  0
 24 42  1  0
 25 43  1  0
 26 44  1  0
M  CHG  2  21   1  23  -1
M  END
$$$$
