
     RDKit          3D

 55 60  0  0  0  0  0  0  0  0999 V2000
    5.3001    0.3370    0.1024 O   0  0  0  0  0  0  0  0  0  0  0  0
    4.2968    0.4227    0.8097 C   0  0  0  0  0  0  0  0  0  0  0  0
    4.4282    0.5761    2.2522 C   0  0  0  0  0  0  0  0  0  0  0  0
    3.6250    1.2678    3.2075 C   0  0  0  0  0  0  0  0  0  0  0  0
    4.2387    1.1108    4.4282 C   0  0  0  0  0  0  0  0  0  0  0  0
    5.3782    0.3881    4.2944 O   0  0  0  0  0  0  0  0  0  0  0  0
    5.4988    0.0873    2.9769 C   0  0  0  0  0  0  0  0  0  0  0  0
    3.0142    0.3858    0.2543 N   0  0  0  0  0  0  0  0  0  0  0  0
    1.8085    0.0092    0.9906 C   0  0  0  0  0  0  0  0  0  0  0  0
    0.8737   -0.8251    0.1207 C   0  0  0  0  0  0  0  0  0  0  0  0
    0.3959   -0.0783   -1.1591 C   0  0  0  0  0  0  0  0  0  0  0  0
    1.5190    0.9010   -1.6288 C   0  0  0  0  0  0  0  0  0  0  0  0
    2.9061    0.4370   -1.1987 C   0  0  0  0  0  0  0  0  0  0  0  0
    0.2360   -1.1331   -2.1474 O   0  0  0  0  0  0  0  0  0  0  0  0
   -0.3990   -0.7849   -3.3076 C   0  0  0  0  0  0  0  0  0  0  0  0
   -0.2439   -1.6617   -4.3804 C   0  0  0  0  0  0  0  0  0  0  0  0
   -0.8363   -1.3699   -5.6116 C   0  0  0  0  0  0  0  0  0  0  0  0
   -1.5859   -0.2027   -5.7647 C   0  0  0  0  0  0  0  0  0  0  0  0
   -2.3108    0.1503   -7.2834 Cl  0  0  0  0  0  0  0  0  0  0  0  0
   -1.7582    0.6722   -4.6951 C   0  0  0  0  0  0  0  0  0  0  0  0
   -1.1692    0.3679   -3.4641 C   0  0  0  0  0  0  0  0  0  0  0  0
   -1.3740    1.2486   -2.2983 C   0  0  0  0  0  0  0  0  0  0  0  0
   -1.8924    2.3491   -2.4490 O   0  0  0  0  0  0  0  0  0  0  0  0
   -0.9627    0.6558   -0.9547 C   0  0  0  0  0  0  0  0  0  0  0  0
   -2.1271   -0.2018   -0.4657 C   0  0  0  0  0  0  0  0  0  0  0  0
   -2.2071    0.2723    0.9433 C   0  0  0  0  0  0  0  0  0  0  0  0
   -3.0634   -0.3961    1.9513 C   0  0  0  0  0  0  0  0  0  0  0  0
   -3.9020   -1.4635    1.6079 C   0  0  0  0  0  0  0  0  0  0  0  0
   -4.6934   -2.0744    2.5866 C   0  0  0  0  0  0  0  0  0  0  0  0
   -4.6489   -1.6192    3.9037 C   0  0  0  0  0  0  0  0  0  0  0  0
   -5.6233   -2.3753    5.1019 Cl  0  0  0  0  0  0  0  0  0  0  0  0
   -3.8209   -0.5552    4.2531 C   0  0  0  0  0  0  0  0  0  0  0  0
   -3.0292    0.0568    3.2775 C   0  0  0  0  0  0  0  0  0  0  0  0
   -1.4678    1.2987    1.2138 N   0  0  0  0  0  0  0  0  0  0  0  0
   -0.8291    1.6953    0.0178 O   0  0  0  0  0  0  0  0  0  0  0  0
    2.7201    1.8311    3.0288 H   0  0  0  0  0  0  0  0  0  0  0  0
    4.0128    1.4471    5.4307 H   0  0  0  0  0  0  0  0  0  0  0  0
    6.3827   -0.4732    2.7030 H   0  0  0  0  0  0  0  0  0  0  0  0
    2.0784   -0.5753    1.8754 H   0  0  0  0  0  0  0  0  0  0  0  0
    1.3216    0.9304    1.3217 H   0  0  0  0  0  0  0  0  0  0  0  0
    0.0345   -1.1841    0.7224 H   0  0  0  0  0  0  0  0  0  0  0  0
    1.4071   -1.7408   -0.1741 H   0  0  0  0  0  0  0  0  0  0  0  0
    1.3544    1.9000   -1.2061 H   0  0  0  0  0  0  0  0  0  0  0  0
    1.5236    1.0129   -2.7183 H   0  0  0  0  0  0  0  0  0  0  0  0
    3.6647    1.1229   -1.5931 H   0  0  0  0  0  0  0  0  0  0  0  0
    3.1295   -0.5611   -1.5941 H   0  0  0  0  0  0  0  0  0  0  0  0
    0.3493   -2.5664   -4.2661 H   0  0  0  0  0  0  0  0  0  0  0  0
   -0.7053   -2.0529   -6.4478 H   0  0  0  0  0  0  0  0  0  0  0  0
   -2.3508    1.5769   -4.8135 H   0  0  0  0  0  0  0  0  0  0  0  0
   -1.9354   -1.2755   -0.5325 H   0  0  0  0  0  0  0  0  0  0  0  0
   -3.0747    0.0270   -0.9662 H   0  0  0  0  0  0  0  0  0  0  0  0
   -3.9654   -1.8353    0.5895 H   0  0  0  0  0  0  0  0  0  0  0  0
   -5.3444   -2.9023    2.3156 H   0  0  0  0  0  0  0  0  0  0  0  0
   -3.7872   -0.1950    5.2783 H   0  0  0  0  0  0  0  0  0  0  0  0
   -2.3897    0.8912    3.5613 H   0  0  0  0  0  0  0  0  0  0  0  0
  1  2  2  0
  2  3  1  0
  3  4  1  0
  4  5  2  0
  5  6  1  0
  6  7  1  0
  2  8  1  0
  8  9  1  0
  9 10  1  0
 10 11  1  0
 11 12  1  0
 12 13  1  0
 11 14  1  0
 14 15  1  0
 15 16  2  0
 16 17  1  0
 17 18  2  0
 18 19  1  0
 18 20  1  0
 20 21  2  0
 21 22  1  0
 22 23  2  0
 22 24  1  0
 24 25  1  0
 25 26  1  0
 26 27  1  0
 27 28  2  0
 28 29  1  0
 29 30  2  0
 30 31  1  0
 30 32  1  0
 32 33  2  0
 26 34  2  0
 34 35  1  0
  7  3  2  0
 13  8  1  0
 21 15  1  0
 35 24  1  0
 24 11  1  0
 33 27  1  0
  4 36  1  0
  5 37  1  0
  7 38  1  0
  9 39  1  0
  9 40  1  0
 10 41  1  0
 10 42  1  0
 12 43  1  0
 12 44  1  0
 13 45  1  0
 13 46  1  0
 16 47  1  0
 17 48  1  0
 20 49  1  0
 25 50  1  0
 25 51  1  0
 28 52  1  0
 29 53  1  0
 32 54  1  0
 33 55  1  0
M  END
$$$$
