
     RDKit          3D

 56 58  0  0  0  0  0  0  0  0999 V2000
   -5.3225   -2.2816   -3.7262 C   0  0  0  0  0  0  0  0  0  0  0  0
   -5.5867   -2.3569   -2.2292 C   0  0  0  0  0  0  0  0  0  0  0  0
   -5.4488   -1.0347   -1.6013 N   0  0  0  0  0  0  0  0  0  0  0  0
   -6.6886   -0.2486   -1.5085 C   0  0  0  0  0  0  0  0  0  0  0  0
   -7.3909   -0.4917   -0.1802 C   0  0  0  0  0  0  0  0  0  0  0  0
   -4.2310   -0.5545   -1.1363 C   0  0  0  0  0  0  0  0  0  0  0  0
   -4.1187    0.6522   -0.4269 C   0  0  0  0  0  0  0  0  0  0  0  0
   -2.8903    1.1439    0.0449 C   0  0  0  0  0  0  0  0  0  0  0  0
   -1.7057    0.4470   -0.1856 C   0  0  0  0  0  0  0  0  0  0  0  0
   -0.4473    0.9850    0.3508 C   0  0  0  0  0  0  0  0  0  0  0  0
    0.7513    0.8094   -0.2289 C   0  0  0  0  0  0  0  0  0  0  0  0
    1.9802    1.3832    0.3332 C   0  0  0  0  0  0  0  0  0  0  0  0
    2.1418    2.7673    0.2769 C   0  0  0  0  0  0  0  0  0  0  0  0
    3.2952    3.3508    0.7633 C   0  0  0  0  0  0  0  0  0  0  0  0
    4.2949    2.5451    1.2922 C   0  0  0  0  0  0  0  0  0  0  0  0
    5.4691    3.1354    1.7714 C   0  0  0  0  0  0  0  0  0  0  0  0
    6.4895    2.3474    2.2948 C   0  0  0  0  0  0  0  0  0  0  0  0
    6.3591    0.9633    2.3451 C   0  0  0  0  0  0  0  0  0  0  0  0
    7.4397    0.3178    2.8734 O   0  0  0  0  0  0  0  0  0  0  0  0
    7.4005   -1.1006    2.9675 C   0  0  0  0  0  0  0  0  0  0  0  0
    5.1886    0.3633    1.8709 C   0  0  0  0  0  0  0  0  0  0  0  0
    4.1275    1.1323    1.3417 C   0  0  0  0  0  0  0  0  0  0  0  0
    2.9528    0.5841    0.8692 N   0  0  0  0  0  4  0  0  0  0  0  0
    2.7016   -0.8856    0.9798 C   0  0  0  0  0  0  0  0  0  0  0  0
    3.2773   -1.6025   -0.2272 C   0  0  0  0  0  0  0  0  0  0  0  0
   -1.7869   -0.7627   -0.8727 C   0  0  0  0  0  0  0  0  0  0  0  0
   -3.0234   -1.2430   -1.3377 C   0  0  0  0  0  0  0  0  0  0  0  0
   -6.0176   -1.5903   -4.2141 H   0  0  0  0  0  0  0  0  0  0  0  0
   -5.4500   -3.2684   -4.1822 H   0  0  0  0  0  0  0  0  0  0  0  0
   -4.3068   -1.9371   -3.9425 H   0  0  0  0  0  0  0  0  0  0  0  0
   -4.9400   -3.1026   -1.7535 H   0  0  0  0  0  0  0  0  0  0  0  0
   -6.6062   -2.7339   -2.0764 H   0  0  0  0  0  0  0  0  0  0  0  0
   -6.5063    0.8202   -1.6667 H   0  0  0  0  0  0  0  0  0  0  0  0
   -7.3708   -0.5378   -2.3183 H   0  0  0  0  0  0  0  0  0  0  0  0
   -7.6403   -1.5506   -0.0554 H   0  0  0  0  0  0  0  0  0  0  0  0
   -6.7674   -0.1962    0.6689 H   0  0  0  0  0  0  0  0  0  0  0  0
   -8.3211    0.0832   -0.1342 H   0  0  0  0  0  0  0  0  0  0  0  0
   -4.9967    1.2516   -0.2045 H   0  0  0  0  0  0  0  0  0  0  0  0
   -2.8897    2.0860    0.5890 H   0  0  0  0  0  0  0  0  0  0  0  0
   -0.5501    1.5712    1.2637 H   0  0  0  0  0  0  0  0  0  0  0  0
    0.8628    0.2552   -1.1568 H   0  0  0  0  0  0  0  0  0  0  0  0
    1.3668    3.3993   -0.1558 H   0  0  0  0  0  0  0  0  0  0  0  0
    3.4077    4.4338    0.7137 H   0  0  0  0  0  0  0  0  0  0  0  0
    5.6111    4.2157    1.7432 H   0  0  0  0  0  0  0  0  0  0  0  0
    7.4003    2.8185    2.6636 H   0  0  0  0  0  0  0  0  0  0  0  0
    8.3423   -1.4339    3.4137 H   0  0  0  0  0  0  0  0  0  0  0  0
    7.3188   -1.5572    1.9757 H   0  0  0  0  0  0  0  0  0  0  0  0
    6.5850   -1.4282    3.6205 H   0  0  0  0  0  0  0  0  0  0  0  0
    5.1251   -0.7158    1.9100 H   0  0  0  0  0  0  0  0  0  0  0  0
    1.6279   -1.0712    1.0706 H   0  0  0  0  0  0  0  0  0  0  0  0
    3.1260   -1.2490    1.9197 H   0  0  0  0  0  0  0  0  0  0  0  0
    2.8222   -1.2466   -1.1564 H   0  0  0  0  0  0  0  0  0  0  0  0
    4.3570   -1.4482   -0.3122 H   0  0  0  0  0  0  0  0  0  0  0  0
    3.0938   -2.6785   -0.1497 H   0  0  0  0  0  0  0  0  0  0  0  0
   -0.9062   -1.3689   -1.0613 H   0  0  0  0  0  0  0  0  0  0  0  0
   -3.0060   -2.1854   -1.8770 H   0  0  0  0  0  0  0  0  0  0  0  0
  1  2  1  0
  2  3  1  0
  3  4  1  0
  4  5  1  0
  3  6  1  0
  6  7  2  0
  7  8  1  0
  8  9  2  0
  9 10  1  0
 10 11  2  3
 11 12  1  0
 12 13  2  0
 13 14  1  0
 14 15  2  0
 15 16  1  0
 16 17  2  0
 17 18  1  0
 18 19  1  0
 19 20  1  0
 18 21  2  0
 21 22  1  0
 22 23  2  0
 23 24  1  0
 24 25  1  0
  9 26  1  0
 26 27  2  0
 27  6  1  0
 23 12  1  0
 22 15  1  0
  1 28  1  0
  1 29  1  0
  1 30  1  0
  2 31  1  0
  2 32  1  0
  4 33  1  0
  4 34  1  0
  5 35  1  0
  5 36  1  0
  5 37  1  0
  7 38  1  0
  8 39  1  0
 10 40  1  0
 11 41  1  0
 13 42  1  0
 14 43  1  0
 16 44  1  0
 17 45  1  0
 20 46  1  0
 20 47  1  0
 20 48  1  0
 21 49  1  0
 24 50  1  0
 24 51  1  0
 25 52  1  0
 25 53  1  0
 25 54  1  0
 26 55  1  0
 27 56  1  0
M  CHG  1  23   1
M  END
$$$$
