
     RDKit          3D

 59 64  0  0  0  0  0  0  0  0999 V2000
   -5.1830   -1.5465   -1.9263 C   0  0  0  0  0  0  0  0  0  0  0  0
   -5.8401   -0.6749   -0.9180 C   0  0  0  0  0  0  0  0  0  0  0  0
   -7.0857   -0.7965   -0.5050 N   0  0  0  0  0  0  0  0  0  0  0  0
   -7.2743    0.1989    0.4189 C   0  0  0  0  0  0  0  0  0  0  0  0
   -8.4177    0.5148    1.1661 C   0  0  0  0  0  0  0  0  0  0  0  0
   -8.3627    1.5876    2.0631 C   0  0  0  0  0  0  0  0  0  0  0  0
   -7.1920    2.3323    2.2110 C   0  0  0  0  0  0  0  0  0  0  0  0
   -6.0415    2.0330    1.4723 C   0  0  0  0  0  0  0  0  0  0  0  0
   -6.1183    0.9555    0.5813 C   0  0  0  0  0  0  0  0  0  0  0  0
   -5.2166    0.3781   -0.2835 N   0  0  0  0  0  0  0  0  0  0  0  0
   -3.8437    0.8095   -0.4807 C   0  0  0  0  0  0  0  0  0  0  0  0
   -2.8934    0.1497    0.5124 C   0  0  0  0  0  0  0  0  0  0  0  0
   -1.4817    0.5637    0.3022 C   0  0  0  0  0  0  0  0  0  0  0  0
   -0.9797    0.8679   -0.9404 N   0  0  0  0  0  0  0  0  0  0  0  0
    0.2842    1.1307   -0.6886 C   0  0  0  0  0  0  0  0  0  0  0  0
    1.3793    1.5314   -1.5458 C   0  0  0  0  0  0  0  0  0  0  0  0
    1.2322    1.7149   -2.9219 C   0  0  0  0  0  0  0  0  0  0  0  0
    2.3307    2.1149   -3.6829 C   0  0  0  0  0  0  0  0  0  0  0  0
    3.5665    2.3276   -3.0707 C   0  0  0  0  0  0  0  0  0  0  0  0
    3.7128    2.1398   -1.6932 C   0  0  0  0  0  0  0  0  0  0  0  0
    2.6251    1.7416   -0.9158 C   0  0  0  0  0  0  0  0  0  0  0  0
    2.8128    1.5580    0.4799 N   0  0  0  0  0  0  0  0  0  0  0  0
    1.7965    1.1834    1.2143 C   0  0  0  0  0  0  0  0  0  0  0  0
    2.0636    0.9302    2.9328 S   0  0  0  0  0  0  0  0  0  0  0  0
    3.5802   -0.0683    2.8340 C   0  0  0  0  0  0  0  0  0  0  0  0
    3.4901   -1.1674    1.7811 C   0  0  0  0  0  0  0  0  0  0  0  0
    2.4418   -1.7134    1.4469 O   0  0  0  0  0  0  0  0  0  0  0  0
    4.7043   -1.5096    1.2303 N   0  0  0  0  0  0  0  0  0  0  0  0
    4.7547   -2.4137    0.1036 C   0  0  0  0  0  0  0  0  0  0  0  0
    6.1672   -2.7799   -0.1461 C   0  0  0  0  0  0  0  0  0  0  0  0
    6.8606   -3.9716   -0.1027 C   0  0  0  0  0  0  0  0  0  0  0  0
    8.1984   -3.6682   -0.4513 C   0  0  0  0  0  0  0  0  0  0  0  0
    8.2384   -2.3142   -0.6826 C   0  0  0  0  0  0  0  0  0  0  0  0
    7.0110   -1.7633   -0.4941 O   0  0  0  0  0  0  0  0  0  0  0  0
    0.5307    0.9814    0.6498 N   0  0  0  0  0  0  0  0  0  0  0  0
   -0.6027    0.6446    1.3089 N   0  0  0  0  0  0  0  0  0  0  0  0
   -5.8352   -2.3853   -2.1870 H   0  0  0  0  0  0  0  0  0  0  0  0
   -4.2477   -1.9598   -1.5394 H   0  0  0  0  0  0  0  0  0  0  0  0
   -4.9697   -0.9853   -2.8415 H   0  0  0  0  0  0  0  0  0  0  0  0
   -9.3211   -0.0708    1.0449 H   0  0  0  0  0  0  0  0  0  0  0  0
   -9.2427    1.8386    2.6495 H   0  0  0  0  0  0  0  0  0  0  0  0
   -7.1719    3.1609    2.9152 H   0  0  0  0  0  0  0  0  0  0  0  0
   -5.1355    2.6154    1.5961 H   0  0  0  0  0  0  0  0  0  0  0  0
   -3.8196    1.9027   -0.3869 H   0  0  0  0  0  0  0  0  0  0  0  0
   -3.5679    0.5806   -1.5169 H   0  0  0  0  0  0  0  0  0  0  0  0
   -2.9534   -0.9437    0.4237 H   0  0  0  0  0  0  0  0  0  0  0  0
   -3.2007    0.3960    1.5387 H   0  0  0  0  0  0  0  0  0  0  0  0
    0.2697    1.5510   -3.3995 H   0  0  0  0  0  0  0  0  0  0  0  0
    2.2236    2.2658   -4.7550 H   0  0  0  0  0  0  0  0  0  0  0  0
    4.4202    2.6411   -3.6680 H   0  0  0  0  0  0  0  0  0  0  0  0
    4.6782    2.3078   -1.2250 H   0  0  0  0  0  0  0  0  0  0  0  0
    4.4218    0.5976    2.6171 H   0  0  0  0  0  0  0  0  0  0  0  0
    3.7594   -0.5404    3.8050 H   0  0  0  0  0  0  0  0  0  0  0  0
    5.4746   -0.8561    1.3073 H   0  0  0  0  0  0  0  0  0  0  0  0
    4.1446   -3.2977    0.3177 H   0  0  0  0  0  0  0  0  0  0  0  0
    4.3270   -1.9037   -0.7658 H   0  0  0  0  0  0  0  0  0  0  0  0
    6.4479   -4.9393    0.1483 H   0  0  0  0  0  0  0  0  0  0  0  0
    9.0312   -4.3517   -0.5269 H   0  0  0  0  0  0  0  0  0  0  0  0
    9.0193   -1.6254   -0.9733 H   0  0  0  0  0  0  0  0  0  0  0  0
  1  2  1  0
  2  3  2  0
  3  4  1  0
  4  5  2  0
  5  6  1  0
  6  7  2  0
  7  8  1  0
  8  9  2  0
  9 10  1  0
 10 11  1  0
 11 12  1  0
 12 13  1  0
 13 14  1  0
 14 15  2  0
 15 16  1  0
 16 17  2  0
 17 18  1  0
 18 19  2  0
 19 20  1  0
 20 21  2  0
 21 22  1  0
 22 23  2  0
 23 24  1  0
 24 25  1  0
 25 26  1  0
 26 27  2  0
 26 28  1  0
 28 29  1  0
 29 30  1  0
 30 31  2  0
 31 32  1  0
 32 33  2  0
 33 34  1  0
 23 35  1  0
 35 36  1  0
 10  2  1  0
 36 13  2  0
  9  4  1  0
 35 15  1  0
 21 16  1  0
 34 30  1  0
  1 37  1  0
  1 38  1  0
  1 39  1  0
  5 40  1  0
  6 41  1  0
  7 42  1  0
  8 43  1  0
 11 44  1  0
 11 45  1  0
 12 46  1  0
 12 47  1  0
 17 48  1  0
 18 49  1  0
 19 50  1  0
 20 51  1  0
 25 52  1  0
 25 53  1  0
 28 54  1  0
 29 55  1  0
 29 56  1  0
 31 57  1  0
 32 58  1  0
 33 59  1  0
M  END
$$$$
