
     RDKit          3D

 39 40  0  0  0  0  0  0  0  0999 V2000
   -1.5352    0.4356   -2.3404 C   0  0  0  0  0  0  0  0  0  0  0  0
   -2.4252    0.1691   -1.1430 C   0  0  0  0  0  0  0  0  0  0  0  0
   -1.9312   -0.0832    0.0845 C   0  0  0  0  0  0  0  0  0  0  0  0
   -0.4736   -0.1887    0.3577 C   0  0  0  0  0  0  0  0  0  0  0  0
    0.3353   -0.8985   -0.3670 N   0  0  0  0  0  0  0  0  0  0  0  0
    1.6636   -0.8616   -0.0251 N   0  0  0  0  0  0  0  0  0  0  0  0
    2.3562    0.2999    0.2956 C   0  0  0  0  0  0  0  0  0  0  0  0
    1.8322    1.3991    0.4675 O   0  0  0  0  0  0  0  0  0  0  0  0
    3.8444    0.1728    0.4247 C   0  0  0  0  0  0  0  0  0  0  0  0
    4.5381    1.2855    0.9309 C   0  0  0  0  0  0  0  0  0  0  0  0
    5.9232    1.2434    1.0832 C   0  0  0  0  0  0  0  0  0  0  0  0
    6.8394    2.7482    1.7685 Br  0  0  0  0  0  0  0  0  0  0  0  0
    6.6393    0.1010    0.7352 C   0  0  0  0  0  0  0  0  0  0  0  0
    5.9658   -1.0103    0.2271 C   0  0  0  0  0  0  0  0  0  0  0  0
    4.5763   -0.9735    0.0714 C   0  0  0  0  0  0  0  0  0  0  0  0
    3.9455   -2.0759   -0.4436 O   0  0  0  0  0  0  0  0  0  0  0  0
   -2.8563   -0.2081    1.2326 C   0  0  0  0  0  0  0  0  0  0  0  0
   -2.4027   -0.3127    2.3722 O   0  0  0  0  0  0  0  0  0  0  0  0
   -4.2052   -0.1980    0.9477 N   0  0  0  0  0  0  0  0  0  0  0  0
   -5.1406   -0.3433    2.0472 C   0  0  0  0  0  0  0  0  0  0  0  0
   -4.7343    0.0660   -0.3063 C   0  0  0  0  0  0  0  0  0  0  0  0
   -5.9500    0.1673   -0.4849 O   0  0  0  0  0  0  0  0  0  0  0  0
   -3.8102    0.2234   -1.3423 N   0  0  0  0  0  0  0  0  0  0  0  0
   -4.3561    0.4771   -2.6753 C   0  0  0  0  0  0  0  0  0  0  0  0
   -0.5080    0.6944   -2.0719 H   0  0  0  0  0  0  0  0  0  0  0  0
   -1.5078   -0.4402   -2.9967 H   0  0  0  0  0  0  0  0  0  0  0  0
   -1.8925    1.2960   -2.9158 H   0  0  0  0  0  0  0  0  0  0  0  0
   -0.1443    0.3321    1.2751 H   0  0  0  0  0  0  0  0  0  0  0  0
    2.2179   -1.6347   -0.3949 H   0  0  0  0  0  0  0  0  0  0  0  0
    3.9913    2.1854    1.2082 H   0  0  0  0  0  0  0  0  0  0  0  0
    7.7198    0.0678    0.8540 H   0  0  0  0  0  0  0  0  0  0  0  0
    6.5417   -1.8914   -0.0426 H   0  0  0  0  0  0  0  0  0  0  0  0
    4.6079   -2.7659   -0.6307 H   0  0  0  0  0  0  0  0  0  0  0  0
   -6.0059   -0.9359    1.7336 H   0  0  0  0  0  0  0  0  0  0  0  0
   -5.4859    0.6535    2.3398 H   0  0  0  0  0  0  0  0  0  0  0  0
   -4.6796   -0.8290    2.9118 H   0  0  0  0  0  0  0  0  0  0  0  0
   -5.4336    0.2960   -2.7230 H   0  0  0  0  0  0  0  0  0  0  0  0
   -4.1769    1.5240   -2.9388 H   0  0  0  0  0  0  0  0  0  0  0  0
   -3.8832   -0.1865   -3.4057 H   0  0  0  0  0  0  0  0  0  0  0  0
  1  2  1  0
  2  3  2  0
  3  4  1  0
  4  5  2  3
  5  6  1  0
  6  7  1  0
  7  8  2  0
  7  9  1  0
  9 10  2  0
 10 11  1  0
 11 12  1  0
 11 13  2  0
 13 14  1  0
 14 15  2  0
 15 16  1  0
  3 17  1  0
 17 18  2  0
 17 19  1  0
 19 20  1  0
 19 21  1  0
 21 22  2  0
 21 23  1  0
 23 24  1  0
 23  2  1  0
 15  9  1  0
  1 25  1  0
  1 26  1  0
  1 27  1  0
  4 28  1  0
  6 29  1  0
 10 30  1  0
 13 31  1  0
 14 32  1  0
 16 33  1  0
 20 34  1  0
 20 35  1  0
 20 36  1  0
 24 37  1  0
 24 38  1  0
 24 39  1  0
M  END
$$$$
