
     RDKit          3D

 40 42  0  0  0  0  0  0  0  0999 V2000
   -6.3882   -0.4484   -1.6338 C   0  0  0  0  0  0  0  0  0  0  0  0
   -6.7972    0.0115    0.0394 S   0  0  0  0  0  6  0  0  0  0  0  0
   -6.7453    1.4514    0.1522 O   0  0  0  0  0  0  0  0  0  0  0  0
   -7.9853   -0.7267    0.4139 O   0  0  0  0  0  0  0  0  0  0  0  0
   -5.5462   -0.6818    0.9242 N   0  0  0  0  0  0  0  0  0  0  0  0
   -4.1862   -0.3477    0.6706 C   0  0  0  0  0  0  0  0  0  0  0  0
   -3.2711   -1.3927    0.5084 C   0  0  0  0  0  0  0  0  0  0  0  0
   -1.9197   -1.1200    0.2717 C   0  0  0  0  0  0  0  0  0  0  0  0
   -1.4759    0.2065    0.2148 C   0  0  0  0  0  0  0  0  0  0  0  0
   -0.0492    0.5417   -0.0483 C   0  0  0  0  0  0  0  0  0  0  0  0
    0.1924    1.5076   -0.7600 O   0  0  0  0  0  0  0  0  0  0  0  0
    0.8631   -0.2812    0.5860 N   0  0  0  0  0  0  0  0  0  0  0  0
    2.2703   -0.2337    0.4869 C   0  0  0  0  0  0  0  0  0  0  0  0
    2.9956   -1.1162    1.3013 C   0  0  0  0  0  0  0  0  0  0  0  0
    4.3924   -1.1458    1.2574 C   0  0  0  0  0  0  0  0  0  0  0  0
    5.0748   -0.2965    0.3936 C   0  0  0  0  0  0  0  0  0  0  0  0
    4.3622    0.6020   -0.4046 C   0  0  0  0  0  0  0  0  0  0  0  0
    2.9653    0.6229   -0.3701 C   0  0  0  0  0  0  0  0  0  0  0  0
    4.9709    1.4889   -1.2575 O   0  0  0  0  0  0  0  0  0  0  0  0
    6.3633    1.6300   -0.9567 C   0  0  0  0  0  0  0  0  0  0  0  0
    7.0057    0.2682   -0.7534 C   0  0  0  0  0  0  0  0  0  0  0  0
    6.4423   -0.3934    0.3856 O   0  0  0  0  0  0  0  0  0  0  0  0
   -2.3912    1.2511    0.3808 C   0  0  0  0  0  0  0  0  0  0  0  0
   -3.7399    0.9728    0.6234 C   0  0  0  0  0  0  0  0  0  0  0  0
   -6.2855   -1.5338   -1.6882 H   0  0  0  0  0  0  0  0  0  0  0  0
   -7.2083   -0.1232   -2.2781 H   0  0  0  0  0  0  0  0  0  0  0  0
   -5.4666    0.0523   -1.9339 H   0  0  0  0  0  0  0  0  0  0  0  0
   -5.7598   -1.6395    1.2010 H   0  0  0  0  0  0  0  0  0  0  0  0
   -3.5994   -2.4283    0.5488 H   0  0  0  0  0  0  0  0  0  0  0  0
   -1.2339   -1.9469    0.1055 H   0  0  0  0  0  0  0  0  0  0  0  0
    0.4943   -0.9480    1.2511 H   0  0  0  0  0  0  0  0  0  0  0  0
    2.4868   -1.7940    1.9816 H   0  0  0  0  0  0  0  0  0  0  0  0
    4.9449   -1.8365    1.8882 H   0  0  0  0  0  0  0  0  0  0  0  0
    2.4510    1.3237   -1.0195 H   0  0  0  0  0  0  0  0  0  0  0  0
    6.4664    2.2608   -0.0650 H   0  0  0  0  0  0  0  0  0  0  0  0
    6.8337    2.1487   -1.7979 H   0  0  0  0  0  0  0  0  0  0  0  0
    8.0797    0.3791   -0.5743 H   0  0  0  0  0  0  0  0  0  0  0  0
    6.8700   -0.3750   -1.6317 H   0  0  0  0  0  0  0  0  0  0  0  0
   -2.0555    2.2858    0.3315 H   0  0  0  0  0  0  0  0  0  0  0  0
   -4.4209    1.8046    0.7865 H   0  0  0  0  0  0  0  0  0  0  0  0
  1  2  1  0
  2  3  2  0
  2  4  2  0
  2  5  1  0
  5  6  1  0
  6  7  2  0
  7  8  1  0
  8  9  2  0
  9 10  1  0
 10 11  2  0
 10 12  1  0
 12 13  1  0
 13 14  2  0
 14 15  1  0
 15 16  2  0
 16 17  1  0
 17 18  2  0
 17 19  1  0
 19 20  1  0
 20 21  1  0
 21 22  1  0
  9 23  1  0
 23 24  2  0
 24  6  1  0
 18 13  1  0
 22 16  1  0
  1 25  1  0
  1 26  1  0
  1 27  1  0
  5 28  1  0
  7 29  1  0
  8 30  1  0
 12 31  1  0
 14 32  1  0
 15 33  1  0
 18 34  1  0
 20 35  1  0
 20 36  1  0
 21 37  1  0
 21 38  1  0
 23 39  1  0
 24 40  1  0
M  END
$$$$
