
     RDKit          3D

 39 41  0  0  0  0  0  0  0  0999 V2000
    4.3909   -1.5050   -0.2244 C   0  0  0  0  0  0  0  0  0  0  0  0
    3.7466   -0.4802    0.5991 N   0  0  0  0  0  0  0  0  0  0  0  0
    4.7317    0.5340    0.9851 C   0  0  0  0  0  0  0  0  0  0  0  0
    2.6133    0.1593   -0.0963 C   0  0  0  0  0  0  0  0  0  0  0  0
    1.4097   -0.7831   -0.2992 C   0  0  0  0  0  0  0  0  0  0  0  0
    0.2475   -0.0543   -0.9332 C   0  0  0  0  0  0  0  0  0  0  0  0
   -1.0390    0.0297   -0.5224 C   0  0  0  0  0  0  0  0  0  0  0  0
   -1.9262    0.9914   -1.2373 C   0  0  0  0  0  0  0  0  0  0  0  0
   -1.9974    1.0420   -2.6387 C   0  0  0  0  0  0  0  0  0  0  0  0
   -2.8410    1.9555   -3.2740 C   0  0  0  0  0  0  0  0  0  0  0  0
   -3.6277    2.8212   -2.5181 C   0  0  0  0  0  0  0  0  0  0  0  0
   -3.5830    2.7676   -1.1244 C   0  0  0  0  0  0  0  0  0  0  0  0
   -2.7462    1.8492   -0.4774 C   0  0  0  0  0  0  0  0  0  0  0  0
   -2.7539    1.8094    1.3166 S   0  0  0  0  0  0  0  0  0  0  0  0
   -2.3260    0.0933    1.6119 C   0  0  0  0  0  0  0  0  0  0  0  0
   -2.8167   -0.5210    2.7719 C   0  0  0  0  0  0  0  0  0  0  0  0
   -2.5637   -1.8722    3.0139 C   0  0  0  0  0  0  0  0  0  0  0  0
   -1.8322   -2.6131    2.0897 C   0  0  0  0  0  0  0  0  0  0  0  0
   -1.5502   -4.2872    2.3707 Cl  0  0  0  0  0  0  0  0  0  0  0  0
   -1.3318   -2.0121    0.9354 C   0  0  0  0  0  0  0  0  0  0  0  0
   -1.5408   -0.6443    0.7032 C   0  0  0  0  0  0  0  0  0  0  0  0
    5.2473   -1.9399    0.3040 H   0  0  0  0  0  0  0  0  0  0  0  0
    3.7102   -2.3372   -0.4275 H   0  0  0  0  0  0  0  0  0  0  0  0
    4.7471   -1.1038   -1.1801 H   0  0  0  0  0  0  0  0  0  0  0  0
    5.5576    0.0773    1.5421 H   0  0  0  0  0  0  0  0  0  0  0  0
    5.1479    1.0574    0.1166 H   0  0  0  0  0  0  0  0  0  0  0  0
    4.2805    1.2763    1.6530 H   0  0  0  0  0  0  0  0  0  0  0  0
    2.9376    0.5715   -1.0615 H   0  0  0  0  0  0  0  0  0  0  0  0
    2.2639    1.0086    0.5070 H   0  0  0  0  0  0  0  0  0  0  0  0
    1.6795   -1.6112   -0.9634 H   0  0  0  0  0  0  0  0  0  0  0  0
    1.1483   -1.2106    0.6722 H   0  0  0  0  0  0  0  0  0  0  0  0
    0.5471    0.5141   -1.8144 H   0  0  0  0  0  0  0  0  0  0  0  0
   -1.4044    0.3633   -3.2470 H   0  0  0  0  0  0  0  0  0  0  0  0
   -2.8861    1.9882   -4.3598 H   0  0  0  0  0  0  0  0  0  0  0  0
   -4.2838    3.5331   -3.0127 H   0  0  0  0  0  0  0  0  0  0  0  0
   -4.2114    3.4418   -0.5470 H   0  0  0  0  0  0  0  0  0  0  0  0
   -3.4108    0.0444    3.4864 H   0  0  0  0  0  0  0  0  0  0  0  0
   -2.9527   -2.3412    3.9138 H   0  0  0  0  0  0  0  0  0  0  0  0
   -0.7820   -2.6120    0.2148 H   0  0  0  0  0  0  0  0  0  0  0  0
  1  2  1  0
  2  3  1  0
  2  4  1  0
  4  5  1  0
  5  6  1  0
  6  7  2  3
  7  8  1  0
  8  9  2  0
  9 10  1  0
 10 11  2  0
 11 12  1  0
 12 13  2  0
 13 14  1  0
 14 15  1  0
 15 16  2  0
 16 17  1  0
 17 18  2  0
 18 19  1  0
 18 20  1  0
 20 21  2  0
 21  7  1  0
 13  8  1  0
 21 15  1  0
  1 22  1  0
  1 23  1  0
  1 24  1  0
  3 25  1  0
  3 26  1  0
  3 27  1  0
  4 28  1  0
  4 29  1  0
  5 30  1  0
  5 31  1  0
  6 32  1  0
  9 33  1  0
 10 34  1  0
 11 35  1  0
 12 36  1  0
 16 37  1  0
 17 38  1  0
 20 39  1  0
M  END
$$$$
