
     RDKit          3D

 47 48  0  0  0  0  0  0  0  0999 V2000
   -3.8074   -1.4253    3.6595 C   0  0  0  0  0  0  0  0  0  0  0  0
   -3.7531    0.0366    3.2394 C   0  0  0  0  0  0  0  0  0  0  0  0
   -3.4474    0.1619    1.8053 N   0  0  0  0  0  0  0  0  0  0  0  0
   -4.6184    0.2385    0.9185 C   0  0  0  0  0  0  0  0  0  0  0  0
   -5.0389    1.6833    0.6889 C   0  0  0  0  0  0  0  0  0  0  0  0
   -2.1420    0.2319    1.3295 C   0  0  0  0  0  0  0  0  0  0  0  0
   -1.0315    0.0278    2.1630 C   0  0  0  0  0  0  0  0  0  0  0  0
    0.2865    0.0847    1.6905 C   0  0  0  0  0  0  0  0  0  0  0  0
    0.5510    0.3474    0.3462 C   0  0  0  0  0  0  0  0  0  0  0  0
    1.9625    0.3985   -0.0714 C   0  0  0  0  0  0  0  0  0  0  0  0
    2.4243   -0.2870   -1.1292 C   0  0  0  0  0  0  0  0  0  0  0  0
    3.8226   -0.2439   -1.5610 C   0  0  0  0  0  0  0  0  0  0  0  0
    4.4329    0.9807   -1.8658 C   0  0  0  0  0  0  0  0  0  0  0  0
    5.7485    1.0154   -2.3086 C   0  0  0  0  0  0  0  0  0  0  0  0
    6.4429   -0.1746   -2.4502 C   0  0  0  0  0  0  0  0  0  0  0  0
    5.8104   -1.3732   -2.1459 C   0  0  0  0  0  0  0  0  0  0  0  0
    4.5279   -1.3997   -1.7106 N   0  0  0  0  0  4  0  0  0  0  0  0
    3.9182   -2.7036   -1.3790 C   0  0  0  0  0  0  0  0  0  0  0  0
   -0.5299    0.5901   -0.5161 C   0  0  0  0  0  0  0  0  0  0  0  0
   -0.2194    0.8850   -1.8232 O   0  0  0  0  0  0  0  0  0  0  0  0
   -1.2507    1.4576   -2.6211 C   0  0  0  0  0  0  0  0  0  0  0  0
   -1.8447    0.5123   -0.0192 C   0  0  0  0  0  0  0  0  0  0  0  0
   -2.8512   -1.9311    3.4954 H   0  0  0  0  0  0  0  0  0  0  0  0
   -4.0544   -1.5036    4.7229 H   0  0  0  0  0  0  0  0  0  0  0  0
   -4.5709   -1.9689    3.0933 H   0  0  0  0  0  0  0  0  0  0  0  0
   -3.0438    0.5976    3.8581 H   0  0  0  0  0  0  0  0  0  0  0  0
   -4.7286    0.4931    3.4507 H   0  0  0  0  0  0  0  0  0  0  0  0
   -5.4607   -0.2988    1.3729 H   0  0  0  0  0  0  0  0  0  0  0  0
   -4.4417   -0.2755   -0.0328 H   0  0  0  0  0  0  0  0  0  0  0  0
   -4.2457    2.2672    0.2124 H   0  0  0  0  0  0  0  0  0  0  0  0
   -5.2893    2.1753    1.6345 H   0  0  0  0  0  0  0  0  0  0  0  0
   -5.9219    1.7212    0.0433 H   0  0  0  0  0  0  0  0  0  0  0  0
   -1.1585   -0.1974    3.2178 H   0  0  0  0  0  0  0  0  0  0  0  0
    1.0962   -0.0877    2.3960 H   0  0  0  0  0  0  0  0  0  0  0  0
    2.6095    1.0140    0.5502 H   0  0  0  0  0  0  0  0  0  0  0  0
    1.7522   -0.9029   -1.7222 H   0  0  0  0  0  0  0  0  0  0  0  0
    3.8767    1.9126   -1.7695 H   0  0  0  0  0  0  0  0  0  0  0  0
    6.2241    1.9657   -2.5469 H   0  0  0  0  0  0  0  0  0  0  0  0
    7.4739   -0.1697   -2.7985 H   0  0  0  0  0  0  0  0  0  0  0  0
    6.3309   -2.3217   -2.2485 H   0  0  0  0  0  0  0  0  0  0  0  0
    4.6678   -3.4959   -1.4504 H   0  0  0  0  0  0  0  0  0  0  0  0
    3.1167   -2.8952   -2.0970 H   0  0  0  0  0  0  0  0  0  0  0  0
    3.5429   -2.6612   -0.3531 H   0  0  0  0  0  0  0  0  0  0  0  0
   -2.0152    0.7122   -2.8620 H   0  0  0  0  0  0  0  0  0  0  0  0
   -1.6893    2.3380   -2.1394 H   0  0  0  0  0  0  0  0  0  0  0  0
   -0.7990    1.7846   -3.5626 H   0  0  0  0  0  0  0  0  0  0  0  0
   -2.6649    0.6841   -0.7042 H   0  0  0  0  0  0  0  0  0  0  0  0
  1  2  1  0
  2  3  1  0
  3  4  1  0
  4  5  1  0
  3  6  1  0
  6  7  2  0
  7  8  1  0
  8  9  2  0
  9 10  1  0
 10 11  2  3
 11 12  1  0
 12 13  2  0
 13 14  1  0
 14 15  2  0
 15 16  1  0
 16 17  2  0
 17 18  1  0
  9 19  1  0
 19 20  1  0
 20 21  1  0
 19 22  2  0
 22  6  1  0
 17 12  1  0
  1 23  1  0
  1 24  1  0
  1 25  1  0
  2 26  1  0
  2 27  1  0
  4 28  1  0
  4 29  1  0
  5 30  1  0
  5 31  1  0
  5 32  1  0
  7 33  1  0
  8 34  1  0
 10 35  1  0
 11 36  1  0
 13 37  1  0
 14 38  1  0
 15 39  1  0
 16 40  1  0
 18 41  1  0
 18 42  1  0
 18 43  1  0
 21 44  1  0
 21 45  1  0
 21 46  1  0
 22 47  1  0
M  CHG  1  17   1
M  END
$$$$
