
     RDKit          3D

 53 56  0  0  0  0  0  0  0  0999 V2000
   -7.1589    2.7563   -2.3681 C   0  0  0  0  0  0  0  0  0  0  0  0
   -6.0449    2.0915   -1.6138 C   0  0  0  0  0  0  0  0  0  0  0  0
   -4.8401    2.7597   -1.3840 C   0  0  0  0  0  0  0  0  0  0  0  0
   -3.7960    2.1256   -0.7036 C   0  0  0  0  0  0  0  0  0  0  0  0
   -3.9409    0.8104   -0.2330 C   0  0  0  0  0  0  0  0  0  0  0  0
   -2.8497    0.2004    0.4606 N   0  0  0  0  0  0  0  0  0  0  0  0
   -1.6107    0.7553    0.3451 N   0  0  0  0  0  0  0  0  0  0  0  0
   -0.7831   -0.1284    0.9072 C   0  0  0  0  0  0  0  0  0  0  0  0
    0.6673   -0.0283    0.9827 C   0  0  0  0  0  0  0  0  0  0  0  0
    1.3249    0.8880    0.4889 O   0  0  0  0  0  0  0  0  0  0  0  0
    1.2535   -1.1038    1.6776 N   0  0  0  0  0  0  0  0  0  0  0  0
    2.6973   -1.1022    1.8665 C   0  0  0  0  0  0  0  0  0  0  0  0
    3.3996   -1.5348    0.5815 C   0  0  0  0  0  0  0  0  0  0  0  0
    3.6741   -2.7065    0.3329 O   0  0  0  0  0  0  0  0  0  0  0  0
    3.6618   -0.4958   -0.2927 N   0  0  0  0  0  0  0  0  0  0  0  0
    4.2102   -0.7509   -1.6117 C   0  0  0  0  0  0  0  0  0  0  0  0
    4.8660    0.4854   -2.2309 C   0  0  0  0  0  0  0  0  0  0  0  0
    6.0726    0.9656   -1.4683 C   0  0  0  0  0  0  0  0  0  0  0  0
    7.1556    0.2390   -1.0052 C   0  0  0  0  0  0  0  0  0  0  0  0
    8.1100    1.0542   -0.3317 C   0  0  0  0  0  0  0  0  0  0  0  0
    7.7352    2.3780   -0.3151 C   0  0  0  0  0  0  0  0  0  0  0  0
    6.2327    2.6307   -1.0899 S   0  0  0  0  0  0  0  0  0  0  0  0
    0.5533   -2.1714    2.2480 N   0  0  0  0  0  0  0  0  0  0  0  0
   -0.7449   -2.2503    2.1571 C   0  0  0  0  0  0  0  0  0  0  0  0
   -1.4335   -3.4356    2.7717 C   0  0  0  0  0  0  0  0  0  0  0  0
   -1.4713   -1.2017    1.4825 C   0  0  0  0  0  0  0  0  0  0  0  0
   -2.8150   -0.9308    1.2864 C   0  0  0  0  0  0  0  0  0  0  0  0
   -4.0130   -1.6011    1.8558 C   0  0  0  0  0  0  0  0  0  0  0  0
   -5.1320    0.1282   -0.5031 C   0  0  0  0  0  0  0  0  0  0  0  0
   -6.1748    0.7667   -1.1860 C   0  0  0  0  0  0  0  0  0  0  0  0
   -8.1289    2.4928   -1.9315 H   0  0  0  0  0  0  0  0  0  0  0  0
   -7.1401    2.4461   -3.4174 H   0  0  0  0  0  0  0  0  0  0  0  0
   -7.0698    3.8462   -2.3242 H   0  0  0  0  0  0  0  0  0  0  0  0
   -4.7009    3.7808   -1.7315 H   0  0  0  0  0  0  0  0  0  0  0  0
   -2.8742    2.6818   -0.5368 H   0  0  0  0  0  0  0  0  0  0  0  0
    3.0308   -0.0980    2.1530 H   0  0  0  0  0  0  0  0  0  0  0  0
    2.9729   -1.7907    2.6731 H   0  0  0  0  0  0  0  0  0  0  0  0
    3.0994    0.3488   -0.1719 H   0  0  0  0  0  0  0  0  0  0  0  0
    4.9196   -1.5852   -1.5519 H   0  0  0  0  0  0  0  0  0  0  0  0
    3.3767   -1.0808   -2.2432 H   0  0  0  0  0  0  0  0  0  0  0  0
    4.1170    1.2845   -2.3067 H   0  0  0  0  0  0  0  0  0  0  0  0
    5.1802    0.2472   -3.2549 H   0  0  0  0  0  0  0  0  0  0  0  0
    7.2595   -0.8326   -1.1353 H   0  0  0  0  0  0  0  0  0  0  0  0
    9.0279    0.6877    0.1107 H   0  0  0  0  0  0  0  0  0  0  0  0
    8.2686    3.2126    0.1189 H   0  0  0  0  0  0  0  0  0  0  0  0
   -0.7041   -4.2152    3.0117 H   0  0  0  0  0  0  0  0  0  0  0  0
   -2.1679   -3.8502    2.0771 H   0  0  0  0  0  0  0  0  0  0  0  0
   -1.9300   -3.1292    3.6958 H   0  0  0  0  0  0  0  0  0  0  0  0
   -4.8383   -0.9009    2.0147 H   0  0  0  0  0  0  0  0  0  0  0  0
   -3.7941   -2.0199    2.8426 H   0  0  0  0  0  0  0  0  0  0  0  0
   -4.3445   -2.4196    1.2100 H   0  0  0  0  0  0  0  0  0  0  0  0
   -5.2755   -0.9143   -0.2468 H   0  0  0  0  0  0  0  0  0  0  0  0
   -7.0894    0.2149   -1.3951 H   0  0  0  0  0  0  0  0  0  0  0  0
  1  2  1  0
  2  3  2  0
  3  4  1  0
  4  5  2  0
  5  6  1  0
  6  7  1  0
  7  8  2  0
  8  9  1  0
  9 10  2  0
  9 11  1  0
 11 12  1  0
 12 13  1  0
 13 14  2  0
 13 15  1  0
 15 16  1  0
 16 17  1  0
 17 18  1  0
 18 19  2  0
 19 20  1  0
 20 21  2  0
 21 22  1  0
 11 23  1  0
 23 24  2  0
 24 25  1  0
 24 26  1  0
 26 27  2  0
 27 28  1  0
  5 29  1  0
 29 30  2  0
 30  2  1  0
 27  6  1  0
 26  8  1  0
 22 18  1  0
  1 31  1  0
  1 32  1  0
  1 33  1  0
  3 34  1  0
  4 35  1  0
 12 36  1  0
 12 37  1  0
 15 38  1  0
 16 39  1  0
 16 40  1  0
 17 41  1  0
 17 42  1  0
 19 43  1  0
 20 44  1  0
 21 45  1  0
 25 46  1  0
 25 47  1  0
 25 48  1  0
 28 49  1  0
 28 50  1  0
 28 51  1  0
 29 52  1  0
 30 53  1  0
M  END
$$$$
