
     RDKit          3D

 43 46  0  0  0  0  0  0  0  0999 V2000
   -1.5962    0.6852   -1.6009 O   0  0  0  0  0  0  0  0  0  0  0  0
   -1.8532    0.2456   -0.4844 C   0  0  0  0  0  0  0  0  0  0  0  0
   -0.9122   -0.1549    0.4509 N   0  0  0  0  0  0  0  0  0  0  0  0
    0.4946   -0.1393    0.3134 C   0  0  0  0  0  0  0  0  0  0  0  0
    1.1729    0.2965   -0.8230 C   0  0  0  0  0  0  0  0  0  0  0  0
    2.5761    0.2786   -0.8763 C   0  0  0  0  0  0  0  0  0  0  0  0
    3.3260   -0.1758    0.2065 C   0  0  0  0  0  0  0  0  0  0  0  0
    4.7364   -0.2289    0.2404 N   0  0  0  0  0  0  0  0  0  0  0  0
    5.6316    0.1447   -0.7554 C   0  0  0  0  0  0  0  0  0  0  0  0
    5.2847    0.5908   -1.8456 O   0  0  0  0  0  0  0  0  0  0  0  0
    7.0445   -0.0388   -0.3959 C   0  0  0  0  0  0  0  0  0  0  0  0
    7.6405   -0.5187    0.7610 C   0  0  0  0  0  0  0  0  0  0  0  0
    9.0666   -0.5295    0.6883 C   0  0  0  0  0  0  0  0  0  0  0  0
    9.5244   -0.0589   -0.5190 C   0  0  0  0  0  0  0  0  0  0  0  0
    8.2461    0.3916   -1.5550 S   0  0  0  0  0  0  0  0  0  0  0  0
    2.6460   -0.6137    1.3482 C   0  0  0  0  0  0  0  0  0  0  0  0
    1.2466   -0.5957    1.4010 C   0  0  0  0  0  0  0  0  0  0  0  0
   -3.3022    0.1294   -0.0926 C   0  0  0  0  0  0  0  0  0  0  0  0
   -3.7491   -0.3532    1.1436 C   0  0  0  0  0  0  0  0  0  0  0  0
   -5.1200   -0.4270    1.4238 C   0  0  0  0  0  0  0  0  0  0  0  0
   -6.0743   -0.0220    0.4797 C   0  0  0  0  0  0  0  0  0  0  0  0
   -7.4508   -0.0915    0.7497 C   0  0  0  0  0  0  0  0  0  0  0  0
   -8.3854    0.3164   -0.2032 C   0  0  0  0  0  0  0  0  0  0  0  0
   -7.9560    0.7982   -1.4361 C   0  0  0  0  0  0  0  0  0  0  0  0
   -6.5912    0.8730   -1.7185 C   0  0  0  0  0  0  0  0  0  0  0  0
   -5.6385    0.4664   -0.7702 C   0  0  0  0  0  0  0  0  0  0  0  0
   -4.2605    0.5352   -1.0386 C   0  0  0  0  0  0  0  0  0  0  0  0
   -1.2402   -0.5003    1.3371 H   0  0  0  0  0  0  0  0  0  0  0  0
    0.6467    0.6621   -1.6995 H   0  0  0  0  0  0  0  0  0  0  0  0
    3.0410    0.6319   -1.7917 H   0  0  0  0  0  0  0  0  0  0  0  0
    5.1300   -0.5828    1.0972 H   0  0  0  0  0  0  0  0  0  0  0  0
    7.1046   -0.8550    1.6383 H   0  0  0  0  0  0  0  0  0  0  0  0
    9.7220   -0.8659    1.4827 H   0  0  0  0  0  0  0  0  0  0  0  0
   10.5502    0.0435   -0.8464 H   0  0  0  0  0  0  0  0  0  0  0  0
    3.1899   -0.9764    2.2163 H   0  0  0  0  0  0  0  0  0  0  0  0
    0.7595   -0.9448    2.3074 H   0  0  0  0  0  0  0  0  0  0  0  0
   -3.0732   -0.6842    1.9223 H   0  0  0  0  0  0  0  0  0  0  0  0
   -5.4392   -0.8062    2.3929 H   0  0  0  0  0  0  0  0  0  0  0  0
   -7.8068   -0.4651    1.7072 H   0  0  0  0  0  0  0  0  0  0  0  0
   -9.4481    0.2578    0.0175 H   0  0  0  0  0  0  0  0  0  0  0  0
   -8.6819    1.1164   -2.1800 H   0  0  0  0  0  0  0  0  0  0  0  0
   -6.2745    1.2524   -2.6880 H   0  0  0  0  0  0  0  0  0  0  0  0
   -3.9274    0.9131   -2.0053 H   0  0  0  0  0  0  0  0  0  0  0  0
  1  2  2  0
  2  3  1  0
  3  4  1  0
  4  5  2  0
  5  6  1  0
  6  7  2  0
  7  8  1  0
  8  9  1  0
  9 10  2  0
  9 11  1  0
 11 12  2  0
 12 13  1  0
 13 14  2  0
 14 15  1  0
  7 16  1  0
 16 17  2  0
  2 18  1  0
 18 19  2  0
 19 20  1  0
 20 21  2  0
 21 22  1  0
 22 23  2  0
 23 24  1  0
 24 25  2  0
 25 26  1  0
 26 27  2  0
 17  4  1  0
 27 18  1  0
 15 11  1  0
 26 21  1  0
  3 28  1  0
  5 29  1  0
  6 30  1  0
  8 31  1  0
 12 32  1  0
 13 33  1  0
 14 34  1  0
 16 35  1  0
 17 36  1  0
 19 37  1  0
 20 38  1  0
 22 39  1  0
 23 40  1  0
 24 41  1  0
 25 42  1  0
 27 43  1  0
M  END
$$$$
