
     RDKit          3D

 59 61  0  0  0  0  0  0  0  0999 V2000
   -8.4614   -0.1483   -2.4426 C   0  0  0  0  0  0  0  0  0  0  0  0
   -7.1067   -0.7661   -2.1464 C   0  0  0  0  0  0  0  0  0  0  0  0
   -6.3401    0.1864   -1.4153 O   0  0  0  0  0  0  0  0  0  0  0  0
   -5.0691   -0.1609   -1.0303 C   0  0  0  0  0  0  0  0  0  0  0  0
   -4.4650   -1.3914   -1.3153 C   0  0  0  0  0  0  0  0  0  0  0  0
   -3.1645   -1.6445   -0.8768 C   0  0  0  0  0  0  0  0  0  0  0  0
   -2.5586   -2.8651   -1.1652 N   0  0  0  0  0  0  0  0  0  0  0  0
   -1.2954   -3.2108   -0.7667 C   0  0  0  0  0  0  0  0  0  0  0  0
   -0.7630   -4.7272   -1.2479 S   0  0  0  0  0  0  0  0  0  0  0  0
   -0.5928   -2.2715   -0.0143 N   0  0  0  0  0  0  0  0  0  0  0  0
    0.7714   -2.5344    0.4795 C   0  0  0  0  0  0  0  0  0  0  0  0
    1.8338   -2.0376   -0.4984 C   0  0  0  0  0  0  0  0  0  0  0  0
    3.2252   -2.3234    0.0196 C   0  0  0  0  0  0  0  0  0  0  0  0
    3.4474   -2.9167    1.0689 O   0  0  0  0  0  0  0  0  0  0  0  0
    4.2140   -1.8601   -0.8204 N   0  0  0  0  0  0  0  0  0  0  0  0
    5.6119   -1.9211   -0.4557 C   0  0  0  0  0  0  0  0  0  0  0  0
    6.0843   -0.5877    0.0626 C   0  0  0  0  0  0  0  0  0  0  0  0
    5.8080   -0.2043    1.3822 C   0  0  0  0  0  0  0  0  0  0  0  0
    6.2183    1.0424    1.8673 C   0  0  0  0  0  0  0  0  0  0  0  0
    6.9079    1.9247    1.0366 C   0  0  0  0  0  0  0  0  0  0  0  0
    7.3625    3.1677    1.3817 O   0  0  0  0  0  0  0  0  0  0  0  0
    7.1087    3.5952    2.7141 C   0  0  0  0  0  0  0  0  0  0  0  0
    7.1801    1.5485   -0.2807 C   0  0  0  0  0  0  0  0  0  0  0  0
    6.7705    0.3049   -0.7687 C   0  0  0  0  0  0  0  0  0  0  0  0
   -1.0921   -0.9920    0.2750 C   0  0  0  0  0  0  0  0  0  0  0  0
   -0.4462   -0.1162    0.8474 O   0  0  0  0  0  0  0  0  0  0  0  0
   -2.4663   -0.6857   -0.1617 C   0  0  0  0  0  0  0  0  0  0  0  0
   -3.0559    0.5491    0.1297 C   0  0  0  0  0  0  0  0  0  0  0  0
   -4.3580    0.8179   -0.3015 C   0  0  0  0  0  0  0  0  0  0  0  0
   -5.0242    1.9949   -0.0682 O   0  0  0  0  0  0  0  0  0  0  0  0
   -4.3489    3.0104    0.6703 C   0  0  0  0  0  0  0  0  0  0  0  0
   -5.2866    4.1977    0.7971 C   0  0  0  0  0  0  0  0  0  0  0  0
   -8.9740    0.1206   -1.5131 H   0  0  0  0  0  0  0  0  0  0  0  0
   -8.3463    0.7741   -3.0215 H   0  0  0  0  0  0  0  0  0  0  0  0
   -9.0918   -0.8424   -3.0056 H   0  0  0  0  0  0  0  0  0  0  0  0
   -7.2508   -1.6756   -1.5521 H   0  0  0  0  0  0  0  0  0  0  0  0
   -6.6097   -1.0082   -3.0927 H   0  0  0  0  0  0  0  0  0  0  0  0
   -4.9897   -2.1579   -1.8740 H   0  0  0  0  0  0  0  0  0  0  0  0
   -3.0642   -3.5638   -1.6994 H   0  0  0  0  0  0  0  0  0  0  0  0
    0.8993   -2.0345    1.4484 H   0  0  0  0  0  0  0  0  0  0  0  0
    0.9013   -3.6026    0.6815 H   0  0  0  0  0  0  0  0  0  0  0  0
    1.7344   -0.9569   -0.6524 H   0  0  0  0  0  0  0  0  0  0  0  0
    1.7190   -2.5258   -1.4726 H   0  0  0  0  0  0  0  0  0  0  0  0
    3.9600   -1.2234   -1.5637 H   0  0  0  0  0  0  0  0  0  0  0  0
    5.7887   -2.7032    0.2911 H   0  0  0  0  0  0  0  0  0  0  0  0
    6.1690   -2.2004   -1.3567 H   0  0  0  0  0  0  0  0  0  0  0  0
    5.2630   -0.8794    2.0413 H   0  0  0  0  0  0  0  0  0  0  0  0
    5.9791    1.2901    2.8959 H   0  0  0  0  0  0  0  0  0  0  0  0
    7.6022    2.9403    3.4399 H   0  0  0  0  0  0  0  0  0  0  0  0
    6.0333    3.6636    2.9089 H   0  0  0  0  0  0  0  0  0  0  0  0
    7.5318    4.5978    2.8295 H   0  0  0  0  0  0  0  0  0  0  0  0
    7.7161    2.2332   -0.9336 H   0  0  0  0  0  0  0  0  0  0  0  0
    6.9942    0.0423   -1.7998 H   0  0  0  0  0  0  0  0  0  0  0  0
   -2.4793    1.2777    0.6909 H   0  0  0  0  0  0  0  0  0  0  0  0
   -3.4423    3.3263    0.1415 H   0  0  0  0  0  0  0  0  0  0  0  0
   -4.0951    2.6470    1.6728 H   0  0  0  0  0  0  0  0  0  0  0  0
   -6.2118    3.9058    1.3050 H   0  0  0  0  0  0  0  0  0  0  0  0
   -4.8153    5.0084    1.3597 H   0  0  0  0  0  0  0  0  0  0  0  0
   -5.5705    4.5720   -0.1920 H   0  0  0  0  0  0  0  0  0  0  0  0
  1  2  1  0
  2  3  1  0
  3  4  1  0
  4  5  2  0
  5  6  1  0
  6  7  1  0
  7  8  1  0
  8  9  2  0
  8 10  1  0
 10 11  1  0
 11 12  1  0
 12 13  1  0
 13 14  2  0
 13 15  1  0
 15 16  1  0
 16 17  1  0
 17 18  2  0
 18 19  1  0
 19 20  2  0
 20 21  1  0
 21 22  1  0
 20 23  1  0
 23 24  2  0
 10 25  1  0
 25 26  2  0
 25 27  1  0
 27 28  1  0
 28 29  2  0
 29 30  1  0
 30 31  1  0
 31 32  1  0
 29  4  1  0
 27  6  2  0
 24 17  1  0
  1 33  1  0
  1 34  1  0
  1 35  1  0
  2 36  1  0
  2 37  1  0
  5 38  1  0
  7 39  1  0
 11 40  1  0
 11 41  1  0
 12 42  1  0
 12 43  1  0
 15 44  1  0
 16 45  1  0
 16 46  1  0
 18 47  1  0
 19 48  1  0
 22 49  1  0
 22 50  1  0
 22 51  1  0
 23 52  1  0
 24 53  1  0
 28 54  1  0
 31 55  1  0
 31 56  1  0
 32 57  1  0
 32 58  1  0
 32 59  1  0
M  END
$$$$
