
     RDKit          3D

 53 56  0  0  0  0  0  0  0  0999 V2000
  -10.3406    0.3771    0.7232 C   0  0  0  0  0  0  0  0  0  0  0  0
   -9.0600    0.2551    1.3288 O   0  0  0  0  0  0  0  0  0  0  0  0
   -7.9703    0.4610    0.5293 C   0  0  0  0  0  0  0  0  0  0  0  0
   -7.9987    0.7807   -0.8274 C   0  0  0  0  0  0  0  0  0  0  0  0
   -6.8047    0.9653   -1.5291 C   0  0  0  0  0  0  0  0  0  0  0  0
   -5.5748    0.8319   -0.8805 C   0  0  0  0  0  0  0  0  0  0  0  0
   -5.5332    0.5113    0.4812 C   0  0  0  0  0  0  0  0  0  0  0  0
   -4.2481    0.3547    1.2326 C   0  0  0  0  0  0  0  0  0  0  0  0
   -4.2891    0.0719    2.4288 O   0  0  0  0  0  0  0  0  0  0  0  0
   -2.9393    0.5559    0.4715 C   0  0  0  0  0  0  0  0  0  0  0  0
   -1.8227    0.3679    1.3321 O   0  0  0  0  0  0  0  0  0  0  0  0
   -0.5781    0.5129    0.7902 C   0  0  0  0  0  0  0  0  0  0  0  0
   -0.2870    0.8408   -0.5321 C   0  0  0  0  0  0  0  0  0  0  0  0
    1.0467    0.9586   -0.9571 C   0  0  0  0  0  0  0  0  0  0  0  0
    2.1161    0.7534   -0.0729 C   0  0  0  0  0  0  0  0  0  0  0  0
    3.5392    0.8516   -0.4593 C   0  0  0  0  0  0  0  0  0  0  0  0
    3.8284    1.2028   -1.8968 C   0  0  0  0  0  0  0  0  0  0  0  0
    4.4921    0.6105    0.4713 C   0  0  0  0  0  0  0  0  0  0  0  0
    5.9888    0.6512    0.2280 C   0  0  0  0  0  0  0  0  0  0  0  0
    6.5782   -0.7020   -0.1161 C   0  0  0  0  0  0  0  0  0  0  0  0
    6.7164   -1.1105   -1.4507 C   0  0  0  0  0  0  0  0  0  0  0  0
    7.2451   -2.3656   -1.7601 C   0  0  0  0  0  0  0  0  0  0  0  0
    7.6409   -3.2279   -0.7404 C   0  0  0  0  0  0  0  0  0  0  0  0
    7.5104   -2.8353    0.5893 C   0  0  0  0  0  0  0  0  0  0  0  0
    6.9829   -1.5806    0.8998 C   0  0  0  0  0  0  0  0  0  0  0  0
    4.1311    0.3235    1.8916 C   0  0  0  0  0  0  0  0  0  0  0  0
    4.9803    0.2062    2.7697 O   0  0  0  0  0  0  0  0  0  0  0  0
    2.7883    0.2071    2.2000 O   0  0  0  0  0  0  0  0  0  0  0  0
    1.7937    0.4267    1.2387 C   0  0  0  0  0  0  0  0  0  0  0  0
    0.4735    0.3053    1.6785 C   0  0  0  0  0  0  0  0  0  0  0  0
   -6.7379    0.3282    1.1757 C   0  0  0  0  0  0  0  0  0  0  0  0
  -11.0943    0.1835    1.4925 H   0  0  0  0  0  0  0  0  0  0  0  0
  -10.5031    1.3919    0.3453 H   0  0  0  0  0  0  0  0  0  0  0  0
  -10.4747   -0.3665   -0.0694 H   0  0  0  0  0  0  0  0  0  0  0  0
   -8.9326    0.8934   -1.3685 H   0  0  0  0  0  0  0  0  0  0  0  0
   -6.8364    1.2144   -2.5877 H   0  0  0  0  0  0  0  0  0  0  0  0
   -4.6733    0.9842   -1.4654 H   0  0  0  0  0  0  0  0  0  0  0  0
   -2.9038   -0.1842   -0.3361 H   0  0  0  0  0  0  0  0  0  0  0  0
   -2.9313    1.5815    0.0849 H   0  0  0  0  0  0  0  0  0  0  0  0
   -1.0680    1.0119   -1.2653 H   0  0  0  0  0  0  0  0  0  0  0  0
    1.2188    1.2119   -2.0000 H   0  0  0  0  0  0  0  0  0  0  0  0
    3.4393    0.4286   -2.5674 H   0  0  0  0  0  0  0  0  0  0  0  0
    4.8899    1.3081   -2.1230 H   0  0  0  0  0  0  0  0  0  0  0  0
    3.3691    2.1628   -2.1582 H   0  0  0  0  0  0  0  0  0  0  0  0
    6.5161    1.0605    1.1002 H   0  0  0  0  0  0  0  0  0  0  0  0
    6.2446    1.3663   -0.5622 H   0  0  0  0  0  0  0  0  0  0  0  0
    6.4201   -0.4547   -2.2643 H   0  0  0  0  0  0  0  0  0  0  0  0
    7.3488   -2.6706   -2.7980 H   0  0  0  0  0  0  0  0  0  0  0  0
    8.0516   -4.2048   -0.9807 H   0  0  0  0  0  0  0  0  0  0  0  0
    7.8180   -3.5048    1.3884 H   0  0  0  0  0  0  0  0  0  0  0  0
    6.8910   -1.2935    1.9462 H   0  0  0  0  0  0  0  0  0  0  0  0
    0.2667    0.0491    2.7147 H   0  0  0  0  0  0  0  0  0  0  0  0
   -6.7242    0.0782    2.2360 H   0  0  0  0  0  0  0  0  0  0  0  0
  1  2  1  0
  2  3  1  0
  3  4  2  0
  4  5  1  0
  5  6  2  0
  6  7  1  0
  7  8  1  0
  8  9  2  0
  8 10  1  0
 10 11  1  0
 11 12  1  0
 12 13  2  0
 13 14  1  0
 14 15  2  0
 15 16  1  0
 16 17  1  0
 16 18  2  0
 18 19  1  0
 19 20  1  0
 20 21  2  0
 21 22  1  0
 22 23  2  0
 23 24  1  0
 24 25  2  0
 18 26  1  0
 26 27  2  0
 26 28  1  0
 28 29  1  0
 29 30  2  0
  7 31  2  0
 31  3  1  0
 30 12  1  0
 29 15  1  0
 25 20  1  0
  1 32  1  0
  1 33  1  0
  1 34  1  0
  4 35  1  0
  5 36  1  0
  6 37  1  0
 10 38  1  0
 10 39  1  0
 13 40  1  0
 14 41  1  0
 17 42  1  0
 17 43  1  0
 17 44  1  0
 19 45  1  0
 19 46  1  0
 21 47  1  0
 22 48  1  0
 23 49  1  0
 24 50  1  0
 25 51  1  0
 30 52  1  0
 31 53  1  0
M  END
$$$$
