
     RDKit          3D

 92 95  0  0  0  0  0  0  0  0999 V2000
    3.5974   -2.0557   -4.8554 C   0  0  0  0  0  0  0  0  0  0  0  0
    3.2274   -2.1718   -3.5724 C   0  0  0  0  0  0  0  0  0  0  0  0
    2.2861   -1.2141   -2.8905 C   0  0  0  0  0  0  0  0  0  0  0  0
    2.9638   -0.4110   -1.7678 C   0  0  0  0  0  0  0  0  0  0  0  0
    3.1618   -1.2528   -0.4927 C   0  0  0  0  0  0  0  0  0  0  0  0
    4.0406   -0.5617    0.5437 C   0  0  0  0  0  0  0  0  0  0  0  0
    4.4626    0.5794    0.3586 O   0  0  0  0  0  0  0  0  0  0  0  0
    4.3462   -1.2718    1.7050 N   0  0  0  0  0  0  0  0  0  0  0  0
    3.9446   -2.6666    1.9705 C   0  0  0  0  0  0  0  0  0  0  0  0
    5.0935   -3.6608    1.7691 C   0  0  0  0  0  0  0  0  0  0  0  0
    5.6117   -3.5765    0.4464 O   0  0  0  0  0  0  0  0  0  0  0  0
    5.1640   -0.5994    2.7219 C   0  0  0  0  0  0  0  0  0  0  0  0
    4.4267   -0.4026    4.0260 C   0  0  0  0  0  0  0  0  0  0  0  0
    3.2658    0.3855    4.0723 C   0  0  0  0  0  0  0  0  0  0  0  0
    2.5802    0.5625    5.2758 C   0  0  0  0  0  0  0  0  0  0  0  0
    3.0495   -0.0406    6.4426 C   0  0  0  0  0  0  0  0  0  0  0  0
    4.2097   -0.8142    6.4112 C   0  0  0  0  0  0  0  0  0  0  0  0
    4.8975   -0.9923    5.2093 C   0  0  0  0  0  0  0  0  0  0  0  0
    2.1493    0.8534   -1.5010 C   0  0  0  0  0  0  0  0  0  0  0  0
    2.5026    1.9511   -1.9282 O   0  0  0  0  0  0  0  0  0  0  0  0
    0.9658    0.6734   -0.8100 N   0  0  0  0  0  0  0  0  0  0  0  0
    0.0656    1.8142   -0.5928 C   0  0  0  0  0  0  0  0  0  0  0  0
   -0.8068    2.0744   -1.8422 C   0  0  0  0  0  0  0  0  0  0  0  0
   -2.0467    1.3342   -1.8695 O   0  0  0  0  0  0  0  0  0  0  0  0
   -1.9943    0.0045   -2.1395 C   0  0  0  0  0  0  0  0  0  0  0  0
   -0.9565   -0.6390   -2.2302 O   0  0  0  0  0  0  0  0  0  0  0  0
   -3.4002   -0.5802   -2.2464 C   0  0  0  0  0  0  0  0  0  0  0  0
   -4.2164    0.1569   -3.3296 C   0  0  0  0  0  0  0  0  0  0  0  0
   -4.9296    1.3771   -2.8081 C   0  0  0  0  0  0  0  0  0  0  0  0
   -6.2569    1.4605   -2.6621 C   0  0  0  0  0  0  0  0  0  0  0  0
   -3.2669   -2.0857   -2.5697 C   0  0  0  0  0  0  0  0  0  0  0  0
   -4.5622   -2.8589   -2.4783 C   0  0  0  0  0  0  0  0  0  0  0  0
   -5.1766   -3.3546   -3.6388 C   0  0  0  0  0  0  0  0  0  0  0  0
   -6.3762   -4.0622   -3.5554 C   0  0  0  0  0  0  0  0  0  0  0  0
   -6.9565   -4.2838   -2.3116 C   0  0  0  0  0  0  0  0  0  0  0  0
   -8.1074   -4.9658   -2.2317 F   0  0  0  0  0  0  0  0  0  0  0  0
   -6.3594   -3.8096   -1.1503 C   0  0  0  0  0  0  0  0  0  0  0  0
   -5.1624   -3.0968   -1.2327 C   0  0  0  0  0  0  0  0  0  0  0  0
   -0.7423    1.6117    0.7005 C   0  0  0  0  0  0  0  0  0  0  0  0
   -1.5178    2.8241    1.1118 C   0  0  0  0  0  0  0  0  0  0  0  0
   -2.8710    3.0402    0.9282 C   0  0  0  0  0  0  0  0  0  0  0  0
   -3.1777    4.2801    1.4230 N   0  0  0  0  0  0  0  0  0  0  0  0
   -2.0555    4.8761    1.9481 C   0  0  0  0  0  0  0  0  0  0  0  0
   -1.8996    6.1278    2.5567 C   0  0  0  0  0  0  0  0  0  0  0  0
   -0.6204    6.4779    3.0010 C   0  0  0  0  0  0  0  0  0  0  0  0
    0.4584    5.6125    2.8379 C   0  0  0  0  0  0  0  0  0  0  0  0
    0.2836    4.3660    2.2235 C   0  0  0  0  0  0  0  0  0  0  0  0
   -0.9967    3.9853    1.7702 C   0  0  0  0  0  0  0  0  0  0  0  0
    4.2788   -2.7732   -5.3051 H   0  0  0  0  0  0  0  0  0  0  0  0
    3.2440   -1.2410   -5.4817 H   0  0  0  0  0  0  0  0  0  0  0  0
    3.6118   -3.0082   -2.9917 H   0  0  0  0  0  0  0  0  0  0  0  0
    1.8489   -0.5290   -3.6306 H   0  0  0  0  0  0  0  0  0  0  0  0
    1.4489   -1.7960   -2.4877 H   0  0  0  0  0  0  0  0  0  0  0  0
    3.9487   -0.0705   -2.1182 H   0  0  0  0  0  0  0  0  0  0  0  0
    2.1968   -1.4864   -0.0309 H   0  0  0  0  0  0  0  0  0  0  0  0
    3.6498   -2.1937   -0.7618 H   0  0  0  0  0  0  0  0  0  0  0  0
    3.5585   -2.7412    2.9927 H   0  0  0  0  0  0  0  0  0  0  0  0
    3.1206   -2.9483    1.3117 H   0  0  0  0  0  0  0  0  0  0  0  0
    5.9129   -3.4793    2.4699 H   0  0  0  0  0  0  0  0  0  0  0  0
    4.7335   -4.6823    1.9291 H   0  0  0  0  0  0  0  0  0  0  0  0
    5.9196   -2.6574    0.3283 H   0  0  0  0  0  0  0  0  0  0  0  0
    6.0643   -1.2048    2.8712 H   0  0  0  0  0  0  0  0  0  0  0  0
    5.5186    0.3793    2.3770 H   0  0  0  0  0  0  0  0  0  0  0  0
    2.8917    0.8648    3.1684 H   0  0  0  0  0  0  0  0  0  0  0  0
    1.6789    1.1716    5.3039 H   0  0  0  0  0  0  0  0  0  0  0  0
    2.5138    0.0979    7.3798 H   0  0  0  0  0  0  0  0  0  0  0  0
    4.5791   -1.2803    7.3216 H   0  0  0  0  0  0  0  0  0  0  0  0
    5.8041   -1.5938    5.2034 H   0  0  0  0  0  0  0  0  0  0  0  0
    0.4967   -0.2141   -0.9821 H   0  0  0  0  0  0  0  0  0  0  0  0
    0.7112    2.6918   -0.4659 H   0  0  0  0  0  0  0  0  0  0  0  0
   -1.1030    3.1289   -1.8530 H   0  0  0  0  0  0  0  0  0  0  0  0
   -0.2581    1.8943   -2.7755 H   0  0  0  0  0  0  0  0  0  0  0  0
   -3.8707   -0.4722   -1.2597 H   0  0  0  0  0  0  0  0  0  0  0  0
   -4.9618   -0.5091   -3.7756 H   0  0  0  0  0  0  0  0  0  0  0  0
   -3.5641    0.4622   -4.1582 H   0  0  0  0  0  0  0  0  0  0  0  0
   -4.3194    2.2447   -2.5594 H   0  0  0  0  0  0  0  0  0  0  0  0
   -6.9158    0.6284   -2.9028 H   0  0  0  0  0  0  0  0  0  0  0  0
   -6.7162    2.3741   -2.2965 H   0  0  0  0  0  0  0  0  0  0  0  0
   -2.5575   -2.5608   -1.8770 H   0  0  0  0  0  0  0  0  0  0  0  0
   -2.8283   -2.2130   -3.5687 H   0  0  0  0  0  0  0  0  0  0  0  0
   -4.7282   -3.1864   -4.6156 H   0  0  0  0  0  0  0  0  0  0  0  0
   -6.8591   -4.4443   -4.4494 H   0  0  0  0  0  0  0  0  0  0  0  0
   -6.8302   -4.0027   -0.1900 H   0  0  0  0  0  0  0  0  0  0  0  0
   -4.6978   -2.7331   -0.3186 H   0  0  0  0  0  0  0  0  0  0  0  0
   -1.4148    0.7504    0.6057 H   0  0  0  0  0  0  0  0  0  0  0  0
   -0.0552    1.3459    1.5160 H   0  0  0  0  0  0  0  0  0  0  0  0
   -3.6372    2.4242    0.4762 H   0  0  0  0  0  0  0  0  0  0  0  0
   -4.0951    4.7038    1.4103 H   0  0  0  0  0  0  0  0  0  0  0  0
   -2.7355    6.8082    2.6830 H   0  0  0  0  0  0  0  0  0  0  0  0
   -0.4649    7.4422    3.4817 H   0  0  0  0  0  0  0  0  0  0  0  0
    1.4467    5.9030    3.1858 H   0  0  0  0  0  0  0  0  0  0  0  0
    1.1363    3.7051    2.0933 H   0  0  0  0  0  0  0  0  0  0  0  0
  1  2  2  0
  2  3  1  0
  3  4  1  0
  4  5  1  0
  5  6  1  0
  6  7  2  0
  6  8  1  0
  8  9  1  0
  9 10  1  0
 10 11  1  0
  8 12  1  0
 12 13  1  0
 13 14  2  0
 14 15  1  0
 15 16  2  0
 16 17  1  0
 17 18  2  0
  4 19  1  0
 19 20  2  0
 19 21  1  0
 21 22  1  0
 22 23  1  0
 23 24  1  0
 24 25  1  0
 25 26  2  0
 25 27  1  0
 27 28  1  0
 28 29  1  0
 29 30  2  0
 27 31  1  0
 31 32  1  0
 32 33  2  0
 33 34  1  0
 34 35  2  0
 35 36  1  0
 35 37  1  0
 37 38  2  0
 22 39  1  0
 39 40  1  0
 40 41  2  0
 41 42  1  0
 42 43  1  0
 43 44  2  0
 44 45  1  0
 45 46  2  0
 46 47  1  0
 47 48  2  0
 18 13  1  0
 38 32  1  0
 48 40  1  0
 48 43  1  0
  1 49  1  0
  1 50  1  0
  2 51  1  0
  3 52  1  0
  3 53  1  0
  4 54  1  0
  5 55  1  0
  5 56  1  0
  9 57  1  0
  9 58  1  0
 10 59  1  0
 10 60  1  0
 11 61  1  0
 12 62  1  0
 12 63  1  0
 14 64  1  0
 15 65  1  0
 16 66  1  0
 17 67  1  0
 18 68  1  0
 21 69  1  0
 22 70  1  0
 23 71  1  0
 23 72  1  0
 27 73  1  0
 28 74  1  0
 28 75  1  0
 29 76  1  0
 30 77  1  0
 30 78  1  0
 31 79  1  0
 31 80  1  0
 33 81  1  0
 34 82  1  0
 37 83  1  0
 38 84  1  0
 39 85  1  0
 39 86  1  0
 41 87  1  0
 42 88  1  0
 44 89  1  0
 45 90  1  0
 46 91  1  0
 47 92  1  0
M  END
$$$$
