
     RDKit          3D

 61 67  0  0  0  0  0  0  0  0999 V2000
    2.8440    2.6174   -1.7307 O   0  0  0  0  0  0  0  0  0  0  0  0
    2.9438    1.6300   -1.0046 C   0  0  0  0  0  0  0  0  0  0  0  0
    4.2006    1.4600   -0.2411 C   0  0  0  0  0  0  0  0  0  0  0  0
    4.6830    2.5530    0.5101 C   0  0  0  0  0  0  0  0  0  0  0  0
    5.8801    2.4465    1.2232 C   0  0  0  0  0  0  0  0  0  0  0  0
    6.5663    1.2529    1.1441 C   0  0  0  0  0  0  0  0  0  0  0  0
    6.1047    0.1952    0.3931 C   0  0  0  0  0  0  0  0  0  0  0  0
    4.9269    0.2647   -0.3194 C   0  0  0  0  0  0  0  0  0  0  0  0
    6.9411   -0.8759    0.4405 O   0  0  0  0  0  0  0  0  0  0  0  0
    7.9955   -0.3631    1.2822 C   0  0  0  0  0  0  0  0  0  0  0  0
    7.7465    0.9752    1.7597 O   0  0  0  0  0  0  0  0  0  0  0  0
    1.9293    0.6803   -0.8716 N   0  0  0  0  0  0  0  0  0  0  0  0
    0.7591    0.8322   -1.7258 C   0  0  0  0  0  0  0  0  0  0  0  0
   -0.0608   -0.4484   -1.8184 C   0  0  0  0  0  0  0  0  0  0  0  0
   -0.5074   -0.9938   -0.4338 C   0  0  0  0  0  0  0  0  0  0  0  0
    0.3962   -0.4403    0.7013 C   0  0  0  0  0  0  0  0  0  0  0  0
    1.8390   -0.2775    0.2329 C   0  0  0  0  0  0  0  0  0  0  0  0
   -0.2038   -2.4199   -0.4176 O   0  0  0  0  0  0  0  0  0  0  0  0
   -1.1057   -3.2731   -0.9781 C   0  0  0  0  0  0  0  0  0  0  0  0
   -0.6642   -4.5802   -1.1862 C   0  0  0  0  0  0  0  0  0  0  0  0
   -1.5116   -5.5229   -1.7739 C   0  0  0  0  0  0  0  0  0  0  0  0
   -2.8034   -5.1559   -2.1492 C   0  0  0  0  0  0  0  0  0  0  0  0
   -3.8428   -6.3177   -2.8758 Cl  0  0  0  0  0  0  0  0  0  0  0  0
   -3.2567   -3.8574   -1.9355 C   0  0  0  0  0  0  0  0  0  0  0  0
   -2.4014   -2.9243   -1.3389 C   0  0  0  0  0  0  0  0  0  0  0  0
   -2.8589   -1.5529   -1.0837 C   0  0  0  0  0  0  0  0  0  0  0  0
   -3.8667   -1.1348   -1.6492 O   0  0  0  0  0  0  0  0  0  0  0  0
   -2.0084   -0.7288   -0.1226 C   0  0  0  0  0  0  0  0  0  0  0  0
   -2.4310    0.7337   -0.1432 C   0  0  0  0  0  0  0  0  0  0  0  0
   -3.3449    0.7294    1.0348 C   0  0  0  0  0  0  0  0  0  0  0  0
   -4.2478    1.8666    1.3356 C   0  0  0  0  0  0  0  0  0  0  0  0
   -4.3031    2.9986    0.5143 C   0  0  0  0  0  0  0  0  0  0  0  0
   -5.1611    4.0546    0.8352 C   0  0  0  0  0  0  0  0  0  0  0  0
   -5.9601    3.9881    1.9757 C   0  0  0  0  0  0  0  0  0  0  0  0
   -5.9073    2.8647    2.7985 C   0  0  0  0  0  0  0  0  0  0  0  0
   -5.0554    1.8058    2.4795 C   0  0  0  0  0  0  0  0  0  0  0  0
   -3.2522   -0.3196    1.7893 N   0  0  0  0  0  0  0  0  0  0  0  0
   -2.3067   -1.1892    1.2062 O   0  0  0  0  0  0  0  0  0  0  0  0
    4.1218    3.4848    0.5297 H   0  0  0  0  0  0  0  0  0  0  0  0
    6.2637    3.2759    1.8060 H   0  0  0  0  0  0  0  0  0  0  0  0
    4.5940   -0.5675   -0.9275 H   0  0  0  0  0  0  0  0  0  0  0  0
    8.9328   -0.3630    0.7113 H   0  0  0  0  0  0  0  0  0  0  0  0
    8.1096   -1.0289    2.1462 H   0  0  0  0  0  0  0  0  0  0  0  0
    0.1603    1.6570   -1.3244 H   0  0  0  0  0  0  0  0  0  0  0  0
    1.0845    1.1346   -2.7282 H   0  0  0  0  0  0  0  0  0  0  0  0
   -0.9236   -0.2691   -2.4698 H   0  0  0  0  0  0  0  0  0  0  0  0
    0.5473   -1.2040   -2.3344 H   0  0  0  0  0  0  0  0  0  0  0  0
    0.3846   -1.1213    1.5621 H   0  0  0  0  0  0  0  0  0  0  0  0
    0.0432    0.5326    1.0592 H   0  0  0  0  0  0  0  0  0  0  0  0
    2.4522    0.0562    1.0754 H   0  0  0  0  0  0  0  0  0  0  0  0
    2.2423   -1.2317   -0.1238 H   0  0  0  0  0  0  0  0  0  0  0  0
    0.3444   -4.8663   -0.8970 H   0  0  0  0  0  0  0  0  0  0  0  0
   -1.1588   -6.5380   -1.9372 H   0  0  0  0  0  0  0  0  0  0  0  0
   -4.2672   -3.5730   -2.2188 H   0  0  0  0  0  0  0  0  0  0  0  0
   -1.6206    1.4327    0.0727 H   0  0  0  0  0  0  0  0  0  0  0  0
   -2.9267    1.0416   -1.0659 H   0  0  0  0  0  0  0  0  0  0  0  0
   -3.6943    3.0862   -0.3802 H   0  0  0  0  0  0  0  0  0  0  0  0
   -5.2064    4.9314    0.1933 H   0  0  0  0  0  0  0  0  0  0  0  0
   -6.6265    4.8111    2.2220 H   0  0  0  0  0  0  0  0  0  0  0  0
   -6.5267    2.8110    3.6896 H   0  0  0  0  0  0  0  0  0  0  0  0
   -5.0249    0.9343    3.1309 H   0  0  0  0  0  0  0  0  0  0  0  0
  1  2  2  0
  2  3  1  0
  3  4  2  0
  4  5  1  0
  5  6  2  0
  6  7  1  0
  7  8  2  0
  7  9  1  0
  9 10  1  0
 10 11  1  0
  2 12  1  0
 12 13  1  0
 13 14  1  0
 14 15  1  0
 15 16  1  0
 16 17  1  0
 15 18  1  0
 18 19  1  0
 19 20  2  0
 20 21  1  0
 21 22  2  0
 22 23  1  0
 22 24  1  0
 24 25  2  0
 25 26  1  0
 26 27  2  0
 26 28  1  0
 28 29  1  0
 29 30  1  0
 30 31  1  0
 31 32  2  0
 32 33  1  0
 33 34  2  0
 34 35  1  0
 35 36  2  0
 30 37  2  0
 37 38  1  0
  8  3  1  0
 17 12  1  0
 25 19  1  0
 38 28  1  0
 11  6  1  0
 28 15  1  0
 36 31  1  0
  4 39  1  0
  5 40  1  0
  8 41  1  0
 10 42  1  0
 10 43  1  0
 13 44  1  0
 13 45  1  0
 14 46  1  0
 14 47  1  0
 16 48  1  0
 16 49  1  0
 17 50  1  0
 17 51  1  0
 20 52  1  0
 21 53  1  0
 24 54  1  0
 29 55  1  0
 29 56  1  0
 32 57  1  0
 33 58  1  0
 34 59  1  0
 35 60  1  0
 36 61  1  0
M  END
$$$$
