
     RDKit          3D

 59 62  0  0  0  0  0  0  0  0999 V2000
    8.5878   -2.2866    1.9006 C   0  0  0  0  0  0  0  0  0  0  0  0
    7.2678   -1.6202    1.6498 C   0  0  0  0  0  0  0  0  0  0  0  0
    7.0319   -0.9499    0.4456 C   0  0  0  0  0  0  0  0  0  0  0  0
    5.7930   -0.3492    0.1896 C   0  0  0  0  0  0  0  0  0  0  0  0
    4.7608   -0.4283    1.1294 C   0  0  0  0  0  0  0  0  0  0  0  0
    3.4806    0.1726    0.9177 N   0  0  0  0  0  0  0  0  0  0  0  0
    2.6742    0.3798    1.9940 N   0  0  0  0  0  0  0  0  0  0  0  0
    1.6721    1.1343    1.5394 C   0  0  0  0  0  0  0  0  0  0  0  0
    0.5750    1.6820    2.3269 C   0  0  0  0  0  0  0  0  0  0  0  0
    0.4619    1.5276    3.5409 O   0  0  0  0  0  0  0  0  0  0  0  0
   -0.3487    2.4043    1.5411 N   0  0  0  0  0  0  0  0  0  0  0  0
   -1.5234    2.9860    2.1811 C   0  0  0  0  0  0  0  0  0  0  0  0
   -2.6646    1.9842    2.3594 C   0  0  0  0  0  0  0  0  0  0  0  0
   -3.1923    1.4488    1.0291 C   0  0  0  0  0  0  0  0  0  0  0  0
   -4.4324    0.5956    1.2045 C   0  0  0  0  0  0  0  0  0  0  0  0
   -5.0303    0.4644    2.2656 O   0  0  0  0  0  0  0  0  0  0  0  0
   -4.8391   -0.0009    0.0335 N   0  0  0  0  0  0  0  0  0  0  0  0
   -5.9220   -0.9557    0.0419 C   0  0  0  0  0  0  0  0  0  0  0  0
   -6.2639   -1.2915   -1.3600 C   0  0  0  0  0  0  0  0  0  0  0  0
   -7.3559   -1.0287   -2.1595 C   0  0  0  0  0  0  0  0  0  0  0  0
   -7.0827   -1.6179   -3.4177 C   0  0  0  0  0  0  0  0  0  0  0  0
   -5.8395   -2.2020   -3.3114 C   0  0  0  0  0  0  0  0  0  0  0  0
   -4.9922   -2.9688   -4.2454 C   0  0  0  0  0  0  0  0  0  0  0  0
   -5.3323   -2.0023   -2.0631 O   0  0  0  0  0  0  0  0  0  0  0  0
   -0.2557    2.5941    0.1569 N   0  0  0  0  0  0  0  0  0  0  0  0
    0.7421    2.1030   -0.5233 C   0  0  0  0  0  0  0  0  0  0  0  0
    0.7902    2.3603   -2.0024 C   0  0  0  0  0  0  0  0  0  0  0  0
    1.7517    1.3303    0.1568 C   0  0  0  0  0  0  0  0  0  0  0  0
    2.8646    0.6182   -0.2588 C   0  0  0  0  0  0  0  0  0  0  0  0
    3.3283    0.2953   -1.6325 C   0  0  0  0  0  0  0  0  0  0  0  0
    5.0057   -1.0886    2.3448 C   0  0  0  0  0  0  0  0  0  0  0  0
    6.2427   -1.6896    2.5959 C   0  0  0  0  0  0  0  0  0  0  0  0
    8.7643   -2.4248    2.9724 H   0  0  0  0  0  0  0  0  0  0  0  0
    8.6113   -3.2655    1.4128 H   0  0  0  0  0  0  0  0  0  0  0  0
    9.4084   -1.6751    1.5122 H   0  0  0  0  0  0  0  0  0  0  0  0
    7.8196   -0.8815   -0.3021 H   0  0  0  0  0  0  0  0  0  0  0  0
    5.6977    0.2078   -0.7344 H   0  0  0  0  0  0  0  0  0  0  0  0
   -1.8561    3.8451    1.5865 H   0  0  0  0  0  0  0  0  0  0  0  0
   -1.2281    3.3707    3.1642 H   0  0  0  0  0  0  0  0  0  0  0  0
   -3.4756    2.4813    2.9054 H   0  0  0  0  0  0  0  0  0  0  0  0
   -2.3366    1.1442    2.9839 H   0  0  0  0  0  0  0  0  0  0  0  0
   -3.4498    2.2811    0.3636 H   0  0  0  0  0  0  0  0  0  0  0  0
   -2.4256    0.8378    0.5394 H   0  0  0  0  0  0  0  0  0  0  0  0
   -4.1771   -0.0724   -0.7285 H   0  0  0  0  0  0  0  0  0  0  0  0
   -5.5932   -1.8457    0.5882 H   0  0  0  0  0  0  0  0  0  0  0  0
   -6.7783   -0.5255    0.5707 H   0  0  0  0  0  0  0  0  0  0  0  0
   -8.2397   -0.4777   -1.8679 H   0  0  0  0  0  0  0  0  0  0  0  0
   -7.7149   -1.6178   -4.2947 H   0  0  0  0  0  0  0  0  0  0  0  0
   -4.8531   -3.9915   -3.8820 H   0  0  0  0  0  0  0  0  0  0  0  0
   -4.0084   -2.5000   -4.3454 H   0  0  0  0  0  0  0  0  0  0  0  0
   -5.4483   -3.0179   -5.2387 H   0  0  0  0  0  0  0  0  0  0  0  0
    1.7941    2.6699   -2.3025 H   0  0  0  0  0  0  0  0  0  0  0  0
    0.0873    3.1543   -2.2722 H   0  0  0  0  0  0  0  0  0  0  0  0
    0.5075    1.4518   -2.5392 H   0  0  0  0  0  0  0  0  0  0  0  0
    4.0082    1.0675   -2.0037 H   0  0  0  0  0  0  0  0  0  0  0  0
    3.8198   -0.6808   -1.6817 H   0  0  0  0  0  0  0  0  0  0  0  0
    2.4844    0.2332   -2.3242 H   0  0  0  0  0  0  0  0  0  0  0  0
    4.2313   -1.1604    3.1086 H   0  0  0  0  0  0  0  0  0  0  0  0
    6.3957   -2.2086    3.5400 H   0  0  0  0  0  0  0  0  0  0  0  0
  1  2  1  0
  2  3  2  0
  3  4  1  0
  4  5  2  0
  5  6  1  0
  6  7  1  0
  7  8  2  0
  8  9  1  0
  9 10  2  0
  9 11  1  0
 11 12  1  0
 12 13  1  0
 13 14  1  0
 14 15  1  0
 15 16  2  0
 15 17  1  0
 17 18  1  0
 18 19  1  0
 19 20  2  0
 20 21  1  0
 21 22  2  0
 22 23  1  0
 22 24  1  0
 11 25  1  0
 25 26  2  0
 26 27  1  0
 26 28  1  0
 28 29  2  0
 29 30  1  0
  5 31  1  0
 31 32  2  0
 32  2  1  0
 29  6  1  0
 28  8  1  0
 24 19  1  0
  1 33  1  0
  1 34  1  0
  1 35  1  0
  3 36  1  0
  4 37  1  0
 12 38  1  0
 12 39  1  0
 13 40  1  0
 13 41  1  0
 14 42  1  0
 14 43  1  0
 17 44  1  0
 18 45  1  0
 18 46  1  0
 20 47  1  0
 21 48  1  0
 23 49  1  0
 23 50  1  0
 23 51  1  0
 27 52  1  0
 27 53  1  0
 27 54  1  0
 30 55  1  0
 30 56  1  0
 30 57  1  0
 31 58  1  0
 32 59  1  0
M  END
$$$$
