
     RDKit          3D

 44 47  0  0  0  0  0  0  0  0999 V2000
   -5.5452   -3.6234    1.3273 C   0  0  0  0  0  0  0  0  0  0  0  0
   -4.4312   -3.0611    0.4624 C   0  0  0  0  0  0  0  0  0  0  0  0
   -4.3926   -1.6505    0.6593 O   0  0  0  0  0  0  0  0  0  0  0  0
   -3.3734   -0.9514    0.0612 C   0  0  0  0  0  0  0  0  0  0  0  0
   -2.4992   -1.4900   -0.8878 C   0  0  0  0  0  0  0  0  0  0  0  0
   -1.4930   -0.7009   -1.4510 C   0  0  0  0  0  0  0  0  0  0  0  0
   -1.3404    0.6307   -1.0616 C   0  0  0  0  0  0  0  0  0  0  0  0
   -0.3060    1.4857   -1.6520 C   0  0  0  0  0  0  0  0  0  0  0  0
    1.0217    1.3284   -1.5388 C   0  0  0  0  0  0  0  0  0  0  0  0
    2.1431    2.4609   -2.3006 S   0  0  0  0  0  0  0  0  0  0  0  0
    3.4638    1.5779   -1.6614 C   0  0  0  0  0  0  0  0  0  0  0  0
    4.7590    1.6845   -1.7126 N   0  0  0  0  0  0  0  0  0  0  0  0
    5.1563    0.5950   -0.9521 C   0  0  0  0  0  0  0  0  0  0  0  0
    6.6632    0.2636   -0.6953 C   0  0  0  0  0  0  0  0  0  0  0  0
    7.1425   -0.7985    0.0481 C   0  0  0  0  0  0  0  0  0  0  0  0
    8.5557   -0.7144    0.0162 C   0  0  0  0  0  0  0  0  0  0  0  0
    8.8533    0.3917   -0.7433 C   0  0  0  0  0  0  0  0  0  0  0  0
    7.7158    0.9908   -1.1788 O   0  0  0  0  0  0  0  0  0  0  0  0
    4.1507   -0.1553   -0.4534 N   0  0  0  0  0  0  0  0  0  0  0  0
    3.0853    0.5124   -0.9309 N   0  0  0  0  0  0  0  0  0  0  0  0
    1.7397    0.2508   -0.7783 C   0  0  0  0  0  0  0  0  0  0  0  0
    1.3130   -0.6925   -0.1408 O   0  0  0  0  0  0  0  0  0  0  0  0
   -2.2250    1.1790   -0.1233 C   0  0  0  0  0  0  0  0  0  0  0  0
   -3.2452    0.4009    0.4368 C   0  0  0  0  0  0  0  0  0  0  0  0
   -4.1429    0.8495    1.3725 O   0  0  0  0  0  0  0  0  0  0  0  0
   -4.2666    2.2478    1.6143 C   0  0  0  0  0  0  0  0  0  0  0  0
   -3.3848    2.6681    2.7769 C   0  0  0  0  0  0  0  0  0  0  0  0
   -6.5064   -3.1720    1.0598 H   0  0  0  0  0  0  0  0  0  0  0  0
   -5.6197   -4.7082    1.2106 H   0  0  0  0  0  0  0  0  0  0  0  0
   -5.3674   -3.3925    2.3829 H   0  0  0  0  0  0  0  0  0  0  0  0
   -3.4810   -3.5180    0.7624 H   0  0  0  0  0  0  0  0  0  0  0  0
   -4.6454   -3.2899   -0.5877 H   0  0  0  0  0  0  0  0  0  0  0  0
   -2.5746   -2.5218   -1.2138 H   0  0  0  0  0  0  0  0  0  0  0  0
   -0.8276   -1.1467   -2.1867 H   0  0  0  0  0  0  0  0  0  0  0  0
   -0.7062    2.3299   -2.2125 H   0  0  0  0  0  0  0  0  0  0  0  0
    6.5359   -1.5400    0.5501 H   0  0  0  0  0  0  0  0  0  0  0  0
    9.2679   -1.3768    0.4877 H   0  0  0  0  0  0  0  0  0  0  0  0
    9.7760    0.8633   -1.0523 H   0  0  0  0  0  0  0  0  0  0  0  0
   -2.0893    2.2141    0.1710 H   0  0  0  0  0  0  0  0  0  0  0  0
   -4.0917    2.8513    0.7169 H   0  0  0  0  0  0  0  0  0  0  0  0
   -5.3120    2.4232    1.8932 H   0  0  0  0  0  0  0  0  0  0  0  0
   -3.5249    3.7285    3.0050 H   0  0  0  0  0  0  0  0  0  0  0  0
   -3.6248    2.0819    3.6703 H   0  0  0  0  0  0  0  0  0  0  0  0
   -2.3266    2.4943    2.5607 H   0  0  0  0  0  0  0  0  0  0  0  0
  1  2  1  0
  2  3  1  0
  3  4  1  0
  4  5  2  0
  5  6  1  0
  6  7  2  0
  7  8  1  0
  8  9  2  3
  9 10  1  0
 10 11  1  0
 11 12  2  0
 12 13  1  0
 13 14  1  0
 14 15  2  0
 15 16  1  0
 16 17  2  0
 17 18  1  0
 13 19  2  0
 19 20  1  0
 20 21  1  0
 21 22  2  0
  7 23  1  0
 23 24  2  0
 24 25  1  0
 25 26  1  0
 26 27  1  0
 24  4  1  0
 21  9  1  0
 20 11  1  0
 18 14  1  0
  1 28  1  0
  1 29  1  0
  1 30  1  0
  2 31  1  0
  2 32  1  0
  5 33  1  0
  6 34  1  0
  8 35  1  0
 15 36  1  0
 16 37  1  0
 17 38  1  0
 23 39  1  0
 26 40  1  0
 26 41  1  0
 27 42  1  0
 27 43  1  0
 27 44  1  0
M  END
$$$$
