
     RDKit          3D

 74 79  0  0  0  0  0  0  0  0999 V2000
    9.3933   -1.6236   -3.7909 C   0  0  0  0  0  0  0  0  0  0  0  0
    8.1279   -1.0712   -4.1314 O   0  0  0  0  0  0  0  0  0  0  0  0
    7.1535   -1.1245   -3.1744 C   0  0  0  0  0  0  0  0  0  0  0  0
    5.9337   -0.5634   -3.5494 C   0  0  0  0  0  0  0  0  0  0  0  0
    4.8474   -0.5484   -2.6648 C   0  0  0  0  0  0  0  0  0  0  0  0
    4.9441   -1.1039   -1.3772 C   0  0  0  0  0  0  0  0  0  0  0  0
    3.8120   -1.1018   -0.4204 C   0  0  0  0  0  0  0  0  0  0  0  0
    2.4870   -0.9904   -0.8047 C   0  0  0  0  0  0  0  0  0  0  0  0
    1.5071   -0.9670    0.1876 C   0  0  0  0  0  0  0  0  0  0  0  0
    0.1173   -0.7560   -0.2662 C   0  0  0  0  0  0  0  0  0  0  0  0
   -0.4288   -1.6340   -0.9189 O   0  0  0  0  0  0  0  0  0  0  0  0
   -0.4040    0.4580    0.1143 N   0  0  0  0  0  0  0  0  0  0  0  0
   -1.6774    0.9882   -0.1815 C   0  0  0  0  0  0  0  0  0  0  0  0
   -2.5350    0.4139   -1.1193 C   0  0  0  0  0  0  0  0  0  0  0  0
   -3.7852    0.9861   -1.3484 C   0  0  0  0  0  0  0  0  0  0  0  0
   -4.8917    0.2359   -2.5245 S   0  0  0  0  0  6  0  0  0  0  0  0
   -5.9917    1.1571   -2.7217 O   0  0  0  0  0  0  0  0  0  0  0  0
   -4.0959   -0.2274   -3.6392 O   0  0  0  0  0  0  0  0  0  0  0  0
   -5.5037   -1.1055   -1.6979 N   0  0  0  0  0  0  0  0  0  0  0  0
   -4.6312   -2.2988   -1.5060 C   0  0  0  0  0  0  0  0  0  0  0  0
   -4.3877   -2.5628   -0.0157 C   0  0  0  0  0  0  0  0  0  0  0  0
   -5.5916   -2.7779    0.7381 O   0  0  0  0  0  0  0  0  0  0  0  0
   -6.7485   -2.1534    0.1626 C   0  0  0  0  0  0  0  0  0  0  0  0
   -6.4218   -0.8419   -0.5579 C   0  0  0  0  0  0  0  0  0  0  0  0
   -4.1547    2.1647   -0.6979 C   0  0  0  0  0  0  0  0  0  0  0  0
   -3.2801    2.7583    0.2173 C   0  0  0  0  0  0  0  0  0  0  0  0
   -2.0378    2.1797    0.5065 C   0  0  0  0  0  0  0  0  0  0  0  0
   -1.1461    2.7047    1.4580 N   0  0  0  0  0  0  0  0  0  0  0  0
   -1.2397    2.0754    2.7978 C   0  0  0  0  0  0  0  0  0  0  0  0
   -2.1664    2.8638    3.7304 C   0  0  0  0  0  0  0  0  0  0  0  0
   -1.7368    4.2271    3.8451 O   0  0  0  0  0  0  0  0  0  0  0  0
   -1.7957    4.8757    2.5677 C   0  0  0  0  0  0  0  0  0  0  0  0
   -0.9306    4.1678    1.5108 C   0  0  0  0  0  0  0  0  0  0  0  0
    1.8326   -1.1046    1.5513 C   0  0  0  0  0  0  0  0  0  0  0  0
    0.8913   -1.1537    2.6111 C   0  0  0  0  0  0  0  0  0  0  0  0
    1.3078   -1.2816    3.9342 C   0  0  0  0  0  0  0  0  0  0  0  0
    2.6635   -1.3704    4.2155 C   0  0  0  0  0  0  0  0  0  0  0  0
    3.5906   -1.3405    3.1704 C   0  0  0  0  0  0  0  0  0  0  0  0
    3.2013   -1.2158    1.8428 C   0  0  0  0  0  0  0  0  0  0  0  0
    4.1515   -1.2058    0.8913 N   0  0  0  0  0  0  0  0  0  0  0  0
    6.1882   -1.6607   -1.0205 C   0  0  0  0  0  0  0  0  0  0  0  0
    7.2792   -1.6730   -1.9024 C   0  0  0  0  0  0  0  0  0  0  0  0
    9.8503   -1.0746   -2.9600 H   0  0  0  0  0  0  0  0  0  0  0  0
    9.3113   -2.6923   -3.5633 H   0  0  0  0  0  0  0  0  0  0  0  0
   10.0484   -1.5186   -4.6618 H   0  0  0  0  0  0  0  0  0  0  0  0
    5.8247   -0.1265   -4.5392 H   0  0  0  0  0  0  0  0  0  0  0  0
    3.9291   -0.0781   -3.0072 H   0  0  0  0  0  0  0  0  0  0  0  0
    2.1961   -0.9211   -1.8474 H   0  0  0  0  0  0  0  0  0  0  0  0
    0.1484    1.0747    0.7073 H   0  0  0  0  0  0  0  0  0  0  0  0
   -2.2352   -0.4576   -1.6908 H   0  0  0  0  0  0  0  0  0  0  0  0
   -5.1524   -3.1527   -1.9550 H   0  0  0  0  0  0  0  0  0  0  0  0
   -3.6790   -2.1995   -2.0315 H   0  0  0  0  0  0  0  0  0  0  0  0
   -3.8608   -1.7219    0.4477 H   0  0  0  0  0  0  0  0  0  0  0  0
   -3.7596   -3.4499    0.1129 H   0  0  0  0  0  0  0  0  0  0  0  0
   -7.2141   -2.8710   -0.5242 H   0  0  0  0  0  0  0  0  0  0  0  0
   -7.4582   -1.9699    0.9756 H   0  0  0  0  0  0  0  0  0  0  0  0
   -5.9476   -0.1526    0.1490 H   0  0  0  0  0  0  0  0  0  0  0  0
   -7.3469   -0.3931   -0.9330 H   0  0  0  0  0  0  0  0  0  0  0  0
   -5.1179    2.6312   -0.8969 H   0  0  0  0  0  0  0  0  0  0  0  0
   -3.6067    3.6664    0.7103 H   0  0  0  0  0  0  0  0  0  0  0  0
   -1.5666    1.0308    2.7415 H   0  0  0  0  0  0  0  0  0  0  0  0
   -0.2281    2.0733    3.2229 H   0  0  0  0  0  0  0  0  0  0  0  0
   -3.2061    2.8383    3.3830 H   0  0  0  0  0  0  0  0  0  0  0  0
   -2.1397    2.4256    4.7329 H   0  0  0  0  0  0  0  0  0  0  0  0
   -2.8434    4.9467    2.2619 H   0  0  0  0  0  0  0  0  0  0  0  0
   -1.4364    5.9006    2.7038 H   0  0  0  0  0  0  0  0  0  0  0  0
   -1.0636    4.6322    0.5260 H   0  0  0  0  0  0  0  0  0  0  0  0
    0.1221    4.3143    1.7845 H   0  0  0  0  0  0  0  0  0  0  0  0
   -0.1768   -1.1142    2.4067 H   0  0  0  0  0  0  0  0  0  0  0  0
    0.5778   -1.3246    4.7386 H   0  0  0  0  0  0  0  0  0  0  0  0
    3.0068   -1.4750    5.2417 H   0  0  0  0  0  0  0  0  0  0  0  0
    4.6515   -1.4225    3.3982 H   0  0  0  0  0  0  0  0  0  0  0  0
    6.3194   -2.0984   -0.0310 H   0  0  0  0  0  0  0  0  0  0  0  0
    8.2064   -2.1183   -1.5575 H   0  0  0  0  0  0  0  0  0  0  0  0
  1  2  1  0
  2  3  1  0
  3  4  2  0
  4  5  1  0
  5  6  2  0
  6  7  1  0
  7  8  2  0
  8  9  1  0
  9 10  1  0
 10 11  2  0
 10 12  1  0
 12 13  1  0
 13 14  2  0
 14 15  1  0
 15 16  1  0
 16 17  2  0
 16 18  2  0
 16 19  1  0
 19 20  1  0
 20 21  1  0
 21 22  1  0
 22 23  1  0
 23 24  1  0
 15 25  2  0
 25 26  1  0
 26 27  2  0
 27 28  1  0
 28 29  1  0
 29 30  1  0
 30 31  1  0
 31 32  1  0
 32 33  1  0
  9 34  2  0
 34 35  1  0
 35 36  2  0
 36 37  1  0
 37 38  2  0
 38 39  1  0
 39 40  2  0
  6 41  1  0
 41 42  2  0
 42  3  1  0
 40  7  1  0
 27 13  1  0
 33 28  1  0
 39 34  1  0
 24 19  1  0
  1 43  1  0
  1 44  1  0
  1 45  1  0
  4 46  1  0
  5 47  1  0
  8 48  1  0
 12 49  1  0
 14 50  1  0
 20 51  1  0
 20 52  1  0
 21 53  1  0
 21 54  1  0
 23 55  1  0
 23 56  1  0
 24 57  1  0
 24 58  1  0
 25 59  1  0
 26 60  1  0
 29 61  1  0
 29 62  1  0
 30 63  1  0
 30 64  1  0
 32 65  1  0
 32 66  1  0
 33 67  1  0
 33 68  1  0
 35 69  1  0
 36 70  1  0
 37 71  1  0
 38 72  1  0
 41 73  1  0
 42 74  1  0
M  END
$$$$
