
     RDKit          3D

 56 58  0  0  0  0  0  0  0  0999 V2000
    9.8032    3.5774   -0.1512 C   0  0  0  0  0  0  0  0  0  0  0  0
    8.4682    3.0324    0.3237 C   0  0  0  0  0  0  0  0  0  0  0  0
    7.9266    2.2239   -0.7196 O   0  0  0  0  0  0  0  0  0  0  0  0
    6.7145    1.6377   -0.4850 C   0  0  0  0  0  0  0  0  0  0  0  0
    6.2296    0.8571   -1.5338 C   0  0  0  0  0  0  0  0  0  0  0  0
    4.9993    0.2010   -1.4253 C   0  0  0  0  0  0  0  0  0  0  0  0
    4.2319    0.3160   -0.2613 C   0  0  0  0  0  0  0  0  0  0  0  0
    3.0033   -0.3758   -0.2285 N   0  0  0  0  0  0  0  0  0  0  0  0
    2.0785   -0.4058    0.8029 C   0  0  0  0  0  0  0  0  0  0  0  0
    2.1581    0.1868    1.8736 O   0  0  0  0  0  0  0  0  0  0  0  0
    0.8736   -1.2612    0.4492 C   0  0  0  0  0  0  0  0  0  0  0  0
   -0.0684   -1.4641    1.6306 C   0  0  0  0  0  0  0  0  0  0  0  0
   -0.7191   -0.1916    1.9874 N   0  0  0  0  0  0  0  0  0  0  0  0
   -2.1045   -0.2517    2.9380 S   0  0  0  0  0  6  0  0  0  0  0  0
   -2.1806    1.0122    3.6358 O   0  0  0  0  0  0  0  0  0  0  0  0
   -2.1472   -1.5164    3.6345 O   0  0  0  0  0  0  0  0  0  0  0  0
   -3.3766   -0.2503    1.6984 C   0  0  0  0  0  0  0  0  0  0  0  0
   -3.9588    0.9524    1.2998 C   0  0  0  0  0  0  0  0  0  0  0  0
   -4.9793    0.9454    0.3419 C   0  0  0  0  0  0  0  0  0  0  0  0
   -5.4314   -0.2585   -0.2249 C   0  0  0  0  0  0  0  0  0  0  0  0
   -4.8367   -1.4489    0.1938 C   0  0  0  0  0  0  0  0  0  0  0  0
   -3.8193   -1.4569    1.1602 C   0  0  0  0  0  0  0  0  0  0  0  0
   -5.2778   -2.7201   -0.3987 C   0  0  0  0  0  0  0  0  0  0  0  0
   -4.6705   -3.7507   -0.1165 O   0  0  0  0  0  0  0  0  0  0  0  0
   -6.3533   -2.6619   -1.2695 N   0  0  0  0  0  0  0  0  0  0  0  0
   -6.8248   -3.9090   -1.8432 C   0  0  0  0  0  0  0  0  0  0  0  0
   -6.9247   -1.4896   -1.7500 C   0  0  0  0  0  0  0  0  0  0  0  0
   -7.7945   -1.5111   -2.6243 O   0  0  0  0  0  0  0  0  0  0  0  0
   -6.4588   -0.2959   -1.2047 N   0  0  0  0  0  0  0  0  0  0  0  0
   -7.0582    0.9499   -1.6674 C   0  0  0  0  0  0  0  0  0  0  0  0
    4.7202    1.0966    0.7867 C   0  0  0  0  0  0  0  0  0  0  0  0
    5.9545    1.7543    0.6765 C   0  0  0  0  0  0  0  0  0  0  0  0
   10.4881    2.7592   -0.3971 H   0  0  0  0  0  0  0  0  0  0  0  0
    9.6754    4.1711   -1.0625 H   0  0  0  0  0  0  0  0  0  0  0  0
   10.2635    4.2045    0.6176 H   0  0  0  0  0  0  0  0  0  0  0  0
    7.7973    3.8711    0.5426 H   0  0  0  0  0  0  0  0  0  0  0  0
    8.6280    2.4318    1.2265 H   0  0  0  0  0  0  0  0  0  0  0  0
    6.8151    0.7585   -2.4447 H   0  0  0  0  0  0  0  0  0  0  0  0
    4.6583   -0.3970   -2.2658 H   0  0  0  0  0  0  0  0  0  0  0  0
    2.7769   -0.9052   -1.0614 H   0  0  0  0  0  0  0  0  0  0  0  0
    1.2356   -2.2400    0.1135 H   0  0  0  0  0  0  0  0  0  0  0  0
    0.3447   -0.7831   -0.3837 H   0  0  0  0  0  0  0  0  0  0  0  0
   -0.8238   -2.2023    1.3428 H   0  0  0  0  0  0  0  0  0  0  0  0
    0.4808   -1.8435    2.4994 H   0  0  0  0  0  0  0  0  0  0  0  0
   -0.0740    0.5353    2.3217 H   0  0  0  0  0  0  0  0  0  0  0  0
   -3.6283    1.8974    1.7278 H   0  0  0  0  0  0  0  0  0  0  0  0
   -5.4047    1.9050    0.0607 H   0  0  0  0  0  0  0  0  0  0  0  0
   -3.3820   -2.3990    1.4863 H   0  0  0  0  0  0  0  0  0  0  0  0
   -6.5495   -4.7685   -1.2255 H   0  0  0  0  0  0  0  0  0  0  0  0
   -7.9140   -3.8899   -1.9502 H   0  0  0  0  0  0  0  0  0  0  0  0
   -6.3764   -4.0238   -2.8353 H   0  0  0  0  0  0  0  0  0  0  0  0
   -7.8287    0.7838   -2.4256 H   0  0  0  0  0  0  0  0  0  0  0  0
   -7.5296    1.4614   -0.8220 H   0  0  0  0  0  0  0  0  0  0  0  0
   -6.2836    1.5822   -2.1131 H   0  0  0  0  0  0  0  0  0  0  0  0
    4.1680    1.2193    1.7132 H   0  0  0  0  0  0  0  0  0  0  0  0
    6.2863    2.3480    1.5220 H   0  0  0  0  0  0  0  0  0  0  0  0
  1  2  1  0
  2  3  1  0
  3  4  1  0
  4  5  2  0
  5  6  1  0
  6  7  2  0
  7  8  1  0
  8  9  1  0
  9 10  2  0
  9 11  1  0
 11 12  1  0
 12 13  1  0
 13 14  1  0
 14 15  2  0
 14 16  2  0
 14 17  1  0
 17 18  2  0
 18 19  1  0
 19 20  2  0
 20 21  1  0
 21 22  2  0
 21 23  1  0
 23 24  2  0
 23 25  1  0
 25 26  1  0
 25 27  1  0
 27 28  2  0
 27 29  1  0
 29 30  1  0
  7 31  1  0
 31 32  2  0
 32  4  1  0
 22 17  1  0
 29 20  1  0
  1 33  1  0
  1 34  1  0
  1 35  1  0
  2 36  1  0
  2 37  1  0
  5 38  1  0
  6 39  1  0
  8 40  1  0
 11 41  1  0
 11 42  1  0
 12 43  1  0
 12 44  1  0
 13 45  1  0
 18 46  1  0
 19 47  1  0
 22 48  1  0
 26 49  1  0
 26 50  1  0
 26 51  1  0
 30 52  1  0
 30 53  1  0
 30 54  1  0
 31 55  1  0
 32 56  1  0
M  END
$$$$
