
     RDKit          3D

 39 41  0  0  0  0  0  0  0  0999 V2000
    4.1020    0.3370   -2.7861 C   0  0  0  0  0  0  0  0  0  0  0  0
    4.7643   -0.0415   -1.4727 C   0  0  0  0  0  0  0  0  0  0  0  0
    4.2967    0.7755   -0.3622 N   0  0  0  0  0  0  0  0  0  0  0  0
    5.0728    1.8129    0.0308 N   0  0  0  0  0  0  0  0  0  0  0  0
    4.3829    2.3695    1.0238 C   0  0  0  0  0  0  0  0  0  0  0  0
    3.1690    1.7098    1.2454 C   0  0  0  0  0  0  0  0  0  0  0  0
    1.9739    2.2066    2.5965 Br  0  0  0  0  0  0  0  0  0  0  0  0
    3.0993    0.6833    0.3235 C   0  0  0  0  0  0  0  0  0  0  0  0
    2.0817   -0.3182    0.0621 C   0  0  0  0  0  0  0  0  0  0  0  0
    2.3766   -1.4000   -0.4311 O   0  0  0  0  0  0  0  0  0  0  0  0
    0.7986    0.1020    0.3588 N   0  0  0  0  0  0  0  0  0  0  0  0
   -0.3814   -0.6245    0.2612 C   0  0  0  0  0  0  0  0  0  0  0  0
   -0.3642   -2.3112   -0.0592 S   0  0  0  0  0  0  0  0  0  0  0  0
   -2.0257   -2.3793    0.0248 C   0  0  0  0  0  0  0  0  0  0  0  0
   -2.6192   -1.1786    0.2936 C   0  0  0  0  0  0  0  0  0  0  0  0
   -1.6752   -0.1199    0.4323 C   0  0  0  0  0  0  0  0  0  0  0  0
   -1.9536    1.2894    0.6955 C   0  0  0  0  0  0  0  0  0  0  0  0
   -1.0689    2.1331    0.8006 O   0  0  0  0  0  0  0  0  0  0  0  0
   -3.2884    1.5607    0.7945 O   0  0  0  0  0  0  0  0  0  0  0  0
   -3.5936    2.9356    1.0274 C   0  0  0  0  0  0  0  0  0  0  0  0
   -4.0976   -1.3244    0.3517 C   0  0  0  0  0  0  0  0  0  0  0  0
   -4.2803   -2.8739    0.4179 C   0  0  0  0  0  0  0  0  0  0  0  0
   -2.9712   -3.5066   -0.1419 C   0  0  0  0  0  0  0  0  0  0  0  0
    4.2960    1.3869   -3.0334 H   0  0  0  0  0  0  0  0  0  0  0  0
    3.0159    0.2004   -2.7421 H   0  0  0  0  0  0  0  0  0  0  0  0
    4.4898   -0.2826   -3.6004 H   0  0  0  0  0  0  0  0  0  0  0  0
    5.8493    0.0982   -1.5501 H   0  0  0  0  0  0  0  0  0  0  0  0
    4.6025   -1.0935   -1.2230 H   0  0  0  0  0  0  0  0  0  0  0  0
    4.7977    3.2275    1.5361 H   0  0  0  0  0  0  0  0  0  0  0  0
    0.6777    1.0773    0.6258 H   0  0  0  0  0  0  0  0  0  0  0  0
   -3.2753    3.2275    2.0339 H   0  0  0  0  0  0  0  0  0  0  0  0
   -4.6785    3.0560    0.9583 H   0  0  0  0  0  0  0  0  0  0  0  0
   -3.1279    3.5754    0.2711 H   0  0  0  0  0  0  0  0  0  0  0  0
   -4.5560   -0.9233   -0.5582 H   0  0  0  0  0  0  0  0  0  0  0  0
   -4.5402   -0.8422    1.2276 H   0  0  0  0  0  0  0  0  0  0  0  0
   -4.4003   -3.1731    1.4681 H   0  0  0  0  0  0  0  0  0  0  0  0
   -5.1698   -3.2110   -0.1233 H   0  0  0  0  0  0  0  0  0  0  0  0
   -3.0914   -3.7618   -1.1998 H   0  0  0  0  0  0  0  0  0  0  0  0
   -2.6881   -4.3992    0.4225 H   0  0  0  0  0  0  0  0  0  0  0  0
  1  2  1  0
  2  3  1  0
  3  4  1  0
  4  5  2  0
  5  6  1  0
  6  7  1  0
  6  8  2  0
  8  9  1  0
  9 10  2  0
  9 11  1  0
 11 12  1  0
 12 13  1  0
 13 14  1  0
 14 15  2  0
 15 16  1  0
 16 17  1  0
 17 18  2  0
 17 19  1  0
 19 20  1  0
 15 21  1  0
 21 22  1  0
 22 23  1  0
  8  3  1  0
 16 12  2  0
 23 14  1  0
  1 24  1  0
  1 25  1  0
  1 26  1  0
  2 27  1  0
  2 28  1  0
  5 29  1  0
 11 30  1  0
 20 31  1  0
 20 32  1  0
 20 33  1  0
 21 34  1  0
 21 35  1  0
 22 36  1  0
 22 37  1  0
 23 38  1  0
 23 39  1  0
M  END
$$$$
