
     RDKit          3D

 71 75  0  0  0  0  0  0  0  0999 V2000
   -4.6988   -3.2649    3.5752 C   0  0  0  0  0  0  0  0  0  0  0  0
   -5.7388   -2.4221    2.8993 C   0  0  0  0  0  0  0  0  0  0  0  0
   -6.9637   -2.9755    2.5267 C   0  0  0  0  0  0  0  0  0  0  0  0
   -7.9146   -2.2010    1.8608 C   0  0  0  0  0  0  0  0  0  0  0  0
   -7.6637   -0.8558    1.5468 C   0  0  0  0  0  0  0  0  0  0  0  0
   -8.7232   -0.0780    0.8135 C   0  0  0  0  0  0  0  0  0  0  0  0
   -6.4240   -0.2872    1.9065 C   0  0  0  0  0  0  0  0  0  0  0  0
   -6.0561    1.1450    1.5839 C   0  0  0  0  0  0  0  0  0  0  0  0
   -5.4339    1.2661    0.2809 N   0  0  0  0  0  0  0  0  0  0  0  0
   -6.1403    1.7079   -0.7905 N   0  0  0  0  0  0  0  0  0  0  0  0
   -5.3151    1.7451   -1.8364 N   0  0  0  0  0  0  0  0  0  0  0  0
   -4.0886    1.3586   -1.3958 C   0  0  0  0  0  0  0  0  0  0  0  0
   -2.8386    1.2237   -2.0902 C   0  0  0  0  0  0  0  0  0  0  0  0
   -2.6467    1.4393   -3.2814 O   0  0  0  0  0  0  0  0  0  0  0  0
   -1.8142    0.8060   -1.2489 N   0  0  0  0  0  0  0  0  0  0  0  0
   -1.9724    0.5514    0.1088 C   0  0  0  0  0  0  0  0  0  0  0  0
   -0.7317    0.0988    0.8648 C   0  0  0  0  0  0  0  0  0  0  0  0
   -0.2007   -1.2420    0.3301 C   0  0  0  0  0  0  0  0  0  0  0  0
    1.2886   -1.1988   -0.0045 C   0  0  0  0  0  0  0  0  0  0  0  0
    2.0149   -0.6275    1.1411 N   0  0  0  0  0  0  0  0  0  0  0  0
    3.6424   -1.0575    1.3577 S   0  0  0  0  0  6  0  0  0  0  0  0
    3.7801   -2.4750    1.1018 O   0  0  0  0  0  0  0  0  0  0  0  0
    4.1006   -0.4683    2.5977 O   0  0  0  0  0  0  0  0  0  0  0  0
    4.4637   -0.2034    0.0238 C   0  0  0  0  0  0  0  0  0  0  0  0
    5.0474    1.0476    0.2550 C   0  0  0  0  0  0  0  0  0  0  0  0
    5.7135    1.6998   -0.7833 C   0  0  0  0  0  0  0  0  0  0  0  0
    5.8174    1.0802   -2.0344 C   0  0  0  0  0  0  0  0  0  0  0  0
    6.6359    1.9322   -3.3725 S   0  0  0  0  0  6  0  0  0  0  0  0
    6.5844    3.3464   -3.0680 O   0  0  0  0  0  0  0  0  0  0  0  0
    6.0833    1.4133   -4.6058 O   0  0  0  0  0  0  0  0  0  0  0  0
    8.2464    1.4078   -3.2380 N   0  0  0  0  0  0  0  0  0  0  0  0
    8.5269    0.0034   -3.5803 C   0  0  0  0  0  0  0  0  0  0  0  0
    9.0145    1.8887   -2.0773 C   0  0  0  0  0  0  0  0  0  0  0  0
    5.2350   -0.1715   -2.2660 C   0  0  0  0  0  0  0  0  0  0  0  0
    4.5696   -0.8235   -1.2272 C   0  0  0  0  0  0  0  0  0  0  0  0
    1.6082    0.7298    1.5694 C   0  0  0  0  0  0  0  0  0  0  0  0
    0.3386    1.1937    0.8612 C   0  0  0  0  0  0  0  0  0  0  0  0
   -3.1016    0.6794    0.7492 N   0  0  0  0  0  0  0  0  0  0  0  0
   -4.1224    1.0728   -0.0524 C   0  0  0  0  0  0  0  0  0  0  0  0
   -5.4740   -1.0870    2.5748 C   0  0  0  0  0  0  0  0  0  0  0  0
   -4.1102   -3.8035    2.8254 H   0  0  0  0  0  0  0  0  0  0  0  0
   -4.0210   -2.6482    4.1765 H   0  0  0  0  0  0  0  0  0  0  0  0
   -5.1651   -3.9904    4.2508 H   0  0  0  0  0  0  0  0  0  0  0  0
   -7.1871   -4.0167    2.7481 H   0  0  0  0  0  0  0  0  0  0  0  0
   -8.8601   -2.6619    1.5813 H   0  0  0  0  0  0  0  0  0  0  0  0
   -8.3841    0.1699   -0.1961 H   0  0  0  0  0  0  0  0  0  0  0  0
   -9.6488   -0.6560    0.7160 H   0  0  0  0  0  0  0  0  0  0  0  0
   -8.9753    0.8378    1.3567 H   0  0  0  0  0  0  0  0  0  0  0  0
   -5.3507    1.5397    2.3252 H   0  0  0  0  0  0  0  0  0  0  0  0
   -6.9280    1.8066    1.6140 H   0  0  0  0  0  0  0  0  0  0  0  0
   -0.9234    0.6956   -1.7081 H   0  0  0  0  0  0  0  0  0  0  0  0
   -1.0389   -0.0615    1.9086 H   0  0  0  0  0  0  0  0  0  0  0  0
   -0.3627   -2.0037    1.1050 H   0  0  0  0  0  0  0  0  0  0  0  0
   -0.7598   -1.5894   -0.5463 H   0  0  0  0  0  0  0  0  0  0  0  0
    1.4675   -0.6000   -0.9047 H   0  0  0  0  0  0  0  0  0  0  0  0
    1.6219   -2.2200   -0.2135 H   0  0  0  0  0  0  0  0  0  0  0  0
    4.9869    1.5179    1.2347 H   0  0  0  0  0  0  0  0  0  0  0  0
    6.1491    2.6826   -0.6123 H   0  0  0  0  0  0  0  0  0  0  0  0
    9.6009   -0.1259   -3.7522 H   0  0  0  0  0  0  0  0  0  0  0  0
    8.2228   -0.6673   -2.7716 H   0  0  0  0  0  0  0  0  0  0  0  0
    8.0220   -0.2876   -4.5054 H   0  0  0  0  0  0  0  0  0  0  0  0
    8.8609    2.9592   -1.9161 H   0  0  0  0  0  0  0  0  0  0  0  0
   10.0848    1.7461   -2.2595 H   0  0  0  0  0  0  0  0  0  0  0  0
    8.7420    1.3408   -1.1708 H   0  0  0  0  0  0  0  0  0  0  0  0
    5.3003   -0.6418   -3.2456 H   0  0  0  0  0  0  0  0  0  0  0  0
    4.1408   -1.8092   -1.3973 H   0  0  0  0  0  0  0  0  0  0  0  0
    2.3992    1.4604    1.3780 H   0  0  0  0  0  0  0  0  0  0  0  0
    1.4323    0.7015    2.6511 H   0  0  0  0  0  0  0  0  0  0  0  0
    0.5869    1.4896   -0.1661 H   0  0  0  0  0  0  0  0  0  0  0  0
   -0.0449    2.0989    1.3477 H   0  0  0  0  0  0  0  0  0  0  0  0
   -4.5066   -0.6614    2.8407 H   0  0  0  0  0  0  0  0  0  0  0  0
  1  2  1  0
  2  3  2  0
  3  4  1  0
  4  5  2  0
  5  6  1  0
  5  7  1  0
  7  8  1  0
  8  9  1  0
  9 10  1  0
 10 11  2  0
 11 12  1  0
 12 13  1  0
 13 14  2  0
 13 15  1  0
 15 16  1  0
 16 17  1  0
 17 18  1  0
 18 19  1  0
 19 20  1  0
 20 21  1  0
 21 22  2  0
 21 23  2  0
 21 24  1  0
 24 25  2  0
 25 26  1  0
 26 27  2  0
 27 28  1  0
 28 29  2  0
 28 30  2  0
 28 31  1  0
 31 32  1  0
 31 33  1  0
 27 34  1  0
 34 35  2  0
 20 36  1  0
 36 37  1  0
 16 38  2  0
 38 39  1  0
  7 40  2  0
 40  2  1  0
 39  9  1  0
 39 12  2  0
 37 17  1  0
 35 24  1  0
  1 41  1  0
  1 42  1  0
  1 43  1  0
  3 44  1  0
  4 45  1  0
  6 46  1  0
  6 47  1  0
  6 48  1  0
  8 49  1  0
  8 50  1  0
 15 51  1  0
 17 52  1  0
 18 53  1  0
 18 54  1  0
 19 55  1  0
 19 56  1  0
 25 57  1  0
 26 58  1  0
 32 59  1  0
 32 60  1  0
 32 61  1  0
 33 62  1  0
 33 63  1  0
 33 64  1  0
 34 65  1  0
 35 66  1  0
 36 67  1  0
 36 68  1  0
 37 69  1  0
 37 70  1  0
 40 71  1  0
M  END
$$$$
