
     RDKit          3D

 62 66  0  0  0  0  0  0  0  0999 V2000
   -4.6833    6.0500   -2.8634 C   0  0  0  0  0  0  0  0  0  0  0  0
   -3.7410    5.0481   -2.5027 O   0  0  0  0  0  0  0  0  0  0  0  0
   -4.2427    3.8419   -2.0958 C   0  0  0  0  0  0  0  0  0  0  0  0
   -5.5861    3.5030   -2.0108 C   0  0  0  0  0  0  0  0  0  0  0  0
   -5.9744    2.2304   -1.5762 C   0  0  0  0  0  0  0  0  0  0  0  0
   -4.9862    1.2901   -1.2264 C   0  0  0  0  0  0  0  0  0  0  0  0
   -5.2423   -0.3156   -0.6728 S   0  0  0  0  0  0  0  0  0  0  0  0
   -3.5672   -0.6241   -0.5257 C   0  0  0  0  0  0  0  0  0  0  0  0
   -3.1424   -1.9581   -0.0797 C   0  0  0  0  0  0  0  0  0  0  0  0
   -2.7563   -2.8986   -1.0491 C   0  0  0  0  0  0  0  0  0  0  0  0
   -2.3411   -4.1745   -0.6733 C   0  0  0  0  0  0  0  0  0  0  0  0
   -2.3053   -4.5203    0.6743 C   0  0  0  0  0  0  0  0  0  0  0  0
   -2.6805   -3.5923    1.6504 C   0  0  0  0  0  0  0  0  0  0  0  0
   -3.1002   -2.3071    1.2864 C   0  0  0  0  0  0  0  0  0  0  0  0
   -3.4641   -1.3298    2.1790 O   0  0  0  0  0  0  0  0  0  0  0  0
   -3.5385   -1.6874    3.5517 C   0  0  0  0  0  0  0  0  0  0  0  0
   -2.8087    0.4741   -0.8974 C   0  0  0  0  0  0  0  0  0  0  0  0
   -1.3503    0.4401   -0.8750 C   0  0  0  0  0  0  0  0  0  0  0  0
   -0.6310    0.4723   -2.0727 C   0  0  0  0  0  0  0  0  0  0  0  0
    0.7654    0.4419   -2.0492 C   0  0  0  0  0  0  0  0  0  0  0  0
    1.4573    0.3784   -0.8367 C   0  0  0  0  0  0  0  0  0  0  0  0
    2.8194    0.3511   -0.9578 O   0  0  0  0  0  0  0  0  0  0  0  0
    3.5747    0.2035    0.2490 C   0  0  0  0  0  0  0  0  0  0  0  0
    5.0648    0.1641   -0.1233 C   0  0  0  0  0  0  0  0  0  0  0  0
    5.9542    0.0414    1.0383 N   0  0  0  0  0  0  0  0  0  0  0  0
    5.8676   -1.2622    1.7009 C   0  0  0  0  0  0  0  0  0  0  0  0
    7.1364   -1.3200    2.5412 C   0  0  0  0  0  0  0  0  0  0  0  0
    8.0957   -0.3310    1.8898 C   0  0  0  0  0  0  0  0  0  0  0  0
    7.3629    0.1735    0.6575 C   0  0  0  0  0  0  0  0  0  0  0  0
    0.7391    0.3541    0.3594 C   0  0  0  0  0  0  0  0  0  0  0  0
   -0.6597    0.3873    0.3401 C   0  0  0  0  0  0  0  0  0  0  0  0
   -3.6269    1.5957   -1.3041 C   0  0  0  0  0  0  0  0  0  0  0  0
   -3.2703    2.8977   -1.7444 C   0  0  0  0  0  0  0  0  0  0  0  0
   -5.3198    6.3183   -2.0136 H   0  0  0  0  0  0  0  0  0  0  0  0
   -5.2831    5.7358   -3.7240 H   0  0  0  0  0  0  0  0  0  0  0  0
   -4.1245    6.9443   -3.1558 H   0  0  0  0  0  0  0  0  0  0  0  0
   -6.3705    4.2053   -2.2735 H   0  0  0  0  0  0  0  0  0  0  0  0
   -7.0278    1.9724   -1.5095 H   0  0  0  0  0  0  0  0  0  0  0  0
   -2.7784   -2.6341   -2.1041 H   0  0  0  0  0  0  0  0  0  0  0  0
   -2.0446   -4.8948   -1.4312 H   0  0  0  0  0  0  0  0  0  0  0  0
   -1.9797   -5.5148    0.9692 H   0  0  0  0  0  0  0  0  0  0  0  0
   -2.6273   -3.9036    2.6882 H   0  0  0  0  0  0  0  0  0  0  0  0
   -4.2541   -2.5005    3.7122 H   0  0  0  0  0  0  0  0  0  0  0  0
   -2.5496   -1.9451    3.9445 H   0  0  0  0  0  0  0  0  0  0  0  0
   -3.8981   -0.8146    4.1053 H   0  0  0  0  0  0  0  0  0  0  0  0
   -1.1488    0.5182   -3.0274 H   0  0  0  0  0  0  0  0  0  0  0  0
    1.3188    0.4660   -2.9845 H   0  0  0  0  0  0  0  0  0  0  0  0
    3.2885   -0.7303    0.7469 H   0  0  0  0  0  0  0  0  0  0  0  0
    3.3908    1.0570    0.9131 H   0  0  0  0  0  0  0  0  0  0  0  0
    5.2946    1.0960   -0.6572 H   0  0  0  0  0  0  0  0  0  0  0  0
    5.2394   -0.6417   -0.8491 H   0  0  0  0  0  0  0  0  0  0  0  0
    5.8683   -2.0863    0.9758 H   0  0  0  0  0  0  0  0  0  0  0  0
    4.9754   -1.3515    2.3284 H   0  0  0  0  0  0  0  0  0  0  0  0
    7.5534   -2.3323    2.5603 H   0  0  0  0  0  0  0  0  0  0  0  0
    6.9367   -1.0190    3.5761 H   0  0  0  0  0  0  0  0  0  0  0  0
    8.3023    0.4945    2.5819 H   0  0  0  0  0  0  0  0  0  0  0  0
    9.0509   -0.7988    1.6307 H   0  0  0  0  0  0  0  0  0  0  0  0
    7.6103   -0.4558   -0.2074 H   0  0  0  0  0  0  0  0  0  0  0  0
    7.6327    1.2090    0.4262 H   0  0  0  0  0  0  0  0  0  0  0  0
    1.2320    0.3132    1.3247 H   0  0  0  0  0  0  0  0  0  0  0  0
   -1.2072    0.3713    1.2803 H   0  0  0  0  0  0  0  0  0  0  0  0
   -2.2195    3.1724   -1.8076 H   0  0  0  0  0  0  0  0  0  0  0  0
  1  2  1  0
  2  3  1  0
  3  4  2  0
  4  5  1  0
  5  6  2  0
  6  7  1  0
  7  8  1  0
  8  9  1  0
  9 10  2  0
 10 11  1  0
 11 12  2  0
 12 13  1  0
 13 14  2  0
 14 15  1  0
 15 16  1  0
  8 17  2  0
 17 18  1  0
 18 19  2  0
 19 20  1  0
 20 21  2  0
 21 22  1  0
 22 23  1  0
 23 24  1  0
 24 25  1  0
 25 26  1  0
 26 27  1  0
 27 28  1  0
 28 29  1  0
 21 30  1  0
 30 31  2  0
 17 32  1  0
 32 33  2  0
 33  3  1  0
 32  6  1  0
 14  9  1  0
 31 18  1  0
 29 25  1  0
  1 34  1  0
  1 35  1  0
  1 36  1  0
  4 37  1  0
  5 38  1  0
 10 39  1  0
 11 40  1  0
 12 41  1  0
 13 42  1  0
 16 43  1  0
 16 44  1  0
 16 45  1  0
 19 46  1  0
 20 47  1  0
 23 48  1  0
 23 49  1  0
 24 50  1  0
 24 51  1  0
 26 52  1  0
 26 53  1  0
 27 54  1  0
 27 55  1  0
 28 56  1  0
 28 57  1  0
 29 58  1  0
 29 59  1  0
 30 60  1  0
 31 61  1  0
 33 62  1  0
M  END
$$$$
