
     RDKit          3D

 55 58  0  0  0  0  0  0  0  0999 V2000
    3.8689   -1.8254    1.6328 C   0  0  0  0  0  0  0  0  0  0  0  0
    3.0500   -1.4929    0.4961 N   0  0  0  0  0  0  0  0  0  0  0  0
    3.1584   -0.3868   -0.3180 C   0  0  0  0  0  0  0  0  0  0  0  0
    4.1846    0.6925   -0.1879 C   0  0  0  0  0  0  0  0  0  0  0  0
    5.6013    0.2208   -0.4384 C   0  0  0  0  0  0  0  0  0  0  0  0
    5.9314   -0.4613   -1.6209 C   0  0  0  0  0  0  0  0  0  0  0  0
    7.2384   -0.8938   -1.8490 C   0  0  0  0  0  0  0  0  0  0  0  0
    8.2320   -0.6418   -0.9049 C   0  0  0  0  0  0  0  0  0  0  0  0
    7.9218    0.0496    0.2649 C   0  0  0  0  0  0  0  0  0  0  0  0
    6.6151    0.4834    0.4960 C   0  0  0  0  0  0  0  0  0  0  0  0
    2.2131   -0.4435   -1.2393 N   0  0  0  0  0  0  0  0  0  0  0  0
    1.5141   -1.6081   -1.0657 N   0  0  0  0  0  0  0  0  0  0  0  0
    2.0215   -2.2273   -0.0255 C   0  0  0  0  0  0  0  0  0  0  0  0
    1.4787   -3.7359    0.6158 S   0  0  0  0  0  0  0  0  0  0  0  0
    0.0269   -4.0600   -0.4299 C   0  0  0  0  0  0  0  0  0  0  0  0
   -1.1721   -3.2376    0.0239 C   0  0  0  0  0  0  0  0  0  0  0  0
   -1.9916   -3.7071    0.8104 O   0  0  0  0  0  0  0  0  0  0  0  0
   -1.2097   -1.9726   -0.5362 N   0  0  0  0  0  0  0  0  0  0  0  0
   -2.2089   -0.9926   -0.3934 C   0  0  0  0  0  0  0  0  0  0  0  0
   -3.4308   -1.2072    0.2366 C   0  0  0  0  0  0  0  0  0  0  0  0
   -4.3847   -0.1805    0.3116 C   0  0  0  0  0  0  0  0  0  0  0  0
   -4.1453    1.0837   -0.2381 C   0  0  0  0  0  0  0  0  0  0  0  0
   -5.0636    2.1398   -0.1915 N   0  0  0  0  0  0  0  0  0  0  0  0
   -4.6103    3.2510    0.6817 C   0  0  0  0  0  0  0  0  0  0  0  0
   -5.7763    4.2072    0.9806 C   0  0  0  0  0  0  0  0  0  0  0  0
   -6.8721    3.5760    1.6652 O   0  0  0  0  0  0  0  0  0  0  0  0
   -7.0319    2.1891    1.3185 C   0  0  0  0  0  0  0  0  0  0  0  0
   -6.5075    1.8447   -0.0830 C   0  0  0  0  0  0  0  0  0  0  0  0
   -2.9052    1.2859   -0.8608 C   0  0  0  0  0  0  0  0  0  0  0  0
   -1.9508    0.2649   -0.9426 C   0  0  0  0  0  0  0  0  0  0  0  0
    4.3584   -0.9290    2.0210 H   0  0  0  0  0  0  0  0  0  0  0  0
    3.2403   -2.2388    2.4257 H   0  0  0  0  0  0  0  0  0  0  0  0
    4.6171   -2.5573    1.3149 H   0  0  0  0  0  0  0  0  0  0  0  0
    3.9640    1.4945   -0.9034 H   0  0  0  0  0  0  0  0  0  0  0  0
    4.0986    1.1427    0.8086 H   0  0  0  0  0  0  0  0  0  0  0  0
    5.1688   -0.6619   -2.3732 H   0  0  0  0  0  0  0  0  0  0  0  0
    7.4807   -1.4255   -2.7660 H   0  0  0  0  0  0  0  0  0  0  0  0
    9.2499   -0.9789   -1.0848 H   0  0  0  0  0  0  0  0  0  0  0  0
    8.7008    0.2541    0.9957 H   0  0  0  0  0  0  0  0  0  0  0  0
    6.3981    1.0295    1.4124 H   0  0  0  0  0  0  0  0  0  0  0  0
    0.2427   -3.8841   -1.4889 H   0  0  0  0  0  0  0  0  0  0  0  0
   -0.2373   -5.1198   -0.3355 H   0  0  0  0  0  0  0  0  0  0  0  0
   -0.3647   -1.6706   -1.0262 H   0  0  0  0  0  0  0  0  0  0  0  0
   -3.6829   -2.1662    0.6784 H   0  0  0  0  0  0  0  0  0  0  0  0
   -5.3103   -0.3977    0.8343 H   0  0  0  0  0  0  0  0  0  0  0  0
   -3.8037    3.8099    0.1939 H   0  0  0  0  0  0  0  0  0  0  0  0
   -4.2352    2.8500    1.6331 H   0  0  0  0  0  0  0  0  0  0  0  0
   -6.1657    4.6401    0.0523 H   0  0  0  0  0  0  0  0  0  0  0  0
   -5.4332    5.0351    1.6085 H   0  0  0  0  0  0  0  0  0  0  0  0
   -8.0998    1.9584    1.3873 H   0  0  0  0  0  0  0  0  0  0  0  0
   -6.5168    1.5950    2.0826 H   0  0  0  0  0  0  0  0  0  0  0  0
   -7.0211    2.4785   -0.8182 H   0  0  0  0  0  0  0  0  0  0  0  0
   -6.7526    0.8119   -0.3537 H   0  0  0  0  0  0  0  0  0  0  0  0
   -2.6836    2.2454   -1.3210 H   0  0  0  0  0  0  0  0  0  0  0  0
   -1.0079    0.4704   -1.4449 H   0  0  0  0  0  0  0  0  0  0  0  0
  1  2  1  0
  2  3  1  0
  3  4  1  0
  4  5  1  0
  5  6  2  0
  6  7  1  0
  7  8  2  0
  8  9  1  0
  9 10  2  0
  3 11  2  0
 11 12  1  0
 12 13  2  0
 13 14  1  0
 14 15  1  0
 15 16  1  0
 16 17  2  0
 16 18  1  0
 18 19  1  0
 19 20  2  0
 20 21  1  0
 21 22  2  0
 22 23  1  0
 23 24  1  0
 24 25  1  0
 25 26  1  0
 26 27  1  0
 27 28  1  0
 22 29  1  0
 29 30  2  0
 13  2  1  0
 30 19  1  0
 10  5  1  0
 28 23  1  0
  1 31  1  0
  1 32  1  0
  1 33  1  0
  4 34  1  0
  4 35  1  0
  6 36  1  0
  7 37  1  0
  8 38  1  0
  9 39  1  0
 10 40  1  0
 15 41  1  0
 15 42  1  0
 18 43  1  0
 20 44  1  0
 21 45  1  0
 24 46  1  0
 24 47  1  0
 25 48  1  0
 25 49  1  0
 27 50  1  0
 27 51  1  0
 28 52  1  0
 28 53  1  0
 29 54  1  0
 30 55  1  0
M  END
$$$$
