
     RDKit          3D

 49 51  0  0  0  0  0  0  0  0999 V2000
    1.9077    0.0270    0.3997 O   0  0  0  0  0  0  0  0  0  0  0  0
    2.2725    0.0523   -0.7679 C   0  0  0  0  0  0  0  0  0  0  0  0
    3.5459   -0.1819   -1.2324 N   0  0  0  0  0  0  0  0  0  0  0  0
    4.6052   -0.6547   -0.3779 C   0  0  0  0  0  0  0  0  0  0  0  0
    4.7526   -2.1497   -0.4864 C   0  0  0  0  0  0  0  0  0  0  0  0
    3.9300   -2.9998    0.2691 C   0  0  0  0  0  0  0  0  0  0  0  0
    4.0459   -4.3861    0.1524 C   0  0  0  0  0  0  0  0  0  0  0  0
    4.9813   -4.9361   -0.7234 C   0  0  0  0  0  0  0  0  0  0  0  0
    5.7980   -4.1021   -1.4852 C   0  0  0  0  0  0  0  0  0  0  0  0
    5.6835   -2.7148   -1.3708 C   0  0  0  0  0  0  0  0  0  0  0  0
    1.2601    0.3603   -1.8960 C   0  0  0  0  0  0  0  0  0  0  0  0
    1.5876    0.2156   -3.0654 O   0  0  0  0  0  0  0  0  0  0  0  0
    0.0391    0.7949   -1.4388 N   0  0  0  0  0  0  0  0  0  0  0  0
   -1.0059    1.2737   -2.3318 C   0  0  0  0  0  0  0  0  0  0  0  0
   -2.4461    0.8818   -1.9093 C   0  0  0  0  0  0  0  0  0  0  0  0
   -2.6596   -0.5259   -2.1146 O   0  0  0  0  0  0  0  0  0  0  0  0
   -2.3602   -1.1730   -0.8747 C   0  0  0  0  0  0  0  0  0  0  0  0
   -2.6729   -0.1607    0.2115 C   0  0  0  0  0  0  0  0  0  0  0  0
   -2.8024    1.1156   -0.5013 N   0  0  0  0  0  0  0  0  0  0  0  0
   -2.3060    2.5351    0.2218 S   0  0  0  0  0  6  0  0  0  0  0  0
   -2.6556    3.6290   -0.6573 O   0  0  0  0  0  0  0  0  0  0  0  0
   -0.9421    2.3390    0.6669 O   0  0  0  0  0  0  0  0  0  0  0  0
   -3.3566    2.6297    1.6489 C   0  0  0  0  0  0  0  0  0  0  0  0
   -2.8220    2.4414    2.9272 C   0  0  0  0  0  0  0  0  0  0  0  0
   -3.6617    2.5272    4.0400 C   0  0  0  0  0  0  0  0  0  0  0  0
   -5.0191    2.8037    3.8655 C   0  0  0  0  0  0  0  0  0  0  0  0
   -6.1499    2.9211    5.3759 Br  0  0  0  0  0  0  0  0  0  0  0  0
   -5.5489    2.9984    2.5892 C   0  0  0  0  0  0  0  0  0  0  0  0
   -4.7149    2.9139    1.4733 C   0  0  0  0  0  0  0  0  0  0  0  0
    3.6426   -0.2619   -2.2397 H   0  0  0  0  0  0  0  0  0  0  0  0
    4.4170   -0.3662    0.6625 H   0  0  0  0  0  0  0  0  0  0  0  0
    5.5273   -0.1520   -0.6941 H   0  0  0  0  0  0  0  0  0  0  0  0
    3.1883   -2.5802    0.9473 H   0  0  0  0  0  0  0  0  0  0  0  0
    3.4034   -5.0358    0.7399 H   0  0  0  0  0  0  0  0  0  0  0  0
    5.0698   -6.0161   -0.8147 H   0  0  0  0  0  0  0  0  0  0  0  0
    6.5246   -4.5326   -2.1694 H   0  0  0  0  0  0  0  0  0  0  0  0
    6.3281   -2.0790   -1.9740 H   0  0  0  0  0  0  0  0  0  0  0  0
    0.0169    1.0863   -0.4579 H   0  0  0  0  0  0  0  0  0  0  0  0
   -0.9013    2.3627   -2.3726 H   0  0  0  0  0  0  0  0  0  0  0  0
   -0.8125    0.8849   -3.3380 H   0  0  0  0  0  0  0  0  0  0  0  0
   -3.1604    1.4031   -2.5559 H   0  0  0  0  0  0  0  0  0  0  0  0
   -2.9619   -2.0819   -0.7810 H   0  0  0  0  0  0  0  0  0  0  0  0
   -1.3048   -1.4650   -0.8677 H   0  0  0  0  0  0  0  0  0  0  0  0
   -1.8953   -0.1596    0.9805 H   0  0  0  0  0  0  0  0  0  0  0  0
   -3.6295   -0.3961    0.6903 H   0  0  0  0  0  0  0  0  0  0  0  0
   -1.7611    2.2408    3.0669 H   0  0  0  0  0  0  0  0  0  0  0  0
   -3.2493    2.3834    5.0361 H   0  0  0  0  0  0  0  0  0  0  0  0
   -6.6058    3.2169    2.4554 H   0  0  0  0  0  0  0  0  0  0  0  0
   -5.1218    3.0733    0.4763 H   0  0  0  0  0  0  0  0  0  0  0  0
  1  2  2  0
  2  3  1  0
  3  4  1  0
  4  5  1  0
  5  6  2  0
  6  7  1  0
  7  8  2  0
  8  9  1  0
  9 10  2  0
  2 11  1  0
 11 12  2  0
 11 13  1  0
 13 14  1  0
 14 15  1  0
 15 16  1  0
 16 17  1  0
 17 18  1  0
 18 19  1  0
 19 20  1  0
 20 21  2  0
 20 22  2  0
 20 23  1  0
 23 24  2  0
 24 25  1  0
 25 26  2  0
 26 27  1  0
 26 28  1  0
 28 29  2  0
 10  5  1  0
 19 15  1  0
 29 23  1  0
  3 30  1  0
  4 31  1  0
  4 32  1  0
  6 33  1  0
  7 34  1  0
  8 35  1  0
  9 36  1  0
 10 37  1  0
 13 38  1  0
 14 39  1  0
 14 40  1  0
 15 41  1  0
 17 42  1  0
 17 43  1  0
 18 44  1  0
 18 45  1  0
 24 46  1  0
 25 47  1  0
 28 48  1  0
 29 49  1  0
M  END
$$$$
