
     RDKit          3D

 28 28  0  0  0  0  0  0  0  0999 V2000
   -2.3113   -1.7474    0.8499 C   0  0  0  0  0  0  0  0  0  0  0  0
   -1.8371   -0.4643    0.1431 C   0  0  0  0  0  0  0  0  0  0  0  0
   -1.1150   -0.8542   -1.1520 C   0  0  0  0  0  0  0  0  0  0  0  0
   -3.0685    0.3953   -0.1739 C   0  0  0  0  0  0  0  0  0  0  0  0
   -0.8600    0.3031    1.0655 C   0  0  0  0  0  0  0  0  0  0  0  0
   -0.4019   -0.2352    2.0773 O   0  0  0  0  0  0  0  0  0  0  0  0
   -0.5277    1.7447    0.6879 C   0  0  0  0  0  0  0  0  0  0  0  0
    0.9813    2.3672    1.4800 S   0  0  0  0  0  0  0  0  0  0  0  0
    2.1797    1.2680    0.7689 C   0  0  0  0  0  0  0  0  0  0  0  0
    3.3505    1.1561    1.4183 N   0  0  0  0  0  0  0  0  0  0  0  0
    4.2657    0.3380    0.8697 C   0  0  0  0  0  0  0  0  0  0  0  0
    4.0618   -0.3498   -0.3014 C   0  0  0  0  0  0  0  0  0  0  0  0
    2.8406   -0.1496   -0.8981 C   0  0  0  0  0  0  0  0  0  0  0  0
    1.8857    0.6544   -0.3930 N   0  0  0  0  0  0  0  0  0  0  0  0
   -1.4703   -2.4130    1.0767 H   0  0  0  0  0  0  0  0  0  0  0  0
   -3.0179   -2.3077    0.2272 H   0  0  0  0  0  0  0  0  0  0  0  0
   -2.8108   -1.5151    1.7977 H   0  0  0  0  0  0  0  0  0  0  0  0
   -0.2169   -1.4449   -0.9392 H   0  0  0  0  0  0  0  0  0  0  0  0
   -1.7633   -1.4525   -1.8021 H   0  0  0  0  0  0  0  0  0  0  0  0
   -0.7997    0.0249   -1.7233 H   0  0  0  0  0  0  0  0  0  0  0  0
   -3.5473    0.7512    0.7455 H   0  0  0  0  0  0  0  0  0  0  0  0
   -3.8127   -0.1724   -0.7440 H   0  0  0  0  0  0  0  0  0  0  0  0
   -2.8074    1.2765   -0.7698 H   0  0  0  0  0  0  0  0  0  0  0  0
   -0.4331    1.8493   -0.3955 H   0  0  0  0  0  0  0  0  0  0  0  0
   -1.3599    2.3743    1.0173 H   0  0  0  0  0  0  0  0  0  0  0  0
    5.1982    0.2517    1.4198 H   0  0  0  0  0  0  0  0  0  0  0  0
    4.8121   -1.0026   -0.7243 H   0  0  0  0  0  0  0  0  0  0  0  0
    2.5850   -0.6459   -1.8299 H   0  0  0  0  0  0  0  0  0  0  0  0
  1  2  1  0
  2  3  1  0
  2  4  1  0
  2  5  1  0
  5  6  2  0
  5  7  1  0
  7  8  1  0
  8  9  1  0
  9 10  2  0
 10 11  1  0
 11 12  2  0
 12 13  1  0
 13 14  2  0
 14  9  1  0
  1 15  1  0
  1 16  1  0
  1 17  1  0
  3 18  1  0
  3 19  1  0
  3 20  1  0
  4 21  1  0
  4 22  1  0
  4 23  1  0
  7 24  1  0
  7 25  1  0
 11 26  1  0
 12 27  1  0
 13 28  1  0
M  END
$$$$
