
     RDKit          3D

 87 91  0  0  0  0  0  0  0  0999 V2000
    0.7951    8.0682   -2.1893 C   0  0  0  0  0  0  0  0  0  0  0  0
    1.2063    6.9471   -1.2515 C   0  0  0  0  0  0  0  0  0  0  0  0
    1.5534    5.6803   -1.9976 C   0  0  0  0  0  0  0  0  0  0  0  0
    1.6022    5.5590   -3.2122 O   0  0  0  0  0  0  0  0  0  0  0  0
    1.8074    4.6860   -1.0994 O   0  0  0  0  0  0  0  0  0  0  0  0
    2.1607    3.4092   -1.6567 C   0  0  0  0  0  0  0  0  0  0  0  0
    0.9112    2.6118   -2.0255 C   0  0  1  0  0  0  0  0  0  0  0  0
    1.2319    1.1793   -2.5139 C   0  0  0  0  0  0  0  0  0  0  0  0
    0.1726    0.2246   -1.8711 C   0  0  2  0  0  0  0  0  0  0  0  0
    0.7862   -0.4133   -0.7370 O   0  0  0  0  0  0  0  0  0  0  0  0
    1.7661   -1.3192   -0.9819 C   0  0  0  0  0  0  0  0  0  0  0  0
    2.2122   -1.6340   -2.0718 O   0  0  0  0  0  0  0  0  0  0  0  0
    2.1936   -1.8807    0.3133 C   0  0  0  0  0  0  0  0  0  0  0  0
    3.0542   -2.9077    0.3461 C   0  0  0  0  0  0  0  0  0  0  0  0
    3.5124   -3.5388    1.5896 C   0  0  0  0  0  0  0  0  0  0  0  0
    2.6464   -3.7869    2.6633 C   0  0  0  0  0  0  0  0  0  0  0  0
    3.1124   -4.4180    3.8196 C   0  0  0  0  0  0  0  0  0  0  0  0
    4.4447   -4.8153    3.9099 C   0  0  0  0  0  0  0  0  0  0  0  0
    5.3102   -4.5889    2.8418 C   0  0  0  0  0  0  0  0  0  0  0  0
    4.8445   -3.9590    1.6848 C   0  0  0  0  0  0  0  0  0  0  0  0
   -0.5143   -0.7063   -2.9097 C   0  0  0  0  0  0  0  0  0  0  0  0
   -0.7964   -0.2535   -4.0290 O   0  0  0  0  0  0  0  0  0  0  0  0
   -0.8376   -2.1702   -2.6449 C   0  0  0  0  0  0  0  0  0  0  0  0
   -0.6640   -2.9603   -3.9322 C   0  0  0  0  0  0  0  0  0  0  0  0
   -1.2416   -2.8481   -1.5448 C   0  0  0  0  0  0  0  0  0  0  0  0
   -1.5483   -2.4971   -0.1427 C   0  0  0  0  0  0  0  0  0  0  0  0
   -2.9710   -2.2500    0.3481 C   0  0  2  0  0  0  0  0  0  0  0  0
   -3.3042   -1.2125    1.4042 C   0  0  0  0  0  0  0  0  0  0  0  0
   -4.0552    0.0335    0.8880 C   0  0  0  0  0  0  0  0  0  0  0  0
   -3.3372    0.8639   -0.1597 C   0  0  2  0  0  0  0  0  0  0  0  0
   -3.9984    2.1351   -0.5815 C   0  0  0  0  0  0  0  0  0  0  0  0
   -2.9163    0.0363   -1.2307 O   0  0  0  0  0  0  0  0  0  0  0  0
   -1.8589    0.6362   -0.4512 C   0  0  1  0  0  0  0  0  0  0  0  0
   -0.9080    1.2562   -1.4048 C   0  0  1  0  0  0  0  0  0  0  0  0
   -0.1051    2.4436   -0.8849 C   0  0  1  0  0  0  0  0  0  0  0  0
    0.5882    2.1433    0.3368 O   0  0  0  0  0  0  0  0  0  0  0  0
   -0.0342    2.5203    1.4894 C   0  0  0  0  0  0  0  0  0  0  0  0
   -1.1359    3.0431    1.5578 O   0  0  0  0  0  0  0  0  0  0  0  0
    0.8380    2.1555    2.6655 C   0  0  0  0  0  0  0  0  0  0  0  0
    0.2989    2.7209    3.9678 C   0  0  0  0  0  0  0  0  0  0  0  0
   -2.2571   -3.5315    0.7440 C   0  0  0  0  0  0  0  0  0  0  0  0
   -2.8507   -4.8091    0.1917 C   0  0  0  0  0  0  0  0  0  0  0  0
   -1.7093   -3.7073    2.1426 C   0  0  0  0  0  0  0  0  0  0  0  0
    1.5966    8.3061   -2.8961 H   0  0  0  0  0  0  0  0  0  0  0  0
   -0.0901    7.7890   -2.7698 H   0  0  0  0  0  0  0  0  0  0  0  0
    0.5598    8.9726   -1.6217 H   0  0  0  0  0  0  0  0  0  0  0  0
    0.3799    6.7315   -0.5662 H   0  0  0  0  0  0  0  0  0  0  0  0
    2.0818    7.2574   -0.6715 H   0  0  0  0  0  0  0  0  0  0  0  0
    2.7472    2.8852   -0.8940 H   0  0  0  0  0  0  0  0  0  0  0  0
    2.8231    3.5327   -2.5224 H   0  0  0  0  0  0  0  0  0  0  0  0
    0.3942    3.1320   -2.8440 H   0  0  0  0  0  0  0  0  0  0  0  0
    1.1983    1.1619   -3.6089 H   0  0  0  0  0  0  0  0  0  0  0  0
    2.2537    0.9110   -2.2276 H   0  0  0  0  0  0  0  0  0  0  0  0
    1.7772   -1.4355    1.2078 H   0  0  0  0  0  0  0  0  0  0  0  0
    3.4668   -3.3144   -0.5764 H   0  0  0  0  0  0  0  0  0  0  0  0
    1.5973   -3.5082    2.6086 H   0  0  0  0  0  0  0  0  0  0  0  0
    2.4334   -4.6061    4.6472 H   0  0  0  0  0  0  0  0  0  0  0  0
    4.8073   -5.3068    4.8093 H   0  0  0  0  0  0  0  0  0  0  0  0
    6.3484   -4.9047    2.9062 H   0  0  0  0  0  0  0  0  0  0  0  0
    5.5352   -3.7942    0.8607 H   0  0  0  0  0  0  0  0  0  0  0  0
   -1.4354   -2.6848   -4.6597 H   0  0  0  0  0  0  0  0  0  0  0  0
   -0.7326   -4.0427   -3.7792 H   0  0  0  0  0  0  0  0  0  0  0  0
    0.3212   -2.7640   -4.3702 H   0  0  0  0  0  0  0  0  0  0  0  0
   -1.3550   -3.9183   -1.7214 H   0  0  0  0  0  0  0  0  0  0  0  0
   -0.7418   -1.9740    0.3535 H   0  0  0  0  0  0  0  0  0  0  0  0
   -3.7790   -2.3394   -0.3740 H   0  0  0  0  0  0  0  0  0  0  0  0
   -3.9484   -1.6945    2.1501 H   0  0  0  0  0  0  0  0  0  0  0  0
   -2.4014   -0.8976    1.9394 H   0  0  0  0  0  0  0  0  0  0  0  0
   -5.0212   -0.2825    0.4748 H   0  0  0  0  0  0  0  0  0  0  0  0
   -4.2737    0.6780    1.7482 H   0  0  0  0  0  0  0  0  0  0  0  0
   -3.4612    2.6341   -1.3940 H   0  0  0  0  0  0  0  0  0  0  0  0
   -4.0510    2.8310    0.2616 H   0  0  0  0  0  0  0  0  0  0  0  0
   -5.0184    1.9404   -0.9278 H   0  0  0  0  0  0  0  0  0  0  0  0
   -1.3335    0.1076    0.3286 H   0  0  0  0  0  0  0  0  0  0  0  0
   -1.4668    1.6107   -2.2849 H   0  0  0  0  0  0  0  0  0  0  0  0
   -0.7168    3.3478   -0.7808 H   0  0  0  0  0  0  0  0  0  0  0  0
    1.8446    2.5535    2.4907 H   0  0  0  0  0  0  0  0  0  0  0  0
    0.8887    1.0632    2.7302 H   0  0  0  0  0  0  0  0  0  0  0  0
   -0.7009    2.3285    4.1826 H   0  0  0  0  0  0  0  0  0  0  0  0
    0.2273    3.8131    3.9215 H   0  0  0  0  0  0  0  0  0  0  0  0
    0.9569    2.4557    4.8007 H   0  0  0  0  0  0  0  0  0  0  0  0
   -3.5994   -5.2072    0.8852 H   0  0  0  0  0  0  0  0  0  0  0  0
   -2.0695   -5.5646    0.0615 H   0  0  0  0  0  0  0  0  0  0  0  0
   -3.3484   -4.6608   -0.7718 H   0  0  0  0  0  0  0  0  0  0  0  0
   -2.5165   -3.9556    2.8394 H   0  0  0  0  0  0  0  0  0  0  0  0
   -0.9789   -4.5228    2.1600 H   0  0  0  0  0  0  0  0  0  0  0  0
   -1.2041   -2.8103    2.5140 H   0  0  0  0  0  0  0  0  0  0  0  0
  1  2  1  0
  2  3  1  0
  3  4  2  0
  3  5  1  0
  5  6  1  0
  6  7  1  0
  7  8  1  0
  8  9  1  0
  9 10  1  1
 10 11  1  0
 11 12  2  0
 11 13  1  0
 13 14  2  0
 14 15  1  0
 15 16  2  0
 16 17  1  0
 17 18  2  0
 18 19  1  0
 19 20  2  0
  9 21  1  0
 21 22  2  0
 21 23  1  0
 23 24  1  0
 23 25  2  3
 25 26  1  0
 26 27  1  0
 27 28  1  0
 28 29  1  0
 29 30  1  0
 30 31  1  6
 30 32  1  0
 32 33  1  0
 33 34  1  0
 34 35  1  0
 35 36  1  0
 36 37  1  0
 37 38  2  0
 37 39  1  0
 39 40  1  0
 27 41  1  0
 41 42  1  0
 41 43  1  0
 35  7  1  0
 34  9  1  0
 20 15  1  0
 41 26  1  0
 33 30  1  0
  1 44  1  0
  1 45  1  0
  1 46  1  0
  2 47  1  0
  2 48  1  0
  6 49  1  0
  6 50  1  0
  7 51  1  6
  8 52  1  0
  8 53  1  0
 13 54  1  0
 14 55  1  0
 16 56  1  0
 17 57  1  0
 18 58  1  0
 19 59  1  0
 20 60  1  0
 24 61  1  0
 24 62  1  0
 24 63  1  0
 25 64  1  0
 26 65  1  0
 27 66  1  6
 28 67  1  0
 28 68  1  0
 29 69  1  0
 29 70  1  0
 31 71  1  0
 31 72  1  0
 31 73  1  0
 33 74  1  1
 34 75  1  6
 35 76  1  1
 39 77  1  0
 39 78  1  0
 40 79  1  0
 40 80  1  0
 40 81  1  0
 42 82  1  0
 42 83  1  0
 42 84  1  0
 43 85  1  0
 43 86  1  0
 43 87  1  0
M  END
$$$$
