
     RDKit          3D

 43 45  0  0  0  0  0  0  0  0999 V2000
   -5.2256    0.2247    2.3795 C   0  0  0  0  0  0  0  0  0  0  0  0
   -5.7374    1.1377    1.3665 N   0  0  0  0  0  0  0  0  0  0  0  0
   -7.0545    1.6943    1.6225 C   0  0  0  0  0  0  0  0  0  0  0  0
   -5.2405    1.2223    0.0657 C   0  0  0  0  0  0  0  0  0  0  0  0
   -5.8829    1.6745   -0.8793 O   0  0  0  0  0  0  0  0  0  0  0  0
   -3.8569    0.7717   -0.2042 C   0  0  0  0  0  0  0  0  0  0  0  0
   -2.7827    1.3005    0.5156 C   0  0  0  0  0  0  0  0  0  0  0  0
   -1.4812    0.8829    0.2221 C   0  0  0  0  0  0  0  0  0  0  0  0
   -1.2408   -0.0528   -0.7950 C   0  0  0  0  0  0  0  0  0  0  0  0
    0.0985   -0.4178   -1.0217 N   0  0  0  0  0  0  0  0  0  0  0  0
    0.6012   -1.3246   -1.9385 C   0  0  0  0  0  0  0  0  0  0  0  0
   -0.0659   -1.9913   -2.7220 O   0  0  0  0  0  0  0  0  0  0  0  0
    2.0494   -1.4252   -1.8832 C   0  0  0  0  0  0  0  0  0  0  0  0
    2.9338   -2.1977   -2.6079 C   0  0  0  0  0  0  0  0  0  0  0  0
    4.2300   -1.8878   -2.1304 C   0  0  0  0  0  0  0  0  0  0  0  0
    4.0760   -0.9390   -1.1378 C   0  0  0  0  0  0  0  0  0  0  0  0
    4.9984   -0.2157   -0.2637 C   0  0  0  0  0  0  0  0  0  0  0  0
    6.3779   -0.4719   -0.3149 C   0  0  0  0  0  0  0  0  0  0  0  0
    7.2696    0.2156    0.5165 C   0  0  0  0  0  0  0  0  0  0  0  0
    6.7893    1.1684    1.4099 C   0  0  0  0  0  0  0  0  0  0  0  0
    7.8837    2.0137    2.4318 Cl  0  0  0  0  0  0  0  0  0  0  0  0
    5.4264    1.4396    1.4781 C   0  0  0  0  0  0  0  0  0  0  0  0
    4.5376    0.7504    0.6457 C   0  0  0  0  0  0  0  0  0  0  0  0
    2.7456   -0.6570   -0.9853 O   0  0  0  0  0  0  0  0  0  0  0  0
   -2.3223   -0.5564   -1.5232 C   0  0  0  0  0  0  0  0  0  0  0  0
   -3.6270   -0.1390   -1.2364 C   0  0  0  0  0  0  0  0  0  0  0  0
   -4.3087   -0.2813    2.0761 H   0  0  0  0  0  0  0  0  0  0  0  0
   -5.9828   -0.5426    2.5704 H   0  0  0  0  0  0  0  0  0  0  0  0
   -5.0433    0.7890    3.2983 H   0  0  0  0  0  0  0  0  0  0  0  0
   -7.8001    0.9020    1.5066 H   0  0  0  0  0  0  0  0  0  0  0  0
   -7.2855    2.5055    0.9261 H   0  0  0  0  0  0  0  0  0  0  0  0
   -7.0877    2.0869    2.6430 H   0  0  0  0  0  0  0  0  0  0  0  0
   -2.9543    2.0409    1.2926 H   0  0  0  0  0  0  0  0  0  0  0  0
   -0.6591    1.3051    0.7948 H   0  0  0  0  0  0  0  0  0  0  0  0
    0.8039    0.0299   -0.4471 H   0  0  0  0  0  0  0  0  0  0  0  0
    2.6625   -2.8985   -3.3865 H   0  0  0  0  0  0  0  0  0  0  0  0
    5.1633   -2.3095   -2.4759 H   0  0  0  0  0  0  0  0  0  0  0  0
    6.7813   -1.2112   -1.0029 H   0  0  0  0  0  0  0  0  0  0  0  0
    8.3337    0.0016    0.4595 H   0  0  0  0  0  0  0  0  0  0  0  0
    5.0472    2.1841    2.1729 H   0  0  0  0  0  0  0  0  0  0  0  0
    3.4772    0.9814    0.7157 H   0  0  0  0  0  0  0  0  0  0  0  0
   -2.1876   -1.2687   -2.3316 H   0  0  0  0  0  0  0  0  0  0  0  0
   -4.4595   -0.5224   -1.8224 H   0  0  0  0  0  0  0  0  0  0  0  0
  1  2  1  0
  2  3  1  0
  2  4  1  0
  4  5  2  0
  4  6  1  0
  6  7  2  0
  7  8  1  0
  8  9  2  0
  9 10  1  0
 10 11  1  0
 11 12  2  0
 11 13  1  0
 13 14  2  0
 14 15  1  0
 15 16  2  0
 16 17  1  0
 17 18  2  0
 18 19  1  0
 19 20  2  0
 20 21  1  0
 20 22  1  0
 22 23  2  0
 16 24  1  0
  9 25  1  0
 25 26  2  0
 26  6  1  0
 24 13  1  0
 23 17  1  0
  1 27  1  0
  1 28  1  0
  1 29  1  0
  3 30  1  0
  3 31  1  0
  3 32  1  0
  7 33  1  0
  8 34  1  0
 10 35  1  0
 14 36  1  0
 15 37  1  0
 18 38  1  0
 19 39  1  0
 22 40  1  0
 23 41  1  0
 25 42  1  0
 26 43  1  0
M  END
$$$$
