
     RDKit          3D

 46 49  0  0  0  0  0  0  0  0999 V2000
    3.3657    2.6799   -2.7893 O   0  0  0  0  0  0  0  0  0  0  0  0
    2.7060    2.1203   -1.9190 C   0  0  0  0  0  0  0  0  0  0  0  0
    1.2639    2.5127   -1.6434 C   0  0  0  0  0  0  0  0  0  0  0  0
    0.1601    1.1258   -2.0564 S   0  0  0  0  0  0  0  0  0  0  0  0
   -1.2383    1.5590   -1.1394 C   0  0  0  0  0  0  0  0  0  0  0  0
   -1.4047    2.6856   -0.4933 N   0  0  0  0  0  0  0  0  0  0  0  0
   -2.6134    2.6234    0.1523 N   0  0  0  0  0  0  0  0  0  0  0  0
   -3.1646    1.4536   -0.1080 C   0  0  0  0  0  0  0  0  0  0  0  0
   -4.4687    0.9723    0.4413 C   0  0  0  0  0  0  0  0  0  0  0  0
   -4.3639    0.3390    1.8039 C   0  0  0  0  0  0  0  0  0  0  0  0
   -3.2496   -0.0033    2.5513 C   0  0  0  0  0  0  0  0  0  0  0  0
   -3.5940   -0.5698    3.8149 C   0  0  0  0  0  0  0  0  0  0  0  0
   -4.9571   -0.6343    4.0002 C   0  0  0  0  0  0  0  0  0  0  0  0
   -5.8165   -0.0376    2.6510 S   0  0  0  0  0  0  0  0  0  0  0  0
   -2.3261    0.7480   -0.9491 N   0  0  0  0  0  0  0  0  0  0  0  0
   -2.5654   -0.5618   -1.5257 C   0  0  0  0  0  0  0  0  0  0  0  0
   -2.1934   -1.6463   -0.5835 C   0  0  0  0  0  0  0  0  0  0  0  0
   -2.9040   -2.6650    0.0193 C   0  0  0  0  0  0  0  0  0  0  0  0
   -1.9757   -3.3904    0.8060 C   0  0  0  0  0  0  0  0  0  0  0  0
   -0.7609   -2.7705    0.6346 C   0  0  0  0  0  0  0  0  0  0  0  0
   -0.8817   -1.7151   -0.2107 O   0  0  0  0  0  0  0  0  0  0  0  0
    3.1565    1.1219   -1.0696 N   0  0  0  0  0  0  0  0  0  0  0  0
    4.4510    0.5632   -0.9803 C   0  0  0  0  0  0  0  0  0  0  0  0
    5.5442    1.0482   -1.7041 C   0  0  0  0  0  0  0  0  0  0  0  0
    6.8083    0.4649   -1.5567 C   0  0  0  0  0  0  0  0  0  0  0  0
    6.9861   -0.6096   -0.6887 C   0  0  0  0  0  0  0  0  0  0  0  0
    8.5438   -1.3185   -0.5129 Cl  0  0  0  0  0  0  0  0  0  0  0  0
    5.9116   -1.1123    0.0401 C   0  0  0  0  0  0  0  0  0  0  0  0
    4.6532   -0.5223   -0.1040 C   0  0  0  0  0  0  0  0  0  0  0  0
    3.3446   -1.1607    0.8340 Cl  0  0  0  0  0  0  0  0  0  0  0  0
    1.1870    2.7876   -0.5858 H   0  0  0  0  0  0  0  0  0  0  0  0
    0.9988    3.3826   -2.2541 H   0  0  0  0  0  0  0  0  0  0  0  0
   -5.1403    1.8370    0.5060 H   0  0  0  0  0  0  0  0  0  0  0  0
   -4.9468    0.2667   -0.2483 H   0  0  0  0  0  0  0  0  0  0  0  0
   -2.2272    0.1657    2.2212 H   0  0  0  0  0  0  0  0  0  0  0  0
   -2.8758   -0.8894    4.5563 H   0  0  0  0  0  0  0  0  0  0  0  0
   -5.4974   -0.9923    4.8722 H   0  0  0  0  0  0  0  0  0  0  0  0
   -3.6257   -0.6204   -1.7958 H   0  0  0  0  0  0  0  0  0  0  0  0
   -2.0024   -0.6537   -2.4593 H   0  0  0  0  0  0  0  0  0  0  0  0
   -3.9611   -2.8663   -0.0934 H   0  0  0  0  0  0  0  0  0  0  0  0
   -2.1684   -4.2569    1.4240 H   0  0  0  0  0  0  0  0  0  0  0  0
    0.2338   -2.9501    1.0215 H   0  0  0  0  0  0  0  0  0  0  0  0
    2.4550    0.6814   -0.4799 H   0  0  0  0  0  0  0  0  0  0  0  0
    5.4533    1.8866   -2.3903 H   0  0  0  0  0  0  0  0  0  0  0  0
    7.6472    0.8645   -2.1223 H   0  0  0  0  0  0  0  0  0  0  0  0
    6.0529   -1.9432    0.7226 H   0  0  0  0  0  0  0  0  0  0  0  0
  1  2  2  0
  2  3  1  0
  3  4  1  0
  4  5  1  0
  5  6  2  0
  6  7  1  0
  7  8  2  0
  8  9  1  0
  9 10  1  0
 10 11  2  0
 11 12  1  0
 12 13  2  0
 13 14  1  0
  8 15  1  0
 15 16  1  0
 16 17  1  0
 17 18  2  0
 18 19  1  0
 19 20  2  0
 20 21  1  0
  2 22  1  0
 22 23  1  0
 23 24  2  0
 24 25  1  0
 25 26  2  0
 26 27  1  0
 26 28  1  0
 28 29  2  0
 29 30  1  0
 15  5  1  0
 21 17  1  0
 29 23  1  0
 14 10  1  0
  3 31  1  0
  3 32  1  0
  9 33  1  0
  9 34  1  0
 11 35  1  0
 12 36  1  0
 13 37  1  0
 16 38  1  0
 16 39  1  0
 18 40  1  0
 19 41  1  0
 20 42  1  0
 22 43  1  0
 24 44  1  0
 25 45  1  0
 28 46  1  0
M  END
$$$$
