
     RDKit          3D

 55 57  0  0  0  0  0  0  0  0999 V2000
   -1.9814    0.8047   -1.4707 C   0  0  0  0  0  0  0  0  0  0  0  0
   -2.1323    0.5164   -0.0828 O   0  0  0  0  0  0  0  0  0  0  0  0
   -3.4156    0.4815    0.4067 C   0  0  0  0  0  0  0  0  0  0  0  0
   -4.5725    0.4271   -0.3787 C   0  0  0  0  0  0  0  0  0  0  0  0
   -5.8376    0.3830    0.2285 C   0  0  0  0  0  0  0  0  0  0  0  0
   -7.1005    0.3258   -0.5685 C   0  0  0  0  0  0  0  0  0  0  0  0
   -7.0292    0.4554   -2.0685 C   0  0  0  0  0  0  0  0  0  0  0  0
   -8.1767    0.1722    0.0049 O   0  0  0  0  0  0  0  0  0  0  0  0
   -5.9384    0.3915    1.6269 C   0  0  0  0  0  0  0  0  0  0  0  0
   -4.7904    0.4399    2.4165 C   0  0  0  0  0  0  0  0  0  0  0  0
   -3.5369    0.4643    1.8054 C   0  0  0  0  0  0  0  0  0  0  0  0
   -2.3931    0.5485    2.5559 O   0  0  0  0  0  0  0  0  0  0  0  0
   -2.2216   -0.5641    3.4380 C   0  0  0  0  0  0  0  0  0  0  0  0
   -0.8084   -1.1383    3.3060 C   0  0  0  0  0  0  0  0  0  0  0  0
   -0.3281   -1.8377    4.1933 O   0  0  0  0  0  0  0  0  0  0  0  0
   -0.2110   -0.8193    2.0986 N   0  0  0  0  0  0  0  0  0  0  0  0
    1.0470   -1.2191    1.6176 C   0  0  0  0  0  0  0  0  0  0  0  0
    1.9223   -2.0522    2.3110 C   0  0  0  0  0  0  0  0  0  0  0  0
    3.1553   -2.4088    1.7504 C   0  0  0  0  0  0  0  0  0  0  0  0
    3.5320   -1.9404    0.4879 C   0  0  0  0  0  0  0  0  0  0  0  0
    5.0782   -2.4326   -0.0961 Cl  0  0  0  0  0  0  0  0  0  0  0  0
    2.6595   -1.1051   -0.2068 C   0  0  0  0  0  0  0  0  0  0  0  0
    3.0478   -0.4834   -1.8168 S   0  0  0  0  0  6  0  0  0  0  0  0
    3.3390   -1.6161   -2.6674 O   0  0  0  0  0  0  0  0  0  0  0  0
    2.0155    0.4639   -2.1930 O   0  0  0  0  0  0  0  0  0  0  0  0
    4.4707    0.4174   -1.5741 N   0  0  0  0  0  0  0  0  0  0  0  0
    4.3258    1.6393   -0.7224 C   0  0  0  0  0  0  0  0  0  0  0  0
    5.7073    2.2583   -0.4792 C   0  0  0  0  0  0  0  0  0  0  0  0
    6.3462    2.5991   -1.7183 O   0  0  0  0  0  0  0  0  0  0  0  0
    6.5205    1.4260   -2.5277 C   0  0  0  0  0  0  0  0  0  0  0  0
    5.1742    0.7679   -2.8490 C   0  0  0  0  0  0  0  0  0  0  0  0
    1.4233   -0.7474    0.3571 C   0  0  0  0  0  0  0  0  0  0  0  0
   -2.3237   -0.0374   -2.0808 H   0  0  0  0  0  0  0  0  0  0  0  0
   -2.4987    1.7303   -1.7450 H   0  0  0  0  0  0  0  0  0  0  0  0
   -0.9157    0.9498   -1.6703 H   0  0  0  0  0  0  0  0  0  0  0  0
   -4.4956    0.4067   -1.4591 H   0  0  0  0  0  0  0  0  0  0  0  0
   -8.0448    0.5029   -2.4737 H   0  0  0  0  0  0  0  0  0  0  0  0
   -6.5284   -0.4161   -2.4991 H   0  0  0  0  0  0  0  0  0  0  0  0
   -6.5162    1.3796   -2.3479 H   0  0  0  0  0  0  0  0  0  0  0  0
   -6.9157    0.3675    2.1075 H   0  0  0  0  0  0  0  0  0  0  0  0
   -4.8837    0.4708    3.4982 H   0  0  0  0  0  0  0  0  0  0  0  0
   -2.3517   -0.2047    4.4643 H   0  0  0  0  0  0  0  0  0  0  0  0
   -2.9220   -1.3871    3.2434 H   0  0  0  0  0  0  0  0  0  0  0  0
   -0.7676   -0.2063    1.5007 H   0  0  0  0  0  0  0  0  0  0  0  0
    1.6771   -2.4487    3.2924 H   0  0  0  0  0  0  0  0  0  0  0  0
    3.8180   -3.0625    2.3146 H   0  0  0  0  0  0  0  0  0  0  0  0
    3.8778    1.3822    0.2412 H   0  0  0  0  0  0  0  0  0  0  0  0
    3.6847    2.3649   -1.2364 H   0  0  0  0  0  0  0  0  0  0  0  0
    6.3554    1.5740    0.0827 H   0  0  0  0  0  0  0  0  0  0  0  0
    5.6049    3.1788    0.1050 H   0  0  0  0  0  0  0  0  0  0  0  0
    7.0149    1.7338   -3.4545 H   0  0  0  0  0  0  0  0  0  0  0  0
    7.1876    0.7289   -2.0066 H   0  0  0  0  0  0  0  0  0  0  0  0
    5.3553   -0.1331   -3.4415 H   0  0  0  0  0  0  0  0  0  0  0  0
    4.5497    1.4600   -3.4248 H   0  0  0  0  0  0  0  0  0  0  0  0
    0.7473   -0.0994   -0.1955 H   0  0  0  0  0  0  0  0  0  0  0  0
  1  2  1  0
  2  3  1  0
  3  4  2  0
  4  5  1  0
  5  6  1  0
  6  7  1  0
  6  8  2  0
  5  9  2  0
  9 10  1  0
 10 11  2  0
 11 12  1  0
 12 13  1  0
 13 14  1  0
 14 15  2  0
 14 16  1  0
 16 17  1  0
 17 18  2  0
 18 19  1  0
 19 20  2  0
 20 21  1  0
 20 22  1  0
 22 23  1  0
 23 24  2  0
 23 25  2  0
 23 26  1  0
 26 27  1  0
 27 28  1  0
 28 29  1  0
 29 30  1  0
 30 31  1  0
 22 32  2  0
 11  3  1  0
 32 17  1  0
 31 26  1  0
  1 33  1  0
  1 34  1  0
  1 35  1  0
  4 36  1  0
  7 37  1  0
  7 38  1  0
  7 39  1  0
  9 40  1  0
 10 41  1  0
 13 42  1  0
 13 43  1  0
 16 44  1  0
 18 45  1  0
 19 46  1  0
 27 47  1  0
 27 48  1  0
 28 49  1  0
 28 50  1  0
 30 51  1  0
 30 52  1  0
 31 53  1  0
 31 54  1  0
 32 55  1  0
M  END
$$$$
