
     RDKit          3D

 43 45  0  0  0  0  0  0  0  0999 V2000
   -1.0357    1.7732    2.4266 C   0  0  0  0  0  0  0  0  0  0  0  0
   -1.7846    2.2717    1.2263 C   0  0  0  0  0  0  0  0  0  0  0  0
   -1.6877    3.4049    0.7736 O   0  0  0  0  0  0  0  0  0  0  0  0
   -2.5990    1.2482    0.7535 O   0  0  0  0  0  0  0  0  0  0  0  0
   -3.2275    1.5535   -0.4608 C   0  0  0  0  0  0  0  0  0  0  0  0
   -4.5860    1.8714   -0.4168 C   0  0  0  0  0  0  0  0  0  0  0  0
   -5.2589    2.1588   -1.6026 C   0  0  0  0  0  0  0  0  0  0  0  0
   -4.5764    2.1182   -2.8195 C   0  0  0  0  0  0  0  0  0  0  0  0
   -3.2191    1.7814   -2.8576 C   0  0  0  0  0  0  0  0  0  0  0  0
   -2.5291    1.4770   -1.6784 C   0  0  0  0  0  0  0  0  0  0  0  0
   -1.1028    1.1351   -1.7624 C   0  0  0  0  0  0  0  0  0  0  0  0
   -0.6111   -0.0071   -1.2565 C   0  0  0  0  0  0  0  0  0  0  0  0
    0.8068   -0.3697   -1.1994 C   0  0  0  0  0  0  0  0  0  0  0  0
    1.7449    0.0535   -2.1284 C   0  0  0  0  0  0  0  0  0  0  0  0
    3.0681   -0.3459   -1.9665 C   0  0  0  0  0  0  0  0  0  0  0  0
    3.4257   -1.1576   -0.8841 C   0  0  0  0  0  0  0  0  0  0  0  0
    4.7558   -1.5787   -0.6879 C   0  0  0  0  0  0  0  0  0  0  0  0
    5.0931   -2.3971    0.3904 C   0  0  0  0  0  0  0  0  0  0  0  0
    4.1073   -2.7961    1.2836 C   0  0  0  0  0  0  0  0  0  0  0  0
    2.7956   -2.3556    1.0881 C   0  0  0  0  0  0  0  0  0  0  0  0
    1.8227   -2.8103    1.9921 O   0  0  0  0  0  0  0  0  0  0  0  0
    1.4065   -1.8148    2.8657 C   0  0  0  0  0  0  0  0  0  0  0  0
    0.2092   -2.3087    3.6218 C   0  0  0  0  0  0  0  0  0  0  0  0
    1.9312   -0.7238    3.0505 O   0  0  0  0  0  0  0  0  0  0  0  0
    2.4107   -1.5514    0.0100 C   0  0  0  0  0  0  0  0  0  0  0  0
    1.1222   -1.1771   -0.1616 N   0  0  0  0  0  0  0  0  0  0  0  0
   -1.7374    1.5409    3.2313 H   0  0  0  0  0  0  0  0  0  0  0  0
   -0.4516    0.8895    2.1575 H   0  0  0  0  0  0  0  0  0  0  0  0
   -0.3473    2.5496    2.7721 H   0  0  0  0  0  0  0  0  0  0  0  0
   -5.1119    1.9051    0.5323 H   0  0  0  0  0  0  0  0  0  0  0  0
   -6.3141    2.4187   -1.5795 H   0  0  0  0  0  0  0  0  0  0  0  0
   -5.1021    2.3486   -3.7430 H   0  0  0  0  0  0  0  0  0  0  0  0
   -2.7085    1.7512   -3.8174 H   0  0  0  0  0  0  0  0  0  0  0  0
   -0.4701    1.8903   -2.2192 H   0  0  0  0  0  0  0  0  0  0  0  0
   -1.2714   -0.7276   -0.7786 H   0  0  0  0  0  0  0  0  0  0  0  0
    1.4684    0.6799   -2.9688 H   0  0  0  0  0  0  0  0  0  0  0  0
    3.8140   -0.0182   -2.6862 H   0  0  0  0  0  0  0  0  0  0  0  0
    5.5372   -1.2709   -1.3799 H   0  0  0  0  0  0  0  0  0  0  0  0
    6.1217   -2.7196    0.5308 H   0  0  0  0  0  0  0  0  0  0  0  0
    4.3527   -3.4348    2.1265 H   0  0  0  0  0  0  0  0  0  0  0  0
    0.4975   -3.1391    4.2707 H   0  0  0  0  0  0  0  0  0  0  0  0
   -0.5702   -2.6191    2.9210 H   0  0  0  0  0  0  0  0  0  0  0  0
   -0.1889   -1.4976    4.2383 H   0  0  0  0  0  0  0  0  0  0  0  0
  1  2  1  0
  2  3  2  0
  2  4  1  0
  4  5  1  0
  5  6  2  0
  6  7  1  0
  7  8  2  0
  8  9  1  0
  9 10  2  0
 10 11  1  0
 11 12  2  0
 12 13  1  0
 13 14  2  0
 14 15  1  0
 15 16  2  0
 16 17  1  0
 17 18  2  0
 18 19  1  0
 19 20  2  0
 20 21  1  0
 21 22  1  0
 22 23  1  0
 22 24  2  0
 20 25  1  0
 25 26  2  0
 10  5  1  0
 26 13  1  0
 25 16  1  0
  1 27  1  0
  1 28  1  0
  1 29  1  0
  6 30  1  0
  7 31  1  0
  8 32  1  0
  9 33  1  0
 11 34  1  0
 12 35  1  0
 14 36  1  0
 15 37  1  0
 17 38  1  0
 18 39  1  0
 19 40  1  0
 23 41  1  0
 23 42  1  0
 23 43  1  0
M  END
$$$$
