
     RDKit          3D

 61 66  0  0  0  0  0  0  0  0999 V2000
    8.3846    0.8217    0.5159 C   0  0  0  0  0  0  0  0  0  0  0  0
    7.5308   -0.0774    1.1506 C   0  0  0  0  0  0  0  0  0  0  0  0
    6.4056   -0.5629    0.4827 C   0  0  0  0  0  0  0  0  0  0  0  0
    6.1239   -0.1556   -0.8280 C   0  0  0  0  0  0  0  0  0  0  0  0
    4.8982   -0.6697   -1.5463 C   0  0  0  0  0  0  0  0  0  0  0  0
    3.6104    0.1044   -1.2022 C   0  0  0  0  0  0  0  0  0  0  0  0
    3.0860   -0.1622    0.1505 N   0  0  0  0  0  0  0  0  0  0  0  0
    2.1170    0.8795    0.5661 C   0  0  0  0  0  0  0  0  0  0  0  0
    0.7395    0.8153   -0.1339 C   0  0  0  0  0  0  0  0  0  0  0  0
    0.1338   -0.5330    0.0156 N   0  0  0  0  0  0  0  0  0  0  0  0
   -1.1755   -0.6233   -0.3853 C   0  0  0  0  0  0  0  0  0  0  0  0
   -1.6866   -1.0378   -1.6015 C   0  0  0  0  0  0  0  0  0  0  0  0
   -3.0809   -0.8464   -1.5850 C   0  0  0  0  0  0  0  0  0  0  0  0
   -3.4089   -0.3116   -0.3528 C   0  0  0  0  0  0  0  0  0  0  0  0
   -4.6723    0.1135    0.2077 C   0  0  0  0  0  0  0  0  0  0  0  0
   -5.8879    0.1772   -0.6397 C   0  0  0  0  0  0  0  0  0  0  0  0
   -5.8861    0.8908   -1.8433 C   0  0  0  0  0  0  0  0  0  0  0  0
   -7.0487    0.9532   -2.6130 C   0  0  0  0  0  0  0  0  0  0  0  0
   -8.2082    0.3107   -2.1793 C   0  0  0  0  0  0  0  0  0  0  0  0
   -8.2134   -0.3870   -0.9716 C   0  0  0  0  0  0  0  0  0  0  0  0
   -7.0567   -0.4484   -0.1950 C   0  0  0  0  0  0  0  0  0  0  0  0
   -4.7712    0.4453    1.4606 N   0  0  0  0  0  0  0  0  0  0  0  0
   -3.6199    0.4073    2.2722 C   0  0  0  0  0  0  0  0  0  0  0  0
   -3.7692    0.7439    3.6203 C   0  0  0  0  0  0  0  0  0  0  0  0
   -2.6773    0.7168    4.4891 C   0  0  0  0  0  0  0  0  0  0  0  0
   -1.4214    0.3413    4.0148 C   0  0  0  0  0  0  0  0  0  0  0  0
   -1.2530   -0.0009    2.6723 C   0  0  0  0  0  0  0  0  0  0  0  0
   -2.3439    0.0515    1.7983 C   0  0  0  0  0  0  0  0  0  0  0  0
   -2.2601   -0.2781    0.4220 N   0  0  0  0  0  0  0  0  0  0  0  0
    1.0484   -1.6061   -0.4323 C   0  0  0  0  0  0  0  0  0  0  0  0
    2.4240   -1.4845    0.2680 C   0  0  0  0  0  0  0  0  0  0  0  0
    6.9885    0.7502   -1.4562 C   0  0  0  0  0  0  0  0  0  0  0  0
    8.1137    1.2354   -0.7872 C   0  0  0  0  0  0  0  0  0  0  0  0
    9.2570    1.2035    1.0398 H   0  0  0  0  0  0  0  0  0  0  0  0
    7.7365   -0.3956    2.1690 H   0  0  0  0  0  0  0  0  0  0  0  0
    5.7394   -1.2527    0.9947 H   0  0  0  0  0  0  0  0  0  0  0  0
    5.0669   -0.5881   -2.6283 H   0  0  0  0  0  0  0  0  0  0  0  0
    4.7885   -1.7435   -1.3589 H   0  0  0  0  0  0  0  0  0  0  0  0
    2.8545   -0.1176   -1.9634 H   0  0  0  0  0  0  0  0  0  0  0  0
    3.8354    1.1750   -1.3012 H   0  0  0  0  0  0  0  0  0  0  0  0
    1.9639    0.7745    1.6487 H   0  0  0  0  0  0  0  0  0  0  0  0
    2.5530    1.8770    0.4298 H   0  0  0  0  0  0  0  0  0  0  0  0
    0.0897    1.5763    0.3138 H   0  0  0  0  0  0  0  0  0  0  0  0
    0.8446    1.0595   -1.1985 H   0  0  0  0  0  0  0  0  0  0  0  0
   -1.1052   -1.3980   -2.4370 H   0  0  0  0  0  0  0  0  0  0  0  0
   -3.7661   -1.0583   -2.3963 H   0  0  0  0  0  0  0  0  0  0  0  0
   -4.9944    1.4145   -2.1772 H   0  0  0  0  0  0  0  0  0  0  0  0
   -7.0528    1.5113   -3.5448 H   0  0  0  0  0  0  0  0  0  0  0  0
   -9.1146    0.3611   -2.7774 H   0  0  0  0  0  0  0  0  0  0  0  0
   -9.1186   -0.8796   -0.6332 H   0  0  0  0  0  0  0  0  0  0  0  0
   -7.0665   -0.9848    0.7499 H   0  0  0  0  0  0  0  0  0  0  0  0
   -4.7515    1.0268    3.9930 H   0  0  0  0  0  0  0  0  0  0  0  0
   -2.8122    0.9795    5.5343 H   0  0  0  0  0  0  0  0  0  0  0  0
   -0.5697    0.3052    4.6914 H   0  0  0  0  0  0  0  0  0  0  0  0
   -0.2689   -0.3220    2.3475 H   0  0  0  0  0  0  0  0  0  0  0  0
    1.1767   -1.5710   -1.5202 H   0  0  0  0  0  0  0  0  0  0  0  0
    0.6195   -2.5829   -0.1800 H   0  0  0  0  0  0  0  0  0  0  0  0
    2.2816   -1.6839    1.3394 H   0  0  0  0  0  0  0  0  0  0  0  0
    3.0826   -2.2840   -0.0871 H   0  0  0  0  0  0  0  0  0  0  0  0
    6.7898    1.0853   -2.4715 H   0  0  0  0  0  0  0  0  0  0  0  0
    8.7775    1.9387   -1.2817 H   0  0  0  0  0  0  0  0  0  0  0  0
  1  2  2  0
  2  3  1  0
  3  4  2  0
  4  5  1  0
  5  6  1  0
  6  7  1  0
  7  8  1  0
  8  9  1  0
  9 10  1  0
 10 11  1  0
 11 12  2  0
 12 13  1  0
 13 14  2  0
 14 15  1  0
 15 16  1  0
 16 17  2  0
 17 18  1  0
 18 19  2  0
 19 20  1  0
 20 21  2  0
 15 22  2  0
 22 23  1  0
 23 24  2  0
 24 25  1  0
 25 26  2  0
 26 27  1  0
 27 28  2  0
 28 29  1  0
 10 30  1  0
 30 31  1  0
  4 32  1  0
 32 33  2  0
 33  1  1  0
 31  7  1  0
 29 11  1  0
 29 14  1  0
 21 16  1  0
 28 23  1  0
  1 34  1  0
  2 35  1  0
  3 36  1  0
  5 37  1  0
  5 38  1  0
  6 39  1  0
  6 40  1  0
  8 41  1  0
  8 42  1  0
  9 43  1  0
  9 44  1  0
 12 45  1  0
 13 46  1  0
 17 47  1  0
 18 48  1  0
 19 49  1  0
 20 50  1  0
 21 51  1  0
 24 52  1  0
 25 53  1  0
 26 54  1  0
 27 55  1  0
 30 56  1  0
 30 57  1  0
 31 58  1  0
 31 59  1  0
 32 60  1  0
 33 61  1  0
M  END
$$$$
