
     RDKit          3D

 38 40  0  0  0  0  0  0  0  0999 V2000
   -5.8852   -0.5535   -3.0219 C   0  0  0  0  0  0  0  0  0  0  0  0
   -6.1438   -0.0206   -1.6239 C   0  0  0  0  0  0  0  0  0  0  0  0
   -4.9298    0.2288   -0.9198 O   0  0  0  0  0  0  0  0  0  0  0  0
   -4.2948   -0.9619   -0.4477 C   0  0  0  0  0  0  0  0  0  0  0  0
   -3.1918   -0.5637    0.4765 C   0  0  0  0  0  0  0  0  0  0  0  0
   -3.0947   -0.9413    1.7366 N   0  0  0  0  0  0  0  0  0  0  0  0
   -1.9583   -0.4400    2.3453 N   0  0  0  0  0  0  0  0  0  0  0  0
   -1.2485    0.2884    1.5208 C   0  0  0  0  0  0  0  0  0  0  0  0
   -0.0782    0.9617    1.7165 N   0  0  0  0  0  0  0  0  0  0  0  0
    0.6100    0.9208    2.9073 C   0  0  0  0  0  0  0  0  0  0  0  0
    0.2830    0.3249    3.9283 O   0  0  0  0  0  0  0  0  0  0  0  0
    1.8913    1.7596    2.8702 C   0  0  0  0  0  0  0  0  0  0  0  0
    2.4055    1.9942    1.5635 O   0  0  0  0  0  0  0  0  0  0  0  0
    3.1520    1.0061    0.9779 C   0  0  0  0  0  0  0  0  0  0  0  0
    3.3452   -0.2931    1.4846 C   0  0  0  0  0  0  0  0  0  0  0  0
    4.1164   -1.2263    0.7790 C   0  0  0  0  0  0  0  0  0  0  0  0
    4.6720   -0.8322   -0.4177 C   0  0  0  0  0  0  0  0  0  0  0  0
    4.4824    0.4330   -0.9164 C   0  0  0  0  0  0  0  0  0  0  0  0
    3.7283    1.3713   -0.2447 C   0  0  0  0  0  0  0  0  0  0  0  0
    5.1097    0.6205   -2.1082 O   0  0  0  0  0  0  0  0  0  0  0  0
    5.7248   -0.6714   -2.2971 C   0  0  0  0  0  0  0  0  0  0  0  0
    5.4425   -1.6015   -1.2307 O   0  0  0  0  0  0  0  0  0  0  0  0
   -1.8778    0.4141   -0.0601 S   0  0  0  0  0  0  0  0  0  0  0  0
   -6.8187   -0.6160   -3.5888 H   0  0  0  0  0  0  0  0  0  0  0  0
   -5.4392   -1.5520   -2.9903 H   0  0  0  0  0  0  0  0  0  0  0  0
   -5.1864    0.0954   -3.5595 H   0  0  0  0  0  0  0  0  0  0  0  0
   -6.6666    0.9383   -1.7025 H   0  0  0  0  0  0  0  0  0  0  0  0
   -6.7893   -0.6968   -1.0523 H   0  0  0  0  0  0  0  0  0  0  0  0
   -5.0177   -1.5836    0.0926 H   0  0  0  0  0  0  0  0  0  0  0  0
   -3.8897   -1.5338   -1.2888 H   0  0  0  0  0  0  0  0  0  0  0  0
    0.3210    1.4538    0.9282 H   0  0  0  0  0  0  0  0  0  0  0  0
    2.6515    1.3252    3.5298 H   0  0  0  0  0  0  0  0  0  0  0  0
    1.6329    2.7388    3.2896 H   0  0  0  0  0  0  0  0  0  0  0  0
    2.9067   -0.6194    2.4236 H   0  0  0  0  0  0  0  0  0  0  0  0
    4.2705   -2.2297    1.1615 H   0  0  0  0  0  0  0  0  0  0  0  0
    3.5925    2.3658   -0.6551 H   0  0  0  0  0  0  0  0  0  0  0  0
    6.8104   -0.5363   -2.3670 H   0  0  0  0  0  0  0  0  0  0  0  0
    5.3618   -1.0978   -3.2393 H   0  0  0  0  0  0  0  0  0  0  0  0
  1  2  1  0
  2  3  1  0
  3  4  1  0
  4  5  1  0
  5  6  2  0
  6  7  1  0
  7  8  2  0
  8  9  1  0
  9 10  1  0
 10 11  2  0
 10 12  1  0
 12 13  1  0
 13 14  1  0
 14 15  2  0
 15 16  1  0
 16 17  2  0
 17 18  1  0
 18 19  2  0
 18 20  1  0
 20 21  1  0
 21 22  1  0
  8 23  1  0
 23  5  1  0
 19 14  1  0
 22 17  1  0
  1 24  1  0
  1 25  1  0
  1 26  1  0
  2 27  1  0
  2 28  1  0
  4 29  1  0
  4 30  1  0
  9 31  1  0
 12 32  1  0
 12 33  1  0
 15 34  1  0
 16 35  1  0
 19 36  1  0
 21 37  1  0
 21 38  1  0
M  END
$$$$
