
     RDKit          3D

 57 59  0  0  0  0  0  0  0  0999 V2000
   -9.8358   -0.2606   -1.3694 C   0  0  0  0  0  0  0  0  0  0  0  0
   -8.8677    0.3963   -2.1834 O   0  0  0  0  0  0  0  0  0  0  0  0
   -7.5540    0.1364   -1.9113 C   0  0  0  0  0  0  0  0  0  0  0  0
   -6.6513    0.7678   -2.7722 C   0  0  0  0  0  0  0  0  0  0  0  0
   -5.2758    0.5987   -2.6113 C   0  0  0  0  0  0  0  0  0  0  0  0
   -4.8039   -0.2022   -1.5713 C   0  0  0  0  0  0  0  0  0  0  0  0
   -3.0574   -0.4321   -1.3468 S   0  0  0  0  0  6  0  0  0  0  0  0
   -2.8438   -1.8219   -1.0072 O   0  0  0  0  0  0  0  0  0  0  0  0
   -2.3715    0.1879   -2.4602 O   0  0  0  0  0  0  0  0  0  0  0  0
   -2.7445    0.4969    0.0320 N   0  0  0  0  0  0  0  0  0  0  0  0
   -3.0254    1.9382   -0.0550 C   0  0  0  0  0  0  0  0  0  0  0  0
   -2.2322    2.4697    1.1144 C   0  0  0  0  0  0  0  0  0  0  0  0
   -1.0415    1.6792    1.1408 O   0  0  0  0  0  0  0  0  0  0  0  0
   -1.3350    0.4162    0.4901 C   0  0  0  0  0  0  0  0  0  0  0  0
   -1.1284   -0.7230    1.5121 C   0  0  0  0  0  0  0  0  0  0  0  0
    0.1964   -0.7211    2.1122 N   0  0  0  0  0  0  0  0  0  0  0  0
    1.3180   -1.0023    1.3672 C   0  0  0  0  0  0  0  0  0  0  0  0
    1.3243   -1.4334    0.2226 O   0  0  0  0  0  0  0  0  0  0  0  0
    2.6464   -0.6702    2.0842 C   0  0  0  0  0  0  0  0  0  0  0  0
    2.6399   -0.3107    3.2529 O   0  0  0  0  0  0  0  0  0  0  0  0
    3.7475   -0.7993    1.2752 N   0  0  0  0  0  0  0  0  0  0  0  0
    5.0962   -0.6482    1.7707 C   0  0  0  0  0  0  0  0  0  0  0  0
    6.0208   -0.0771    0.7224 C   0  0  0  0  0  0  0  0  0  0  0  0
    5.6103    1.0357   -0.0365 C   0  0  0  0  0  0  0  0  0  0  0  0
    6.4528    1.6055   -0.9897 C   0  0  0  0  0  0  0  0  0  0  0  0
    7.7214    1.0770   -1.1917 C   0  0  0  0  0  0  0  0  0  0  0  0
    8.1538   -0.0135   -0.4334 C   0  0  0  0  0  0  0  0  0  0  0  0
    7.3185   -0.5881    0.5328 C   0  0  0  0  0  0  0  0  0  0  0  0
    7.6720   -1.6434    1.3326 O   0  0  0  0  0  0  0  0  0  0  0  0
    9.0195   -2.1001    1.2616 C   0  0  0  0  0  0  0  0  0  0  0  0
   -5.6946   -0.8523   -0.7123 C   0  0  0  0  0  0  0  0  0  0  0  0
   -7.0709   -0.6776   -0.8830 C   0  0  0  0  0  0  0  0  0  0  0  0
   -9.7498    0.0558   -0.3252 H   0  0  0  0  0  0  0  0  0  0  0  0
   -9.7575   -1.3499   -1.4648 H   0  0  0  0  0  0  0  0  0  0  0  0
  -10.8289    0.0352   -1.7227 H   0  0  0  0  0  0  0  0  0  0  0  0
   -7.0262    1.3930   -3.5797 H   0  0  0  0  0  0  0  0  0  0  0  0
   -4.5903    1.0880   -3.2988 H   0  0  0  0  0  0  0  0  0  0  0  0
   -2.6393    2.3552   -0.9924 H   0  0  0  0  0  0  0  0  0  0  0  0
   -4.0893    2.1647    0.0448 H   0  0  0  0  0  0  0  0  0  0  0  0
   -1.9814    3.5296    1.0159 H   0  0  0  0  0  0  0  0  0  0  0  0
   -2.7616    2.3168    2.0619 H   0  0  0  0  0  0  0  0  0  0  0  0
   -0.6365    0.3333   -0.3495 H   0  0  0  0  0  0  0  0  0  0  0  0
   -1.8394   -0.6250    2.3400 H   0  0  0  0  0  0  0  0  0  0  0  0
   -1.2843   -1.6983    1.0419 H   0  0  0  0  0  0  0  0  0  0  0  0
    0.3546   -0.1987    2.9702 H   0  0  0  0  0  0  0  0  0  0  0  0
    3.5973   -1.2157    0.3599 H   0  0  0  0  0  0  0  0  0  0  0  0
    5.4065   -1.6485    2.0877 H   0  0  0  0  0  0  0  0  0  0  0  0
    5.1048   -0.0038    2.6538 H   0  0  0  0  0  0  0  0  0  0  0  0
    4.6252    1.4677    0.1193 H   0  0  0  0  0  0  0  0  0  0  0  0
    6.1189    2.4611   -1.5702 H   0  0  0  0  0  0  0  0  0  0  0  0
    8.3799    1.5195   -1.9339 H   0  0  0  0  0  0  0  0  0  0  0  0
    9.1526   -0.3924   -0.6240 H   0  0  0  0  0  0  0  0  0  0  0  0
    9.2216   -2.5616    0.2881 H   0  0  0  0  0  0  0  0  0  0  0  0
    9.1515   -2.8707    2.0265 H   0  0  0  0  0  0  0  0  0  0  0  0
    9.7303   -1.2931    1.4778 H   0  0  0  0  0  0  0  0  0  0  0  0
   -5.3249   -1.4960    0.0842 H   0  0  0  0  0  0  0  0  0  0  0  0
   -7.7382   -1.1946   -0.2019 H   0  0  0  0  0  0  0  0  0  0  0  0
  1  2  1  0
  2  3  1  0
  3  4  2  0
  4  5  1  0
  5  6  2  0
  6  7  1  0
  7  8  2  0
  7  9  2  0
  7 10  1  0
 10 11  1  0
 11 12  1  0
 12 13  1  0
 13 14  1  0
 14 15  1  0
 15 16  1  0
 16 17  1  0
 17 18  2  0
 17 19  1  0
 19 20  2  0
 19 21  1  0
 21 22  1  0
 22 23  1  0
 23 24  2  0
 24 25  1  0
 25 26  2  0
 26 27  1  0
 27 28  2  0
 28 29  1  0
 29 30  1  0
  6 31  1  0
 31 32  2  0
 32  3  1  0
 14 10  1  0
 28 23  1  0
  1 33  1  0
  1 34  1  0
  1 35  1  0
  4 36  1  0
  5 37  1  0
 11 38  1  0
 11 39  1  0
 12 40  1  0
 12 41  1  0
 14 42  1  0
 15 43  1  0
 15 44  1  0
 16 45  1  0
 21 46  1  0
 22 47  1  0
 22 48  1  0
 24 49  1  0
 25 50  1  0
 26 51  1  0
 27 52  1  0
 30 53  1  0
 30 54  1  0
 30 55  1  0
 31 56  1  0
 32 57  1  0
M  END
$$$$
