
     RDKit          3D

 39 41  0  0  0  0  0  0  0  0999 V2000
   -0.5364    2.0275   -0.4756 O   0  0  0  0  0  0  0  0  0  0  0  0
   -1.3419    1.1741   -0.1140 C   0  0  0  0  0  0  0  0  0  0  0  0
   -2.7965    1.2353   -0.5908 C   0  0  0  0  0  0  0  0  0  0  0  0
   -3.5715    0.1890   -0.0106 O   0  0  0  0  0  0  0  0  0  0  0  0
   -4.8947    0.1371   -0.3529 C   0  0  0  0  0  0  0  0  0  0  0  0
   -5.5522    1.0053   -1.2261 C   0  0  0  0  0  0  0  0  0  0  0  0
   -6.9157    0.8361   -1.4882 C   0  0  0  0  0  0  0  0  0  0  0  0
   -7.6259   -0.1983   -0.8806 C   0  0  0  0  0  0  0  0  0  0  0  0
   -6.9742   -1.0669   -0.0092 C   0  0  0  0  0  0  0  0  0  0  0  0
   -5.6134   -0.8982    0.2522 C   0  0  0  0  0  0  0  0  0  0  0  0
   -1.0976    0.1032    0.7133 N   0  0  0  0  0  0  0  0  0  0  0  0
    0.0887   -0.2477    1.2997 C   0  0  0  0  0  0  0  0  0  0  0  0
    0.1960   -1.2844    2.1005 N   0  0  0  0  0  0  0  0  0  0  0  0
    1.4834   -1.4487    2.5712 N   0  0  0  0  0  0  0  0  0  0  0  0
    2.3053   -0.5331    2.0955 C   0  0  0  0  0  0  0  0  0  0  0  0
    3.7573   -0.4333    2.4278 C   0  0  0  0  0  0  0  0  0  0  0  0
    4.4912   -1.2567    1.5207 O   0  0  0  0  0  0  0  0  0  0  0  0
    5.1787   -0.6907    0.4864 C   0  0  0  0  0  0  0  0  0  0  0  0
    5.1647    0.6499    0.1025 C   0  0  0  0  0  0  0  0  0  0  0  0
    5.9224    1.0761   -0.9947 C   0  0  0  0  0  0  0  0  0  0  0  0
    6.6959    0.1671   -1.7133 C   0  0  0  0  0  0  0  0  0  0  0  0
    6.7125   -1.1728   -1.3377 C   0  0  0  0  0  0  0  0  0  0  0  0
    5.9545   -1.5965   -0.2447 C   0  0  0  0  0  0  0  0  0  0  0  0
    1.5406    0.6080    1.0628 S   0  0  0  0  0  0  0  0  0  0  0  0
   -3.1925    2.2113   -0.2868 H   0  0  0  0  0  0  0  0  0  0  0  0
   -2.7804    1.1350   -1.6822 H   0  0  0  0  0  0  0  0  0  0  0  0
   -5.0401    1.8236   -1.7219 H   0  0  0  0  0  0  0  0  0  0  0  0
   -7.4247    1.5140   -2.1691 H   0  0  0  0  0  0  0  0  0  0  0  0
   -8.6856   -0.3270   -1.0865 H   0  0  0  0  0  0  0  0  0  0  0  0
   -7.5231   -1.8754    0.4674 H   0  0  0  0  0  0  0  0  0  0  0  0
   -5.1125   -1.5811    0.9341 H   0  0  0  0  0  0  0  0  0  0  0  0
   -1.8777   -0.5052    0.9367 H   0  0  0  0  0  0  0  0  0  0  0  0
    3.9100   -0.8612    3.4261 H   0  0  0  0  0  0  0  0  0  0  0  0
    4.1201    0.5968    2.4942 H   0  0  0  0  0  0  0  0  0  0  0  0
    4.5732    1.3986    0.6155 H   0  0  0  0  0  0  0  0  0  0  0  0
    5.9037    2.1223   -1.2907 H   0  0  0  0  0  0  0  0  0  0  0  0
    7.2813    0.5025   -2.5655 H   0  0  0  0  0  0  0  0  0  0  0  0
    7.3102   -1.8895   -1.8943 H   0  0  0  0  0  0  0  0  0  0  0  0
    5.9668   -2.6461    0.0401 H   0  0  0  0  0  0  0  0  0  0  0  0
  1  2  2  0
  2  3  1  0
  3  4  1  0
  4  5  1  0
  5  6  2  0
  6  7  1  0
  7  8  2  0
  8  9  1  0
  9 10  2  0
  2 11  1  0
 11 12  1  0
 12 13  2  0
 13 14  1  0
 14 15  2  0
 15 16  1  0
 16 17  1  0
 17 18  1  0
 18 19  2  0
 19 20  1  0
 20 21  2  0
 21 22  1  0
 22 23  2  0
 15 24  1  0
 10  5  1  0
 24 12  1  0
 23 18  1  0
  3 25  1  0
  3 26  1  0
  6 27  1  0
  7 28  1  0
  8 29  1  0
  9 30  1  0
 10 31  1  0
 11 32  1  0
 16 33  1  0
 16 34  1  0
 19 35  1  0
 20 36  1  0
 21 37  1  0
 22 38  1  0
 23 39  1  0
M  END
$$$$
