
     RDKit          3D

 43 45  0  0  0  0  0  0  0  0999 V2000
   -6.2796    0.3147   -1.1395 C   0  0  0  0  0  0  0  0  0  0  0  0
   -5.0815    0.8434   -0.8558 C   0  0  0  0  0  0  0  0  0  0  0  0
   -4.3427    0.6326    0.4345 C   0  0  0  0  0  0  0  0  0  0  0  0
   -2.9886    0.1212    0.2119 N   0  0  0  0  0  0  0  0  0  0  0  0
   -1.8390    0.8891    0.1275 C   0  0  0  0  0  0  0  0  0  0  0  0
   -1.8634    2.3771    0.2349 C   0  0  0  0  0  0  0  0  0  0  0  0
   -0.7787    0.0129   -0.0382 C   0  0  0  0  0  0  0  0  0  0  0  0
    0.5858    0.4257   -0.1553 C   0  0  0  0  0  0  0  0  0  0  0  0
    1.6162   -0.1695    0.4692 C   0  0  0  0  0  0  0  0  0  0  0  0
    3.0158    0.2520    0.3493 C   0  0  0  0  0  0  0  0  0  0  0  0
    3.3921    1.5932    0.2945 C   0  0  0  0  0  0  0  0  0  0  0  0
    4.7386    1.9297    0.2097 C   0  0  0  0  0  0  0  0  0  0  0  0
    5.6885    0.9687    0.1835 N   0  0  0  0  0  4  0  0  0  0  0  0
    7.1088    1.3498    0.1019 C   0  0  0  0  0  0  0  0  0  0  0  0
    5.3502   -0.3374    0.2596 C   0  0  0  0  0  0  0  0  0  0  0  0
    4.0161   -0.7190    0.3473 C   0  0  0  0  0  0  0  0  0  0  0  0
   -1.2987   -1.3166   -0.0941 C   0  0  0  0  0  0  0  0  0  0  0  0
   -0.7310   -2.5968   -0.2892 C   0  0  0  0  0  0  0  0  0  0  0  0
   -1.5478   -3.7320   -0.2943 C   0  0  0  0  0  0  0  0  0  0  0  0
   -2.9202   -3.6112   -0.1168 C   0  0  0  0  0  0  0  0  0  0  0  0
   -3.5109   -2.3585    0.0650 C   0  0  0  0  0  0  0  0  0  0  0  0
   -2.6825   -1.2221    0.0712 C   0  0  0  0  0  0  0  0  0  0  0  0
   -6.8107   -0.3194   -0.4361 H   0  0  0  0  0  0  0  0  0  0  0  0
   -6.7576    0.5055   -2.0964 H   0  0  0  0  0  0  0  0  0  0  0  0
   -4.5964    1.4701   -1.6011 H   0  0  0  0  0  0  0  0  0  0  0  0
   -4.8572   -0.0704    1.0992 H   0  0  0  0  0  0  0  0  0  0  0  0
   -4.2648    1.5789    0.9785 H   0  0  0  0  0  0  0  0  0  0  0  0
   -2.1584    2.6822    1.2440 H   0  0  0  0  0  0  0  0  0  0  0  0
   -0.8822    2.8163    0.0323 H   0  0  0  0  0  0  0  0  0  0  0  0
   -2.5676    2.8081   -0.4836 H   0  0  0  0  0  0  0  0  0  0  0  0
    0.7621    1.2887   -0.7922 H   0  0  0  0  0  0  0  0  0  0  0  0
    1.4279   -1.0293    1.1110 H   0  0  0  0  0  0  0  0  0  0  0  0
    2.6469    2.3855    0.3306 H   0  0  0  0  0  0  0  0  0  0  0  0
    5.0654    2.9650    0.1690 H   0  0  0  0  0  0  0  0  0  0  0  0
    7.1971    2.2862   -0.4549 H   0  0  0  0  0  0  0  0  0  0  0  0
    7.6607    0.5648   -0.4217 H   0  0  0  0  0  0  0  0  0  0  0  0
    7.4750    1.4682    1.1246 H   0  0  0  0  0  0  0  0  0  0  0  0
    6.1530   -1.0694    0.2525 H   0  0  0  0  0  0  0  0  0  0  0  0
    3.7643   -1.7767    0.4060 H   0  0  0  0  0  0  0  0  0  0  0  0
    0.3361   -2.7082   -0.4485 H   0  0  0  0  0  0  0  0  0  0  0  0
   -1.1078   -4.7143   -0.4464 H   0  0  0  0  0  0  0  0  0  0  0  0
   -3.5465   -4.5006   -0.1290 H   0  0  0  0  0  0  0  0  0  0  0  0
   -4.5868   -2.2784    0.1852 H   0  0  0  0  0  0  0  0  0  0  0  0
  1  2  2  0
  2  3  1  0
  3  4  1  0
  4  5  1  0
  5  6  1  0
  5  7  2  0
  7  8  1  0
  8  9  2  3
  9 10  1  0
 10 11  2  0
 11 12  1  0
 12 13  2  0
 13 14  1  0
 13 15  1  0
 15 16  2  0
  7 17  1  0
 17 18  2  0
 18 19  1  0
 19 20  2  0
 20 21  1  0
 21 22  2  0
 22  4  1  0
 16 10  1  0
 22 17  1  0
  1 23  1  0
  1 24  1  0
  2 25  1  0
  3 26  1  0
  3 27  1  0
  6 28  1  0
  6 29  1  0
  6 30  1  0
  8 31  1  0
  9 32  1  0
 11 33  1  0
 12 34  1  0
 14 35  1  0
 14 36  1  0
 14 37  1  0
 15 38  1  0
 16 39  1  0
 18 40  1  0
 19 41  1  0
 20 42  1  0
 21 43  1  0
M  CHG  1  13   1
M  END
$$$$
