
     RDKit          3D

 36 37  0  0  0  0  0  0  0  0999 V2000
   -2.7224    1.9252    0.9120 C   0  0  0  0  0  0  0  0  0  0  0  0
   -1.7172    0.7800    0.8609 C   0  0  0  0  0  0  0  0  0  0  0  0
   -2.0232   -0.2498   -0.1561 N   0  0  0  0  0  0  0  0  0  0  0  0
   -3.3123   -0.9342    0.1198 C   0  0  0  0  0  0  0  0  0  0  0  0
   -4.4170   -0.3850   -0.7958 C   0  0  0  0  0  0  0  0  0  0  0  0
   -3.9503   -0.3631   -2.1442 O   0  0  0  0  0  0  0  0  0  0  0  0
   -0.9337   -1.2495   -0.2237 C   0  0  0  0  0  0  0  0  0  0  0  0
    0.2980   -0.6505   -0.8519 C   0  0  0  0  0  0  0  0  0  0  0  0
    0.3613   -0.2439   -2.1722 C   0  0  0  0  0  0  0  0  0  0  0  0
    1.8813    0.3815   -2.6053 S   0  0  0  0  0  0  0  0  0  0  0  0
    2.5188    0.1207   -1.0296 C   0  0  0  0  0  0  0  0  0  0  0  0
    3.8273    0.4163   -0.5933 C   0  0  0  0  0  0  0  0  0  0  0  0
    4.1911    0.1504    0.7332 C   0  0  0  0  0  0  0  0  0  0  0  0
    5.5898    0.4304    1.1998 C   0  0  0  0  0  0  0  0  0  0  0  0
    3.2627   -0.4264    1.5946 C   0  0  0  0  0  0  0  0  0  0  0  0
    1.9655   -0.7182    1.1568 C   0  0  0  0  0  0  0  0  0  0  0  0
    1.5666   -0.4451   -0.1770 C   0  0  0  0  0  0  0  0  0  0  0  0
   -2.8737    2.3641   -0.0796 H   0  0  0  0  0  0  0  0  0  0  0  0
   -3.6890    1.6007    1.3080 H   0  0  0  0  0  0  0  0  0  0  0  0
   -2.3509    2.7159    1.5728 H   0  0  0  0  0  0  0  0  0  0  0  0
   -1.6326    0.3284    1.8577 H   0  0  0  0  0  0  0  0  0  0  0  0
   -0.7483    1.2414    0.6396 H   0  0  0  0  0  0  0  0  0  0  0  0
   -3.2296   -2.0043   -0.1112 H   0  0  0  0  0  0  0  0  0  0  0  0
   -3.6070   -0.8747    1.1742 H   0  0  0  0  0  0  0  0  0  0  0  0
   -4.7127    0.6311   -0.5238 H   0  0  0  0  0  0  0  0  0  0  0  0
   -5.3056   -1.0217   -0.7493 H   0  0  0  0  0  0  0  0  0  0  0  0
   -3.0347   -0.0228   -2.0707 H   0  0  0  0  0  0  0  0  0  0  0  0
   -1.2297   -2.0853   -0.8729 H   0  0  0  0  0  0  0  0  0  0  0  0
   -0.7274   -1.6774    0.7639 H   0  0  0  0  0  0  0  0  0  0  0  0
   -0.4319   -0.2837   -2.9066 H   0  0  0  0  0  0  0  0  0  0  0  0
    4.5435    0.8496   -1.2871 H   0  0  0  0  0  0  0  0  0  0  0  0
    6.0123    1.2923    0.6726 H   0  0  0  0  0  0  0  0  0  0  0  0
    5.6056    0.6653    2.2693 H   0  0  0  0  0  0  0  0  0  0  0  0
    6.2258   -0.4417    1.0195 H   0  0  0  0  0  0  0  0  0  0  0  0
    3.5362   -0.6559    2.6225 H   0  0  0  0  0  0  0  0  0  0  0  0
    1.2635   -1.1603    1.8586 H   0  0  0  0  0  0  0  0  0  0  0  0
  1  2  1  0
  2  3  1  0
  3  4  1  0
  4  5  1  0
  5  6  1  0
  3  7  1  0
  7  8  1  0
  8  9  2  0
  9 10  1  0
 10 11  1  0
 11 12  2  0
 12 13  1  0
 13 14  1  0
 13 15  2  0
 15 16  1  0
 16 17  2  0
 17  8  1  0
 17 11  1  0
  1 18  1  0
  1 19  1  0
  1 20  1  0
  2 21  1  0
  2 22  1  0
  4 23  1  0
  4 24  1  0
  5 25  1  0
  5 26  1  0
  6 27  1  0
  7 28  1  0
  7 29  1  0
  9 30  1  0
 12 31  1  0
 14 32  1  0
 14 33  1  0
 14 34  1  0
 15 35  1  0
 16 36  1  0
M  END
$$$$
