
     RDKit          3D

 64 69  0  0  0  0  0  0  0  0999 V2000
   -8.9415    3.2739    0.5309 C   0  0  0  0  0  0  0  0  0  0  0  0
   -8.5346    1.9421    0.8188 O   0  0  0  0  0  0  0  0  0  0  0  0
   -7.2064    1.6561    0.6670 C   0  0  0  0  0  0  0  0  0  0  0  0
   -6.8571    0.3335    0.9421 C   0  0  0  0  0  0  0  0  0  0  0  0
   -5.5313   -0.0994    0.8265 C   0  0  0  0  0  0  0  0  0  0  0  0
   -4.5269    0.7967    0.4425 C   0  0  0  0  0  0  0  0  0  0  0  0
   -3.1650    0.3626    0.3198 N   0  0  0  0  0  0  0  0  0  0  0  0
   -2.0091    1.1403    0.4951 C   0  0  0  0  0  0  0  0  0  0  0  0
   -2.0278    2.4210    0.9580 N   0  0  0  0  0  0  0  0  0  0  0  0
   -0.8887    0.3799    0.1792 C   0  0  0  0  0  0  0  0  0  0  0  0
    0.5010    0.8446    0.2379 C   0  0  0  0  0  0  0  0  0  0  0  0
    0.7622    1.9909    0.5793 O   0  0  0  0  0  0  0  0  0  0  0  0
    1.4182   -0.1100   -0.1550 N   0  0  0  0  0  0  0  0  0  0  0  0
    2.7855   -0.0367   -0.1489 C   0  0  0  0  0  0  0  0  0  0  0  0
    3.6223   -0.9099   -0.7421 C   0  0  0  0  0  0  0  0  0  0  0  0
    3.2468   -2.1072   -1.5589 C   0  0  0  0  0  0  0  0  0  0  0  0
    4.9773   -0.5999   -0.5550 N   0  0  0  0  0  0  0  0  0  0  0  0
    5.8428   -1.6462    0.0208 C   0  0  0  0  0  0  0  0  0  0  0  0
    4.9895    0.6148    0.1867 N   0  0  0  0  0  0  0  0  0  0  0  0
    6.1116    1.4856    0.1714 C   0  0  0  0  0  0  0  0  0  0  0  0
    7.1891    1.2642   -0.7019 C   0  0  0  0  0  0  0  0  0  0  0  0
    8.2957    2.1197   -0.7203 C   0  0  0  0  0  0  0  0  0  0  0  0
    8.3420    3.2167    0.1339 C   0  0  0  0  0  0  0  0  0  0  0  0
    7.2801    3.4599    0.9996 C   0  0  0  0  0  0  0  0  0  0  0  0
    6.1736    2.6031    1.0148 C   0  0  0  0  0  0  0  0  0  0  0  0
    3.6737    0.9635    0.5410 C   0  0  0  0  0  0  0  0  0  0  0  0
    3.3035    1.8739    1.2618 O   0  0  0  0  0  0  0  0  0  0  0  0
   -1.3674   -0.9080   -0.1513 C   0  0  0  0  0  0  0  0  0  0  0  0
   -0.6626   -2.0107   -0.5300 N   0  0  0  0  0  0  0  0  0  0  0  0
   -1.4166   -3.0948   -0.7766 C   0  0  0  0  0  0  0  0  0  0  0  0
   -0.7802   -4.2674   -1.1649 C   0  0  0  0  0  0  0  0  0  0  0  0
   -1.4982   -5.4321   -1.4405 C   0  0  0  0  0  0  0  0  0  0  0  0
   -2.8808   -5.4254   -1.3266 C   0  0  0  0  0  0  0  0  0  0  0  0
   -3.5322   -4.2546   -0.9368 C   0  0  0  0  0  0  0  0  0  0  0  0
   -2.8297   -3.0896   -0.6578 C   0  0  0  0  0  0  0  0  0  0  0  0
   -3.5224   -2.0033   -0.2877 N   0  0  0  0  0  0  0  0  0  0  0  0
   -2.7500   -0.9208   -0.0305 C   0  0  0  0  0  0  0  0  0  0  0  0
   -4.8832    2.1221    0.1557 C   0  0  0  0  0  0  0  0  0  0  0  0
   -6.2136    2.5487    0.2689 C   0  0  0  0  0  0  0  0  0  0  0  0
  -10.0213    3.3369    0.6973 H   0  0  0  0  0  0  0  0  0  0  0  0
   -8.7510    3.5271   -0.5175 H   0  0  0  0  0  0  0  0  0  0  0  0
   -8.4585    3.9891    1.2051 H   0  0  0  0  0  0  0  0  0  0  0  0
   -7.6250   -0.3716    1.2522 H   0  0  0  0  0  0  0  0  0  0  0  0
   -5.3137   -1.1346    1.0746 H   0  0  0  0  0  0  0  0  0  0  0  0
   -2.7279    2.6994    1.6438 H   0  0  0  0  0  0  0  0  0  0  0  0
   -1.1136    2.8399    1.1769 H   0  0  0  0  0  0  0  0  0  0  0  0
    1.0145   -0.9645   -0.5291 H   0  0  0  0  0  0  0  0  0  0  0  0
    3.4185   -3.0273   -0.9914 H   0  0  0  0  0  0  0  0  0  0  0  0
    2.1988   -2.0929   -1.8708 H   0  0  0  0  0  0  0  0  0  0  0  0
    3.8501   -2.1469   -2.4723 H   0  0  0  0  0  0  0  0  0  0  0  0
    5.4482   -1.9917    0.9836 H   0  0  0  0  0  0  0  0  0  0  0  0
    6.8654   -1.2938    0.1815 H   0  0  0  0  0  0  0  0  0  0  0  0
    5.9026   -2.5027   -0.6593 H   0  0  0  0  0  0  0  0  0  0  0  0
    7.1680    0.4398   -1.4092 H   0  0  0  0  0  0  0  0  0  0  0  0
    9.1139    1.9333   -1.4109 H   0  0  0  0  0  0  0  0  0  0  0  0
    9.1981    3.8860    0.1198 H   0  0  0  0  0  0  0  0  0  0  0  0
    7.3048    4.3182    1.6665 H   0  0  0  0  0  0  0  0  0  0  0  0
    5.3717    2.8250    1.7143 H   0  0  0  0  0  0  0  0  0  0  0  0
    0.3032   -4.2781   -1.2561 H   0  0  0  0  0  0  0  0  0  0  0  0
   -0.9767   -6.3370   -1.7429 H   0  0  0  0  0  0  0  0  0  0  0  0
   -3.4555   -6.3236   -1.5392 H   0  0  0  0  0  0  0  0  0  0  0  0
   -4.6166   -4.2498   -0.8489 H   0  0  0  0  0  0  0  0  0  0  0  0
   -4.1512    2.8395   -0.2093 H   0  0  0  0  0  0  0  0  0  0  0  0
   -6.4366    3.5824    0.0260 H   0  0  0  0  0  0  0  0  0  0  0  0
  1  2  1  0
  2  3  1  0
  3  4  2  0
  4  5  1  0
  5  6  2  0
  6  7  1  0
  7  8  1  0
  8  9  1  0
  8 10  2  0
 10 11  1  0
 11 12  2  0
 11 13  1  0
 13 14  1  0
 14 15  2  0
 15 16  1  0
 15 17  1  0
 17 18  1  0
 17 19  1  0
 19 20  1  0
 20 21  2  0
 21 22  1  0
 22 23  2  0
 23 24  1  0
 24 25  2  0
 19 26  1  0
 26 27  2  0
 10 28  1  0
 28 29  2  0
 29 30  1  0
 30 31  2  0
 31 32  1  0
 32 33  2  0
 33 34  1  0
 34 35  2  0
 35 36  1  0
 36 37  2  0
  6 38  1  0
 38 39  2  0
 39  3  1  0
 37  7  1  0
 26 14  1  0
 37 28  1  0
 25 20  1  0
 35 30  1  0
  1 40  1  0
  1 41  1  0
  1 42  1  0
  4 43  1  0
  5 44  1  0
  9 45  1  0
  9 46  1  0
 13 47  1  0
 16 48  1  0
 16 49  1  0
 16 50  1  0
 18 51  1  0
 18 52  1  0
 18 53  1  0
 21 54  1  0
 22 55  1  0
 23 56  1  0
 24 57  1  0
 25 58  1  0
 31 59  1  0
 32 60  1  0
 33 61  1  0
 34 62  1  0
 38 63  1  0
 39 64  1  0
M  END
$$$$
