
     RDKit          3D

 32 34  0  0  0  0  0  0  0  0999 V2000
    0.4485   -2.2100    0.9999 O   0  0  0  0  0  0  0  0  0  0  0  0
   -0.1693   -1.3130    0.4335 C   0  0  0  0  0  0  0  0  0  0  0  0
   -1.7002   -1.2800    0.4865 C   0  0  0  0  0  0  0  0  0  0  0  0
   -2.2177   -0.1621   -0.2315 O   0  0  0  0  0  0  0  0  0  0  0  0
   -3.5775   -0.0189   -0.2601 C   0  0  0  0  0  0  0  0  0  0  0  0
   -4.5057   -0.8674    0.3496 C   0  0  0  0  0  0  0  0  0  0  0  0
   -5.8741   -0.6007    0.2393 C   0  0  0  0  0  0  0  0  0  0  0  0
   -6.3063    0.5088   -0.4773 C   0  0  0  0  0  0  0  0  0  0  0  0
   -7.6178    0.7591   -0.5795 F   0  0  0  0  0  0  0  0  0  0  0  0
   -5.3959    1.3602   -1.0881 C   0  0  0  0  0  0  0  0  0  0  0  0
   -4.0301    1.0944   -0.9782 C   0  0  0  0  0  0  0  0  0  0  0  0
    0.3613   -0.2691   -0.2869 N   0  0  0  0  0  0  0  0  0  0  0  0
    1.6832   -0.0040   -0.5275 C   0  0  0  0  0  0  0  0  0  0  0  0
    2.0711    1.0339   -1.2373 N   0  0  0  0  0  0  0  0  0  0  0  0
    3.4471    1.1021   -1.3503 N   0  0  0  0  0  0  0  0  0  0  0  0
    4.0292    0.1122   -0.7113 C   0  0  0  0  0  0  0  0  0  0  0  0
    5.5784   -0.0622   -0.6799 C   0  0  0  0  0  0  0  0  0  0  0  0
    6.4525    1.1564   -0.5246 C   0  0  0  0  0  0  0  0  0  0  0  0
    6.3231    0.1810    0.6084 C   0  0  0  0  0  0  0  0  0  0  0  0
    2.9576   -0.9748    0.0545 S   0  0  0  0  0  0  0  0  0  0  0  0
   -1.9827   -1.2136    1.5435 H   0  0  0  0  0  0  0  0  0  0  0  0
   -2.0564   -2.2146    0.0380 H   0  0  0  0  0  0  0  0  0  0  0  0
   -4.2046   -1.7423    0.9166 H   0  0  0  0  0  0  0  0  0  0  0  0
   -6.6052   -1.2521    0.7082 H   0  0  0  0  0  0  0  0  0  0  0  0
   -5.7515    2.2219   -1.6436 H   0  0  0  0  0  0  0  0  0  0  0  0
   -3.3159    1.7607   -1.4562 H   0  0  0  0  0  0  0  0  0  0  0  0
   -0.2850    0.3960   -0.6975 H   0  0  0  0  0  0  0  0  0  0  0  0
    5.9452   -0.8485   -1.3309 H   0  0  0  0  0  0  0  0  0  0  0  0
    7.3857    1.1813   -1.0751 H   0  0  0  0  0  0  0  0  0  0  0  0
    5.9754    2.1252   -0.4215 H   0  0  0  0  0  0  0  0  0  0  0  0
    7.1709   -0.4570    0.8301 H   0  0  0  0  0  0  0  0  0  0  0  0
    5.7670    0.4973    1.4838 H   0  0  0  0  0  0  0  0  0  0  0  0
  1  2  2  0
  2  3  1  0
  3  4  1  0
  4  5  1  0
  5  6  2  0
  6  7  1  0
  7  8  2  0
  8  9  1  0
  8 10  1  0
 10 11  2  0
  2 12  1  0
 12 13  1  0
 13 14  2  0
 14 15  1  0
 15 16  2  0
 16 17  1  0
 17 18  1  0
 18 19  1  0
 16 20  1  0
 11  5  1  0
 20 13  1  0
 19 17  1  0
  3 21  1  0
  3 22  1  0
  6 23  1  0
  7 24  1  0
 10 25  1  0
 11 26  1  0
 12 27  1  0
 17 28  1  0
 18 29  1  0
 18 30  1  0
 19 31  1  0
 19 32  1  0
M  END
$$$$
