
     RDKit          3D

 32 32  0  0  0  0  0  0  0  0999 V2000
    0.9409    3.5491   -4.0979 C   0  0  0  0  0  0  0  0  0  0  0  0
    0.3729    2.9611   -3.2176 C   0  0  0  0  0  0  0  0  0  0  0  0
   -0.3171    2.2415   -2.1327 C   0  0  0  0  0  0  0  0  0  0  0  0
   -1.0419    1.0587   -2.6317 N   0  0  0  0  0  0  0  0  0  0  0  0
   -2.1988    1.4691   -3.4391 C   0  0  0  0  0  0  0  0  0  0  0  0
   -1.4936    0.1905   -1.5305 C   0  0  0  0  0  0  0  0  0  0  0  0
   -0.3513   -0.6209   -0.9102 C   0  0  0  0  0  0  0  0  0  0  0  0
   -0.8823   -1.5917    0.1439 C   0  0  0  0  0  0  0  0  0  0  0  0
    0.1835   -2.3549    0.7087 O   0  0  0  0  0  0  0  0  0  0  0  0
    0.8143   -1.9068    1.8387 C   0  0  0  0  0  0  0  0  0  0  0  0
    0.6506   -0.6323    2.3908 C   0  0  0  0  0  0  0  0  0  0  0  0
    1.3533   -0.2704    3.5437 C   0  0  0  0  0  0  0  0  0  0  0  0
    1.1394    1.3028    4.2095 Cl  0  0  0  0  0  0  0  0  0  0  0  0
    2.2263   -1.1639    4.1587 C   0  0  0  0  0  0  0  0  0  0  0  0
    2.4030   -2.4344    3.6138 C   0  0  0  0  0  0  0  0  0  0  0  0
    1.7035   -2.8025    2.4599 C   0  0  0  0  0  0  0  0  0  0  0  0
    1.9656   -4.3932    1.8329 Cl  0  0  0  0  0  0  0  0  0  0  0  0
    1.4459    4.0620   -4.8833 H   0  0  0  0  0  0  0  0  0  0  0  0
    0.4550    1.9449   -1.4150 H   0  0  0  0  0  0  0  0  0  0  0  0
   -0.9945    2.9204   -1.5994 H   0  0  0  0  0  0  0  0  0  0  0  0
   -2.7167    0.5904   -3.8406 H   0  0  0  0  0  0  0  0  0  0  0  0
   -1.8939    2.0597   -4.3094 H   0  0  0  0  0  0  0  0  0  0  0  0
   -2.9193    2.0552   -2.8569 H   0  0  0  0  0  0  0  0  0  0  0  0
   -2.2237   -0.5321   -1.9190 H   0  0  0  0  0  0  0  0  0  0  0  0
   -2.0110    0.7753   -0.7587 H   0  0  0  0  0  0  0  0  0  0  0  0
    0.1761   -1.1902   -1.6864 H   0  0  0  0  0  0  0  0  0  0  0  0
    0.4012    0.0319   -0.4576 H   0  0  0  0  0  0  0  0  0  0  0  0
   -1.4907   -1.0975    0.9101 H   0  0  0  0  0  0  0  0  0  0  0  0
   -1.5485   -2.3132   -0.3441 H   0  0  0  0  0  0  0  0  0  0  0  0
   -0.0055    0.1039    1.9407 H   0  0  0  0  0  0  0  0  0  0  0  0
    2.7714   -0.8784    5.0547 H   0  0  0  0  0  0  0  0  0  0  0  0
    3.0863   -3.1340    4.0888 H   0  0  0  0  0  0  0  0  0  0  0  0
  1  2  3  0
  2  3  1  0
  3  4  1  0
  4  5  1  0
  4  6  1  0
  6  7  1  0
  7  8  1  0
  8  9  1  0
  9 10  1  0
 10 11  2  0
 11 12  1  0
 12 13  1  0
 12 14  2  0
 14 15  1  0
 15 16  2  0
 16 17  1  0
 16 10  1  0
  1 18  1  0
  3 19  1  0
  3 20  1  0
  5 21  1  0
  5 22  1  0
  5 23  1  0
  6 24  1  0
  6 25  1  0
  7 26  1  0
  7 27  1  0
  8 28  1  0
  8 29  1  0
 11 30  1  0
 14 31  1  0
 15 32  1  0
M  END
$$$$
