
     RDKit          3D

 56 59  0  0  0  0  0  0  0  0999 V2000
    6.0285    3.9524   -1.9492 C   0  0  0  0  0  0  0  0  0  0  0  0
    4.8592    4.3016   -1.0450 C   0  0  0  0  0  0  0  0  0  0  0  0
    4.8272    3.4425    0.0933 O   0  0  0  0  0  0  0  0  0  0  0  0
    4.0865    2.2960    0.0294 C   0  0  0  0  0  0  0  0  0  0  0  0
    3.9394    1.6330    1.2503 C   0  0  0  0  0  0  0  0  0  0  0  0
    3.2084    0.4453    1.3367 C   0  0  0  0  0  0  0  0  0  0  0  0
    2.6247   -0.1028    0.1912 C   0  0  0  0  0  0  0  0  0  0  0  0
    1.8561   -1.3382    0.2727 C   0  0  0  0  0  0  0  0  0  0  0  0
    0.4816   -1.5327    0.3106 C   0  0  0  0  0  0  0  0  0  0  0  0
   -0.5880   -0.5380    0.2615 C   0  0  0  0  0  0  0  0  0  0  0  0
   -0.3770    0.6647    0.1418 O   0  0  0  0  0  0  0  0  0  0  0  0
   -1.8448   -1.1216    0.3547 N   0  0  0  0  0  0  0  0  0  0  0  0
   -2.9679   -0.3558    0.3098 N   0  0  0  0  0  0  0  0  0  0  0  0
   -4.1290   -0.9399    0.3356 C   0  0  0  0  0  0  0  0  0  0  0  0
   -4.3461   -2.4327    0.4249 C   0  0  0  0  0  0  0  0  0  0  0  0
   -5.3454   -0.0946    0.2904 C   0  0  0  0  0  0  0  0  0  0  0  0
   -6.2442   -0.1431    1.3624 C   0  0  0  0  0  0  0  0  0  0  0  0
   -7.3921    0.6514    1.3404 C   0  0  0  0  0  0  0  0  0  0  0  0
   -7.6445    1.4867    0.2506 C   0  0  0  0  0  0  0  0  0  0  0  0
   -6.7482    1.5355   -0.8188 C   0  0  0  0  0  0  0  0  0  0  0  0
   -5.5886    0.7581   -0.7916 C   0  0  0  0  0  0  0  0  0  0  0  0
   -4.7551    0.7693   -1.8783 O   0  0  0  0  0  0  0  0  0  0  0  0
   -3.9105    1.9230   -1.8427 C   0  0  0  0  0  0  0  0  0  0  0  0
    0.2155   -2.8745    0.4161 N   0  0  0  0  0  0  0  0  0  0  0  0
    1.3633   -3.5253    0.4403 N   0  0  0  0  0  0  0  0  0  0  0  0
    2.3906   -2.6283    0.3355 N   0  0  0  0  0  0  0  0  0  0  0  0
    3.7406   -3.0602    0.2803 C   0  0  0  0  0  0  0  0  0  0  0  0
    4.7391   -2.1972    0.0922 N   0  0  0  0  0  0  0  0  0  0  0  0
    5.8817   -2.9941    0.0753 O   0  0  0  0  0  0  0  0  0  0  0  0
    5.5623   -4.3373    0.2454 N   0  0  0  0  0  0  0  0  0  0  0  0
    4.2372   -4.3740    0.3793 C   0  0  0  0  0  0  0  0  0  0  0  0
    3.5270   -5.5016    0.5766 N   0  0  0  0  0  0  0  0  0  0  0  0
    2.7714    0.5592   -1.0321 C   0  0  0  0  0  0  0  0  0  0  0  0
    3.5021    1.7510   -1.1130 C   0  0  0  0  0  0  0  0  0  0  0  0
    5.9398    2.9365   -2.3453 H   0  0  0  0  0  0  0  0  0  0  0  0
    6.0883    4.6505   -2.7892 H   0  0  0  0  0  0  0  0  0  0  0  0
    6.9699    3.9933   -1.3907 H   0  0  0  0  0  0  0  0  0  0  0  0
    3.9056    4.3245   -1.5843 H   0  0  0  0  0  0  0  0  0  0  0  0
    5.0104    5.3174   -0.6617 H   0  0  0  0  0  0  0  0  0  0  0  0
    4.3933    2.0507    2.1456 H   0  0  0  0  0  0  0  0  0  0  0  0
    3.1033   -0.0391    2.3037 H   0  0  0  0  0  0  0  0  0  0  0  0
   -1.9073   -2.1313    0.4248 H   0  0  0  0  0  0  0  0  0  0  0  0
   -5.4070   -2.6895    0.3603 H   0  0  0  0  0  0  0  0  0  0  0  0
   -3.8275   -2.9305   -0.4001 H   0  0  0  0  0  0  0  0  0  0  0  0
   -3.9543   -2.8013    1.3776 H   0  0  0  0  0  0  0  0  0  0  0  0
   -6.0516   -0.7836    2.2191 H   0  0  0  0  0  0  0  0  0  0  0  0
   -8.0906    0.6208    2.1733 H   0  0  0  0  0  0  0  0  0  0  0  0
   -8.5435    2.0982    0.2313 H   0  0  0  0  0  0  0  0  0  0  0  0
   -6.9583    2.1713   -1.6744 H   0  0  0  0  0  0  0  0  0  0  0  0
   -3.0772    1.7497   -2.5301 H   0  0  0  0  0  0  0  0  0  0  0  0
   -3.4968    2.1096   -0.8449 H   0  0  0  0  0  0  0  0  0  0  0  0
   -4.4611    2.8035   -2.1898 H   0  0  0  0  0  0  0  0  0  0  0  0
    2.5150   -5.5125    0.4615 H   0  0  0  0  0  0  0  0  0  0  0  0
    3.9778   -6.3965    0.4147 H   0  0  0  0  0  0  0  0  0  0  0  0
    2.3150    0.1597   -1.9345 H   0  0  0  0  0  0  0  0  0  0  0  0
    3.5954    2.2210   -2.0854 H   0  0  0  0  0  0  0  0  0  0  0  0
  1  2  1  0
  2  3  1  0
  3  4  1  0
  4  5  2  0
  5  6  1  0
  6  7  2  0
  7  8  1  0
  8  9  2  0
  9 10  1  0
 10 11  2  0
 10 12  1  0
 12 13  1  0
 13 14  2  3
 14 15  1  0
 14 16  1  0
 16 17  2  0
 17 18  1  0
 18 19  2  0
 19 20  1  0
 20 21  2  0
 21 22  1  0
 22 23  1  0
  9 24  1  0
 24 25  2  0
 25 26  1  0
 26 27  1  0
 27 28  2  0
 28 29  1  0
 29 30  1  0
 30 31  2  0
 31 32  1  0
  7 33  1  0
 33 34  2  0
 34  4  1  0
 26  8  1  0
 31 27  1  0
 21 16  1  0
  1 35  1  0
  1 36  1  0
  1 37  1  0
  2 38  1  0
  2 39  1  0
  5 40  1  0
  6 41  1  0
 12 42  1  0
 15 43  1  0
 15 44  1  0
 15 45  1  0
 17 46  1  0
 18 47  1  0
 19 48  1  0
 20 49  1  0
 23 50  1  0
 23 51  1  0
 23 52  1  0
 32 53  1  0
 32 54  1  0
 33 55  1  0
 34 56  1  0
M  END
$$$$
