
     RDKit          3D

 41 42  0  0  0  0  0  0  0  0999 V2000
    6.7973    1.4982   -0.3763 C   0  0  0  0  0  0  0  0  0  0  0  0
    5.5437    0.9025   -0.0443 O   0  0  0  0  0  0  0  0  0  0  0  0
    5.2471   -0.2161   -0.7739 C   0  0  0  0  0  0  0  0  0  0  0  0
    5.9479   -0.6586   -1.6769 O   0  0  0  0  0  0  0  0  0  0  0  0
    4.0268   -0.8417   -0.2923 C   0  0  0  0  0  0  0  0  0  0  0  0
    3.6633   -2.1611   -0.5210 C   0  0  0  0  0  0  0  0  0  0  0  0
    2.4656   -2.4218    0.1751 C   0  0  0  0  0  0  0  0  0  0  0  0
    2.0752   -1.2582    0.8174 C   0  0  0  0  0  0  0  0  0  0  0  0
    0.6755   -0.9669    1.8756 S   0  0  0  0  0  6  0  0  0  0  0  0
    0.1362   -2.2747    2.1742 O   0  0  0  0  0  0  0  0  0  0  0  0
    1.1289   -0.0538    2.9000 O   0  0  0  0  0  0  0  0  0  0  0  0
   -0.4619   -0.1903    0.9010 N   0  0  0  0  0  0  0  0  0  0  0  0
   -1.6139    0.3496    1.6499 C   0  0  0  0  0  0  0  0  0  0  0  0
   -2.8760    0.2393    0.8225 C   0  0  0  0  0  0  0  0  0  0  0  0
   -3.6410   -0.9363    0.8747 C   0  0  0  0  0  0  0  0  0  0  0  0
   -4.7745   -1.0788    0.0675 C   0  0  0  0  0  0  0  0  0  0  0  0
   -5.1626   -0.0568   -0.8076 C   0  0  0  0  0  0  0  0  0  0  0  0
   -6.2779   -0.3373   -1.5452 O   0  0  0  0  0  0  0  0  0  0  0  0
   -6.6879    0.6427   -2.4963 C   0  0  0  0  0  0  0  0  0  0  0  0
   -4.4076    1.1177   -0.8610 C   0  0  0  0  0  0  0  0  0  0  0  0
   -3.2636    1.2605   -0.0584 C   0  0  0  0  0  0  0  0  0  0  0  0
    2.9970   -0.2784    0.4534 N   0  0  0  0  0  0  0  0  0  0  0  0
    2.8763    1.1390    0.7511 C   0  0  0  0  0  0  0  0  0  0  0  0
    7.6144    0.7767   -0.2597 H   0  0  0  0  0  0  0  0  0  0  0  0
    6.7715    1.8956   -1.3921 H   0  0  0  0  0  0  0  0  0  0  0  0
    6.9698    2.3259    0.3139 H   0  0  0  0  0  0  0  0  0  0  0  0
    4.2412   -2.8716   -1.1017 H   0  0  0  0  0  0  0  0  0  0  0  0
    1.9359   -3.3774    0.2408 H   0  0  0  0  0  0  0  0  0  0  0  0
   -0.7742   -0.8606    0.1952 H   0  0  0  0  0  0  0  0  0  0  0  0
   -1.4112    1.3951    1.9059 H   0  0  0  0  0  0  0  0  0  0  0  0
   -1.7704   -0.1880    2.5918 H   0  0  0  0  0  0  0  0  0  0  0  0
   -3.3528   -1.7529    1.5407 H   0  0  0  0  0  0  0  0  0  0  0  0
   -5.3550   -2.0028    0.1080 H   0  0  0  0  0  0  0  0  0  0  0  0
   -7.5553    0.2439   -3.0356 H   0  0  0  0  0  0  0  0  0  0  0  0
   -5.9010    0.8356   -3.2327 H   0  0  0  0  0  0  0  0  0  0  0  0
   -7.0012    1.5712   -1.9968 H   0  0  0  0  0  0  0  0  0  0  0  0
   -4.6726    1.9374   -1.5215 H   0  0  0  0  0  0  0  0  0  0  0  0
   -2.6750    2.1749   -0.1322 H   0  0  0  0  0  0  0  0  0  0  0  0
    3.4942    1.3628    1.6268 H   0  0  0  0  0  0  0  0  0  0  0  0
    1.8338    1.4010    0.9384 H   0  0  0  0  0  0  0  0  0  0  0  0
    3.1942    1.7146   -0.1264 H   0  0  0  0  0  0  0  0  0  0  0  0
  1  2  1  0
  2  3  1  0
  3  4  2  0
  3  5  1  0
  5  6  2  0
  6  7  1  0
  7  8  2  0
  8  9  1  0
  9 10  2  0
  9 11  2  0
  9 12  1  0
 12 13  1  0
 13 14  1  0
 14 15  2  0
 15 16  1  0
 16 17  2  0
 17 18  1  0
 18 19  1  0
 17 20  1  0
 20 21  2  0
  8 22  1  0
 22 23  1  0
 22  5  1  0
 21 14  1  0
  1 24  1  0
  1 25  1  0
  1 26  1  0
  6 27  1  0
  7 28  1  0
 12 29  1  0
 13 30  1  0
 13 31  1  0
 15 32  1  0
 16 33  1  0
 19 34  1  0
 19 35  1  0
 19 36  1  0
 20 37  1  0
 21 38  1  0
 23 39  1  0
 23 40  1  0
 23 41  1  0
M  END
$$$$
