
     RDKit          3D

 37 38  0  0  0  0  0  0  0  0999 V2000
    0.7910   -1.2402   -0.6652 O   0  0  0  0  0  0  0  0  0  0  0  0
    0.8716   -0.0591   -0.3518 C   0  0  0  0  0  0  0  0  0  0  0  0
   -0.3116    0.7171    0.2083 C   0  0  0  0  0  0  0  0  0  0  0  0
   -1.5715   -0.1387    0.3260 C   0  0  0  0  0  0  0  0  0  0  0  0
   -2.7382    0.6733    0.8901 C   0  0  0  0  0  0  0  0  0  0  0  0
   -3.9918   -0.1551    1.0123 C   0  0  0  0  0  0  0  0  0  0  0  0
   -4.2579   -0.8728    2.1860 C   0  0  0  0  0  0  0  0  0  0  0  0
   -5.4117   -1.6512    2.2928 C   0  0  0  0  0  0  0  0  0  0  0  0
   -6.3064   -1.7234    1.2269 C   0  0  0  0  0  0  0  0  0  0  0  0
   -6.0473   -1.0195    0.0524 C   0  0  0  0  0  0  0  0  0  0  0  0
   -4.8942   -0.2405   -0.0562 C   0  0  0  0  0  0  0  0  0  0  0  0
    2.0001    0.7423   -0.4471 N   0  0  0  0  0  0  0  0  0  0  0  0
    3.2778    0.3748   -0.9197 C   0  0  0  0  0  0  0  0  0  0  0  0
    3.6033   -0.9046   -1.3797 C   0  0  0  0  0  0  0  0  0  0  0  0
    4.8943   -1.1977   -1.8354 C   0  0  0  0  0  0  0  0  0  0  0  0
    5.8796   -0.2134   -1.8375 C   0  0  0  0  0  0  0  0  0  0  0  0
    5.5598    1.0681   -1.3786 C   0  0  0  0  0  0  0  0  0  0  0  0
    6.5872    2.1159   -1.3748 N   0  0  0  0  0  4  0  0  0  0  0  0
    7.7173    1.8196   -1.7872 O   0  0  0  0  0  0  0  0  0  0  0  0
    6.2625    3.2376   -0.9584 O   0  0  0  0  0  1  0  0  0  0  0  0
    4.2666    1.3660   -0.9208 C   0  0  0  0  0  0  0  0  0  0  0  0
   -0.5041    1.5708   -0.4525 H   0  0  0  0  0  0  0  0  0  0  0  0
   -0.0316    1.1021    1.1961 H   0  0  0  0  0  0  0  0  0  0  0  0
   -1.8370   -0.5423   -0.6597 H   0  0  0  0  0  0  0  0  0  0  0  0
   -1.3707   -1.0046    0.9701 H   0  0  0  0  0  0  0  0  0  0  0  0
   -2.9384    1.5422    0.2503 H   0  0  0  0  0  0  0  0  0  0  0  0
   -2.4744    1.0800    1.8748 H   0  0  0  0  0  0  0  0  0  0  0  0
   -3.5661   -0.8324    3.0240 H   0  0  0  0  0  0  0  0  0  0  0  0
   -5.6104   -2.2040    3.2071 H   0  0  0  0  0  0  0  0  0  0  0  0
   -7.2033   -2.3313    1.3099 H   0  0  0  0  0  0  0  0  0  0  0  0
   -6.7419   -1.0797   -0.7812 H   0  0  0  0  0  0  0  0  0  0  0  0
   -4.7028    0.2977   -0.9817 H   0  0  0  0  0  0  0  0  0  0  0  0
    1.8952    1.7027   -0.1425 H   0  0  0  0  0  0  0  0  0  0  0  0
    2.8712   -1.7073   -1.3984 H   0  0  0  0  0  0  0  0  0  0  0  0
    5.1238   -2.2010   -2.1889 H   0  0  0  0  0  0  0  0  0  0  0  0
    6.8773   -0.4590   -2.1951 H   0  0  0  0  0  0  0  0  0  0  0  0
    4.0326    2.3675   -0.5669 H   0  0  0  0  0  0  0  0  0  0  0  0
  1  2  2  0
  2  3  1  0
  3  4  1  0
  4  5  1  0
  5  6  1  0
  6  7  2  0
  7  8  1  0
  8  9  2  0
  9 10  1  0
 10 11  2  0
  2 12  1  0
 12 13  1  0
 13 14  2  0
 14 15  1  0
 15 16  2  0
 16 17  1  0
 17 18  1  0
 18 19  2  0
 18 20  1  0
 17 21  2  0
 11  6  1  0
 21 13  1  0
  3 22  1  0
  3 23  1  0
  4 24  1  0
  4 25  1  0
  5 26  1  0
  5 27  1  0
  7 28  1  0
  8 29  1  0
  9 30  1  0
 10 31  1  0
 11 32  1  0
 12 33  1  0
 14 34  1  0
 15 35  1  0
 16 36  1  0
 21 37  1  0
M  CHG  2  18   1  20  -1
M  END
$$$$
