
     RDKit          3D

 37 38  0  0  0  0  0  0  0  0999 V2000
    1.3736    0.3085   -2.8656 O   0  0  0  0  0  0  0  0  0  0  0  0
    0.7907    1.0882   -2.1189 C   0  0  0  0  0  0  0  0  0  0  0  0
   -0.5781    1.6758   -2.4635 C   0  0  0  0  0  0  0  0  0  0  0  0
   -1.6604    0.8982   -1.9389 O   0  0  0  0  0  0  0  0  0  0  0  0
   -1.9002    1.0717   -0.6149 C   0  0  0  0  0  0  0  0  0  0  0  0
   -1.2613    1.8076    0.1231 O   0  0  0  0  0  0  0  0  0  0  0  0
   -3.0525    0.2452   -0.1612 C   0  0  0  0  0  0  0  0  0  0  0  0
   -3.4610    0.4131    1.1738 C   0  0  0  0  0  0  0  0  0  0  0  0
   -4.5346   -0.3191    1.6897 C   0  0  0  0  0  0  0  0  0  0  0  0
   -5.2073   -1.2259    0.8748 C   0  0  0  0  0  0  0  0  0  0  0  0
   -6.5282   -2.1262    1.5091 Cl  0  0  0  0  0  0  0  0  0  0  0  0
   -4.8155   -1.4067   -0.4487 C   0  0  0  0  0  0  0  0  0  0  0  0
   -3.7423   -0.6755   -0.9650 C   0  0  0  0  0  0  0  0  0  0  0  0
   -3.4432   -0.9389   -2.2734 O   0  0  0  0  0  0  0  0  0  0  0  0
    1.2916    1.4937   -0.9016 N   0  0  0  0  0  0  0  0  0  0  0  0
    2.5317    0.9602   -0.3676 C   0  0  0  0  0  0  0  0  0  0  0  0
    2.3848   -0.4682    0.1707 C   0  0  0  0  0  0  0  0  0  0  0  0
    3.5513   -0.8926    0.9257 N   0  0  0  0  0  0  0  0  0  0  0  0
    3.7431   -0.5934    2.2521 C   0  0  0  0  0  0  0  0  0  0  0  0
    2.7826    0.1101    2.9156 O   0  0  0  0  0  0  0  0  0  0  0  0
    4.8984   -1.0353    2.7617 C   0  0  0  0  0  0  0  0  0  0  0  0
    5.8399   -1.8636    1.5586 S   0  0  0  0  0  0  0  0  0  0  0  0
    4.5972   -1.5735    0.3229 C   0  0  0  0  0  0  0  0  0  0  0  0
    4.7065   -1.9297   -0.8377 O   0  0  0  0  0  0  0  0  0  0  0  0
   -0.6452    2.7200   -2.1346 H   0  0  0  0  0  0  0  0  0  0  0  0
   -0.6758    1.6862   -3.5546 H   0  0  0  0  0  0  0  0  0  0  0  0
   -2.9457    1.1189    1.8242 H   0  0  0  0  0  0  0  0  0  0  0  0
   -4.8385   -0.1770    2.7241 H   0  0  0  0  0  0  0  0  0  0  0  0
   -5.3383   -2.1158   -1.0860 H   0  0  0  0  0  0  0  0  0  0  0  0
   -2.6779   -0.3968   -2.5463 H   0  0  0  0  0  0  0  0  0  0  0  0
    0.6301    1.9095   -0.2440 H   0  0  0  0  0  0  0  0  0  0  0  0
    3.2958    0.9887   -1.1531 H   0  0  0  0  0  0  0  0  0  0  0  0
    2.8469    1.6450    0.4268 H   0  0  0  0  0  0  0  0  0  0  0  0
    1.4962   -0.5548    0.8081 H   0  0  0  0  0  0  0  0  0  0  0  0
    2.2343   -1.1610   -0.6660 H   0  0  0  0  0  0  0  0  0  0  0  0
    3.0689    0.2200    3.8388 H   0  0  0  0  0  0  0  0  0  0  0  0
    5.2426   -0.9065    3.7768 H   0  0  0  0  0  0  0  0  0  0  0  0
  1  2  2  0
  2  3  1  0
  3  4  1  0
  4  5  1  0
  5  6  2  0
  5  7  1  0
  7  8  2  0
  8  9  1  0
  9 10  2  0
 10 11  1  0
 10 12  1  0
 12 13  2  0
 13 14  1  0
  2 15  1  0
 15 16  1  0
 16 17  1  0
 17 18  1  0
 18 19  1  0
 19 20  1  0
 19 21  2  0
 21 22  1  0
 22 23  1  0
 23 24  2  0
 13  7  1  0
 23 18  1  0
  3 25  1  0
  3 26  1  0
  8 27  1  0
  9 28  1  0
 12 29  1  0
 14 30  1  0
 15 31  1  0
 16 32  1  0
 16 33  1  0
 17 34  1  0
 17 35  1  0
 20 36  1  0
 21 37  1  0
M  END
$$$$
