
     RDKit          3D

 44 46  0  0  0  0  0  0  0  0999 V2000
   -0.8600    2.7625   -1.4691 C   0  0  0  0  0  0  0  0  0  0  0  0
   -2.0356    1.9545   -0.9929 C   0  0  0  0  0  0  0  0  0  0  0  0
   -3.3317    2.4665   -1.1351 C   0  0  0  0  0  0  0  0  0  0  0  0
   -4.4369    1.7348   -0.6999 C   0  0  0  0  0  0  0  0  0  0  0  0
   -4.2717    0.4750   -0.1128 C   0  0  0  0  0  0  0  0  0  0  0  0
   -5.4909   -0.3034    0.3523 C   0  0  0  0  0  0  0  0  0  0  0  0
   -5.6413   -1.6220   -0.4106 C   0  0  0  0  0  0  0  0  0  0  0  0
   -5.4613   -0.5470    1.8633 C   0  0  0  0  0  0  0  0  0  0  0  0
   -2.9699   -0.0368    0.0294 C   0  0  0  0  0  0  0  0  0  0  0  0
   -1.8551    0.6914   -0.4041 C   0  0  0  0  0  0  0  0  0  0  0  0
   -0.5553    0.2689   -0.3028 O   0  0  0  0  0  0  0  0  0  0  0  0
   -0.3204   -1.0037    0.2935 C   0  0  0  0  0  0  0  0  0  0  0  0
    1.1785   -1.3172    0.3353 C   0  0  0  0  0  0  0  0  0  0  0  0
    1.5757   -2.3799    0.8045 O   0  0  0  0  0  0  0  0  0  0  0  0
    1.9472   -0.3050   -0.1895 N   0  0  0  0  0  0  0  0  0  0  0  0
    3.3110   -0.2597   -0.3023 C   0  0  0  0  0  0  0  0  0  0  0  0
    3.9369    0.7720   -0.8272 N   0  0  0  0  0  0  0  0  0  0  0  0
    5.3083    0.5982   -0.8381 N   0  0  0  0  0  0  0  0  0  0  0  0
    5.6481   -0.5573   -0.3125 C   0  0  0  0  0  0  0  0  0  0  0  0
    7.1338   -1.0183   -0.2048 C   0  0  0  0  0  0  0  0  0  0  0  0
    8.1884   -0.0144    0.1872 C   0  0  0  0  0  0  0  0  0  0  0  0
    7.7881   -1.0922    1.1517 C   0  0  0  0  0  0  0  0  0  0  0  0
    4.3383   -1.5175    0.2156 S   0  0  0  0  0  0  0  0  0  0  0  0
   -1.1769    3.7127   -1.9118 H   0  0  0  0  0  0  0  0  0  0  0  0
   -0.3048    2.2095   -2.2339 H   0  0  0  0  0  0  0  0  0  0  0  0
   -0.1939    2.9918   -0.6309 H   0  0  0  0  0  0  0  0  0  0  0  0
   -3.4910    3.4429   -1.5878 H   0  0  0  0  0  0  0  0  0  0  0  0
   -5.4305    2.1603   -0.8248 H   0  0  0  0  0  0  0  0  0  0  0  0
   -6.3878    0.2941    0.1410 H   0  0  0  0  0  0  0  0  0  0  0  0
   -5.6747   -1.4471   -1.4917 H   0  0  0  0  0  0  0  0  0  0  0  0
   -6.5694   -2.1284   -0.1241 H   0  0  0  0  0  0  0  0  0  0  0  0
   -4.8124   -2.3093   -0.2092 H   0  0  0  0  0  0  0  0  0  0  0  0
   -5.3654    0.3976    2.4103 H   0  0  0  0  0  0  0  0  0  0  0  0
   -6.3863   -1.0325    2.1927 H   0  0  0  0  0  0  0  0  0  0  0  0
   -4.6254   -1.1901    2.1592 H   0  0  0  0  0  0  0  0  0  0  0  0
   -2.8539   -1.0146    0.4854 H   0  0  0  0  0  0  0  0  0  0  0  0
   -0.6782   -1.0093    1.3295 H   0  0  0  0  0  0  0  0  0  0  0  0
   -0.7974   -1.7932   -0.2987 H   0  0  0  0  0  0  0  0  0  0  0  0
    1.4643    0.5151   -0.5409 H   0  0  0  0  0  0  0  0  0  0  0  0
    7.4164   -1.7643   -0.9398 H   0  0  0  0  0  0  0  0  0  0  0  0
    9.1581   -0.0890   -0.2910 H   0  0  0  0  0  0  0  0  0  0  0  0
    7.8794    1.0032    0.4013 H   0  0  0  0  0  0  0  0  0  0  0  0
    8.4880   -1.9001    1.3315 H   0  0  0  0  0  0  0  0  0  0  0  0
    7.2173   -0.7989    2.0258 H   0  0  0  0  0  0  0  0  0  0  0  0
  1  2  1  0
  2  3  2  0
  3  4  1  0
  4  5  2  0
  5  6  1  0
  6  7  1  0
  6  8  1  0
  5  9  1  0
  9 10  2  0
 10 11  1  0
 11 12  1  0
 12 13  1  0
 13 14  2  0
 13 15  1  0
 15 16  1  0
 16 17  2  0
 17 18  1  0
 18 19  2  0
 19 20  1  0
 20 21  1  0
 21 22  1  0
 19 23  1  0
 10  2  1  0
 23 16  1  0
 22 20  1  0
  1 24  1  0
  1 25  1  0
  1 26  1  0
  3 27  1  0
  4 28  1  0
  6 29  1  0
  7 30  1  0
  7 31  1  0
  7 32  1  0
  8 33  1  0
  8 34  1  0
  8 35  1  0
  9 36  1  0
 12 37  1  0
 12 38  1  0
 15 39  1  0
 20 40  1  0
 21 41  1  0
 21 42  1  0
 22 43  1  0
 22 44  1  0
M  END
$$$$
