
     RDKit          3D

 60 65  0  0  0  0  0  0  0  0999 V2000
    5.2744   -1.8297   -3.9145 O   0  0  0  0  0  0  0  0  0  0  0  0
    4.5634   -1.1814   -3.1541 C   0  0  0  0  0  0  0  0  0  0  0  0
    3.2071   -0.9903   -3.3937 N   0  0  0  0  0  0  0  0  0  0  0  0
    2.3584   -0.2572   -2.5660 C   0  0  0  0  0  0  0  0  0  0  0  0
    0.9089   -0.2137   -3.0291 C   0  0  0  0  0  0  0  0  0  0  0  0
    0.2618   -1.6007   -2.8572 C   0  0  0  0  0  0  0  0  0  0  0  0
   -1.0823   -1.5457   -2.1349 C   0  0  0  0  0  0  0  0  0  0  0  0
   -1.9139   -0.5058   -2.7630 N   0  0  0  0  0  0  0  0  0  0  0  0
   -3.6021   -0.6549   -2.6300 S   0  0  0  0  0  6  0  0  0  0  0  0
   -3.9561   -2.0263   -2.9293 O   0  0  0  0  0  0  0  0  0  0  0  0
   -4.2045    0.4498   -3.3461 O   0  0  0  0  0  0  0  0  0  0  0  0
   -3.8913   -0.4005   -0.8915 C   0  0  0  0  0  0  0  0  0  0  0  0
   -3.8947   -1.5004   -0.0245 C   0  0  0  0  0  0  0  0  0  0  0  0
   -4.1429   -1.3066    1.3354 C   0  0  0  0  0  0  0  0  0  0  0  0
   -4.4022   -0.0256    1.8161 C   0  0  0  0  0  0  0  0  0  0  0  0
   -4.3940    1.0706    0.9447 C   0  0  0  0  0  0  0  0  0  0  0  0
   -4.1649    0.8836   -0.4159 C   0  0  0  0  0  0  0  0  0  0  0  0
   -4.6116    2.3587    1.3570 O   0  0  0  0  0  0  0  0  0  0  0  0
   -4.5312    2.4791    2.7828 C   0  0  0  0  0  0  0  0  0  0  0  0
   -5.2726    1.3423    3.4668 C   0  0  0  0  0  0  0  0  0  0  0  0
   -4.6561    0.0864    3.1594 O   0  0  0  0  0  0  0  0  0  0  0  0
   -1.3566    0.8659   -2.7408 C   0  0  0  0  0  0  0  0  0  0  0  0
    0.1075    0.8797   -2.3164 C   0  0  0  0  0  0  0  0  0  0  0  0
    2.7391    0.3247   -1.4623 N   0  0  0  0  0  0  0  0  0  0  0  0
    4.0589    0.1500   -1.2041 C   0  0  0  0  0  0  0  0  0  0  0  0
    4.9910   -0.5391   -1.9417 C   0  0  0  0  0  0  0  0  0  0  0  0
    6.2143   -0.4754   -1.3497 N   0  0  0  0  0  0  0  0  0  0  0  0
    6.0787    0.2440   -0.2364 N   0  0  0  0  0  0  0  0  0  0  0  0
    4.7766    0.6105   -0.1381 N   0  0  0  0  0  0  0  0  0  0  0  0
    4.3153    1.4314    0.9630 C   0  0  0  0  0  0  0  0  0  0  0  0
    3.7137    0.5921    2.0637 C   0  0  0  0  0  0  0  0  0  0  0  0
    2.3281    0.3643    2.1178 C   0  0  0  0  0  0  0  0  0  0  0  0
    1.7766   -0.4283    3.1270 C   0  0  0  0  0  0  0  0  0  0  0  0
    2.6042   -1.0030    4.0902 C   0  0  0  0  0  0  0  0  0  0  0  0
    3.9754   -0.7850    4.0350 C   0  0  0  0  0  0  0  0  0  0  0  0
    4.7705   -1.3415    4.9588 F   0  0  0  0  0  0  0  0  0  0  0  0
    4.5365    0.0003    3.0340 C   0  0  0  0  0  0  0  0  0  0  0  0
    2.8642   -1.4213   -4.2400 H   0  0  0  0  0  0  0  0  0  0  0  0
    0.9268    0.0223   -4.1024 H   0  0  0  0  0  0  0  0  0  0  0  0
    0.9212   -2.2966   -2.3238 H   0  0  0  0  0  0  0  0  0  0  0  0
    0.1087   -2.0317   -3.8561 H   0  0  0  0  0  0  0  0  0  0  0  0
   -0.9410   -1.3295   -1.0705 H   0  0  0  0  0  0  0  0  0  0  0  0
   -1.5547   -2.5291   -2.2149 H   0  0  0  0  0  0  0  0  0  0  0  0
   -3.7184   -2.5051   -0.3994 H   0  0  0  0  0  0  0  0  0  0  0  0
   -4.1553   -2.1542    2.0166 H   0  0  0  0  0  0  0  0  0  0  0  0
   -4.1952    1.7361   -1.0899 H   0  0  0  0  0  0  0  0  0  0  0  0
   -4.9762    3.4393    3.0597 H   0  0  0  0  0  0  0  0  0  0  0  0
   -3.4732    2.4967    3.0702 H   0  0  0  0  0  0  0  0  0  0  0  0
   -5.2432    1.4700    4.5544 H   0  0  0  0  0  0  0  0  0  0  0  0
   -6.3251    1.3026    3.1549 H   0  0  0  0  0  0  0  0  0  0  0  0
   -1.4440    1.2764   -3.7532 H   0  0  0  0  0  0  0  0  0  0  0  0
   -1.9194    1.5160   -2.0663 H   0  0  0  0  0  0  0  0  0  0  0  0
    0.1664    0.7472   -1.2284 H   0  0  0  0  0  0  0  0  0  0  0  0
    0.5394    1.8654   -2.5246 H   0  0  0  0  0  0  0  0  0  0  0  0
    3.5880    2.1518    0.5674 H   0  0  0  0  0  0  0  0  0  0  0  0
    5.1659    2.0123    1.3374 H   0  0  0  0  0  0  0  0  0  0  0  0
    1.6701    0.7980    1.3661 H   0  0  0  0  0  0  0  0  0  0  0  0
    0.7042   -0.6014    3.1602 H   0  0  0  0  0  0  0  0  0  0  0  0
    2.1923   -1.6233    4.8797 H   0  0  0  0  0  0  0  0  0  0  0  0
    5.6152    0.1359    3.0162 H   0  0  0  0  0  0  0  0  0  0  0  0
  1  2  2  0
  2  3  1  0
  3  4  1  0
  4  5  1  0
  5  6  1  0
  6  7  1  0
  7  8  1  0
  8  9  1  0
  9 10  2  0
  9 11  2  0
  9 12  1  0
 12 13  2  0
 13 14  1  0
 14 15  2  0
 15 16  1  0
 16 17  2  0
 16 18  1  0
 18 19  1  0
 19 20  1  0
 20 21  1  0
  8 22  1  0
 22 23  1  0
  4 24  2  0
 24 25  1  0
 25 26  2  0
 26 27  1  0
 27 28  2  0
 28 29  1  0
 29 30  1  0
 30 31  1  0
 31 32  2  0
 32 33  1  0
 33 34  2  0
 34 35  1  0
 35 36  1  0
 35 37  2  0
 26  2  1  0
 37 31  1  0
 23  5  1  0
 29 25  1  0
 17 12  1  0
 21 15  1  0
  3 38  1  0
  5 39  1  0
  6 40  1  0
  6 41  1  0
  7 42  1  0
  7 43  1  0
 13 44  1  0
 14 45  1  0
 17 46  1  0
 19 47  1  0
 19 48  1  0
 20 49  1  0
 20 50  1  0
 22 51  1  0
 22 52  1  0
 23 53  1  0
 23 54  1  0
 30 55  1  0
 30 56  1  0
 32 57  1  0
 33 58  1  0
 34 59  1  0
 37 60  1  0
M  END
$$$$
