
     RDKit          3D

 56 58  0  0  0  0  0  0  0  0999 V2000
   10.0997    2.6751   -0.8708 C   0  0  0  0  0  0  0  0  0  0  0  0
    8.6004    2.8965   -0.7887 C   0  0  0  0  0  0  0  0  0  0  0  0
    8.0251    1.7731   -0.1246 O   0  0  0  0  0  0  0  0  0  0  0  0
    6.6704    1.7783    0.0520 C   0  0  0  0  0  0  0  0  0  0  0  0
    6.1631    0.6657    0.7236 C   0  0  0  0  0  0  0  0  0  0  0  0
    4.7915    0.5385    0.9748 C   0  0  0  0  0  0  0  0  0  0  0  0
    3.9048    1.5269    0.5531 C   0  0  0  0  0  0  0  0  0  0  0  0
    2.5102    1.4816    0.7597 N   0  0  0  0  0  0  0  0  0  0  0  0
    1.7835    0.4913    1.4009 C   0  0  0  0  0  0  0  0  0  0  0  0
    2.2294   -0.5370    1.8984 O   0  0  0  0  0  0  0  0  0  0  0  0
    0.2949    0.7976    1.3966 C   0  0  0  0  0  0  0  0  0  0  0  0
   -0.5024   -0.1571    2.2779 C   0  0  0  0  0  0  0  0  0  0  0  0
   -0.4882   -1.5132    1.7035 N   0  0  0  0  0  0  0  0  0  0  0  0
   -1.6478   -2.6087    2.2333 S   0  0  0  0  0  6  0  0  0  0  0  0
   -1.0830   -3.9273    2.0540 O   0  0  0  0  0  0  0  0  0  0  0  0
   -2.1743   -2.1652    3.5034 O   0  0  0  0  0  0  0  0  0  0  0  0
   -2.9079   -2.4000    0.9989 C   0  0  0  0  0  0  0  0  0  0  0  0
   -2.9262   -3.2289   -0.1221 C   0  0  0  0  0  0  0  0  0  0  0  0
   -3.9333   -3.0763   -1.0815 C   0  0  0  0  0  0  0  0  0  0  0  0
   -4.9324   -2.0993   -0.9323 C   0  0  0  0  0  0  0  0  0  0  0  0
   -4.8961   -1.2860    0.2006 C   0  0  0  0  0  0  0  0  0  0  0  0
   -3.8976   -1.4350    1.1752 C   0  0  0  0  0  0  0  0  0  0  0  0
   -5.9193   -0.2439    0.3703 C   0  0  0  0  0  0  0  0  0  0  0  0
   -5.8142    0.5472    1.3051 O   0  0  0  0  0  0  0  0  0  0  0  0
   -6.9370   -0.2111   -0.5687 N   0  0  0  0  0  0  0  0  0  0  0  0
   -7.9740    0.7907   -0.4034 C   0  0  0  0  0  0  0  0  0  0  0  0
   -6.9648   -0.9629   -1.7371 C   0  0  0  0  0  0  0  0  0  0  0  0
   -7.8333   -0.7848   -2.5942 O   0  0  0  0  0  0  0  0  0  0  0  0
   -5.9603   -1.9141   -1.8946 N   0  0  0  0  0  0  0  0  0  0  0  0
   -5.9799   -2.7405   -3.0955 C   0  0  0  0  0  0  0  0  0  0  0  0
    4.4159    2.6429   -0.1218 C   0  0  0  0  0  0  0  0  0  0  0  0
    5.7893    2.7700   -0.3705 C   0  0  0  0  0  0  0  0  0  0  0  0
   10.5913    3.5133   -1.3724 H   0  0  0  0  0  0  0  0  0  0  0  0
   10.5281    2.5610    0.1303 H   0  0  0  0  0  0  0  0  0  0  0  0
   10.3232    1.7545   -1.4196 H   0  0  0  0  0  0  0  0  0  0  0  0
    8.1969    2.9868   -1.8035 H   0  0  0  0  0  0  0  0  0  0  0  0
    8.4042    3.8138   -0.2225 H   0  0  0  0  0  0  0  0  0  0  0  0
    6.8410   -0.1164    1.0583 H   0  0  0  0  0  0  0  0  0  0  0  0
    4.4569   -0.3488    1.5023 H   0  0  0  0  0  0  0  0  0  0  0  0
    1.9868    2.2663    0.3911 H   0  0  0  0  0  0  0  0  0  0  0  0
   -0.0615    0.7497    0.3606 H   0  0  0  0  0  0  0  0  0  0  0  0
    0.1528    1.8209    1.7647 H   0  0  0  0  0  0  0  0  0  0  0  0
   -0.0803   -0.1900    3.2882 H   0  0  0  0  0  0  0  0  0  0  0  0
   -1.5311    0.2120    2.3387 H   0  0  0  0  0  0  0  0  0  0  0  0
    0.4429   -1.9476    1.6654 H   0  0  0  0  0  0  0  0  0  0  0  0
   -2.1643   -3.9951   -0.2580 H   0  0  0  0  0  0  0  0  0  0  0  0
   -3.9089   -3.7434   -1.9389 H   0  0  0  0  0  0  0  0  0  0  0  0
   -3.8982   -0.8017    2.0606 H   0  0  0  0  0  0  0  0  0  0  0  0
   -7.7215    1.6546   -1.0266 H   0  0  0  0  0  0  0  0  0  0  0  0
   -8.9413    0.3940   -0.7274 H   0  0  0  0  0  0  0  0  0  0  0  0
   -8.0606    1.1149    0.6375 H   0  0  0  0  0  0  0  0  0  0  0  0
   -6.8132   -2.4912   -3.7579 H   0  0  0  0  0  0  0  0  0  0  0  0
   -5.0521   -2.5887   -3.6565 H   0  0  0  0  0  0  0  0  0  0  0  0
   -6.0863   -3.7920   -2.8105 H   0  0  0  0  0  0  0  0  0  0  0  0
    3.7559    3.4348   -0.4664 H   0  0  0  0  0  0  0  0  0  0  0  0
    6.1334    3.6542   -0.8962 H   0  0  0  0  0  0  0  0  0  0  0  0
  1  2  1  0
  2  3  1  0
  3  4  1  0
  4  5  2  0
  5  6  1  0
  6  7  2  0
  7  8  1  0
  8  9  1  0
  9 10  2  0
  9 11  1  0
 11 12  1  0
 12 13  1  0
 13 14  1  0
 14 15  2  0
 14 16  2  0
 14 17  1  0
 17 18  2  0
 18 19  1  0
 19 20  2  0
 20 21  1  0
 21 22  2  0
 21 23  1  0
 23 24  2  0
 23 25  1  0
 25 26  1  0
 25 27  1  0
 27 28  2  0
 27 29  1  0
 29 30  1  0
  7 31  1  0
 31 32  2  0
 32  4  1  0
 22 17  1  0
 29 20  1  0
  1 33  1  0
  1 34  1  0
  1 35  1  0
  2 36  1  0
  2 37  1  0
  5 38  1  0
  6 39  1  0
  8 40  1  0
 11 41  1  0
 11 42  1  0
 12 43  1  0
 12 44  1  0
 13 45  1  0
 18 46  1  0
 19 47  1  0
 22 48  1  0
 26 49  1  0
 26 50  1  0
 26 51  1  0
 30 52  1  0
 30 53  1  0
 30 54  1  0
 31 55  1  0
 32 56  1  0
M  END
$$$$
