
     RDKit          3D

 57 59  0  0  0  0  0  0  0  0999 V2000
   -9.1275   -2.3565   -1.4226 C   0  0  0  0  0  0  0  0  0  0  0  0
   -8.6175   -1.1906   -2.0576 O   0  0  0  0  0  0  0  0  0  0  0  0
   -7.2786   -0.9466   -1.9228 C   0  0  0  0  0  0  0  0  0  0  0  0
   -6.3769   -1.7086   -1.1756 C   0  0  0  0  0  0  0  0  0  0  0  0
   -5.0279   -1.3445   -1.1195 C   0  0  0  0  0  0  0  0  0  0  0  0
   -4.5867   -0.2116   -1.8089 C   0  0  0  0  0  0  0  0  0  0  0  0
   -2.8694    0.2342   -1.7286 S   0  0  0  0  0  6  0  0  0  0  0  0
   -2.1043   -0.9902   -1.8048 O   0  0  0  0  0  0  0  0  0  0  0  0
   -2.6387    1.3283   -2.6467 O   0  0  0  0  0  0  0  0  0  0  0  0
   -2.7346    0.8386   -0.1570 N   0  0  0  0  0  0  0  0  0  0  0  0
   -3.5120    2.0415    0.1713 C   0  0  0  0  0  0  0  0  0  0  0  0
   -2.8127    2.5195    1.4205 C   0  0  0  0  0  0  0  0  0  0  0  0
   -1.4282    2.2573    1.1848 O   0  0  0  0  0  0  0  0  0  0  0  0
   -1.3433    1.1532    0.2484 C   0  0  0  0  0  0  0  0  0  0  0  0
   -0.6888   -0.0489    0.9635 C   0  0  0  0  0  0  0  0  0  0  0  0
    0.6064    0.2575    1.5458 N   0  0  0  0  0  0  0  0  0  0  0  0
    1.7118    0.4923    0.7617 C   0  0  0  0  0  0  0  0  0  0  0  0
    1.7714    0.3417   -0.4500 O   0  0  0  0  0  0  0  0  0  0  0  0
    2.9360    1.0119    1.5511 C   0  0  0  0  0  0  0  0  0  0  0  0
    2.8535    1.1927    2.7584 O   0  0  0  0  0  0  0  0  0  0  0  0
    4.0433    1.2210    0.7674 N   0  0  0  0  0  0  0  0  0  0  0  0
    5.3413    1.5086    1.3211 C   0  0  0  0  0  0  0  0  0  0  0  0
    6.1374    0.2424    1.5210 C   0  0  0  0  0  0  0  0  0  0  0  0
    6.1237   -0.3823    2.7804 C   0  0  0  0  0  0  0  0  0  0  0  0
    6.8318   -1.5623    2.9960 C   0  0  0  0  0  0  0  0  0  0  0  0
    7.5544   -2.1344    1.9540 C   0  0  0  0  0  0  0  0  0  0  0  0
    7.5646   -1.5331    0.6924 C   0  0  0  0  0  0  0  0  0  0  0  0
    6.8541   -0.3498    0.4639 C   0  0  0  0  0  0  0  0  0  0  0  0
    6.7915    0.3033   -0.7399 O   0  0  0  0  0  0  0  0  0  0  0  0
    7.4346   -0.3102   -1.8502 C   0  0  0  0  0  0  0  0  0  0  0  0
   -5.4754    0.5505   -2.5678 C   0  0  0  0  0  0  0  0  0  0  0  0
   -6.8205    0.1798   -2.6158 C   0  0  0  0  0  0  0  0  0  0  0  0
   -8.6523   -3.2612   -1.8161 H   0  0  0  0  0  0  0  0  0  0  0  0
  -10.1969   -2.4181   -1.6460 H   0  0  0  0  0  0  0  0  0  0  0  0
   -9.0176   -2.2924   -0.3350 H   0  0  0  0  0  0  0  0  0  0  0  0
   -6.6899   -2.5923   -0.6290 H   0  0  0  0  0  0  0  0  0  0  0  0
   -4.3283   -1.9459   -0.5425 H   0  0  0  0  0  0  0  0  0  0  0  0
   -4.5652    1.8218    0.3588 H   0  0  0  0  0  0  0  0  0  0  0  0
   -3.4222    2.7939   -0.6192 H   0  0  0  0  0  0  0  0  0  0  0  0
   -3.1229    1.9457    2.3008 H   0  0  0  0  0  0  0  0  0  0  0  0
   -2.9678    3.5836    1.6171 H   0  0  0  0  0  0  0  0  0  0  0  0
   -0.7351    1.5034   -0.5921 H   0  0  0  0  0  0  0  0  0  0  0  0
   -1.3212   -0.3863    1.7924 H   0  0  0  0  0  0  0  0  0  0  0  0
   -0.5600   -0.8869    0.2717 H   0  0  0  0  0  0  0  0  0  0  0  0
    0.6592    0.6051    2.5000 H   0  0  0  0  0  0  0  0  0  0  0  0
    3.9873    0.9041   -0.1964 H   0  0  0  0  0  0  0  0  0  0  0  0
    5.2291    2.0433    2.2716 H   0  0  0  0  0  0  0  0  0  0  0  0
    5.8569    2.1905    0.6365 H   0  0  0  0  0  0  0  0  0  0  0  0
    5.5493    0.0512    3.5978 H   0  0  0  0  0  0  0  0  0  0  0  0
    6.8150   -2.0355    3.9743 H   0  0  0  0  0  0  0  0  0  0  0  0
    8.1073   -3.0555    2.1198 H   0  0  0  0  0  0  0  0  0  0  0  0
    8.1366   -2.0179   -0.0916 H   0  0  0  0  0  0  0  0  0  0  0  0
    7.2541    0.3172   -2.7285 H   0  0  0  0  0  0  0  0  0  0  0  0
    7.0122   -1.2993   -2.0559 H   0  0  0  0  0  0  0  0  0  0  0  0
    8.5174   -0.3640   -1.6972 H   0  0  0  0  0  0  0  0  0  0  0  0
   -5.1369    1.4223   -3.1227 H   0  0  0  0  0  0  0  0  0  0  0  0
   -7.5206    0.7686   -3.2049 H   0  0  0  0  0  0  0  0  0  0  0  0
  1  2  1  0
  2  3  1  0
  3  4  2  0
  4  5  1  0
  5  6  2  0
  6  7  1  0
  7  8  2  0
  7  9  2  0
  7 10  1  0
 10 11  1  0
 11 12  1  0
 12 13  1  0
 13 14  1  0
 14 15  1  0
 15 16  1  0
 16 17  1  0
 17 18  2  0
 17 19  1  0
 19 20  2  0
 19 21  1  0
 21 22  1  0
 22 23  1  0
 23 24  2  0
 24 25  1  0
 25 26  2  0
 26 27  1  0
 27 28  2  0
 28 29  1  0
 29 30  1  0
  6 31  1  0
 31 32  2  0
 32  3  1  0
 14 10  1  0
 28 23  1  0
  1 33  1  0
  1 34  1  0
  1 35  1  0
  4 36  1  0
  5 37  1  0
 11 38  1  0
 11 39  1  0
 12 40  1  0
 12 41  1  0
 14 42  1  0
 15 43  1  0
 15 44  1  0
 16 45  1  0
 21 46  1  0
 22 47  1  0
 22 48  1  0
 24 49  1  0
 25 50  1  0
 26 51  1  0
 27 52  1  0
 30 53  1  0
 30 54  1  0
 30 55  1  0
 31 56  1  0
 32 57  1  0
M  END
$$$$
