
     RDKit          3D

 36 37  0  0  0  0  0  0  0  0999 V2000
   -0.2073    2.4542    2.2332 O   0  0  0  0  0  0  0  0  0  0  0  0
   -0.1296    1.2291    2.2259 C   0  0  0  0  0  0  0  0  0  0  0  0
    0.9827    0.4740    2.9573 C   0  0  0  0  0  0  0  0  0  0  0  0
    2.1134    0.1938    2.1298 O   0  0  0  0  0  0  0  0  0  0  0  0
    1.9481   -0.8157    1.2435 C   0  0  0  0  0  0  0  0  0  0  0  0
    0.9276   -1.4729    1.0984 O   0  0  0  0  0  0  0  0  0  0  0  0
    3.1862   -1.0300    0.4480 C   0  0  0  0  0  0  0  0  0  0  0  0
    3.2147   -2.1042   -0.4539 C   0  0  0  0  0  0  0  0  0  0  0  0
    4.3521   -2.3474   -1.2264 C   0  0  0  0  0  0  0  0  0  0  0  0
    5.4654   -1.5174   -1.1035 C   0  0  0  0  0  0  0  0  0  0  0  0
    5.4376   -0.4483   -0.2085 C   0  0  0  0  0  0  0  0  0  0  0  0
    6.8152    0.5727   -0.0613 Cl  0  0  0  0  0  0  0  0  0  0  0  0
    4.3065   -0.1979    0.5679 C   0  0  0  0  0  0  0  0  0  0  0  0
   -1.0220    0.4116    1.5603 N   0  0  0  0  0  0  0  0  0  0  0  0
   -2.0345    0.9865    0.6936 C   0  0  0  0  0  0  0  0  0  0  0  0
   -3.0784   -0.0431    0.2568 C   0  0  0  0  0  0  0  0  0  0  0  0
   -4.0913    0.5317   -0.6087 N   0  0  0  0  0  0  0  0  0  0  0  0
   -3.9235    0.7067   -1.9598 C   0  0  0  0  0  0  0  0  0  0  0  0
   -2.7676    0.2798   -2.5409 O   0  0  0  0  0  0  0  0  0  0  0  0
   -4.9490    1.3063   -2.5749 C   0  0  0  0  0  0  0  0  0  0  0  0
   -6.2117    1.7041   -1.4491 S   0  0  0  0  0  0  0  0  0  0  0  0
   -5.2765    1.0348   -0.0967 C   0  0  0  0  0  0  0  0  0  0  0  0
   -5.6576    1.0469    1.0613 O   0  0  0  0  0  0  0  0  0  0  0  0
    1.3262    1.1031    3.7857 H   0  0  0  0  0  0  0  0  0  0  0  0
    0.5901   -0.4460    3.4077 H   0  0  0  0  0  0  0  0  0  0  0  0
    2.3505   -2.7586   -0.5573 H   0  0  0  0  0  0  0  0  0  0  0  0
    4.3694   -3.1829   -1.9225 H   0  0  0  0  0  0  0  0  0  0  0  0
    6.3503   -1.7080   -1.7060 H   0  0  0  0  0  0  0  0  0  0  0  0
    4.3070    0.6436    1.2560 H   0  0  0  0  0  0  0  0  0  0  0  0
   -0.6607   -0.5129    1.3171 H   0  0  0  0  0  0  0  0  0  0  0  0
   -2.5150    1.8199    1.2198 H   0  0  0  0  0  0  0  0  0  0  0  0
   -1.5179    1.4100   -0.1755 H   0  0  0  0  0  0  0  0  0  0  0  0
   -2.6020   -0.8881   -0.2552 H   0  0  0  0  0  0  0  0  0  0  0  0
   -3.5689   -0.4571    1.1466 H   0  0  0  0  0  0  0  0  0  0  0  0
   -2.8108    0.4829   -3.4910 H   0  0  0  0  0  0  0  0  0  0  0  0
   -5.0186    1.5388   -3.6272 H   0  0  0  0  0  0  0  0  0  0  0  0
  1  2  2  0
  2  3  1  0
  3  4  1  0
  4  5  1  0
  5  6  2  0
  5  7  1  0
  7  8  2  0
  8  9  1  0
  9 10  2  0
 10 11  1  0
 11 12  1  0
 11 13  2  0
  2 14  1  0
 14 15  1  0
 15 16  1  0
 16 17  1  0
 17 18  1  0
 18 19  1  0
 18 20  2  0
 20 21  1  0
 21 22  1  0
 22 23  2  0
 13  7  1  0
 22 17  1  0
  3 24  1  0
  3 25  1  0
  8 26  1  0
  9 27  1  0
 10 28  1  0
 13 29  1  0
 14 30  1  0
 15 31  1  0
 15 32  1  0
 16 33  1  0
 16 34  1  0
 19 35  1  0
 20 36  1  0
M  END
$$$$
