
     RDKit          3D

 53 55  0  0  0  0  0  0  0  0999 V2000
   -3.3736   -3.5476   -2.8064 C   0  0  0  0  0  0  0  0  0  0  0  0
   -4.6816   -3.1558   -2.4107 O   0  0  0  0  0  0  0  0  0  0  0  0
   -4.7746   -2.2304   -1.4069 C   0  0  0  0  0  0  0  0  0  0  0  0
   -3.7036   -1.6662   -0.7095 C   0  0  0  0  0  0  0  0  0  0  0  0
   -3.9338   -0.7254    0.3000 C   0  0  0  0  0  0  0  0  0  0  0  0
   -2.9062   -0.1099    1.0509 N   0  0  0  0  0  0  0  0  0  0  0  0
   -1.5505   -0.3955    1.0191 C   0  0  0  0  0  0  0  0  0  0  0  0
   -1.0115   -1.3004    0.3894 O   0  0  0  0  0  0  0  0  0  0  0  0
   -0.7500    0.4850    1.9637 C   0  0  0  0  0  0  0  0  0  0  0  0
    0.6191    0.8263    1.3890 C   0  0  0  0  0  0  0  0  0  0  0  0
    0.5547    2.1185    0.6943 N   0  0  0  0  0  0  0  0  0  0  0  0
    1.3812    2.3515   -0.7481 S   0  0  0  0  0  6  0  0  0  0  0  0
    1.2892    3.7661   -1.0338 O   0  0  0  0  0  0  0  0  0  0  0  0
    0.9402    1.3526   -1.6933 O   0  0  0  0  0  0  0  0  0  0  0  0
    3.0622    1.9956   -0.2943 C   0  0  0  0  0  0  0  0  0  0  0  0
    3.8487    3.0058    0.2684 C   0  0  0  0  0  0  0  0  0  0  0  0
    5.1732    2.7359    0.6134 C   0  0  0  0  0  0  0  0  0  0  0  0
    5.6959    1.4599    0.4035 C   0  0  0  0  0  0  0  0  0  0  0  0
    4.9185    0.4509   -0.1786 C   0  0  0  0  0  0  0  0  0  0  0  0
    3.5972    0.7273   -0.5452 C   0  0  0  0  0  0  0  0  0  0  0  0
    5.5565   -0.8728   -0.4983 C   0  0  0  0  0  0  0  0  0  0  0  0
    6.6410   -1.2174    0.5079 C   0  0  0  0  0  0  0  0  0  0  0  0
    7.5790   -0.0575    0.7494 C   0  0  0  0  0  0  0  0  0  0  0  0
    8.7645   -0.2145    1.0316 O   0  0  0  0  0  0  0  0  0  0  0  0
    7.0197    1.1918    0.7555 N   0  0  0  0  0  0  0  0  0  0  0  0
   -5.2525   -0.3440    0.5984 C   0  0  0  0  0  0  0  0  0  0  0  0
   -6.3279   -0.9046   -0.0919 C   0  0  0  0  0  0  0  0  0  0  0  0
   -7.6503   -0.6252    0.1154 O   0  0  0  0  0  0  0  0  0  0  0  0
   -7.9595    0.3975    1.0524 C   0  0  0  0  0  0  0  0  0  0  0  0
   -6.0793   -1.8488   -1.0879 C   0  0  0  0  0  0  0  0  0  0  0  0
   -3.4751   -4.2600   -3.6320 H   0  0  0  0  0  0  0  0  0  0  0  0
   -2.7992   -2.6921   -3.1747 H   0  0  0  0  0  0  0  0  0  0  0  0
   -2.8506   -4.0553   -1.9901 H   0  0  0  0  0  0  0  0  0  0  0  0
   -2.6898   -1.9510   -0.9620 H   0  0  0  0  0  0  0  0  0  0  0  0
   -3.2086    0.6017    1.7024 H   0  0  0  0  0  0  0  0  0  0  0  0
   -0.6224   -0.1024    2.8818 H   0  0  0  0  0  0  0  0  0  0  0  0
   -1.3052    1.3913    2.2284 H   0  0  0  0  0  0  0  0  0  0  0  0
    1.3351    0.9374    2.2116 H   0  0  0  0  0  0  0  0  0  0  0  0
    0.9919    0.0370    0.7319 H   0  0  0  0  0  0  0  0  0  0  0  0
    0.4309    2.9722    1.2348 H   0  0  0  0  0  0  0  0  0  0  0  0
    3.4422    4.0014    0.4301 H   0  0  0  0  0  0  0  0  0  0  0  0
    5.7821    3.5242    1.0474 H   0  0  0  0  0  0  0  0  0  0  0  0
    2.9914   -0.0378   -1.0279 H   0  0  0  0  0  0  0  0  0  0  0  0
    4.8047   -1.6706   -0.5000 H   0  0  0  0  0  0  0  0  0  0  0  0
    5.9838   -0.8123   -1.5063 H   0  0  0  0  0  0  0  0  0  0  0  0
    6.1983   -1.4859    1.4745 H   0  0  0  0  0  0  0  0  0  0  0  0
    7.2186   -2.0763    0.1512 H   0  0  0  0  0  0  0  0  0  0  0  0
    7.6333    1.9429    1.0456 H   0  0  0  0  0  0  0  0  0  0  0  0
   -5.4258    0.3839    1.3839 H   0  0  0  0  0  0  0  0  0  0  0  0
   -7.4923    1.3488    0.7758 H   0  0  0  0  0  0  0  0  0  0  0  0
   -7.6744    0.0998    2.0655 H   0  0  0  0  0  0  0  0  0  0  0  0
   -9.0415    0.5455    1.0382 H   0  0  0  0  0  0  0  0  0  0  0  0
   -6.9132   -2.2913   -1.6280 H   0  0  0  0  0  0  0  0  0  0  0  0
  1  2  1  0
  2  3  1  0
  3  4  2  0
  4  5  1  0
  5  6  1  0
  6  7  1  0
  7  8  2  0
  7  9  1  0
  9 10  1  0
 10 11  1  0
 11 12  1  0
 12 13  2  0
 12 14  2  0
 12 15  1  0
 15 16  2  0
 16 17  1  0
 17 18  2  0
 18 19  1  0
 19 20  2  0
 19 21  1  0
 21 22  1  0
 22 23  1  0
 23 24  2  0
 23 25  1  0
  5 26  2  0
 26 27  1  0
 27 28  1  0
 28 29  1  0
 27 30  2  0
 30  3  1  0
 20 15  1  0
 25 18  1  0
  1 31  1  0
  1 32  1  0
  1 33  1  0
  4 34  1  0
  6 35  1  0
  9 36  1  0
  9 37  1  0
 10 38  1  0
 10 39  1  0
 11 40  1  0
 16 41  1  0
 17 42  1  0
 20 43  1  0
 21 44  1  0
 21 45  1  0
 22 46  1  0
 22 47  1  0
 25 48  1  0
 26 49  1  0
 29 50  1  0
 29 51  1  0
 29 52  1  0
 30 53  1  0
M  END
$$$$
