
     RDKit          3D

 40 42  0  0  0  0  0  0  0  0999 V2000
   -4.9994   -0.1843    1.7228 C   0  0  0  0  0  0  0  0  0  0  0  0
   -5.5631   -1.0927    0.7835 O   0  0  0  0  0  0  0  0  0  0  0  0
   -4.6850   -1.7411   -0.0469 C   0  0  0  0  0  0  0  0  0  0  0  0
   -3.2938   -1.6308   -0.0250 C   0  0  0  0  0  0  0  0  0  0  0  0
   -2.5133   -2.3513   -0.9449 C   0  0  0  0  0  0  0  0  0  0  0  0
   -1.0489   -2.2605   -0.9332 C   0  0  0  0  0  0  0  0  0  0  0  0
   -0.3232   -1.1681   -1.2094 C   0  0  0  0  0  0  0  0  0  0  0  0
   -0.8913    0.3946   -1.6628 S   0  0  0  0  0  0  0  0  0  0  0  0
    0.7358    1.0466   -1.8456 C   0  0  0  0  0  0  0  0  0  0  0  0
    1.0280    2.5816   -2.4282 S   0  0  0  0  0  0  0  0  0  0  0  0
    1.6424    0.0826   -1.4432 N   0  0  0  0  0  0  0  0  0  0  0  0
    3.0411    0.2459   -1.5510 N   0  0  0  0  0  0  0  0  0  0  0  0
    3.6591    1.1170   -0.6371 C   0  0  0  0  0  0  0  0  0  0  0  0
    4.5637    1.9413   -1.2234 N   0  0  0  0  0  0  0  0  0  0  0  0
    5.2389    2.8256   -0.4519 C   0  0  0  0  0  0  0  0  0  0  0  0
    5.0794    2.9323    0.9172 C   0  0  0  0  0  0  0  0  0  0  0  0
    5.8506    3.9541    1.6925 C   0  0  0  0  0  0  0  0  0  0  0  0
    7.0894    4.1877    1.1801 F   0  0  0  0  0  0  0  0  0  0  0  0
    5.2221    5.1596    1.7226 F   0  0  0  0  0  0  0  0  0  0  0  0
    6.0452    3.5994    2.9922 F   0  0  0  0  0  0  0  0  0  0  0  0
    4.1548    2.0762    1.5196 C   0  0  0  0  0  0  0  0  0  0  0  0
    3.4412    1.1534    0.7469 C   0  0  0  0  0  0  0  0  0  0  0  0
    2.3450    0.1203    1.5880 Cl  0  0  0  0  0  0  0  0  0  0  0  0
    1.1665   -1.1981   -1.1863 C   0  0  0  0  0  0  0  0  0  0  0  0
    1.8203   -2.2165   -1.0041 O   0  0  0  0  0  0  0  0  0  0  0  0
   -3.1330   -3.1992   -1.8719 C   0  0  0  0  0  0  0  0  0  0  0  0
   -4.5218   -3.3164   -1.8959 C   0  0  0  0  0  0  0  0  0  0  0  0
   -5.2799   -2.5886   -0.9884 C   0  0  0  0  0  0  0  0  0  0  0  0
   -6.6413   -2.7206   -1.0329 O   0  0  0  0  0  0  0  0  0  0  0  0
   -5.8222    0.2665    2.2860 H   0  0  0  0  0  0  0  0  0  0  0  0
   -4.3540   -0.7065    2.4366 H   0  0  0  0  0  0  0  0  0  0  0  0
   -4.4600    0.6235    1.2171 H   0  0  0  0  0  0  0  0  0  0  0  0
   -2.7937   -0.9960    0.6987 H   0  0  0  0  0  0  0  0  0  0  0  0
   -0.5424   -3.1955   -0.6940 H   0  0  0  0  0  0  0  0  0  0  0  0
    3.3382    0.5475   -2.4801 H   0  0  0  0  0  0  0  0  0  0  0  0
    5.9354    3.4621   -0.9958 H   0  0  0  0  0  0  0  0  0  0  0  0
    3.9948    2.1236    2.5960 H   0  0  0  0  0  0  0  0  0  0  0  0
   -2.5417   -3.7708   -2.5839 H   0  0  0  0  0  0  0  0  0  0  0  0
   -5.0097   -3.9684   -2.6141 H   0  0  0  0  0  0  0  0  0  0  0  0
   -6.9742   -2.1359   -0.3246 H   0  0  0  0  0  0  0  0  0  0  0  0
  1  2  1  0
  2  3  1  0
  3  4  2  0
  4  5  1  0
  5  6  1  0
  6  7  2  3
  7  8  1  0
  8  9  1  0
  9 10  2  0
  9 11  1  0
 11 12  1  0
 12 13  1  0
 13 14  2  0
 14 15  1  0
 15 16  2  0
 16 17  1  0
 17 18  1  0
 17 19  1  0
 17 20  1  0
 16 21  1  0
 21 22  2  0
 22 23  1  0
 11 24  1  0
 24 25  2  0
  5 26  2  0
 26 27  1  0
 27 28  2  0
 28 29  1  0
 28  3  1  0
 24  7  1  0
 22 13  1  0
  1 30  1  0
  1 31  1  0
  1 32  1  0
  4 33  1  0
  6 34  1  0
 12 35  1  0
 15 36  1  0
 21 37  1  0
 26 38  1  0
 27 39  1  0
 29 40  1  0
M  END
$$$$
