
     RDKit          3D

 54 57  0  0  0  0  0  0  0  0999 V2000
   -0.0225   -0.8490   -0.8471 O   0  0  0  0  0  0  0  0  0  0  0  0
   -0.2280   -1.3100   -1.9681 C   0  0  0  0  0  0  0  0  0  0  0  0
   -1.5358   -2.0331   -2.3199 C   0  0  0  0  0  0  0  0  0  0  0  0
   -2.5318   -1.9124   -1.3078 O   0  0  0  0  0  0  0  0  0  0  0  0
   -3.1009   -0.6843   -1.2368 C   0  0  0  0  0  0  0  0  0  0  0  0
   -2.9377    0.2187   -2.0417 O   0  0  0  0  0  0  0  0  0  0  0  0
   -3.9523   -0.5718   -0.0228 C   0  0  0  0  0  0  0  0  0  0  0  0
   -4.1838   -1.6598    0.8340 C   0  0  0  0  0  0  0  0  0  0  0  0
   -4.9776   -1.4997    1.9735 C   0  0  0  0  0  0  0  0  0  0  0  0
   -5.5430   -0.2589    2.2598 C   0  0  0  0  0  0  0  0  0  0  0  0
   -5.2984    0.8328    1.4198 C   0  0  0  0  0  0  0  0  0  0  0  0
   -4.5194    0.6761    0.2741 C   0  0  0  0  0  0  0  0  0  0  0  0
   -5.7979    2.0890    1.6577 O   0  0  0  0  0  0  0  0  0  0  0  0
   -6.2672    2.2180    3.0053 C   0  0  0  0  0  0  0  0  0  0  0  0
   -7.1064    1.0143    3.4012 C   0  0  0  0  0  0  0  0  0  0  0  0
   -6.3180   -0.1808    3.3887 O   0  0  0  0  0  0  0  0  0  0  0  0
    0.6792   -1.3079   -3.0221 N   0  0  0  0  0  0  0  0  0  0  0  0
    1.9518   -0.7008   -3.0227 C   0  0  0  0  0  0  0  0  0  0  0  0
    2.8517   -1.0760   -4.0223 C   0  0  0  0  0  0  0  0  0  0  0  0
    4.1470   -0.5493   -4.0519 C   0  0  0  0  0  0  0  0  0  0  0  0
    4.5493    0.3689   -3.0863 C   0  0  0  0  0  0  0  0  0  0  0  0
    3.6422    0.7664   -2.1036 C   0  0  0  0  0  0  0  0  0  0  0  0
    4.1091    1.9980   -0.9048 S   0  0  0  0  0  6  0  0  0  0  0  0
    2.9995    2.9135   -0.7682 O   0  0  0  0  0  0  0  0  0  0  0  0
    5.4245    2.4802   -1.2718 O   0  0  0  0  0  0  0  0  0  0  0  0
    4.2741    1.1374    0.5422 N   0  0  0  0  0  0  0  0  0  0  0  0
    3.0342    0.6257    1.1895 C   0  0  0  0  0  0  0  0  0  0  0  0
    3.3511    0.2467    2.6405 C   0  0  0  0  0  0  0  0  0  0  0  0
    4.3893   -0.7452    2.6963 O   0  0  0  0  0  0  0  0  0  0  0  0
    5.5929   -0.2420    2.0949 C   0  0  0  0  0  0  0  0  0  0  0  0
    5.3712    0.1389    0.6248 C   0  0  0  0  0  0  0  0  0  0  0  0
    2.3401    0.2581   -2.0880 C   0  0  0  0  0  0  0  0  0  0  0  0
   -1.9183   -1.6953   -3.2908 H   0  0  0  0  0  0  0  0  0  0  0  0
   -1.3025   -3.1000   -2.4086 H   0  0  0  0  0  0  0  0  0  0  0  0
   -3.7513   -2.6364    0.6286 H   0  0  0  0  0  0  0  0  0  0  0  0
   -5.1570   -2.3422    2.6331 H   0  0  0  0  0  0  0  0  0  0  0  0
   -4.3400    1.5318   -0.3715 H   0  0  0  0  0  0  0  0  0  0  0  0
   -5.4016    2.3410    3.6648 H   0  0  0  0  0  0  0  0  0  0  0  0
   -6.8654    3.1294    3.0614 H   0  0  0  0  0  0  0  0  0  0  0  0
   -7.4994    1.1427    4.4148 H   0  0  0  0  0  0  0  0  0  0  0  0
   -7.9546    0.8752    2.7217 H   0  0  0  0  0  0  0  0  0  0  0  0
    0.4529   -1.8767   -3.8280 H   0  0  0  0  0  0  0  0  0  0  0  0
    2.5691   -1.8020   -4.7785 H   0  0  0  0  0  0  0  0  0  0  0  0
    4.8386   -0.8533   -4.8302 H   0  0  0  0  0  0  0  0  0  0  0  0
    5.5549    0.7819   -3.1172 H   0  0  0  0  0  0  0  0  0  0  0  0
    2.2503    1.3870    1.1816 H   0  0  0  0  0  0  0  0  0  0  0  0
    2.6879   -0.2637    0.6526 H   0  0  0  0  0  0  0  0  0  0  0  0
    2.4623   -0.1772    3.1184 H   0  0  0  0  0  0  0  0  0  0  0  0
    3.6607    1.1235    3.2226 H   0  0  0  0  0  0  0  0  0  0  0  0
    6.3493   -1.0294    2.1666 H   0  0  0  0  0  0  0  0  0  0  0  0
    5.9472    0.6178    2.6761 H   0  0  0  0  0  0  0  0  0  0  0  0
    6.3010    0.5486    0.2231 H   0  0  0  0  0  0  0  0  0  0  0  0
    5.0923   -0.7495    0.0462 H   0  0  0  0  0  0  0  0  0  0  0  0
    1.6374    0.6449   -1.3569 H   0  0  0  0  0  0  0  0  0  0  0  0
  1  2  2  0
  2  3  1  0
  3  4  1  0
  4  5  1  0
  5  6  2  0
  5  7  1  0
  7  8  2  0
  8  9  1  0
  9 10  2  0
 10 11  1  0
 11 12  2  0
 11 13  1  0
 13 14  1  0
 14 15  1  0
 15 16  1  0
  2 17  1  0
 17 18  1  0
 18 19  2  0
 19 20  1  0
 20 21  2  0
 21 22  1  0
 22 23  1  0
 23 24  2  0
 23 25  2  0
 23 26  1  0
 26 27  1  0
 27 28  1  0
 28 29  1  0
 29 30  1  0
 30 31  1  0
 22 32  2  0
 12  7  1  0
 32 18  1  0
 16 10  1  0
 31 26  1  0
  3 33  1  0
  3 34  1  0
  8 35  1  0
  9 36  1  0
 12 37  1  0
 14 38  1  0
 14 39  1  0
 15 40  1  0
 15 41  1  0
 17 42  1  0
 19 43  1  0
 20 44  1  0
 21 45  1  0
 27 46  1  0
 27 47  1  0
 28 48  1  0
 28 49  1  0
 30 50  1  0
 30 51  1  0
 31 52  1  0
 31 53  1  0
 32 54  1  0
M  END
$$$$
