
     RDKit          3D

 28 30  0  0  0  0  0  0  0  0999 V2000
    1.3140   -0.8562   -4.5002 N   0  0  0  0  0  0  0  0  0  0  0  0
    0.8400   -0.4866   -3.5070 C   0  0  0  0  0  0  0  0  0  0  0  0
    0.2527    0.0043   -2.3039 C   0  0  0  0  0  0  0  0  0  0  0  0
   -0.7114    0.9462   -2.3661 C   0  0  0  0  0  0  0  0  0  0  0  0
   -1.4124    1.5640   -1.2314 C   0  0  0  0  0  0  0  0  0  0  0  0
   -2.1851    0.8111   -0.3471 C   0  0  0  0  0  0  0  0  0  0  0  0
   -2.8229    1.4667    0.6928 C   0  0  0  0  0  0  0  0  0  0  0  0
   -2.7513    2.7993    0.8960 N   0  0  0  0  0  0  0  0  0  0  0  0
   -2.0092    3.5083    0.0201 C   0  0  0  0  0  0  0  0  0  0  0  0
   -1.3317    2.9446   -1.0490 C   0  0  0  0  0  0  0  0  0  0  0  0
    0.7087   -0.5200   -1.0600 C   0  0  0  0  0  0  0  0  0  0  0  0
    0.1874   -1.5436   -0.4124 N   0  0  0  0  0  0  0  0  0  0  0  0
    0.8715   -1.7723    0.7699 C   0  0  0  0  0  0  0  0  0  0  0  0
    0.5808   -2.7818    1.7096 C   0  0  0  0  0  0  0  0  0  0  0  0
    1.3560   -2.8978    2.8680 C   0  0  0  0  0  0  0  0  0  0  0  0
    2.4128   -2.0230    3.0986 C   0  0  0  0  0  0  0  0  0  0  0  0
    2.7217   -1.0143    2.1808 C   0  0  0  0  0  0  0  0  0  0  0  0
    1.9362   -0.9074    1.0210 C   0  0  0  0  0  0  0  0  0  0  0  0
    2.0668    0.2120   -0.2776 S   0  0  0  0  0  0  0  0  0  0  0  0
   -1.0196    1.3346   -3.3372 H   0  0  0  0  0  0  0  0  0  0  0  0
   -2.2934   -0.2639   -0.4520 H   0  0  0  0  0  0  0  0  0  0  0  0
   -3.4280    0.9198    1.4104 H   0  0  0  0  0  0  0  0  0  0  0  0
   -1.9719    4.5780    0.2056 H   0  0  0  0  0  0  0  0  0  0  0  0
   -0.7524    3.5763   -1.7138 H   0  0  0  0  0  0  0  0  0  0  0  0
   -0.2437   -3.4636    1.5261 H   0  0  0  0  0  0  0  0  0  0  0  0
    1.1290   -3.6780    3.5910 H   0  0  0  0  0  0  0  0  0  0  0  0
    3.0082   -2.1240    4.0039 H   0  0  0  0  0  0  0  0  0  0  0  0
    3.5474   -0.3328    2.3623 H   0  0  0  0  0  0  0  0  0  0  0  0
  1  2  3  0
  2  3  1  0
  3  4  2  3
  4  5  1  0
  5  6  2  0
  6  7  1  0
  7  8  2  0
  8  9  1  0
  9 10  2  0
  3 11  1  0
 11 12  2  0
 12 13  1  0
 13 14  2  0
 14 15  1  0
 15 16  2  0
 16 17  1  0
 17 18  2  0
 18 19  1  0
 10  5  1  0
 19 11  1  0
 18 13  1  0
  4 20  1  0
  6 21  1  0
  7 22  1  0
  9 23  1  0
 10 24  1  0
 14 25  1  0
 15 26  1  0
 16 27  1  0
 17 28  1  0
M  END
$$$$
