
     RDKit          3D

 60 63  0  0  0  0  0  0  0  0999 V2000
    9.5212   -2.7171    1.1050 C   0  0  0  0  0  0  0  0  0  0  0  0
    9.1865   -1.3422    0.5514 C   0  0  0  0  0  0  0  0  0  0  0  0
    8.3987   -0.6028    1.4837 O   0  0  0  0  0  0  0  0  0  0  0  0
    7.0365   -0.6681    1.3795 C   0  0  0  0  0  0  0  0  0  0  0  0
    6.3110   -1.5557    0.5866 C   0  0  0  0  0  0  0  0  0  0  0  0
    4.9127   -1.5111    0.5775 C   0  0  0  0  0  0  0  0  0  0  0  0
    4.2165   -0.5924    1.3747 C   0  0  0  0  0  0  0  0  0  0  0  0
    2.7102   -0.5459    1.3439 C   0  0  0  0  0  0  0  0  0  0  0  0
    2.2214    0.5426    0.5297 N   0  0  0  0  0  0  0  0  0  0  0  0
    2.1239    0.4257   -0.8448 C   0  0  0  0  0  0  0  0  0  0  0  0
    2.4769   -0.5719   -1.4695 O   0  0  0  0  0  0  0  0  0  0  0  0
    1.4597    1.6264   -1.5160 C   0  0  0  0  0  0  0  0  0  0  0  0
    0.0268    1.3921   -1.6188 N   0  0  0  0  0  0  0  0  0  0  0  0
   -0.4597    1.0431   -2.8823 N   0  0  0  0  0  0  0  0  0  0  0  0
   -1.7262    0.7963   -3.0702 C   0  0  0  0  0  0  0  0  0  0  0  0
   -2.1836    0.4053   -4.4466 C   0  0  0  0  0  0  0  0  0  0  0  0
   -2.6406    0.9075   -1.9594 C   0  0  0  0  0  0  0  0  0  0  0  0
   -4.0126    0.7813   -1.8232 C   0  0  0  0  0  0  0  0  0  0  0  0
   -5.0641    0.6234   -2.8620 C   0  0  0  0  0  0  0  0  0  0  0  0
   -4.2588    0.8925   -0.4487 N   0  0  0  0  0  0  0  0  0  0  0  0
   -5.4350    0.6027    0.3099 C   0  0  0  0  0  0  0  0  0  0  0  0
   -6.4585   -0.2153   -0.1810 C   0  0  0  0  0  0  0  0  0  0  0  0
   -7.5858   -0.4879    0.6041 C   0  0  0  0  0  0  0  0  0  0  0  0
   -7.7083    0.0471    1.8910 C   0  0  0  0  0  0  0  0  0  0  0  0
   -8.9070   -0.2769    2.7330 C   0  0  0  0  0  0  0  0  0  0  0  0
   -6.6718    0.8362    2.3965 C   0  0  0  0  0  0  0  0  0  0  0  0
   -5.5438    1.1093    1.6159 C   0  0  0  0  0  0  0  0  0  0  0  0
   -3.1505    1.3388    0.2076 N   0  0  0  0  0  0  0  0  0  0  0  0
   -2.1678    1.2676   -0.6927 C   0  0  0  0  0  0  0  0  0  0  0  0
   -0.7582    1.5444   -0.4590 C   0  0  0  0  0  0  0  0  0  0  0  0
   -0.2841    1.8624    0.6325 O   0  0  0  0  0  0  0  0  0  0  0  0
    4.9488    0.2965    2.1685 C   0  0  0  0  0  0  0  0  0  0  0  0
    6.3472    0.2540    2.1745 C   0  0  0  0  0  0  0  0  0  0  0  0
   10.0538   -2.6215    2.0592 H   0  0  0  0  0  0  0  0  0  0  0  0
   10.1534   -3.2733    0.4054 H   0  0  0  0  0  0  0  0  0  0  0  0
    8.6189   -3.3033    1.3035 H   0  0  0  0  0  0  0  0  0  0  0  0
   10.1214   -0.7853    0.4203 H   0  0  0  0  0  0  0  0  0  0  0  0
    8.7296   -1.3902   -0.4430 H   0  0  0  0  0  0  0  0  0  0  0  0
    6.7944   -2.2969   -0.0416 H   0  0  0  0  0  0  0  0  0  0  0  0
    4.3646   -2.1928   -0.0727 H   0  0  0  0  0  0  0  0  0  0  0  0
    2.2943   -1.4908    0.9744 H   0  0  0  0  0  0  0  0  0  0  0  0
    2.3268   -0.4011    2.3611 H   0  0  0  0  0  0  0  0  0  0  0  0
    1.5701    1.1900    0.9703 H   0  0  0  0  0  0  0  0  0  0  0  0
    1.8954    1.7710   -2.5107 H   0  0  0  0  0  0  0  0  0  0  0  0
    1.6432    2.5340   -0.9303 H   0  0  0  0  0  0  0  0  0  0  0  0
   -2.8307   -0.4736   -4.3950 H   0  0  0  0  0  0  0  0  0  0  0  0
   -1.3240    0.1669   -5.0788 H   0  0  0  0  0  0  0  0  0  0  0  0
   -2.7279    1.2374   -4.8993 H   0  0  0  0  0  0  0  0  0  0  0  0
   -4.7752    1.1310   -3.7878 H   0  0  0  0  0  0  0  0  0  0  0  0
   -5.2269   -0.4334   -3.0951 H   0  0  0  0  0  0  0  0  0  0  0  0
   -6.0106    1.0823   -2.5604 H   0  0  0  0  0  0  0  0  0  0  0  0
   -6.4011   -0.7029   -1.1467 H   0  0  0  0  0  0  0  0  0  0  0  0
   -8.3653   -1.1363    0.2081 H   0  0  0  0  0  0  0  0  0  0  0  0
   -9.8222   -0.2257    2.1335 H   0  0  0  0  0  0  0  0  0  0  0  0
   -8.8090   -1.2832    3.1522 H   0  0  0  0  0  0  0  0  0  0  0  0
   -9.0144    0.4352    3.5580 H   0  0  0  0  0  0  0  0  0  0  0  0
   -6.7275    1.2432    3.4045 H   0  0  0  0  0  0  0  0  0  0  0  0
   -4.7571    1.7304    2.0425 H   0  0  0  0  0  0  0  0  0  0  0  0
    4.4386    1.0294    2.7892 H   0  0  0  0  0  0  0  0  0  0  0  0
    6.9056    0.9518    2.7941 H   0  0  0  0  0  0  0  0  0  0  0  0
  1  2  1  0
  2  3  1  0
  3  4  1  0
  4  5  2  0
  5  6  1  0
  6  7  2  0
  7  8  1  0
  8  9  1  0
  9 10  1  0
 10 11  2  0
 10 12  1  0
 12 13  1  0
 13 14  1  0
 14 15  2  0
 15 16  1  0
 15 17  1  0
 17 18  2  0
 18 19  1  0
 18 20  1  0
 20 21  1  0
 21 22  2  0
 22 23  1  0
 23 24  2  0
 24 25  1  0
 24 26  1  0
 26 27  2  0
 20 28  1  0
 28 29  2  0
 29 30  1  0
 30 31  2  0
  7 32  1  0
 32 33  2  0
 33  4  1  0
 30 13  1  0
 29 17  1  0
 27 21  1  0
  1 34  1  0
  1 35  1  0
  1 36  1  0
  2 37  1  0
  2 38  1  0
  5 39  1  0
  6 40  1  0
  8 41  1  0
  8 42  1  0
  9 43  1  0
 12 44  1  0
 12 45  1  0
 16 46  1  0
 16 47  1  0
 16 48  1  0
 19 49  1  0
 19 50  1  0
 19 51  1  0
 22 52  1  0
 23 53  1  0
 25 54  1  0
 25 55  1  0
 25 56  1  0
 26 57  1  0
 27 58  1  0
 32 59  1  0
 33 60  1  0
M  END
$$$$
