
     RDKit          3D

 53 57  0  0  0  0  0  0  0  0999 V2000
    6.5173    1.2630   -1.2250 C   0  0  0  0  0  0  0  0  0  0  0  0
    6.1172    0.1262   -0.4699 O   0  0  0  0  0  0  0  0  0  0  0  0
    4.9013    0.1969    0.1521 C   0  0  0  0  0  0  0  0  0  0  0  0
    4.0158    1.2721    0.1056 C   0  0  0  0  0  0  0  0  0  0  0  0
    2.7958    1.2106    0.7892 C   0  0  0  0  0  0  0  0  0  0  0  0
    2.4383    0.0708    1.5233 C   0  0  0  0  0  0  0  0  0  0  0  0
    1.1170    0.0045    2.2614 C   0  0  0  0  0  0  0  0  0  0  0  0
   -0.0433    0.0833    1.3632 N   0  0  0  0  0  0  0  0  0  0  0  0
   -0.5489   -0.9974    0.6739 C   0  0  0  0  0  0  0  0  0  0  0  0
    0.0655   -2.3280    0.8580 C   0  0  0  0  0  0  0  0  0  0  0  0
   -0.2885   -3.1105    1.9607 C   0  0  0  0  0  0  0  0  0  0  0  0
    0.2809   -4.3744    2.1126 C   0  0  0  0  0  0  0  0  0  0  0  0
    1.1829   -4.8532    1.1596 C   0  0  0  0  0  0  0  0  0  0  0  0
    1.5119   -4.0761    0.0467 C   0  0  0  0  0  0  0  0  0  0  0  0
    0.9460   -2.8117   -0.1124 C   0  0  0  0  0  0  0  0  0  0  0  0
   -1.5492   -0.9237   -0.1383 N   0  0  0  0  0  0  0  0  0  0  0  0
   -2.1723    0.2799   -0.3831 C   0  0  0  0  0  0  0  0  0  0  0  0
   -1.7668    1.4027    0.2476 C   0  0  0  0  0  0  0  0  0  0  0  0
   -2.4360    2.6924   -0.0536 C   0  0  0  0  0  0  0  0  0  0  0  0
   -2.0455    3.7692    0.3863 O   0  0  0  0  0  0  0  0  0  0  0  0
   -3.6219    2.6719   -0.9300 C   0  0  0  0  0  0  0  0  0  0  0  0
   -4.3393    3.8624   -1.1369 C   0  0  0  0  0  0  0  0  0  0  0  0
   -5.4601    3.8674   -1.9593 C   0  0  0  0  0  0  0  0  0  0  0  0
   -5.8600    2.6865   -2.5717 C   0  0  0  0  0  0  0  0  0  0  0  0
   -5.1378    1.5041   -2.3638 C   0  0  0  0  0  0  0  0  0  0  0  0
   -3.9976    1.4678   -1.5394 C   0  0  0  0  0  0  0  0  0  0  0  0
   -3.2367    0.3009   -1.3074 N   0  0  0  0  0  0  0  0  0  0  0  0
   -3.6479   -0.9195   -2.0111 C   0  0  0  0  0  0  0  0  0  0  0  0
   -0.6524    1.3179    1.2235 C   0  0  0  0  0  0  0  0  0  0  0  0
   -0.2985    2.2953    1.8807 O   0  0  0  0  0  0  0  0  0  0  0  0
    3.3419   -0.9978    1.5794 C   0  0  0  0  0  0  0  0  0  0  0  0
    4.5579   -0.9345    0.8940 C   0  0  0  0  0  0  0  0  0  0  0  0
    5.8286    1.4473   -2.0561 H   0  0  0  0  0  0  0  0  0  0  0  0
    7.5029    1.0511   -1.6508 H   0  0  0  0  0  0  0  0  0  0  0  0
    6.6140    2.1473   -0.5863 H   0  0  0  0  0  0  0  0  0  0  0  0
    4.2405    2.1771   -0.4490 H   0  0  0  0  0  0  0  0  0  0  0  0
    2.1293    2.0713    0.7483 H   0  0  0  0  0  0  0  0  0  0  0  0
    1.0579   -0.9179    2.8475 H   0  0  0  0  0  0  0  0  0  0  0  0
    1.0967    0.8162    2.9984 H   0  0  0  0  0  0  0  0  0  0  0  0
   -1.0052   -2.7444    2.6908 H   0  0  0  0  0  0  0  0  0  0  0  0
    0.0163   -4.9921    2.9675 H   0  0  0  0  0  0  0  0  0  0  0  0
    1.6230   -5.8409    1.2783 H   0  0  0  0  0  0  0  0  0  0  0  0
    2.2068   -4.4572   -0.6977 H   0  0  0  0  0  0  0  0  0  0  0  0
    1.1962   -2.2063   -0.9801 H   0  0  0  0  0  0  0  0  0  0  0  0
   -4.0221    4.7849   -0.6541 H   0  0  0  0  0  0  0  0  0  0  0  0
   -6.0167    4.7871   -2.1192 H   0  0  0  0  0  0  0  0  0  0  0  0
   -6.7369    2.6791   -3.2151 H   0  0  0  0  0  0  0  0  0  0  0  0
   -5.5021    0.6125   -2.8659 H   0  0  0  0  0  0  0  0  0  0  0  0
   -2.9526   -1.7537   -1.8699 H   0  0  0  0  0  0  0  0  0  0  0  0
   -3.6899   -0.7517   -3.0937 H   0  0  0  0  0  0  0  0  0  0  0  0
   -4.6275   -1.2581   -1.6552 H   0  0  0  0  0  0  0  0  0  0  0  0
    3.1081   -1.8949    2.1490 H   0  0  0  0  0  0  0  0  0  0  0  0
    5.2457   -1.7755    0.9402 H   0  0  0  0  0  0  0  0  0  0  0  0
  1  2  1  0
  2  3  1  0
  3  4  2  0
  4  5  1  0
  5  6  2  0
  6  7  1  0
  7  8  1  0
  8  9  1  0
  9 10  1  0
 10 11  2  0
 11 12  1  0
 12 13  2  0
 13 14  1  0
 14 15  2  0
  9 16  2  0
 16 17  1  0
 17 18  2  0
 18 19  1  0
 19 20  2  0
 19 21  1  0
 21 22  2  0
 22 23  1  0
 23 24  2  0
 24 25  1  0
 25 26  2  0
 26 27  1  0
 27 28  1  0
 18 29  1  0
 29 30  2  0
  6 31  1  0
 31 32  2  0
 32  3  1  0
 29  8  1  0
 15 10  1  0
 27 17  1  0
 26 21  1  0
  1 33  1  0
  1 34  1  0
  1 35  1  0
  4 36  1  0
  5 37  1  0
  7 38  1  0
  7 39  1  0
 11 40  1  0
 12 41  1  0
 13 42  1  0
 14 43  1  0
 15 44  1  0
 22 45  1  0
 23 46  1  0
 24 47  1  0
 25 48  1  0
 28 49  1  0
 28 50  1  0
 28 51  1  0
 31 52  1  0
 32 53  1  0
M  END
$$$$
