
     RDKit          3D

 57 60  0  0  0  0  0  0  0  0999 V2000
   -5.8354    2.6709   -0.9784 C   0  0  0  0  0  0  0  0  0  0  0  0
   -5.2329    2.8408    0.2980 O   0  0  0  0  0  0  0  0  0  0  0  0
   -4.2240    1.9800    0.6341 C   0  0  0  0  0  0  0  0  0  0  0  0
   -3.6580    2.2154    1.8886 C   0  0  0  0  0  0  0  0  0  0  0  0
   -2.6172    1.4168    2.3689 C   0  0  0  0  0  0  0  0  0  0  0  0
   -2.1304    0.3709    1.5897 C   0  0  0  0  0  0  0  0  0  0  0  0
   -1.0777   -0.4824    1.9845 N   0  0  0  0  0  0  0  0  0  0  0  0
   -0.3264   -0.4504    3.1426 C   0  0  0  0  0  0  0  0  0  0  0  0
   -0.4670    0.3437    4.0699 O   0  0  0  0  0  0  0  0  0  0  0  0
    0.7158   -1.5531    3.2270 C   0  0  0  0  0  0  0  0  0  0  0  0
    1.6571   -1.5008    2.1181 N   0  0  0  0  0  0  0  0  0  0  0  0
    2.7065   -0.6240    2.0539 C   0  0  0  0  0  0  0  0  0  0  0  0
    3.3232   -0.7908    0.8301 C   0  0  0  0  0  0  0  0  0  0  0  0
    4.6594    0.1569    0.2726 S   0  0  0  0  0  6  0  0  0  0  0  0
    5.2032   -0.5312   -0.8816 O   0  0  0  0  0  0  0  0  0  0  0  0
    5.4629    0.3591    1.4652 O   0  0  0  0  0  0  0  0  0  0  0  0
    3.9627    1.7281   -0.2058 C   0  0  0  0  0  0  0  0  0  0  0  0
    2.8167    1.5641   -1.1686 C   0  0  0  0  0  0  0  0  0  0  0  0
    3.0477    1.2407   -2.5133 C   0  0  0  0  0  0  0  0  0  0  0  0
    1.9800    1.0878   -3.3989 C   0  0  0  0  0  0  0  0  0  0  0  0
    0.6720    1.2648   -2.9536 C   0  0  0  0  0  0  0  0  0  0  0  0
    0.4299    1.5944   -1.6223 C   0  0  0  0  0  0  0  0  0  0  0  0
    1.4946    1.7431   -0.7331 C   0  0  0  0  0  0  0  0  0  0  0  0
    2.6379   -1.8273    0.1307 C   0  0  0  0  0  0  0  0  0  0  0  0
    2.7730   -2.4380   -1.1359 C   0  0  0  0  0  0  0  0  0  0  0  0
    1.9018   -3.4623   -1.5195 C   0  0  0  0  0  0  0  0  0  0  0  0
    0.8977   -3.8917   -0.6620 C   0  0  0  0  0  0  0  0  0  0  0  0
    0.7329   -3.3076    0.5957 C   0  0  0  0  0  0  0  0  0  0  0  0
    1.6073   -2.2724    0.9728 C   0  0  0  0  0  0  0  0  0  0  0  0
   -2.6985    0.1259    0.3203 C   0  0  0  0  0  0  0  0  0  0  0  0
   -2.1468   -0.9331   -0.3657 O   0  0  0  0  0  0  0  0  0  0  0  0
   -2.5773   -1.1426   -1.7046 C   0  0  0  0  0  0  0  0  0  0  0  0
   -3.7441    0.9293   -0.1505 C   0  0  0  0  0  0  0  0  0  0  0  0
   -5.1042    2.8101   -1.7814 H   0  0  0  0  0  0  0  0  0  0  0  0
   -6.3273    1.6956   -1.0553 H   0  0  0  0  0  0  0  0  0  0  0  0
   -6.6040    3.4416   -1.0908 H   0  0  0  0  0  0  0  0  0  0  0  0
   -4.0317    3.0312    2.5040 H   0  0  0  0  0  0  0  0  0  0  0  0
   -2.2131    1.6395    3.3508 H   0  0  0  0  0  0  0  0  0  0  0  0
   -0.8376   -1.1647    1.2680 H   0  0  0  0  0  0  0  0  0  0  0  0
    0.2261   -2.5303    3.2503 H   0  0  0  0  0  0  0  0  0  0  0  0
    1.2937   -1.4425    4.1514 H   0  0  0  0  0  0  0  0  0  0  0  0
    2.9262    0.0576    2.8676 H   0  0  0  0  0  0  0  0  0  0  0  0
    4.7648    2.3206   -0.6584 H   0  0  0  0  0  0  0  0  0  0  0  0
    3.6457    2.2420    0.7080 H   0  0  0  0  0  0  0  0  0  0  0  0
    4.0622    1.0946   -2.8819 H   0  0  0  0  0  0  0  0  0  0  0  0
    2.1710    0.8300   -4.4375 H   0  0  0  0  0  0  0  0  0  0  0  0
   -0.1577    1.1480   -3.6452 H   0  0  0  0  0  0  0  0  0  0  0  0
   -0.5892    1.7377   -1.2730 H   0  0  0  0  0  0  0  0  0  0  0  0
    1.2773    1.9983    0.3027 H   0  0  0  0  0  0  0  0  0  0  0  0
    3.5545   -2.1244   -1.8236 H   0  0  0  0  0  0  0  0  0  0  0  0
    2.0204   -3.9272   -2.4951 H   0  0  0  0  0  0  0  0  0  0  0  0
    0.2332   -4.6947   -0.9725 H   0  0  0  0  0  0  0  0  0  0  0  0
   -0.0574   -3.6597    1.2513 H   0  0  0  0  0  0  0  0  0  0  0  0
   -1.9880   -1.9661   -2.1195 H   0  0  0  0  0  0  0  0  0  0  0  0
   -3.6309   -1.4382   -1.7343 H   0  0  0  0  0  0  0  0  0  0  0  0
   -2.3962   -0.2582   -2.3243 H   0  0  0  0  0  0  0  0  0  0  0  0
   -4.1848    0.7343   -1.1187 H   0  0  0  0  0  0  0  0  0  0  0  0
  1  2  1  0
  2  3  1  0
  3  4  2  0
  4  5  1  0
  5  6  2  0
  6  7  1  0
  7  8  1  0
  8  9  2  0
  8 10  1  0
 10 11  1  0
 11 12  1  0
 12 13  2  0
 13 14  1  0
 14 15  2  0
 14 16  2  0
 14 17  1  0
 17 18  1  0
 18 19  2  0
 19 20  1  0
 20 21  2  0
 21 22  1  0
 22 23  2  0
 13 24  1  0
 24 25  2  0
 25 26  1  0
 26 27  2  0
 27 28  1  0
 28 29  2  0
  6 30  1  0
 30 31  1  0
 31 32  1  0
 30 33  2  0
 33  3  1  0
 29 11  1  0
 23 18  1  0
 29 24  1  0
  1 34  1  0
  1 35  1  0
  1 36  1  0
  4 37  1  0
  5 38  1  0
  7 39  1  0
 10 40  1  0
 10 41  1  0
 12 42  1  0
 17 43  1  0
 17 44  1  0
 19 45  1  0
 20 46  1  0
 21 47  1  0
 22 48  1  0
 23 49  1  0
 25 50  1  0
 26 51  1  0
 27 52  1  0
 28 53  1  0
 32 54  1  0
 32 55  1  0
 32 56  1  0
 33 57  1  0
M  END
$$$$
