
     RDKit          3D

 53 55  0  0  0  0  0  0  0  0999 V2000
    9.0072    0.2274   -0.8726 C   0  0  0  0  0  0  0  0  0  0  0  0
    8.4911    0.1425    0.4500 O   0  0  0  0  0  0  0  0  0  0  0  0
    7.1477   -0.0791    0.5780 C   0  0  0  0  0  0  0  0  0  0  0  0
    6.2292   -0.1794   -0.4699 C   0  0  0  0  0  0  0  0  0  0  0  0
    4.8763   -0.4057   -0.1983 C   0  0  0  0  0  0  0  0  0  0  0  0
    4.4458   -0.5251    1.1260 C   0  0  0  0  0  0  0  0  0  0  0  0
    2.7253   -0.8140    1.4499 S   0  0  0  0  0  6  0  0  0  0  0  0
    2.5568   -1.0355    2.8702 O   0  0  0  0  0  0  0  0  0  0  0  0
    2.2575   -1.7777    0.4793 O   0  0  0  0  0  0  0  0  0  0  0  0
    2.0370    0.6692    1.0851 N   0  0  0  0  0  0  0  0  0  0  0  0
    2.4151    1.8396    1.8793 C   0  0  0  0  0  0  0  0  0  0  0  0
    1.4059    2.8557    1.3998 C   0  0  0  0  0  0  0  0  0  0  0  0
    0.1976    2.1117    1.2281 O   0  0  0  0  0  0  0  0  0  0  0  0
    0.5661    0.7395    0.9237 C   0  0  0  0  0  0  0  0  0  0  0  0
   -0.2620   -0.1744    1.8602 C   0  0  0  0  0  0  0  0  0  0  0  0
   -1.6945    0.0675    1.7826 N   0  0  0  0  0  0  0  0  0  0  0  0
   -2.4228   -0.2658    0.6653 C   0  0  0  0  0  0  0  0  0  0  0  0
   -2.0106   -0.8978   -0.2966 O   0  0  0  0  0  0  0  0  0  0  0  0
   -3.8738    0.2662    0.6842 C   0  0  0  0  0  0  0  0  0  0  0  0
   -4.2452    1.0109    1.5803 O   0  0  0  0  0  0  0  0  0  0  0  0
   -4.6318   -0.1668   -0.3773 N   0  0  0  0  0  0  0  0  0  0  0  0
   -5.9297    0.3948   -0.6441 C   0  0  0  0  0  0  0  0  0  0  0  0
   -6.6906   -0.4362   -1.6418 C   0  0  0  0  0  0  0  0  0  0  0  0
   -7.5605   -1.4355   -1.1691 C   0  0  0  0  0  0  0  0  0  0  0  0
   -8.2755   -2.2427   -2.0559 C   0  0  0  0  0  0  0  0  0  0  0  0
   -8.1268   -2.0706   -3.4291 C   0  0  0  0  0  0  0  0  0  0  0  0
   -7.2579   -1.0948   -3.9155 C   0  0  0  0  0  0  0  0  0  0  0  0
   -6.5402   -0.2850   -3.0293 C   0  0  0  0  0  0  0  0  0  0  0  0
   -5.4621    0.8826   -3.7075 Cl  0  0  0  0  0  0  0  0  0  0  0  0
    5.3551   -0.4376    2.1804 C   0  0  0  0  0  0  0  0  0  0  0  0
    6.7034   -0.2098    1.8988 C   0  0  0  0  0  0  0  0  0  0  0  0
    8.5837    1.0846   -1.4062 H   0  0  0  0  0  0  0  0  0  0  0  0
    8.8394   -0.7042   -1.4231 H   0  0  0  0  0  0  0  0  0  0  0  0
   10.0882    0.3813   -0.8003 H   0  0  0  0  0  0  0  0  0  0  0  0
    6.5328   -0.0898   -1.5080 H   0  0  0  0  0  0  0  0  0  0  0  0
    4.1658   -0.4901   -1.0184 H   0  0  0  0  0  0  0  0  0  0  0  0
    3.4377    2.1717    1.6891 H   0  0  0  0  0  0  0  0  0  0  0  0
    2.2767    1.6409    2.9473 H   0  0  0  0  0  0  0  0  0  0  0  0
    1.6877    3.2778    0.4286 H   0  0  0  0  0  0  0  0  0  0  0  0
    1.2495    3.6709    2.1110 H   0  0  0  0  0  0  0  0  0  0  0  0
    0.3118    0.5624   -0.1265 H   0  0  0  0  0  0  0  0  0  0  0  0
   -0.0937   -1.2300    1.6266 H   0  0  0  0  0  0  0  0  0  0  0  0
    0.0122    0.0017    2.9058 H   0  0  0  0  0  0  0  0  0  0  0  0
   -2.1160    0.7617    2.3950 H   0  0  0  0  0  0  0  0  0  0  0  0
   -4.1253   -0.6445   -1.1189 H   0  0  0  0  0  0  0  0  0  0  0  0
   -6.4858    0.4659    0.2991 H   0  0  0  0  0  0  0  0  0  0  0  0
   -5.8007    1.4265   -0.9890 H   0  0  0  0  0  0  0  0  0  0  0  0
   -7.6826   -1.5920   -0.0983 H   0  0  0  0  0  0  0  0  0  0  0  0
   -8.9456   -3.0089   -1.6728 H   0  0  0  0  0  0  0  0  0  0  0  0
   -8.6811   -2.6999   -4.1208 H   0  0  0  0  0  0  0  0  0  0  0  0
   -7.1396   -0.9730   -4.9895 H   0  0  0  0  0  0  0  0  0  0  0  0
    5.0319   -0.5472    3.2128 H   0  0  0  0  0  0  0  0  0  0  0  0
    7.4197   -0.1398    2.7148 H   0  0  0  0  0  0  0  0  0  0  0  0
  1  2  1  0
  2  3  1  0
  3  4  2  0
  4  5  1  0
  5  6  2  0
  6  7  1  0
  7  8  2  0
  7  9  2  0
  7 10  1  0
 10 11  1  0
 11 12  1  0
 12 13  1  0
 13 14  1  0
 14 15  1  0
 15 16  1  0
 16 17  1  0
 17 18  2  0
 17 19  1  0
 19 20  2  0
 19 21  1  0
 21 22  1  0
 22 23  1  0
 23 24  2  0
 24 25  1  0
 25 26  2  0
 26 27  1  0
 27 28  2  0
 28 29  1  0
  6 30  1  0
 30 31  2  0
 31  3  1  0
 14 10  1  0
 28 23  1  0
  1 32  1  0
  1 33  1  0
  1 34  1  0
  4 35  1  0
  5 36  1  0
 11 37  1  0
 11 38  1  0
 12 39  1  0
 12 40  1  0
 14 41  1  0
 15 42  1  0
 15 43  1  0
 16 44  1  0
 21 45  1  0
 22 46  1  0
 22 47  1  0
 24 48  1  0
 25 49  1  0
 26 50  1  0
 27 51  1  0
 30 52  1  0
 31 53  1  0
M  END
$$$$
