
     RDKit          3D

 40 42  0  0  0  0  0  0  0  0999 V2000
    1.8905    0.9781   -1.3626 O   0  0  0  0  0  0  0  0  0  0  0  0
    2.1283    0.9561   -0.1579 C   0  0  0  0  0  0  0  0  0  0  0  0
    3.3815    0.3160    0.4169 C   0  0  0  0  0  0  0  0  0  0  0  0
    3.4206   -1.1811    0.2270 C   0  0  0  0  0  0  0  0  0  0  0  0
    4.4629   -1.7777   -0.4957 C   0  0  0  0  0  0  0  0  0  0  0  0
    4.5102   -3.1635   -0.6586 C   0  0  0  0  0  0  0  0  0  0  0  0
    3.5185   -3.9671   -0.1001 C   0  0  0  0  0  0  0  0  0  0  0  0
    2.4781   -3.3860    0.6214 C   0  0  0  0  0  0  0  0  0  0  0  0
    2.4296   -2.0008    0.7870 C   0  0  0  0  0  0  0  0  0  0  0  0
    1.2948    1.5162    0.7920 N   0  0  0  0  0  0  0  0  0  0  0  0
   -0.0483    1.9687    0.4469 C   0  0  0  0  0  0  0  0  0  0  0  0
   -1.1460    0.9849    0.9283 C   0  0  0  0  0  0  0  0  0  0  0  0
   -0.8325   -0.3738    0.5640 O   0  0  0  0  0  0  0  0  0  0  0  0
   -1.1416   -0.6590   -0.8017 C   0  0  0  0  0  0  0  0  0  0  0  0
   -2.6517   -0.6306   -0.9985 C   0  0  0  0  0  0  0  0  0  0  0  0
   -3.2406    0.6537   -0.4733 C   0  0  0  0  0  0  0  0  0  0  0  0
   -4.5178    1.0597   -0.8812 C   0  0  0  0  0  0  0  0  0  0  0  0
   -5.0870    2.2205   -0.3600 C   0  0  0  0  0  0  0  0  0  0  0  0
   -4.3915    2.9760    0.5807 C   0  0  0  0  0  0  0  0  0  0  0  0
   -3.1236    2.5732    1.0014 C   0  0  0  0  0  0  0  0  0  0  0  0
   -2.5342    1.4106    0.4798 C   0  0  0  0  0  0  0  0  0  0  0  0
    3.4783    0.5372    1.4865 H   0  0  0  0  0  0  0  0  0  0  0  0
    4.2383    0.7964   -0.0713 H   0  0  0  0  0  0  0  0  0  0  0  0
    5.2429   -1.1668   -0.9448 H   0  0  0  0  0  0  0  0  0  0  0  0
    5.3197   -3.6152   -1.2260 H   0  0  0  0  0  0  0  0  0  0  0  0
    3.5538   -5.0452   -0.2312 H   0  0  0  0  0  0  0  0  0  0  0  0
    1.6994   -4.0100    1.0521 H   0  0  0  0  0  0  0  0  0  0  0  0
    1.6025   -1.5685    1.3465 H   0  0  0  0  0  0  0  0  0  0  0  0
    1.4794    1.3171    1.7661 H   0  0  0  0  0  0  0  0  0  0  0  0
   -0.1824    2.9452    0.9255 H   0  0  0  0  0  0  0  0  0  0  0  0
   -0.1145    2.1271   -0.6349 H   0  0  0  0  0  0  0  0  0  0  0  0
   -1.1374    0.9819    2.0258 H   0  0  0  0  0  0  0  0  0  0  0  0
   -0.6358    0.0467   -1.4686 H   0  0  0  0  0  0  0  0  0  0  0  0
   -0.7563   -1.6579   -1.0309 H   0  0  0  0  0  0  0  0  0  0  0  0
   -2.8847   -0.7576   -2.0614 H   0  0  0  0  0  0  0  0  0  0  0  0
   -3.1092   -1.4571   -0.4413 H   0  0  0  0  0  0  0  0  0  0  0  0
   -5.0762    0.4700   -1.6047 H   0  0  0  0  0  0  0  0  0  0  0  0
   -6.0770    2.5316   -0.6830 H   0  0  0  0  0  0  0  0  0  0  0  0
   -4.8396    3.8777    0.9901 H   0  0  0  0  0  0  0  0  0  0  0  0
   -2.6013    3.1729    1.7435 H   0  0  0  0  0  0  0  0  0  0  0  0
  1  2  2  0
  2  3  1  0
  3  4  1  0
  4  5  2  0
  5  6  1  0
  6  7  2  0
  7  8  1  0
  8  9  2  0
  2 10  1  0
 10 11  1  0
 11 12  1  0
 12 13  1  0
 13 14  1  0
 14 15  1  0
 15 16  1  0
 16 17  2  0
 17 18  1  0
 18 19  2  0
 19 20  1  0
 20 21  2  0
  9  4  1  0
 21 12  1  0
 21 16  1  0
  3 22  1  0
  3 23  1  0
  5 24  1  0
  6 25  1  0
  7 26  1  0
  8 27  1  0
  9 28  1  0
 10 29  1  0
 11 30  1  0
 11 31  1  0
 12 32  1  0
 14 33  1  0
 14 34  1  0
 15 35  1  0
 15 36  1  0
 17 37  1  0
 18 38  1  0
 19 39  1  0
 20 40  1  0
M  END
$$$$
