
     RDKit          3D

 43 45  0  0  0  0  0  0  0  0999 V2000
    1.9879    2.1894    2.3777 O   0  0  0  0  0  0  0  0  0  0  0  0
    2.3078    1.0036    2.4353 C   0  0  0  0  0  0  0  0  0  0  0  0
    3.6217    0.6112    3.1022 C   0  0  0  0  0  0  0  0  0  0  0  0
    4.3893   -0.8963    2.4143 S   0  0  0  0  0  0  0  0  0  0  0  0
    4.6515   -0.3749    0.7254 C   0  0  0  0  0  0  0  0  0  0  0  0
    5.5525    0.6507    0.4222 C   0  0  0  0  0  0  0  0  0  0  0  0
    5.7485    1.0455   -0.9048 C   0  0  0  0  0  0  0  0  0  0  0  0
    5.0504    0.4163   -1.9364 C   0  0  0  0  0  0  0  0  0  0  0  0
    4.1583   -0.6134   -1.6438 C   0  0  0  0  0  0  0  0  0  0  0  0
    3.9683   -1.0042   -0.3213 C   0  0  0  0  0  0  0  0  0  0  0  0
    3.0978   -1.9939   -0.0642 F   0  0  0  0  0  0  0  0  0  0  0  0
    1.5439   -0.0641    2.0035 N   0  0  0  0  0  0  0  0  0  0  0  0
    0.2835   -0.0328    1.3784 C   0  0  0  0  0  0  0  0  0  0  0  0
   -0.2323   -1.2436    0.9171 C   0  0  0  0  0  0  0  0  0  0  0  0
   -1.4809   -1.2956    0.2797 C   0  0  0  0  0  0  0  0  0  0  0  0
   -2.2636   -0.1496    0.0821 C   0  0  0  0  0  0  0  0  0  0  0  0
   -3.4936   -0.2017   -0.5454 N   0  0  0  0  0  0  0  0  0  0  0  0
   -4.4923    0.8689   -0.3967 C   0  0  0  0  0  0  0  0  0  0  0  0
   -5.9089    0.3050   -0.6024 C   0  0  0  0  0  0  0  0  0  0  0  0
   -6.1175   -0.3114   -1.8808 O   0  0  0  0  0  0  0  0  0  0  0  0
   -4.9201   -0.8649   -2.4444 C   0  0  0  0  0  0  0  0  0  0  0  0
   -3.8923   -1.3315   -1.3994 C   0  0  0  0  0  0  0  0  0  0  0  0
   -1.7236    1.0539    0.5591 C   0  0  0  0  0  0  0  0  0  0  0  0
   -0.4732    1.1178    1.1959 C   0  0  0  0  0  0  0  0  0  0  0  0
    3.4198    0.4396    4.1644 H   0  0  0  0  0  0  0  0  0  0  0  0
    4.3263    1.4443    3.0191 H   0  0  0  0  0  0  0  0  0  0  0  0
    6.1144    1.1486    1.2089 H   0  0  0  0  0  0  0  0  0  0  0  0
    6.4484    1.8459   -1.1341 H   0  0  0  0  0  0  0  0  0  0  0  0
    5.2029    0.7282   -2.9668 H   0  0  0  0  0  0  0  0  0  0  0  0
    3.6076   -1.1118   -2.4351 H   0  0  0  0  0  0  0  0  0  0  0  0
    1.9947   -0.9736    2.0538 H   0  0  0  0  0  0  0  0  0  0  0  0
    0.3253   -2.1690    1.0387 H   0  0  0  0  0  0  0  0  0  0  0  0
   -1.8374   -2.2702   -0.0405 H   0  0  0  0  0  0  0  0  0  0  0  0
   -4.2904    1.6500   -1.1386 H   0  0  0  0  0  0  0  0  0  0  0  0
   -4.4531    1.3127    0.6041 H   0  0  0  0  0  0  0  0  0  0  0  0
   -6.6498    1.1040   -0.4983 H   0  0  0  0  0  0  0  0  0  0  0  0
   -6.1312   -0.4463    0.1651 H   0  0  0  0  0  0  0  0  0  0  0  0
   -4.4787   -0.1004   -3.0949 H   0  0  0  0  0  0  0  0  0  0  0  0
   -5.2155   -1.7041   -3.0821 H   0  0  0  0  0  0  0  0  0  0  0  0
   -3.0325   -1.7460   -1.9379 H   0  0  0  0  0  0  0  0  0  0  0  0
   -4.3286   -2.1163   -0.7704 H   0  0  0  0  0  0  0  0  0  0  0  0
   -2.2573    1.9908    0.4250 H   0  0  0  0  0  0  0  0  0  0  0  0
   -0.1281    2.0894    1.5333 H   0  0  0  0  0  0  0  0  0  0  0  0
  1  2  2  0
  2  3  1  0
  3  4  1  0
  4  5  1  0
  5  6  2  0
  6  7  1  0
  7  8  2  0
  8  9  1  0
  9 10  2  0
 10 11  1  0
  2 12  1  0
 12 13  1  0
 13 14  2  0
 14 15  1  0
 15 16  2  0
 16 17  1  0
 17 18  1  0
 18 19  1  0
 19 20  1  0
 20 21  1  0
 21 22  1  0
 16 23  1  0
 23 24  2  0
 10  5  1  0
 24 13  1  0
 22 17  1  0
  3 25  1  0
  3 26  1  0
  6 27  1  0
  7 28  1  0
  8 29  1  0
  9 30  1  0
 12 31  1  0
 14 32  1  0
 15 33  1  0
 18 34  1  0
 18 35  1  0
 19 36  1  0
 19 37  1  0
 21 38  1  0
 21 39  1  0
 22 40  1  0
 22 41  1  0
 23 42  1  0
 24 43  1  0
M  END
$$$$
