
     RDKit          3D

 44 46  0  0  0  0  0  0  0  0999 V2000
    7.3164    4.7196    2.8803 C   0  0  0  0  0  0  0  0  0  0  0  0
    7.1215    4.1424    1.5952 O   0  0  0  0  0  0  0  0  0  0  0  0
    5.9397    3.4895    1.3836 C   0  0  0  0  0  0  0  0  0  0  0  0
    5.7950    2.9404    0.1093 C   0  0  0  0  0  0  0  0  0  0  0  0
    4.6333    2.2442   -0.2433 C   0  0  0  0  0  0  0  0  0  0  0  0
    3.5880    2.0823    0.6755 C   0  0  0  0  0  0  0  0  0  0  0  0
    2.3792    1.3552    0.3020 C   0  0  0  0  0  0  0  0  0  0  0  0
    1.9424    0.7151   -0.8338 C   0  0  0  0  0  0  0  0  0  0  0  0
    0.6574    0.2153   -0.5054 C   0  0  0  0  0  0  0  0  0  0  0  0
   -0.2494   -0.5507   -1.3694 C   0  0  0  0  0  0  0  0  0  0  0  0
    0.0654   -0.8317   -2.5203 O   0  0  0  0  0  0  0  0  0  0  0  0
   -1.4319   -0.8859   -0.7345 N   0  0  0  0  0  0  0  0  0  0  0  0
   -2.5250   -1.6099   -1.2454 C   0  0  0  0  0  0  0  0  0  0  0  0
   -2.5786   -2.1238   -2.5388 C   0  0  0  0  0  0  0  0  0  0  0  0
   -3.7025   -2.8350   -2.9750 C   0  0  0  0  0  0  0  0  0  0  0  0
   -4.7890   -3.0416   -2.1217 C   0  0  0  0  0  0  0  0  0  0  0  0
   -5.9283   -3.7253   -2.4651 O   0  0  0  0  0  0  0  0  0  0  0  0
   -6.0048   -4.2588   -3.7792 C   0  0  0  0  0  0  0  0  0  0  0  0
   -4.7443   -2.5260   -0.8126 C   0  0  0  0  0  0  0  0  0  0  0  0
   -5.8487   -2.7690   -0.0326 O   0  0  0  0  0  0  0  0  0  0  0  0
   -5.8477   -2.2664    1.2953 C   0  0  0  0  0  0  0  0  0  0  0  0
   -3.6138   -1.8154   -0.3864 C   0  0  0  0  0  0  0  0  0  0  0  0
    0.3321    0.5346    0.7601 N   0  0  0  0  0  0  0  0  0  0  0  0
    1.4100    1.2448    1.2565 O   0  0  0  0  0  0  0  0  0  0  0  0
    3.7439    2.6385    1.9541 C   0  0  0  0  0  0  0  0  0  0  0  0
    4.9081    3.3359    2.3067 C   0  0  0  0  0  0  0  0  0  0  0  0
    8.3001    5.1988    2.8857 H   0  0  0  0  0  0  0  0  0  0  0  0
    7.3153    3.9525    3.6618 H   0  0  0  0  0  0  0  0  0  0  0  0
    6.5681    5.4928    3.0833 H   0  0  0  0  0  0  0  0  0  0  0  0
    6.5949    3.0549   -0.6187 H   0  0  0  0  0  0  0  0  0  0  0  0
    4.5653    1.8337   -1.2477 H   0  0  0  0  0  0  0  0  0  0  0  0
    2.4593    0.6105   -1.7762 H   0  0  0  0  0  0  0  0  0  0  0  0
   -1.4972   -0.5559    0.2247 H   0  0  0  0  0  0  0  0  0  0  0  0
   -1.7623   -1.9921   -3.2422 H   0  0  0  0  0  0  0  0  0  0  0  0
   -3.6927   -3.2137   -3.9917 H   0  0  0  0  0  0  0  0  0  0  0  0
   -5.2199   -5.0028   -3.9501 H   0  0  0  0  0  0  0  0  0  0  0  0
   -5.9688   -3.4639   -4.5313 H   0  0  0  0  0  0  0  0  0  0  0  0
   -6.9695   -4.7658   -3.8785 H   0  0  0  0  0  0  0  0  0  0  0  0
   -5.0404   -2.7118    1.8857 H   0  0  0  0  0  0  0  0  0  0  0  0
   -6.7957   -2.5512    1.7616 H   0  0  0  0  0  0  0  0  0  0  0  0
   -5.7889   -1.1731    1.3039 H   0  0  0  0  0  0  0  0  0  0  0  0
   -3.5660   -1.4129    0.6193 H   0  0  0  0  0  0  0  0  0  0  0  0
    2.9583    2.5380    2.7009 H   0  0  0  0  0  0  0  0  0  0  0  0
    4.9718    3.7439    3.3100 H   0  0  0  0  0  0  0  0  0  0  0  0
  1  2  1  0
  2  3  1  0
  3  4  2  0
  4  5  1  0
  5  6  2  0
  6  7  1  0
  7  8  2  0
  8  9  1  0
  9 10  1  0
 10 11  2  0
 10 12  1  0
 12 13  1  0
 13 14  2  0
 14 15  1  0
 15 16  2  0
 16 17  1  0
 17 18  1  0
 16 19  1  0
 19 20  1  0
 20 21  1  0
 19 22  2  0
  9 23  2  0
 23 24  1  0
  6 25  1  0
 25 26  2  0
 26  3  1  0
 24  7  1  0
 22 13  1  0
  1 27  1  0
  1 28  1  0
  1 29  1  0
  4 30  1  0
  5 31  1  0
  8 32  1  0
 12 33  1  0
 14 34  1  0
 15 35  1  0
 18 36  1  0
 18 37  1  0
 18 38  1  0
 21 39  1  0
 21 40  1  0
 21 41  1  0
 22 42  1  0
 25 43  1  0
 26 44  1  0
M  END
$$$$
