
     RDKit          3D

 55 57  0  0  0  0  0  0  0  0999 V2000
   -2.7318    0.2509    2.9808 C   0  0  0  0  0  0  0  0  0  0  0  0
   -2.7792   -0.2359    1.6435 O   0  0  0  0  0  0  0  0  0  0  0  0
   -4.0159   -0.3111    1.0557 C   0  0  0  0  0  0  0  0  0  0  0  0
   -5.2251    0.0481    1.6563 C   0  0  0  0  0  0  0  0  0  0  0  0
   -6.4381   -0.0767    0.9541 C   0  0  0  0  0  0  0  0  0  0  0  0
   -7.6974    0.3369    1.6455 C   0  0  0  0  0  0  0  0  0  0  0  0
   -9.0168    0.1673    0.9331 C   0  0  0  0  0  0  0  0  0  0  0  0
   -7.6432    0.8164    2.7778 O   0  0  0  0  0  0  0  0  0  0  0  0
   -6.4391   -0.5734   -0.3574 C   0  0  0  0  0  0  0  0  0  0  0  0
   -5.2358   -0.9325   -0.9645 C   0  0  0  0  0  0  0  0  0  0  0  0
   -4.0387   -0.7818   -0.2648 C   0  0  0  0  0  0  0  0  0  0  0  0
   -2.8677   -1.1391   -0.8875 O   0  0  0  0  0  0  0  0  0  0  0  0
   -2.3341   -0.0077   -1.5881 C   0  0  0  0  0  0  0  0  0  0  0  0
   -0.8125   -0.1046   -1.6846 C   0  0  0  0  0  0  0  0  0  0  0  0
   -0.1965    0.5460   -2.5258 O   0  0  0  0  0  0  0  0  0  0  0  0
   -0.2617   -0.9307   -0.7199 N   0  0  0  0  0  0  0  0  0  0  0  0
    1.0970   -1.2176   -0.4960 C   0  0  0  0  0  0  0  0  0  0  0  0
    1.3973   -2.1247    0.5267 C   0  0  0  0  0  0  0  0  0  0  0  0
    2.7244   -2.4612    0.8138 C   0  0  0  0  0  0  0  0  0  0  0  0
    3.7765   -1.8858    0.0937 C   0  0  0  0  0  0  0  0  0  0  0  0
    5.3722   -2.3599    0.5402 Cl  0  0  0  0  0  0  0  0  0  0  0  0
    3.4824   -0.9723   -0.9192 C   0  0  0  0  0  0  0  0  0  0  0  0
    4.7655   -0.1834   -1.8544 S   0  0  0  0  0  6  0  0  0  0  0  0
    4.1687    0.8444   -2.6869 O   0  0  0  0  0  0  0  0  0  0  0  0
    5.5921   -1.2186   -2.4409 O   0  0  0  0  0  0  0  0  0  0  0  0
    5.6680    0.6457   -0.6690 N   0  0  0  0  0  0  0  0  0  0  0  0
    4.9589    1.7677    0.0343 C   0  0  0  0  0  0  0  0  0  0  0  0
    5.4863    3.1324   -0.4261 C   0  0  0  0  0  0  0  0  0  0  0  0
    6.8850    3.3119   -0.1526 O   0  0  0  0  0  0  0  0  0  0  0  0
    7.6354    2.0877   -0.1985 C   0  0  0  0  0  0  0  0  0  0  0  0
    7.0316    1.0451   -1.1452 C   0  0  0  0  0  0  0  0  0  0  0  0
    2.1456   -0.6493   -1.2212 C   0  0  0  0  0  0  0  0  0  0  0  0
   -3.0669    1.2927    3.0323 H   0  0  0  0  0  0  0  0  0  0  0  0
   -3.3095   -0.3895    3.6567 H   0  0  0  0  0  0  0  0  0  0  0  0
   -1.6883    0.2180    3.3086 H   0  0  0  0  0  0  0  0  0  0  0  0
   -5.2574    0.4331    2.6714 H   0  0  0  0  0  0  0  0  0  0  0  0
   -9.8283    0.4574    1.6080 H   0  0  0  0  0  0  0  0  0  0  0  0
   -9.0585    0.8167    0.0540 H   0  0  0  0  0  0  0  0  0  0  0  0
   -9.1698   -0.8811    0.6559 H   0  0  0  0  0  0  0  0  0  0  0  0
   -7.3554   -0.6903   -0.9267 H   0  0  0  0  0  0  0  0  0  0  0  0
   -5.2286   -1.3255   -1.9785 H   0  0  0  0  0  0  0  0  0  0  0  0
   -2.5590    0.9452   -1.0833 H   0  0  0  0  0  0  0  0  0  0  0  0
   -2.7455   -0.0089   -2.6070 H   0  0  0  0  0  0  0  0  0  0  0  0
   -0.9415   -1.3609   -0.0956 H   0  0  0  0  0  0  0  0  0  0  0  0
    0.6043   -2.5913    1.1086 H   0  0  0  0  0  0  0  0  0  0  0  0
    2.9307   -3.1794    1.6076 H   0  0  0  0  0  0  0  0  0  0  0  0
    3.8767    1.7192   -0.1184 H   0  0  0  0  0  0  0  0  0  0  0  0
    5.1361    1.6359    1.1092 H   0  0  0  0  0  0  0  0  0  0  0  0
    5.3309    3.2750   -1.5060 H   0  0  0  0  0  0  0  0  0  0  0  0
    4.9480    3.9367    0.0904 H   0  0  0  0  0  0  0  0  0  0  0  0
    8.6521    2.3421   -0.5112 H   0  0  0  0  0  0  0  0  0  0  0  0
    7.6963    1.6942    0.8228 H   0  0  0  0  0  0  0  0  0  0  0  0
    7.6713    0.1551   -1.1721 H   0  0  0  0  0  0  0  0  0  0  0  0
    6.9625    1.4676   -2.1559 H   0  0  0  0  0  0  0  0  0  0  0  0
    1.9467    0.0567   -2.0241 H   0  0  0  0  0  0  0  0  0  0  0  0
  1  2  1  0
  2  3  1  0
  3  4  2  0
  4  5  1  0
  5  6  1  0
  6  7  1  0
  6  8  2  0
  5  9  2  0
  9 10  1  0
 10 11  2  0
 11 12  1  0
 12 13  1  0
 13 14  1  0
 14 15  2  0
 14 16  1  0
 16 17  1  0
 17 18  2  0
 18 19  1  0
 19 20  2  0
 20 21  1  0
 20 22  1  0
 22 23  1  0
 23 24  2  0
 23 25  2  0
 23 26  1  0
 26 27  1  0
 27 28  1  0
 28 29  1  0
 29 30  1  0
 30 31  1  0
 22 32  2  0
 11  3  1  0
 32 17  1  0
 31 26  1  0
  1 33  1  0
  1 34  1  0
  1 35  1  0
  4 36  1  0
  7 37  1  0
  7 38  1  0
  7 39  1  0
  9 40  1  0
 10 41  1  0
 13 42  1  0
 13 43  1  0
 16 44  1  0
 18 45  1  0
 19 46  1  0
 27 47  1  0
 27 48  1  0
 28 49  1  0
 28 50  1  0
 30 51  1  0
 30 52  1  0
 31 53  1  0
 31 54  1  0
 32 55  1  0
M  END
$$$$
