
     RDKit          3D

 42 44  0  0  0  0  0  0  0  0999 V2000
   -3.3668    0.5884   -2.4351 C   0  0  0  0  0  0  0  0  0  0  0  0
   -3.7196    0.3036   -0.9979 C   0  0  0  0  0  0  0  0  0  0  0  0
   -5.0629    0.4779   -0.6106 C   0  0  0  0  0  0  0  0  0  0  0  0
   -5.4751    0.1926    0.6876 C   0  0  0  0  0  0  0  0  0  0  0  0
   -4.5445   -0.2668    1.6071 C   0  0  0  0  0  0  0  0  0  0  0  0
   -5.0374   -0.6264    3.2168 Cl  0  0  0  0  0  0  0  0  0  0  0  0
   -3.2057   -0.4295    1.2437 C   0  0  0  0  0  0  0  0  0  0  0  0
   -2.7565   -0.1324   -0.0553 C   0  0  0  0  0  0  0  0  0  0  0  0
   -1.4075   -0.2609   -0.4082 N   0  0  0  0  0  0  0  0  0  0  0  0
   -0.7188    1.0000   -0.7648 C   0  0  0  0  0  0  0  0  0  0  0  0
    0.6722    1.1026   -0.0974 C   0  0  0  0  0  0  0  0  0  0  0  0
    1.5300   -0.0690   -0.4363 N   0  0  0  0  0  0  0  0  0  0  0  0
    2.7358   -0.0891    0.2679 C   0  0  0  0  0  0  0  0  0  0  0  0
    2.7997   -0.2476    1.6624 C   0  0  0  0  0  0  0  0  0  0  0  0
    4.0257   -0.2651    2.3164 C   0  0  0  0  0  0  0  0  0  0  0  0
    5.1867   -0.1266    1.5750 C   0  0  0  0  0  0  0  0  0  0  0  0
    5.0972    0.0244    0.1983 C   0  0  0  0  0  0  0  0  0  0  0  0
    3.8980    0.0397   -0.4258 N   0  0  0  0  0  4  0  0  0  0  0  0
    3.8482    0.1962   -1.8907 C   0  0  0  0  0  0  0  0  0  0  0  0
    0.8024   -1.3757   -0.4210 C   0  0  0  0  0  0  0  0  0  0  0  0
   -0.5864   -1.2890    0.2511 C   0  0  0  0  0  0  0  0  0  0  0  0
   -4.2487    0.5111   -3.0807 H   0  0  0  0  0  0  0  0  0  0  0  0
   -2.9617    1.6001   -2.5315 H   0  0  0  0  0  0  0  0  0  0  0  0
   -2.6402   -0.1374   -2.8141 H   0  0  0  0  0  0  0  0  0  0  0  0
   -5.8016    0.8250   -1.3313 H   0  0  0  0  0  0  0  0  0  0  0  0
   -6.5166    0.3239    0.9682 H   0  0  0  0  0  0  0  0  0  0  0  0
   -2.5145   -0.7689    2.0074 H   0  0  0  0  0  0  0  0  0  0  0  0
   -0.5885    1.0251   -1.8530 H   0  0  0  0  0  0  0  0  0  0  0  0
   -1.3053    1.8810   -0.4754 H   0  0  0  0  0  0  0  0  0  0  0  0
    0.5339    1.1894    0.9881 H   0  0  0  0  0  0  0  0  0  0  0  0
    1.1658    2.0189   -0.4431 H   0  0  0  0  0  0  0  0  0  0  0  0
    1.8898   -0.3598    2.2474 H   0  0  0  0  0  0  0  0  0  0  0  0
    4.0720   -0.3867    3.3976 H   0  0  0  0  0  0  0  0  0  0  0  0
    6.1576   -0.1376    2.0659 H   0  0  0  0  0  0  0  0  0  0  0  0
    5.9877    0.1333   -0.4143 H   0  0  0  0  0  0  0  0  0  0  0  0
    3.2843    1.1042   -2.1205 H   0  0  0  0  0  0  0  0  0  0  0  0
    4.8608    0.2899   -2.2914 H   0  0  0  0  0  0  0  0  0  0  0  0
    3.3731   -0.6923   -2.3150 H   0  0  0  0  0  0  0  0  0  0  0  0
    1.3924   -2.1673    0.0583 H   0  0  0  0  0  0  0  0  0  0  0  0
    0.6702   -1.6764   -1.4680 H   0  0  0  0  0  0  0  0  0  0  0  0
   -0.4485   -1.0558    1.3136 H   0  0  0  0  0  0  0  0  0  0  0  0
   -1.0768   -2.2667    0.1746 H   0  0  0  0  0  0  0  0  0  0  0  0
  1  2  1  0
  2  3  2  0
  3  4  1  0
  4  5  2  0
  5  6  1  0
  5  7  1  0
  7  8  2  0
  8  9  1  0
  9 10  1  0
 10 11  1  0
 11 12  1  0
 12 13  1  0
 13 14  2  0
 14 15  1  0
 15 16  2  0
 16 17  1  0
 17 18  2  0
 18 19  1  0
 12 20  1  0
 20 21  1  0
  8  2  1  0
 21  9  1  0
 18 13  1  0
  1 22  1  0
  1 23  1  0
  1 24  1  0
  3 25  1  0
  4 26  1  0
  7 27  1  0
 10 28  1  0
 10 29  1  0
 11 30  1  0
 11 31  1  0
 14 32  1  0
 15 33  1  0
 16 34  1  0
 17 35  1  0
 19 36  1  0
 19 37  1  0
 19 38  1  0
 20 39  1  0
 20 40  1  0
 21 41  1  0
 21 42  1  0
M  CHG  1  18   1
M  END
$$$$
