
     RDKit          3D

 36 35  0  0  0  0  0  0  0  0999 V2000
    1.3869   -2.1340    0.6049 C   0  0  0  0  0  0  0  0  0  0  0  0
    2.0558   -2.2765   -0.7561 C   0  0  0  0  0  0  0  0  0  0  0  0
    1.6007   -1.2606   -1.7251 N   0  0  0  0  0  0  0  0  0  0  0  0
    2.5589   -0.1666   -1.9767 C   0  0  0  0  0  0  0  0  0  0  0  0
    2.5693    0.8786   -0.8767 C   0  0  0  0  0  0  0  0  0  0  0  0
    0.3528   -1.3710   -2.3787 C   0  0  0  0  0  0  0  0  0  0  0  0
   -0.5770   -2.7837   -2.4294 S   0  0  0  0  0  0  0  0  0  0  0  0
   -0.2097    0.0697   -3.2562 S   0  0  0  0  0  0  0  0  0  0  0  0
   -2.0011    0.5386   -2.3368 S   0  0  0  0  0  0  0  0  0  0  0  0
   -1.5120    1.6215   -1.0148 C   0  0  0  0  0  0  0  0  0  0  0  0
   -0.9695    3.1739   -1.4082 S   0  0  0  0  0  0  0  0  0  0  0  0
   -1.6810    1.1341    0.3004 N   0  0  0  0  0  0  0  0  0  0  0  0
   -2.1596   -0.2231    0.6168 C   0  0  0  0  0  0  0  0  0  0  0  0
   -3.6756   -0.2866    0.7370 C   0  0  0  0  0  0  0  0  0  0  0  0
   -1.4539    1.9875    1.4818 C   0  0  0  0  0  0  0  0  0  0  0  0
   -0.0346    1.8676    2.0155 C   0  0  0  0  0  0  0  0  0  0  0  0
    1.7820   -2.8838    1.2976 H   0  0  0  0  0  0  0  0  0  0  0  0
    1.5671   -1.1460    1.0373 H   0  0  0  0  0  0  0  0  0  0  0  0
    0.3042   -2.2723    0.5435 H   0  0  0  0  0  0  0  0  0  0  0  0
    1.8741   -3.2783   -1.1572 H   0  0  0  0  0  0  0  0  0  0  0  0
    3.1417   -2.1937   -0.6326 H   0  0  0  0  0  0  0  0  0  0  0  0
    2.3617    0.3138   -2.9379 H   0  0  0  0  0  0  0  0  0  0  0  0
    3.5576   -0.6080   -2.0791 H   0  0  0  0  0  0  0  0  0  0  0  0
    3.2242    1.7116   -1.1502 H   0  0  0  0  0  0  0  0  0  0  0  0
    2.9381    0.4613    0.0645 H   0  0  0  0  0  0  0  0  0  0  0  0
    1.5670    1.2713   -0.6996 H   0  0  0  0  0  0  0  0  0  0  0  0
   -1.7004   -0.5427    1.5596 H   0  0  0  0  0  0  0  0  0  0  0  0
   -1.8183   -0.9349   -0.1351 H   0  0  0  0  0  0  0  0  0  0  0  0
   -4.1677    0.0227   -0.1898 H   0  0  0  0  0  0  0  0  0  0  0  0
   -3.9937   -1.3082    0.9672 H   0  0  0  0  0  0  0  0  0  0  0  0
   -4.0365    0.3688    1.5361 H   0  0  0  0  0  0  0  0  0  0  0  0
   -1.6753    3.0337    1.2526 H   0  0  0  0  0  0  0  0  0  0  0  0
   -2.1647    1.6965    2.2638 H   0  0  0  0  0  0  0  0  0  0  0  0
    0.6978    2.2204    1.2849 H   0  0  0  0  0  0  0  0  0  0  0  0
    0.0796    2.4690    2.9229 H   0  0  0  0  0  0  0  0  0  0  0  0
    0.2111    0.8298    2.2615 H   0  0  0  0  0  0  0  0  0  0  0  0
  1  2  1  0
  2  3  1  0
  3  4  1  0
  4  5  1  0
  3  6  1  0
  6  7  2  0
  6  8  1  0
  8  9  1  0
  9 10  1  0
 10 11  2  0
 10 12  1  0
 12 13  1  0
 13 14  1  0
 12 15  1  0
 15 16  1  0
  1 17  1  0
  1 18  1  0
  1 19  1  0
  2 20  1  0
  2 21  1  0
  4 22  1  0
  4 23  1  0
  5 24  1  0
  5 25  1  0
  5 26  1  0
 13 27  1  0
 13 28  1  0
 14 29  1  0
 14 30  1  0
 14 31  1  0
 15 32  1  0
 15 33  1  0
 16 34  1  0
 16 35  1  0
 16 36  1  0
M  END
$$$$
