
     RDKit          3D

 56 61  0  0  0  0  0  0  0  0999 V2000
    7.0602    1.2267   -3.1599 C   0  0  0  0  0  0  0  0  0  0  0  0
    5.8477    0.7566   -2.4101 C   0  0  0  0  0  0  0  0  0  0  0  0
    5.9381    0.4702   -1.0442 C   0  0  0  0  0  0  0  0  0  0  0  0
    4.8160    0.0386   -0.3300 C   0  0  0  0  0  0  0  0  0  0  0  0
    3.5887   -0.1111   -0.9759 C   0  0  0  0  0  0  0  0  0  0  0  0
    2.3204   -0.5944   -0.1863 C   0  0  0  0  0  0  0  0  0  0  0  0
    1.0293   -0.7011   -0.6873 C   0  0  0  0  0  0  0  0  0  0  0  0
    0.1785   -1.1263    0.3337 N   0  0  0  0  0  4  0  0  0  0  0  0
   -1.2668   -1.3803    0.2211 C   0  0  0  0  0  0  0  0  0  0  0  0
   -2.0969   -0.4478    1.1183 C   0  0  0  0  0  0  0  0  0  0  0  0
   -1.8131   -0.3038    2.3081 O   0  0  0  0  0  0  0  0  0  0  0  0
   -3.1927    0.1258    0.4655 N   0  0  0  0  0  0  0  0  0  0  0  0
   -4.5359   -0.1076    0.9339 C   0  0  0  0  0  0  0  0  0  0  0  0
   -4.7594   -0.6745    2.2061 C   0  0  0  0  0  0  0  0  0  0  0  0
   -6.0487   -0.9240    2.6896 C   0  0  0  0  0  0  0  0  0  0  0  0
   -7.1526   -0.6276    1.9065 C   0  0  0  0  0  0  0  0  0  0  0  0
   -6.9626   -0.0918    0.6377 C   0  0  0  0  0  0  0  0  0  0  0  0
   -5.6694    0.1645    0.1468 C   0  0  0  0  0  0  0  0  0  0  0  0
   -5.5742    0.7231   -1.5336 S   0  0  0  0  0  0  0  0  0  0  0  0
   -3.9435    1.4005   -1.5524 C   0  0  0  0  0  0  0  0  0  0  0  0
   -3.6431    2.2991   -2.5910 C   0  0  0  0  0  0  0  0  0  0  0  0
   -2.3836    2.8842   -2.6930 C   0  0  0  0  0  0  0  0  0  0  0  0
   -1.4138    2.5846   -1.7487 C   0  0  0  0  0  0  0  0  0  0  0  0
   -1.7030    1.6845   -0.7196 C   0  0  0  0  0  0  0  0  0  0  0  0
   -2.9639    1.0540   -0.6127 C   0  0  0  0  0  0  0  0  0  0  0  0
    0.9203   -1.2974    1.4262 C   0  0  0  0  0  0  0  0  0  0  0  0
    2.1857   -1.0129    1.1243 N   0  0  0  0  0  0  0  0  0  0  0  0
    3.0780   -1.2540    2.2512 C   0  0  0  0  0  0  0  0  0  0  0  0
    2.2048   -2.0872    3.2274 C   0  0  0  0  0  0  0  0  0  0  0  0
    0.7527   -1.7647    2.8238 C   0  0  0  0  0  0  0  0  0  0  0  0
    3.4896    0.1858   -2.3403 C   0  0  0  0  0  0  0  0  0  0  0  0
    4.6139    0.6166   -3.0512 C   0  0  0  0  0  0  0  0  0  0  0  0
    7.8832    0.5165   -3.0311 H   0  0  0  0  0  0  0  0  0  0  0  0
    7.3714    2.2095   -2.7927 H   0  0  0  0  0  0  0  0  0  0  0  0
    6.8603    1.3120   -4.2329 H   0  0  0  0  0  0  0  0  0  0  0  0
    6.8901    0.5865   -0.5277 H   0  0  0  0  0  0  0  0  0  0  0  0
    4.9388   -0.1529    0.7280 H   0  0  0  0  0  0  0  0  0  0  0  0
    0.5983   -0.5117   -1.6560 H   0  0  0  0  0  0  0  0  0  0  0  0
   -1.5645   -1.3083   -0.8293 H   0  0  0  0  0  0  0  0  0  0  0  0
   -1.4542   -2.4105    0.5443 H   0  0  0  0  0  0  0  0  0  0  0  0
   -3.9453   -0.9119    2.8844 H   0  0  0  0  0  0  0  0  0  0  0  0
   -6.1856   -1.3439    3.6841 H   0  0  0  0  0  0  0  0  0  0  0  0
   -8.1574   -0.8184    2.2756 H   0  0  0  0  0  0  0  0  0  0  0  0
   -7.8378    0.1159    0.0234 H   0  0  0  0  0  0  0  0  0  0  0  0
   -4.4017    2.5606   -3.3285 H   0  0  0  0  0  0  0  0  0  0  0  0
   -2.1754    3.5918   -3.4930 H   0  0  0  0  0  0  0  0  0  0  0  0
   -0.4435    3.0746   -1.7957 H   0  0  0  0  0  0  0  0  0  0  0  0
   -0.9328    1.5409    0.0352 H   0  0  0  0  0  0  0  0  0  0  0  0
    3.9624   -1.8148    1.9412 H   0  0  0  0  0  0  0  0  0  0  0  0
    3.3568   -0.2919    2.6909 H   0  0  0  0  0  0  0  0  0  0  0  0
    2.3960   -3.1528    3.0533 H   0  0  0  0  0  0  0  0  0  0  0  0
    2.4160   -1.8724    4.2782 H   0  0  0  0  0  0  0  0  0  0  0  0
    0.3557   -0.9253    3.3965 H   0  0  0  0  0  0  0  0  0  0  0  0
    0.0904   -2.6305    2.8383 H   0  0  0  0  0  0  0  0  0  0  0  0
    2.5570    0.0875   -2.8876 H   0  0  0  0  0  0  0  0  0  0  0  0
    4.5212    0.8410   -4.1129 H   0  0  0  0  0  0  0  0  0  0  0  0
  1  2  1  0
  2  3  2  0
  3  4  1  0
  4  5  2  0
  5  6  1  0
  6  7  2  0
  7  8  1  0
  8  9  1  0
  9 10  1  0
 10 11  2  0
 10 12  1  0
 12 13  1  0
 13 14  2  0
 14 15  1  0
 15 16  2  0
 16 17  1  0
 17 18  2  0
 18 19  1  0
 19 20  1  0
 20 21  2  0
 21 22  1  0
 22 23  2  0
 23 24  1  0
 24 25  2  0
  8 26  2  0
 26 27  1  0
 27 28  1  0
 28 29  1  0
 29 30  1  0
  5 31  1  0
 31 32  2  0
 32  2  1  0
 27  6  1  0
 25 12  1  0
 30 26  1  0
 18 13  1  0
 25 20  1  0
  1 33  1  0
  1 34  1  0
  1 35  1  0
  3 36  1  0
  4 37  1  0
  7 38  1  0
  9 39  1  0
  9 40  1  0
 14 41  1  0
 15 42  1  0
 16 43  1  0
 17 44  1  0
 21 45  1  0
 22 46  1  0
 23 47  1  0
 24 48  1  0
 28 49  1  0
 28 50  1  0
 29 51  1  0
 29 52  1  0
 30 53  1  0
 30 54  1  0
 31 55  1  0
 32 56  1  0
M  CHG  1   8   1
M  END
$$$$
