
     RDKit          3D

 29 30  0  0  0  0  0  0  0  0999 V2000
   -0.1347    4.2480   -0.2977 C   0  0  0  0  0  0  0  0  0  0  0  0
    0.3315    3.2928    0.5184 C   0  0  0  0  0  0  0  0  0  0  0  0
    1.2800    2.2047    0.0918 C   0  0  0  0  0  0  0  0  0  0  0  0
    0.5533    0.9388    0.0007 N   0  0  0  0  0  0  0  0  0  0  0  0
    0.3650    0.0728    1.0649 C   0  0  0  0  0  0  0  0  0  0  0  0
    1.0243    0.5026    2.6351 S   0  0  0  0  0  0  0  0  0  0  0  0
    1.4646   -1.1547    3.2456 C   0  0  0  0  0  0  0  0  0  0  0  0
    2.5059   -1.8069    2.4397 C   0  0  0  0  0  0  0  0  0  0  0  0
    3.3384   -2.3124    1.8071 N   0  0  0  0  0  0  0  0  0  0  0  0
   -0.2845   -1.0426    0.9977 N   0  0  0  0  0  0  0  0  0  0  0  0
   -0.8345   -1.4218   -0.2294 C   0  0  0  0  0  0  0  0  0  0  0  0
   -1.5357   -2.6274   -0.3120 C   0  0  0  0  0  0  0  0  0  0  0  0
   -2.0996   -3.0415   -1.5219 C   0  0  0  0  0  0  0  0  0  0  0  0
   -1.9657   -2.2500   -2.6618 C   0  0  0  0  0  0  0  0  0  0  0  0
   -1.2677   -1.0452   -2.5905 C   0  0  0  0  0  0  0  0  0  0  0  0
   -0.7070   -0.6407   -1.3727 C   0  0  0  0  0  0  0  0  0  0  0  0
    0.0392    0.6235   -1.2583 C   0  0  0  0  0  0  0  0  0  0  0  0
    0.1753    1.3214   -2.2614 O   0  0  0  0  0  0  0  0  0  0  0  0
   -0.8117    5.0140    0.0674 H   0  0  0  0  0  0  0  0  0  0  0  0
    0.1341    4.2763   -1.3506 H   0  0  0  0  0  0  0  0  0  0  0  0
    0.0292    3.3060    1.5627 H   0  0  0  0  0  0  0  0  0  0  0  0
    1.7353    2.4477   -0.8757 H   0  0  0  0  0  0  0  0  0  0  0  0
    2.1097    2.1356    0.8011 H   0  0  0  0  0  0  0  0  0  0  0  0
    0.5700   -1.7820    3.3128 H   0  0  0  0  0  0  0  0  0  0  0  0
    1.8318   -1.0302    4.2699 H   0  0  0  0  0  0  0  0  0  0  0  0
   -1.6421   -3.2491    0.5733 H   0  0  0  0  0  0  0  0  0  0  0  0
   -2.6417   -3.9828   -1.5732 H   0  0  0  0  0  0  0  0  0  0  0  0
   -2.4026   -2.5712   -3.6044 H   0  0  0  0  0  0  0  0  0  0  0  0
   -1.1602   -0.4260   -3.4783 H   0  0  0  0  0  0  0  0  0  0  0  0
  1  2  2  0
  2  3  1  0
  3  4  1  0
  4  5  1  0
  5  6  1  0
  6  7  1  0
  7  8  1  0
  8  9  3  0
  5 10  2  0
 10 11  1  0
 11 12  2  0
 12 13  1  0
 13 14  2  0
 14 15  1  0
 15 16  2  0
 16 17  1  0
 17 18  2  0
 17  4  1  0
 16 11  1  0
  1 19  1  0
  1 20  1  0
  2 21  1  0
  3 22  1  0
  3 23  1  0
  7 24  1  0
  7 25  1  0
 12 26  1  0
 13 27  1  0
 14 28  1  0
 15 29  1  0
M  END
$$$$
