
     RDKit          3D

 39 40  0  0  0  0  0  0  0  0999 V2000
   -1.8996   -0.3904    2.2180 C   0  0  0  0  0  0  0  0  0  0  0  0
   -2.0251    0.9743    1.5650 C   0  0  0  0  0  0  0  0  0  0  0  0
   -1.7507    0.8833    0.1661 O   0  0  0  0  0  0  0  0  0  0  0  0
   -2.7884    0.6992   -0.7073 C   0  0  0  0  0  0  0  0  0  0  0  0
   -4.0980    0.3666   -0.3610 C   0  0  0  0  0  0  0  0  0  0  0  0
   -5.0693    0.2000   -1.3557 C   0  0  0  0  0  0  0  0  0  0  0  0
   -4.7409    0.3650   -2.7015 C   0  0  0  0  0  0  0  0  0  0  0  0
   -3.4354    0.6875   -3.0613 C   0  0  0  0  0  0  0  0  0  0  0  0
   -2.4671    0.8334   -2.0674 C   0  0  0  0  0  0  0  0  0  0  0  0
   -1.1874    1.1740   -2.4289 O   0  0  0  0  0  0  0  0  0  0  0  0
   -0.4545    0.0257   -2.8615 C   0  0  0  0  0  0  0  0  0  0  0  0
    0.9008   -0.0688   -2.1538 C   0  0  0  0  0  0  0  0  0  0  0  0
    1.8507   -0.6258   -2.6978 O   0  0  0  0  0  0  0  0  0  0  0  0
    0.8727    0.4664   -0.8876 N   0  0  0  0  0  0  0  0  0  0  0  0
    1.8798    0.4872    0.0387 C   0  0  0  0  0  0  0  0  0  0  0  0
    1.7196    0.9942    1.2410 N   0  0  0  0  0  0  0  0  0  0  0  0
    2.8636    0.8940    2.0078 N   0  0  0  0  0  0  0  0  0  0  0  0
    3.8476    0.3107    1.3520 C   0  0  0  0  0  0  0  0  0  0  0  0
    5.2212    0.0687    1.8875 C   0  0  0  0  0  0  0  0  0  0  0  0
    5.1830   -0.9618    2.8815 O   0  0  0  0  0  0  0  0  0  0  0  0
    5.2121   -2.2723    2.3327 C   0  0  0  0  0  0  0  0  0  0  0  0
    3.4361   -0.1352   -0.2573 S   0  0  0  0  0  0  0  0  0  0  0  0
   -2.0418   -0.3163    3.2998 H   0  0  0  0  0  0  0  0  0  0  0  0
   -0.9109   -0.8190    2.0219 H   0  0  0  0  0  0  0  0  0  0  0  0
   -2.6345   -1.0943    1.8161 H   0  0  0  0  0  0  0  0  0  0  0  0
   -1.2588    1.6335    1.9884 H   0  0  0  0  0  0  0  0  0  0  0  0
   -2.9863    1.4545    1.7780 H   0  0  0  0  0  0  0  0  0  0  0  0
   -4.4004    0.2214    0.6704 H   0  0  0  0  0  0  0  0  0  0  0  0
   -6.0891   -0.0559   -1.0763 H   0  0  0  0  0  0  0  0  0  0  0  0
   -5.5036    0.2457   -3.4669 H   0  0  0  0  0  0  0  0  0  0  0  0
   -3.1765    0.8307   -4.1063 H   0  0  0  0  0  0  0  0  0  0  0  0
   -0.2696    0.1378   -3.9354 H   0  0  0  0  0  0  0  0  0  0  0  0
   -0.9815   -0.9220   -2.6872 H   0  0  0  0  0  0  0  0  0  0  0  0
   -0.0001    0.8824   -0.5684 H   0  0  0  0  0  0  0  0  0  0  0  0
    5.5652    0.9815    2.3861 H   0  0  0  0  0  0  0  0  0  0  0  0
    5.9545   -0.1701    1.1088 H   0  0  0  0  0  0  0  0  0  0  0  0
    5.2488   -2.9872    3.1593 H   0  0  0  0  0  0  0  0  0  0  0  0
    6.1040   -2.4127    1.7144 H   0  0  0  0  0  0  0  0  0  0  0  0
    4.3101   -2.4725    1.7483 H   0  0  0  0  0  0  0  0  0  0  0  0
  1  2  1  0
  2  3  1  0
  3  4  1  0
  4  5  2  0
  5  6  1  0
  6  7  2  0
  7  8  1  0
  8  9  2  0
  9 10  1  0
 10 11  1  0
 11 12  1  0
 12 13  2  0
 12 14  1  0
 14 15  1  0
 15 16  2  0
 16 17  1  0
 17 18  2  0
 18 19  1  0
 19 20  1  0
 20 21  1  0
 18 22  1  0
  9  4  1  0
 22 15  1  0
  1 23  1  0
  1 24  1  0
  1 25  1  0
  2 26  1  0
  2 27  1  0
  5 28  1  0
  6 29  1  0
  7 30  1  0
  8 31  1  0
 11 32  1  0
 11 33  1  0
 14 34  1  0
 19 35  1  0
 19 36  1  0
 21 37  1  0
 21 38  1  0
 21 39  1  0
M  END
$$$$
