
     RDKit          3D

 59 62  0  0  0  0  0  0  0  0999 V2000
    6.1575    0.8566    3.6366 C   0  0  0  0  0  0  0  0  0  0  0  0
    6.2720   -0.0791    2.5715 O   0  0  0  0  0  0  0  0  0  0  0  0
    5.2495   -0.1166    1.6639 C   0  0  0  0  0  0  0  0  0  0  0  0
    5.4066   -1.0702    0.6522 C   0  0  0  0  0  0  0  0  0  0  0  0
    4.4401   -1.2245   -0.3454 C   0  0  0  0  0  0  0  0  0  0  0  0
    3.3026   -0.4179   -0.3370 C   0  0  0  0  0  0  0  0  0  0  0  0
    2.2580   -0.5543   -1.3510 C   0  0  0  0  0  0  0  0  0  0  0  0
    1.1508    0.2106   -1.3138 C   0  0  0  0  0  0  0  0  0  0  0  0
    0.0327    0.1078   -2.3110 C   0  0  0  0  0  0  0  0  0  0  0  0
   -1.0279   -0.8005   -1.8057 N   0  0  0  0  0  0  0  0  0  0  0  0
   -0.7218   -2.2570   -1.8905 C   0  0  0  0  0  0  0  0  0  0  0  0
   -0.5453   -2.8448   -0.4737 C   0  0  0  0  0  0  0  0  0  0  0  0
   -0.3019   -4.3463   -0.5021 C   0  0  0  0  0  0  0  0  0  0  0  0
   -1.7026   -4.9063   -0.4645 C   0  0  0  0  0  0  0  0  0  0  0  0
   -2.4217   -3.9185    0.4284 C   0  0  0  0  0  0  0  0  0  0  0  0
   -1.7417   -2.6624    0.3072 O   0  0  0  0  0  0  0  0  0  0  0  0
   -2.6164   -0.3728   -2.2516 S   0  0  0  0  0  6  0  0  0  0  0  0
   -3.5354   -1.4270   -1.8792 O   0  0  0  0  0  0  0  0  0  0  0  0
   -2.5570    0.1025   -3.6201 O   0  0  0  0  0  0  0  0  0  0  0  0
   -2.9526    1.0063   -1.1867 C   0  0  0  0  0  0  0  0  0  0  0  0
   -3.1354    2.2842   -1.7193 C   0  0  0  0  0  0  0  0  0  0  0  0
   -3.3861    3.3589   -0.8602 C   0  0  0  0  0  0  0  0  0  0  0  0
   -3.4605    3.1536    0.5256 C   0  0  0  0  0  0  0  0  0  0  0  0
   -3.7093    4.2738    1.4819 C   0  0  0  0  0  0  0  0  0  0  0  0
   -3.7786    5.6822    0.9519 C   0  0  0  0  0  0  0  0  0  0  0  0
   -3.8574    4.0406    2.6802 O   0  0  0  0  0  0  0  0  0  0  0  0
   -3.2974    1.8597    1.0432 C   0  0  0  0  0  0  0  0  0  0  0  0
   -3.0445    0.7845    0.1898 C   0  0  0  0  0  0  0  0  0  0  0  0
    1.0298    1.2865   -0.2834 C   0  0  0  0  0  0  0  0  0  0  0  0
    0.1072    2.0950   -0.2921 O   0  0  0  0  0  0  0  0  0  0  0  0
    2.0131    1.3551    0.6672 N   0  0  0  0  0  0  0  0  0  0  0  0
    3.1487    0.5373    0.6738 C   0  0  0  0  0  0  0  0  0  0  0  0
    4.1132    0.6933    1.6730 C   0  0  0  0  0  0  0  0  0  0  0  0
    6.1394    1.8839    3.2582 H   0  0  0  0  0  0  0  0  0  0  0  0
    7.0426    0.7509    4.2711 H   0  0  0  0  0  0  0  0  0  0  0  0
    5.2778    0.6463    4.2538 H   0  0  0  0  0  0  0  0  0  0  0  0
    6.2932   -1.7009    0.6440 H   0  0  0  0  0  0  0  0  0  0  0  0
    4.5898   -1.9756   -1.1162 H   0  0  0  0  0  0  0  0  0  0  0  0
    2.3925   -1.3123   -2.1150 H   0  0  0  0  0  0  0  0  0  0  0  0
   -0.3593    1.1076   -2.5253 H   0  0  0  0  0  0  0  0  0  0  0  0
    0.4063   -0.2716   -3.2709 H   0  0  0  0  0  0  0  0  0  0  0  0
    0.1857   -2.4282   -2.4799 H   0  0  0  0  0  0  0  0  0  0  0  0
   -1.5214   -2.7802   -2.4258 H   0  0  0  0  0  0  0  0  0  0  0  0
    0.2719   -2.3309    0.0420 H   0  0  0  0  0  0  0  0  0  0  0  0
    0.2303   -4.6485    0.4082 H   0  0  0  0  0  0  0  0  0  0  0  0
    0.2818   -4.6854   -1.3625 H   0  0  0  0  0  0  0  0  0  0  0  0
   -2.1416   -4.8934   -1.4686 H   0  0  0  0  0  0  0  0  0  0  0  0
   -1.7540   -5.9321   -0.0898 H   0  0  0  0  0  0  0  0  0  0  0  0
   -3.4738   -3.7963    0.1560 H   0  0  0  0  0  0  0  0  0  0  0  0
   -2.3681   -4.2243    1.4785 H   0  0  0  0  0  0  0  0  0  0  0  0
   -3.0736    2.4537   -2.7917 H   0  0  0  0  0  0  0  0  0  0  0  0
   -3.5136    4.3449   -1.2969 H   0  0  0  0  0  0  0  0  0  0  0  0
   -3.8799    6.3772    1.7914 H   0  0  0  0  0  0  0  0  0  0  0  0
   -4.6511    5.7991    0.3041 H   0  0  0  0  0  0  0  0  0  0  0  0
   -2.8584    5.9346    0.4185 H   0  0  0  0  0  0  0  0  0  0  0  0
   -3.3549    1.6848    2.1161 H   0  0  0  0  0  0  0  0  0  0  0  0
   -2.9064   -0.2147    0.5991 H   0  0  0  0  0  0  0  0  0  0  0  0
    1.8955    2.0769    1.3653 H   0  0  0  0  0  0  0  0  0  0  0  0
    3.9613    1.4439    2.4398 H   0  0  0  0  0  0  0  0  0  0  0  0
  1  2  1  0
  2  3  1  0
  3  4  2  0
  4  5  1  0
  5  6  2  0
  6  7  1  0
  7  8  2  0
  8  9  1  0
  9 10  1  0
 10 11  1  0
 11 12  1  0
 12 13  1  0
 13 14  1  0
 14 15  1  0
 15 16  1  0
 10 17  1  0
 17 18  2  0
 17 19  2  0
 17 20  1  0
 20 21  2  0
 21 22  1  0
 22 23  2  0
 23 24  1  0
 24 25  1  0
 24 26  2  0
 23 27  1  0
 27 28  2  0
  8 29  1  0
 29 30  2  0
 29 31  1  0
 31 32  1  0
 32 33  2  0
 33  3  1  0
 32  6  1  0
 16 12  1  0
 28 20  1  0
  1 34  1  0
  1 35  1  0
  1 36  1  0
  4 37  1  0
  5 38  1  0
  7 39  1  0
  9 40  1  0
  9 41  1  0
 11 42  1  0
 11 43  1  0
 12 44  1  0
 13 45  1  0
 13 46  1  0
 14 47  1  0
 14 48  1  0
 15 49  1  0
 15 50  1  0
 21 51  1  0
 22 52  1  0
 25 53  1  0
 25 54  1  0
 25 55  1  0
 27 56  1  0
 28 57  1  0
 31 58  1  0
 33 59  1  0
M  END
$$$$
