
     RDKit          3D

 57 61  0  0  0  0  0  0  0  0999 V2000
   -6.6533   -3.2522   -1.5786 C   0  0  0  0  0  0  0  0  0  0  0  0
   -6.0737   -1.9018   -1.2781 C   0  0  0  0  0  0  0  0  0  0  0  0
   -4.7842   -1.5715   -1.7086 C   0  0  0  0  0  0  0  0  0  0  0  0
   -4.2310   -0.3266   -1.4002 C   0  0  0  0  0  0  0  0  0  0  0  0
   -4.9570    0.6093   -0.6509 C   0  0  0  0  0  0  0  0  0  0  0  0
   -4.3562    1.9486   -0.3065 C   0  0  0  0  0  0  0  0  0  0  0  0
   -3.7729    1.9436    1.0185 N   0  0  0  0  0  0  0  0  0  0  0  0
   -4.4634    2.4170    2.0867 N   0  0  0  0  0  0  0  0  0  0  0  0
   -3.6809    2.3011    3.1600 N   0  0  0  0  0  0  0  0  0  0  0  0
   -2.4989    1.7729    2.7424 C   0  0  0  0  0  0  0  0  0  0  0  0
   -1.3066    1.4386    3.4709 C   0  0  0  0  0  0  0  0  0  0  0  0
   -1.1315    1.5850    4.6754 O   0  0  0  0  0  0  0  0  0  0  0  0
   -0.3191    0.9142    2.6452 N   0  0  0  0  0  0  0  0  0  0  0  0
   -0.4550    0.7461    1.2710 C   0  0  0  0  0  0  0  0  0  0  0  0
    0.7434    0.1639    0.5370 C   0  0  0  0  0  0  0  0  0  0  0  0
    1.9668    1.0926    0.6204 C   0  0  0  0  0  0  0  0  0  0  0  0
    3.2673    0.3336    0.8780 C   0  0  0  0  0  0  0  0  0  0  0  0
    3.3004   -0.8518   -0.0011 N   0  0  0  0  0  0  0  0  0  0  0  0
    4.8366   -1.5436   -0.2805 S   0  0  0  0  0  6  0  0  0  0  0  0
    5.4666   -1.6682    1.0193 O   0  0  0  0  0  0  0  0  0  0  0  0
    4.6803   -2.6951   -1.1416 O   0  0  0  0  0  0  0  0  0  0  0  0
    5.6954   -0.3065   -1.1900 C   0  0  0  0  0  0  0  0  0  0  0  0
    6.8954    0.2251   -0.7057 C   0  0  0  0  0  0  0  0  0  0  0  0
    7.5602    1.2050   -1.4454 C   0  0  0  0  0  0  0  0  0  0  0  0
    7.0291    1.6465   -2.6592 C   0  0  0  0  0  0  0  0  0  0  0  0
    5.8326    1.1082   -3.1358 C   0  0  0  0  0  0  0  0  0  0  0  0
    5.1695    0.1305   -2.3986 C   0  0  0  0  0  0  0  0  0  0  0  0
    4.0177   -0.3583   -2.8768 F   0  0  0  0  0  0  0  0  0  0  0  0
    2.2393   -1.8558    0.2822 C   0  0  0  0  0  0  0  0  0  0  0  0
    1.0612   -1.2464    1.0399 C   0  0  0  0  0  0  0  0  0  0  0  0
   -1.5302    1.0562    0.6001 N   0  0  0  0  0  0  0  0  0  0  0  0
   -2.5169    1.5534    1.3863 C   0  0  0  0  0  0  0  0  0  0  0  0
   -6.2394    0.2671   -0.2006 C   0  0  0  0  0  0  0  0  0  0  0  0
   -6.7907   -0.9785   -0.5094 C   0  0  0  0  0  0  0  0  0  0  0  0
   -6.3936   -3.9566   -0.7824 H   0  0  0  0  0  0  0  0  0  0  0  0
   -7.7438   -3.1989   -1.6628 H   0  0  0  0  0  0  0  0  0  0  0  0
   -6.2730   -3.6376   -2.5304 H   0  0  0  0  0  0  0  0  0  0  0  0
   -4.1994   -2.2844   -2.2857 H   0  0  0  0  0  0  0  0  0  0  0  0
   -3.2233   -0.0970   -1.7416 H   0  0  0  0  0  0  0  0  0  0  0  0
   -3.5724    2.2278   -1.0202 H   0  0  0  0  0  0  0  0  0  0  0  0
   -5.1176    2.7366   -0.3451 H   0  0  0  0  0  0  0  0  0  0  0  0
    0.5325    0.6651    3.1249 H   0  0  0  0  0  0  0  0  0  0  0  0
    0.4591    0.0808   -0.5221 H   0  0  0  0  0  0  0  0  0  0  0  0
    2.0514    1.6274   -0.3353 H   0  0  0  0  0  0  0  0  0  0  0  0
    1.8489    1.8710    1.3831 H   0  0  0  0  0  0  0  0  0  0  0  0
    4.1061    1.0054    0.6720 H   0  0  0  0  0  0  0  0  0  0  0  0
    3.3379    0.0285    1.9285 H   0  0  0  0  0  0  0  0  0  0  0  0
    7.3192   -0.1196    0.2354 H   0  0  0  0  0  0  0  0  0  0  0  0
    8.4962    1.6215   -1.0786 H   0  0  0  0  0  0  0  0  0  0  0  0
    7.5503    2.4073   -3.2362 H   0  0  0  0  0  0  0  0  0  0  0  0
    5.4133    1.4431   -4.0801 H   0  0  0  0  0  0  0  0  0  0  0  0
    1.8866   -2.2460   -0.6797 H   0  0  0  0  0  0  0  0  0  0  0  0
    2.6375   -2.6945    0.8642 H   0  0  0  0  0  0  0  0  0  0  0  0
    0.1838   -1.8976    0.9433 H   0  0  0  0  0  0  0  0  0  0  0  0
    1.2988   -1.2247    2.1113 H   0  0  0  0  0  0  0  0  0  0  0  0
   -6.8152    0.9652    0.4052 H   0  0  0  0  0  0  0  0  0  0  0  0
   -7.7843   -1.2247   -0.1409 H   0  0  0  0  0  0  0  0  0  0  0  0
  1  2  1  0
  2  3  2  0
  3  4  1  0
  4  5  2  0
  5  6  1  0
  6  7  1  0
  7  8  1  0
  8  9  2  0
  9 10  1  0
 10 11  1  0
 11 12  2  0
 11 13  1  0
 13 14  1  0
 14 15  1  0
 15 16  1  0
 16 17  1  0
 17 18  1  0
 18 19  1  0
 19 20  2  0
 19 21  2  0
 19 22  1  0
 22 23  2  0
 23 24  1  0
 24 25  2  0
 25 26  1  0
 26 27  2  0
 27 28  1  0
 18 29  1  0
 29 30  1  0
 14 31  2  0
 31 32  1  0
  5 33  1  0
 33 34  2  0
 34  2  1  0
 32  7  1  0
 32 10  2  0
 30 15  1  0
 27 22  1  0
  1 35  1  0
  1 36  1  0
  1 37  1  0
  3 38  1  0
  4 39  1  0
  6 40  1  0
  6 41  1  0
 13 42  1  0
 15 43  1  0
 16 44  1  0
 16 45  1  0
 17 46  1  0
 17 47  1  0
 23 48  1  0
 24 49  1  0
 25 50  1  0
 26 51  1  0
 29 52  1  0
 29 53  1  0
 30 54  1  0
 30 55  1  0
 33 56  1  0
 34 57  1  0
M  END
$$$$
