
     RDKit          3D

 42 44  0  0  0  0  0  0  0  0999 V2000
   -2.0609    3.7748    1.2900 C   0  0  0  0  0  0  0  0  0  0  0  0
   -2.2246    3.2005   -0.1046 C   0  0  0  0  0  0  0  0  0  0  0  0
   -2.4609    1.7878   -0.0328 O   0  0  0  0  0  0  0  0  0  0  0  0
   -1.3490    0.9970    0.0152 C   0  0  0  0  0  0  0  0  0  0  0  0
   -0.2001    1.4256    0.0016 O   0  0  0  0  0  0  0  0  0  0  0  0
   -1.6716   -0.4259    0.0852 C   0  0  0  0  0  0  0  0  0  0  0  0
   -0.7024   -1.4335    0.1150 C   0  0  0  0  0  0  0  0  0  0  0  0
    0.6695   -1.2539    0.0914 N   0  0  0  0  0  0  0  0  0  0  0  0
    1.6631   -2.2138    0.1165 C   0  0  0  0  0  0  0  0  0  0  0  0
    1.5317   -3.4311    0.1636 O   0  0  0  0  0  0  0  0  0  0  0  0
    3.0050   -1.5991    0.0777 C   0  0  0  0  0  0  0  0  0  0  0  0
    4.2559   -2.2696    0.0861 C   0  0  0  0  0  0  0  0  0  0  0  0
    5.2042   -1.2765    0.0380 C   0  0  0  0  0  0  0  0  0  0  0  0
    4.5137   -0.1019    0.0019 N   0  0  0  0  0  0  0  0  0  0  0  0
    5.0773    1.2336   -0.0509 C   0  0  0  0  0  0  0  0  0  0  0  0
    5.1017    1.7893   -1.4634 C   0  0  0  0  0  0  0  0  0  0  0  0
    3.1772   -0.2613    0.0278 N   0  0  0  0  0  0  0  0  0  0  0  0
   -1.3819   -3.0084    0.1837 S   0  0  0  0  0  0  0  0  0  0  0  0
   -2.9237   -2.3807    0.1808 C   0  0  0  0  0  0  0  0  0  0  0  0
   -2.9684   -1.0166    0.1321 C   0  0  0  0  0  0  0  0  0  0  0  0
   -4.3757   -0.5363    0.1330 C   0  0  0  0  0  0  0  0  0  0  0  0
   -5.1691   -1.8189    0.5358 C   0  0  0  0  0  0  0  0  0  0  0  0
   -4.2501   -3.0365    0.2184 C   0  0  0  0  0  0  0  0  0  0  0  0
   -1.9405    4.8611    1.2505 H   0  0  0  0  0  0  0  0  0  0  0  0
   -1.1889    3.3447    1.7927 H   0  0  0  0  0  0  0  0  0  0  0  0
   -2.9334    3.5381    1.9079 H   0  0  0  0  0  0  0  0  0  0  0  0
   -1.3605    3.4301   -0.7385 H   0  0  0  0  0  0  0  0  0  0  0  0
   -3.1016    3.6468   -0.5848 H   0  0  0  0  0  0  0  0  0  0  0  0
    1.0147   -0.2911    0.0517 H   0  0  0  0  0  0  0  0  0  0  0  0
    4.4216   -3.3377    0.1228 H   0  0  0  0  0  0  0  0  0  0  0  0
    6.2845   -1.3103    0.0247 H   0  0  0  0  0  0  0  0  0  0  0  0
    6.0921    1.1845    0.3588 H   0  0  0  0  0  0  0  0  0  0  0  0
    4.4790    1.8714    0.6091 H   0  0  0  0  0  0  0  0  0  0  0  0
    5.6960    1.1522   -2.1271 H   0  0  0  0  0  0  0  0  0  0  0  0
    5.5390    2.7924   -1.4698 H   0  0  0  0  0  0  0  0  0  0  0  0
    4.0913    1.8545   -1.8806 H   0  0  0  0  0  0  0  0  0  0  0  0
   -4.6674   -0.2044   -0.8690 H   0  0  0  0  0  0  0  0  0  0  0  0
   -4.5513    0.2699    0.8504 H   0  0  0  0  0  0  0  0  0  0  0  0
   -5.3644   -1.7917    1.6161 H   0  0  0  0  0  0  0  0  0  0  0  0
   -6.1372   -1.8847    0.0295 H   0  0  0  0  0  0  0  0  0  0  0  0
   -4.3325   -3.8071    0.9895 H   0  0  0  0  0  0  0  0  0  0  0  0
   -4.5016   -3.4634   -0.7579 H   0  0  0  0  0  0  0  0  0  0  0  0
  1  2  1  0
  2  3  1  0
  3  4  1  0
  4  5  2  0
  4  6  1  0
  6  7  2  0
  7  8  1  0
  8  9  1  0
  9 10  2  0
  9 11  1  0
 11 12  1  0
 12 13  2  0
 13 14  1  0
 14 15  1  0
 15 16  1  0
 14 17  1  0
  7 18  1  0
 18 19  1  0
 19 20  2  0
 20 21  1  0
 21 22  1  0
 22 23  1  0
 20  6  1  0
 17 11  2  0
 23 19  1  0
  1 24  1  0
  1 25  1  0
  1 26  1  0
  2 27  1  0
  2 28  1  0
  8 29  1  0
 12 30  1  0
 13 31  1  0
 15 32  1  0
 15 33  1  0
 16 34  1  0
 16 35  1  0
 16 36  1  0
 21 37  1  0
 21 38  1  0
 22 39  1  0
 22 40  1  0
 23 41  1  0
 23 42  1  0
M  END
$$$$
