
     RDKit          3D

 40 41  0  0  0  0  0  0  0  0999 V2000
    6.1177    0.1144    2.4300 C   0  0  0  0  0  0  0  0  0  0  0  0
    6.7757   -0.2705    0.7887 S   0  0  0  0  0  0  0  0  0  0  0  0
    5.8645    0.9595   -0.1966 C   0  0  0  0  0  0  0  0  0  0  0  0
    4.3793    0.7009   -0.2524 C   0  0  0  0  0  0  0  0  0  0  0  0
    3.8718   -0.3958   -0.9662 C   0  0  0  0  0  0  0  0  0  0  0  0
    2.4960   -0.6385   -1.0204 C   0  0  0  0  0  0  0  0  0  0  0  0
    1.6085    0.2130   -0.3532 C   0  0  0  0  0  0  0  0  0  0  0  0
    0.1356   -0.0018   -0.3788 C   0  0  0  0  0  0  0  0  0  0  0  0
   -0.6314    0.9436   -0.2317 O   0  0  0  0  0  0  0  0  0  0  0  0
   -0.2950   -1.3048   -0.5278 N   0  0  0  0  0  0  0  0  0  0  0  0
   -1.7119   -1.6306   -0.5213 C   0  0  0  0  0  0  0  0  0  0  0  0
   -2.3169   -1.5528    0.8822 C   0  0  0  0  0  0  0  0  0  0  0  0
   -4.0855   -2.0155    0.9114 S   0  0  0  0  0  0  0  0  0  0  0  0
   -4.8578   -0.7158   -0.0430 C   0  0  0  0  0  0  0  0  0  0  0  0
   -5.9944   -1.0538   -0.7906 C   0  0  0  0  0  0  0  0  0  0  0  0
   -6.6606   -0.0920   -1.5560 C   0  0  0  0  0  0  0  0  0  0  0  0
   -6.1949    1.2195   -1.5711 C   0  0  0  0  0  0  0  0  0  0  0  0
   -7.0896    2.5232   -2.6059 Br  0  0  0  0  0  0  0  0  0  0  0  0
   -5.0756    1.5757   -0.8240 C   0  0  0  0  0  0  0  0  0  0  0  0
   -4.4134    0.6109   -0.0567 C   0  0  0  0  0  0  0  0  0  0  0  0
    2.1063    1.3201    0.3435 C   0  0  0  0  0  0  0  0  0  0  0  0
    3.4817    1.5600    0.3971 C   0  0  0  0  0  0  0  0  0  0  0  0
    5.0597   -0.1506    2.4962 H   0  0  0  0  0  0  0  0  0  0  0  0
    6.6623   -0.4698    3.1768 H   0  0  0  0  0  0  0  0  0  0  0  0
    6.2507    1.1751    2.6584 H   0  0  0  0  0  0  0  0  0  0  0  0
    6.2637    0.9431   -1.2173 H   0  0  0  0  0  0  0  0  0  0  0  0
    6.0777    1.9591    0.1986 H   0  0  0  0  0  0  0  0  0  0  0  0
    4.5517   -1.0669   -1.4892 H   0  0  0  0  0  0  0  0  0  0  0  0
    2.1377   -1.4778   -1.6090 H   0  0  0  0  0  0  0  0  0  0  0  0
    0.3688   -2.0633   -0.4473 H   0  0  0  0  0  0  0  0  0  0  0  0
   -1.8021   -2.6440   -0.9276 H   0  0  0  0  0  0  0  0  0  0  0  0
   -2.2106   -0.9412   -1.2105 H   0  0  0  0  0  0  0  0  0  0  0  0
   -1.7930   -2.2616    1.5340 H   0  0  0  0  0  0  0  0  0  0  0  0
   -2.1767   -0.5695    1.3396 H   0  0  0  0  0  0  0  0  0  0  0  0
   -6.3723   -2.0742   -0.7856 H   0  0  0  0  0  0  0  0  0  0  0  0
   -7.5372   -0.3778   -2.1310 H   0  0  0  0  0  0  0  0  0  0  0  0
   -4.7066    2.5983   -0.8268 H   0  0  0  0  0  0  0  0  0  0  0  0
   -3.5506    0.9276    0.5229 H   0  0  0  0  0  0  0  0  0  0  0  0
    1.4220    1.9992    0.8489 H   0  0  0  0  0  0  0  0  0  0  0  0
    3.8444    2.4253    0.9484 H   0  0  0  0  0  0  0  0  0  0  0  0
  1  2  1  0
  2  3  1  0
  3  4  1  0
  4  5  2  0
  5  6  1  0
  6  7  2  0
  7  8  1  0
  8  9  2  0
  8 10  1  0
 10 11  1  0
 11 12  1  0
 12 13  1  0
 13 14  1  0
 14 15  2  0
 15 16  1  0
 16 17  2  0
 17 18  1  0
 17 19  1  0
 19 20  2  0
  7 21  1  0
 21 22  2  0
 22  4  1  0
 20 14  1  0
  1 23  1  0
  1 24  1  0
  1 25  1  0
  3 26  1  0
  3 27  1  0
  5 28  1  0
  6 29  1  0
 10 30  1  0
 11 31  1  0
 11 32  1  0
 12 33  1  0
 12 34  1  0
 15 35  1  0
 16 36  1  0
 19 37  1  0
 20 38  1  0
 21 39  1  0
 22 40  1  0
M  END
$$$$
