
     RDKit          3D

 64 69  0  0  0  0  0  0  0  0999 V2000
   -9.3907    1.9885    0.6872 C   0  0  0  0  0  0  0  0  0  0  0  0
   -8.2419    2.8023    0.4880 O   0  0  0  0  0  0  0  0  0  0  0  0
   -7.0316    2.1677    0.4617 C   0  0  0  0  0  0  0  0  0  0  0  0
   -6.8135    0.8044    0.6489 C   0  0  0  0  0  0  0  0  0  0  0  0
   -5.5136    0.2802    0.5979 C   0  0  0  0  0  0  0  0  0  0  0  0
   -4.4128    1.1168    0.3703 C   0  0  0  0  0  0  0  0  0  0  0  0
   -3.0818    0.5823    0.3247 N   0  0  0  0  0  0  0  0  0  0  0  0
   -1.8910    1.2464    0.6609 C   0  0  0  0  0  0  0  0  0  0  0  0
   -1.8534    2.4836    1.2274 N   0  0  0  0  0  0  0  0  0  0  0  0
   -0.8078    0.4240    0.3740 C   0  0  0  0  0  0  0  0  0  0  0  0
    0.6005    0.7674    0.5805 C   0  0  0  0  0  0  0  0  0  0  0  0
    0.9207    1.7840    1.1874 O   0  0  0  0  0  0  0  0  0  0  0  0
    1.4829   -0.1945    0.1257 N   0  0  0  0  0  0  0  0  0  0  0  0
    2.8485   -0.1108    0.1139 C   0  0  0  0  0  0  0  0  0  0  0  0
    3.7195   -1.1345    0.0520 C   0  0  0  0  0  0  0  0  0  0  0  0
    3.3932   -2.5931   -0.0047 C   0  0  0  0  0  0  0  0  0  0  0  0
    5.0604   -0.7220    0.1113 N   0  0  0  0  0  0  0  0  0  0  0  0
    5.9015   -1.2804    1.1864 C   0  0  0  0  0  0  0  0  0  0  0  0
    5.0251    0.7050    0.1143 N   0  0  0  0  0  0  0  0  0  0  0  0
    6.1359    1.4684   -0.3374 C   0  0  0  0  0  0  0  0  0  0  0  0
    6.1452    2.8648   -0.2085 C   0  0  0  0  0  0  0  0  0  0  0  0
    7.2397    3.6214   -0.6396 C   0  0  0  0  0  0  0  0  0  0  0  0
    8.3441    2.9927   -1.2084 C   0  0  0  0  0  0  0  0  0  0  0  0
    8.3519    1.6089   -1.3515 C   0  0  0  0  0  0  0  0  0  0  0  0
    7.2556    0.8541   -0.9203 C   0  0  0  0  0  0  0  0  0  0  0  0
    3.6858    1.1380    0.0918 C   0  0  0  0  0  0  0  0  0  0  0  0
    3.2538    2.2687   -0.0665 O   0  0  0  0  0  0  0  0  0  0  0  0
   -1.3499   -0.7966   -0.0872 C   0  0  0  0  0  0  0  0  0  0  0  0
   -0.6992   -1.9308   -0.4697 N   0  0  0  0  0  0  0  0  0  0  0  0
   -1.5068   -2.9275   -0.8680 C   0  0  0  0  0  0  0  0  0  0  0  0
   -0.9285   -4.1191   -1.2887 C   0  0  0  0  0  0  0  0  0  0  0  0
   -1.7045   -5.1967   -1.7183 C   0  0  0  0  0  0  0  0  0  0  0  0
   -3.0874   -5.0819   -1.7286 C   0  0  0  0  0  0  0  0  0  0  0  0
   -3.6807   -3.8914   -1.3073 C   0  0  0  0  0  0  0  0  0  0  0  0
   -2.9203   -2.8118   -0.8767 C   0  0  0  0  0  0  0  0  0  0  0  0
   -3.5606   -1.7003   -0.4863 N   0  0  0  0  0  0  0  0  0  0  0  0
   -2.7350   -0.7036   -0.0867 C   0  0  0  0  0  0  0  0  0  0  0  0
   -4.6402    2.4838    0.1691 C   0  0  0  0  0  0  0  0  0  0  0  0
   -5.9393    3.0005    0.2194 C   0  0  0  0  0  0  0  0  0  0  0  0
  -10.2687    2.6398    0.6639 H   0  0  0  0  0  0  0  0  0  0  0  0
   -9.3642    1.5017    1.6670 H   0  0  0  0  0  0  0  0  0  0  0  0
   -9.4995    1.2535   -0.1167 H   0  0  0  0  0  0  0  0  0  0  0  0
   -7.6295    0.1159    0.8415 H   0  0  0  0  0  0  0  0  0  0  0  0
   -5.3926   -0.7855    0.7734 H   0  0  0  0  0  0  0  0  0  0  0  0
   -2.6006    2.7806    1.8526 H   0  0  0  0  0  0  0  0  0  0  0  0
   -0.9375    2.8084    1.5638 H   0  0  0  0  0  0  0  0  0  0  0  0
    1.0668   -1.0869   -0.1252 H   0  0  0  0  0  0  0  0  0  0  0  0
    3.9744   -3.0804   -0.7955 H   0  0  0  0  0  0  0  0  0  0  0  0
    3.6319   -3.0793    0.9470 H   0  0  0  0  0  0  0  0  0  0  0  0
    2.3375   -2.7795   -0.2193 H   0  0  0  0  0  0  0  0  0  0  0  0
    5.4545   -1.0886    2.1687 H   0  0  0  0  0  0  0  0  0  0  0  0
    6.9094   -0.8549    1.1852 H   0  0  0  0  0  0  0  0  0  0  0  0
    6.0110   -2.3625    1.0569 H   0  0  0  0  0  0  0  0  0  0  0  0
    5.3074    3.3915    0.2450 H   0  0  0  0  0  0  0  0  0  0  0  0
    7.2236    4.7022   -0.5276 H   0  0  0  0  0  0  0  0  0  0  0  0
    9.1923    3.5833   -1.5445 H   0  0  0  0  0  0  0  0  0  0  0  0
    9.2059    1.1135   -1.8070 H   0  0  0  0  0  0  0  0  0  0  0  0
    7.2789   -0.2199   -1.0787 H   0  0  0  0  0  0  0  0  0  0  0  0
    0.1548   -4.2135   -1.2866 H   0  0  0  0  0  0  0  0  0  0  0  0
   -1.2273   -6.1176   -2.0453 H   0  0  0  0  0  0  0  0  0  0  0  0
   -3.7063   -5.9103   -2.0645 H   0  0  0  0  0  0  0  0  0  0  0  0
   -4.7649   -3.8008   -1.3172 H   0  0  0  0  0  0  0  0  0  0  0  0
   -3.8312    3.1674   -0.0773 H   0  0  0  0  0  0  0  0  0  0  0  0
   -6.0998    4.0632    0.0539 H   0  0  0  0  0  0  0  0  0  0  0  0
  1  2  1  0
  2  3  1  0
  3  4  2  0
  4  5  1  0
  5  6  2  0
  6  7  1  0
  7  8  1  0
  8  9  1  0
  8 10  2  0
 10 11  1  0
 11 12  2  0
 11 13  1  0
 13 14  1  0
 14 15  2  0
 15 16  1  0
 15 17  1  0
 17 18  1  0
 17 19  1  0
 19 20  1  0
 20 21  2  0
 21 22  1  0
 22 23  2  0
 23 24  1  0
 24 25  2  0
 19 26  1  0
 26 27  2  0
 10 28  1  0
 28 29  2  0
 29 30  1  0
 30 31  2  0
 31 32  1  0
 32 33  2  0
 33 34  1  0
 34 35  2  0
 35 36  1  0
 36 37  2  0
  6 38  1  0
 38 39  2  0
 39  3  1  0
 37  7  1  0
 26 14  1  0
 37 28  1  0
 25 20  1  0
 35 30  1  0
  1 40  1  0
  1 41  1  0
  1 42  1  0
  4 43  1  0
  5 44  1  0
  9 45  1  0
  9 46  1  0
 13 47  1  0
 16 48  1  0
 16 49  1  0
 16 50  1  0
 18 51  1  0
 18 52  1  0
 18 53  1  0
 21 54  1  0
 22 55  1  0
 23 56  1  0
 24 57  1  0
 25 58  1  0
 31 59  1  0
 32 60  1  0
 33 61  1  0
 34 62  1  0
 38 63  1  0
 39 64  1  0
M  END
$$$$
