
     RDKit          3D

 25 26  0  0  0  0  0  0  0  0999 V2000
   -1.5866   -2.4990    0.7083 O   0  0  0  0  0  0  0  0  0  0  0  0
   -1.5880   -1.3291    0.3424 C   0  0  0  0  0  0  0  0  0  0  0  0
   -0.4674   -0.5946    0.1039 O   0  0  0  0  0  0  0  0  0  0  0  0
    0.7470   -1.3127    0.3189 C   0  0  0  0  0  0  0  0  0  0  0  0
    1.8971   -0.3863    0.0214 C   0  0  0  0  0  0  0  0  0  0  0  0
    2.4545    0.4054    1.0353 C   0  0  0  0  0  0  0  0  0  0  0  0
    3.5094    1.2754    0.7545 C   0  0  0  0  0  0  0  0  0  0  0  0
    4.0110    1.3690   -0.5423 C   0  0  0  0  0  0  0  0  0  0  0  0
    3.4553    0.5971   -1.5609 C   0  0  0  0  0  0  0  0  0  0  0  0
    2.4004   -0.2736   -1.2823 C   0  0  0  0  0  0  0  0  0  0  0  0
   -2.7726   -0.5381    0.1040 C   0  0  0  0  0  0  0  0  0  0  0  0
   -4.1118   -0.8681    0.2181 C   0  0  0  0  0  0  0  0  0  0  0  0
   -4.8509    0.2864   -0.1377 C   0  0  0  0  0  0  0  0  0  0  0  0
   -3.9234    1.2534   -0.4481 C   0  0  0  0  0  0  0  0  0  0  0  0
   -4.3285    3.0275   -1.0007 Br  0  0  0  0  0  0  0  0  0  0  0  0
   -2.6636    0.7653   -0.3052 O   0  0  0  0  0  0  0  0  0  0  0  0
    0.8054   -1.6584    1.3586 H   0  0  0  0  0  0  0  0  0  0  0  0
    0.7939   -2.1876   -0.3415 H   0  0  0  0  0  0  0  0  0  0  0  0
    2.0663    0.3521    2.0500 H   0  0  0  0  0  0  0  0  0  0  0  0
    3.9362    1.8846    1.5470 H   0  0  0  0  0  0  0  0  0  0  0  0
    4.8300    2.0491   -0.7607 H   0  0  0  0  0  0  0  0  0  0  0  0
    3.8398    0.6773   -2.5743 H   0  0  0  0  0  0  0  0  0  0  0  0
    1.9692   -0.8608   -2.0900 H   0  0  0  0  0  0  0  0  0  0  0  0
   -4.4970   -1.8322    0.5233 H   0  0  0  0  0  0  0  0  0  0  0  0
   -5.9259    0.3978   -0.1640 H   0  0  0  0  0  0  0  0  0  0  0  0
  1  2  2  0
  2  3  1  0
  3  4  1  0
  4  5  1  0
  5  6  2  0
  6  7  1  0
  7  8  2  0
  8  9  1  0
  9 10  2  0
  2 11  1  0
 11 12  2  0
 12 13  1  0
 13 14  2  0
 14 15  1  0
 14 16  1  0
 10  5  1  0
 16 11  1  0
  4 17  1  0
  4 18  1  0
  6 19  1  0
  7 20  1  0
  8 21  1  0
  9 22  1  0
 10 23  1  0
 12 24  1  0
 13 25  1  0
M  END
$$$$
