
     RDKit          3D

 69 73  0  0  0  0  0  0  0  0999 V2000
    5.5216   -1.9647   -4.2253 C   0  0  0  0  0  0  0  0  0  0  0  0
    5.4749   -2.8439   -3.1082 O   0  0  0  0  0  0  0  0  0  0  0  0
    4.9899   -2.3301   -1.9348 C   0  0  0  0  0  0  0  0  0  0  0  0
    4.9251   -3.2498   -0.8813 C   0  0  0  0  0  0  0  0  0  0  0  0
    4.4517   -2.8655    0.3726 C   0  0  0  0  0  0  0  0  0  0  0  0
    4.3516   -3.6678    1.4757 O   0  0  0  0  0  0  0  0  0  0  0  0
    4.7446   -5.0267    1.3175 C   0  0  0  0  0  0  0  0  0  0  0  0
    4.0308   -1.5494    0.5692 C   0  0  0  0  0  0  0  0  0  0  0  0
    4.0873   -0.6176   -0.4732 C   0  0  0  0  0  0  0  0  0  0  0  0
    3.6295    0.7582   -0.2576 C   0  0  0  0  0  0  0  0  0  0  0  0
    4.8120    1.9861   -0.1312 S   0  0  0  0  0  0  0  0  0  0  0  0
    3.6398    3.2141    0.1238 C   0  0  0  0  0  0  0  0  0  0  0  0
    3.8859    4.5854    0.3314 C   0  0  0  0  0  0  0  0  0  0  0  0
    2.8043    5.4545    0.5154 C   0  0  0  0  0  0  0  0  0  0  0  0
    1.5013    4.9774    0.4884 C   0  0  0  0  0  0  0  0  0  0  0  0
    0.3664    5.7258    0.6473 O   0  0  0  0  0  0  0  0  0  0  0  0
    0.5377    7.1303    0.7942 C   0  0  0  0  0  0  0  0  0  0  0  0
    1.2725    3.6111    0.2855 C   0  0  0  0  0  0  0  0  0  0  0  0
    2.3445    2.6972    0.1038 C   0  0  0  0  0  0  0  0  0  0  0  0
    2.3470    1.2643   -0.1118 C   0  0  0  0  0  0  0  0  0  0  0  0
    1.1636    0.4069   -0.1663 C   0  0  0  0  0  0  0  0  0  0  0  0
    0.3455    0.2744    0.9632 C   0  0  0  0  0  0  0  0  0  0  0  0
   -0.8006   -0.5250    0.9166 C   0  0  0  0  0  0  0  0  0  0  0  0
   -1.1359   -1.1914   -0.2623 C   0  0  0  0  0  0  0  0  0  0  0  0
   -2.2336   -1.9981   -0.3936 O   0  0  0  0  0  0  0  0  0  0  0  0
   -3.4329   -1.4355    0.1620 C   0  0  0  0  0  0  0  0  0  0  0  0
   -4.6268   -2.1539   -0.4786 C   0  0  0  0  0  0  0  0  0  0  0  0
   -5.9842   -1.7280   -0.1283 N   0  0  0  0  0  0  0  0  0  0  0  0
   -6.4750   -2.1613    1.1775 C   0  0  0  0  0  0  0  0  0  0  0  0
   -6.2444   -1.1616    2.3112 C   0  0  0  0  0  0  0  0  0  0  0  0
   -6.7577    0.2229    1.9349 C   0  0  0  0  0  0  0  0  0  0  0  0
   -6.1347    0.6787    0.6216 C   0  0  0  0  0  0  0  0  0  0  0  0
   -6.3405   -0.3569   -0.4865 C   0  0  0  0  0  0  0  0  0  0  0  0
   -0.3085   -1.0884   -1.3802 C   0  0  0  0  0  0  0  0  0  0  0  0
    0.8330   -0.2831   -1.3366 C   0  0  0  0  0  0  0  0  0  0  0  0
    4.5755   -1.0144   -1.7281 C   0  0  0  0  0  0  0  0  0  0  0  0
    6.2216   -1.1401   -4.0485 H   0  0  0  0  0  0  0  0  0  0  0  0
    4.5256   -1.5854   -4.4770 H   0  0  0  0  0  0  0  0  0  0  0  0
    5.8875   -2.5360   -5.0856 H   0  0  0  0  0  0  0  0  0  0  0  0
    5.2559   -4.2643   -1.0754 H   0  0  0  0  0  0  0  0  0  0  0  0
    5.8059   -5.1062    1.0554 H   0  0  0  0  0  0  0  0  0  0  0  0
    4.1126   -5.5401    0.5860 H   0  0  0  0  0  0  0  0  0  0  0  0
    4.6066   -5.5265    2.2813 H   0  0  0  0  0  0  0  0  0  0  0  0
    3.6577   -1.2520    1.5462 H   0  0  0  0  0  0  0  0  0  0  0  0
    4.9036    4.9657    0.3494 H   0  0  0  0  0  0  0  0  0  0  0  0
    3.0241    6.5048    0.6752 H   0  0  0  0  0  0  0  0  0  0  0  0
    1.0290    7.5640   -0.0835 H   0  0  0  0  0  0  0  0  0  0  0  0
   -0.4559    7.5800    0.8762 H   0  0  0  0  0  0  0  0  0  0  0  0
    1.0848    7.3663    1.7116 H   0  0  0  0  0  0  0  0  0  0  0  0
    0.2477    3.2473    0.2628 H   0  0  0  0  0  0  0  0  0  0  0  0
    0.5964    0.7889    1.8882 H   0  0  0  0  0  0  0  0  0  0  0  0
   -1.4069   -0.6275    1.8111 H   0  0  0  0  0  0  0  0  0  0  0  0
   -3.4337   -1.5927    1.2434 H   0  0  0  0  0  0  0  0  0  0  0  0
   -3.4770   -0.3655   -0.0669 H   0  0  0  0  0  0  0  0  0  0  0  0
   -4.5255   -3.2301   -0.2873 H   0  0  0  0  0  0  0  0  0  0  0  0
   -4.5206   -2.0832   -1.5688 H   0  0  0  0  0  0  0  0  0  0  0  0
   -7.5577   -2.3243    1.0840 H   0  0  0  0  0  0  0  0  0  0  0  0
   -6.0622   -3.1394    1.4525 H   0  0  0  0  0  0  0  0  0  0  0  0
   -6.7612   -1.5060    3.2149 H   0  0  0  0  0  0  0  0  0  0  0  0
   -5.1789   -1.1074    2.5596 H   0  0  0  0  0  0  0  0  0  0  0  0
   -7.8507    0.1991    1.8333 H   0  0  0  0  0  0  0  0  0  0  0  0
   -6.5250    0.9383    2.7319 H   0  0  0  0  0  0  0  0  0  0  0  0
   -6.5812    1.6332    0.3180 H   0  0  0  0  0  0  0  0  0  0  0  0
   -5.0673    0.8678    0.7771 H   0  0  0  0  0  0  0  0  0  0  0  0
   -5.8144   -0.0383   -1.3952 H   0  0  0  0  0  0  0  0  0  0  0  0
   -7.4057   -0.3578   -0.7555 H   0  0  0  0  0  0  0  0  0  0  0  0
   -0.5546   -1.6307   -2.2884 H   0  0  0  0  0  0  0  0  0  0  0  0
    1.4515   -0.1938   -2.2267 H   0  0  0  0  0  0  0  0  0  0  0  0
    4.6067   -0.2825   -2.5269 H   0  0  0  0  0  0  0  0  0  0  0  0
  1  2  1  0
  2  3  1  0
  3  4  2  0
  4  5  1  0
  5  6  1  0
  6  7  1  0
  5  8  2  0
  8  9  1  0
  9 10  1  0
 10 11  1  0
 11 12  1  0
 12 13  2  0
 13 14  1  0
 14 15  2  0
 15 16  1  0
 16 17  1  0
 15 18  1  0
 18 19  2  0
 19 20  1  0
 20 21  1  0
 21 22  2  0
 22 23  1  0
 23 24  2  0
 24 25  1  0
 25 26  1  0
 26 27  1  0
 27 28  1  0
 28 29  1  0
 29 30  1  0
 30 31  1  0
 31 32  1  0
 32 33  1  0
 24 34  1  0
 34 35  2  0
  9 36  2  0
 36  3  1  0
 20 10  2  0
 35 21  1  0
 19 12  1  0
 33 28  1  0
  1 37  1  0
  1 38  1  0
  1 39  1  0
  4 40  1  0
  7 41  1  0
  7 42  1  0
  7 43  1  0
  8 44  1  0
 13 45  1  0
 14 46  1  0
 17 47  1  0
 17 48  1  0
 17 49  1  0
 18 50  1  0
 22 51  1  0
 23 52  1  0
 26 53  1  0
 26 54  1  0
 27 55  1  0
 27 56  1  0
 29 57  1  0
 29 58  1  0
 30 59  1  0
 30 60  1  0
 31 61  1  0
 31 62  1  0
 32 63  1  0
 32 64  1  0
 33 65  1  0
 33 66  1  0
 34 67  1  0
 35 68  1  0
 36 69  1  0
M  END
$$$$
