
     RDKit          3D

 50 53  0  0  0  0  0  0  0  0999 V2000
    7.2904    3.1158    0.8575 C   0  0  0  0  0  0  0  0  0  0  0  0
    6.7918    2.1383    1.9073 C   0  0  0  0  0  0  0  0  0  0  0  0
    6.6691    0.8244    1.3649 O   0  0  0  0  0  0  0  0  0  0  0  0
    5.5324    0.4571    0.7055 C   0  0  0  0  0  0  0  0  0  0  0  0
    4.4135    1.2716    0.5122 C   0  0  0  0  0  0  0  0  0  0  0  0
    3.2803    0.7853   -0.1593 C   0  0  0  0  0  0  0  0  0  0  0  0
    3.2465   -0.5310   -0.6408 C   0  0  0  0  0  0  0  0  0  0  0  0
    2.0633   -1.0713   -1.3658 C   0  0  0  0  0  0  0  0  0  0  0  0
    2.2652   -1.8612   -2.2792 O   0  0  0  0  0  0  0  0  0  0  0  0
    0.8405   -0.6394   -0.8890 N   0  0  0  0  0  0  0  0  0  0  0  0
   -0.4337   -0.9246   -1.4248 C   0  0  0  0  0  0  0  0  0  0  0  0
   -0.6400   -1.6173   -2.6170 C   0  0  0  0  0  0  0  0  0  0  0  0
   -1.9350   -1.8301   -3.0948 C   0  0  0  0  0  0  0  0  0  0  0  0
   -3.0354   -1.3535   -2.3826 C   0  0  0  0  0  0  0  0  0  0  0  0
   -2.8550   -0.6631   -1.1764 C   0  0  0  0  0  0  0  0  0  0  0  0
   -4.0154   -0.1559   -0.4085 C   0  0  0  0  0  0  0  0  0  0  0  0
   -5.0059   -1.0077   -0.0915 C   0  0  0  0  0  0  0  0  0  0  0  0
   -6.1644   -0.5598    0.6630 C   0  0  0  0  0  0  0  0  0  0  0  0
   -7.2106   -1.4212    1.0009 C   0  0  0  0  0  0  0  0  0  0  0  0
   -8.3066   -0.9408    1.7251 C   0  0  0  0  0  0  0  0  0  0  0  0
   -8.3615    0.3998    2.1133 C   0  0  0  0  0  0  0  0  0  0  0  0
   -7.3204    1.2636    1.7795 C   0  0  0  0  0  0  0  0  0  0  0  0
   -6.2356    0.7702    1.0586 C   0  0  0  0  0  0  0  0  0  0  0  0
   -5.2025    1.6690    0.7453 O   0  0  0  0  0  0  0  0  0  0  0  0
   -4.0722    1.2700    0.0383 C   0  0  0  0  0  0  0  0  0  0  0  0
   -3.1664    2.0658   -0.1921 O   0  0  0  0  0  0  0  0  0  0  0  0
   -1.5462   -0.4536   -0.7117 C   0  0  0  0  0  0  0  0  0  0  0  0
    4.3621   -1.3531   -0.4797 C   0  0  0  0  0  0  0  0  0  0  0  0
    5.4827   -0.8453    0.1879 C   0  0  0  0  0  0  0  0  0  0  0  0
    6.6230   -1.7239    0.3426 N   0  0  0  0  0  4  0  0  0  0  0  0
    6.4749   -2.7014    1.0894 O   0  0  0  0  0  0  0  0  0  0  0  0
    7.6380   -1.4609   -0.3158 O   0  0  0  0  0  1  0  0  0  0  0  0
    7.4608    4.1021    1.2985 H   0  0  0  0  0  0  0  0  0  0  0  0
    8.2282    2.7600    0.4178 H   0  0  0  0  0  0  0  0  0  0  0  0
    6.5756    3.2216    0.0363 H   0  0  0  0  0  0  0  0  0  0  0  0
    5.8710    2.4768    2.3941 H   0  0  0  0  0  0  0  0  0  0  0  0
    7.5437    2.0739    2.7021 H   0  0  0  0  0  0  0  0  0  0  0  0
    4.3858    2.3005    0.8586 H   0  0  0  0  0  0  0  0  0  0  0  0
    2.4432    1.4611   -0.3249 H   0  0  0  0  0  0  0  0  0  0  0  0
    0.8391   -0.0987   -0.0339 H   0  0  0  0  0  0  0  0  0  0  0  0
    0.1882   -1.9935   -3.2097 H   0  0  0  0  0  0  0  0  0  0  0  0
   -2.0810   -2.3627   -4.0317 H   0  0  0  0  0  0  0  0  0  0  0  0
   -4.0318   -1.5186   -2.7871 H   0  0  0  0  0  0  0  0  0  0  0  0
   -4.9735   -2.0540   -0.3807 H   0  0  0  0  0  0  0  0  0  0  0  0
   -7.1874   -2.4680    0.7077 H   0  0  0  0  0  0  0  0  0  0  0  0
   -9.1201   -1.6136    1.9869 H   0  0  0  0  0  0  0  0  0  0  0  0
   -9.2156    0.7689    2.6759 H   0  0  0  0  0  0  0  0  0  0  0  0
   -7.3538    2.3074    2.0778 H   0  0  0  0  0  0  0  0  0  0  0  0
   -1.3973    0.0910    0.2184 H   0  0  0  0  0  0  0  0  0  0  0  0
    4.3576   -2.3701   -0.8684 H   0  0  0  0  0  0  0  0  0  0  0  0
  1  2  1  0
  2  3  1  0
  3  4  1  0
  4  5  2  0
  5  6  1  0
  6  7  2  0
  7  8  1  0
  8  9  2  0
  8 10  1  0
 10 11  1  0
 11 12  2  0
 12 13  1  0
 13 14  2  0
 14 15  1  0
 15 16  1  0
 16 17  2  0
 17 18  1  0
 18 19  2  0
 19 20  1  0
 20 21  2  0
 21 22  1  0
 22 23  2  0
 23 24  1  0
 24 25  1  0
 25 26  2  0
 15 27  2  0
  7 28  1  0
 28 29  2  0
 29 30  1  0
 30 31  2  0
 30 32  1  0
 29  4  1  0
 27 11  1  0
 25 16  1  0
 23 18  1  0
  1 33  1  0
  1 34  1  0
  1 35  1  0
  2 36  1  0
  2 37  1  0
  5 38  1  0
  6 39  1  0
 10 40  1  0
 12 41  1  0
 13 42  1  0
 14 43  1  0
 17 44  1  0
 19 45  1  0
 20 46  1  0
 21 47  1  0
 22 48  1  0
 27 49  1  0
 28 50  1  0
M  CHG  2  30   1  32  -1
M  END
$$$$
