
     RDKit          3D

 44 46  0  0  0  0  0  0  0  0999 V2000
   -7.1540   -0.9144   -1.1290 C   0  0  0  0  0  0  0  0  0  0  0  0
   -6.3138    0.2256   -0.9938 O   0  0  0  0  0  0  0  0  0  0  0  0
   -5.0686    0.0236   -0.4636 C   0  0  0  0  0  0  0  0  0  0  0  0
   -4.4588   -1.2291   -0.3387 C   0  0  0  0  0  0  0  0  0  0  0  0
   -3.1918   -1.3484    0.2459 C   0  0  0  0  0  0  0  0  0  0  0  0
   -2.5219   -0.2177    0.7195 C   0  0  0  0  0  0  0  0  0  0  0  0
   -1.1991   -0.3529    1.3370 C   0  0  0  0  0  0  0  0  0  0  0  0
   -0.0314   -0.1992    0.6807 C   0  0  0  0  0  0  0  0  0  0  0  0
    0.0282    0.1319   -0.7014 C   0  0  0  0  0  0  0  0  0  0  0  0
    0.1725    0.4098   -1.8193 N   0  0  0  0  0  0  0  0  0  0  0  0
    1.2403   -0.3941    1.4711 C   0  0  0  0  0  0  0  0  0  0  0  0
    1.1715   -0.6501    2.6702 O   0  0  0  0  0  0  0  0  0  0  0  0
    2.4110   -0.2635    0.7400 N   0  0  0  0  0  0  0  0  0  0  0  0
    3.7539   -0.4107    1.1935 C   0  0  0  0  0  0  0  0  0  0  0  0
    4.0492   -0.7292    2.5238 C   0  0  0  0  0  0  0  0  0  0  0  0
    5.3667   -0.8787    2.9423 C   0  0  0  0  0  0  0  0  0  0  0  0
    6.4044   -0.7125    2.0327 C   0  0  0  0  0  0  0  0  0  0  0  0
    6.1669   -0.3929    0.7077 C   0  0  0  0  0  0  0  0  0  0  0  0
    7.2418   -0.2478   -0.0867 N   0  0  0  0  0  0  0  0  0  0  0  0
    7.0464    0.0762   -1.3784 C   0  0  0  0  0  0  0  0  0  0  0  0
    5.8003    0.2631   -1.9331 C   0  0  0  0  0  0  0  0  0  0  0  0
    4.6897    0.1065   -1.1094 C   0  0  0  0  0  0  0  0  0  0  0  0
    4.8318   -0.2315    0.2609 C   0  0  0  0  0  0  0  0  0  0  0  0
   -3.1177    1.0369    0.5890 C   0  0  0  0  0  0  0  0  0  0  0  0
   -4.3701    1.1586   -0.0218 C   0  0  0  0  0  0  0  0  0  0  0  0
   -4.8867    2.4299   -0.0776 O   0  0  0  0  0  0  0  0  0  0  0  0
   -5.0438    2.8754   -1.4251 C   0  0  0  0  0  0  0  0  0  0  0  0
   -8.1535   -0.5647   -1.4047 H   0  0  0  0  0  0  0  0  0  0  0  0
   -7.2443   -1.4600   -0.1830 H   0  0  0  0  0  0  0  0  0  0  0  0
   -6.7991   -1.5701   -1.9321 H   0  0  0  0  0  0  0  0  0  0  0  0
   -4.9445   -2.1360   -0.6858 H   0  0  0  0  0  0  0  0  0  0  0  0
   -2.7439   -2.3356    0.3363 H   0  0  0  0  0  0  0  0  0  0  0  0
   -1.2214   -0.6025    2.3974 H   0  0  0  0  0  0  0  0  0  0  0  0
    2.3243   -0.0477   -0.2422 H   0  0  0  0  0  0  0  0  0  0  0  0
    3.2775   -0.8704    3.2735 H   0  0  0  0  0  0  0  0  0  0  0  0
    5.5850   -1.1259    3.9786 H   0  0  0  0  0  0  0  0  0  0  0  0
    7.4312   -0.8312    2.3700 H   0  0  0  0  0  0  0  0  0  0  0  0
    7.9504    0.1879   -1.9710 H   0  0  0  0  0  0  0  0  0  0  0  0
    5.6911    0.5287   -2.9782 H   0  0  0  0  0  0  0  0  0  0  0  0
    3.7176    0.2632   -1.5673 H   0  0  0  0  0  0  0  0  0  0  0  0
   -2.6227    1.9307    0.9591 H   0  0  0  0  0  0  0  0  0  0  0  0
   -5.9846    2.5170   -1.8518 H   0  0  0  0  0  0  0  0  0  0  0  0
   -4.1978    2.5816   -2.0583 H   0  0  0  0  0  0  0  0  0  0  0  0
   -5.0821    3.9700   -1.4085 H   0  0  0  0  0  0  0  0  0  0  0  0
  1  2  1  0
  2  3  1  0
  3  4  2  0
  4  5  1  0
  5  6  2  0
  6  7  1  0
  7  8  2  3
  8  9  1  0
  9 10  3  0
  8 11  1  0
 11 12  2  0
 11 13  1  0
 13 14  1  0
 14 15  2  0
 15 16  1  0
 16 17  2  0
 17 18  1  0
 18 19  2  0
 19 20  1  0
 20 21  2  0
 21 22  1  0
 22 23  2  0
  6 24  1  0
 24 25  2  0
 25 26  1  0
 26 27  1  0
 25  3  1  0
 23 14  1  0
 23 18  1  0
  1 28  1  0
  1 29  1  0
  1 30  1  0
  4 31  1  0
  5 32  1  0
  7 33  1  0
 13 34  1  0
 15 35  1  0
 16 36  1  0
 17 37  1  0
 20 38  1  0
 21 39  1  0
 22 40  1  0
 24 41  1  0
 27 42  1  0
 27 43  1  0
 27 44  1  0
M  END
$$$$
