
     RDKit          3D

 51 54  0  0  0  0  0  0  0  0999 V2000
    3.9428    3.1637    0.2307 O   0  0  0  0  0  0  0  0  0  0  0  0
    3.0183    2.3571    0.1752 C   0  0  0  0  0  0  0  0  0  0  0  0
    1.5777    2.8314   -0.0832 C   0  0  0  0  0  0  0  0  0  0  0  0
    0.5629    1.7877   -0.0133 N   0  0  0  0  0  0  0  0  0  0  0  0
    0.0425    1.4157    1.2111 C   0  0  0  0  0  0  0  0  0  0  0  0
    0.5241    1.6884    2.2961 O   0  0  0  0  0  0  0  0  0  0  0  0
   -1.2396    0.6016    1.0895 C   0  0  0  0  0  0  0  0  0  0  0  0
   -2.1217    1.0848    0.2653 N   0  0  0  0  0  0  0  0  0  0  0  0
   -3.2932    0.3886    0.0651 N   0  0  0  0  0  0  0  0  0  0  0  0
   -4.2159    0.9471   -0.9219 C   0  0  0  0  0  0  0  0  0  0  0  0
   -3.7519    0.6844   -2.3366 C   0  0  0  0  0  0  0  0  0  0  0  0
   -3.0618    1.6702   -3.0570 C   0  0  0  0  0  0  0  0  0  0  0  0
   -2.6184    1.4171   -4.3560 C   0  0  0  0  0  0  0  0  0  0  0  0
   -2.8546    0.1759   -4.9444 C   0  0  0  0  0  0  0  0  0  0  0  0
   -3.5325   -0.8141   -4.2352 C   0  0  0  0  0  0  0  0  0  0  0  0
   -3.9778   -0.5629   -2.9368 C   0  0  0  0  0  0  0  0  0  0  0  0
   -3.5937   -0.8268    0.6744 C   0  0  0  0  0  0  0  0  0  0  0  0
   -4.6243   -1.4646    0.4729 O   0  0  0  0  0  0  0  0  0  0  0  0
   -2.5851   -1.3605    1.6106 C   0  0  0  0  0  0  0  0  0  0  0  0
   -2.8113   -2.5791    2.2651 C   0  0  0  0  0  0  0  0  0  0  0  0
   -1.8484   -3.0933    3.1326 C   0  0  0  0  0  0  0  0  0  0  0  0
   -0.6613   -2.3945    3.3445 C   0  0  0  0  0  0  0  0  0  0  0  0
   -0.4341   -1.1794    2.6926 C   0  0  0  0  0  0  0  0  0  0  0  0
   -1.4033   -0.6584    1.8265 C   0  0  0  0  0  0  0  0  0  0  0  0
    3.1361    0.9848    0.2644 N   0  0  0  0  0  0  0  0  0  0  0  0
    4.2902    0.2172    0.5102 C   0  0  0  0  0  0  0  0  0  0  0  0
    5.5728    0.7514    0.6620 C   0  0  0  0  0  0  0  0  0  0  0  0
    6.6623   -0.0934    0.9073 C   0  0  0  0  0  0  0  0  0  0  0  0
    6.4681   -1.4683    1.0012 C   0  0  0  0  0  0  0  0  0  0  0  0
    7.5188   -2.2651    1.2370 F   0  0  0  0  0  0  0  0  0  0  0  0
    5.2004   -2.0100    0.8538 C   0  0  0  0  0  0  0  0  0  0  0  0
    5.0159   -3.3346    0.9470 F   0  0  0  0  0  0  0  0  0  0  0  0
    4.1209   -1.1713    0.6103 C   0  0  0  0  0  0  0  0  0  0  0  0
    2.8901   -1.6940    0.4731 F   0  0  0  0  0  0  0  0  0  0  0  0
    1.3343    3.6141    0.6428 H   0  0  0  0  0  0  0  0  0  0  0  0
    1.5412    3.2474   -1.0948 H   0  0  0  0  0  0  0  0  0  0  0  0
   -0.1058    1.7275   -0.7792 H   0  0  0  0  0  0  0  0  0  0  0  0
   -5.2220    0.5339   -0.7844 H   0  0  0  0  0  0  0  0  0  0  0  0
   -4.2977    2.0255   -0.7373 H   0  0  0  0  0  0  0  0  0  0  0  0
   -2.8674    2.6410   -2.6069 H   0  0  0  0  0  0  0  0  0  0  0  0
   -2.0904    2.1884   -4.9105 H   0  0  0  0  0  0  0  0  0  0  0  0
   -2.5109   -0.0209   -5.9565 H   0  0  0  0  0  0  0  0  0  0  0  0
   -3.7156   -1.7831   -4.6924 H   0  0  0  0  0  0  0  0  0  0  0  0
   -4.5026   -1.3457   -2.3910 H   0  0  0  0  0  0  0  0  0  0  0  0
   -3.7348   -3.1306    2.0975 H   0  0  0  0  0  0  0  0  0  0  0  0
   -2.0232   -4.0392    3.6406 H   0  0  0  0  0  0  0  0  0  0  0  0
    0.0912   -2.7965    4.0204 H   0  0  0  0  0  0  0  0  0  0  0  0
    0.5034   -0.6638    2.8850 H   0  0  0  0  0  0  0  0  0  0  0  0
    2.2656    0.4675    0.1813 H   0  0  0  0  0  0  0  0  0  0  0  0
    5.7588    1.8197    0.5953 H   0  0  0  0  0  0  0  0  0  0  0  0
    7.6609    0.3180    1.0260 H   0  0  0  0  0  0  0  0  0  0  0  0
  1  2  2  0
  2  3  1  0
  3  4  1  0
  4  5  1  0
  5  6  2  0
  5  7  1  0
  7  8  2  0
  8  9  1  0
  9 10  1  0
 10 11  1  0
 11 12  2  0
 12 13  1  0
 13 14  2  0
 14 15  1  0
 15 16  2  0
  9 17  1  0
 17 18  2  0
 17 19  1  0
 19 20  2  0
 20 21  1  0
 21 22  2  0
 22 23  1  0
 23 24  2  0
  2 25  1  0
 25 26  1  0
 26 27  2  0
 27 28  1  0
 28 29  2  0
 29 30  1  0
 29 31  1  0
 31 32  1  0
 31 33  2  0
 33 34  1  0
 24  7  1  0
 33 26  1  0
 16 11  1  0
 24 19  1  0
  3 35  1  0
  3 36  1  0
  4 37  1  0
 10 38  1  0
 10 39  1  0
 12 40  1  0
 13 41  1  0
 14 42  1  0
 15 43  1  0
 16 44  1  0
 20 45  1  0
 21 46  1  0
 22 47  1  0
 23 48  1  0
 25 49  1  0
 27 50  1  0
 28 51  1  0
M  END
$$$$
