
     RDKit          3D

 38 40  0  0  0  0  0  0  0  0999 V2000
   -4.8240    3.2966    0.4099 C   0  0  0  0  0  0  0  0  0  0  0  0
   -4.0200    2.1161   -0.0517 C   0  0  0  0  0  0  0  0  0  0  0  0
   -4.5578    0.8234    0.0191 C   0  0  0  0  0  0  0  0  0  0  0  0
   -3.8261   -0.2731   -0.4392 C   0  0  0  0  0  0  0  0  0  0  0  0
   -2.5506   -0.0738   -0.9733 C   0  0  0  0  0  0  0  0  0  0  0  0
   -1.6274   -1.4696   -1.5610 S   0  0  0  0  0  6  0  0  0  0  0  0
   -2.5696   -2.3778   -2.1816 O   0  0  0  0  0  0  0  0  0  0  0  0
   -0.4640   -0.9976   -2.2805 O   0  0  0  0  0  0  0  0  0  0  0  0
   -1.1346   -2.2204   -0.1260 N   0  0  0  0  0  0  0  0  0  0  0  0
    0.0237   -1.7133    0.5245 C   0  0  0  0  0  0  0  0  0  0  0  0
   -0.0901   -0.6365    1.4004 C   0  0  0  0  0  0  0  0  0  0  0  0
    1.0526   -0.1128    2.0016 C   0  0  0  0  0  0  0  0  0  0  0  0
    2.3031   -0.6576    1.7126 C   0  0  0  0  0  0  0  0  0  0  0  0
    3.3685   -0.0677    2.3354 O   0  0  0  0  0  0  0  0  0  0  0  0
    2.4330   -1.7430    0.8335 C   0  0  0  0  0  0  0  0  0  0  0  0
    3.9810   -2.5672    0.4902 S   0  0  0  0  0  0  0  0  0  0  0  0
    4.8827   -1.3288   -0.3324 C   0  0  0  0  0  0  0  0  0  0  0  0
    5.1446   -0.1092    0.2399 N   0  0  0  0  0  0  0  0  0  0  0  0
    5.8470    0.5012   -0.6868 C   0  0  0  0  0  0  0  0  0  0  0  0
    6.0089   -0.3257   -1.7540 N   0  0  0  0  0  0  0  0  0  0  0  0
    5.4154   -1.5102   -1.5427 N   0  0  0  0  0  0  0  0  0  0  0  0
    1.2748   -2.2644    0.2387 C   0  0  0  0  0  0  0  0  0  0  0  0
   -2.0126    1.2110   -1.0762 C   0  0  0  0  0  0  0  0  0  0  0  0
   -2.7499    2.3028   -0.6152 C   0  0  0  0  0  0  0  0  0  0  0  0
   -5.4874    3.0182    1.2355 H   0  0  0  0  0  0  0  0  0  0  0  0
   -4.1700    4.0957    0.7747 H   0  0  0  0  0  0  0  0  0  0  0  0
   -5.4289    3.6830   -0.4161 H   0  0  0  0  0  0  0  0  0  0  0  0
   -5.5531    0.6649    0.4297 H   0  0  0  0  0  0  0  0  0  0  0  0
   -4.2533   -1.2715   -0.3810 H   0  0  0  0  0  0  0  0  0  0  0  0
   -1.2263   -3.2328   -0.2053 H   0  0  0  0  0  0  0  0  0  0  0  0
   -1.0602   -0.2067    1.6334 H   0  0  0  0  0  0  0  0  0  0  0  0
    0.9733    0.7239    2.6905 H   0  0  0  0  0  0  0  0  0  0  0  0
    4.1547   -0.1943    1.7625 H   0  0  0  0  0  0  0  0  0  0  0  0
    6.2514    1.5027   -0.6437 H   0  0  0  0  0  0  0  0  0  0  0  0
    6.4973   -0.1611   -2.6277 H   0  0  0  0  0  0  0  0  0  0  0  0
    1.3496   -3.0969   -0.4569 H   0  0  0  0  0  0  0  0  0  0  0  0
   -1.0269    1.3701   -1.5085 H   0  0  0  0  0  0  0  0  0  0  0  0
   -2.3286    3.3026   -0.7000 H   0  0  0  0  0  0  0  0  0  0  0  0
  1  2  1  0
  2  3  2  0
  3  4  1  0
  4  5  2  0
  5  6  1  0
  6  7  2  0
  6  8  2  0
  6  9  1  0
  9 10  1  0
 10 11  2  0
 11 12  1  0
 12 13  2  0
 13 14  1  0
 13 15  1  0
 15 16  1  0
 16 17  1  0
 17 18  1  0
 18 19  2  0
 19 20  1  0
 20 21  1  0
 15 22  2  0
  5 23  1  0
 23 24  2  0
 24  2  1  0
 22 10  1  0
 21 17  2  0
  1 25  1  0
  1 26  1  0
  1 27  1  0
  3 28  1  0
  4 29  1  0
  9 30  1  0
 11 31  1  0
 12 32  1  0
 14 33  1  0
 19 34  1  0
 20 35  1  0
 22 36  1  0
 23 37  1  0
 24 38  1  0
M  END
$$$$
