
     RDKit          3D

 46 48  0  0  0  0  0  0  0  0999 V2000
   -2.1208   -2.0420   -1.9328 C   0  0  0  0  0  0  0  0  0  0  0  0
   -2.1197   -0.5621   -1.5981 C   0  0  0  0  0  0  0  0  0  0  0  0
   -2.6305   -0.3520   -0.2096 N   0  0  0  0  0  4  0  0  0  0  0  0
   -1.7369   -0.2580    0.8215 C   0  0  0  0  0  0  0  0  0  0  0  0
   -0.2989   -0.4630    0.6025 C   0  0  0  0  0  0  0  0  0  0  0  0
    0.5926    0.5330    0.7327 C   0  0  0  0  0  0  0  0  0  0  0  0
    2.0435    0.3641    0.5513 C   0  0  0  0  0  0  0  0  0  0  0  0
    2.5851   -0.4939   -0.4112 C   0  0  0  0  0  0  0  0  0  0  0  0
    3.9707   -0.6038   -0.5697 C   0  0  0  0  0  0  0  0  0  0  0  0
    4.8365    0.1507    0.2256 C   0  0  0  0  0  0  0  0  0  0  0  0
    6.2047    0.1084    0.1406 O   0  0  0  0  0  0  0  0  0  0  0  0
    6.7871   -0.7811   -0.8012 C   0  0  0  0  0  0  0  0  0  0  0  0
    4.3029    1.0304    1.1871 C   0  0  0  0  0  0  0  0  0  0  0  0
    5.2184    1.7407    1.9226 O   0  0  0  0  0  0  0  0  0  0  0  0
    4.7352    2.6377    2.9112 C   0  0  0  0  0  0  0  0  0  0  0  0
    2.9135    1.1337    1.3378 C   0  0  0  0  0  0  0  0  0  0  0  0
   -2.1717    0.0034    2.1214 C   0  0  0  0  0  0  0  0  0  0  0  0
   -3.5180    0.1709    2.3830 C   0  0  0  0  0  0  0  0  0  0  0  0
   -4.4330    0.0620    1.3438 C   0  0  0  0  0  0  0  0  0  0  0  0
   -5.8014    0.2188    1.6096 C   0  0  0  0  0  0  0  0  0  0  0  0
   -6.7407    0.1043    0.5893 C   0  0  0  0  0  0  0  0  0  0  0  0
   -6.3226   -0.1716   -0.7049 C   0  0  0  0  0  0  0  0  0  0  0  0
   -4.9608   -0.3289   -0.9854 C   0  0  0  0  0  0  0  0  0  0  0  0
   -3.9815   -0.2109    0.0220 C   0  0  0  0  0  0  0  0  0  0  0  0
   -1.4862   -2.6069   -1.2435 H   0  0  0  0  0  0  0  0  0  0  0  0
   -3.1265   -2.4685   -1.8749 H   0  0  0  0  0  0  0  0  0  0  0  0
   -1.7438   -2.1995   -2.9479 H   0  0  0  0  0  0  0  0  0  0  0  0
   -2.7297    0.0205   -2.2940 H   0  0  0  0  0  0  0  0  0  0  0  0
   -1.1148   -0.1406   -1.6885 H   0  0  0  0  0  0  0  0  0  0  0  0
    0.0076   -1.4764    0.3573 H   0  0  0  0  0  0  0  0  0  0  0  0
    0.2769    1.5383    1.0113 H   0  0  0  0  0  0  0  0  0  0  0  0
    1.9489   -1.0852   -1.0635 H   0  0  0  0  0  0  0  0  0  0  0  0
    4.3452   -1.2840   -1.3280 H   0  0  0  0  0  0  0  0  0  0  0  0
    7.8746   -0.6906   -0.7192 H   0  0  0  0  0  0  0  0  0  0  0  0
    6.5070   -0.5103   -1.8244 H   0  0  0  0  0  0  0  0  0  0  0  0
    6.5219   -1.8200   -0.5797 H   0  0  0  0  0  0  0  0  0  0  0  0
    4.1721    2.1060    3.6851 H   0  0  0  0  0  0  0  0  0  0  0  0
    4.1340    3.4343    2.4609 H   0  0  0  0  0  0  0  0  0  0  0  0
    5.6003    3.1051    3.3914 H   0  0  0  0  0  0  0  0  0  0  0  0
    2.4924    1.8092    2.0756 H   0  0  0  0  0  0  0  0  0  0  0  0
   -1.4584    0.0700    2.9424 H   0  0  0  0  0  0  0  0  0  0  0  0
   -3.8428    0.3751    3.4031 H   0  0  0  0  0  0  0  0  0  0  0  0
   -6.1559    0.4305    2.6188 H   0  0  0  0  0  0  0  0  0  0  0  0
   -7.8009    0.2265    0.8073 H   0  0  0  0  0  0  0  0  0  0  0  0
   -7.0611   -0.2675   -1.5003 H   0  0  0  0  0  0  0  0  0  0  0  0
   -4.7148   -0.5564   -2.0179 H   0  0  0  0  0  0  0  0  0  0  0  0
  1  2  1  0
  2  3  1  0
  3  4  2  0
  4  5  1  0
  5  6  2  3
  6  7  1  0
  7  8  2  0
  8  9  1  0
  9 10  2  0
 10 11  1  0
 11 12  1  0
 10 13  1  0
 13 14  1  0
 14 15  1  0
 13 16  2  0
  4 17  1  0
 17 18  2  0
 18 19  1  0
 19 20  2  0
 20 21  1  0
 21 22  2  0
 22 23  1  0
 23 24  2  0
 24  3  1  0
 16  7  1  0
 24 19  1  0
  1 25  1  0
  1 26  1  0
  1 27  1  0
  2 28  1  0
  2 29  1  0
  5 30  1  0
  6 31  1  0
  8 32  1  0
  9 33  1  0
 12 34  1  0
 12 35  1  0
 12 36  1  0
 15 37  1  0
 15 38  1  0
 15 39  1  0
 16 40  1  0
 17 41  1  0
 18 42  1  0
 20 43  1  0
 21 44  1  0
 22 45  1  0
 23 46  1  0
M  CHG  1   3   1
M  END
$$$$
