
     RDKit          3D

 35 35  0  0  0  0  0  0  0  0999 V2000
   -2.3325   -0.2640    1.3049 C   0  0  0  0  0  0  0  0  0  0  0  0
   -2.6357   -0.2695   -0.2042 C   0  0  0  0  0  0  0  0  0  0  0  0
   -3.0279   -1.7105   -0.5785 C   0  0  0  0  0  0  0  0  0  0  0  0
   -1.4721    0.2578   -0.9609 N   0  0  0  0  0  0  0  0  0  0  0  0
   -1.4991   -0.1072   -2.3830 C   0  0  0  0  0  0  0  0  0  0  0  0
   -1.3544    1.7328   -0.8287 C   0  0  0  0  0  0  0  0  0  0  0  0
    0.0496    2.2869   -1.1399 C   0  0  0  0  0  0  0  0  0  0  0  0
    1.0011    1.7193   -0.2259 O   0  0  0  0  0  0  0  0  0  0  0  0
    1.7759    0.7307   -0.7289 C   0  0  0  0  0  0  0  0  0  0  0  0
    1.8674    0.3527   -1.8839 O   0  0  0  0  0  0  0  0  0  0  0  0
    2.4571    0.0761    0.3950 C   0  0  0  0  0  0  0  0  0  0  0  0
    2.0501   -1.2272    0.7112 C   0  0  0  0  0  0  0  0  0  0  0  0
    2.6529   -1.9064    1.7694 C   0  0  0  0  0  0  0  0  0  0  0  0
    3.6636   -1.2885    2.5056 C   0  0  0  0  0  0  0  0  0  0  0  0
    4.0770    0.0073    2.1832 C   0  0  0  0  0  0  0  0  0  0  0  0
    3.4765    0.6947    1.1235 C   0  0  0  0  0  0  0  0  0  0  0  0
    4.1201    2.4326    0.7165 Br  0  0  0  0  0  0  0  0  0  0  0  0
   -3.1616   -0.7078    1.8680 H   0  0  0  0  0  0  0  0  0  0  0  0
   -2.1924    0.7444    1.7033 H   0  0  0  0  0  0  0  0  0  0  0  0
   -1.4300   -0.8445    1.5287 H   0  0  0  0  0  0  0  0  0  0  0  0
   -3.5136    0.3631   -0.3916 H   0  0  0  0  0  0  0  0  0  0  0  0
   -2.1777   -2.3948   -0.4796 H   0  0  0  0  0  0  0  0  0  0  0  0
   -3.8276   -2.0770    0.0752 H   0  0  0  0  0  0  0  0  0  0  0  0
   -3.4097   -1.7733   -1.6027 H   0  0  0  0  0  0  0  0  0  0  0  0
   -0.6673    0.3381   -2.9363 H   0  0  0  0  0  0  0  0  0  0  0  0
   -1.3795   -1.1876   -2.5139 H   0  0  0  0  0  0  0  0  0  0  0  0
   -2.4304    0.2092   -2.8665 H   0  0  0  0  0  0  0  0  0  0  0  0
   -2.0992    2.2359   -1.4585 H   0  0  0  0  0  0  0  0  0  0  0  0
   -1.5675    2.0329    0.2018 H   0  0  0  0  0  0  0  0  0  0  0  0
    0.0507    3.3682   -0.9627 H   0  0  0  0  0  0  0  0  0  0  0  0
    0.3339    2.1454   -2.1877 H   0  0  0  0  0  0  0  0  0  0  0  0
    1.2589   -1.7048    0.1357 H   0  0  0  0  0  0  0  0  0  0  0  0
    2.3350   -2.9160    2.0187 H   0  0  0  0  0  0  0  0  0  0  0  0
    4.1353   -1.8183    3.3301 H   0  0  0  0  0  0  0  0  0  0  0  0
    4.8732    0.4693    2.7624 H   0  0  0  0  0  0  0  0  0  0  0  0
  1  2  1  0
  2  3  1  0
  2  4  1  0
  4  5  1  0
  4  6  1  0
  6  7  1  0
  7  8  1  0
  8  9  1  0
  9 10  2  0
  9 11  1  0
 11 12  2  0
 12 13  1  0
 13 14  2  0
 14 15  1  0
 15 16  2  0
 16 17  1  0
 16 11  1  0
  1 18  1  0
  1 19  1  0
  1 20  1  0
  2 21  1  0
  3 22  1  0
  3 23  1  0
  3 24  1  0
  5 25  1  0
  5 26  1  0
  5 27  1  0
  6 28  1  0
  6 29  1  0
  7 30  1  0
  7 31  1  0
 12 32  1  0
 13 33  1  0
 14 34  1  0
 15 35  1  0
M  END
$$$$
