
     RDKit          3D

 43 45  0  0  0  0  0  0  0  0999 V2000
    7.9431   -1.5548    0.2463 C   0  0  0  0  0  0  0  0  0  0  0  0
    6.5773   -1.2515   -0.0409 O   0  0  0  0  0  0  0  0  0  0  0  0
    6.0509   -0.2826    0.7488 C   0  0  0  0  0  0  0  0  0  0  0  0
    6.6372    0.3092    1.6414 O   0  0  0  0  0  0  0  0  0  0  0  0
    4.6311   -0.0211    0.3863 C   0  0  0  0  0  0  0  0  0  0  0  0
    3.9388    0.9718    1.0923 C   0  0  0  0  0  0  0  0  0  0  0  0
    2.6011    1.2591    0.7937 C   0  0  0  0  0  0  0  0  0  0  0  0
    1.9427    0.5533   -0.2130 C   0  0  0  0  0  0  0  0  0  0  0  0
    0.6446    0.7274   -0.6029 O   0  0  0  0  0  0  0  0  0  0  0  0
   -0.1270    1.6824    0.1140 C   0  0  0  0  0  0  0  0  0  0  0  0
   -1.5577    1.7366   -0.4408 C   0  0  0  0  0  0  0  0  0  0  0  0
   -1.9177    2.7879   -0.9789 O   0  0  0  0  0  0  0  0  0  0  0  0
   -2.3726    0.5967   -0.2506 N   0  0  0  0  0  0  0  0  0  0  0  0
   -1.9600   -0.4387    0.7083 C   0  0  0  0  0  0  0  0  0  0  0  0
   -2.7350   -1.7400    0.6219 C   0  0  0  0  0  0  0  0  0  0  0  0
   -4.2107   -1.4458    0.7656 C   0  0  0  0  0  0  0  0  0  0  0  0
   -4.6213   -0.4569   -0.2888 C   0  0  0  0  0  0  0  0  0  0  0  0
   -5.9463   -0.5102   -0.7619 C   0  0  0  0  0  0  0  0  0  0  0  0
   -6.3835    0.3665   -1.7473 C   0  0  0  0  0  0  0  0  0  0  0  0
   -5.4989    1.2991   -2.2684 C   0  0  0  0  0  0  0  0  0  0  0  0
   -4.1852    1.3692   -1.7895 C   0  0  0  0  0  0  0  0  0  0  0  0
   -3.7216    0.5191   -0.7731 C   0  0  0  0  0  0  0  0  0  0  0  0
    2.6333   -0.4352   -0.9196 C   0  0  0  0  0  0  0  0  0  0  0  0
    3.9693   -0.7250   -0.6255 C   0  0  0  0  0  0  0  0  0  0  0  0
    8.2676   -2.3399   -0.4422 H   0  0  0  0  0  0  0  0  0  0  0  0
    8.5731   -0.6737    0.0887 H   0  0  0  0  0  0  0  0  0  0  0  0
    8.0459   -1.9279    1.2702 H   0  0  0  0  0  0  0  0  0  0  0  0
    4.4408    1.5321    1.8798 H   0  0  0  0  0  0  0  0  0  0  0  0
    2.1123    2.0425    1.3638 H   0  0  0  0  0  0  0  0  0  0  0  0
    0.3090    2.6811   -0.0174 H   0  0  0  0  0  0  0  0  0  0  0  0
   -0.1679    1.4566    1.1858 H   0  0  0  0  0  0  0  0  0  0  0  0
   -0.9052   -0.6817    0.5638 H   0  0  0  0  0  0  0  0  0  0  0  0
   -2.0547   -0.0034    1.7114 H   0  0  0  0  0  0  0  0  0  0  0  0
   -2.5354   -2.2288   -0.3406 H   0  0  0  0  0  0  0  0  0  0  0  0
   -2.4073   -2.4268    1.4101 H   0  0  0  0  0  0  0  0  0  0  0  0
   -4.7716   -2.3817    0.6584 H   0  0  0  0  0  0  0  0  0  0  0  0
   -4.4345   -1.0311    1.7556 H   0  0  0  0  0  0  0  0  0  0  0  0
   -6.6413   -1.2474   -0.3656 H   0  0  0  0  0  0  0  0  0  0  0  0
   -7.4048    0.3158   -2.1141 H   0  0  0  0  0  0  0  0  0  0  0  0
   -5.8214    1.9799   -3.0522 H   0  0  0  0  0  0  0  0  0  0  0  0
   -3.5399    2.1021   -2.2627 H   0  0  0  0  0  0  0  0  0  0  0  0
    2.1268   -0.9849   -1.7103 H   0  0  0  0  0  0  0  0  0  0  0  0
    4.4762   -1.4994   -1.1956 H   0  0  0  0  0  0  0  0  0  0  0  0
  1  2  1  0
  2  3  1  0
  3  4  2  0
  3  5  1  0
  5  6  2  0
  6  7  1  0
  7  8  2  0
  8  9  1  0
  9 10  1  0
 10 11  1  0
 11 12  2  0
 11 13  1  0
 13 14  1  0
 14 15  1  0
 15 16  1  0
 16 17  1  0
 17 18  2  0
 18 19  1  0
 19 20  2  0
 20 21  1  0
 21 22  2  0
  8 23  1  0
 23 24  2  0
 24  5  1  0
 22 13  1  0
 22 17  1  0
  1 25  1  0
  1 26  1  0
  1 27  1  0
  6 28  1  0
  7 29  1  0
 10 30  1  0
 10 31  1  0
 14 32  1  0
 14 33  1  0
 15 34  1  0
 15 35  1  0
 16 36  1  0
 16 37  1  0
 18 38  1  0
 19 39  1  0
 20 40  1  0
 21 41  1  0
 23 42  1  0
 24 43  1  0
M  END
$$$$
