
     RDKit          3D

 30 31  0  0  0  0  0  0  0  0999 V2000
   -3.5791   -0.4729   -1.9962 C   0  0  0  0  0  0  0  0  0  0  0  0
   -3.8575   -0.2964   -0.5530 C   0  0  0  0  0  0  0  0  0  0  0  0
   -5.1036   -0.6901   -0.1595 O   0  0  0  0  0  0  0  0  0  0  0  0
   -5.2162   -0.4217    1.1628 C   0  0  0  0  0  0  0  0  0  0  0  0
   -4.0555    0.1381    1.6329 C   0  0  0  0  0  0  0  0  0  0  0  0
   -3.1484    0.2073    0.5294 C   0  0  0  0  0  0  0  0  0  0  0  0
   -1.7934    0.7378    0.5816 C   0  0  0  0  0  0  0  0  0  0  0  0
   -1.3990    1.4263    1.5222 O   0  0  0  0  0  0  0  0  0  0  0  0
   -0.9629    0.3905   -0.4673 N   0  0  0  0  0  0  0  0  0  0  0  0
    0.4098    0.6682   -0.3340 N   0  0  0  0  0  0  0  0  0  0  0  0
    1.2958   -0.2663   -0.8318 C   0  0  0  0  0  0  0  0  0  0  0  0
    0.9149   -1.2156   -1.5162 O   0  0  0  0  0  0  0  0  0  0  0  0
    2.7368   -0.0948   -0.5075 C   0  0  0  0  0  0  0  0  0  0  0  0
    3.6541   -1.0163   -1.0355 C   0  0  0  0  0  0  0  0  0  0  0  0
    5.0190   -0.8956   -0.7587 C   0  0  0  0  0  0  0  0  0  0  0  0
    5.4794    0.1448    0.0475 C   0  0  0  0  0  0  0  0  0  0  0  0
    4.5752    1.0640    0.5772 C   0  0  0  0  0  0  0  0  0  0  0  0
    3.2147    0.9402    0.2984 C   0  0  0  0  0  0  0  0  0  0  0  0
    2.3793    1.8439    0.8326 F   0  0  0  0  0  0  0  0  0  0  0  0
   -4.5057   -0.6109   -2.5628 H   0  0  0  0  0  0  0  0  0  0  0  0
   -2.9506   -1.3536   -2.1590 H   0  0  0  0  0  0  0  0  0  0  0  0
   -3.0698    0.4045   -2.4057 H   0  0  0  0  0  0  0  0  0  0  0  0
   -6.1646   -0.6760    1.6151 H   0  0  0  0  0  0  0  0  0  0  0  0
   -3.8640    0.4586    2.6483 H   0  0  0  0  0  0  0  0  0  0  0  0
   -1.1708   -0.4270   -1.0367 H   0  0  0  0  0  0  0  0  0  0  0  0
    0.6685    1.3462    0.3864 H   0  0  0  0  0  0  0  0  0  0  0  0
    3.3091   -1.8339   -1.6667 H   0  0  0  0  0  0  0  0  0  0  0  0
    5.7216   -1.6155   -1.1734 H   0  0  0  0  0  0  0  0  0  0  0  0
    6.5413    0.2381    0.2631 H   0  0  0  0  0  0  0  0  0  0  0  0
    4.9212    1.8778    1.2079 H   0  0  0  0  0  0  0  0  0  0  0  0
  1  2  1  0
  2  3  1  0
  3  4  1  0
  4  5  2  0
  5  6  1  0
  6  7  1  0
  7  8  2  0
  7  9  1  0
  9 10  1  0
 10 11  1  0
 11 12  2  0
 11 13  1  0
 13 14  2  0
 14 15  1  0
 15 16  2  0
 16 17  1  0
 17 18  2  0
 18 19  1  0
  6  2  2  0
 18 13  1  0
  1 20  1  0
  1 21  1  0
  1 22  1  0
  4 23  1  0
  5 24  1  0
  9 25  1  0
 10 26  1  0
 14 27  1  0
 15 28  1  0
 16 29  1  0
 17 30  1  0
M  END
$$$$
