
     RDKit          3D

 45 46  0  0  0  0  0  0  0  0999 V2000
    6.1754   -3.7046    1.4976 C   0  0  0  0  0  0  0  0  0  0  0  0
    5.4999   -3.0603    0.4238 O   0  0  0  0  0  0  0  0  0  0  0  0
    4.7549   -1.9560    0.7342 C   0  0  0  0  0  0  0  0  0  0  0  0
    4.5805   -1.4170    2.0095 C   0  0  0  0  0  0  0  0  0  0  0  0
    3.7852   -0.2798    2.1860 C   0  0  0  0  0  0  0  0  0  0  0  0
    3.1481    0.3162    1.0906 C   0  0  0  0  0  0  0  0  0  0  0  0
    2.3385    1.5260    1.3487 C   0  0  0  0  0  0  0  0  0  0  0  0
    2.8052    2.4309    2.0372 O   0  0  0  0  0  0  0  0  0  0  0  0
    0.9469    1.6428    0.8382 C   0  0  0  0  0  0  0  0  0  0  0  0
    0.1629    0.6034    0.5139 C   0  0  0  0  0  0  0  0  0  0  0  0
   -1.2202    0.7535    0.0372 C   0  0  0  0  0  0  0  0  0  0  0  0
   -2.1144    1.6554    0.6344 C   0  0  0  0  0  0  0  0  0  0  0  0
   -3.4324    1.7569    0.1818 C   0  0  0  0  0  0  0  0  0  0  0  0
   -4.3734    2.6097    0.6992 O   0  0  0  0  0  0  0  0  0  0  0  0
   -3.9190    3.6172    1.5925 C   0  0  0  0  0  0  0  0  0  0  0  0
   -3.8578    0.9171   -0.8610 C   0  0  0  0  0  0  0  0  0  0  0  0
   -5.1444    1.0352   -1.3410 O   0  0  0  0  0  0  0  0  0  0  0  0
   -6.0070    0.1480   -0.6316 C   0  0  0  0  0  0  0  0  0  0  0  0
   -2.9757    0.0136   -1.4769 C   0  0  0  0  0  0  0  0  0  0  0  0
   -3.4940   -0.7442   -2.4954 O   0  0  0  0  0  0  0  0  0  0  0  0
   -2.5806   -1.5072   -3.2711 C   0  0  0  0  0  0  0  0  0  0  0  0
   -1.6619   -0.0702   -1.0093 C   0  0  0  0  0  0  0  0  0  0  0  0
    3.3463   -0.2085   -0.1890 C   0  0  0  0  0  0  0  0  0  0  0  0
    2.7874    0.3954   -1.2800 O   0  0  0  0  0  0  0  0  0  0  0  0
    4.1382   -1.3450   -0.3635 C   0  0  0  0  0  0  0  0  0  0  0  0
    6.7264   -4.5546    1.0835 H   0  0  0  0  0  0  0  0  0  0  0  0
    5.4642   -4.0949    2.2330 H   0  0  0  0  0  0  0  0  0  0  0  0
    6.9020   -3.0329    1.9665 H   0  0  0  0  0  0  0  0  0  0  0  0
    5.0513   -1.8501    2.8862 H   0  0  0  0  0  0  0  0  0  0  0  0
    3.6646    0.1445    3.1813 H   0  0  0  0  0  0  0  0  0  0  0  0
    0.5895    2.6668    0.7942 H   0  0  0  0  0  0  0  0  0  0  0  0
    0.5261   -0.4189    0.5740 H   0  0  0  0  0  0  0  0  0  0  0  0
   -1.7672    2.2614    1.4649 H   0  0  0  0  0  0  0  0  0  0  0  0
   -3.5840    3.1789    2.5380 H   0  0  0  0  0  0  0  0  0  0  0  0
   -4.7654    4.2747    1.8132 H   0  0  0  0  0  0  0  0  0  0  0  0
   -3.1321    4.2288    1.1383 H   0  0  0  0  0  0  0  0  0  0  0  0
   -7.0155    0.2650   -1.0397 H   0  0  0  0  0  0  0  0  0  0  0  0
   -6.0448    0.3937    0.4352 H   0  0  0  0  0  0  0  0  0  0  0  0
   -5.7071   -0.8967   -0.7689 H   0  0  0  0  0  0  0  0  0  0  0  0
   -1.7998   -0.8740   -3.7057 H   0  0  0  0  0  0  0  0  0  0  0  0
   -3.1392   -1.9596   -4.0962 H   0  0  0  0  0  0  0  0  0  0  0  0
   -2.1476   -2.3196   -2.6787 H   0  0  0  0  0  0  0  0  0  0  0  0
   -0.9576   -0.7689   -1.4494 H   0  0  0  0  0  0  0  0  0  0  0  0
    3.1528   -0.0020   -2.0887 H   0  0  0  0  0  0  0  0  0  0  0  0
    4.2945   -1.7700   -1.3512 H   0  0  0  0  0  0  0  0  0  0  0  0
  1  2  1  0
  2  3  1  0
  3  4  2  0
  4  5  1  0
  5  6  2  0
  6  7  1  0
  7  8  2  0
  7  9  1  0
  9 10  2  0
 10 11  1  0
 11 12  2  0
 12 13  1  0
 13 14  1  0
 14 15  1  0
 13 16  2  0
 16 17  1  0
 17 18  1  0
 16 19  1  0
 19 20  1  0
 20 21  1  0
 19 22  2  0
  6 23  1  0
 23 24  1  0
 23 25  2  0
 25  3  1  0
 22 11  1  0
  1 26  1  0
  1 27  1  0
  1 28  1  0
  4 29  1  0
  5 30  1  0
  9 31  1  0
 10 32  1  0
 12 33  1  0
 15 34  1  0
 15 35  1  0
 15 36  1  0
 18 37  1  0
 18 38  1  0
 18 39  1  0
 21 40  1  0
 21 41  1  0
 21 42  1  0
 22 43  1  0
 24 44  1  0
 25 45  1  0
M  END
$$$$
