
     RDKit          3D

 53 55  0  0  0  0  0  0  0  0999 V2000
   -4.0173    1.7307   -2.8893 C   0  0  0  0  0  0  0  0  0  0  0  0
   -5.1001    0.8525   -2.6066 O   0  0  0  0  0  0  0  0  0  0  0  0
   -4.9275   -0.0368   -1.5804 C   0  0  0  0  0  0  0  0  0  0  0  0
   -3.7761   -0.1791   -0.8023 C   0  0  0  0  0  0  0  0  0  0  0  0
   -3.7261   -1.1304    0.2216 C   0  0  0  0  0  0  0  0  0  0  0  0
   -2.5984   -1.3373    1.0489 N   0  0  0  0  0  0  0  0  0  0  0  0
   -1.3950   -0.6504    1.0304 C   0  0  0  0  0  0  0  0  0  0  0  0
   -1.0984    0.2885    0.2987 O   0  0  0  0  0  0  0  0  0  0  0  0
   -0.4285   -1.1878    2.0725 C   0  0  0  0  0  0  0  0  0  0  0  0
    0.9298   -0.4977    2.0086 C   0  0  0  0  0  0  0  0  0  0  0  0
    0.8049    0.8932    2.4706 N   0  0  0  0  0  0  0  0  0  0  0  0
    2.1935    1.7207    2.9356 S   0  0  0  0  0  6  0  0  0  0  0  0
    2.8655    0.9271    3.9408 O   0  0  0  0  0  0  0  0  0  0  0  0
    1.8069    3.0927    3.1742 O   0  0  0  0  0  0  0  0  0  0  0  0
    3.1760    1.6893    1.4546 C   0  0  0  0  0  0  0  0  0  0  0  0
    2.8277    2.5275    0.3900 C   0  0  0  0  0  0  0  0  0  0  0  0
    3.5998    2.5206   -0.7726 C   0  0  0  0  0  0  0  0  0  0  0  0
    4.7063    1.6749   -0.8633 C   0  0  0  0  0  0  0  0  0  0  0  0
    5.0681    0.8478    0.2080 C   0  0  0  0  0  0  0  0  0  0  0  0
    4.3022    0.8633    1.3792 C   0  0  0  0  0  0  0  0  0  0  0  0
    6.3397    0.0502    0.1202 C   0  0  0  0  0  0  0  0  0  0  0  0
    6.6282   -0.3697   -1.3115 C   0  0  0  0  0  0  0  0  0  0  0  0
    6.4877    0.7816   -2.2803 C   0  0  0  0  0  0  0  0  0  0  0  0
    7.1685    0.8698   -3.2994 O   0  0  0  0  0  0  0  0  0  0  0  0
    5.4807    1.6744   -2.0263 N   0  0  0  0  0  0  0  0  0  0  0  0
   -4.8455   -1.9440    0.4595 C   0  0  0  0  0  0  0  0  0  0  0  0
   -5.9997   -1.8089   -0.3132 C   0  0  0  0  0  0  0  0  0  0  0  0
   -7.1492   -2.5381   -0.1802 O   0  0  0  0  0  0  0  0  0  0  0  0
   -7.1874   -3.5116    0.8548 C   0  0  0  0  0  0  0  0  0  0  0  0
   -6.0302   -0.8546   -1.3296 C   0  0  0  0  0  0  0  0  0  0  0  0
   -3.7939    2.3723   -2.0305 H   0  0  0  0  0  0  0  0  0  0  0  0
   -3.1311    1.1735   -3.2102 H   0  0  0  0  0  0  0  0  0  0  0  0
   -4.3205    2.3783   -3.7178 H   0  0  0  0  0  0  0  0  0  0  0  0
   -2.9189    0.4507   -0.9983 H   0  0  0  0  0  0  0  0  0  0  0  0
   -2.6950   -2.0618    1.7503 H   0  0  0  0  0  0  0  0  0  0  0  0
   -0.8776   -1.0608    3.0646 H   0  0  0  0  0  0  0  0  0  0  0  0
   -0.2927   -2.2597    1.8866 H   0  0  0  0  0  0  0  0  0  0  0  0
    1.6259   -1.0430    2.6544 H   0  0  0  0  0  0  0  0  0  0  0  0
    1.3179   -0.5128    0.9848 H   0  0  0  0  0  0  0  0  0  0  0  0
    0.1718    1.4803    1.9181 H   0  0  0  0  0  0  0  0  0  0  0  0
    1.9668    3.1889    0.4630 H   0  0  0  0  0  0  0  0  0  0  0  0
    3.3268    3.1735   -1.5974 H   0  0  0  0  0  0  0  0  0  0  0  0
    4.5907    0.2476    2.2291 H   0  0  0  0  0  0  0  0  0  0  0  0
    7.1598    0.6710    0.5017 H   0  0  0  0  0  0  0  0  0  0  0  0
    6.2766   -0.8440    0.7510 H   0  0  0  0  0  0  0  0  0  0  0  0
    7.6449   -0.7713   -1.3798 H   0  0  0  0  0  0  0  0  0  0  0  0
    5.9312   -1.1538   -1.6315 H   0  0  0  0  0  0  0  0  0  0  0  0
    5.3155    2.3640   -2.7487 H   0  0  0  0  0  0  0  0  0  0  0  0
   -4.8029   -2.6811    1.2534 H   0  0  0  0  0  0  0  0  0  0  0  0
   -7.0694   -3.0463    1.8390 H   0  0  0  0  0  0  0  0  0  0  0  0
   -8.1711   -3.9900    0.8283 H   0  0  0  0  0  0  0  0  0  0  0  0
   -6.4341   -4.2894    0.6921 H   0  0  0  0  0  0  0  0  0  0  0  0
   -6.9266   -0.7444   -1.9358 H   0  0  0  0  0  0  0  0  0  0  0  0
  1  2  1  0
  2  3  1  0
  3  4  2  0
  4  5  1  0
  5  6  1  0
  6  7  1  0
  7  8  2  0
  7  9  1  0
  9 10  1  0
 10 11  1  0
 11 12  1  0
 12 13  2  0
 12 14  2  0
 12 15  1  0
 15 16  2  0
 16 17  1  0
 17 18  2  0
 18 19  1  0
 19 20  2  0
 19 21  1  0
 21 22  1  0
 22 23  1  0
 23 24  2  0
 23 25  1  0
  5 26  2  0
 26 27  1  0
 27 28  1  0
 28 29  1  0
 27 30  2  0
 30  3  1  0
 20 15  1  0
 25 18  1  0
  1 31  1  0
  1 32  1  0
  1 33  1  0
  4 34  1  0
  6 35  1  0
  9 36  1  0
  9 37  1  0
 10 38  1  0
 10 39  1  0
 11 40  1  0
 16 41  1  0
 17 42  1  0
 20 43  1  0
 21 44  1  0
 21 45  1  0
 22 46  1  0
 22 47  1  0
 25 48  1  0
 26 49  1  0
 29 50  1  0
 29 51  1  0
 29 52  1  0
 30 53  1  0
M  END
$$$$
