
     RDKit          3D

 68 69  0  0  0  0  0  0  0  0999 V2000
    1.4225    0.9525    5.8550 C   0  0  0  0  0  0  0  0  0  0  0  0
    2.3670    0.2312    5.0756 O   0  0  0  0  0  0  0  0  0  0  0  0
    1.7568   -0.5137    4.0190 C   0  0  0  0  0  0  0  0  0  0  0  0
    1.6319    0.3356    2.7484 C   0  0  0  0  0  0  0  0  0  0  0  0
    0.8544   -0.3385    1.7019 N   0  0  0  0  0  0  0  0  0  0  0  0
    1.5410   -1.1648    0.8263 C   0  0  0  0  0  0  0  0  0  0  0  0
    2.7695   -1.2793    0.8730 O   0  0  0  0  0  0  0  0  0  0  0  0
    0.7587   -1.9523   -0.2123 C   0  0  0  0  0  0  0  0  0  0  0  0
    1.6621   -2.4977   -1.3173 C   0  0  0  0  0  0  0  0  0  0  0  0
    2.0558   -1.3835   -2.2664 C   0  0  0  0  0  0  0  0  0  0  0  0
    1.4178   -1.1810   -3.2971 O   0  0  0  0  0  0  0  0  0  0  0  0
    3.1116   -0.6301   -1.8136 N   0  0  0  0  0  0  0  0  0  0  0  0
    3.6344    0.4708   -2.4549 C   0  0  0  0  0  0  0  0  0  0  0  0
    3.3026    1.0115   -3.7174 C   0  0  0  0  0  0  0  0  0  0  0  0
    4.1224    2.1040   -3.8531 C   0  0  0  0  0  0  0  0  0  0  0  0
    4.3184    3.1178   -4.9022 C   0  0  0  0  0  0  0  0  0  0  0  0
    4.8993    2.2152   -2.7459 O   0  0  0  0  0  0  0  0  0  0  0  0
    4.5917    1.1941   -1.8665 N   0  0  0  0  0  0  0  0  0  0  0  0
   -0.5955   -0.0294    1.6611 C   0  0  0  0  0  0  0  0  0  0  0  0
   -1.4687   -1.3147    1.7685 C   0  0  0  0  0  0  0  0  0  0  0  0
   -1.2816   -2.1194    2.6831 O   0  0  0  0  0  0  0  0  0  0  0  0
   -2.4191   -1.5140    0.7854 N   0  0  0  0  0  0  0  0  0  0  0  0
   -3.3525   -2.6498    0.7176 C   0  0  0  0  0  0  0  0  0  0  0  0
   -2.5984   -3.9811    0.5777 C   0  0  0  0  0  0  0  0  0  0  0  0
   -4.2622   -2.6821    1.9555 C   0  0  0  0  0  0  0  0  0  0  0  0
   -4.2373   -2.4611   -0.5291 C   0  0  0  0  0  0  0  0  0  0  0  0
   -1.0054    1.0251    0.6317 C   0  0  0  0  0  0  0  0  0  0  0  0
   -2.2808    1.6122    0.7252 C   0  0  0  0  0  0  0  0  0  0  0  0
   -2.7026    2.5698   -0.2008 C   0  0  0  0  0  0  0  0  0  0  0  0
   -1.8607    2.9830   -1.2319 C   0  0  0  0  0  0  0  0  0  0  0  0
   -2.3989    3.9185   -2.0708 O   0  0  0  0  0  0  0  0  0  0  0  0
   -1.5736    4.3770   -3.1348 C   0  0  0  0  0  0  0  0  0  0  0  0
   -0.5828    2.4372   -1.3192 C   0  0  0  0  0  0  0  0  0  0  0  0
   -0.1573    1.4771   -0.3907 C   0  0  0  0  0  0  0  0  0  0  0  0
    1.9665    1.5257    6.6107 H   0  0  0  0  0  0  0  0  0  0  0  0
    0.7455    0.2604    6.3656 H   0  0  0  0  0  0  0  0  0  0  0  0
    0.8497    1.6491    5.2360 H   0  0  0  0  0  0  0  0  0  0  0  0
    0.7851   -0.9091    4.3384 H   0  0  0  0  0  0  0  0  0  0  0  0
    2.3989   -1.3778    3.8152 H   0  0  0  0  0  0  0  0  0  0  0  0
    2.6382    0.5637    2.3779 H   0  0  0  0  0  0  0  0  0  0  0  0
    1.1812    1.3115    2.9591 H   0  0  0  0  0  0  0  0  0  0  0  0
   -0.0238   -1.3379   -0.6620 H   0  0  0  0  0  0  0  0  0  0  0  0
    0.2990   -2.8013    0.3042 H   0  0  0  0  0  0  0  0  0  0  0  0
    2.5594   -2.9885   -0.9254 H   0  0  0  0  0  0  0  0  0  0  0  0
    1.1189   -3.2523   -1.8992 H   0  0  0  0  0  0  0  0  0  0  0  0
    3.5113   -0.8129   -0.8938 H   0  0  0  0  0  0  0  0  0  0  0  0
    2.5747    0.6583   -4.4320 H   0  0  0  0  0  0  0  0  0  0  0  0
    3.4491    3.1643   -5.5648 H   0  0  0  0  0  0  0  0  0  0  0  0
    4.4613    4.1102   -4.4627 H   0  0  0  0  0  0  0  0  0  0  0  0
    5.1976    2.8783   -5.5060 H   0  0  0  0  0  0  0  0  0  0  0  0
   -0.8082    0.4599    2.6254 H   0  0  0  0  0  0  0  0  0  0  0  0
   -2.4234   -0.8805   -0.0068 H   0  0  0  0  0  0  0  0  0  0  0  0
   -3.2937   -4.8169    0.4408 H   0  0  0  0  0  0  0  0  0  0  0  0
   -1.9927   -4.2046    1.4611 H   0  0  0  0  0  0  0  0  0  0  0  0
   -1.9237   -3.9625   -0.2852 H   0  0  0  0  0  0  0  0  0  0  0  0
   -3.6980   -2.8592    2.8764 H   0  0  0  0  0  0  0  0  0  0  0  0
   -5.0112   -3.4791    1.8747 H   0  0  0  0  0  0  0  0  0  0  0  0
   -4.7938   -1.7315    2.0762 H   0  0  0  0  0  0  0  0  0  0  0  0
   -3.6306   -2.4493   -1.4406 H   0  0  0  0  0  0  0  0  0  0  0  0
   -4.9727   -3.2665   -0.6259 H   0  0  0  0  0  0  0  0  0  0  0  0
   -4.7808   -1.5107   -0.4887 H   0  0  0  0  0  0  0  0  0  0  0  0
   -2.9680    1.3255    1.5210 H   0  0  0  0  0  0  0  0  0  0  0  0
   -3.6975    3.0015   -0.1158 H   0  0  0  0  0  0  0  0  0  0  0  0
   -2.1470    5.1112   -3.7092 H   0  0  0  0  0  0  0  0  0  0  0  0
   -1.3097    3.5580   -3.8121 H   0  0  0  0  0  0  0  0  0  0  0  0
   -0.6787    4.8775   -2.7515 H   0  0  0  0  0  0  0  0  0  0  0  0
    0.1167    2.7381   -2.0939 H   0  0  0  0  0  0  0  0  0  0  0  0
    0.8601    1.1072   -0.4881 H   0  0  0  0  0  0  0  0  0  0  0  0
  1  2  1  0
  2  3  1  0
  3  4  1  0
  4  5  1  0
  5  6  1  0
  6  7  2  0
  6  8  1  0
  8  9  1  0
  9 10  1  0
 10 11  2  0
 10 12  1  0
 12 13  1  0
 13 14  1  0
 14 15  2  0
 15 16  1  0
 15 17  1  0
 17 18  1  0
  5 19  1  0
 19 20  1  0
 20 21  2  0
 20 22  1  0
 22 23  1  0
 23 24  1  0
 23 25  1  0
 23 26  1  0
 19 27  1  0
 27 28  2  0
 28 29  1  0
 29 30  2  0
 30 31  1  0
 31 32  1  0
 30 33  1  0
 33 34  2  0
 18 13  2  0
 34 27  1  0
  1 35  1  0
  1 36  1  0
  1 37  1  0
  3 38  1  0
  3 39  1  0
  4 40  1  0
  4 41  1  0
  8 42  1  0
  8 43  1  0
  9 44  1  0
  9 45  1  0
 12 46  1  0
 14 47  1  0
 16 48  1  0
 16 49  1  0
 16 50  1  0
 19 51  1  0
 22 52  1  0
 24 53  1  0
 24 54  1  0
 24 55  1  0
 25 56  1  0
 25 57  1  0
 25 58  1  0
 26 59  1  0
 26 60  1  0
 26 61  1  0
 28 62  1  0
 29 63  1  0
 32 64  1  0
 32 65  1  0
 32 66  1  0
 33 67  1  0
 34 68  1  0
M  END
$$$$
