
     RDKit          3D

 50 54  0  0  0  0  0  0  0  0999 V2000
   -4.5051   -0.3143   -1.9755 C   0  0  0  0  0  0  0  0  0  0  0  0
   -4.2591   -0.9848   -0.6601 C   0  0  0  0  0  0  0  0  0  0  0  0
   -5.1837   -1.7128   -0.0148 C   0  0  0  0  0  0  0  0  0  0  0  0
   -4.8936   -2.3263    1.2520 C   0  0  0  0  0  0  0  0  0  0  0  0
   -3.6870   -2.1704    1.8066 C   0  0  0  0  0  0  0  0  0  0  0  0
   -2.6887   -1.4258    1.1903 N   0  0  0  0  0  0  0  0  0  0  0  0
   -1.4541   -1.3119    1.8049 C   0  0  0  0  0  0  0  0  0  0  0  0
   -1.1548   -1.8548    2.8711 O   0  0  0  0  0  0  0  0  0  0  0  0
   -0.4422   -0.4778    1.0984 C   0  0  0  0  0  0  0  0  0  0  0  0
    0.8720   -0.2851    1.6914 C   0  0  0  0  0  0  0  0  0  0  0  0
    1.8136    0.4767    1.1108 C   0  0  0  0  0  0  0  0  0  0  0  0
    3.3796    0.5814    1.8221 S   0  0  0  0  0  6  0  0  0  0  0  0
    4.1185    1.6954    1.2524 O   0  0  0  0  0  0  0  0  0  0  0  0
    3.2896    0.4380    3.2646 O   0  0  0  0  0  0  0  0  0  0  0  0
    4.1611   -0.9018    1.2018 C   0  0  0  0  0  0  0  0  0  0  0  0
    4.2791   -2.0247    2.0301 C   0  0  0  0  0  0  0  0  0  0  0  0
    4.8980   -3.1744    1.5380 C   0  0  0  0  0  0  0  0  0  0  0  0
    5.3965   -3.1863    0.2382 C   0  0  0  0  0  0  0  0  0  0  0  0
    5.9892   -4.2924   -0.2288 F   0  0  0  0  0  0  0  0  0  0  0  0
    5.2932   -2.0669   -0.5830 C   0  0  0  0  0  0  0  0  0  0  0  0
    4.6764   -0.9119   -0.1011 C   0  0  0  0  0  0  0  0  0  0  0  0
    1.4574    1.1364   -0.1852 C   0  0  0  0  0  0  0  0  0  0  0  0
    2.2739    1.9539   -0.7847 N   0  0  0  0  0  0  0  0  0  0  0  0
    0.2079    0.8599   -0.7590 N   0  0  0  0  0  0  0  0  0  0  0  0
   -0.1673    1.5453   -2.0146 C   0  0  0  0  0  0  0  0  0  0  0  0
   -0.8599    2.8585   -1.8380 C   0  0  0  0  0  0  0  0  0  0  0  0
   -0.4744    4.0625   -1.2835 C   0  0  0  0  0  0  0  0  0  0  0  0
   -1.5783    4.9373   -1.4161 C   0  0  0  0  0  0  0  0  0  0  0  0
   -2.5646    4.2161   -2.0462 C   0  0  0  0  0  0  0  0  0  0  0  0
   -2.1382    2.9546   -2.3109 O   0  0  0  0  0  0  0  0  0  0  0  0
   -0.7621    0.0700   -0.0949 C   0  0  0  0  0  0  0  0  0  0  0  0
   -1.9992   -0.1256   -0.6568 N   0  0  0  0  0  0  0  0  0  0  0  0
   -2.9004   -0.8168   -0.0355 C   0  0  0  0  0  0  0  0  0  0  0  0
   -4.3744    0.7691   -1.8861 H   0  0  0  0  0  0  0  0  0  0  0  0
   -3.8118   -0.6901   -2.7352 H   0  0  0  0  0  0  0  0  0  0  0  0
   -5.5224   -0.4950   -2.3389 H   0  0  0  0  0  0  0  0  0  0  0  0
   -6.1778   -1.8566   -0.4280 H   0  0  0  0  0  0  0  0  0  0  0  0
   -5.6669   -2.9093    1.7416 H   0  0  0  0  0  0  0  0  0  0  0  0
   -3.4475   -2.6251    2.7649 H   0  0  0  0  0  0  0  0  0  0  0  0
    1.0667   -0.8011    2.6304 H   0  0  0  0  0  0  0  0  0  0  0  0
    3.9010   -2.0146    3.0505 H   0  0  0  0  0  0  0  0  0  0  0  0
    5.0008   -4.0592    2.1594 H   0  0  0  0  0  0  0  0  0  0  0  0
    5.6992   -2.1012   -1.5897 H   0  0  0  0  0  0  0  0  0  0  0  0
    4.6078   -0.0345   -0.7415 H   0  0  0  0  0  0  0  0  0  0  0  0
    3.1406    2.1283   -0.2478 H   0  0  0  0  0  0  0  0  0  0  0  0
    0.7181    1.7034   -2.6440 H   0  0  0  0  0  0  0  0  0  0  0  0
   -0.7974    0.8824   -2.6229 H   0  0  0  0  0  0  0  0  0  0  0  0
    0.4900    4.2719   -0.8402 H   0  0  0  0  0  0  0  0  0  0  0  0
   -1.6464    5.9666   -1.0941 H   0  0  0  0  0  0  0  0  0  0  0  0
   -3.5727    4.4437   -2.3627 H   0  0  0  0  0  0  0  0  0  0  0  0
  1  2  1  0
  2  3  2  0
  3  4  1  0
  4  5  2  0
  5  6  1  0
  6  7  1  0
  7  8  2  0
  7  9  1  0
  9 10  1  0
 10 11  2  0
 11 12  1  0
 12 13  2  0
 12 14  2  0
 12 15  1  0
 15 16  2  0
 16 17  1  0
 17 18  2  0
 18 19  1  0
 18 20  1  0
 20 21  2  0
 11 22  1  0
 22 23  2  3
 22 24  1  0
 24 25  1  0
 25 26  1  0
 26 27  2  0
 27 28  1  0
 28 29  2  0
 29 30  1  0
 24 31  1  0
 31 32  1  0
 32 33  2  0
 33  2  1  0
 33  6  1  0
 31  9  2  0
 21 15  1  0
 30 26  1  0
  1 34  1  0
  1 35  1  0
  1 36  1  0
  3 37  1  0
  4 38  1  0
  5 39  1  0
 10 40  1  0
 16 41  1  0
 17 42  1  0
 20 43  1  0
 21 44  1  0
 23 45  1  0
 25 46  1  0
 25 47  1  0
 27 48  1  0
 28 49  1  0
 29 50  1  0
M  END
$$$$
