
     RDKit          3D

 58 61  0  0  0  0  0  0  0  0999 V2000
    5.1220   -2.6361   -3.9905 C   0  0  0  0  0  0  0  0  0  0  0  0
    4.5953   -2.5923   -2.5801 C   0  0  0  0  0  0  0  0  0  0  0  0
    4.3762   -3.8091   -1.9161 C   0  0  0  0  0  0  0  0  0  0  0  0
    3.8830   -3.8312   -0.6164 C   0  0  0  0  0  0  0  0  0  0  0  0
    3.6016   -2.6379    0.0445 C   0  0  0  0  0  0  0  0  0  0  0  0
    3.8098   -1.4045   -0.5824 C   0  0  0  0  0  0  0  0  0  0  0  0
    3.5112   -0.1812    0.0691 N   0  0  0  0  0  0  0  0  0  0  0  0
    3.0969    0.0129    1.3717 C   0  0  0  0  0  0  0  0  0  0  0  0
    2.9423   -0.8215    2.2527 O   0  0  0  0  0  0  0  0  0  0  0  0
    2.8477    1.4480    1.6673 C   0  0  0  0  0  0  0  0  0  0  0  0
    3.9354    2.2189    2.1472 C   0  0  0  0  0  0  0  0  0  0  0  0
    4.8167    2.8991    2.4774 N   0  0  0  0  0  0  0  0  0  0  0  0
    1.6323    1.9915    1.4668 C   0  0  0  0  0  0  0  0  0  0  0  0
    0.4853    1.3011    0.9823 C   0  0  0  0  0  0  0  0  0  0  0  0
   -0.4885    0.7792    1.7995 C   0  0  0  0  0  0  0  0  0  0  0  0
   -1.4104    0.1545    0.9949 N   0  0  0  0  0  0  0  0  0  0  0  0
   -2.5742   -0.5645    1.4885 C   0  0  0  0  0  0  0  0  0  0  0  0
   -3.8806    0.0747    1.0665 C   0  0  0  0  0  0  0  0  0  0  0  0
   -4.7335   -0.5485    0.4370 O   0  0  0  0  0  0  0  0  0  0  0  0
   -4.0609    1.3709    1.4782 N   0  0  0  0  0  0  0  0  0  0  0  0
   -5.3167    2.0595    1.2906 C   0  0  0  0  0  0  0  0  0  0  0  0
   -6.1908    1.7706    2.4535 C   0  0  0  0  0  0  0  0  0  0  0  0
   -7.2770    0.9406    2.6338 C   0  0  0  0  0  0  0  0  0  0  0  0
   -7.6742    1.0858    3.9845 C   0  0  0  0  0  0  0  0  0  0  0  0
   -6.8050    1.9901    4.5410 C   0  0  0  0  0  0  0  0  0  0  0  0
   -5.8984    2.4128    3.6216 O   0  0  0  0  0  0  0  0  0  0  0  0
   -1.0452    0.2715   -0.3324 C   0  0  0  0  0  0  0  0  0  0  0  0
   -1.6559   -0.2111   -1.5004 C   0  0  0  0  0  0  0  0  0  0  0  0
   -1.0459    0.0653   -2.7256 C   0  0  0  0  0  0  0  0  0  0  0  0
    0.1258    0.8100   -2.7900 C   0  0  0  0  0  0  0  0  0  0  0  0
    0.7239    1.2939   -1.6231 C   0  0  0  0  0  0  0  0  0  0  0  0
    0.1398    1.0124   -0.3695 C   0  0  0  0  0  0  0  0  0  0  0  0
    4.3231   -1.3733   -1.9111 C   0  0  0  0  0  0  0  0  0  0  0  0
    4.5591   -0.0540   -2.6151 C   0  0  0  0  0  0  0  0  0  0  0  0
    6.1243   -2.1936   -4.0338 H   0  0  0  0  0  0  0  0  0  0  0  0
    5.1989   -3.6641   -4.3626 H   0  0  0  0  0  0  0  0  0  0  0  0
    4.4488   -2.0997   -4.6650 H   0  0  0  0  0  0  0  0  0  0  0  0
    4.5866   -4.7534   -2.4103 H   0  0  0  0  0  0  0  0  0  0  0  0
    3.7092   -4.7795   -0.1141 H   0  0  0  0  0  0  0  0  0  0  0  0
    3.2032   -2.7100    1.0536 H   0  0  0  0  0  0  0  0  0  0  0  0
    3.6046    0.6497   -0.5009 H   0  0  0  0  0  0  0  0  0  0  0  0
    1.4799    3.0430    1.7064 H   0  0  0  0  0  0  0  0  0  0  0  0
   -0.5889    0.7709    2.8810 H   0  0  0  0  0  0  0  0  0  0  0  0
   -2.5191   -1.5847    1.0993 H   0  0  0  0  0  0  0  0  0  0  0  0
   -2.5299   -0.6102    2.5831 H   0  0  0  0  0  0  0  0  0  0  0  0
   -3.4083    1.7815    2.1309 H   0  0  0  0  0  0  0  0  0  0  0  0
   -5.7855    1.7402    0.3575 H   0  0  0  0  0  0  0  0  0  0  0  0
   -5.1019    3.1270    1.2253 H   0  0  0  0  0  0  0  0  0  0  0  0
   -7.7146    0.3026    1.8799 H   0  0  0  0  0  0  0  0  0  0  0  0
   -8.4895    0.5893    4.4933 H   0  0  0  0  0  0  0  0  0  0  0  0
   -6.7030    2.4147    5.5305 H   0  0  0  0  0  0  0  0  0  0  0  0
   -2.5760   -0.7880   -1.4680 H   0  0  0  0  0  0  0  0  0  0  0  0
   -1.4983   -0.3091   -3.6394 H   0  0  0  0  0  0  0  0  0  0  0  0
    0.5817    1.0148   -3.7552 H   0  0  0  0  0  0  0  0  0  0  0  0
    1.6341    1.8784   -1.6898 H   0  0  0  0  0  0  0  0  0  0  0  0
    5.1553    0.6155   -1.9835 H   0  0  0  0  0  0  0  0  0  0  0  0
    3.5982    0.4202   -2.8517 H   0  0  0  0  0  0  0  0  0  0  0  0
    5.1197   -0.1534   -3.5465 H   0  0  0  0  0  0  0  0  0  0  0  0
  1  2  1  0
  2  3  2  0
  3  4  1  0
  4  5  2  0
  5  6  1  0
  6  7  1  0
  7  8  1  0
  8  9  2  0
  8 10  1  0
 10 11  1  0
 11 12  3  0
 10 13  2  3
 13 14  1  0
 14 15  2  0
 15 16  1  0
 16 17  1  0
 17 18  1  0
 18 19  2  0
 18 20  1  0
 20 21  1  0
 21 22  1  0
 22 23  2  0
 23 24  1  0
 24 25  2  0
 25 26  1  0
 16 27  1  0
 27 28  2  0
 28 29  1  0
 29 30  2  0
 30 31  1  0
 31 32  2  0
  6 33  2  0
 33 34  1  0
 33  2  1  0
 32 14  1  0
 26 22  1  0
 32 27  1  0
  1 35  1  0
  1 36  1  0
  1 37  1  0
  3 38  1  0
  4 39  1  0
  5 40  1  0
  7 41  1  0
 13 42  1  0
 15 43  1  0
 17 44  1  0
 17 45  1  0
 20 46  1  0
 21 47  1  0
 21 48  1  0
 23 49  1  0
 24 50  1  0
 25 51  1  0
 28 52  1  0
 29 53  1  0
 30 54  1  0
 31 55  1  0
 34 56  1  0
 34 57  1  0
 34 58  1  0
M  END
$$$$
