
     RDKit          3D

 56 58  0  0  0  0  0  0  0  0999 V2000
    8.6376   -1.4581   -2.3486 C   0  0  0  0  0  0  0  0  0  0  0  0
    7.2733   -1.3619   -2.7346 O   0  0  0  0  0  0  0  0  0  0  0  0
    6.3377   -1.6487   -1.7794 C   0  0  0  0  0  0  0  0  0  0  0  0
    5.0131   -1.5434   -2.2081 C   0  0  0  0  0  0  0  0  0  0  0  0
    3.9568   -1.8088   -1.3339 C   0  0  0  0  0  0  0  0  0  0  0  0
    4.2114   -2.1898   -0.0108 C   0  0  0  0  0  0  0  0  0  0  0  0
    3.0715   -2.4518    0.9378 C   0  0  0  0  0  0  0  0  0  0  0  0
    2.5491   -1.2174    1.4623 N   0  0  0  0  0  0  0  0  0  0  0  0
    1.4225   -0.6174    0.9526 C   0  0  0  0  0  0  0  0  0  0  0  0
    0.6619   -1.0968    0.1253 O   0  0  0  0  0  0  0  0  0  0  0  0
    1.1646    0.7917    1.5331 C   0  0  0  0  0  0  0  0  0  0  0  0
    1.8174    1.1859    2.4900 O   0  0  0  0  0  0  0  0  0  0  0  0
    0.1746    1.4941    0.8904 N   0  0  0  0  0  0  0  0  0  0  0  0
   -0.3134    2.7595    1.4027 C   0  0  0  0  0  0  0  0  0  0  0  0
   -1.4796    3.3731    0.6077 C   0  0  0  0  0  0  0  0  0  0  0  0
   -1.9220    4.5702    1.2727 O   0  0  0  0  0  0  0  0  0  0  0  0
   -3.3285    4.6444    1.0301 C   0  0  0  0  0  0  0  0  0  0  0  0
   -3.7814    3.2071    1.1408 C   0  0  0  0  0  0  0  0  0  0  0  0
   -2.6431    2.4484    0.5868 N   0  0  0  0  0  0  0  0  0  0  0  0
   -2.8743    1.6886   -0.9028 S   0  0  0  0  0  6  0  0  0  0  0  0
   -3.5336    2.6378   -1.7742 O   0  0  0  0  0  0  0  0  0  0  0  0
   -1.6162    1.0759   -1.2733 O   0  0  0  0  0  0  0  0  0  0  0  0
   -4.0084    0.3900   -0.4961 C   0  0  0  0  0  0  0  0  0  0  0  0
   -5.3298    0.4434   -0.9437 C   0  0  0  0  0  0  0  0  0  0  0  0
   -6.2056   -0.5932   -0.6172 C   0  0  0  0  0  0  0  0  0  0  0  0
   -5.7626   -1.6878    0.1390 C   0  0  0  0  0  0  0  0  0  0  0  0
   -6.7181   -2.7845    0.5091 C   0  0  0  0  0  0  0  0  0  0  0  0
   -4.4336   -1.7252    0.5824 C   0  0  0  0  0  0  0  0  0  0  0  0
   -3.5520   -0.6930    0.2594 C   0  0  0  0  0  0  0  0  0  0  0  0
    5.5412   -2.2865    0.4183 C   0  0  0  0  0  0  0  0  0  0  0  0
    6.5980   -2.0210   -0.4612 C   0  0  0  0  0  0  0  0  0  0  0  0
    8.8928   -2.4812   -2.0544 H   0  0  0  0  0  0  0  0  0  0  0  0
    9.2499   -1.1990   -3.2176 H   0  0  0  0  0  0  0  0  0  0  0  0
    8.8742   -0.7463   -1.5514 H   0  0  0  0  0  0  0  0  0  0  0  0
    4.8003   -1.2485   -3.2328 H   0  0  0  0  0  0  0  0  0  0  0  0
    2.9328   -1.7115   -1.6900 H   0  0  0  0  0  0  0  0  0  0  0  0
    2.2834   -3.0215    0.4325 H   0  0  0  0  0  0  0  0  0  0  0  0
    3.4110   -3.0509    1.7898 H   0  0  0  0  0  0  0  0  0  0  0  0
    3.1214   -0.6505    2.0805 H   0  0  0  0  0  0  0  0  0  0  0  0
   -0.3035    1.0289    0.1120 H   0  0  0  0  0  0  0  0  0  0  0  0
   -0.6138    2.6018    2.4467 H   0  0  0  0  0  0  0  0  0  0  0  0
    0.5274    3.4629    1.4358 H   0  0  0  0  0  0  0  0  0  0  0  0
   -1.1566    3.6522   -0.4019 H   0  0  0  0  0  0  0  0  0  0  0  0
   -3.4907    5.0502    0.0255 H   0  0  0  0  0  0  0  0  0  0  0  0
   -3.8053    5.2987    1.7643 H   0  0  0  0  0  0  0  0  0  0  0  0
   -3.8925    2.9129    2.1908 H   0  0  0  0  0  0  0  0  0  0  0  0
   -4.7357    3.0351    0.6380 H   0  0  0  0  0  0  0  0  0  0  0  0
   -5.6845    1.2791   -1.5428 H   0  0  0  0  0  0  0  0  0  0  0  0
   -7.2372   -0.5472   -0.9612 H   0  0  0  0  0  0  0  0  0  0  0  0
   -7.4176   -2.9815   -0.3109 H   0  0  0  0  0  0  0  0  0  0  0  0
   -6.1852   -3.7198    0.7139 H   0  0  0  0  0  0  0  0  0  0  0  0
   -7.2854   -2.5002    1.4013 H   0  0  0  0  0  0  0  0  0  0  0  0
   -4.0746   -2.5619    1.1773 H   0  0  0  0  0  0  0  0  0  0  0  0
   -2.5176   -0.7414    0.5937 H   0  0  0  0  0  0  0  0  0  0  0  0
    5.7679   -2.5717    1.4427 H   0  0  0  0  0  0  0  0  0  0  0  0
    7.6104   -2.1135   -0.0835 H   0  0  0  0  0  0  0  0  0  0  0  0
  1  2  1  0
  2  3  1  0
  3  4  2  0
  4  5  1  0
  5  6  2  0
  6  7  1  0
  7  8  1  0
  8  9  1  0
  9 10  2  0
  9 11  1  0
 11 12  2  0
 11 13  1  0
 13 14  1  0
 14 15  1  0
 15 16  1  0
 16 17  1  0
 17 18  1  0
 18 19  1  0
 19 20  1  0
 20 21  2  0
 20 22  2  0
 20 23  1  0
 23 24  2  0
 24 25  1  0
 25 26  2  0
 26 27  1  0
 26 28  1  0
 28 29  2  0
  6 30  1  0
 30 31  2  0
 31  3  1  0
 19 15  1  0
 29 23  1  0
  1 32  1  0
  1 33  1  0
  1 34  1  0
  4 35  1  0
  5 36  1  0
  7 37  1  0
  7 38  1  0
  8 39  1  0
 13 40  1  0
 14 41  1  0
 14 42  1  0
 15 43  1  0
 17 44  1  0
 17 45  1  0
 18 46  1  0
 18 47  1  0
 24 48  1  0
 25 49  1  0
 27 50  1  0
 27 51  1  0
 27 52  1  0
 28 53  1  0
 29 54  1  0
 30 55  1  0
 31 56  1  0
M  END
$$$$
