
     RDKit          3D

 56 61  0  0  0  0  0  0  0  0999 V2000
    8.3896    2.6088   -2.3527 C   0  0  0  0  0  0  0  0  0  0  0  0
    7.1314    2.6235   -1.6903 O   0  0  0  0  0  0  0  0  0  0  0  0
    6.6010    1.4141   -1.3348 C   0  0  0  0  0  0  0  0  0  0  0  0
    7.1743    0.1694   -1.5708 C   0  0  0  0  0  0  0  0  0  0  0  0
    6.5153   -0.9866   -1.1498 C   0  0  0  0  0  0  0  0  0  0  0  0
    5.2791   -0.9043   -0.4905 C   0  0  0  0  0  0  0  0  0  0  0  0
    4.6121   -2.0644   -0.0657 C   0  0  0  0  0  0  0  0  0  0  0  0
    3.3822   -1.9050    0.5842 C   0  0  0  0  0  0  0  0  0  0  0  0
    2.4076   -2.7557    1.1595 C   0  0  0  0  0  0  0  0  0  0  0  0
    1.3942   -1.9422    1.6383 C   0  0  0  0  0  0  0  0  0  0  0  0
    0.1866   -2.2960    2.3640 C   0  0  0  0  0  0  0  0  0  0  0  0
    0.1120   -3.3749    2.9572 O   0  0  0  0  0  0  0  0  0  0  0  0
   -0.8927   -1.3957    2.3955 N   0  0  0  0  0  0  0  0  0  0  0  0
   -2.0369   -1.7931    3.2186 C   0  0  0  0  0  0  0  0  0  0  0  0
   -2.9832   -0.6206    3.5363 C   0  0  0  0  0  0  0  0  0  0  0  0
   -3.4102    0.1687    2.3620 N   0  0  0  0  0  0  0  0  0  0  0  0
   -4.3615   -0.5848    1.5293 C   0  0  0  0  0  0  0  0  0  0  0  0
   -5.0041    0.2566    0.4448 C   0  0  0  0  0  0  0  0  0  0  0  0
   -5.7190    1.4309    0.7831 C   0  0  0  0  0  0  0  0  0  0  0  0
   -6.3267    2.2160   -0.2014 C   0  0  0  0  0  0  0  0  0  0  0  0
   -6.2081    1.8046   -1.5102 C   0  0  0  0  0  0  0  0  0  0  0  0
   -5.5199    0.6642   -1.8505 C   0  0  0  0  0  0  0  0  0  0  0  0
   -4.9104   -0.1307   -0.9023 C   0  0  0  0  0  0  0  0  0  0  0  0
   -5.5229    0.4367   -3.1916 O   0  0  0  0  0  0  0  0  0  0  0  0
   -6.2894    1.5678   -3.6556 C   0  0  0  0  0  0  0  0  0  0  0  0
   -6.7303    2.4387   -2.5938 O   0  0  0  0  0  0  0  0  0  0  0  0
   -2.2024    0.5955    1.6216 C   0  0  0  0  0  0  0  0  0  0  0  0
   -1.2318   -0.5417    1.2476 C   0  0  0  0  0  0  0  0  0  0  0  0
    1.7241   -0.6330    1.4190 O   0  0  0  0  0  0  0  0  0  0  0  0
    2.9170   -0.6094    0.7658 C   0  0  0  0  0  0  0  0  0  0  0  0
    3.5128    0.5277    0.3774 N   0  0  0  0  0  0  0  0  0  0  0  0
    4.6871    0.3580   -0.2449 C   0  0  0  0  0  0  0  0  0  0  0  0
    5.3679    1.4870   -0.6765 C   0  0  0  0  0  0  0  0  0  0  0  0
    8.3245    2.0832   -3.3112 H   0  0  0  0  0  0  0  0  0  0  0  0
    8.6706    3.6459   -2.5600 H   0  0  0  0  0  0  0  0  0  0  0  0
    9.1664    2.1742   -1.7149 H   0  0  0  0  0  0  0  0  0  0  0  0
    8.1279    0.0618   -2.0770 H   0  0  0  0  0  0  0  0  0  0  0  0
    6.9762   -1.9536   -1.3411 H   0  0  0  0  0  0  0  0  0  0  0  0
    5.0268   -3.0535   -0.2302 H   0  0  0  0  0  0  0  0  0  0  0  0
    2.4263   -3.8349    1.2298 H   0  0  0  0  0  0  0  0  0  0  0  0
   -2.5704   -2.5886    2.6844 H   0  0  0  0  0  0  0  0  0  0  0  0
   -1.6737   -2.2217    4.1602 H   0  0  0  0  0  0  0  0  0  0  0  0
   -3.8581   -0.9891    4.0857 H   0  0  0  0  0  0  0  0  0  0  0  0
   -2.4697    0.0618    4.2269 H   0  0  0  0  0  0  0  0  0  0  0  0
   -5.1843   -0.9539    2.1566 H   0  0  0  0  0  0  0  0  0  0  0  0
   -3.8983   -1.4743    1.0865 H   0  0  0  0  0  0  0  0  0  0  0  0
   -5.7887    1.7348    1.8266 H   0  0  0  0  0  0  0  0  0  0  0  0
   -6.8696    3.1182    0.0556 H   0  0  0  0  0  0  0  0  0  0  0  0
   -4.3764   -1.0252   -1.2034 H   0  0  0  0  0  0  0  0  0  0  0  0
   -5.6718    2.1478   -4.3511 H   0  0  0  0  0  0  0  0  0  0  0  0
   -7.1698    1.1972   -4.1932 H   0  0  0  0  0  0  0  0  0  0  0  0
   -2.4714    1.1599    0.7215 H   0  0  0  0  0  0  0  0  0  0  0  0
   -1.6629    1.3109    2.2571 H   0  0  0  0  0  0  0  0  0  0  0  0
   -0.3463   -0.1019    0.7913 H   0  0  0  0  0  0  0  0  0  0  0  0
   -1.6770   -1.1937    0.4863 H   0  0  0  0  0  0  0  0  0  0  0  0
    4.9251    2.4644   -0.4942 H   0  0  0  0  0  0  0  0  0  0  0  0
  1  2  1  0
  2  3  1  0
  3  4  2  0
  4  5  1  0
  5  6  2  0
  6  7  1  0
  7  8  2  0
  8  9  1  0
  9 10  2  0
 10 11  1  0
 11 12  2  0
 11 13  1  0
 13 14  1  0
 14 15  1  0
 15 16  1  0
 16 17  1  0
 17 18  1  0
 18 19  2  0
 19 20  1  0
 20 21  2  0
 21 22  1  0
 22 23  2  0
 22 24  1  0
 24 25  1  0
 25 26  1  0
 16 27  1  0
 27 28  1  0
 10 29  1  0
 29 30  1  0
 30 31  2  0
 31 32  1  0
 32 33  2  0
 33  3  1  0
 32  6  1  0
 30  8  1  0
 28 13  1  0
 23 18  1  0
 26 21  1  0
  1 34  1  0
  1 35  1  0
  1 36  1  0
  4 37  1  0
  5 38  1  0
  7 39  1  0
  9 40  1  0
 14 41  1  0
 14 42  1  0
 15 43  1  0
 15 44  1  0
 17 45  1  0
 17 46  1  0
 19 47  1  0
 20 48  1  0
 23 49  1  0
 25 50  1  0
 25 51  1  0
 27 52  1  0
 27 53  1  0
 28 54  1  0
 28 55  1  0
 33 56  1  0
M  END
$$$$
