
     RDKit          3D

 44 46  0  0  0  0  0  0  0  0999 V2000
    5.4481    1.5963    2.9364 C   0  0  0  0  0  0  0  0  0  0  0  0
    4.7581    0.6415    2.0069 C   0  0  0  0  0  0  0  0  0  0  0  0
    5.1407    0.5622    0.6627 C   0  0  0  0  0  0  0  0  0  0  0  0
    4.5222   -0.3499   -0.1959 C   0  0  0  0  0  0  0  0  0  0  0  0
    3.5138   -1.1952    0.2805 C   0  0  0  0  0  0  0  0  0  0  0  0
    2.8811   -2.1506   -0.6714 C   0  0  0  0  0  0  0  0  0  0  0  0
    3.4717   -2.5019   -1.6863 O   0  0  0  0  0  0  0  0  0  0  0  0
    1.5996   -2.5629   -0.3659 N   0  0  0  0  0  0  0  0  0  0  0  0
    0.8373   -3.3370   -1.3370 C   0  0  0  0  0  0  0  0  0  0  0  0
    0.0526   -2.4905   -2.3379 C   0  0  0  0  0  0  0  0  0  0  0  0
   -0.5970   -2.9666   -3.2625 O   0  0  0  0  0  0  0  0  0  0  0  0
    0.1139   -1.1651   -2.0349 O   0  0  0  0  0  0  0  0  0  0  0  0
   -0.6550   -0.3051   -2.8887 C   0  0  0  0  0  0  0  0  0  0  0  0
   -2.0766   -0.1981   -2.4357 C   0  0  0  0  0  0  0  0  0  0  0  0
   -3.1608   -0.8623   -2.9723 C   0  0  0  0  0  0  0  0  0  0  0  0
   -4.5849   -0.4431   -2.1269 S   0  0  0  0  0  0  0  0  0  0  0  0
   -3.6754    0.5921   -1.0878 C   0  0  0  0  0  0  0  0  0  0  0  0
   -4.3049    1.3697    0.0014 C   0  0  0  0  0  0  0  0  0  0  0  0
   -3.5107    2.2691    0.7359 C   0  0  0  0  0  0  0  0  0  0  0  0
   -4.0474    3.0314    1.7774 C   0  0  0  0  0  0  0  0  0  0  0  0
   -5.3934    2.9074    2.1066 C   0  0  0  0  0  0  0  0  0  0  0  0
   -6.1997    2.0226    1.3960 C   0  0  0  0  0  0  0  0  0  0  0  0
   -5.6608    1.2602    0.3531 C   0  0  0  0  0  0  0  0  0  0  0  0
   -2.3824    0.6252   -1.3605 N   0  0  0  0  0  0  0  0  0  0  0  0
    3.1486   -1.1402    1.6308 C   0  0  0  0  0  0  0  0  0  0  0  0
    3.7702   -0.2267    2.4877 C   0  0  0  0  0  0  0  0  0  0  0  0
    4.7727    1.9198    3.7354 H   0  0  0  0  0  0  0  0  0  0  0  0
    5.7726    2.4955    2.4022 H   0  0  0  0  0  0  0  0  0  0  0  0
    6.3228    1.1156    3.3849 H   0  0  0  0  0  0  0  0  0  0  0  0
    5.9251    1.2084    0.2740 H   0  0  0  0  0  0  0  0  0  0  0  0
    4.8298   -0.3997   -1.2386 H   0  0  0  0  0  0  0  0  0  0  0  0
    1.0629   -1.9798    0.2637 H   0  0  0  0  0  0  0  0  0  0  0  0
    1.5098   -3.9975   -1.8923 H   0  0  0  0  0  0  0  0  0  0  0  0
    0.1181   -3.9318   -0.7663 H   0  0  0  0  0  0  0  0  0  0  0  0
   -0.5858   -0.6217   -3.9368 H   0  0  0  0  0  0  0  0  0  0  0  0
   -0.1903    0.6862   -2.8380 H   0  0  0  0  0  0  0  0  0  0  0  0
   -3.1758   -1.5633   -3.7958 H   0  0  0  0  0  0  0  0  0  0  0  0
   -2.4545    2.3824    0.4943 H   0  0  0  0  0  0  0  0  0  0  0  0
   -3.4118    3.7203    2.3276 H   0  0  0  0  0  0  0  0  0  0  0  0
   -5.8136    3.4991    2.9157 H   0  0  0  0  0  0  0  0  0  0  0  0
   -7.2519    1.9229    1.6516 H   0  0  0  0  0  0  0  0  0  0  0  0
   -6.3278    0.5808   -0.1712 H   0  0  0  0  0  0  0  0  0  0  0  0
    2.4051   -1.8177    2.0403 H   0  0  0  0  0  0  0  0  0  0  0  0
    3.4837   -0.2019    3.5373 H   0  0  0  0  0  0  0  0  0  0  0  0
  1  2  1  0
  2  3  2  0
  3  4  1  0
  4  5  2  0
  5  6  1  0
  6  7  2  0
  6  8  1  0
  8  9  1  0
  9 10  1  0
 10 11  2  0
 10 12  1  0
 12 13  1  0
 13 14  1  0
 14 15  2  0
 15 16  1  0
 16 17  1  0
 17 18  1  0
 18 19  2  0
 19 20  1  0
 20 21  2  0
 21 22  1  0
 22 23  2  0
 17 24  2  0
  5 25  1  0
 25 26  2  0
 26  2  1  0
 24 14  1  0
 23 18  1  0
  1 27  1  0
  1 28  1  0
  1 29  1  0
  3 30  1  0
  4 31  1  0
  8 32  1  0
  9 33  1  0
  9 34  1  0
 13 35  1  0
 13 36  1  0
 15 37  1  0
 19 38  1  0
 20 39  1  0
 21 40  1  0
 22 41  1  0
 23 42  1  0
 25 43  1  0
 26 44  1  0
M  END
$$$$
