
     RDKit          3D

 39 42  0  0  0  0  0  0  0  0999 V2000
   -6.0711    1.3512   -1.7041 O   0  0  0  0  0  0  0  0  0  0  0  0
   -6.4448    0.2051   -1.5198 C   0  0  0  0  0  0  0  0  0  0  0  0
   -7.7514   -0.0965   -1.4259 O   0  0  0  0  0  0  0  0  0  0  0  0
   -5.5570   -0.9834   -1.3230 C   0  0  0  0  0  0  0  0  0  0  0  0
   -5.2045   -1.1580    0.1497 C   0  0  0  0  0  0  0  0  0  0  0  0
   -4.3511   -0.0836    0.6730 N   0  0  0  0  0  0  0  0  0  0  0  0
   -3.0133   -0.0687    0.3026 C   0  0  0  0  0  0  0  0  0  0  0  0
   -2.4885   -0.9170   -0.4046 O   0  0  0  0  0  0  0  0  0  0  0  0
   -2.3117    1.1047    0.8987 C   0  0  0  0  0  0  0  0  0  0  0  0
   -1.0356    1.4985    0.7870 C   0  0  0  0  0  0  0  0  0  0  0  0
   -0.0201    0.8893    0.0038 C   0  0  0  0  0  0  0  0  0  0  0  0
   -0.0294    0.3461   -1.2716 C   0  0  0  0  0  0  0  0  0  0  0  0
    1.2843   -0.0898   -1.5704 C   0  0  0  0  0  0  0  0  0  0  0  0
    2.0759    0.2215   -0.4799 C   0  0  0  0  0  0  0  0  0  0  0  0
    3.4837    0.0041   -0.2615 C   0  0  0  0  0  0  0  0  0  0  0  0
    4.0845    0.3914    0.8437 N   0  0  0  0  0  0  0  0  0  0  0  0
    5.4277    0.0626    0.7973 C   0  0  0  0  0  0  0  0  0  0  0  0
    6.3778    0.3233    1.8054 C   0  0  0  0  0  0  0  0  0  0  0  0
    7.7091   -0.0661    1.6248 C   0  0  0  0  0  0  0  0  0  0  0  0
    8.1022   -0.7097    0.4556 C   0  0  0  0  0  0  0  0  0  0  0  0
    7.1790   -0.9799   -0.5595 C   0  0  0  0  0  0  0  0  0  0  0  0
    5.8448   -0.5841   -0.3669 C   0  0  0  0  0  0  0  0  0  0  0  0
    4.4930   -0.7717   -1.4145 S   0  0  0  0  0  0  0  0  0  0  0  0
    1.2777    0.8293    0.4554 O   0  0  0  0  0  0  0  0  0  0  0  0
   -3.4270    1.9837    1.8925 S   0  0  0  0  0  0  0  0  0  0  0  0
   -4.7723    0.9203    1.5189 C   0  0  0  0  0  0  0  0  0  0  0  0
   -6.2938    1.1670    2.1583 S   0  0  0  0  0  0  0  0  0  0  0  0
   -8.2127    0.7637   -1.5287 H   0  0  0  0  0  0  0  0  0  0  0  0
   -6.0720   -1.8749   -1.6993 H   0  0  0  0  0  0  0  0  0  0  0  0
   -4.6690   -0.8521   -1.9505 H   0  0  0  0  0  0  0  0  0  0  0  0
   -6.1149   -1.2527    0.7484 H   0  0  0  0  0  0  0  0  0  0  0  0
   -4.6534   -2.0997    0.2649 H   0  0  0  0  0  0  0  0  0  0  0  0
   -0.6966    2.3530    1.3697 H   0  0  0  0  0  0  0  0  0  0  0  0
   -0.8903    0.2692   -1.9220 H   0  0  0  0  0  0  0  0  0  0  0  0
    1.6085   -0.5691   -2.4836 H   0  0  0  0  0  0  0  0  0  0  0  0
    6.0655    0.8257    2.7156 H   0  0  0  0  0  0  0  0  0  0  0  0
    8.4384    0.1372    2.4055 H   0  0  0  0  0  0  0  0  0  0  0  0
    9.1410   -1.0074    0.3280 H   0  0  0  0  0  0  0  0  0  0  0  0
    7.4873   -1.4823   -1.4712 H   0  0  0  0  0  0  0  0  0  0  0  0
  1  2  2  0
  2  3  1  0
  2  4  1  0
  4  5  1  0
  5  6  1  0
  6  7  1  0
  7  8  2  0
  7  9  1  0
  9 10  2  3
 10 11  1  0
 11 12  2  0
 12 13  1  0
 13 14  2  0
 14 15  1  0
 15 16  2  0
 16 17  1  0
 17 18  2  0
 18 19  1  0
 19 20  2  0
 20 21  1  0
 21 22  2  0
 22 23  1  0
 14 24  1  0
  9 25  1  0
 25 26  1  0
 26 27  2  0
 26  6  1  0
 24 11  1  0
 23 15  1  0
 22 17  1  0
  3 28  1  0
  4 29  1  0
  4 30  1  0
  5 31  1  0
  5 32  1  0
 10 33  1  0
 12 34  1  0
 13 35  1  0
 18 36  1  0
 19 37  1  0
 20 38  1  0
 21 39  1  0
M  END
$$$$
