
     RDKit          3D

 52 55  0  0  0  0  0  0  0  0999 V2000
    6.2527    2.7097    2.6553 C   0  0  0  0  0  0  0  0  0  0  0  0
    5.9131    1.7109    1.7014 O   0  0  0  0  0  0  0  0  0  0  0  0
    4.6766    1.1405    1.8195 C   0  0  0  0  0  0  0  0  0  0  0  0
    4.4347    0.0778    0.9484 C   0  0  0  0  0  0  0  0  0  0  0  0
    3.2070   -0.5953    0.9567 C   0  0  0  0  0  0  0  0  0  0  0  0
    2.1987   -0.2053    1.8355 C   0  0  0  0  0  0  0  0  0  0  0  0
    0.9282   -0.8114    1.8999 N   0  0  0  0  0  0  0  0  0  0  0  0
    0.4009   -1.7539    1.0349 C   0  0  0  0  0  0  0  0  0  0  0  0
    0.9689   -2.2647    0.0735 O   0  0  0  0  0  0  0  0  0  0  0  0
   -1.0295   -2.1450    1.3721 C   0  0  0  0  0  0  0  0  0  0  0  0
   -2.1841   -0.7477    1.2621 S   0  0  0  0  0  0  0  0  0  0  0  0
   -1.5214    0.0667   -0.1571 C   0  0  0  0  0  0  0  0  0  0  0  0
   -0.8151    1.1193    0.1251 N   0  0  0  0  0  0  0  0  0  0  0  0
   -0.1443    1.6886   -0.9156 C   0  0  0  0  0  0  0  0  0  0  0  0
   -0.1559    1.2449   -2.1707 C   0  0  0  0  0  0  0  0  0  0  0  0
   -0.9773    0.0675   -2.5194 C   0  0  0  0  0  0  0  0  0  0  0  0
   -1.0325   -0.3396   -3.6792 O   0  0  0  0  0  0  0  0  0  0  0  0
   -1.6763   -0.4767   -1.4339 N   0  0  0  0  0  0  0  0  0  0  0  0
   -2.5833   -1.5457   -1.7155 C   0  0  0  0  0  0  0  0  0  0  0  0
   -2.0827   -2.7313   -2.2769 C   0  0  0  0  0  0  0  0  0  0  0  0
   -2.9347   -3.8028   -2.5384 C   0  0  0  0  0  0  0  0  0  0  0  0
   -4.2934   -3.6914   -2.2575 C   0  0  0  0  0  0  0  0  0  0  0  0
   -4.8096   -2.5041   -1.7289 C   0  0  0  0  0  0  0  0  0  0  0  0
   -3.9658   -1.4202   -1.4627 C   0  0  0  0  0  0  0  0  0  0  0  0
   -4.3933   -0.1949   -1.0162 O   0  0  0  0  0  0  0  0  0  0  0  0
   -5.7671   -0.0642   -0.6756 C   0  0  0  0  0  0  0  0  0  0  0  0
    0.8188    2.1228   -3.2774 S   0  0  0  0  0  0  0  0  0  0  0  0
    1.1357    3.4377   -2.0492 C   0  0  0  0  0  0  0  0  0  0  0  0
    0.7518    2.8667   -0.6807 C   0  0  0  0  0  0  0  0  0  0  0  0
    2.4428    0.8613    2.7090 C   0  0  0  0  0  0  0  0  0  0  0  0
    3.6731    1.5318    2.7023 C   0  0  0  0  0  0  0  0  0  0  0  0
    6.2190    2.3069    3.6736 H   0  0  0  0  0  0  0  0  0  0  0  0
    5.6075    3.5885    2.5536 H   0  0  0  0  0  0  0  0  0  0  0  0
    7.2811    3.0262    2.4557 H   0  0  0  0  0  0  0  0  0  0  0  0
    5.2093   -0.2352    0.2523 H   0  0  0  0  0  0  0  0  0  0  0  0
    3.0773   -1.4182    0.2616 H   0  0  0  0  0  0  0  0  0  0  0  0
    0.2681   -0.3839    2.5411 H   0  0  0  0  0  0  0  0  0  0  0  0
   -1.0555   -2.5545    2.3869 H   0  0  0  0  0  0  0  0  0  0  0  0
   -1.3517   -2.9380    0.6910 H   0  0  0  0  0  0  0  0  0  0  0  0
   -1.0216   -2.8307   -2.5001 H   0  0  0  0  0  0  0  0  0  0  0  0
   -2.5372   -4.7199   -2.9666 H   0  0  0  0  0  0  0  0  0  0  0  0
   -4.9590   -4.5254   -2.4680 H   0  0  0  0  0  0  0  0  0  0  0  0
   -5.8794   -2.4536   -1.5557 H   0  0  0  0  0  0  0  0  0  0  0  0
   -6.0510   -0.7742    0.1082 H   0  0  0  0  0  0  0  0  0  0  0  0
   -5.9179    0.9445   -0.2796 H   0  0  0  0  0  0  0  0  0  0  0  0
   -6.4031   -0.1737   -1.5601 H   0  0  0  0  0  0  0  0  0  0  0  0
    0.5072    4.3002   -2.2952 H   0  0  0  0  0  0  0  0  0  0  0  0
    2.1828    3.7525   -2.0776 H   0  0  0  0  0  0  0  0  0  0  0  0
    0.2556    3.6349   -0.0776 H   0  0  0  0  0  0  0  0  0  0  0  0
    1.6483    2.5462   -0.1367 H   0  0  0  0  0  0  0  0  0  0  0  0
    1.6755    1.1974    3.4012 H   0  0  0  0  0  0  0  0  0  0  0  0
    3.8078    2.3578    3.3916 H   0  0  0  0  0  0  0  0  0  0  0  0
  1  2  1  0
  2  3  1  0
  3  4  2  0
  4  5  1  0
  5  6  2  0
  6  7  1  0
  7  8  1  0
  8  9  2  0
  8 10  1  0
 10 11  1  0
 11 12  1  0
 12 13  2  0
 13 14  1  0
 14 15  2  0
 15 16  1  0
 16 17  2  0
 16 18  1  0
 18 19  1  0
 19 20  2  0
 20 21  1  0
 21 22  2  0
 22 23  1  0
 23 24  2  0
 24 25  1  0
 25 26  1  0
 15 27  1  0
 27 28  1  0
 28 29  1  0
  6 30  1  0
 30 31  2  0
 31  3  1  0
 18 12  1  0
 24 19  1  0
 29 14  1  0
  1 32  1  0
  1 33  1  0
  1 34  1  0
  4 35  1  0
  5 36  1  0
  7 37  1  0
 10 38  1  0
 10 39  1  0
 20 40  1  0
 21 41  1  0
 22 42  1  0
 23 43  1  0
 26 44  1  0
 26 45  1  0
 26 46  1  0
 28 47  1  0
 28 48  1  0
 29 49  1  0
 29 50  1  0
 30 51  1  0
 31 52  1  0
M  END
$$$$
