
     RDKit          3D

 62 67  0  0  0  0  0  0  0  0999 V2000
   -4.2278   -3.8918    1.3842 C   0  0  0  0  0  0  0  0  0  0  0  0
   -3.9245   -2.5121    1.5336 O   0  0  0  0  0  0  0  0  0  0  0  0
   -3.3113   -2.1183    2.6968 C   0  0  0  0  0  0  0  0  0  0  0  0
   -2.9138   -2.9916    3.7162 C   0  0  0  0  0  0  0  0  0  0  0  0
   -2.2811   -2.5035    4.8635 C   0  0  0  0  0  0  0  0  0  0  0  0
   -2.0368   -1.1408    5.0043 C   0  0  0  0  0  0  0  0  0  0  0  0
   -2.4267   -0.2606    3.9969 C   0  0  0  0  0  0  0  0  0  0  0  0
   -3.0672   -0.7368    2.8411 C   0  0  0  0  0  0  0  0  0  0  0  0
   -3.4494    0.2278    1.8011 C   0  0  0  0  0  0  0  0  0  0  0  0
   -5.0379    0.8554    1.8244 S   0  0  0  0  0  0  0  0  0  0  0  0
   -4.7630    1.8478    0.4467 C   0  0  0  0  0  0  0  0  0  0  0  0
   -5.7003    2.7122   -0.1609 C   0  0  0  0  0  0  0  0  0  0  0  0
   -5.2654    3.4185   -1.2632 C   0  0  0  0  0  0  0  0  0  0  0  0
   -3.9945    3.2973   -1.7541 C   0  0  0  0  0  0  0  0  0  0  0  0
   -3.0620    2.4584   -1.1761 C   0  0  0  0  0  0  0  0  0  0  0  0
   -3.4508    1.7052   -0.0333 C   0  0  0  0  0  0  0  0  0  0  0  0
   -2.6997    0.7622    0.7671 C   0  0  0  0  0  0  0  0  0  0  0  0
   -1.3054    0.3876    0.5614 C   0  0  0  0  0  0  0  0  0  0  0  0
   -0.9776   -0.8712    0.0521 C   0  0  0  0  0  0  0  0  0  0  0  0
    0.3612   -1.2161   -0.1455 C   0  0  0  0  0  0  0  0  0  0  0  0
    1.3832   -0.3117    0.1549 C   0  0  0  0  0  0  0  0  0  0  0  0
    2.6449   -0.7801   -0.0837 O   0  0  0  0  0  0  0  0  0  0  0  0
    3.7291    0.1261    0.1240 C   0  0  0  0  0  0  0  0  0  0  0  0
    5.0582   -0.5709   -0.2316 C   0  0  0  0  0  0  0  0  0  0  0  0
    5.2041   -0.9716   -1.6438 N   0  0  0  0  0  0  0  0  0  0  0  0
    6.4532   -1.7252   -1.8799 C   0  0  0  0  0  0  0  0  0  0  0  0
    7.5701   -0.8733   -2.5029 C   0  0  0  0  0  0  0  0  0  0  0  0
    7.2083   -0.2940   -3.7640 O   0  0  0  0  0  0  0  0  0  0  0  0
    5.7933   -0.1092   -3.9124 C   0  0  0  0  0  0  0  0  0  0  0  0
    5.0934    0.1707   -2.5739 C   0  0  0  0  0  0  0  0  0  0  0  0
    1.0552    0.9471    0.6602 C   0  0  0  0  0  0  0  0  0  0  0  0
   -0.2853    1.2965    0.8612 C   0  0  0  0  0  0  0  0  0  0  0  0
   -3.7794    4.0819   -2.8448 O   0  0  0  0  0  0  0  0  0  0  0  0
   -5.0710    4.7072   -2.9875 C   0  0  0  0  0  0  0  0  0  0  0  0
   -6.0186    4.2963   -1.9811 O   0  0  0  0  0  0  0  0  0  0  0  0
   -4.9104   -4.2348    2.1686 H   0  0  0  0  0  0  0  0  0  0  0  0
   -3.3146   -4.4953    1.3600 H   0  0  0  0  0  0  0  0  0  0  0  0
   -4.7355   -4.0199    0.4233 H   0  0  0  0  0  0  0  0  0  0  0  0
   -3.0769   -4.0619    3.6482 H   0  0  0  0  0  0  0  0  0  0  0  0
   -1.9756   -3.1923    5.6473 H   0  0  0  0  0  0  0  0  0  0  0  0
   -1.5419   -0.7634    5.8951 H   0  0  0  0  0  0  0  0  0  0  0  0
   -2.2296    0.8028    4.1119 H   0  0  0  0  0  0  0  0  0  0  0  0
   -6.7102    2.8138    0.2184 H   0  0  0  0  0  0  0  0  0  0  0  0
   -2.0621    2.3756   -1.5895 H   0  0  0  0  0  0  0  0  0  0  0  0
   -1.7576   -1.5891   -0.1903 H   0  0  0  0  0  0  0  0  0  0  0  0
    0.6109   -2.1984   -0.5390 H   0  0  0  0  0  0  0  0  0  0  0  0
    3.7694    0.4054    1.1843 H   0  0  0  0  0  0  0  0  0  0  0  0
    3.5990    1.0320   -0.4791 H   0  0  0  0  0  0  0  0  0  0  0  0
    5.8887    0.0842    0.0603 H   0  0  0  0  0  0  0  0  0  0  0  0
    5.1203   -1.4767    0.3853 H   0  0  0  0  0  0  0  0  0  0  0  0
    6.2091   -2.5361   -2.5778 H   0  0  0  0  0  0  0  0  0  0  0  0
    6.8149   -2.2092   -0.9651 H   0  0  0  0  0  0  0  0  0  0  0  0
    8.4615   -1.4867   -2.6696 H   0  0  0  0  0  0  0  0  0  0  0  0
    7.8578   -0.0599   -1.8267 H   0  0  0  0  0  0  0  0  0  0  0  0
    5.3766   -1.0005   -4.3962 H   0  0  0  0  0  0  0  0  0  0  0  0
    5.6443    0.7315   -4.5976 H   0  0  0  0  0  0  0  0  0  0  0  0
    5.5534    1.0648   -2.1331 H   0  0  0  0  0  0  0  0  0  0  0  0
    4.0355    0.3860   -2.7584 H   0  0  0  0  0  0  0  0  0  0  0  0
    1.8143    1.6792    0.9122 H   0  0  0  0  0  0  0  0  0  0  0  0
   -0.5269    2.2799    1.2577 H   0  0  0  0  0  0  0  0  0  0  0  0
   -5.4758    4.4556   -3.9746 H   0  0  0  0  0  0  0  0  0  0  0  0
   -4.9434    5.7940   -2.9262 H   0  0  0  0  0  0  0  0  0  0  0  0
  1  2  1  0
  2  3  1  0
  3  4  2  0
  4  5  1  0
  5  6  2  0
  6  7  1  0
  7  8  2  0
  8  9  1  0
  9 10  1  0
 10 11  1  0
 11 12  2  0
 12 13  1  0
 13 14  2  0
 14 15  1  0
 15 16  2  0
 16 17  1  0
 17 18  1  0
 18 19  2  0
 19 20  1  0
 20 21  2  0
 21 22  1  0
 22 23  1  0
 23 24  1  0
 24 25  1  0
 25 26  1  0
 26 27  1  0
 27 28  1  0
 28 29  1  0
 29 30  1  0
 21 31  1  0
 31 32  2  0
 14 33  1  0
 33 34  1  0
 34 35  1  0
  8  3  1  0
 17  9  2  0
 32 18  1  0
 16 11  1  0
 30 25  1  0
 35 13  1  0
  1 36  1  0
  1 37  1  0
  1 38  1  0
  4 39  1  0
  5 40  1  0
  6 41  1  0
  7 42  1  0
 12 43  1  0
 15 44  1  0
 19 45  1  0
 20 46  1  0
 23 47  1  0
 23 48  1  0
 24 49  1  0
 24 50  1  0
 26 51  1  0
 26 52  1  0
 27 53  1  0
 27 54  1  0
 29 55  1  0
 29 56  1  0
 30 57  1  0
 30 58  1  0
 31 59  1  0
 32 60  1  0
 34 61  1  0
 34 62  1  0
M  END
$$$$
