
     RDKit          3D

 43 44  0  0  0  0  0  0  0  0999 V2000
   -2.8411    1.3075    2.4761 C   0  0  0  0  0  0  0  0  0  0  0  0
   -2.7388    1.7298    1.0233 C   0  0  0  0  0  0  0  0  0  0  0  0
   -3.2791    0.6535    0.1510 N   0  0  0  0  0  4  0  0  0  0  0  0
   -4.6086    0.6683   -0.1230 C   0  0  0  0  0  0  0  0  0  0  0  0
   -5.1929   -0.2768   -0.9635 C   0  0  0  0  0  0  0  0  0  0  0  0
   -6.6708   -0.2602   -1.2235 C   0  0  0  0  0  0  0  0  0  0  0  0
   -4.3885   -1.2695   -1.5101 C   0  0  0  0  0  0  0  0  0  0  0  0
   -3.0291   -1.2805   -1.2262 C   0  0  0  0  0  0  0  0  0  0  0  0
   -2.4747   -0.3033   -0.3902 C   0  0  0  0  0  0  0  0  0  0  0  0
   -1.0439   -0.3456   -0.0772 C   0  0  0  0  0  0  0  0  0  0  0  0
   -0.1007   -0.1735   -1.0173 C   0  0  0  0  0  0  0  0  0  0  0  0
    1.3415   -0.2360   -0.7431 C   0  0  0  0  0  0  0  0  0  0  0  0
    2.1904   -0.7745   -1.7088 C   0  0  0  0  0  0  0  0  0  0  0  0
    3.5765   -0.8358   -1.4935 C   0  0  0  0  0  0  0  0  0  0  0  0
    4.1796   -0.3466   -0.3230 C   0  0  0  0  0  0  0  0  0  0  0  0
    5.5561   -0.4312   -0.1015 N   0  0  0  0  0  0  0  0  0  0  0  0
    6.4440   -0.7964   -1.2051 C   0  0  0  0  0  0  0  0  0  0  0  0
    6.1648    0.3754    0.9560 C   0  0  0  0  0  0  0  0  0  0  0  0
    3.3017    0.1969    0.6299 C   0  0  0  0  0  0  0  0  0  0  0  0
    1.9133    0.2621    0.4269 C   0  0  0  0  0  0  0  0  0  0  0  0
   -3.8818    1.1186    2.7588 H   0  0  0  0  0  0  0  0  0  0  0  0
   -2.4488    2.0939    3.1279 H   0  0  0  0  0  0  0  0  0  0  0  0
   -2.2756    0.3908    2.6678 H   0  0  0  0  0  0  0  0  0  0  0  0
   -1.7091    1.9559    0.7336 H   0  0  0  0  0  0  0  0  0  0  0  0
   -3.3262    2.6365    0.8384 H   0  0  0  0  0  0  0  0  0  0  0  0
   -5.2006    1.4522    0.3435 H   0  0  0  0  0  0  0  0  0  0  0  0
   -6.8960   -0.6543   -2.2201 H   0  0  0  0  0  0  0  0  0  0  0  0
   -7.0629    0.7614   -1.1818 H   0  0  0  0  0  0  0  0  0  0  0  0
   -7.1889   -0.8689   -0.4760 H   0  0  0  0  0  0  0  0  0  0  0  0
   -4.8115   -2.0395   -2.1553 H   0  0  0  0  0  0  0  0  0  0  0  0
   -2.4023   -2.0635   -1.6516 H   0  0  0  0  0  0  0  0  0  0  0  0
   -0.7830   -0.5491    0.9576 H   0  0  0  0  0  0  0  0  0  0  0  0
   -0.3647   -0.0010   -2.0601 H   0  0  0  0  0  0  0  0  0  0  0  0
    1.7964   -1.1710   -2.6421 H   0  0  0  0  0  0  0  0  0  0  0  0
    4.1737   -1.2854   -2.2818 H   0  0  0  0  0  0  0  0  0  0  0  0
    6.2024   -1.7910   -1.5954 H   0  0  0  0  0  0  0  0  0  0  0  0
    6.3882   -0.0594   -2.0137 H   0  0  0  0  0  0  0  0  0  0  0  0
    7.4880   -0.8491   -0.8763 H   0  0  0  0  0  0  0  0  0  0  0  0
    5.7817    0.0894    1.9414 H   0  0  0  0  0  0  0  0  0  0  0  0
    7.2494    0.2256    1.0001 H   0  0  0  0  0  0  0  0  0  0  0  0
    5.9863    1.4431    0.7872 H   0  0  0  0  0  0  0  0  0  0  0  0
    3.6790    0.5866    1.5710 H   0  0  0  0  0  0  0  0  0  0  0  0
    1.3066    0.7147    1.2053 H   0  0  0  0  0  0  0  0  0  0  0  0
  1  2  1  0
  2  3  1  0
  3  4  2  0
  4  5  1  0
  5  6  1  0
  5  7  2  0
  7  8  1  0
  8  9  2  0
  9 10  1  0
 10 11  2  3
 11 12  1  0
 12 13  2  0
 13 14  1  0
 14 15  2  0
 15 16  1  0
 16 17  1  0
 16 18  1  0
 15 19  1  0
 19 20  2  0
  9  3  1  0
 20 12  1  0
  1 21  1  0
  1 22  1  0
  1 23  1  0
  2 24  1  0
  2 25  1  0
  4 26  1  0
  6 27  1  0
  6 28  1  0
  6 29  1  0
  7 30  1  0
  8 31  1  0
 10 32  1  0
 11 33  1  0
 13 34  1  0
 14 35  1  0
 17 36  1  0
 17 37  1  0
 17 38  1  0
 18 39  1  0
 18 40  1  0
 18 41  1  0
 19 42  1  0
 20 43  1  0
M  CHG  1   3   1
M  END
$$$$
