
     RDKit          3D

 63 67  0  0  0  0  0  0  0  0999 V2000
    3.5452    5.1752   -4.7487 C   0  0  0  0  0  0  0  0  0  0  0  0
    3.5516    4.8169   -3.3725 O   0  0  0  0  0  0  0  0  0  0  0  0
    3.4503    3.4850   -3.0803 C   0  0  0  0  0  0  0  0  0  0  0  0
    3.4714    3.1833   -1.7172 C   0  0  0  0  0  0  0  0  0  0  0  0
    3.3776    1.8600   -1.2771 C   0  0  0  0  0  0  0  0  0  0  0  0
    3.2595    0.8137   -2.1986 C   0  0  0  0  0  0  0  0  0  0  0  0
    3.1491   -0.5762   -1.7356 C   0  0  0  0  0  0  0  0  0  0  0  0
    4.3721   -1.6839   -2.1934 S   0  0  0  0  0  0  0  0  0  0  0  0
    3.6526   -2.9802   -1.3296 C   0  0  0  0  0  0  0  0  0  0  0  0
    4.1297   -4.3019   -1.2377 C   0  0  0  0  0  0  0  0  0  0  0  0
    3.4100   -5.2396   -0.4883 C   0  0  0  0  0  0  0  0  0  0  0  0
    2.2362   -4.8773    0.1576 C   0  0  0  0  0  0  0  0  0  0  0  0
    1.4470   -5.6989    0.9150 O   0  0  0  0  0  0  0  0  0  0  0  0
    1.8662   -7.0509    1.0510 C   0  0  0  0  0  0  0  0  0  0  0  0
    1.7729   -3.5600    0.0569 C   0  0  0  0  0  0  0  0  0  0  0  0
    2.4804   -2.5801   -0.6888 C   0  0  0  0  0  0  0  0  0  0  0  0
    2.1975   -1.1801   -0.9262 C   0  0  0  0  0  0  0  0  0  0  0  0
    1.0529   -0.4438   -0.3973 C   0  0  0  0  0  0  0  0  0  0  0  0
    0.0519    0.0258   -1.2515 C   0  0  0  0  0  0  0  0  0  0  0  0
   -1.0388    0.7259   -0.7301 C   0  0  0  0  0  0  0  0  0  0  0  0
   -1.1446    0.9631    0.6429 C   0  0  0  0  0  0  0  0  0  0  0  0
   -2.2616    1.6577    1.0151 O   0  0  0  0  0  0  0  0  0  0  0  0
   -2.4094    1.9684    2.4016 C   0  0  0  0  0  0  0  0  0  0  0  0
   -3.7056    2.7772    2.6241 C   0  0  0  0  0  0  0  0  0  0  0  0
   -4.9983    2.0767    2.5467 N   0  0  0  0  0  0  0  0  0  0  0  0
   -5.2911    1.4688    1.2355 C   0  0  0  0  0  0  0  0  0  0  0  0
   -5.1800   -0.0648    1.2379 C   0  0  0  0  0  0  0  0  0  0  0  0
   -6.0515   -0.6948    2.1912 O   0  0  0  0  0  0  0  0  0  0  0  0
   -6.3566    0.1420    3.3167 C   0  0  0  0  0  0  0  0  0  0  0  0
   -5.2236    1.1260    3.6494 C   0  0  0  0  0  0  0  0  0  0  0  0
   -0.1477    0.4905    1.4968 C   0  0  0  0  0  0  0  0  0  0  0  0
    0.9462   -0.2121    0.9786 C   0  0  0  0  0  0  0  0  0  0  0  0
    3.2352    1.1212   -3.5658 C   0  0  0  0  0  0  0  0  0  0  0  0
    3.3313    2.4478   -4.0047 C   0  0  0  0  0  0  0  0  0  0  0  0
    2.6007    4.8927   -5.2255 H   0  0  0  0  0  0  0  0  0  0  0  0
    4.4008    4.7383   -5.2746 H   0  0  0  0  0  0  0  0  0  0  0  0
    3.6372    6.2639   -4.8112 H   0  0  0  0  0  0  0  0  0  0  0  0
    3.5616    3.9860   -0.9896 H   0  0  0  0  0  0  0  0  0  0  0  0
    3.3992    1.6552   -0.2096 H   0  0  0  0  0  0  0  0  0  0  0  0
    5.0464   -4.5933   -1.7433 H   0  0  0  0  0  0  0  0  0  0  0  0
    3.8026   -6.2499   -0.4363 H   0  0  0  0  0  0  0  0  0  0  0  0
    1.8865   -7.5576    0.0804 H   0  0  0  0  0  0  0  0  0  0  0  0
    2.8381   -7.1142    1.5514 H   0  0  0  0  0  0  0  0  0  0  0  0
    1.1339   -7.5660    1.6803 H   0  0  0  0  0  0  0  0  0  0  0  0
    0.8479   -3.2867    0.5604 H   0  0  0  0  0  0  0  0  0  0  0  0
    0.1115   -0.1475   -2.3234 H   0  0  0  0  0  0  0  0  0  0  0  0
   -1.8120    1.0908   -1.4021 H   0  0  0  0  0  0  0  0  0  0  0  0
   -1.5670    2.5966    2.7176 H   0  0  0  0  0  0  0  0  0  0  0  0
   -2.4145    1.0540    3.0034 H   0  0  0  0  0  0  0  0  0  0  0  0
   -3.7302    3.6019    1.8997 H   0  0  0  0  0  0  0  0  0  0  0  0
   -3.6438    3.2508    3.6125 H   0  0  0  0  0  0  0  0  0  0  0  0
   -6.3304    1.7293    0.9961 H   0  0  0  0  0  0  0  0  0  0  0  0
   -4.6879    1.9031    0.4311 H   0  0  0  0  0  0  0  0  0  0  0  0
   -4.1555   -0.3845    1.4577 H   0  0  0  0  0  0  0  0  0  0  0  0
   -5.4384   -0.4609    0.2502 H   0  0  0  0  0  0  0  0  0  0  0  0
   -7.2907    0.6759    3.1048 H   0  0  0  0  0  0  0  0  0  0  0  0
   -6.5464   -0.5159    4.1712 H   0  0  0  0  0  0  0  0  0  0  0  0
   -4.3228    0.5388    3.8575 H   0  0  0  0  0  0  0  0  0  0  0  0
   -5.4773    1.6836    4.5578 H   0  0  0  0  0  0  0  0  0  0  0  0
   -0.1878    0.6477    2.5692 H   0  0  0  0  0  0  0  0  0  0  0  0
    1.7160   -0.5741    1.6569 H   0  0  0  0  0  0  0  0  0  0  0  0
    3.1356    0.3282   -4.3039 H   0  0  0  0  0  0  0  0  0  0  0  0
    3.3084    2.6327   -5.0733 H   0  0  0  0  0  0  0  0  0  0  0  0
  1  2  1  0
  2  3  1  0
  3  4  2  0
  4  5  1  0
  5  6  2  0
  6  7  1  0
  7  8  1  0
  8  9  1  0
  9 10  2  0
 10 11  1  0
 11 12  2  0
 12 13  1  0
 13 14  1  0
 12 15  1  0
 15 16  2  0
 16 17  1  0
 17 18  1  0
 18 19  2  0
 19 20  1  0
 20 21  2  0
 21 22  1  0
 22 23  1  0
 23 24  1  0
 24 25  1  0
 25 26  1  0
 26 27  1  0
 27 28  1  0
 28 29  1  0
 29 30  1  0
 21 31  1  0
 31 32  2  0
  6 33  1  0
 33 34  2  0
 34  3  1  0
 17  7  2  0
 32 18  1  0
 16  9  1  0
 30 25  1  0
  1 35  1  0
  1 36  1  0
  1 37  1  0
  4 38  1  0
  5 39  1  0
 10 40  1  0
 11 41  1  0
 14 42  1  0
 14 43  1  0
 14 44  1  0
 15 45  1  0
 19 46  1  0
 20 47  1  0
 23 48  1  0
 23 49  1  0
 24 50  1  0
 24 51  1  0
 26 52  1  0
 26 53  1  0
 27 54  1  0
 27 55  1  0
 29 56  1  0
 29 57  1  0
 30 58  1  0
 30 59  1  0
 31 60  1  0
 32 61  1  0
 33 62  1  0
 34 63  1  0
M  END
$$$$
