
     RDKit          3D

 54 57  0  0  0  0  0  0  0  0999 V2000
   -4.9565    4.6270   -1.6796 C   0  0  0  0  0  0  0  0  0  0  0  0
   -4.1596    3.4071   -1.3258 C   0  0  0  0  0  0  0  0  0  0  0  0
   -3.2495    3.4304   -0.2704 C   0  0  0  0  0  0  0  0  0  0  0  0
   -2.5069    2.2869    0.0761 C   0  0  0  0  0  0  0  0  0  0  0  0
   -1.5211    2.4112    1.2104 C   0  0  0  0  0  0  0  0  0  0  0  0
   -2.6764    1.0860   -0.6569 C   0  0  0  0  0  0  0  0  0  0  0  0
   -1.8718   -0.0207   -0.2876 N   0  0  0  0  0  0  0  0  0  0  0  0
   -1.3107   -0.9574   -1.1427 C   0  0  0  0  0  0  0  0  0  0  0  0
   -1.3536   -0.9495   -2.3698 O   0  0  0  0  0  0  0  0  0  0  0  0
   -0.4892   -2.0116   -0.3982 C   0  0  0  0  0  0  0  0  0  0  0  0
    0.8879   -1.5556   -0.2033 N   0  0  0  0  0  0  0  0  0  0  0  0
    1.1318   -0.7834    0.9260 C   0  0  0  0  0  0  0  0  0  0  0  0
    0.1941   -0.4165    1.6418 O   0  0  0  0  0  0  0  0  0  0  0  0
    2.4442   -0.4286    1.1786 N   0  0  0  0  0  0  0  0  0  0  0  0
    2.7298    0.2956    2.4089 C   0  0  0  0  0  0  0  0  0  0  0  0
    3.0585   -0.6748    3.4905 C   0  0  0  0  0  0  0  0  0  0  0  0
    4.2105   -1.3516    3.8376 C   0  0  0  0  0  0  0  0  0  0  0  0
    3.8874   -2.1373    4.9688 C   0  0  0  0  0  0  0  0  0  0  0  0
    2.5629   -1.8893    5.2414 C   0  0  0  0  0  0  0  0  0  0  0  0
    2.0514   -1.0026    4.3503 O   0  0  0  0  0  0  0  0  0  0  0  0
    3.5164   -0.7273    0.3520 C   0  0  0  0  0  0  0  0  0  0  0  0
    4.6800   -0.4178    0.6008 O   0  0  0  0  0  0  0  0  0  0  0  0
    3.2133   -1.4473   -0.8947 C   0  0  0  0  0  0  0  0  0  0  0  0
    4.2507   -1.7209   -1.8001 C   0  0  0  0  0  0  0  0  0  0  0  0
    3.9788   -2.3865   -2.9911 C   0  0  0  0  0  0  0  0  0  0  0  0
    2.6738   -2.7710   -3.2763 C   0  0  0  0  0  0  0  0  0  0  0  0
    1.6431   -2.4998   -2.3685 C   0  0  0  0  0  0  0  0  0  0  0  0
    1.9011   -1.8416   -1.1563 C   0  0  0  0  0  0  0  0  0  0  0  0
   -3.6629    1.0315   -1.6642 C   0  0  0  0  0  0  0  0  0  0  0  0
   -4.0715   -0.2204   -2.3936 C   0  0  0  0  0  0  0  0  0  0  0  0
   -4.3692    2.2045   -2.0015 C   0  0  0  0  0  0  0  0  0  0  0  0
   -4.4182    5.5408   -1.4073 H   0  0  0  0  0  0  0  0  0  0  0  0
   -5.9166    4.6129   -1.1543 H   0  0  0  0  0  0  0  0  0  0  0  0
   -5.1424    4.6695   -2.7579 H   0  0  0  0  0  0  0  0  0  0  0  0
   -3.1052    4.3557    0.2846 H   0  0  0  0  0  0  0  0  0  0  0  0
   -1.5293    3.4163    1.6464 H   0  0  0  0  0  0  0  0  0  0  0  0
   -1.7734    1.7102    2.0125 H   0  0  0  0  0  0  0  0  0  0  0  0
   -0.5038    2.2205    0.8530 H   0  0  0  0  0  0  0  0  0  0  0  0
   -1.3860    0.0534    0.6061 H   0  0  0  0  0  0  0  0  0  0  0  0
   -0.9577   -2.2075    0.5749 H   0  0  0  0  0  0  0  0  0  0  0  0
   -0.5336   -2.9673   -0.9284 H   0  0  0  0  0  0  0  0  0  0  0  0
    3.5745    0.9776    2.2567 H   0  0  0  0  0  0  0  0  0  0  0  0
    1.8721    0.9124    2.7004 H   0  0  0  0  0  0  0  0  0  0  0  0
    5.1623   -1.2847    3.3267 H   0  0  0  0  0  0  0  0  0  0  0  0
    4.5384   -2.8025    5.5182 H   0  0  0  0  0  0  0  0  0  0  0  0
    1.8731   -2.2449    5.9939 H   0  0  0  0  0  0  0  0  0  0  0  0
    5.2702   -1.4100   -1.5801 H   0  0  0  0  0  0  0  0  0  0  0  0
    4.7790   -2.5941   -3.6970 H   0  0  0  0  0  0  0  0  0  0  0  0
    2.4479   -3.2759   -4.2135 H   0  0  0  0  0  0  0  0  0  0  0  0
    0.6410   -2.7972   -2.6638 H   0  0  0  0  0  0  0  0  0  0  0  0
   -5.1430   -0.1962   -2.6255 H   0  0  0  0  0  0  0  0  0  0  0  0
   -3.5275   -0.3104   -3.3379 H   0  0  0  0  0  0  0  0  0  0  0  0
   -3.9246   -1.1147   -1.7813 H   0  0  0  0  0  0  0  0  0  0  0  0
   -5.1142    2.1675   -2.7955 H   0  0  0  0  0  0  0  0  0  0  0  0
  1  2  1  0
  2  3  2  0
  3  4  1  0
  4  5  1  0
  4  6  2  0
  6  7  1  0
  7  8  1  0
  8  9  2  0
  8 10  1  0
 10 11  1  0
 11 12  1  0
 12 13  2  0
 12 14  1  0
 14 15  1  0
 15 16  1  0
 16 17  2  0
 17 18  1  0
 18 19  2  0
 19 20  1  0
 14 21  1  0
 21 22  2  0
 21 23  1  0
 23 24  2  0
 24 25  1  0
 25 26  2  0
 26 27  1  0
 27 28  2  0
  6 29  1  0
 29 30  1  0
 29 31  2  0
 31  2  1  0
 28 11  1  0
 20 16  1  0
 28 23  1  0
  1 32  1  0
  1 33  1  0
  1 34  1  0
  3 35  1  0
  5 36  1  0
  5 37  1  0
  5 38  1  0
  7 39  1  0
 10 40  1  0
 10 41  1  0
 15 42  1  0
 15 43  1  0
 17 44  1  0
 18 45  1  0
 19 46  1  0
 24 47  1  0
 25 48  1  0
 26 49  1  0
 27 50  1  0
 30 51  1  0
 30 52  1  0
 30 53  1  0
 31 54  1  0
M  END
$$$$
