
     RDKit          3D

 41 43  0  0  0  0  0  0  0  0999 V2000
   -3.0549   -2.2434    2.2030 C   0  0  0  0  0  0  0  0  0  0  0  0
   -2.9221   -0.9104    1.5280 C   0  0  0  0  0  0  0  0  0  0  0  0
   -3.0470    0.2726    2.2585 C   0  0  0  0  0  0  0  0  0  0  0  0
   -2.9511    1.5135    1.6230 C   0  0  0  0  0  0  0  0  0  0  0  0
   -2.7252    1.6088    0.2394 C   0  0  0  0  0  0  0  0  0  0  0  0
   -2.6476    2.9786   -0.3724 C   0  0  0  0  0  0  0  0  0  0  0  0
   -2.6166    0.4133   -0.4964 C   0  0  0  0  0  0  0  0  0  0  0  0
   -2.3394    0.3993   -2.2660 S   0  0  0  0  0  6  0  0  0  0  0  0
   -3.0339    1.5273   -2.8498 O   0  0  0  0  0  0  0  0  0  0  0  0
   -2.5799   -0.9428   -2.7548 O   0  0  0  0  0  0  0  0  0  0  0  0
   -0.6845    0.7361   -2.3955 N   0  0  0  0  0  0  0  0  0  0  0  0
    0.2356   -0.0512   -1.6475 C   0  0  0  0  0  0  0  0  0  0  0  0
    0.4107   -1.4030   -1.9340 C   0  0  0  0  0  0  0  0  0  0  0  0
    1.2742   -2.1700   -1.1540 C   0  0  0  0  0  0  0  0  0  0  0  0
    1.9635   -1.5828   -0.0940 C   0  0  0  0  0  0  0  0  0  0  0  0
    2.7901   -2.4138    0.6107 O   0  0  0  0  0  0  0  0  0  0  0  0
    1.7936   -0.2249    0.2116 C   0  0  0  0  0  0  0  0  0  0  0  0
    2.5474    0.5861    1.6139 S   0  0  0  0  0  0  0  0  0  0  0  0
    4.2389    0.4929    1.2228 C   0  0  0  0  0  0  0  0  0  0  0  0
    4.8900   -0.7055    1.0769 N   0  0  0  0  0  0  0  0  0  0  0  0
    6.1221   -0.3367    0.8115 C   0  0  0  0  0  0  0  0  0  0  0  0
    6.1994    1.0207    0.8067 N   0  0  0  0  0  0  0  0  0  0  0  0
    5.0064    1.5750    1.0744 N   0  0  0  0  0  0  0  0  0  0  0  0
    0.9191    0.5354   -0.5792 C   0  0  0  0  0  0  0  0  0  0  0  0
   -2.7275   -0.8331    0.1453 C   0  0  0  0  0  0  0  0  0  0  0  0
   -2.4369   -2.9967    1.7030 H   0  0  0  0  0  0  0  0  0  0  0  0
   -2.7209   -2.1894    3.2446 H   0  0  0  0  0  0  0  0  0  0  0  0
   -4.0990   -2.5705    2.1832 H   0  0  0  0  0  0  0  0  0  0  0  0
   -3.2228    0.2385    3.3320 H   0  0  0  0  0  0  0  0  0  0  0  0
   -3.0577    2.4139    2.2261 H   0  0  0  0  0  0  0  0  0  0  0  0
   -3.5626    3.1996   -0.9295 H   0  0  0  0  0  0  0  0  0  0  0  0
   -2.5372    3.7510    0.3973 H   0  0  0  0  0  0  0  0  0  0  0  0
   -1.7763    3.0710   -1.0265 H   0  0  0  0  0  0  0  0  0  0  0  0
   -0.5071    1.7357   -2.4722 H   0  0  0  0  0  0  0  0  0  0  0  0
   -0.1187   -1.8689   -2.7617 H   0  0  0  0  0  0  0  0  0  0  0  0
    1.4129   -3.2257   -1.3725 H   0  0  0  0  0  0  0  0  0  0  0  0
    3.4905   -1.8671    1.0252 H   0  0  0  0  0  0  0  0  0  0  0  0
    6.9684   -0.9820    0.6219 H   0  0  0  0  0  0  0  0  0  0  0  0
    7.0013    1.6185    0.6380 H   0  0  0  0  0  0  0  0  0  0  0  0
    0.7549    1.5842   -0.3445 H   0  0  0  0  0  0  0  0  0  0  0  0
   -2.6502   -1.7540   -0.4318 H   0  0  0  0  0  0  0  0  0  0  0  0
  1  2  1  0
  2  3  2  0
  3  4  1  0
  4  5  2  0
  5  6  1  0
  5  7  1  0
  7  8  1  0
  8  9  2  0
  8 10  2  0
  8 11  1  0
 11 12  1  0
 12 13  2  0
 13 14  1  0
 14 15  2  0
 15 16  1  0
 15 17  1  0
 17 18  1  0
 18 19  1  0
 19 20  1  0
 20 21  2  0
 21 22  1  0
 22 23  1  0
 17 24  2  0
  7 25  2  0
 25  2  1  0
 24 12  1  0
 23 19  2  0
  1 26  1  0
  1 27  1  0
  1 28  1  0
  3 29  1  0
  4 30  1  0
  6 31  1  0
  6 32  1  0
  6 33  1  0
 11 34  1  0
 13 35  1  0
 14 36  1  0
 16 37  1  0
 21 38  1  0
 22 39  1  0
 24 40  1  0
 25 41  1  0
M  END
$$$$
