
     RDKit          3D

 40 42  0  0  0  0  0  0  0  0999 V2000
   -3.1912    4.1243    3.3648 C   0  0  0  0  0  0  0  0  0  0  0  0
   -2.3206    3.4623    2.4549 O   0  0  0  0  0  0  0  0  0  0  0  0
   -2.3309    2.0928    2.4737 C   0  0  0  0  0  0  0  0  0  0  0  0
   -3.1090    1.2921    3.3049 C   0  0  0  0  0  0  0  0  0  0  0  0
   -3.0370   -0.1055    3.2366 C   0  0  0  0  0  0  0  0  0  0  0  0
   -2.1582   -0.6825    2.3072 C   0  0  0  0  0  0  0  0  0  0  0  0
   -1.3628    0.0925    1.4587 C   0  0  0  0  0  0  0  0  0  0  0  0
   -1.4591    1.4987    1.5518 C   0  0  0  0  0  0  0  0  0  0  0  0
   -0.5974   -0.8085    0.6525 C   0  0  0  0  0  0  0  0  0  0  0  0
    0.3537   -0.4425   -0.3517 C   0  0  0  0  0  0  0  0  0  0  0  0
    1.0359   -1.2876   -1.1437 C   0  0  0  0  0  0  0  0  0  0  0  0
    1.9967   -0.8445   -2.1596 C   0  0  0  0  0  0  0  0  0  0  0  0
    2.0046   -1.4651   -3.4070 C   0  0  0  0  0  0  0  0  0  0  0  0
    2.9233   -1.0643   -4.3707 C   0  0  0  0  0  0  0  0  0  0  0  0
    3.8147   -0.0832   -4.1063 N   0  0  0  0  0  4  0  0  0  0  0  0
    4.7842    0.3187   -5.1395 C   0  0  0  0  0  0  0  0  0  0  0  0
    3.8431    0.5152   -2.8947 C   0  0  0  0  0  0  0  0  0  0  0  0
    2.9416    0.1479   -1.9024 C   0  0  0  0  0  0  0  0  0  0  0  0
   -0.9421   -2.0898    1.0268 C   0  0  0  0  0  0  0  0  0  0  0  0
   -1.8821   -2.0026    2.0222 N   0  0  0  0  0  0  0  0  0  0  0  0
   -2.4944   -3.1365    2.6798 C   0  0  0  0  0  0  0  0  0  0  0  0
   -4.2384    3.8805    3.1575 H   0  0  0  0  0  0  0  0  0  0  0  0
   -3.0660    5.2021    3.2223 H   0  0  0  0  0  0  0  0  0  0  0  0
   -2.9277    3.8930    4.4021 H   0  0  0  0  0  0  0  0  0  0  0  0
   -3.7936    1.7222    4.0294 H   0  0  0  0  0  0  0  0  0  0  0  0
   -3.6507   -0.7164    3.8916 H   0  0  0  0  0  0  0  0  0  0  0  0
   -0.8588    2.1339    0.9082 H   0  0  0  0  0  0  0  0  0  0  0  0
    0.5097    0.6274   -0.4725 H   0  0  0  0  0  0  0  0  0  0  0  0
    0.8772   -2.3609   -1.0712 H   0  0  0  0  0  0  0  0  0  0  0  0
    1.2912   -2.2539   -3.6399 H   0  0  0  0  0  0  0  0  0  0  0  0
    2.9537   -1.5237   -5.3547 H   0  0  0  0  0  0  0  0  0  0  0  0
    5.0289    1.3760   -5.0089 H   0  0  0  0  0  0  0  0  0  0  0  0
    5.6725   -0.3055   -5.0150 H   0  0  0  0  0  0  0  0  0  0  0  0
    4.3386    0.1704   -6.1265 H   0  0  0  0  0  0  0  0  0  0  0  0
    4.5935    1.2827   -2.7268 H   0  0  0  0  0  0  0  0  0  0  0  0
    2.9908    0.6338   -0.9294 H   0  0  0  0  0  0  0  0  0  0  0  0
   -0.6031   -3.0559    0.6782 H   0  0  0  0  0  0  0  0  0  0  0  0
   -3.5737   -3.0909    2.5136 H   0  0  0  0  0  0  0  0  0  0  0  0
   -2.2629   -3.0835    3.7466 H   0  0  0  0  0  0  0  0  0  0  0  0
   -2.0947   -4.0633    2.2603 H   0  0  0  0  0  0  0  0  0  0  0  0
  1  2  1  0
  2  3  1  0
  3  4  2  0
  4  5  1  0
  5  6  2  0
  6  7  1  0
  7  8  2  0
  7  9  1  0
  9 10  1  0
 10 11  2  3
 11 12  1  0
 12 13  2  0
 13 14  1  0
 14 15  2  0
 15 16  1  0
 15 17  1  0
 17 18  2  0
  9 19  2  0
 19 20  1  0
 20 21  1  0
  8  3  1  0
 18 12  1  0
 20  6  1  0
  1 22  1  0
  1 23  1  0
  1 24  1  0
  4 25  1  0
  5 26  1  0
  8 27  1  0
 10 28  1  0
 11 29  1  0
 13 30  1  0
 14 31  1  0
 16 32  1  0
 16 33  1  0
 16 34  1  0
 17 35  1  0
 18 36  1  0
 19 37  1  0
 21 38  1  0
 21 39  1  0
 21 40  1  0
M  CHG  1  15   1
M  END
$$$$
