
     RDKit          3D

 27 27  0  0  0  0  0  0  0  0999 V2000
    2.8062   -0.3705   -2.4075 C   0  0  0  0  0  0  0  0  0  0  0  0
    1.9084   -0.1004   -1.2607 C   0  0  0  0  0  0  0  0  0  0  0  0
    2.2254    0.4668   -0.0198 C   0  0  0  0  0  0  0  0  0  0  0  0
    1.0441    0.5080    0.7088 C   0  0  0  0  0  0  0  0  0  0  0  0
    0.8762    1.0098    2.0443 C   0  0  0  0  0  0  0  0  0  0  0  0
   -0.1281    1.0730    2.7336 O   0  0  0  0  0  0  0  0  0  0  0  0
    2.0470    1.4622    2.5476 O   0  0  0  0  0  0  0  0  0  0  0  0
    0.0879   -0.0359   -0.1357 N   0  0  0  0  0  0  0  0  0  0  0  0
   -1.3617   -0.2620    0.0708 C   0  0  0  0  0  0  0  0  0  0  0  0
   -2.0201   -0.9080   -1.1851 C   0  0  0  0  0  0  0  0  0  0  0  0
   -1.6058   -1.2508    1.2264 C   0  0  0  0  0  0  0  0  0  0  0  0
   -2.1011    1.0711    0.2917 C   0  0  0  0  0  0  0  0  0  0  0  0
    0.6152   -0.4049   -1.3319 N   0  0  0  0  0  0  0  0  0  0  0  0
    2.8171   -1.4394   -2.6437 H   0  0  0  0  0  0  0  0  0  0  0  0
    2.4722    0.1774   -3.2945 H   0  0  0  0  0  0  0  0  0  0  0  0
    3.8331   -0.0624   -2.1863 H   0  0  0  0  0  0  0  0  0  0  0  0
    3.1945    0.8094    0.3179 H   0  0  0  0  0  0  0  0  0  0  0  0
    1.7996    1.7698    3.4431 H   0  0  0  0  0  0  0  0  0  0  0  0
   -1.5729   -1.8815   -1.4196 H   0  0  0  0  0  0  0  0  0  0  0  0
   -1.9172   -0.2675   -2.0693 H   0  0  0  0  0  0  0  0  0  0  0  0
   -3.0928   -1.0736   -1.0280 H   0  0  0  0  0  0  0  0  0  0  0  0
   -2.6728   -1.4811    1.3281 H   0  0  0  0  0  0  0  0  0  0  0  0
   -1.2736   -0.8756    2.1943 H   0  0  0  0  0  0  0  0  0  0  0  0
   -1.0771   -2.1953    1.0503 H   0  0  0  0  0  0  0  0  0  0  0  0
   -1.9209    1.7604   -0.5420 H   0  0  0  0  0  0  0  0  0  0  0  0
   -3.1836    0.9130    0.3643 H   0  0  0  0  0  0  0  0  0  0  0  0
   -1.7990    1.5876    1.2029 H   0  0  0  0  0  0  0  0  0  0  0  0
  1  2  1  0
  2  3  1  0
  3  4  2  0
  4  5  1  0
  5  6  2  0
  5  7  1  0
  4  8  1  0
  8  9  1  0
  9 10  1  0
  9 11  1  0
  9 12  1  0
  8 13  1  0
 13  2  2  0
  1 14  1  0
  1 15  1  0
  1 16  1  0
  3 17  1  0
  7 18  1  0
 10 19  1  0
 10 20  1  0
 10 21  1  0
 11 22  1  0
 11 23  1  0
 11 24  1  0
 12 25  1  0
 12 26  1  0
 12 27  1  0
M  END
$$$$
