
     RDKit          3D

 59 62  0  0  0  0  0  0  0  0999 V2000
   -8.3870    2.0698   -1.3406 C   0  0  0  0  0  0  0  0  0  0  0  0
   -7.4994    1.6392   -2.3625 O   0  0  0  0  0  0  0  0  0  0  0  0
   -6.2643    1.2198   -1.9562 C   0  0  0  0  0  0  0  0  0  0  0  0
   -5.5157    0.5705   -2.9394 C   0  0  0  0  0  0  0  0  0  0  0  0
   -4.2433    0.0750   -2.6513 C   0  0  0  0  0  0  0  0  0  0  0  0
   -3.7021    0.2254   -1.3722 C   0  0  0  0  0  0  0  0  0  0  0  0
   -2.3839   -0.3198   -1.0791 C   0  0  0  0  0  0  0  0  0  0  0  0
   -1.1542    0.0107   -1.6182 C   0  0  0  0  0  0  0  0  0  0  0  0
   -0.1557   -0.7924   -1.1307 N   0  0  0  0  0  0  0  0  0  0  0  0
   -0.7594   -1.6191   -0.3073 C   0  0  0  0  0  0  0  0  0  0  0  0
    0.0449   -2.8917    0.5503 S   0  0  0  0  0  0  0  0  0  0  0  0
    1.4717   -3.1939   -0.5323 C   0  0  0  0  0  0  0  0  0  0  0  0
    2.6547   -2.3254   -0.1439 C   0  0  0  0  0  0  0  0  0  0  0  0
    3.6042   -2.8108    0.4631 O   0  0  0  0  0  0  0  0  0  0  0  0
    2.5227   -1.0212   -0.5682 N   0  0  0  0  0  0  0  0  0  0  0  0
    3.5106   -0.0935   -0.4300 C   0  0  0  0  0  0  0  0  0  0  0  0
    4.7365   -0.2439   -0.0064 N   0  0  0  0  0  0  0  0  0  0  0  0
    5.4215    0.9624   -0.0667 C   0  0  0  0  0  0  0  0  0  0  0  0
    6.8698    1.0142    0.3978 C   0  0  0  0  0  0  0  0  0  0  0  0
    7.4788   -0.4005    0.4920 C   0  0  0  0  0  0  0  0  0  0  0  0
    6.9402    1.6632    1.7929 C   0  0  0  0  0  0  0  0  0  0  0  0
    7.7360    1.8323   -0.5808 C   0  0  0  0  0  0  0  0  0  0  0  0
    4.6522    2.0177   -0.5314 C   0  0  0  0  0  0  0  0  0  0  0  0
    3.0713    1.4776   -0.9217 S   0  0  0  0  0  0  0  0  0  0  0  0
   -2.1082   -1.3696   -0.2160 N   0  0  0  0  0  0  0  0  0  0  0  0
   -3.0914   -2.1368    0.5413 C   0  0  0  0  0  0  0  0  0  0  0  0
   -3.3518   -1.5277    1.8721 C   0  0  0  0  0  0  0  0  0  0  0  0
   -2.5498   -1.0836    2.9049 C   0  0  0  0  0  0  0  0  0  0  0  0
   -3.4225   -0.6063    3.9134 C   0  0  0  0  0  0  0  0  0  0  0  0
   -4.6995   -0.7914    3.4360 C   0  0  0  0  0  0  0  0  0  0  0  0
   -4.6662   -1.3514    2.2015 O   0  0  0  0  0  0  0  0  0  0  0  0
   -4.4393    0.9055   -0.3966 C   0  0  0  0  0  0  0  0  0  0  0  0
   -5.7171    1.3961   -0.6856 C   0  0  0  0  0  0  0  0  0  0  0  0
   -9.3686    2.2258   -1.7939 H   0  0  0  0  0  0  0  0  0  0  0  0
   -8.0588    3.0229   -0.9162 H   0  0  0  0  0  0  0  0  0  0  0  0
   -8.5014    1.3082   -0.5610 H   0  0  0  0  0  0  0  0  0  0  0  0
   -5.9315    0.4435   -3.9356 H   0  0  0  0  0  0  0  0  0  0  0  0
   -3.6871   -0.4391   -3.4316 H   0  0  0  0  0  0  0  0  0  0  0  0
   -0.9474    0.7867   -2.3449 H   0  0  0  0  0  0  0  0  0  0  0  0
    1.2246   -3.0414   -1.5861 H   0  0  0  0  0  0  0  0  0  0  0  0
    1.7697   -4.2406   -0.4267 H   0  0  0  0  0  0  0  0  0  0  0  0
    1.6285   -0.6994   -0.9363 H   0  0  0  0  0  0  0  0  0  0  0  0
    8.5295   -0.3597    0.8038 H   0  0  0  0  0  0  0  0  0  0  0  0
    7.4388   -0.9162   -0.4755 H   0  0  0  0  0  0  0  0  0  0  0  0
    6.9485   -1.0228    1.2232 H   0  0  0  0  0  0  0  0  0  0  0  0
    6.5761    2.6964    1.7690 H   0  0  0  0  0  0  0  0  0  0  0  0
    6.3247    1.1149    2.5169 H   0  0  0  0  0  0  0  0  0  0  0  0
    7.9693    1.6798    2.1712 H   0  0  0  0  0  0  0  0  0  0  0  0
    7.4054    2.8748   -0.6458 H   0  0  0  0  0  0  0  0  0  0  0  0
    8.7835    1.8450   -0.2613 H   0  0  0  0  0  0  0  0  0  0  0  0
    7.6980    1.4114   -1.5909 H   0  0  0  0  0  0  0  0  0  0  0  0
    4.9334    3.0534   -0.6587 H   0  0  0  0  0  0  0  0  0  0  0  0
   -2.7352   -3.1661    0.6515 H   0  0  0  0  0  0  0  0  0  0  0  0
   -4.0066   -2.1912   -0.0603 H   0  0  0  0  0  0  0  0  0  0  0  0
   -1.4686   -1.0972    2.9282 H   0  0  0  0  0  0  0  0  0  0  0  0
   -3.1549   -0.1811    4.8716 H   0  0  0  0  0  0  0  0  0  0  0  0
   -5.6869   -0.5905    3.8328 H   0  0  0  0  0  0  0  0  0  0  0  0
   -4.0302    1.0627    0.5991 H   0  0  0  0  0  0  0  0  0  0  0  0
   -6.2572    1.9194    0.0995 H   0  0  0  0  0  0  0  0  0  0  0  0
  1  2  1  0
  2  3  1  0
  3  4  2  0
  4  5  1  0
  5  6  2  0
  6  7  1  0
  7  8  2  0
  8  9  1  0
  9 10  2  0
 10 11  1  0
 11 12  1  0
 12 13  1  0
 13 14  2  0
 13 15  1  0
 15 16  1  0
 16 17  2  0
 17 18  1  0
 18 19  1  0
 19 20  1  0
 19 21  1  0
 19 22  1  0
 18 23  2  0
 23 24  1  0
 10 25  1  0
 25 26  1  0
 26 27  1  0
 27 28  2  0
 28 29  1  0
 29 30  2  0
 30 31  1  0
  6 32  1  0
 32 33  2  0
 33  3  1  0
 25  7  1  0
 31 27  1  0
 24 16  1  0
  1 34  1  0
  1 35  1  0
  1 36  1  0
  4 37  1  0
  5 38  1  0
  8 39  1  0
 12 40  1  0
 12 41  1  0
 15 42  1  0
 20 43  1  0
 20 44  1  0
 20 45  1  0
 21 46  1  0
 21 47  1  0
 21 48  1  0
 22 49  1  0
 22 50  1  0
 22 51  1  0
 23 52  1  0
 26 53  1  0
 26 54  1  0
 28 55  1  0
 29 56  1  0
 30 57  1  0
 32 58  1  0
 33 59  1  0
M  END
$$$$
