
     RDKit          3D

 67 72  0  0  0  0  0  0  0  0999 V2000
   -4.8996    3.5987    2.2080 C   0  0  0  0  0  0  0  0  0  0  0  0
   -3.8402    3.1091    1.2667 C   0  0  0  0  0  0  0  0  0  0  0  0
   -3.4658    3.8471    0.1279 C   0  0  0  0  0  0  0  0  0  0  0  0
   -4.2081    5.3668   -0.2415 Cl  0  0  0  0  0  0  0  0  0  0  0  0
   -2.4721    3.3854   -0.7575 C   0  0  0  0  0  0  0  0  0  0  0  0
   -1.8147    2.1769   -0.5273 C   0  0  0  0  0  0  0  0  0  0  0  0
   -2.1562    1.4501    0.6043 C   0  0  0  0  0  0  0  0  0  0  0  0
   -3.1555    1.9168    1.4738 C   0  0  0  0  0  0  0  0  0  0  0  0
   -3.3311    1.0101    2.5171 N   0  0  0  0  0  0  0  0  0  0  0  0
   -2.4955   -0.1021    2.3905 C   0  0  0  0  0  0  0  0  0  0  0  0
   -2.4778   -1.0438    3.1703 O   0  0  0  0  0  0  0  0  0  0  0  0
   -1.6318    0.1321    1.1232 C   0  0  1  0  0  0  0  0  0  0  0  0
   -1.8343   -0.8753    0.0607 C   0  0  0  0  0  0  0  0  0  0  0  0
   -0.6254   -1.4519   -0.3303 C   0  0  0  0  0  0  0  0  0  0  0  0
   -0.8718   -2.3589   -1.3280 C   0  0  0  0  0  0  0  0  0  0  0  0
   -0.0384   -3.1699   -1.9738 O   0  0  0  0  0  0  0  0  0  0  0  0
   -2.2664   -2.3851   -1.5302 N   0  0  0  0  0  0  0  0  0  0  0  0
   -2.9781   -3.2875   -2.3832 C   0  0  0  0  0  0  0  0  0  0  0  0
   -4.2656   -3.7212   -2.0338 C   0  0  0  0  0  0  0  0  0  0  0  0
   -4.9484   -4.6078   -2.8655 C   0  0  0  0  0  0  0  0  0  0  0  0
   -6.1754   -5.0172   -2.5184 F   0  0  0  0  0  0  0  0  0  0  0  0
   -4.3809   -5.0777   -4.0396 C   0  0  0  0  0  0  0  0  0  0  0  0
   -3.1029   -4.6561   -4.3740 C   0  0  0  0  0  0  0  0  0  0  0  0
   -2.5411   -5.0981   -5.5068 F   0  0  0  0  0  0  0  0  0  0  0  0
   -2.3942   -3.7733   -3.5600 C   0  0  0  0  0  0  0  0  0  0  0  0
   -2.8405   -1.3938   -0.7097 C   0  0  0  0  0  0  0  0  0  0  0  0
   -4.1181   -1.0174   -0.7425 O   0  0  0  0  0  0  0  0  0  0  0  0
    0.5041   -0.9294    0.4686 C   0  0  1  0  0  0  0  0  0  0  0  0
    1.6131   -0.2485   -0.3512 C   0  0  0  0  0  0  0  0  0  0  0  0
    2.5911    0.4147    0.5132 N   0  0  0  0  0  0  0  0  0  0  0  0
    3.9236    0.4263    0.1584 C   0  0  0  0  0  0  0  0  0  0  0  0
    4.3444   -0.0475   -0.8885 O   0  0  0  0  0  0  0  0  0  0  0  0
    4.6945    1.0136    1.1079 O   0  0  0  0  0  0  0  0  0  0  0  0
    6.1311    1.1279    0.9430 C   0  0  0  0  0  0  0  0  0  0  0  0
    6.7960   -0.2510    0.8662 C   0  0  0  0  0  0  0  0  0  0  0  0
    6.4869    2.0041   -0.2625 C   0  0  0  0  0  0  0  0  0  0  0  0
    6.6128    1.8338    2.2202 C   0  0  0  0  0  0  0  0  0  0  0  0
    2.0961    0.9661    1.7803 C   0  0  0  0  0  0  0  0  0  0  0  0
    0.5738    1.2102    1.7548 C   0  0  0  0  0  0  0  0  0  0  0  0
   -0.1745   -0.0021    1.4331 N   0  0  0  0  0  0  0  0  0  0  0  0
   -5.8160    3.8458    1.6619 H   0  0  0  0  0  0  0  0  0  0  0  0
   -4.5458    4.4844    2.7454 H   0  0  0  0  0  0  0  0  0  0  0  0
   -5.1765    2.8476    2.9532 H   0  0  0  0  0  0  0  0  0  0  0  0
   -2.2113    3.9730   -1.6358 H   0  0  0  0  0  0  0  0  0  0  0  0
   -1.0568    1.8216   -1.2184 H   0  0  0  0  0  0  0  0  0  0  0  0
   -4.0014    1.0821    3.2667 H   0  0  0  0  0  0  0  0  0  0  0  0
    0.8521   -3.0685   -1.5927 H   0  0  0  0  0  0  0  0  0  0  0  0
   -4.7412   -3.4354   -1.0989 H   0  0  0  0  0  0  0  0  0  0  0  0
   -4.9209   -5.7664   -4.6783 H   0  0  0  0  0  0  0  0  0  0  0  0
   -1.4070   -3.4634   -3.8891 H   0  0  0  0  0  0  0  0  0  0  0  0
   -4.4995   -1.2530   -1.6067 H   0  0  0  0  0  0  0  0  0  0  0  0
    0.9433   -1.7456    1.0569 H   0  0  0  0  0  0  0  0  0  0  0  0
    1.1967    0.5241   -1.0105 H   0  0  0  0  0  0  0  0  0  0  0  0
    2.1107   -0.9812   -0.9969 H   0  0  0  0  0  0  0  0  0  0  0  0
    6.5524   -0.7716   -0.0650 H   0  0  0  0  0  0  0  0  0  0  0  0
    6.4537   -0.8943    1.6852 H   0  0  0  0  0  0  0  0  0  0  0  0
    7.8876   -0.1708    0.9191 H   0  0  0  0  0  0  0  0  0  0  0  0
    5.9480    2.9585   -0.2225 H   0  0  0  0  0  0  0  0  0  0  0  0
    7.5618    2.2134   -0.2993 H   0  0  0  0  0  0  0  0  0  0  0  0
    6.2127    1.5297   -1.2102 H   0  0  0  0  0  0  0  0  0  0  0  0
    6.3442    1.2538    3.1110 H   0  0  0  0  0  0  0  0  0  0  0  0
    7.6976    1.9837    2.2183 H   0  0  0  0  0  0  0  0  0  0  0  0
    6.1279    2.8110    2.3311 H   0  0  0  0  0  0  0  0  0  0  0  0
    2.3560    0.2500    2.5691 H   0  0  0  0  0  0  0  0  0  0  0  0
    2.6173    1.9050    1.9971 H   0  0  0  0  0  0  0  0  0  0  0  0
    0.2530    1.5938    2.7296 H   0  0  0  0  0  0  0  0  0  0  0  0
    0.3984    1.9985    1.0157 H   0  0  0  0  0  0  0  0  0  0  0  0
  1  2  1  0
  2  3  2  0
  3  4  1  0
  3  5  1  0
  5  6  2  0
  6  7  1  0
  7  8  2  0
  8  9  1  0
  9 10  1  0
 10 11  2  0
 10 12  1  0
 12 13  1  0
 13 14  1  0
 14 15  2  0
 15 16  1  0
 15 17  1  0
 17 18  1  0
 18 19  2  0
 19 20  1  0
 20 21  1  0
 20 22  2  0
 22 23  1  0
 23 24  1  0
 23 25  2  0
 17 26  1  0
 26 27  1  0
 14 28  1  0
 28 29  1  0
 29 30  1  0
 30 31  1  0
 31 32  2  0
 31 33  1  0
 33 34  1  0
 34 35  1  0
 34 36  1  0
 34 37  1  0
 30 38  1  0
 38 39  1  0
 39 40  1  0
  8  2  1  0
 12 40  1  1
 12  7  1  0
 26 13  2  0
 40 28  1  0
 25 18  1  0
  1 41  1  0
  1 42  1  0
  1 43  1  0
  5 44  1  0
  6 45  1  0
  9 46  1  0
 16 47  1  0
 19 48  1  0
 22 49  1  0
 25 50  1  0
 27 51  1  0
 28 52  1  1
 29 53  1  0
 29 54  1  0
 35 55  1  0
 35 56  1  0
 35 57  1  0
 36 58  1  0
 36 59  1  0
 36 60  1  0
 37 61  1  0
 37 62  1  0
 37 63  1  0
 38 64  1  0
 38 65  1  0
 39 66  1  0
 39 67  1  0
M  END
$$$$
