
     RDKit          3D

 51 55  0  0  0  0  0  0  0  0999 V2000
   -1.9402    2.4912   -0.5668 O   0  0  0  0  0  0  0  0  0  0  0  0
   -2.7987    1.6315   -0.3365 C   0  0  0  0  0  0  0  0  0  0  0  0
   -4.2450    1.7600   -0.8988 C   0  0  0  0  0  0  0  0  0  0  0  0
   -5.3233    2.3766    0.0370 C   0  0  0  0  0  0  0  0  0  0  0  0
   -5.9386    3.0388   -1.2089 C   0  0  0  0  0  0  0  0  0  0  0  0
   -4.5442    2.9534   -1.8547 C   0  0  0  0  0  0  0  0  0  0  0  0
   -2.5478    0.4940    0.4263 N   0  0  0  0  0  0  0  0  0  0  0  0
   -3.5209   -0.5715    0.7147 C   0  0  0  0  0  0  0  0  0  0  0  0
   -2.8311   -1.6065    1.6117 C   0  0  0  0  0  0  0  0  0  0  0  0
   -1.4486   -1.0514    1.7259 C   0  0  0  0  0  0  0  0  0  0  0  0
   -0.3807   -1.6037    2.4192 C   0  0  0  0  0  0  0  0  0  0  0  0
    0.8340   -0.9102    2.4083 C   0  0  0  0  0  0  0  0  0  0  0  0
    2.2263   -1.5776    3.2958 S   0  0  0  0  0  6  0  0  0  0  0  0
    1.7017   -2.4256    4.3468 O   0  0  0  0  0  0  0  0  0  0  0  0
    3.1359   -0.4935    3.5942 O   0  0  0  0  0  0  0  0  0  0  0  0
    2.9318   -2.6204    2.1705 N   0  0  0  0  0  0  0  0  0  0  0  0
    3.2734   -2.1379    0.8766 C   0  0  0  0  0  0  0  0  0  0  0  0
    2.6358   -2.6949   -0.2353 C   0  0  0  0  0  0  0  0  0  0  0  0
    2.9185   -2.2155   -1.5159 C   0  0  0  0  0  0  0  0  0  0  0  0
    3.8368   -1.1815   -1.6815 C   0  0  0  0  0  0  0  0  0  0  0  0
    4.5003   -0.6494   -0.5712 C   0  0  0  0  0  0  0  0  0  0  0  0
    4.2106   -1.1186    0.7092 C   0  0  0  0  0  0  0  0  0  0  0  0
    5.4401    0.3451   -0.6652 O   0  0  0  0  0  0  0  0  0  0  0  0
    5.8902    0.5174   -2.0137 C   0  0  0  0  0  0  0  0  0  0  0  0
    4.7140    0.5247   -2.9759 C   0  0  0  0  0  0  0  0  0  0  0  0
    4.0445   -0.7420   -2.9633 O   0  0  0  0  0  0  0  0  0  0  0  0
    0.9597    0.3215    1.7437 C   0  0  0  0  0  0  0  0  0  0  0  0
   -0.1285    0.8588    1.0475 C   0  0  0  0  0  0  0  0  0  0  0  0
   -1.3268    0.1618    1.0431 C   0  0  0  0  0  0  0  0  0  0  0  0
   -4.5870    0.8225   -1.3608 H   0  0  0  0  0  0  0  0  0  0  0  0
   -5.9724    1.6637    0.5520 H   0  0  0  0  0  0  0  0  0  0  0  0
   -4.9277    3.0901    0.7694 H   0  0  0  0  0  0  0  0  0  0  0  0
   -6.3369    4.0461   -1.0654 H   0  0  0  0  0  0  0  0  0  0  0  0
   -6.6945    2.4220   -1.7083 H   0  0  0  0  0  0  0  0  0  0  0  0
   -3.9299    3.8452   -1.6844 H   0  0  0  0  0  0  0  0  0  0  0  0
   -4.5357    2.7175   -2.9222 H   0  0  0  0  0  0  0  0  0  0  0  0
   -4.3989   -0.1406    1.2066 H   0  0  0  0  0  0  0  0  0  0  0  0
   -3.8434   -1.0234   -0.2299 H   0  0  0  0  0  0  0  0  0  0  0  0
   -2.8292   -2.5962    1.1451 H   0  0  0  0  0  0  0  0  0  0  0  0
   -3.3151   -1.6621    2.5917 H   0  0  0  0  0  0  0  0  0  0  0  0
   -0.4915   -2.5399    2.9584 H   0  0  0  0  0  0  0  0  0  0  0  0
    2.5712   -3.5690    2.2508 H   0  0  0  0  0  0  0  0  0  0  0  0
    1.9046   -3.4896   -0.1191 H   0  0  0  0  0  0  0  0  0  0  0  0
    2.4129   -2.6349   -2.3814 H   0  0  0  0  0  0  0  0  0  0  0  0
    4.7311   -0.6932    1.5632 H   0  0  0  0  0  0  0  0  0  0  0  0
    6.4274    1.4696   -2.0650 H   0  0  0  0  0  0  0  0  0  0  0  0
    6.5972   -0.2875   -2.2502 H   0  0  0  0  0  0  0  0  0  0  0  0
    3.9880    1.3059   -2.7182 H   0  0  0  0  0  0  0  0  0  0  0  0
    5.0618    0.7055   -3.9978 H   0  0  0  0  0  0  0  0  0  0  0  0
    1.9019    0.8666    1.7593 H   0  0  0  0  0  0  0  0  0  0  0  0
   -0.0131    1.8072    0.5333 H   0  0  0  0  0  0  0  0  0  0  0  0
  1  2  2  0
  2  3  1  0
  3  4  1  0
  4  5  1  0
  5  6  1  0
  2  7  1  0
  7  8  1  0
  8  9  1  0
  9 10  1  0
 10 11  2  0
 11 12  1  0
 12 13  1  0
 13 14  2  0
 13 15  2  0
 13 16  1  0
 16 17  1  0
 17 18  2  0
 18 19  1  0
 19 20  2  0
 20 21  1  0
 21 22  2  0
 21 23  1  0
 23 24  1  0
 24 25  1  0
 25 26  1  0
 12 27  2  0
 27 28  1  0
 28 29  2  0
  6  3  1  0
 29  7  1  0
 29 10  1  0
 22 17  1  0
 26 20  1  0
  3 30  1  0
  4 31  1  0
  4 32  1  0
  5 33  1  0
  5 34  1  0
  6 35  1  0
  6 36  1  0
  8 37  1  0
  8 38  1  0
  9 39  1  0
  9 40  1  0
 11 41  1  0
 16 42  1  0
 18 43  1  0
 19 44  1  0
 22 45  1  0
 24 46  1  0
 24 47  1  0
 25 48  1  0
 25 49  1  0
 27 50  1  0
 28 51  1  0
M  END
$$$$
