
     RDKit          3D

 53 52  0  0  0  0  0  0  0  0999 V2000
   -4.5584    0.6316    1.5116 C   0  0  0  0  0  0  0  0  0  0  0  0
   -5.2626    1.9112    1.0626 C   0  0  0  0  0  0  0  0  0  0  0  0
   -4.8586    3.0662    1.9853 C   0  0  0  0  0  0  0  0  0  0  0  0
   -4.9591    2.2927   -0.4005 C   0  0  0  0  0  0  0  0  0  0  0  0
   -5.4954    1.3125   -1.4478 C   0  0  0  0  0  0  0  0  0  0  0  0
   -4.6720    0.1334   -1.6130 N   0  0  0  0  0  0  0  0  0  0  0  0
   -3.4923    0.1572   -2.3257 C   0  0  0  0  0  0  0  0  0  0  0  0
   -3.0540    1.1597   -2.8785 O   0  0  0  0  0  0  0  0  0  0  0  0
   -2.7866   -1.1824   -2.3388 C   0  0  0  0  0  0  0  0  0  0  0  0
   -1.5253   -1.1224   -3.1899 C   0  0  0  0  0  0  0  0  0  0  0  0
   -0.6701   -2.7369   -3.2442 S   0  0  0  0  0  0  0  0  0  0  0  0
    0.1612   -2.7308   -1.6161 C   0  0  0  0  0  0  0  0  0  0  0  0
    1.4044   -1.8514   -1.6224 C   0  0  0  0  0  0  0  0  0  0  0  0
    2.0996   -1.8898   -0.2773 C   0  0  0  0  0  0  0  0  0  0  0  0
    1.6762   -2.5176    0.6868 O   0  0  0  0  0  0  0  0  0  0  0  0
    3.2510   -1.1281   -0.2472 N   0  0  0  0  0  0  0  0  0  0  0  0
    4.1189   -1.1447    0.9146 C   0  0  0  0  0  0  0  0  0  0  0  0
    5.0743    0.0463    0.9042 C   0  0  0  0  0  0  0  0  0  0  0  0
    5.9422    0.1453    2.1713 C   0  0  0  0  0  0  0  0  0  0  0  0
    6.8831   -1.0502    2.3270 C   0  0  0  0  0  0  0  0  0  0  0  0
    6.7545    1.4424    2.1454 C   0  0  0  0  0  0  0  0  0  0  0  0
   -4.9742   -0.2479    1.0126 H   0  0  0  0  0  0  0  0  0  0  0  0
   -4.6875    0.4732    2.5881 H   0  0  0  0  0  0  0  0  0  0  0  0
   -3.4839    0.6734    1.3039 H   0  0  0  0  0  0  0  0  0  0  0  0
   -6.3444    1.7630    1.1697 H   0  0  0  0  0  0  0  0  0  0  0  0
   -5.0975    2.8345    3.0292 H   0  0  0  0  0  0  0  0  0  0  0  0
   -3.7841    3.2696    1.9198 H   0  0  0  0  0  0  0  0  0  0  0  0
   -5.3949    3.9834    1.7192 H   0  0  0  0  0  0  0  0  0  0  0  0
   -3.8800    2.4412   -0.5312 H   0  0  0  0  0  0  0  0  0  0  0  0
   -5.4320    3.2640   -0.5976 H   0  0  0  0  0  0  0  0  0  0  0  0
   -5.5460    1.8192   -2.4188 H   0  0  0  0  0  0  0  0  0  0  0  0
   -6.5069    0.9795   -1.1921 H   0  0  0  0  0  0  0  0  0  0  0  0
   -4.9676   -0.7297   -1.1740 H   0  0  0  0  0  0  0  0  0  0  0  0
   -2.5511   -1.4416   -1.3007 H   0  0  0  0  0  0  0  0  0  0  0  0
   -3.4817   -1.9312   -2.7373 H   0  0  0  0  0  0  0  0  0  0  0  0
   -1.7890   -0.8644   -4.2218 H   0  0  0  0  0  0  0  0  0  0  0  0
   -0.8391   -0.3462   -2.8387 H   0  0  0  0  0  0  0  0  0  0  0  0
   -0.5432   -2.4268   -0.8364 H   0  0  0  0  0  0  0  0  0  0  0  0
    0.4439   -3.7667   -1.3974 H   0  0  0  0  0  0  0  0  0  0  0  0
    1.1490   -0.8074   -1.8337 H   0  0  0  0  0  0  0  0  0  0  0  0
    2.1140   -2.1989   -2.3827 H   0  0  0  0  0  0  0  0  0  0  0  0
    3.6531   -0.8512   -1.1342 H   0  0  0  0  0  0  0  0  0  0  0  0
    3.5015   -1.1367    1.8199 H   0  0  0  0  0  0  0  0  0  0  0  0
    4.6653   -2.0929    0.8866 H   0  0  0  0  0  0  0  0  0  0  0  0
    4.4851    0.9673    0.8017 H   0  0  0  0  0  0  0  0  0  0  0  0
    5.7147   -0.0063    0.0140 H   0  0  0  0  0  0  0  0  0  0  0  0
    5.2827    0.1797    3.0478 H   0  0  0  0  0  0  0  0  0  0  0  0
    7.5254   -1.1670    1.4475 H   0  0  0  0  0  0  0  0  0  0  0  0
    7.5292   -0.9239    3.2026 H   0  0  0  0  0  0  0  0  0  0  0  0
    6.3254   -1.9809    2.4686 H   0  0  0  0  0  0  0  0  0  0  0  0
    7.4375    1.4674    1.2892 H   0  0  0  0  0  0  0  0  0  0  0  0
    7.3509    1.5467    3.0582 H   0  0  0  0  0  0  0  0  0  0  0  0
    6.0944    2.3136    2.0786 H   0  0  0  0  0  0  0  0  0  0  0  0
  1  2  1  0
  2  3  1  0
  2  4  1  0
  4  5  1  0
  5  6  1  0
  6  7  1  0
  7  8  2  0
  7  9  1  0
  9 10  1  0
 10 11  1  0
 11 12  1  0
 12 13  1  0
 13 14  1  0
 14 15  2  0
 14 16  1  0
 16 17  1  0
 17 18  1  0
 18 19  1  0
 19 20  1  0
 19 21  1  0
  1 22  1  0
  1 23  1  0
  1 24  1  0
  2 25  1  0
  3 26  1  0
  3 27  1  0
  3 28  1  0
  4 29  1  0
  4 30  1  0
  5 31  1  0
  5 32  1  0
  6 33  1  0
  9 34  1  0
  9 35  1  0
 10 36  1  0
 10 37  1  0
 12 38  1  0
 12 39  1  0
 13 40  1  0
 13 41  1  0
 16 42  1  0
 17 43  1  0
 17 44  1  0
 18 45  1  0
 18 46  1  0
 19 47  1  0
 20 48  1  0
 20 49  1  0
 20 50  1  0
 21 51  1  0
 21 52  1  0
 21 53  1  0
M  END
$$$$
