
     RDKit          3D

 51 55  0  0  0  0  0  0  0  0999 V2000
    2.4839   -3.1772    1.0959 O   0  0  0  0  0  0  0  0  0  0  0  0
    1.5641   -2.9286    0.3185 C   0  0  0  0  0  0  0  0  0  0  0  0
    0.0910   -3.0380    0.7258 C   0  0  0  0  0  0  0  0  0  0  0  0
   -0.4659   -1.7097    1.0164 N   0  0  0  0  0  0  0  0  0  0  0  0
   -0.8018   -0.9090   -0.0770 C   0  0  0  0  0  0  0  0  0  0  0  0
   -0.7288   -1.3317   -1.2361 O   0  0  0  0  0  0  0  0  0  0  0  0
   -1.1023    0.5517    0.1886 C   0  0  0  0  0  0  0  0  0  0  0  0
   -2.5334    0.8306    0.6212 C   0  0  0  0  0  0  0  0  0  0  0  0
   -3.4565    1.0064   -0.5434 C   0  0  0  0  0  0  0  0  0  0  0  0
   -4.3383    2.0072   -0.9017 C   0  0  0  0  0  0  0  0  0  0  0  0
   -4.9156    1.6127   -2.1340 C   0  0  0  0  0  0  0  0  0  0  0  0
   -4.3537    0.3984   -2.4485 C   0  0  0  0  0  0  0  0  0  0  0  0
   -3.4715    0.0217   -1.4890 O   0  0  0  0  0  0  0  0  0  0  0  0
   -3.2487   -0.3781    1.7908 S   0  0  0  0  0  0  0  0  0  0  0  0
   -1.8255   -0.6761    2.8327 C   0  0  0  0  0  0  0  0  0  0  0  0
   -1.9707   -0.3546    4.1938 C   0  0  0  0  0  0  0  0  0  0  0  0
   -0.9693   -0.6664    5.1112 C   0  0  0  0  0  0  0  0  0  0  0  0
    0.1778   -1.3218    4.6805 C   0  0  0  0  0  0  0  0  0  0  0  0
    0.3269   -1.6604    3.3320 C   0  0  0  0  0  0  0  0  0  0  0  0
   -0.6594   -1.3356    2.3848 C   0  0  0  0  0  0  0  0  0  0  0  0
    1.7561   -2.4871   -0.9686 N   0  0  0  0  0  0  0  0  0  0  0  0
    3.0364   -2.0354   -1.4560 C   0  0  0  0  0  0  0  0  0  0  0  0
    2.9476   -0.5754   -1.8319 C   0  0  0  0  0  0  0  0  0  0  0  0
    2.8321   -0.1930   -3.1890 C   0  0  0  0  0  0  0  0  0  0  0  0
    2.6957    1.1519   -3.5486 C   0  0  0  0  0  0  0  0  0  0  0  0
    2.6662    2.0861   -2.5356 C   0  0  0  0  0  0  0  0  0  0  0  0
    2.7694    1.7253   -1.2125 C   0  0  0  0  0  0  0  0  0  0  0  0
    2.9129    0.4087   -0.8271 C   0  0  0  0  0  0  0  0  0  0  0  0
    2.7042    2.7968   -0.3766 O   0  0  0  0  0  0  0  0  0  0  0  0
    2.5506    3.8726   -1.3271 C   0  0  0  0  0  0  0  0  0  0  0  0
    2.5313    3.4295   -2.6997 O   0  0  0  0  0  0  0  0  0  0  0  0
   -0.0042   -3.7085    1.5859 H   0  0  0  0  0  0  0  0  0  0  0  0
   -0.4720   -3.5010   -0.0947 H   0  0  0  0  0  0  0  0  0  0  0  0
   -0.8484    1.1186   -0.7193 H   0  0  0  0  0  0  0  0  0  0  0  0
   -0.3950    0.9191    0.9458 H   0  0  0  0  0  0  0  0  0  0  0  0
   -2.5197    1.7895    1.1573 H   0  0  0  0  0  0  0  0  0  0  0  0
   -4.5394    2.9113   -0.3425 H   0  0  0  0  0  0  0  0  0  0  0  0
   -5.6496    2.1456   -2.7215 H   0  0  0  0  0  0  0  0  0  0  0  0
   -4.4665   -0.2903   -3.2761 H   0  0  0  0  0  0  0  0  0  0  0  0
   -2.8796    0.1230    4.5545 H   0  0  0  0  0  0  0  0  0  0  0  0
   -1.0936   -0.4130    6.1636 H   0  0  0  0  0  0  0  0  0  0  0  0
    0.9613   -1.5744    5.3919 H   0  0  0  0  0  0  0  0  0  0  0  0
    1.2491   -2.1566    3.0389 H   0  0  0  0  0  0  0  0  0  0  0  0
    0.9281   -2.1883   -1.4894 H   0  0  0  0  0  0  0  0  0  0  0  0
    3.2884   -2.6468   -2.3296 H   0  0  0  0  0  0  0  0  0  0  0  0
    3.8242   -2.1829   -0.7091 H   0  0  0  0  0  0  0  0  0  0  0  0
    2.8366   -0.9503   -3.9711 H   0  0  0  0  0  0  0  0  0  0  0  0
    2.6047    1.4505   -4.5873 H   0  0  0  0  0  0  0  0  0  0  0  0
    2.9824    0.1452    0.2230 H   0  0  0  0  0  0  0  0  0  0  0  0
    3.3792    4.5787   -1.1959 H   0  0  0  0  0  0  0  0  0  0  0  0
    1.6091    4.3932   -1.1137 H   0  0  0  0  0  0  0  0  0  0  0  0
  1  2  2  0
  2  3  1  0
  3  4  1  0
  4  5  1  0
  5  6  2  0
  5  7  1  0
  7  8  1  0
  8  9  1  0
  9 10  2  0
 10 11  1  0
 11 12  2  0
 12 13  1  0
  8 14  1  0
 14 15  1  0
 15 16  2  0
 16 17  1  0
 17 18  2  0
 18 19  1  0
 19 20  2  0
  2 21  1  0
 21 22  1  0
 22 23  1  0
 23 24  2  0
 24 25  1  0
 25 26  2  0
 26 27  1  0
 27 28  2  0
 27 29  1  0
 29 30  1  0
 30 31  1  0
 20  4  1  0
 28 23  1  0
 13  9  1  0
 20 15  1  0
 31 26  1  0
  3 32  1  0
  3 33  1  0
  7 34  1  0
  7 35  1  0
  8 36  1  0
 10 37  1  0
 11 38  1  0
 12 39  1  0
 16 40  1  0
 17 41  1  0
 18 42  1  0
 19 43  1  0
 21 44  1  0
 22 45  1  0
 22 46  1  0
 24 47  1  0
 25 48  1  0
 28 49  1  0
 30 50  1  0
 30 51  1  0
M  END
$$$$
