
     RDKit          3D

 35 36  0  0  0  0  0  0  0  0999 V2000
    2.9163   -2.0336    0.1267 C   0  0  0  0  0  0  0  0  0  0  0  0
    2.3939   -0.7260   -0.2798 N   0  0  0  0  0  0  0  0  0  0  0  0
    0.9638   -0.5923    0.0660 C   0  0  0  0  0  0  0  0  0  0  0  0
    0.0559   -1.3761   -0.8931 C   0  0  0  0  0  0  0  0  0  0  0  0
   -1.4186   -1.2638   -0.5034 C   0  0  0  0  0  0  0  0  0  0  0  0
   -1.8082    0.1074   -0.5192 O   0  0  0  0  0  0  0  0  0  0  0  0
   -3.0725    0.4216   -0.0974 C   0  0  0  0  0  0  0  0  0  0  0  0
   -4.0795   -0.5168    0.1524 C   0  0  0  0  0  0  0  0  0  0  0  0
   -5.3468   -0.0982    0.5723 C   0  0  0  0  0  0  0  0  0  0  0  0
   -5.6134    1.2586    0.7413 C   0  0  0  0  0  0  0  0  0  0  0  0
   -7.1743    1.7629    1.2588 Cl  0  0  0  0  0  0  0  0  0  0  0  0
   -4.6266    2.2064    0.4938 C   0  0  0  0  0  0  0  0  0  0  0  0
   -3.3618    1.7871    0.0745 C   0  0  0  0  0  0  0  0  0  0  0  0
   -2.1632    3.0017   -0.2124 Cl  0  0  0  0  0  0  0  0  0  0  0  0
    3.1605    0.3742    0.3368 C   0  0  0  0  0  0  0  0  0  0  0  0
    4.5640    0.4725   -0.1863 C   0  0  0  0  0  0  0  0  0  0  0  0
    5.2073    1.8170   -0.4201 C   0  0  0  0  0  0  0  0  0  0  0  0
    4.7001    1.0246   -1.5027 O   0  0  0  0  0  0  0  0  0  0  0  0
    2.8784   -2.1715    1.2133 H   0  0  0  0  0  0  0  0  0  0  0  0
    3.9518   -2.1673   -0.2015 H   0  0  0  0  0  0  0  0  0  0  0  0
    2.3595   -2.8518   -0.3396 H   0  0  0  0  0  0  0  0  0  0  0  0
    0.6710    0.4631   -0.0045 H   0  0  0  0  0  0  0  0  0  0  0  0
    0.7847   -0.8980    1.1050 H   0  0  0  0  0  0  0  0  0  0  0  0
    0.1913   -0.9799   -1.9074 H   0  0  0  0  0  0  0  0  0  0  0  0
    0.3208   -2.4377   -0.9146 H   0  0  0  0  0  0  0  0  0  0  0  0
   -1.5617   -1.6891    0.4976 H   0  0  0  0  0  0  0  0  0  0  0  0
   -2.0138   -1.8272   -1.2316 H   0  0  0  0  0  0  0  0  0  0  0  0
   -3.9155   -1.5818    0.0223 H   0  0  0  0  0  0  0  0  0  0  0  0
   -6.1216   -0.8374    0.7621 H   0  0  0  0  0  0  0  0  0  0  0  0
   -4.8372    3.2640    0.6253 H   0  0  0  0  0  0  0  0  0  0  0  0
    2.6575    1.3272    0.1271 H   0  0  0  0  0  0  0  0  0  0  0  0
    3.1866    0.2679    1.4288 H   0  0  0  0  0  0  0  0  0  0  0  0
    5.2062   -0.3479    0.0995 H   0  0  0  0  0  0  0  0  0  0  0  0
    4.6624    2.7168   -0.1650 H   0  0  0  0  0  0  0  0  0  0  0  0
    6.2828    1.8961   -0.3250 H   0  0  0  0  0  0  0  0  0  0  0  0
  1  2  1  0
  2  3  1  0
  3  4  1  0
  4  5  1  0
  5  6  1  0
  6  7  1  0
  7  8  2  0
  8  9  1  0
  9 10  2  0
 10 11  1  0
 10 12  1  0
 12 13  2  0
 13 14  1  0
  2 15  1  0
 15 16  1  0
 16 17  1  0
 17 18  1  0
 13  7  1  0
 18 16  1  0
  1 19  1  0
  1 20  1  0
  1 21  1  0
  3 22  1  0
  3 23  1  0
  4 24  1  0
  4 25  1  0
  5 26  1  0
  5 27  1  0
  8 28  1  0
  9 29  1  0
 12 30  1  0
 15 31  1  0
 15 32  1  0
 16 33  1  0
 17 34  1  0
 17 35  1  0
M  END
$$$$
