
     RDKit          3D

 33 33  0  0  0  0  0  0  0  0999 V2000
   -2.9337    1.6988   -2.1661 C   0  0  0  0  0  0  0  0  0  0  0  0
   -3.2261    1.1045   -0.8108 C   0  0  0  0  0  0  0  0  0  0  0  0
   -4.3743    1.0558   -0.3845 O   0  0  0  0  0  0  0  0  0  0  0  0
   -2.0825    0.6822   -0.1652 N   0  0  0  0  0  0  0  0  0  0  0  0
   -1.9656    0.1050    1.1200 C   0  0  0  0  0  0  0  0  0  0  0  0
   -3.0542   -0.1193    1.9653 C   0  0  0  0  0  0  0  0  0  0  0  0
   -2.8605   -0.6760    3.2311 C   0  0  0  0  0  0  0  0  0  0  0  0
   -1.5796   -1.0125    3.6593 C   0  0  0  0  0  0  0  0  0  0  0  0
   -0.4823   -0.7981    2.8234 C   0  0  0  0  0  0  0  0  0  0  0  0
   -0.6662   -0.2413    1.5534 C   0  0  0  0  0  0  0  0  0  0  0  0
    0.3435   -0.0132    0.6448 O   0  0  0  0  0  0  0  0  0  0  0  0
    1.6797   -0.1148    1.1332 C   0  0  0  0  0  0  0  0  0  0  0  0
    2.6801    0.2213    0.0275 C   0  0  0  0  0  0  0  0  0  0  0  0
    3.8200    0.6091    0.2657 O   0  0  0  0  0  0  0  0  0  0  0  0
    2.2195    0.0104   -1.2554 N   0  0  0  0  0  0  0  0  0  0  0  0
    3.1257    0.0938   -2.4011 C   0  0  0  0  0  0  0  0  0  0  0  0
    3.9361   -1.1756   -2.6778 C   0  0  0  0  0  0  0  0  0  0  0  0
    4.7060   -1.0210   -3.7787 F   0  0  0  0  0  0  0  0  0  0  0  0
    4.7416   -1.5155   -1.6523 F   0  0  0  0  0  0  0  0  0  0  0  0
    3.1047   -2.2207   -2.9108 F   0  0  0  0  0  0  0  0  0  0  0  0
   -2.0597    1.2285   -2.6258 H   0  0  0  0  0  0  0  0  0  0  0  0
   -3.7910    1.5342   -2.8253 H   0  0  0  0  0  0  0  0  0  0  0  0
   -2.7565    2.7720   -2.0582 H   0  0  0  0  0  0  0  0  0  0  0  0
   -1.1941    0.8135   -0.6349 H   0  0  0  0  0  0  0  0  0  0  0  0
   -4.0680    0.1328    1.6708 H   0  0  0  0  0  0  0  0  0  0  0  0
   -3.7156   -0.8441    3.8817 H   0  0  0  0  0  0  0  0  0  0  0  0
   -1.4359   -1.4463    4.6461 H   0  0  0  0  0  0  0  0  0  0  0  0
    0.4954   -1.0847    3.1954 H   0  0  0  0  0  0  0  0  0  0  0  0
    1.8993   -1.1398    1.4521 H   0  0  0  0  0  0  0  0  0  0  0  0
    1.8365    0.5986    1.9504 H   0  0  0  0  0  0  0  0  0  0  0  0
    1.3445   -0.4951   -1.3535 H   0  0  0  0  0  0  0  0  0  0  0  0
    3.8102    0.9350   -2.2480 H   0  0  0  0  0  0  0  0  0  0  0  0
    2.5029    0.3224   -3.2718 H   0  0  0  0  0  0  0  0  0  0  0  0
  1  2  1  0
  2  3  2  0
  2  4  1  0
  4  5  1  0
  5  6  2  0
  6  7  1  0
  7  8  2  0
  8  9  1  0
  9 10  2  0
 10 11  1  0
 11 12  1  0
 12 13  1  0
 13 14  2  0
 13 15  1  0
 15 16  1  0
 16 17  1  0
 17 18  1  0
 17 19  1  0
 17 20  1  0
 10  5  1  0
  1 21  1  0
  1 22  1  0
  1 23  1  0
  4 24  1  0
  6 25  1  0
  7 26  1  0
  8 27  1  0
  9 28  1  0
 12 29  1  0
 12 30  1  0
 15 31  1  0
 16 32  1  0
 16 33  1  0
M  END
$$$$
