
     RDKit          3D

 48 49  0  0  0  0  0  0  0  0999 V2000
   -7.5042   -1.2895    1.9448 C   0  0  0  0  0  0  0  0  0  0  0  0
   -6.8144   -0.4398    0.9183 C   0  0  0  0  0  0  0  0  0  0  0  0
   -7.5548    0.3210    0.0151 C   0  0  0  0  0  0  0  0  0  0  0  0
   -6.9054    1.0830   -0.9545 C   0  0  0  0  0  0  0  0  0  0  0  0
   -5.5028    1.0918   -1.0483 C   0  0  0  0  0  0  0  0  0  0  0  0
   -4.8688    1.9383   -2.1200 C   0  0  0  0  0  0  0  0  0  0  0  0
   -4.7437    0.3124   -0.1477 C   0  0  0  0  0  0  0  0  0  0  0  0
   -3.3324    0.3267   -0.2589 N   0  0  0  0  0  0  0  0  0  0  0  0
   -2.4058   -0.3665    0.5023 C   0  0  0  0  0  0  0  0  0  0  0  0
   -2.6336   -1.1388    1.4256 O   0  0  0  0  0  0  0  0  0  0  0  0
   -0.9881   -0.0588    0.0580 C   0  0  0  0  0  0  0  0  0  0  0  0
    0.0382   -0.8470    0.8629 C   0  0  0  0  0  0  0  0  0  0  0  0
    1.4507   -0.5518    0.4043 C   0  0  0  0  0  0  0  0  0  0  0  0
    1.7009    0.2321   -0.5069 O   0  0  0  0  0  0  0  0  0  0  0  0
    2.3906   -1.2723    1.1430 N   0  0  0  0  0  0  0  0  0  0  0  0
    3.7284   -1.3341    0.8433 N   0  0  0  0  0  0  0  0  0  0  0  0
    4.3054   -0.2393    0.4513 C   0  0  0  0  0  0  0  0  0  0  0  0
    5.7274   -0.2293    0.0445 C   0  0  0  0  0  0  0  0  0  0  0  0
    6.2838    0.9888   -0.3599 C   0  0  0  0  0  0  0  0  0  0  0  0
    7.6290    1.0299   -0.7564 C   0  0  0  0  0  0  0  0  0  0  0  0
    8.2221    2.3061   -1.1759 N   0  0  0  0  0  4  0  0  0  0  0  0
    9.3764    2.2862   -1.6241 O   0  0  0  0  0  0  0  0  0  0  0  0
    7.5310    3.3272   -1.0526 O   0  0  0  0  0  1  0  0  0  0  0  0
    8.4150   -0.1309   -0.7526 C   0  0  0  0  0  0  0  0  0  0  0  0
    7.8496   -1.3420   -0.3493 C   0  0  0  0  0  0  0  0  0  0  0  0
    6.5137   -1.3895    0.0459 C   0  0  0  0  0  0  0  0  0  0  0  0
    6.0363   -2.6145    0.4222 O   0  0  0  0  0  0  0  0  0  0  0  0
   -5.4141   -0.4468    0.8213 C   0  0  0  0  0  0  0  0  0  0  0  0
   -6.9087   -1.3553    2.8615 H   0  0  0  0  0  0  0  0  0  0  0  0
   -7.6621   -2.2982    1.5504 H   0  0  0  0  0  0  0  0  0  0  0  0
   -8.4746   -0.8621    2.2191 H   0  0  0  0  0  0  0  0  0  0  0  0
   -8.6415    0.3266    0.0596 H   0  0  0  0  0  0  0  0  0  0  0  0
   -7.5072    1.6714   -1.6446 H   0  0  0  0  0  0  0  0  0  0  0  0
   -5.6195    2.4739   -2.7108 H   0  0  0  0  0  0  0  0  0  0  0  0
   -4.2105    2.6892   -1.6712 H   0  0  0  0  0  0  0  0  0  0  0  0
   -4.2961    1.3106   -2.8101 H   0  0  0  0  0  0  0  0  0  0  0  0
   -2.9519    0.9120   -0.9901 H   0  0  0  0  0  0  0  0  0  0  0  0
   -0.8138    1.0174    0.1774 H   0  0  0  0  0  0  0  0  0  0  0  0
   -0.8973   -0.3013   -1.0081 H   0  0  0  0  0  0  0  0  0  0  0  0
   -0.0406   -0.5948    1.9271 H   0  0  0  0  0  0  0  0  0  0  0  0
   -0.1440   -1.9230    0.7535 H   0  0  0  0  0  0  0  0  0  0  0  0
    2.0501   -2.0811    1.6577 H   0  0  0  0  0  0  0  0  0  0  0  0
    3.7836    0.7335    0.4257 H   0  0  0  0  0  0  0  0  0  0  0  0
    5.6744    1.8903   -0.3697 H   0  0  0  0  0  0  0  0  0  0  0  0
    9.4593   -0.1111   -1.0586 H   0  0  0  0  0  0  0  0  0  0  0  0
    8.4474   -2.2510   -0.3462 H   0  0  0  0  0  0  0  0  0  0  0  0
    5.0884   -2.5025    0.6556 H   0  0  0  0  0  0  0  0  0  0  0  0
   -4.8659   -1.0643    1.5261 H   0  0  0  0  0  0  0  0  0  0  0  0
  1  2  1  0
  2  3  2  0
  3  4  1  0
  4  5  2  0
  5  6  1  0
  5  7  1  0
  7  8  1  0
  8  9  1  0
  9 10  2  0
  9 11  1  0
 11 12  1  0
 12 13  1  0
 13 14  2  0
 13 15  1  0
 15 16  1  0
 16 17  2  3
 17 18  1  0
 18 19  2  0
 19 20  1  0
 20 21  1  0
 21 22  2  0
 21 23  1  0
 20 24  2  0
 24 25  1  0
 25 26  2  0
 26 27  1  0
  7 28  2  0
 28  2  1  0
 26 18  1  0
  1 29  1  0
  1 30  1  0
  1 31  1  0
  3 32  1  0
  4 33  1  0
  6 34  1  0
  6 35  1  0
  6 36  1  0
  8 37  1  0
 11 38  1  0
 11 39  1  0
 12 40  1  0
 12 41  1  0
 15 42  1  0
 17 43  1  0
 19 44  1  0
 24 45  1  0
 25 46  1  0
 27 47  1  0
 28 48  1  0
M  CHG  2  21   1  23  -1
M  END
$$$$
