
     RDKit          3D

 46 48  0  0  0  0  0  0  0  0999 V2000
    2.6288   -0.7704   -4.3028 C   0  0  0  0  0  0  0  0  0  0  0  0
    1.6620   -0.0783   -3.3549 C   0  0  0  0  0  0  0  0  0  0  0  0
    2.1384   -0.0211   -1.8796 N   0  0  0  0  0  4  0  0  0  0  0  0
    2.3535   -1.4349   -1.3409 C   0  0  0  0  0  0  0  0  0  0  0  0
    3.4285    0.7809   -1.7666 C   0  0  0  0  0  0  0  0  0  0  0  0
    0.9879    0.6757   -1.0927 C   0  0  0  0  0  0  0  0  0  0  0  0
    1.3102    0.9876    0.3782 C   0  0  0  0  0  0  0  0  0  0  0  0
    0.0809    1.4241    1.1346 C   0  0  0  0  0  0  0  0  0  0  0  0
   -0.9400    0.6639    1.5961 C   0  0  0  0  0  0  0  0  0  0  0  0
   -2.1472    1.3767    2.0959 C   0  0  0  0  0  0  0  0  0  0  0  0
   -2.0698    2.3911    3.0615 C   0  0  0  0  0  0  0  0  0  0  0  0
   -3.2279    3.0345    3.5014 C   0  0  0  0  0  0  0  0  0  0  0  0
   -4.4702    2.6675    2.9875 C   0  0  0  0  0  0  0  0  0  0  0  0
   -4.5621    1.6480    2.0388 C   0  0  0  0  0  0  0  0  0  0  0  0
   -3.4084    0.9909    1.5967 C   0  0  0  0  0  0  0  0  0  0  0  0
   -3.5802   -0.3255    0.3867 S   0  0  0  0  0  0  0  0  0  0  0  0
   -2.1715   -1.3504    0.8079 C   0  0  0  0  0  0  0  0  0  0  0  0
   -2.2516   -2.7274    0.5645 C   0  0  0  0  0  0  0  0  0  0  0  0
   -1.1917   -3.5665    0.9127 C   0  0  0  0  0  0  0  0  0  0  0  0
   -0.0630   -3.0316    1.5267 C   0  0  0  0  0  0  0  0  0  0  0  0
    1.2513   -4.0566    1.9472 Cl  0  0  0  0  0  0  0  0  0  0  0  0
    0.0266   -1.6635    1.7812 C   0  0  0  0  0  0  0  0  0  0  0  0
   -1.0050   -0.8044    1.3813 C   0  0  0  0  0  0  0  0  0  0  0  0
    2.7835   -1.8208   -4.0432 H   0  0  0  0  0  0  0  0  0  0  0  0
    2.2144   -0.7515   -5.3169 H   0  0  0  0  0  0  0  0  0  0  0  0
    3.5993   -0.2700   -4.3464 H   0  0  0  0  0  0  0  0  0  0  0  0
    1.5008    0.9568   -3.6777 H   0  0  0  0  0  0  0  0  0  0  0  0
    0.6981   -0.6006   -3.3585 H   0  0  0  0  0  0  0  0  0  0  0  0
    1.4237   -1.9975   -1.4621 H   0  0  0  0  0  0  0  0  0  0  0  0
    2.6376   -1.3779   -0.2885 H   0  0  0  0  0  0  0  0  0  0  0  0
    3.1684   -1.9050   -1.8965 H   0  0  0  0  0  0  0  0  0  0  0  0
    3.7327    0.8156   -0.7174 H   0  0  0  0  0  0  0  0  0  0  0  0
    4.2115    0.2801   -2.3405 H   0  0  0  0  0  0  0  0  0  0  0  0
    3.2451    1.7875   -2.1522 H   0  0  0  0  0  0  0  0  0  0  0  0
    0.7656    1.6101   -1.6234 H   0  0  0  0  0  0  0  0  0  0  0  0
    0.1174    0.0164   -1.1853 H   0  0  0  0  0  0  0  0  0  0  0  0
    1.7963    0.1568    0.8892 H   0  0  0  0  0  0  0  0  0  0  0  0
    2.0305    1.8140    0.4240 H   0  0  0  0  0  0  0  0  0  0  0  0
    0.0077    2.5087    1.2432 H   0  0  0  0  0  0  0  0  0  0  0  0
   -1.1134    2.6814    3.4896 H   0  0  0  0  0  0  0  0  0  0  0  0
   -3.1634    3.8197    4.2517 H   0  0  0  0  0  0  0  0  0  0  0  0
   -5.3714    3.1692    3.3335 H   0  0  0  0  0  0  0  0  0  0  0  0
   -5.5413    1.3667    1.6573 H   0  0  0  0  0  0  0  0  0  0  0  0
   -3.1468   -3.1589    0.1193 H   0  0  0  0  0  0  0  0  0  0  0  0
   -1.2672   -4.6355    0.7257 H   0  0  0  0  0  0  0  0  0  0  0  0
    0.8914   -1.2756    2.3132 H   0  0  0  0  0  0  0  0  0  0  0  0
  1  2  1  0
  2  3  1  0
  3  4  1  0
  3  5  1  0
  3  6  1  0
  6  7  1  0
  7  8  1  0
  8  9  2  3
  9 10  1  0
 10 11  2  0
 11 12  1  0
 12 13  2  0
 13 14  1  0
 14 15  2  0
 15 16  1  0
 16 17  1  0
 17 18  2  0
 18 19  1  0
 19 20  2  0
 20 21  1  0
 20 22  1  0
 22 23  2  0
 23  9  1  0
 15 10  1  0
 23 17  1  0
  1 24  1  0
  1 25  1  0
  1 26  1  0
  2 27  1  0
  2 28  1  0
  4 29  1  0
  4 30  1  0
  4 31  1  0
  5 32  1  0
  5 33  1  0
  5 34  1  0
  6 35  1  0
  6 36  1  0
  7 37  1  0
  7 38  1  0
  8 39  1  0
 11 40  1  0
 12 41  1  0
 13 42  1  0
 14 43  1  0
 18 44  1  0
 19 45  1  0
 22 46  1  0
M  CHG  1   3   1
M  END
$$$$
