
     RDKit          3D

 35 36  0  0  0  0  0  0  0  0999 V2000
    3.2416    2.5083   -0.7811 C   0  0  0  0  0  0  0  0  0  0  0  0
    3.0268    1.1122   -0.9954 O   0  0  0  0  0  0  0  0  0  0  0  0
    3.3834    0.3953    0.1161 C   0  0  0  0  0  0  0  0  0  0  0  0
    4.7361    0.1083    0.3225 C   0  0  0  0  0  0  0  0  0  0  0  0
    5.1259   -0.6802    1.4060 C   0  0  0  0  0  0  0  0  0  0  0  0
    4.1659   -1.1974    2.2755 C   0  0  0  0  0  0  0  0  0  0  0  0
    2.8121   -0.9306    2.0600 C   0  0  0  0  0  0  0  0  0  0  0  0
    2.4138   -0.1379    0.9725 C   0  0  0  0  0  0  0  0  0  0  0  0
    0.9788    0.1581    0.7643 C   0  0  0  0  0  0  0  0  0  0  0  0
    0.5279    1.2499    0.4626 O   0  0  0  0  0  0  0  0  0  0  0  0
    0.2646   -0.9808    0.9611 O   0  0  0  0  0  0  0  0  0  0  0  0
   -1.1551   -0.8535    0.7751 C   0  0  0  0  0  0  0  0  0  0  0  0
   -1.5135   -0.9660   -0.7060 C   0  0  0  0  0  0  0  0  0  0  0  0
   -3.0014   -0.8975   -0.9309 C   0  0  0  0  0  0  0  0  0  0  0  0
   -3.7667   -2.0684   -1.0074 C   0  0  0  0  0  0  0  0  0  0  0  0
   -5.1480   -1.9977   -1.1954 C   0  0  0  0  0  0  0  0  0  0  0  0
   -5.7758   -0.7581   -1.3042 C   0  0  0  0  0  0  0  0  0  0  0  0
   -5.0236    0.4124   -1.2245 C   0  0  0  0  0  0  0  0  0  0  0  0
   -3.6425    0.3441   -1.0369 C   0  0  0  0  0  0  0  0  0  0  0  0
    2.7995    2.8499    0.1617 H   0  0  0  0  0  0  0  0  0  0  0  0
    2.7583    3.0507   -1.5991 H   0  0  0  0  0  0  0  0  0  0  0  0
    4.3112    2.7423   -0.8041 H   0  0  0  0  0  0  0  0  0  0  0  0
    5.4853    0.4863   -0.3680 H   0  0  0  0  0  0  0  0  0  0  0  0
    6.1790   -0.8996    1.5659 H   0  0  0  0  0  0  0  0  0  0  0  0
    4.4711   -1.8137    3.1180 H   0  0  0  0  0  0  0  0  0  0  0  0
    2.0720   -1.3397    2.7439 H   0  0  0  0  0  0  0  0  0  0  0  0
   -1.5219    0.0803    1.2198 H   0  0  0  0  0  0  0  0  0  0  0  0
   -1.6204   -1.6697    1.3397 H   0  0  0  0  0  0  0  0  0  0  0  0
   -1.0170   -0.1770   -1.2845 H   0  0  0  0  0  0  0  0  0  0  0  0
   -1.1117   -1.9030   -1.1129 H   0  0  0  0  0  0  0  0  0  0  0  0
   -3.2916   -3.0432   -0.9230 H   0  0  0  0  0  0  0  0  0  0  0  0
   -5.7346   -2.9105   -1.2572 H   0  0  0  0  0  0  0  0  0  0  0  0
   -6.8511   -0.7040   -1.4512 H   0  0  0  0  0  0  0  0  0  0  0  0
   -5.5118    1.3797   -1.3086 H   0  0  0  0  0  0  0  0  0  0  0  0
   -3.0665    1.2657   -0.9744 H   0  0  0  0  0  0  0  0  0  0  0  0
  1  2  1  0
  2  3  1  0
  3  4  2  0
  4  5  1  0
  5  6  2  0
  6  7  1  0
  7  8  2  0
  8  9  1  0
  9 10  2  0
  9 11  1  0
 11 12  1  0
 12 13  1  0
 13 14  1  0
 14 15  2  0
 15 16  1  0
 16 17  2  0
 17 18  1  0
 18 19  2  0
  8  3  1  0
 19 14  1  0
  1 20  1  0
  1 21  1  0
  1 22  1  0
  4 23  1  0
  5 24  1  0
  6 25  1  0
  7 26  1  0
 12 27  1  0
 12 28  1  0
 13 29  1  0
 13 30  1  0
 15 31  1  0
 16 32  1  0
 17 33  1  0
 18 34  1  0
 19 35  1  0
M  END
$$$$
