
     RDKit          3D

 40 42  0  0  0  0  0  0  0  0999 V2000
   -6.5699    0.5420   -1.1978 C   0  0  0  0  0  0  0  0  0  0  0  0
   -6.8058   -0.3831    0.3078 S   0  0  0  0  0  6  0  0  0  0  0  0
   -7.9312    0.2033    1.0051 O   0  0  0  0  0  0  0  0  0  0  0  0
   -6.7718   -1.7941   -0.0032 O   0  0  0  0  0  0  0  0  0  0  0  0
   -5.4524    0.0410    1.2118 N   0  0  0  0  0  0  0  0  0  0  0  0
   -4.1359   -0.1948    0.7256 C   0  0  0  0  0  0  0  0  0  0  0  0
   -3.7250   -1.4467    0.2685 C   0  0  0  0  0  0  0  0  0  0  0  0
   -2.4180   -1.6328   -0.1921 C   0  0  0  0  0  0  0  0  0  0  0  0
   -1.5058   -0.5725   -0.1693 C   0  0  0  0  0  0  0  0  0  0  0  0
   -0.1246   -0.8077   -0.6739 C   0  0  0  0  0  0  0  0  0  0  0  0
    0.0174   -1.5463   -1.6399 O   0  0  0  0  0  0  0  0  0  0  0  0
    0.8696   -0.1710    0.0458 N   0  0  0  0  0  0  0  0  0  0  0  0
    2.2554   -0.1756   -0.2217 C   0  0  0  0  0  0  0  0  0  0  0  0
    2.8311   -0.7731   -1.3461 C   0  0  0  0  0  0  0  0  0  0  0  0
    4.2167   -0.7355   -1.5410 C   0  0  0  0  0  0  0  0  0  0  0  0
    5.0346   -0.1005   -0.6124 C   0  0  0  0  0  0  0  0  0  0  0  0
    4.4656    0.5261    0.4977 C   0  0  0  0  0  0  0  0  0  0  0  0
    3.0855    0.4770    0.6995 C   0  0  0  0  0  0  0  0  0  0  0  0
    5.2009    1.2028    1.4384 O   0  0  0  0  0  0  0  0  0  0  0  0
    6.5266    1.4744    0.9672 C   0  0  0  0  0  0  0  0  0  0  0  0
    7.1282    0.2423    0.3114 C   0  0  0  0  0  0  0  0  0  0  0  0
    6.3831   -0.1220   -0.8559 O   0  0  0  0  0  0  0  0  0  0  0  0
   -1.9137    0.6828    0.2973 C   0  0  0  0  0  0  0  0  0  0  0  0
   -3.2242    0.8652    0.7516 C   0  0  0  0  0  0  0  0  0  0  0  0
   -7.4610    0.4062   -1.8149 H   0  0  0  0  0  0  0  0  0  0  0  0
   -5.6964    0.1587   -1.7272 H   0  0  0  0  0  0  0  0  0  0  0  0
   -6.4512    1.5985   -0.9500 H   0  0  0  0  0  0  0  0  0  0  0  0
   -5.6131    0.8788    1.7702 H   0  0  0  0  0  0  0  0  0  0  0  0
   -4.4010   -2.2984    0.2741 H   0  0  0  0  0  0  0  0  0  0  0  0
   -2.1113   -2.6110   -0.5595 H   0  0  0  0  0  0  0  0  0  0  0  0
    0.5930    0.2937    0.9008 H   0  0  0  0  0  0  0  0  0  0  0  0
    2.2297   -1.2807   -2.0942 H   0  0  0  0  0  0  0  0  0  0  0  0
    4.6524   -1.2132   -2.4144 H   0  0  0  0  0  0  0  0  0  0  0  0
    2.6734    0.9612    1.5799 H   0  0  0  0  0  0  0  0  0  0  0  0
    6.4812    2.3192    0.2688 H   0  0  0  0  0  0  0  0  0  0  0  0
    7.1291    1.7765    1.8295 H   0  0  0  0  0  0  0  0  0  0  0  0
    8.1573    0.4443   -0.0015 H   0  0  0  0  0  0  0  0  0  0  0  0
    7.1411   -0.6129    0.9985 H   0  0  0  0  0  0  0  0  0  0  0  0
   -1.2347    1.5317    0.2868 H   0  0  0  0  0  0  0  0  0  0  0  0
   -3.5249    1.8464    1.1102 H   0  0  0  0  0  0  0  0  0  0  0  0
  1  2  1  0
  2  3  2  0
  2  4  2  0
  2  5  1  0
  5  6  1  0
  6  7  2  0
  7  8  1  0
  8  9  2  0
  9 10  1  0
 10 11  2  0
 10 12  1  0
 12 13  1  0
 13 14  2  0
 14 15  1  0
 15 16  2  0
 16 17  1  0
 17 18  2  0
 17 19  1  0
 19 20  1  0
 20 21  1  0
 21 22  1  0
  9 23  1  0
 23 24  2  0
 24  6  1  0
 18 13  1  0
 22 16  1  0
  1 25  1  0
  1 26  1  0
  1 27  1  0
  5 28  1  0
  7 29  1  0
  8 30  1  0
 12 31  1  0
 14 32  1  0
 15 33  1  0
 18 34  1  0
 20 35  1  0
 20 36  1  0
 21 37  1  0
 21 38  1  0
 23 39  1  0
 24 40  1  0
M  END
$$$$
