
     RDKit          3D

 55 60  0  0  0  0  0  0  0  0999 V2000
   -5.1244   -1.3210    0.4398 O   0  0  0  0  0  0  0  0  0  0  0  0
   -4.4681   -0.3153    0.1727 C   0  0  0  0  0  0  0  0  0  0  0  0
   -5.1162    0.8502   -0.4074 C   0  0  0  0  0  0  0  0  0  0  0  0
   -4.6669    1.7738   -1.3979 C   0  0  0  0  0  0  0  0  0  0  0  0
   -5.6983    2.6583   -1.6087 C   0  0  0  0  0  0  0  0  0  0  0  0
   -6.7648    2.3328   -0.8362 O   0  0  0  0  0  0  0  0  0  0  0  0
   -6.4162    1.2266   -0.1313 C   0  0  0  0  0  0  0  0  0  0  0  0
   -3.0867   -0.2729    0.3820 N   0  0  0  0  0  0  0  0  0  0  0  0
   -2.3266    0.9367    0.6572 C   0  0  0  0  0  0  0  0  0  0  0  0
   -1.0098    0.9516   -0.1194 C   0  0  0  0  0  0  0  0  0  0  0  0
   -0.3355   -0.4540   -0.2252 C   0  0  0  0  0  0  0  0  0  0  0  0
   -0.9160   -1.3977    0.8558 C   0  0  0  0  0  0  0  0  0  0  0  0
   -2.4369   -1.5260    0.7395 C   0  0  0  0  0  0  0  0  0  0  0  0
   -0.7654   -0.9387   -1.5277 O   0  0  0  0  0  0  0  0  0  0  0  0
   -0.0429   -1.9331   -2.1136 C   0  0  0  0  0  0  0  0  0  0  0  0
   -0.6362   -2.5517   -3.2157 C   0  0  0  0  0  0  0  0  0  0  0  0
    0.0213   -3.5954   -3.8693 C   0  0  0  0  0  0  0  0  0  0  0  0
    1.2693   -4.0112   -3.4170 C   0  0  0  0  0  0  0  0  0  0  0  0
    1.8950   -5.0155   -4.0433 F   0  0  0  0  0  0  0  0  0  0  0  0
    1.8763   -3.3993   -2.3285 C   0  0  0  0  0  0  0  0  0  0  0  0
    1.2142   -2.3491   -1.6871 C   0  0  0  0  0  0  0  0  0  0  0  0
    1.8303   -1.6678   -0.5419 C   0  0  0  0  0  0  0  0  0  0  0  0
    2.7787   -2.1907    0.0378 O   0  0  0  0  0  0  0  0  0  0  0  0
    1.2114   -0.3330   -0.1443 C   0  0  0  0  0  0  0  0  0  0  0  0
    1.7459    0.1385    1.2019 C   0  0  0  0  0  0  0  0  0  0  0  0
    2.8107    1.0633    0.7189 C   0  0  0  0  0  0  0  0  0  0  0  0
    3.8372    1.6251    1.6288 C   0  0  0  0  0  0  0  0  0  0  0  0
    4.8353    2.4510    1.0960 C   0  0  0  0  0  0  0  0  0  0  0  0
    5.8135    3.0001    1.9271 C   0  0  0  0  0  0  0  0  0  0  0  0
    5.7994    2.7280    3.2936 C   0  0  0  0  0  0  0  0  0  0  0  0
    4.8082    1.9076    3.8308 C   0  0  0  0  0  0  0  0  0  0  0  0
    3.8269    1.3561    3.0023 C   0  0  0  0  0  0  0  0  0  0  0  0
    2.7414    1.3620   -0.5394 N   0  0  0  0  0  0  0  0  0  0  0  0
    1.6602    0.6462   -1.0955 O   0  0  0  0  0  0  0  0  0  0  0  0
   -3.7132    1.7814   -1.9068 H   0  0  0  0  0  0  0  0  0  0  0  0
   -5.8314    3.5176   -2.2515 H   0  0  0  0  0  0  0  0  0  0  0  0
   -7.1819    0.8239    0.5182 H   0  0  0  0  0  0  0  0  0  0  0  0
   -2.8936    1.8493    0.4666 H   0  0  0  0  0  0  0  0  0  0  0  0
   -2.1240    0.9441    1.7363 H   0  0  0  0  0  0  0  0  0  0  0  0
   -0.3583    1.6890    0.3611 H   0  0  0  0  0  0  0  0  0  0  0  0
   -1.2070    1.3364   -1.1290 H   0  0  0  0  0  0  0  0  0  0  0  0
   -0.6663   -1.0176    1.8541 H   0  0  0  0  0  0  0  0  0  0  0  0
   -0.4859   -2.4036    0.7907 H   0  0  0  0  0  0  0  0  0  0  0  0
   -2.8517   -1.8767    1.6923 H   0  0  0  0  0  0  0  0  0  0  0  0
   -2.7012   -2.2712   -0.0208 H   0  0  0  0  0  0  0  0  0  0  0  0
   -1.6146   -2.2264   -3.5619 H   0  0  0  0  0  0  0  0  0  0  0  0
   -0.4320   -4.0868   -4.7249 H   0  0  0  0  0  0  0  0  0  0  0  0
    2.8546   -3.7355   -1.9978 H   0  0  0  0  0  0  0  0  0  0  0  0
    2.1365   -0.6627    1.8333 H   0  0  0  0  0  0  0  0  0  0  0  0
    1.0236    0.7233    1.7786 H   0  0  0  0  0  0  0  0  0  0  0  0
    4.8603    2.6702    0.0302 H   0  0  0  0  0  0  0  0  0  0  0  0
    6.5866    3.6379    1.5057 H   0  0  0  0  0  0  0  0  0  0  0  0
    6.5630    3.1542    3.9399 H   0  0  0  0  0  0  0  0  0  0  0  0
    4.8018    1.6956    4.8974 H   0  0  0  0  0  0  0  0  0  0  0  0
    3.0705    0.7221    3.4538 H   0  0  0  0  0  0  0  0  0  0  0  0
  1  2  2  0
  2  3  1  0
  3  4  1  0
  4  5  2  0
  5  6  1  0
  6  7  1  0
  2  8  1  0
  8  9  1  0
  9 10  1  0
 10 11  1  0
 11 12  1  0
 12 13  1  0
 11 14  1  0
 14 15  1  0
 15 16  2  0
 16 17  1  0
 17 18  2  0
 18 19  1  0
 18 20  1  0
 20 21  2  0
 21 22  1  0
 22 23  2  0
 22 24  1  0
 24 25  1  0
 25 26  1  0
 26 27  1  0
 27 28  2  0
 28 29  1  0
 29 30  2  0
 30 31  1  0
 31 32  2  0
 26 33  2  0
 33 34  1  0
  7  3  2  0
 13  8  1  0
 21 15  1  0
 34 24  1  0
 24 11  1  0
 32 27  1  0
  4 35  1  0
  5 36  1  0
  7 37  1  0
  9 38  1  0
  9 39  1  0
 10 40  1  0
 10 41  1  0
 12 42  1  0
 12 43  1  0
 13 44  1  0
 13 45  1  0
 16 46  1  0
 17 47  1  0
 20 48  1  0
 25 49  1  0
 25 50  1  0
 28 51  1  0
 29 52  1  0
 30 53  1  0
 31 54  1  0
 32 55  1  0
M  END
$$$$
