
     RDKit          3D

 72 77  0  0  0  0  0  0  0  0999 V2000
  -10.5363    0.2891   -0.5293 C   0  0  0  0  0  0  0  0  0  0  0  0
   -9.2953    0.0511    0.2776 C   0  0  0  0  0  0  0  0  0  0  0  0
   -9.1154   -1.1436    0.9718 C   0  0  0  0  0  0  0  0  0  0  0  0
   -7.9387   -1.3704    1.6895 C   0  0  0  0  0  0  0  0  0  0  0  0
   -6.9122   -0.4119    1.7257 C   0  0  0  0  0  0  0  0  0  0  0  0
   -5.6786   -0.7123    2.5312 C   0  0  0  0  0  0  0  0  0  0  0  0
   -7.0788    0.7990    1.0217 C   0  0  0  0  0  0  0  0  0  0  0  0
   -6.0330    1.8950    1.0111 C   0  0  0  0  0  0  0  0  0  0  0  0
   -5.3407    1.9822   -0.2610 N   0  0  0  0  0  0  0  0  0  0  0  0
   -5.8515    2.7204   -1.2797 N   0  0  0  0  0  0  0  0  0  0  0  0
   -4.9884    2.6719   -2.2939 N   0  0  0  0  0  0  0  0  0  0  0  0
   -3.9262    1.9305   -1.8824 C   0  0  0  0  0  0  0  0  0  0  0  0
   -2.7007    1.5933   -2.5528 C   0  0  0  0  0  0  0  0  0  0  0  0
   -2.3866    1.9199   -3.6903 O   0  0  0  0  0  0  0  0  0  0  0  0
   -1.8547    0.8443   -1.7463 N   0  0  0  0  0  0  0  0  0  0  0  0
   -2.1423    0.4774   -0.4368 C   0  0  0  0  0  0  0  0  0  0  0  0
   -1.0659   -0.3062    0.3010 C   0  0  0  0  0  0  0  0  0  0  0  0
    0.1981    0.5431    0.4818 C   0  0  0  0  0  0  0  0  0  0  0  0
    1.3001   -0.2546    1.1733 C   0  0  0  0  0  0  0  0  0  0  0  0
    1.5834   -1.4802    0.3746 N   0  0  0  0  0  0  0  0  0  0  0  0
    3.0032   -2.3248    0.8467 S   0  0  0  0  0  6  0  0  0  0  0  0
    3.1438   -3.4824   -0.0104 O   0  0  0  0  0  0  0  0  0  0  0  0
    2.9720   -2.4559    2.2870 O   0  0  0  0  0  0  0  0  0  0  0  0
    4.3018   -1.1916    0.4088 C   0  0  0  0  0  0  0  0  0  0  0  0
    4.6202   -1.0205   -0.9444 C   0  0  0  0  0  0  0  0  0  0  0  0
    5.6742   -0.1785   -1.3034 C   0  0  0  0  0  0  0  0  0  0  0  0
    6.4025    0.4777   -0.3048 C   0  0  0  0  0  0  0  0  0  0  0  0
    7.7629    1.5314   -0.7478 S   0  0  0  0  0  6  0  0  0  0  0  0
    7.8792    1.5482   -2.1904 O   0  0  0  0  0  0  0  0  0  0  0  0
    7.6346    2.7487    0.0245 O   0  0  0  0  0  0  0  0  0  0  0  0
    9.0689    0.6758   -0.0895 N   0  0  0  0  0  0  0  0  0  0  0  0
    9.9347   -0.0287   -1.0373 C   0  0  0  0  0  0  0  0  0  0  0  0
   11.2335    0.5595   -1.5105 C   0  0  0  0  0  0  0  0  0  0  0  0
   11.2393   -0.6159   -0.5731 C   0  0  0  0  0  0  0  0  0  0  0  0
    6.0789    0.3138    1.0476 C   0  0  0  0  0  0  0  0  0  0  0  0
    5.0297   -0.5349    1.4069 C   0  0  0  0  0  0  0  0  0  0  0  0
    0.3845   -2.3675    0.3112 C   0  0  0  0  0  0  0  0  0  0  0  0
   -0.7413   -1.6270   -0.4056 C   0  0  0  0  0  0  0  0  0  0  0  0
   -3.2524    0.7780    0.1797 N   0  0  0  0  0  0  0  0  0  0  0  0
   -4.1065    1.4964   -0.5909 C   0  0  0  0  0  0  0  0  0  0  0  0
   -8.2728    1.0066    0.2996 C   0  0  0  0  0  0  0  0  0  0  0  0
  -11.3789   -0.2858   -0.1337 H   0  0  0  0  0  0  0  0  0  0  0  0
  -10.8213    1.3459   -0.4990 H   0  0  0  0  0  0  0  0  0  0  0  0
  -10.3698   -0.0050   -1.5695 H   0  0  0  0  0  0  0  0  0  0  0  0
   -9.8876   -1.9092    0.9566 H   0  0  0  0  0  0  0  0  0  0  0  0
   -7.8295   -2.3115    2.2252 H   0  0  0  0  0  0  0  0  0  0  0  0
   -4.7866   -0.6736    1.9021 H   0  0  0  0  0  0  0  0  0  0  0  0
   -5.5805    0.0027    3.3540 H   0  0  0  0  0  0  0  0  0  0  0  0
   -5.7195   -1.7142    2.9710 H   0  0  0  0  0  0  0  0  0  0  0  0
   -5.2818    1.7671    1.7957 H   0  0  0  0  0  0  0  0  0  0  0  0
   -6.5074    2.8664    1.1992 H   0  0  0  0  0  0  0  0  0  0  0  0
   -0.9754    0.6023   -2.1780 H   0  0  0  0  0  0  0  0  0  0  0  0
   -1.4619   -0.5442    1.2989 H   0  0  0  0  0  0  0  0  0  0  0  0
   -0.0353    1.4388    1.0699 H   0  0  0  0  0  0  0  0  0  0  0  0
    0.5670    0.8964   -0.4890 H   0  0  0  0  0  0  0  0  0  0  0  0
    2.1904    0.3774    1.2374 H   0  0  0  0  0  0  0  0  0  0  0  0
    0.9935   -0.5242    2.1908 H   0  0  0  0  0  0  0  0  0  0  0  0
    4.0612   -1.5490   -1.7144 H   0  0  0  0  0  0  0  0  0  0  0  0
    5.9296   -0.0543   -2.3546 H   0  0  0  0  0  0  0  0  0  0  0  0
    9.5457    1.2449    0.6104 H   0  0  0  0  0  0  0  0  0  0  0  0
    9.3727   -0.6339   -1.7454 H   0  0  0  0  0  0  0  0  0  0  0  0
   11.4977    0.3971   -2.5494 H   0  0  0  0  0  0  0  0  0  0  0  0
   11.5324    1.5272   -1.1271 H   0  0  0  0  0  0  0  0  0  0  0  0
   11.5509   -0.4497    0.4508 H   0  0  0  0  0  0  0  0  0  0  0  0
   11.5194   -1.5875   -0.9671 H   0  0  0  0  0  0  0  0  0  0  0  0
    6.6491    0.8265    1.8191 H   0  0  0  0  0  0  0  0  0  0  0  0
    4.7966   -0.6847    2.4580 H   0  0  0  0  0  0  0  0  0  0  0  0
    0.0743   -2.6600    1.3215 H   0  0  0  0  0  0  0  0  0  0  0  0
    0.6106   -3.2756   -0.2574 H   0  0  0  0  0  0  0  0  0  0  0  0
   -0.4412   -1.4471   -1.4456 H   0  0  0  0  0  0  0  0  0  0  0  0
   -1.6351   -2.2608   -0.4436 H   0  0  0  0  0  0  0  0  0  0  0  0
   -8.4068    1.9309   -0.2621 H   0  0  0  0  0  0  0  0  0  0  0  0
  1  2  1  0
  2  3  2  0
  3  4  1  0
  4  5  2  0
  5  6  1  0
  5  7  1  0
  7  8  1  0
  8  9  1  0
  9 10  1  0
 10 11  2  0
 11 12  1  0
 12 13  1  0
 13 14  2  0
 13 15  1  0
 15 16  1  0
 16 17  1  0
 17 18  1  0
 18 19  1  0
 19 20  1  0
 20 21  1  0
 21 22  2  0
 21 23  2  0
 21 24  1  0
 24 25  2  0
 25 26  1  0
 26 27  2  0
 27 28  1  0
 28 29  2  0
 28 30  2  0
 28 31  1  0
 31 32  1  0
 32 33  1  0
 33 34  1  0
 27 35  1  0
 35 36  2  0
 20 37  1  0
 37 38  1  0
 16 39  2  0
 39 40  1  0
  7 41  2  0
 41  2  1  0
 40  9  1  0
 40 12  2  0
 38 17  1  0
 36 24  1  0
 34 32  1  0
  1 42  1  0
  1 43  1  0
  1 44  1  0
  3 45  1  0
  4 46  1  0
  6 47  1  0
  6 48  1  0
  6 49  1  0
  8 50  1  0
  8 51  1  0
 15 52  1  0
 17 53  1  0
 18 54  1  0
 18 55  1  0
 19 56  1  0
 19 57  1  0
 25 58  1  0
 26 59  1  0
 31 60  1  0
 32 61  1  0
 33 62  1  0
 33 63  1  0
 34 64  1  0
 34 65  1  0
 35 66  1  0
 36 67  1  0
 37 68  1  0
 37 69  1  0
 38 70  1  0
 38 71  1  0
 41 72  1  0
M  END
$$$$
