
     RDKit          3D

 46 48  0  0  0  0  0  0  0  0999 V2000
    9.2642   -0.7561    0.9649 C   0  0  0  0  0  0  0  0  0  0  0  0
    7.9138   -0.4565    1.5841 C   0  0  0  0  0  0  0  0  0  0  0  0
    6.9447   -0.3954    0.5304 O   0  0  0  0  0  0  0  0  0  0  0  0
    5.6779   -0.1539    0.9554 C   0  0  0  0  0  0  0  0  0  0  0  0
    5.3356    0.0052    2.1162 O   0  0  0  0  0  0  0  0  0  0  0  0
    4.7422   -0.1146   -0.2033 C   0  0  0  0  0  0  0  0  0  0  0  0
    5.2012   -0.0553   -1.5257 C   0  0  0  0  0  0  0  0  0  0  0  0
    4.2886   -0.0015   -2.5769 C   0  0  0  0  0  0  0  0  0  0  0  0
    2.9178   -0.0078   -2.3118 C   0  0  0  0  0  0  0  0  0  0  0  0
    2.4417   -0.0751   -0.9960 C   0  0  0  0  0  0  0  0  0  0  0  0
    1.0411   -0.0737   -0.8215 N   0  0  0  0  0  0  0  0  0  0  0  0
    0.3461   -0.2551    0.3604 C   0  0  0  0  0  0  0  0  0  0  0  0
    0.8215   -0.5411    1.4526 O   0  0  0  0  0  0  0  0  0  0  0  0
   -1.1357   -0.1322    0.2502 C   0  0  0  0  0  0  0  0  0  0  0  0
   -1.7448    0.7642   -0.6340 C   0  0  0  0  0  0  0  0  0  0  0  0
   -3.1423    0.8588   -0.6922 C   0  0  0  0  0  0  0  0  0  0  0  0
   -3.9454    0.0728    0.1373 C   0  0  0  0  0  0  0  0  0  0  0  0
   -5.3553    0.1189    0.1568 N   0  0  0  0  0  0  0  0  0  0  0  0
   -6.1959    0.9186   -0.6081 C   0  0  0  0  0  0  0  0  0  0  0  0
   -5.8052    1.7066   -1.4642 O   0  0  0  0  0  0  0  0  0  0  0  0
   -7.6122    0.7424   -0.3061 C   0  0  0  0  0  0  0  0  0  0  0  0
   -8.3253   -0.1704    0.4567 C   0  0  0  0  0  0  0  0  0  0  0  0
   -9.6936    0.1900    0.3620 C   0  0  0  0  0  0  0  0  0  0  0  0
   -9.7422    1.2960   -0.4494 C   0  0  0  0  0  0  0  0  0  0  0  0
   -8.4968    1.6333   -0.8624 O   0  0  0  0  0  0  0  0  0  0  0  0
   -3.3278   -0.8145    1.0287 C   0  0  0  0  0  0  0  0  0  0  0  0
   -1.9342   -0.9140    1.0895 C   0  0  0  0  0  0  0  0  0  0  0  0
    3.3615   -0.1224    0.0548 C   0  0  0  0  0  0  0  0  0  0  0  0
    9.5179   -0.0064    0.2084 H   0  0  0  0  0  0  0  0  0  0  0  0
   10.0501   -0.7699    1.7258 H   0  0  0  0  0  0  0  0  0  0  0  0
    9.2458   -1.7270    0.4588 H   0  0  0  0  0  0  0  0  0  0  0  0
    7.9513    0.5054    2.1081 H   0  0  0  0  0  0  0  0  0  0  0  0
    7.6470   -1.2510    2.2898 H   0  0  0  0  0  0  0  0  0  0  0  0
    6.2655   -0.0431   -1.7483 H   0  0  0  0  0  0  0  0  0  0  0  0
    4.6443    0.0494   -3.6033 H   0  0  0  0  0  0  0  0  0  0  0  0
    2.2286    0.0365   -3.1513 H   0  0  0  0  0  0  0  0  0  0  0  0
    0.4930   -0.0075   -1.6692 H   0  0  0  0  0  0  0  0  0  0  0  0
   -1.1557    1.4267   -1.2625 H   0  0  0  0  0  0  0  0  0  0  0  0
   -3.5682    1.5746   -1.3896 H   0  0  0  0  0  0  0  0  0  0  0  0
   -5.7980   -0.4787    0.8388 H   0  0  0  0  0  0  0  0  0  0  0  0
   -7.9247   -1.0066    1.0122 H   0  0  0  0  0  0  0  0  0  0  0  0
  -10.5389   -0.2969    0.8257 H   0  0  0  0  0  0  0  0  0  0  0  0
  -10.5418    1.9253   -0.8168 H   0  0  0  0  0  0  0  0  0  0  0  0
   -3.9167   -1.4374    1.6974 H   0  0  0  0  0  0  0  0  0  0  0  0
   -1.4725   -1.6007    1.7971 H   0  0  0  0  0  0  0  0  0  0  0  0
    3.0316   -0.1595    1.0896 H   0  0  0  0  0  0  0  0  0  0  0  0
  1  2  1  0
  2  3  1  0
  3  4  1  0
  4  5  2  0
  4  6  1  0
  6  7  2  0
  7  8  1  0
  8  9  2  0
  9 10  1  0
 10 11  1  0
 11 12  1  0
 12 13  2  0
 12 14  1  0
 14 15  2  0
 15 16  1  0
 16 17  2  0
 17 18  1  0
 18 19  1  0
 19 20  2  0
 19 21  1  0
 21 22  2  0
 22 23  1  0
 23 24  2  0
 24 25  1  0
 17 26  1  0
 26 27  2  0
 10 28  2  0
 28  6  1  0
 27 14  1  0
 25 21  1  0
  1 29  1  0
  1 30  1  0
  1 31  1  0
  2 32  1  0
  2 33  1  0
  7 34  1  0
  8 35  1  0
  9 36  1  0
 11 37  1  0
 15 38  1  0
 16 39  1  0
 18 40  1  0
 22 41  1  0
 23 42  1  0
 24 43  1  0
 26 44  1  0
 27 45  1  0
 28 46  1  0
M  END
$$$$
