
     RDKit          3D

 60 62  0  0  0  0  0  0  0  0999 V2000
   -5.3898    3.2675   -2.8801 C   0  0  0  0  0  0  0  0  0  0  0  0
   -4.2475    3.1738   -1.9090 C   0  0  0  0  0  0  0  0  0  0  0  0
   -4.2548    2.2075   -0.8996 C   0  0  0  0  0  0  0  0  0  0  0  0
   -3.2044    2.1396    0.0147 C   0  0  0  0  0  0  0  0  0  0  0  0
   -2.1330    3.0418   -0.0683 C   0  0  0  0  0  0  0  0  0  0  0  0
   -0.8380    2.8792    1.1467 S   0  0  0  0  0  6  0  0  0  0  0  0
   -0.3526    4.2005    1.4840 O   0  0  0  0  0  0  0  0  0  0  0  0
   -1.2834    1.9805    2.1911 O   0  0  0  0  0  0  0  0  0  0  0  0
    0.4034    2.1354    0.2718 N   0  0  0  0  0  0  0  0  0  0  0  0
    0.3439    0.7246    0.0507 C   0  0  0  0  0  0  0  0  0  0  0  0
    0.6253   -0.1254    1.1255 C   0  0  0  0  0  0  0  0  0  0  0  0
    0.5943   -1.5182    0.9780 C   0  0  0  0  0  0  0  0  0  0  0  0
    0.9387   -2.3829    2.1910 C   0  0  0  0  0  0  0  0  0  0  0  0
    2.4179   -2.3721    2.5244 C   0  0  0  0  0  0  0  0  0  0  0  0
    2.8364   -2.4122    3.6777 O   0  0  0  0  0  0  0  0  0  0  0  0
    3.2037   -2.3160    1.4124 O   0  0  0  0  0  0  0  0  0  0  0  0
    4.6259   -2.3230    1.6294 C   0  0  0  0  0  0  0  0  0  0  0  0
    5.1221   -3.7612    1.6861 C   0  0  0  0  0  0  0  0  0  0  0  0
    5.2644   -1.5801    0.4587 C   0  0  0  0  0  0  0  0  0  0  0  0
    0.4145   -3.8051    2.1801 C   0  0  0  0  0  0  0  0  0  0  0  0
    1.1714   -4.7799    2.0785 O   0  0  0  0  0  0  0  0  0  0  0  0
   -1.0781   -3.9523    2.4039 C   0  0  0  0  0  0  0  0  0  0  0  0
   -1.8013   -2.8786    1.9918 F   0  0  0  0  0  0  0  0  0  0  0  0
   -1.3647   -4.0978    3.7266 F   0  0  0  0  0  0  0  0  0  0  0  0
   -1.6109   -5.0350    1.7787 F   0  0  0  0  0  0  0  0  0  0  0  0
    0.2982   -2.0295   -0.2913 C   0  0  0  0  0  0  0  0  0  0  0  0
    0.3175   -3.3918   -0.4237 O   0  0  0  0  0  0  0  0  0  0  0  0
   -0.0065   -1.1982   -1.4012 C   0  0  0  0  0  0  0  0  0  0  0  0
   -0.3732   -1.7047   -2.6722 C   0  0  0  0  0  0  0  0  0  0  0  0
   -0.6435   -0.8612   -3.7517 C   0  0  0  0  0  0  0  0  0  0  0  0
   -0.5531    0.5112   -3.5911 C   0  0  0  0  0  0  0  0  0  0  0  0
   -0.2126    1.0370   -2.3457 C   0  0  0  0  0  0  0  0  0  0  0  0
    0.0424    0.2070   -1.2291 C   0  0  0  0  0  0  0  0  0  0  0  0
   -2.1118    4.0349   -1.0675 C   0  0  0  0  0  0  0  0  0  0  0  0
   -1.0190    5.0593   -1.2070 C   0  0  0  0  0  0  0  0  0  0  0  0
   -3.1878    4.0913   -1.9704 C   0  0  0  0  0  0  0  0  0  0  0  0
   -5.8695    2.2873   -3.0151 H   0  0  0  0  0  0  0  0  0  0  0  0
   -5.0364    3.5945   -3.8651 H   0  0  0  0  0  0  0  0  0  0  0  0
   -6.1388    3.9811   -2.5129 H   0  0  0  0  0  0  0  0  0  0  0  0
   -5.0791    1.5033   -0.8152 H   0  0  0  0  0  0  0  0  0  0  0  0
   -3.2314    1.3746    0.7901 H   0  0  0  0  0  0  0  0  0  0  0  0
    1.3116    2.5526    0.4663 H   0  0  0  0  0  0  0  0  0  0  0  0
    0.8602    0.3091    2.0962 H   0  0  0  0  0  0  0  0  0  0  0  0
    0.4522   -1.9022    3.0548 H   0  0  0  0  0  0  0  0  0  0  0  0
    4.8803   -1.7899    2.5560 H   0  0  0  0  0  0  0  0  0  0  0  0
    6.2003   -3.7953    1.8555 H   0  0  0  0  0  0  0  0  0  0  0  0
    4.6295   -4.3180    2.4881 H   0  0  0  0  0  0  0  0  0  0  0  0
    4.8967   -4.2862    0.7536 H   0  0  0  0  0  0  0  0  0  0  0  0
    4.8866   -0.5513    0.4079 H   0  0  0  0  0  0  0  0  0  0  0  0
    5.0070   -2.0572   -0.4970 H   0  0  0  0  0  0  0  0  0  0  0  0
    6.3574   -1.5481    0.5526 H   0  0  0  0  0  0  0  0  0  0  0  0
    0.6537   -3.6119   -1.3094 H   0  0  0  0  0  0  0  0  0  0  0  0
   -0.4774   -2.7745   -2.8385 H   0  0  0  0  0  0  0  0  0  0  0  0
   -0.9282   -1.2782   -4.7152 H   0  0  0  0  0  0  0  0  0  0  0  0
   -0.7585    1.1757   -4.4267 H   0  0  0  0  0  0  0  0  0  0  0  0
   -0.1537    2.1183   -2.2529 H   0  0  0  0  0  0  0  0  0  0  0  0
   -1.1376    5.8483   -0.4563 H   0  0  0  0  0  0  0  0  0  0  0  0
   -1.0478    5.5337   -2.1942 H   0  0  0  0  0  0  0  0  0  0  0  0
   -0.0270    4.6041   -1.1136 H   0  0  0  0  0  0  0  0  0  0  0  0
   -3.2039    4.8645   -2.7393 H   0  0  0  0  0  0  0  0  0  0  0  0
  1  2  1  0
  2  3  2  0
  3  4  1  0
  4  5  2  0
  5  6  1  0
  6  7  2  0
  6  8  2  0
  6  9  1  0
  9 10  1  0
 10 11  2  0
 11 12  1  0
 12 13  1  0
 13 14  1  0
 14 15  2  0
 14 16  1  0
 16 17  1  0
 17 18  1  0
 17 19  1  0
 13 20  1  0
 20 21  2  0
 20 22  1  0
 22 23  1  0
 22 24  1  0
 22 25  1  0
 12 26  2  0
 26 27  1  0
 26 28  1  0
 28 29  2  0
 29 30  1  0
 30 31  2  0
 31 32  1  0
 32 33  2  0
  5 34  1  0
 34 35  1  0
 34 36  2  0
 36  2  1  0
 33 10  1  0
 33 28  1  0
  1 37  1  0
  1 38  1  0
  1 39  1  0
  3 40  1  0
  4 41  1  0
  9 42  1  0
 11 43  1  0
 13 44  1  0
 17 45  1  0
 18 46  1  0
 18 47  1  0
 18 48  1  0
 19 49  1  0
 19 50  1  0
 19 51  1  0
 27 52  1  0
 29 53  1  0
 30 54  1  0
 31 55  1  0
 32 56  1  0
 35 57  1  0
 35 58  1  0
 35 59  1  0
 36 60  1  0
M  END
$$$$
