
     RDKit          3D

 53 56  0  0  0  0  0  0  0  0999 V2000
   -8.2445    3.1661   -1.4995 C   0  0  0  0  0  0  0  0  0  0  0  0
   -7.0394    2.7952   -0.8401 O   0  0  0  0  0  0  0  0  0  0  0  0
   -6.8405    1.4602   -0.6166 C   0  0  0  0  0  0  0  0  0  0  0  0
   -7.7033    0.4299   -0.9896 C   0  0  0  0  0  0  0  0  0  0  0  0
   -7.3754   -0.8957   -0.6994 C   0  0  0  0  0  0  0  0  0  0  0  0
   -6.1849   -1.1945   -0.0366 C   0  0  0  0  0  0  0  0  0  0  0  0
   -5.3097   -0.1690    0.3439 C   0  0  0  0  0  0  0  0  0  0  0  0
   -4.0444   -0.5404    1.0491 C   0  0  0  0  0  0  0  0  0  0  0  0
   -3.7967   -1.7312    1.2336 O   0  0  0  0  0  0  0  0  0  0  0  0
   -3.1049    0.5817    1.4972 C   0  0  0  0  0  0  0  0  0  0  0  0
   -1.9747    0.1631    2.2504 O   0  0  0  0  0  0  0  0  0  0  0  0
   -0.8476   -0.1965    1.5688 C   0  0  0  0  0  0  0  0  0  0  0  0
   -0.7819   -0.5671    0.2280 C   0  0  0  0  0  0  0  0  0  0  0  0
    0.4462   -0.9274   -0.3504 C   0  0  0  0  0  0  0  0  0  0  0  0
    1.6322   -0.9315    0.3977 C   0  0  0  0  0  0  0  0  0  0  0  0
    2.9562   -1.2895   -0.1529 C   0  0  0  0  0  0  0  0  0  0  0  0
    3.0022   -1.6691   -1.6114 C   0  0  0  0  0  0  0  0  0  0  0  0
    4.0395   -1.2449    0.6574 C   0  0  0  0  0  0  0  0  0  0  0  0
    5.4624   -1.5645    0.2414 C   0  0  0  0  0  0  0  0  0  0  0  0
    6.2631   -0.3386   -0.1498 C   0  0  0  0  0  0  0  0  0  0  0  0
    6.2802    0.1194   -1.4752 C   0  0  0  0  0  0  0  0  0  0  0  0
    7.0075    1.2592   -1.8252 C   0  0  0  0  0  0  0  0  0  0  0  0
    7.7249    1.9556   -0.8554 C   0  0  0  0  0  0  0  0  0  0  0  0
    7.7166    1.5125    0.4648 C   0  0  0  0  0  0  0  0  0  0  0  0
    6.9906    0.3729    0.8157 C   0  0  0  0  0  0  0  0  0  0  0  0
    3.9078   -0.9147    2.1077 C   0  0  0  0  0  0  0  0  0  0  0  0
    4.8607   -0.9701    2.8792 O   0  0  0  0  0  0  0  0  0  0  0  0
    2.6567   -0.5510    2.5709 O   0  0  0  0  0  0  0  0  0  0  0  0
    1.5327   -0.5685    1.7353 C   0  0  0  0  0  0  0  0  0  0  0  0
    0.3194   -0.2101    2.3275 C   0  0  0  0  0  0  0  0  0  0  0  0
   -5.6464    1.1574    0.0490 C   0  0  0  0  0  0  0  0  0  0  0  0
   -8.2520    4.2562   -1.5934 H   0  0  0  0  0  0  0  0  0  0  0  0
   -9.1214    2.8761   -0.9113 H   0  0  0  0  0  0  0  0  0  0  0  0
   -8.2871    2.7443   -2.5091 H   0  0  0  0  0  0  0  0  0  0  0  0
   -8.6379    0.6224   -1.5065 H   0  0  0  0  0  0  0  0  0  0  0  0
   -8.0488   -1.6992   -0.9894 H   0  0  0  0  0  0  0  0  0  0  0  0
   -5.9450   -2.2339    0.1831 H   0  0  0  0  0  0  0  0  0  0  0  0
   -2.7983    1.1888    0.6371 H   0  0  0  0  0  0  0  0  0  0  0  0
   -3.6783    1.2297    2.1700 H   0  0  0  0  0  0  0  0  0  0  0  0
   -1.6686   -0.6148   -0.3954 H   0  0  0  0  0  0  0  0  0  0  0  0
    0.4388   -1.2113   -1.3995 H   0  0  0  0  0  0  0  0  0  0  0  0
    2.3524   -2.5300   -1.8053 H   0  0  0  0  0  0  0  0  0  0  0  0
    3.9932   -1.9558   -1.9648 H   0  0  0  0  0  0  0  0  0  0  0  0
    2.6771   -0.8307   -2.2373 H   0  0  0  0  0  0  0  0  0  0  0  0
    5.4872   -2.2851   -0.5838 H   0  0  0  0  0  0  0  0  0  0  0  0
    5.9902   -2.0999    1.0421 H   0  0  0  0  0  0  0  0  0  0  0  0
    5.7321   -0.4081   -2.2506 H   0  0  0  0  0  0  0  0  0  0  0  0
    7.0143    1.6037   -2.8559 H   0  0  0  0  0  0  0  0  0  0  0  0
    8.2901    2.8429   -1.1274 H   0  0  0  0  0  0  0  0  0  0  0  0
    8.2739    2.0534    1.2251 H   0  0  0  0  0  0  0  0  0  0  0  0
    6.9967    0.0440    1.8538 H   0  0  0  0  0  0  0  0  0  0  0  0
    0.2878    0.0588    3.3798 H   0  0  0  0  0  0  0  0  0  0  0  0
   -5.0010    1.9865    0.3235 H   0  0  0  0  0  0  0  0  0  0  0  0
  1  2  1  0
  2  3  1  0
  3  4  2  0
  4  5  1  0
  5  6  2  0
  6  7  1  0
  7  8  1  0
  8  9  2  0
  8 10  1  0
 10 11  1  0
 11 12  1  0
 12 13  2  0
 13 14  1  0
 14 15  2  0
 15 16  1  0
 16 17  1  0
 16 18  2  0
 18 19  1  0
 19 20  1  0
 20 21  2  0
 21 22  1  0
 22 23  2  0
 23 24  1  0
 24 25  2  0
 18 26  1  0
 26 27  2  0
 26 28  1  0
 28 29  1  0
 29 30  2  0
  7 31  2  0
 31  3  1  0
 30 12  1  0
 29 15  1  0
 25 20  1  0
  1 32  1  0
  1 33  1  0
  1 34  1  0
  4 35  1  0
  5 36  1  0
  6 37  1  0
 10 38  1  0
 10 39  1  0
 13 40  1  0
 14 41  1  0
 17 42  1  0
 17 43  1  0
 17 44  1  0
 19 45  1  0
 19 46  1  0
 21 47  1  0
 22 48  1  0
 23 49  1  0
 24 50  1  0
 25 51  1  0
 30 52  1  0
 31 53  1  0
M  END
$$$$
