
     RDKit          3D

 88 91  0  0  0  0  0  0  0  0999 V2000
   -7.3539   -2.0006    1.2909 C   0  0  0  0  0  0  0  0  0  0  0  0
   -6.0652   -1.9844    1.8922 O   0  0  0  0  0  0  0  0  0  0  0  0
   -5.0108   -2.2884    0.9559 C   0  0  2  0  0  0  0  0  0  0  0  0
   -3.9223   -3.0303    1.7020 C   0  0  0  0  0  0  0  0  0  0  0  0
   -4.3598   -4.1413    2.6161 C   0  0  0  0  0  0  0  0  0  0  0  0
   -2.6189   -2.7442    1.5257 C   0  0  0  0  0  0  0  0  0  0  0  0
   -2.0832   -1.7037    0.5470 C   0  0  0  0  0  0  0  0  0  0  0  0
   -0.9021   -2.3220   -0.2093 C   0  0  0  0  0  0  0  0  0  0  0  0
   -0.7283   -3.5154   -0.4268 O   0  0  0  0  0  0  0  0  0  0  0  0
   -0.0144   -1.3485   -0.5641 O   0  0  0  0  0  0  0  0  0  0  0  0
    1.2182   -1.7732   -1.1901 C   0  0  1  0  0  0  0  0  0  0  0  0
    1.7838   -0.5754   -1.9374 C   0  0  0  0  0  0  0  0  0  0  0  0
    2.2869    0.5168   -0.9802 C   0  0  1  0  0  0  0  0  0  0  0  0
    1.1417    1.4601   -0.5616 C   0  0  0  0  0  0  0  0  0  0  0  0
    1.6069    2.7377    0.0914 C   0  0  0  0  0  0  0  0  0  0  0  0
    0.9890    3.9359    0.0444 C   0  0  0  0  0  0  0  0  0  0  0  0
    1.5607    5.1098    0.7988 C   0  0  0  0  0  0  0  0  0  0  0  0
   -0.2844    4.2238   -0.7341 C   0  0  0  0  0  0  0  0  0  0  0  0
   -1.5701    4.3088    0.1248 C   0  0  1  0  0  0  0  0  0  0  0  0
   -2.7609    4.7898   -0.7110 C   0  0  0  0  0  0  0  0  0  0  0  0
   -1.9076    3.0665    0.9286 C   0  0  0  0  0  0  0  0  0  0  0  0
   -2.2554    1.8219    0.5531 C   0  0  0  0  0  0  0  0  0  0  0  0
   -2.3592    1.3153   -0.7949 C   0  0  0  0  0  0  0  0  0  0  0  0
   -2.6964    0.0867   -1.2568 C   0  0  0  0  0  0  0  0  0  0  0  0
   -2.5658   -0.1756   -2.7601 C   0  0  0  0  0  0  0  0  0  0  0  0
   -2.0070    0.9173   -3.4781 O   0  0  0  0  0  0  0  0  0  0  0  0
   -3.1630   -1.1518   -0.4323 C   0  0  1  0  0  0  0  0  0  0  0  0
   -3.4533   -2.2058   -1.3954 O   0  0  0  0  0  0  0  0  0  0  0  0
   -4.5090   -0.9434    0.3476 C   0  0  2  0  0  0  0  0  0  0  0  0
   -4.4299    0.0205    1.4084 O   0  0  0  0  0  0  0  0  0  0  0  0
    2.8757    0.0023    0.2223 O   0  0  0  0  0  0  0  0  0  0  0  0
    3.3626   -1.3329    0.1527 C   0  0  2  0  0  0  0  0  0  0  0  0
    3.9665   -1.6984    1.5196 C   0  0  0  0  0  0  0  0  0  0  0  0
    5.2341   -0.9016    1.8089 C   0  0  0  0  0  0  0  0  0  0  0  0
    6.2281   -1.0399    0.6511 C   0  0  2  0  0  0  0  0  0  0  0  0
    7.4655   -0.1840    0.9204 C   0  0  0  0  0  0  0  0  0  0  0  0
    5.5277   -0.6843   -0.6734 C   0  0  1  0  0  0  0  0  0  0  0  0
    6.4123   -0.9240   -1.8935 C   0  0  0  0  0  0  0  0  0  0  0  0
    4.3614   -1.5000   -0.8586 O   0  0  0  0  0  0  0  0  0  0  0  0
    2.1966   -2.2982   -0.1344 C   0  0  0  0  0  0  0  0  0  0  0  0
   -8.0936   -1.7509    2.0540 H   0  0  0  0  0  0  0  0  0  0  0  0
   -7.4168   -1.2597    0.4900 H   0  0  0  0  0  0  0  0  0  0  0  0
   -7.5775   -2.9974    0.9014 H   0  0  0  0  0  0  0  0  0  0  0  0
   -5.3859   -2.9561    0.1673 H   0  0  0  0  0  0  0  0  0  0  0  0
   -3.5090   -4.6876    3.0381 H   0  0  0  0  0  0  0  0  0  0  0  0
   -4.9756   -4.8612    2.0676 H   0  0  0  0  0  0  0  0  0  0  0  0
   -4.9424   -3.7483    3.4547 H   0  0  0  0  0  0  0  0  0  0  0  0
   -1.8680   -3.2973    2.0888 H   0  0  0  0  0  0  0  0  0  0  0  0
   -1.6737   -0.9075    1.1794 H   0  0  0  0  0  0  0  0  0  0  0  0
    0.9846   -2.5601   -1.9167 H   0  0  0  0  0  0  0  0  0  0  0  0
    1.0410   -0.1627   -2.6303 H   0  0  0  0  0  0  0  0  0  0  0  0
    2.6199   -0.9168   -2.5597 H   0  0  0  0  0  0  0  0  0  0  0  0
    3.0512    1.1053   -1.5025 H   0  0  0  0  0  0  0  0  0  0  0  0
    0.5365    1.6825   -1.4422 H   0  0  0  0  0  0  0  0  0  0  0  0
    0.5168    0.9498    0.1776 H   0  0  0  0  0  0  0  0  0  0  0  0
    2.5011    2.6322    0.7064 H   0  0  0  0  0  0  0  0  0  0  0  0
    0.8579    5.4576    1.5622 H   0  0  0  0  0  0  0  0  0  0  0  0
    1.7704    5.9375    0.1138 H   0  0  0  0  0  0  0  0  0  0  0  0
    2.4981    4.8569    1.3063 H   0  0  0  0  0  0  0  0  0  0  0  0
   -0.4208    3.5095   -1.5495 H   0  0  0  0  0  0  0  0  0  0  0  0
   -0.1430    5.1855   -1.2483 H   0  0  0  0  0  0  0  0  0  0  0  0
   -1.4015    5.1026    0.8674 H   0  0  0  0  0  0  0  0  0  0  0  0
   -3.0047    4.1063   -1.5273 H   0  0  0  0  0  0  0  0  0  0  0  0
   -3.6552    4.9007   -0.0892 H   0  0  0  0  0  0  0  0  0  0  0  0
   -2.5476    5.7677   -1.1551 H   0  0  0  0  0  0  0  0  0  0  0  0
   -1.8597    3.2335    2.0073 H   0  0  0  0  0  0  0  0  0  0  0  0
   -2.4360    1.1237    1.3635 H   0  0  0  0  0  0  0  0  0  0  0  0
   -2.0702    2.0535   -1.5404 H   0  0  0  0  0  0  0  0  0  0  0  0
   -3.5534   -0.3758   -3.1898 H   0  0  0  0  0  0  0  0  0  0  0  0
   -1.9074   -1.0350   -2.9317 H   0  0  0  0  0  0  0  0  0  0  0  0
   -1.8866    0.6148   -4.3951 H   0  0  0  0  0  0  0  0  0  0  0  0
   -4.2740   -1.9768   -1.8637 H   0  0  0  0  0  0  0  0  0  0  0  0
   -5.2787   -0.5745   -0.3410 H   0  0  0  0  0  0  0  0  0  0  0  0
   -5.0959   -0.2599    2.0695 H   0  0  0  0  0  0  0  0  0  0  0  0
    3.2442   -1.5085    2.3222 H   0  0  0  0  0  0  0  0  0  0  0  0
    4.2215   -2.7666    1.5414 H   0  0  0  0  0  0  0  0  0  0  0  0
    5.6844   -1.2602    2.7435 H   0  0  0  0  0  0  0  0  0  0  0  0
    4.9800    0.1545    1.9651 H   0  0  0  0  0  0  0  0  0  0  0  0
    6.5395   -2.0926    0.6104 H   0  0  0  0  0  0  0  0  0  0  0  0
    8.2468   -0.3695    0.1784 H   0  0  0  0  0  0  0  0  0  0  0  0
    7.8882   -0.4160    1.9045 H   0  0  0  0  0  0  0  0  0  0  0  0
    7.2209    0.8833    0.9029 H   0  0  0  0  0  0  0  0  0  0  0  0
    5.2339    0.3732   -0.6747 H   0  0  0  0  0  0  0  0  0  0  0  0
    7.2842   -0.2644   -1.9050 H   0  0  0  0  0  0  0  0  0  0  0  0
    6.7593   -1.9631   -1.9292 H   0  0  0  0  0  0  0  0  0  0  0  0
    5.8446   -0.7522   -2.8142 H   0  0  0  0  0  0  0  0  0  0  0  0
    2.6075   -3.2552   -0.4820 H   0  0  0  0  0  0  0  0  0  0  0  0
    1.6477   -2.5006    0.7942 H   0  0  0  0  0  0  0  0  0  0  0  0
  1  2  1  0
  2  3  1  0
  3  4  1  0
  4  5  1  0
  4  6  2  0
  6  7  1  0
  7  8  1  0
  8  9  2  0
  8 10  1  0
 10 11  1  0
 11 12  1  0
 12 13  1  0
 13 14  1  0
 14 15  1  0
 15 16  2  0
 16 17  1  0
 16 18  1  0
 18 19  1  0
 19 20  1  0
 19 21  1  0
 21 22  2  0
 22 23  1  0
 23 24  2  0
 24 25  1  0
 25 26  1  0
 24 27  1  0
 27 28  1  6
 27 29  1  0
 29 30  1  0
 13 31  1  0
 32 31  1  1
 32 33  1  0
 33 34  1  0
 34 35  1  0
 35 36  1  0
 35 37  1  0
 37 38  1  0
 37 39  1  0
 32 40  1  0
 29  3  1  0
 39 32  1  0
 27  7  1  0
 40 11  1  0
  1 41  1  0
  1 42  1  0
  1 43  1  0
  3 44  1  6
  5 45  1  0
  5 46  1  0
  5 47  1  0
  6 48  1  0
  7 49  1  0
 11 50  1  6
 12 51  1  0
 12 52  1  0
 13 53  1  6
 14 54  1  0
 14 55  1  0
 15 56  1  0
 17 57  1  0
 17 58  1  0
 17 59  1  0
 18 60  1  0
 18 61  1  0
 19 62  1  1
 20 63  1  0
 20 64  1  0
 20 65  1  0
 21 66  1  0
 22 67  1  0
 23 68  1  0
 25 69  1  0
 25 70  1  0
 26 71  1  0
 28 72  1  0
 29 73  1  6
 30 74  1  0
 33 75  1  0
 33 76  1  0
 34 77  1  0
 34 78  1  0
 35 79  1  6
 36 80  1  0
 36 81  1  0
 36 82  1  0
 37 83  1  1
 38 84  1  0
 38 85  1  0
 38 86  1  0
 40 87  1  0
 40 88  1  0
M  END
$$$$
