
     RDKit          3D

 58 59  0  0  0  0  0  0  0  0999 V2000
    9.2102   -2.2996   -1.1662 C   0  0  0  0  0  0  0  0  0  0  0  0
    8.5662   -0.9264   -1.2782 C   0  0  0  0  0  0  0  0  0  0  0  0
    7.3528   -0.8986   -2.2112 C   0  0  0  0  0  0  0  0  0  0  0  0
    6.1818   -1.7715   -1.7554 C   0  0  0  0  0  0  0  0  0  0  0  0
    5.7795   -1.4618   -0.4208 O   0  0  0  0  0  0  0  0  0  0  0  0
    4.7833   -0.5474   -0.2301 C   0  0  0  0  0  0  0  0  0  0  0  0
    4.2590    0.3160   -1.1893 C   0  0  0  0  0  0  0  0  0  0  0  0
    3.2363    1.2095   -0.8486 C   0  0  0  0  0  0  0  0  0  0  0  0
    2.7253    1.2414    0.4531 C   0  0  0  0  0  0  0  0  0  0  0  0
    1.6320    2.2034    0.7641 C   0  0  0  0  0  0  0  0  0  0  0  0
    1.4787    3.2107    0.0832 O   0  0  0  0  0  0  0  0  0  0  0  0
    0.7972    1.8646    1.8091 N   0  0  0  0  0  0  0  0  0  0  0  0
   -0.4052    2.6478    2.0607 C   0  0  0  0  0  0  0  0  0  0  0  0
   -1.6302    2.1951    1.2686 C   0  0  0  0  0  0  0  0  0  0  0  0
   -2.7172    2.7612    1.3137 O   0  0  0  0  0  0  0  0  0  0  0  0
   -1.3907    1.0576    0.5556 O   0  0  0  0  0  0  0  0  0  0  0  0
   -2.5409    0.5418   -0.1235 C   0  0  0  0  0  0  0  0  0  0  0  0
   -3.5222   -0.1079    0.8532 C   0  0  0  0  0  0  0  0  0  0  0  0
   -3.1462   -0.5207    1.9574 O   0  0  0  0  0  0  0  0  0  0  0  0
   -4.9651   -0.2081    0.4558 C   0  0  0  0  0  0  0  0  0  0  0  0
   -5.9377   -0.1487    1.3940 C   0  0  0  0  0  0  0  0  0  0  0  0
   -5.6495   -0.0029    2.7484 N   0  0  0  0  0  0  0  0  0  0  0  0
   -7.2704   -0.2286    0.9967 N   0  0  0  0  0  0  0  0  0  0  0  0
   -8.3249   -0.1145    2.0033 C   0  0  0  0  0  0  0  0  0  0  0  0
   -7.6778   -0.3572   -0.3294 C   0  0  0  0  0  0  0  0  0  0  0  0
   -8.8614   -0.4804   -0.6495 O   0  0  0  0  0  0  0  0  0  0  0  0
   -6.6702   -0.3514   -1.2774 N   0  0  0  0  0  0  0  0  0  0  0  0
   -7.0532   -0.4984   -2.6703 C   0  0  0  0  0  0  0  0  0  0  0  0
   -5.3315   -0.3816   -0.9653 C   0  0  0  0  0  0  0  0  0  0  0  0
   -4.4491   -0.5681   -1.8036 O   0  0  0  0  0  0  0  0  0  0  0  0
    3.2693    0.3955    1.4242 C   0  0  0  0  0  0  0  0  0  0  0  0
    4.2930   -0.4913    1.0778 C   0  0  0  0  0  0  0  0  0  0  0  0
   10.1363   -2.2319   -0.5859 H   0  0  0  0  0  0  0  0  0  0  0  0
    8.5524   -3.0095   -0.6547 H   0  0  0  0  0  0  0  0  0  0  0  0
    9.4581   -2.7005   -2.1546 H   0  0  0  0  0  0  0  0  0  0  0  0
    9.3138   -0.2240   -1.6637 H   0  0  0  0  0  0  0  0  0  0  0  0
    8.2866   -0.5711   -0.2807 H   0  0  0  0  0  0  0  0  0  0  0  0
    7.0205    0.1435   -2.2871 H   0  0  0  0  0  0  0  0  0  0  0  0
    7.6563   -1.2102   -3.2187 H   0  0  0  0  0  0  0  0  0  0  0  0
    6.4924   -2.8227   -1.7516 H   0  0  0  0  0  0  0  0  0  0  0  0
    5.3462   -1.7247   -2.4638 H   0  0  0  0  0  0  0  0  0  0  0  0
    4.6284    0.3356   -2.2090 H   0  0  0  0  0  0  0  0  0  0  0  0
    2.8417    1.8855   -1.6046 H   0  0  0  0  0  0  0  0  0  0  0  0
    0.7676    0.8931    2.0895 H   0  0  0  0  0  0  0  0  0  0  0  0
   -0.2137    3.7009    1.8314 H   0  0  0  0  0  0  0  0  0  0  0  0
   -0.6342    2.5339    3.1247 H   0  0  0  0  0  0  0  0  0  0  0  0
   -3.0194    1.3366   -0.7059 H   0  0  0  0  0  0  0  0  0  0  0  0
   -2.1778   -0.2298   -0.8085 H   0  0  0  0  0  0  0  0  0  0  0  0
   -4.6567   -0.1747    2.9563 H   0  0  0  0  0  0  0  0  0  0  0  0
   -6.2200   -0.6042    3.3346 H   0  0  0  0  0  0  0  0  0  0  0  0
   -9.3241   -0.0704    1.5602 H   0  0  0  0  0  0  0  0  0  0  0  0
   -8.1794    0.8037    2.5811 H   0  0  0  0  0  0  0  0  0  0  0  0
   -8.2862   -0.9867    2.6636 H   0  0  0  0  0  0  0  0  0  0  0  0
   -6.2816   -0.1011   -3.3360 H   0  0  0  0  0  0  0  0  0  0  0  0
   -7.9928    0.0251   -2.8724 H   0  0  0  0  0  0  0  0  0  0  0  0
   -7.1892   -1.5645   -2.8790 H   0  0  0  0  0  0  0  0  0  0  0  0
    2.9335    0.4309    2.4570 H   0  0  0  0  0  0  0  0  0  0  0  0
    4.7200   -1.1428    1.8375 H   0  0  0  0  0  0  0  0  0  0  0  0
  1  2  1  0
  2  3  1  0
  3  4  1  0
  4  5  1  0
  5  6  1  0
  6  7  2  0
  7  8  1  0
  8  9  2  0
  9 10  1  0
 10 11  2  0
 10 12  1  0
 12 13  1  0
 13 14  1  0
 14 15  2  0
 14 16  1  0
 16 17  1  0
 17 18  1  0
 18 19  2  0
 18 20  1  0
 20 21  2  0
 21 22  1  0
 21 23  1  0
 23 24  1  0
 23 25  1  0
 25 26  2  0
 25 27  1  0
 27 28  1  0
 27 29  1  0
 29 30  2  0
  9 31  1  0
 31 32  2  0
 32  6  1  0
 29 20  1  0
  1 33  1  0
  1 34  1  0
  1 35  1  0
  2 36  1  0
  2 37  1  0
  3 38  1  0
  3 39  1  0
  4 40  1  0
  4 41  1  0
  7 42  1  0
  8 43  1  0
 12 44  1  0
 13 45  1  0
 13 46  1  0
 17 47  1  0
 17 48  1  0
 22 49  1  0
 22 50  1  0
 24 51  1  0
 24 52  1  0
 24 53  1  0
 28 54  1  0
 28 55  1  0
 28 56  1  0
 31 57  1  0
 32 58  1  0
M  END
$$$$
