
     RDKit          3D

 58 63  0  0  0  0  0  0  0  0999 V2000
    7.3093    1.3620    3.4031 C   0  0  0  0  0  0  0  0  0  0  0  0
    6.2177    0.8107    2.5513 C   0  0  0  0  0  0  0  0  0  0  0  0
    5.2540   -0.1178    2.8847 C   0  0  0  0  0  0  0  0  0  0  0  0
    4.3856   -0.4071    1.7924 C   0  0  0  0  0  0  0  0  0  0  0  0
    4.6993    0.3269    0.6639 C   0  0  0  0  0  0  0  0  0  0  0  0
    4.0688    0.3110   -0.6460 C   0  0  0  0  0  0  0  0  0  0  0  0
    4.7174    0.1621   -1.6823 O   0  0  0  0  0  0  0  0  0  0  0  0
    2.6722    0.4285   -0.6969 N   0  0  0  0  0  0  0  0  0  0  0  0
    2.0327    0.2307   -1.9915 C   0  0  0  0  0  0  0  0  0  0  0  0
    0.5039    0.2813   -1.9125 C   0  0  0  0  0  0  0  0  0  0  0  0
   -0.0284   -0.4373   -0.6453 C   0  0  0  0  0  0  0  0  0  0  0  0
    0.6198    0.1805    0.6315 C   0  0  0  0  0  0  0  0  0  0  0  0
    1.8503    1.0384    0.3356 C   0  0  0  0  0  0  0  0  0  0  0  0
    0.4697   -1.7972   -0.7982 O   0  0  0  0  0  0  0  0  0  0  0  0
   -0.1324   -2.7849   -0.0785 C   0  0  0  0  0  0  0  0  0  0  0  0
    0.5291   -4.0124   -0.0495 C   0  0  0  0  0  0  0  0  0  0  0  0
    0.0013   -5.0753    0.6876 C   0  0  0  0  0  0  0  0  0  0  0  0
   -1.1904   -4.9070    1.3930 C   0  0  0  0  0  0  0  0  0  0  0  0
   -1.8318   -6.2150    2.3070 Cl  0  0  0  0  0  0  0  0  0  0  0  0
   -1.8640   -3.6890    1.3606 C   0  0  0  0  0  0  0  0  0  0  0  0
   -1.3312   -2.6361    0.6105 C   0  0  0  0  0  0  0  0  0  0  0  0
   -2.0253   -1.3442    0.5368 C   0  0  0  0  0  0  0  0  0  0  0  0
   -2.8908   -1.0680    1.3631 O   0  0  0  0  0  0  0  0  0  0  0  0
   -1.5823   -0.4146   -0.5877 C   0  0  0  0  0  0  0  0  0  0  0  0
   -2.2105    0.9650   -0.4412 C   0  0  0  0  0  0  0  0  0  0  0  0
   -3.3792    0.7846   -1.3495 C   0  0  0  0  0  0  0  0  0  0  0  0
   -4.5088    1.7442   -1.3847 C   0  0  0  0  0  0  0  0  0  0  0  0
   -5.5924    1.4833   -2.2353 C   0  0  0  0  0  0  0  0  0  0  0  0
   -6.6726    2.3680   -2.2960 C   0  0  0  0  0  0  0  0  0  0  0  0
   -6.6707    3.5152   -1.5065 C   0  0  0  0  0  0  0  0  0  0  0  0
   -7.9975    4.6066   -1.5785 Cl  0  0  0  0  0  0  0  0  0  0  0  0
   -5.5979    3.7850   -0.6582 C   0  0  0  0  0  0  0  0  0  0  0  0
   -4.5150    2.9011   -0.5962 C   0  0  0  0  0  0  0  0  0  0  0  0
   -3.3103   -0.2515   -2.1225 N   0  0  0  0  0  0  0  0  0  0  0  0
   -2.1176   -0.9390   -1.8138 O   0  0  0  0  0  0  0  0  0  0  0  0
    6.0705    1.3155    0.9227 S   0  0  0  0  0  0  0  0  0  0  0  0
    7.1907    1.0429    4.4434 H   0  0  0  0  0  0  0  0  0  0  0  0
    8.2851    1.0106    3.0541 H   0  0  0  0  0  0  0  0  0  0  0  0
    7.3048    2.4558    3.3885 H   0  0  0  0  0  0  0  0  0  0  0  0
    5.1818   -0.5795    3.8624 H   0  0  0  0  0  0  0  0  0  0  0  0
    3.5750   -1.1245    1.8290 H   0  0  0  0  0  0  0  0  0  0  0  0
    2.3935    1.0042   -2.6800 H   0  0  0  0  0  0  0  0  0  0  0  0
    2.3657   -0.7355   -2.3897 H   0  0  0  0  0  0  0  0  0  0  0  0
    0.1890    1.3303   -1.9231 H   0  0  0  0  0  0  0  0  0  0  0  0
    0.1063   -0.1789   -2.8251 H   0  0  0  0  0  0  0  0  0  0  0  0
   -0.0913    0.8083    1.1796 H   0  0  0  0  0  0  0  0  0  0  0  0
    0.9216   -0.6185    1.3199 H   0  0  0  0  0  0  0  0  0  0  0  0
    2.4019    1.2361    1.2566 H   0  0  0  0  0  0  0  0  0  0  0  0
    1.5431    2.0233   -0.0390 H   0  0  0  0  0  0  0  0  0  0  0  0
    1.4607   -4.1414   -0.5963 H   0  0  0  0  0  0  0  0  0  0  0  0
    0.5242   -6.0287    0.7079 H   0  0  0  0  0  0  0  0  0  0  0  0
   -2.7984   -3.5608    1.9022 H   0  0  0  0  0  0  0  0  0  0  0  0
   -2.5060    1.2156    0.5801 H   0  0  0  0  0  0  0  0  0  0  0  0
   -1.5938    1.7739   -0.8409 H   0  0  0  0  0  0  0  0  0  0  0  0
   -5.6049    0.5884   -2.8557 H   0  0  0  0  0  0  0  0  0  0  0  0
   -7.5073    2.1537   -2.9585 H   0  0  0  0  0  0  0  0  0  0  0  0
   -5.5994    4.6807   -0.0418 H   0  0  0  0  0  0  0  0  0  0  0  0
   -3.6946    3.1399    0.0735 H   0  0  0  0  0  0  0  0  0  0  0  0
  1  2  1  0
  2  3  2  0
  3  4  1  0
  4  5  2  0
  5  6  1  0
  6  7  2  0
  6  8  1  0
  8  9  1  0
  9 10  1  0
 10 11  1  0
 11 12  1  0
 12 13  1  0
 11 14  1  0
 14 15  1  0
 15 16  2  0
 16 17  1  0
 17 18  2  0
 18 19  1  0
 18 20  1  0
 20 21  2  0
 21 22  1  0
 22 23  2  0
 22 24  1  0
 24 25  1  0
 25 26  1  0
 26 27  1  0
 27 28  2  0
 28 29  1  0
 29 30  2  0
 30 31  1  0
 30 32  1  0
 32 33  2  0
 26 34  2  0
 34 35  1  0
  5 36  1  0
 36  2  1  0
 13  8  1  0
 21 15  1  0
 35 24  1  0
 24 11  1  0
 33 27  1  0
  1 37  1  0
  1 38  1  0
  1 39  1  0
  3 40  1  0
  4 41  1  0
  9 42  1  0
  9 43  1  0
 10 44  1  0
 10 45  1  0
 12 46  1  0
 12 47  1  0
 13 48  1  0
 13 49  1  0
 16 50  1  0
 17 51  1  0
 20 52  1  0
 25 53  1  0
 25 54  1  0
 28 55  1  0
 29 56  1  0
 32 57  1  0
 33 58  1  0
M  END
$$$$
