
     RDKit          3D

 51 54  0  0  0  0  0  0  0  0999 V2000
    8.4672   -1.7816   -1.8368 C   0  0  0  0  0  0  0  0  0  0  0  0
    7.1367   -1.3460   -1.2987 C   0  0  0  0  0  0  0  0  0  0  0  0
    5.9456   -1.8096   -1.8705 C   0  0  0  0  0  0  0  0  0  0  0  0
    4.6800   -1.4407   -1.3636 C   0  0  0  0  0  0  0  0  0  0  0  0
    3.4847   -2.0982   -1.9984 C   0  0  0  0  0  0  0  0  0  0  0  0
    4.6157   -0.5364   -0.2866 C   0  0  0  0  0  0  0  0  0  0  0  0
    3.4112   -0.0400    0.2794 N   0  0  0  0  0  0  0  0  0  0  0  0
    2.2779    0.3461   -0.4187 C   0  0  0  0  0  0  0  0  0  0  0  0
    2.1577    0.3543   -1.6409 O   0  0  0  0  0  0  0  0  0  0  0  0
    1.1523    0.8182    0.4881 C   0  0  0  0  0  0  0  0  0  0  0  0
   -0.2671   -0.3065    0.3179 S   0  0  0  0  0  0  0  0  0  0  0  0
   -1.4316    0.5455    1.2672 C   0  0  0  0  0  0  0  0  0  0  0  0
   -1.1584    1.4736    2.1508 N   0  0  0  0  0  0  0  0  0  0  0  0
   -2.3455    1.8845    2.6997 N   0  0  0  0  0  0  0  0  0  0  0  0
   -3.3306    1.2198    2.1220 C   0  0  0  0  0  0  0  0  0  0  0  0
   -4.7425    1.3722    2.4499 C   0  0  0  0  0  0  0  0  0  0  0  0
   -5.6775    1.7530    1.4885 C   0  0  0  0  0  0  0  0  0  0  0  0
   -7.0013    1.8824    1.8719 C   0  0  0  0  0  0  0  0  0  0  0  0
   -7.4418    1.6715    3.1296 N   0  0  0  0  0  0  0  0  0  0  0  0
   -6.5146    1.3358    4.0505 C   0  0  0  0  0  0  0  0  0  0  0  0
   -5.1698    1.1785    3.7640 C   0  0  0  0  0  0  0  0  0  0  0  0
   -2.7835    0.3343    1.2121 N   0  0  0  0  0  0  0  0  0  0  0  0
   -3.4860   -0.6959    0.4695 C   0  0  0  0  0  0  0  0  0  0  0  0
   -3.9120   -0.2165   -0.8704 C   0  0  0  0  0  0  0  0  0  0  0  0
   -3.2453    0.2430   -1.9892 C   0  0  0  0  0  0  0  0  0  0  0  0
   -4.2367    0.5308   -2.9589 C   0  0  0  0  0  0  0  0  0  0  0  0
   -5.4424    0.2188   -2.3791 C   0  0  0  0  0  0  0  0  0  0  0  0
   -5.2559   -0.2367   -1.1143 O   0  0  0  0  0  0  0  0  0  0  0  0
    5.8222   -0.1281    0.3239 C   0  0  0  0  0  0  0  0  0  0  0  0
    5.8092    0.9141    1.7111 Cl  0  0  0  0  0  0  0  0  0  0  0  0
    7.0654   -0.5231   -0.1756 C   0  0  0  0  0  0  0  0  0  0  0  0
    8.8633   -2.6049   -1.2355 H   0  0  0  0  0  0  0  0  0  0  0  0
    9.1792   -0.9504   -1.8194 H   0  0  0  0  0  0  0  0  0  0  0  0
    8.3840   -2.1161   -2.8757 H   0  0  0  0  0  0  0  0  0  0  0  0
    5.9970   -2.4903   -2.7203 H   0  0  0  0  0  0  0  0  0  0  0  0
    3.7316   -3.1202   -2.3081 H   0  0  0  0  0  0  0  0  0  0  0  0
    2.6520   -2.1957   -1.2961 H   0  0  0  0  0  0  0  0  0  0  0  0
    3.1681   -1.5462   -2.8872 H   0  0  0  0  0  0  0  0  0  0  0  0
    3.5405    0.4152    1.1799 H   0  0  0  0  0  0  0  0  0  0  0  0
    1.4733    0.8429    1.5344 H   0  0  0  0  0  0  0  0  0  0  0  0
    0.8812    1.8346    0.1843 H   0  0  0  0  0  0  0  0  0  0  0  0
   -5.3913    1.9662    0.4644 H   0  0  0  0  0  0  0  0  0  0  0  0
   -7.7638    2.1748    1.1561 H   0  0  0  0  0  0  0  0  0  0  0  0
   -6.8924    1.1941    5.0589 H   0  0  0  0  0  0  0  0  0  0  0  0
   -4.4696    0.9174    4.5509 H   0  0  0  0  0  0  0  0  0  0  0  0
   -2.8362   -1.5716    0.3764 H   0  0  0  0  0  0  0  0  0  0  0  0
   -4.3463   -1.0165    1.0676 H   0  0  0  0  0  0  0  0  0  0  0  0
   -2.1754    0.3580   -2.1027 H   0  0  0  0  0  0  0  0  0  0  0  0
   -4.0876    0.9126   -3.9591 H   0  0  0  0  0  0  0  0  0  0  0  0
   -6.4687    0.2594   -2.7167 H   0  0  0  0  0  0  0  0  0  0  0  0
    7.9779   -0.1804    0.3065 H   0  0  0  0  0  0  0  0  0  0  0  0
  1  2  1  0
  2  3  2  0
  3  4  1  0
  4  5  1  0
  4  6  2  0
  6  7  1  0
  7  8  1  0
  8  9  2  0
  8 10  1  0
 10 11  1  0
 11 12  1  0
 12 13  2  0
 13 14  1  0
 14 15  2  0
 15 16  1  0
 16 17  2  0
 17 18  1  0
 18 19  2  0
 19 20  1  0
 20 21  2  0
 15 22  1  0
 22 23  1  0
 23 24  1  0
 24 25  2  0
 25 26  1  0
 26 27  2  0
 27 28  1  0
  6 29  1  0
 29 30  1  0
 29 31  2  0
 31  2  1  0
 22 12  1  0
 28 24  1  0
 21 16  1  0
  1 32  1  0
  1 33  1  0
  1 34  1  0
  3 35  1  0
  5 36  1  0
  5 37  1  0
  5 38  1  0
  7 39  1  0
 10 40  1  0
 10 41  1  0
 17 42  1  0
 18 43  1  0
 20 44  1  0
 21 45  1  0
 23 46  1  0
 23 47  1  0
 25 48  1  0
 26 49  1  0
 27 50  1  0
 31 51  1  0
M  END
$$$$
