
     RDKit          3D

 48 51  0  0  0  0  0  0  0  0999 V2000
   -0.4681    1.2803    2.7953 C   0  0  0  0  0  0  0  0  0  0  0  0
   -0.6615    1.8697    1.4085 C   0  0  0  0  0  0  0  0  0  0  0  0
   -0.6875    0.8607    0.3732 N   0  0  0  0  0  0  0  0  0  0  0  0
   -1.7964    0.2278   -0.1276 C   0  0  0  0  0  0  0  0  0  0  0  0
   -3.4029    0.4646    0.4644 S   0  0  0  0  0  0  0  0  0  0  0  0
   -4.3240   -0.6570   -0.6329 C   0  0  0  0  0  0  0  0  0  0  0  0
   -5.8006   -0.6364   -0.3160 C   0  0  0  0  0  0  0  0  0  0  0  0
   -6.3368   -1.5195    0.6360 C   0  0  0  0  0  0  0  0  0  0  0  0
   -7.6989   -1.4889    0.9388 C   0  0  0  0  0  0  0  0  0  0  0  0
   -8.5240   -0.5745    0.2956 C   0  0  0  0  0  0  0  0  0  0  0  0
   -9.8308   -0.5454    0.5884 F   0  0  0  0  0  0  0  0  0  0  0  0
   -8.0135    0.3122   -0.6446 C   0  0  0  0  0  0  0  0  0  0  0  0
   -6.6519    0.2842   -0.9497 C   0  0  0  0  0  0  0  0  0  0  0  0
   -1.4490   -0.5773   -1.1004 N   0  0  0  0  0  0  0  0  0  0  0  0
   -0.0907   -0.4863   -1.2452 N   0  0  0  0  0  0  0  0  0  0  0  0
    0.3744    0.3673   -0.3539 C   0  0  0  0  0  0  0  0  0  0  0  0
    1.9018    0.6491   -0.2106 C   0  0  0  0  0  0  0  0  0  0  0  0
    2.5953    1.4159    0.7292 C   0  0  0  0  0  0  0  0  0  0  0  0
    3.9099    1.3926    0.5275 N   0  0  0  0  0  0  0  0  0  0  0  0
    4.0932    0.4731   -0.4644 N   0  0  0  0  0  0  0  0  0  0  0  0
    5.4096   -0.0405   -0.6748 C   0  0  0  0  0  0  0  0  0  0  0  0
    6.5080    0.6898   -0.1881 C   0  0  0  0  0  0  0  0  0  0  0  0
    7.8102    0.2135   -0.3566 C   0  0  0  0  0  0  0  0  0  0  0  0
    8.0292   -1.0030   -0.9962 C   0  0  0  0  0  0  0  0  0  0  0  0
    6.9465   -1.7486   -1.4570 C   0  0  0  0  0  0  0  0  0  0  0  0
    5.6398   -1.2764   -1.2916 C   0  0  0  0  0  0  0  0  0  0  0  0
    2.8844    0.1700   -1.0632 C   0  0  0  0  0  0  0  0  0  0  0  0
    2.7705   -0.4705   -2.3825 C   0  0  0  0  0  0  0  0  0  0  0  0
    1.7363    0.0205   -3.1102 F   0  0  0  0  0  0  0  0  0  0  0  0
    3.8672   -0.2665   -3.1584 F   0  0  0  0  0  0  0  0  0  0  0  0
    2.6021   -1.8115   -2.2859 F   0  0  0  0  0  0  0  0  0  0  0  0
   -0.4262    2.0781    3.5433 H   0  0  0  0  0  0  0  0  0  0  0  0
    0.4587    0.7018    2.8605 H   0  0  0  0  0  0  0  0  0  0  0  0
   -1.2934    0.6109    3.0594 H   0  0  0  0  0  0  0  0  0  0  0  0
   -1.5947    2.4409    1.3677 H   0  0  0  0  0  0  0  0  0  0  0  0
    0.1273    2.5872    1.1684 H   0  0  0  0  0  0  0  0  0  0  0  0
   -4.1693   -0.3631   -1.6776 H   0  0  0  0  0  0  0  0  0  0  0  0
   -3.9406   -1.6784   -0.5253 H   0  0  0  0  0  0  0  0  0  0  0  0
   -5.6944   -2.2340    1.1468 H   0  0  0  0  0  0  0  0  0  0  0  0
   -8.1200   -2.1693    1.6718 H   0  0  0  0  0  0  0  0  0  0  0  0
   -8.6770    1.0195   -1.1315 H   0  0  0  0  0  0  0  0  0  0  0  0
   -6.2566    0.9846   -1.6827 H   0  0  0  0  0  0  0  0  0  0  0  0
    2.2302    2.0027    1.5596 H   0  0  0  0  0  0  0  0  0  0  0  0
    6.3670    1.6446    0.3163 H   0  0  0  0  0  0  0  0  0  0  0  0
    8.6516    0.7935    0.0142 H   0  0  0  0  0  0  0  0  0  0  0  0
    9.0420   -1.3755   -1.1266 H   0  0  0  0  0  0  0  0  0  0  0  0
    7.1174   -2.7087   -1.9390 H   0  0  0  0  0  0  0  0  0  0  0  0
    4.8361   -1.9241   -1.6244 H   0  0  0  0  0  0  0  0  0  0  0  0
  1  2  1  0
  2  3  1  0
  3  4  1  0
  4  5  1  0
  5  6  1  0
  6  7  1  0
  7  8  2  0
  8  9  1  0
  9 10  2  0
 10 11  1  0
 10 12  1  0
 12 13  2  0
  4 14  2  0
 14 15  1  0
 15 16  2  0
 16 17  1  0
 17 18  1  0
 18 19  2  0
 19 20  1  0
 20 21  1  0
 21 22  2  0
 22 23  1  0
 23 24  2  0
 24 25  1  0
 25 26  2  0
 20 27  1  0
 27 28  1  0
 28 29  1  0
 28 30  1  0
 28 31  1  0
 16  3  1  0
 27 17  2  0
 13  7  1  0
 26 21  1  0
  1 32  1  0
  1 33  1  0
  1 34  1  0
  2 35  1  0
  2 36  1  0
  6 37  1  0
  6 38  1  0
  8 39  1  0
  9 40  1  0
 12 41  1  0
 13 42  1  0
 18 43  1  0
 22 44  1  0
 23 45  1  0
 24 46  1  0
 25 47  1  0
 26 48  1  0
M  END
$$$$
