
     RDKit          3D

 56 61  0  0  0  0  0  0  0  0999 V2000
    6.9658    2.1079    2.0210 C   0  0  0  0  0  0  0  0  0  0  0  0
    5.7510    1.4022    1.4921 C   0  0  0  0  0  0  0  0  0  0  0  0
    5.8671    0.4508    0.4739 C   0  0  0  0  0  0  0  0  0  0  0  0
    4.7401   -0.2277    0.0002 C   0  0  0  0  0  0  0  0  0  0  0  0
    3.4837    0.0288    0.5496 C   0  0  0  0  0  0  0  0  0  0  0  0
    2.2111   -0.7260    0.0249 C   0  0  0  0  0  0  0  0  0  0  0  0
    0.9296   -0.6498    0.5561 C   0  0  0  0  0  0  0  0  0  0  0  0
    0.0856   -1.4827   -0.1778 N   0  0  0  0  0  4  0  0  0  0  0  0
   -1.3689   -1.6349   -0.0054 C   0  0  0  0  0  0  0  0  0  0  0  0
   -2.1079   -0.6742   -0.9591 C   0  0  0  0  0  0  0  0  0  0  0  0
   -1.7622   -0.6309   -2.1410 O   0  0  0  0  0  0  0  0  0  0  0  0
   -3.0433    0.1606   -0.3268 N   0  0  0  0  0  0  0  0  0  0  0  0
   -4.0089   -0.3967    0.5875 C   0  0  0  0  0  0  0  0  0  0  0  0
   -4.4222   -1.7365    0.4166 C   0  0  0  0  0  0  0  0  0  0  0  0
   -5.3492   -2.3318    1.2756 C   0  0  0  0  0  0  0  0  0  0  0  0
   -5.8955   -1.5967    2.3176 C   0  0  0  0  0  0  0  0  0  0  0  0
   -5.5258   -0.2648    2.4872 C   0  0  0  0  0  0  0  0  0  0  0  0
   -4.5991    0.3409    1.6230 C   0  0  0  0  0  0  0  0  0  0  0  0
   -4.1755    2.0272    1.9384 S   0  0  0  0  0  0  0  0  0  0  0  0
   -3.6310    2.4994    0.3141 C   0  0  0  0  0  0  0  0  0  0  0  0
   -3.6534    3.8762    0.0288 C   0  0  0  0  0  0  0  0  0  0  0  0
   -3.1592    4.3616   -1.1740 C   0  0  0  0  0  0  0  0  0  0  0  0
   -2.6348    3.4725   -2.0981 C   0  0  0  0  0  0  0  0  0  0  0  0
   -2.6062    2.1013   -1.8179 C   0  0  0  0  0  0  0  0  0  0  0  0
   -3.1085    1.5763   -0.6123 C   0  0  0  0  0  0  0  0  0  0  0  0
    0.8089   -2.0269   -1.1504 C   0  0  0  0  0  0  0  0  0  0  0  0
    2.0625   -1.5984   -1.0383 N   0  0  0  0  0  0  0  0  0  0  0  0
    2.9118   -2.1215   -2.0987 C   0  0  0  0  0  0  0  0  0  0  0  0
    1.9049   -2.7592   -3.0955 C   0  0  0  0  0  0  0  0  0  0  0  0
    0.6072   -2.9543   -2.2874 C   0  0  0  0  0  0  0  0  0  0  0  0
    3.3650    0.9608    1.5862 C   0  0  0  0  0  0  0  0  0  0  0  0
    4.4937    1.6397    2.0547 C   0  0  0  0  0  0  0  0  0  0  0  0
    7.7384    2.1911    1.2491 H   0  0  0  0  0  0  0  0  0  0  0  0
    6.7159    3.1253    2.3416 H   0  0  0  0  0  0  0  0  0  0  0  0
    7.3768    1.5580    2.8733 H   0  0  0  0  0  0  0  0  0  0  0  0
    6.8434    0.2299    0.0437 H   0  0  0  0  0  0  0  0  0  0  0  0
    4.8877   -0.9626   -0.7797 H   0  0  0  0  0  0  0  0  0  0  0  0
    0.5049   -0.1013    1.3796 H   0  0  0  0  0  0  0  0  0  0  0  0
   -1.5991   -1.4397    1.0447 H   0  0  0  0  0  0  0  0  0  0  0  0
   -1.6427   -2.6650   -0.2475 H   0  0  0  0  0  0  0  0  0  0  0  0
   -4.0826   -2.3329   -0.4293 H   0  0  0  0  0  0  0  0  0  0  0  0
   -5.6645   -3.3616    1.1163 H   0  0  0  0  0  0  0  0  0  0  0  0
   -6.6255   -2.0488    2.9859 H   0  0  0  0  0  0  0  0  0  0  0  0
   -5.9757    0.3046    3.3005 H   0  0  0  0  0  0  0  0  0  0  0  0
   -4.0460    4.5860    0.7560 H   0  0  0  0  0  0  0  0  0  0  0  0
   -3.1840    5.4279   -1.3867 H   0  0  0  0  0  0  0  0  0  0  0  0
   -2.2544    3.8395   -3.0498 H   0  0  0  0  0  0  0  0  0  0  0  0
   -2.2154    1.4660   -2.6075 H   0  0  0  0  0  0  0  0  0  0  0  0
    3.4797   -1.3198   -2.5743 H   0  0  0  0  0  0  0  0  0  0  0  0
    3.5800   -2.8766   -1.6754 H   0  0  0  0  0  0  0  0  0  0  0  0
    1.7169   -2.0514   -3.9124 H   0  0  0  0  0  0  0  0  0  0  0  0
    2.2770   -3.6878   -3.5372 H   0  0  0  0  0  0  0  0  0  0  0  0
   -0.2905   -2.6744   -2.8374 H   0  0  0  0  0  0  0  0  0  0  0  0
    0.5256   -3.9563   -1.8581 H   0  0  0  0  0  0  0  0  0  0  0  0
    2.4105    1.1952    2.0482 H   0  0  0  0  0  0  0  0  0  0  0  0
    4.3871    2.3614    2.8619 H   0  0  0  0  0  0  0  0  0  0  0  0
  1  2  1  0
  2  3  2  0
  3  4  1  0
  4  5  2  0
  5  6  1  0
  6  7  2  0
  7  8  1  0
  8  9  1  0
  9 10  1  0
 10 11  2  0
 10 12  1  0
 12 13  1  0
 13 14  2  0
 14 15  1  0
 15 16  2  0
 16 17  1  0
 17 18  2  0
 18 19  1  0
 19 20  1  0
 20 21  2  0
 21 22  1  0
 22 23  2  0
 23 24  1  0
 24 25  2  0
  8 26  2  0
 26 27  1  0
 27 28  1  0
 28 29  1  0
 29 30  1  0
  5 31  1  0
 31 32  2  0
 32  2  1  0
 27  6  1  0
 25 12  1  0
 30 26  1  0
 18 13  1  0
 25 20  1  0
  1 33  1  0
  1 34  1  0
  1 35  1  0
  3 36  1  0
  4 37  1  0
  7 38  1  0
  9 39  1  0
  9 40  1  0
 14 41  1  0
 15 42  1  0
 16 43  1  0
 17 44  1  0
 21 45  1  0
 22 46  1  0
 23 47  1  0
 24 48  1  0
 28 49  1  0
 28 50  1  0
 29 51  1  0
 29 52  1  0
 30 53  1  0
 30 54  1  0
 31 55  1  0
 32 56  1  0
M  CHG  1   8   1
M  END
$$$$
