
     RDKit          3D

 54 57  0  0  0  0  0  0  0  0999 V2000
   -4.4120    4.6984    1.7746 C   0  0  0  0  0  0  0  0  0  0  0  0
   -4.1960    3.5349    2.5572 O   0  0  0  0  0  0  0  0  0  0  0  0
   -3.1321    2.7454    2.2174 C   0  0  0  0  0  0  0  0  0  0  0  0
   -2.8943    1.6781    3.0864 C   0  0  0  0  0  0  0  0  0  0  0  0
   -1.8537    0.7741    2.8422 C   0  0  0  0  0  0  0  0  0  0  0  0
   -1.0346    0.9417    1.7174 C   0  0  0  0  0  0  0  0  0  0  0  0
    0.0204    0.0304    1.4773 N   0  0  0  0  0  0  0  0  0  0  0  0
   -0.0274   -1.3589    1.5280 C   0  0  0  0  0  0  0  0  0  0  0  0
   -1.2699   -2.1922    1.5711 C   0  0  0  0  0  0  0  0  0  0  0  0
   -1.9876   -2.2219    0.2498 C   0  0  0  0  0  0  0  0  0  0  0  0
   -1.4890   -2.5896   -0.9902 C   0  0  0  0  0  0  0  0  0  0  0  0
   -2.5300   -2.4737   -1.9388 C   0  0  0  0  0  0  0  0  0  0  0  0
   -3.6451   -2.0407   -1.2602 C   0  0  0  0  0  0  0  0  0  0  0  0
   -3.3149   -1.8964    0.0637 N   0  0  0  0  0  0  0  0  0  0  0  0
   -4.2559   -1.4475    1.0680 C   0  0  0  0  0  0  0  0  0  0  0  0
    1.1888   -1.8468    1.3962 N   0  0  0  0  0  0  0  0  0  0  0  0
    2.0411   -0.8092    1.1702 N   0  0  0  0  0  0  0  0  0  0  0  0
    1.3474    0.3029    1.1929 C   0  0  0  0  0  0  0  0  0  0  0  0
    2.0530    1.8799    1.0573 S   0  0  0  0  0  0  0  0  0  0  0  0
    3.8213    1.4665    0.9947 C   0  0  0  0  0  0  0  0  0  0  0  0
    4.2699    1.1926   -0.4341 C   0  0  0  0  0  0  0  0  0  0  0  0
    4.9108    2.0392   -1.0547 O   0  0  0  0  0  0  0  0  0  0  0  0
    3.9060   -0.0541   -0.9048 N   0  0  0  0  0  0  0  0  0  0  0  0
    4.2278   -0.6345   -2.1464 C   0  0  0  0  0  0  0  0  0  0  0  0
    5.1011   -0.0629   -3.0745 C   0  0  0  0  0  0  0  0  0  0  0  0
    5.3863   -0.7208   -4.2772 C   0  0  0  0  0  0  0  0  0  0  0  0
    4.8036   -1.9558   -4.5635 C   0  0  0  0  0  0  0  0  0  0  0  0
    3.9304   -2.5335   -3.6478 C   0  0  0  0  0  0  0  0  0  0  0  0
    3.6466   -1.8708   -2.4561 C   0  0  0  0  0  0  0  0  0  0  0  0
    2.7872   -2.4394   -1.5954 F   0  0  0  0  0  0  0  0  0  0  0  0
   -1.2604    2.0153    0.8513 C   0  0  0  0  0  0  0  0  0  0  0  0
   -2.3065    2.9140    1.1002 C   0  0  0  0  0  0  0  0  0  0  0  0
   -3.5565    5.3796    1.8467 H   0  0  0  0  0  0  0  0  0  0  0  0
   -5.2849    5.2175    2.1776 H   0  0  0  0  0  0  0  0  0  0  0  0
   -4.6316    4.4368    0.7324 H   0  0  0  0  0  0  0  0  0  0  0  0
   -3.5186    1.5576    3.9651 H   0  0  0  0  0  0  0  0  0  0  0  0
   -1.6720   -0.0143    3.5683 H   0  0  0  0  0  0  0  0  0  0  0  0
   -0.9779   -3.2230    1.8120 H   0  0  0  0  0  0  0  0  0  0  0  0
   -1.9244   -1.8866    2.3877 H   0  0  0  0  0  0  0  0  0  0  0  0
   -0.4744   -2.9111   -1.1834 H   0  0  0  0  0  0  0  0  0  0  0  0
   -2.4704   -2.6781   -2.9986 H   0  0  0  0  0  0  0  0  0  0  0  0
   -4.6444   -1.8243   -1.6146 H   0  0  0  0  0  0  0  0  0  0  0  0
   -5.2758   -1.6435    0.7242 H   0  0  0  0  0  0  0  0  0  0  0  0
   -4.0841   -1.9886    1.9975 H   0  0  0  0  0  0  0  0  0  0  0  0
   -4.1125   -0.3780    1.1987 H   0  0  0  0  0  0  0  0  0  0  0  0
    4.3791    2.3335    1.3617 H   0  0  0  0  0  0  0  0  0  0  0  0
    4.0867    0.6247    1.6458 H   0  0  0  0  0  0  0  0  0  0  0  0
    3.3110   -0.6277   -0.3073 H   0  0  0  0  0  0  0  0  0  0  0  0
    5.5875    0.8897   -2.8864 H   0  0  0  0  0  0  0  0  0  0  0  0
    6.0721   -0.2657   -4.9876 H   0  0  0  0  0  0  0  0  0  0  0  0
    5.0209   -2.4587   -5.5017 H   0  0  0  0  0  0  0  0  0  0  0  0
    3.4573   -3.4891   -3.8531 H   0  0  0  0  0  0  0  0  0  0  0  0
   -0.6600    2.1581   -0.0513 H   0  0  0  0  0  0  0  0  0  0  0  0
   -2.4597    3.7261    0.3940 H   0  0  0  0  0  0  0  0  0  0  0  0
  1  2  1  0
  2  3  1  0
  3  4  2  0
  4  5  1  0
  5  6  2  0
  6  7  1  0
  7  8  1  0
  8  9  1  0
  9 10  1  0
 10 11  2  0
 11 12  1  0
 12 13  2  0
 13 14  1  0
 14 15  1  0
  8 16  2  0
 16 17  1  0
 17 18  2  0
 18 19  1  0
 19 20  1  0
 20 21  1  0
 21 22  2  0
 21 23  1  0
 23 24  1  0
 24 25  2  0
 25 26  1  0
 26 27  2  0
 27 28  1  0
 28 29  2  0
 29 30  1  0
  6 31  1  0
 31 32  2  0
 32  3  1  0
 18  7  1  0
 29 24  1  0
 14 10  1  0
  1 33  1  0
  1 34  1  0
  1 35  1  0
  4 36  1  0
  5 37  1  0
  9 38  1  0
  9 39  1  0
 11 40  1  0
 12 41  1  0
 13 42  1  0
 15 43  1  0
 15 44  1  0
 15 45  1  0
 20 46  1  0
 20 47  1  0
 23 48  1  0
 25 49  1  0
 26 50  1  0
 27 51  1  0
 28 52  1  0
 31 53  1  0
 32 54  1  0
M  END
$$$$
