
     RDKit          3D

 48 51  0  0  0  0  0  0  0  0999 V2000
    3.5086    2.0606   -2.5570 C   0  0  0  0  0  0  0  0  0  0  0  0
    3.2649    2.2420   -1.0662 C   0  0  0  0  0  0  0  0  0  0  0  0
    2.9300    0.9706   -0.4290 N   0  0  0  0  0  0  0  0  0  0  0  0
    1.6679    0.3732   -0.3342 C   0  0  0  0  0  0  0  0  0  0  0  0
    0.4953    0.9284   -0.6975 C   0  0  0  0  0  0  0  0  0  0  0  0
   -0.8259    0.2906   -0.6076 C   0  0  0  0  0  0  0  0  0  0  0  0
   -1.1679   -0.6350   -1.5948 C   0  0  0  0  0  0  0  0  0  0  0  0
   -2.3994   -1.2597   -1.5646 C   0  0  0  0  0  0  0  0  0  0  0  0
   -3.2918   -0.9583   -0.5443 C   0  0  0  0  0  0  0  0  0  0  0  0
   -4.5411   -1.5980   -0.5091 C   0  0  0  0  0  0  0  0  0  0  0  0
   -5.4678   -1.3178    0.4982 C   0  0  0  0  0  0  0  0  0  0  0  0
   -6.7865   -2.0359    0.5420 C   0  0  0  0  0  0  0  0  0  0  0  0
   -5.1234   -0.4071    1.4944 C   0  0  0  0  0  0  0  0  0  0  0  0
   -3.8810    0.2384    1.4707 C   0  0  0  0  0  0  0  0  0  0  0  0
   -2.9371   -0.0111    0.4551 C   0  0  0  0  0  0  0  0  0  0  0  0
   -1.7063    0.6065    0.3911 N   0  0  0  0  0  4  0  0  0  0  0  0
   -1.3272    1.6370    1.4055 C   0  0  0  0  0  0  0  0  0  0  0  0
   -0.7648    0.9795    2.6511 C   0  0  0  0  0  0  0  0  0  0  0  0
    1.7016   -1.2733    0.3614 S   0  0  0  0  0  0  0  0  0  0  0  0
    3.4805   -1.1511    0.4662 C   0  0  0  0  0  0  0  0  0  0  0  0
    4.3322   -2.1430    0.9328 C   0  0  0  0  0  0  0  0  0  0  0  0
    5.7023   -1.8917    0.9348 C   0  0  0  0  0  0  0  0  0  0  0  0
    6.1945   -0.6654    0.4729 C   0  0  0  0  0  0  0  0  0  0  0  0
    5.3245    0.3281    0.0040 C   0  0  0  0  0  0  0  0  0  0  0  0
    3.9531    0.0950   -0.0028 C   0  0  0  0  0  0  0  0  0  0  0  0
    4.3477    1.3836   -2.7462 H   0  0  0  0  0  0  0  0  0  0  0  0
    2.6259    1.6458   -3.0547 H   0  0  0  0  0  0  0  0  0  0  0  0
    3.7390    3.0241   -3.0223 H   0  0  0  0  0  0  0  0  0  0  0  0
    2.4501    2.9611   -0.9220 H   0  0  0  0  0  0  0  0  0  0  0  0
    4.1348    2.7123   -0.5943 H   0  0  0  0  0  0  0  0  0  0  0  0
    0.4751    1.9261   -1.1247 H   0  0  0  0  0  0  0  0  0  0  0  0
   -0.4662   -0.8808   -2.3915 H   0  0  0  0  0  0  0  0  0  0  0  0
   -2.6487   -1.9851   -2.3387 H   0  0  0  0  0  0  0  0  0  0  0  0
   -4.8045   -2.3291   -1.2750 H   0  0  0  0  0  0  0  0  0  0  0  0
   -6.6844   -2.9706    1.1019 H   0  0  0  0  0  0  0  0  0  0  0  0
   -7.1397   -2.2640   -0.4691 H   0  0  0  0  0  0  0  0  0  0  0  0
   -7.5524   -1.4174    1.0216 H   0  0  0  0  0  0  0  0  0  0  0  0
   -5.8232   -0.1937    2.3028 H   0  0  0  0  0  0  0  0  0  0  0  0
   -3.6927    0.9272    2.2882 H   0  0  0  0  0  0  0  0  0  0  0  0
   -0.6041    2.3344    0.9746 H   0  0  0  0  0  0  0  0  0  0  0  0
   -2.2070    2.2493    1.6243 H   0  0  0  0  0  0  0  0  0  0  0  0
   -0.5339    1.7389    3.4046 H   0  0  0  0  0  0  0  0  0  0  0  0
    0.1566    0.4353    2.4326 H   0  0  0  0  0  0  0  0  0  0  0  0
   -1.4686    0.2681    3.0921 H   0  0  0  0  0  0  0  0  0  0  0  0
    3.9476   -3.0947    1.2852 H   0  0  0  0  0  0  0  0  0  0  0  0
    6.3940   -2.6511    1.2934 H   0  0  0  0  0  0  0  0  0  0  0  0
    7.2678   -0.4830    0.4773 H   0  0  0  0  0  0  0  0  0  0  0  0
    5.7519    1.2609   -0.3466 H   0  0  0  0  0  0  0  0  0  0  0  0
  1  2  1  0
  2  3  1  0
  3  4  1  0
  4  5  2  3
  5  6  1  0
  6  7  2  0
  7  8  1  0
  8  9  2  0
  9 10  1  0
 10 11  2  0
 11 12  1  0
 11 13  1  0
 13 14  2  0
 14 15  1  0
 15 16  2  0
 16 17  1  0
 17 18  1  0
  4 19  1  0
 19 20  1  0
 20 21  2  0
 21 22  1  0
 22 23  2  0
 23 24  1  0
 24 25  2  0
 25  3  1  0
 16  6  1  0
 25 20  1  0
 15  9  1  0
  1 26  1  0
  1 27  1  0
  1 28  1  0
  2 29  1  0
  2 30  1  0
  5 31  1  0
  7 32  1  0
  8 33  1  0
 10 34  1  0
 12 35  1  0
 12 36  1  0
 12 37  1  0
 13 38  1  0
 14 39  1  0
 17 40  1  0
 17 41  1  0
 18 42  1  0
 18 43  1  0
 18 44  1  0
 21 45  1  0
 22 46  1  0
 23 47  1  0
 24 48  1  0
M  CHG  1  16   1
M  END
$$$$
