
     RDKit          3D

 37 39  0  0  0  0  0  0  0  0999 V2000
    4.0375    1.1149   -1.7916 N   0  0  0  0  0  0  0  0  0  0  0  0
    4.1500   -0.0416   -0.9132 C   0  0  0  0  0  0  0  0  0  0  0  0
    3.1392    0.0230    0.2320 C   0  0  0  0  0  0  0  0  0  0  0  0
    1.6855   -0.0577   -0.2471 C   0  0  0  0  0  0  0  0  0  0  0  0
    0.7150    0.0004    0.9417 C   0  0  0  0  0  0  0  0  0  0  0  0
   -0.6987   -0.0876    0.5075 N   0  0  0  0  0  0  0  0  0  0  0  0
   -1.2906   -1.3845    0.4795 C   0  0  0  0  0  0  0  0  0  0  0  0
   -0.5157   -2.5673    0.4885 C   0  0  0  0  0  0  0  0  0  0  0  0
   -1.0863   -3.8457    0.4486 C   0  0  0  0  0  0  0  0  0  0  0  0
   -2.4619   -3.9877    0.3942 C   0  0  0  0  0  0  0  0  0  0  0  0
   -3.2581   -2.8490    0.3767 C   0  0  0  0  0  0  0  0  0  0  0  0
   -2.6877   -1.5604    0.4140 C   0  0  0  0  0  0  0  0  0  0  0  0
   -3.8484   -0.2154    0.4135 S   0  0  0  0  0  0  0  0  0  0  0  0
   -2.7932    1.1950    0.1848 C   0  0  0  0  0  0  0  0  0  0  0  0
   -3.4612    2.4121   -0.0606 C   0  0  0  0  0  0  0  0  0  0  0  0
   -2.7536    3.5958   -0.2346 C   0  0  0  0  0  0  0  0  0  0  0  0
   -1.3719    3.5633   -0.1646 C   0  0  0  0  0  0  0  0  0  0  0  0
   -0.4730    5.0156   -0.3832 Cl  0  0  0  0  0  0  0  0  0  0  0  0
   -0.7003    2.3611    0.0801 C   0  0  0  0  0  0  0  0  0  0  0  0
   -1.3858    1.1393    0.2698 C   0  0  0  0  0  0  0  0  0  0  0  0
    4.7330    1.0469   -2.5342 H   0  0  0  0  0  0  0  0  0  0  0  0
    4.2570    1.9663   -1.2758 H   0  0  0  0  0  0  0  0  0  0  0  0
    5.1643   -0.0811   -0.5012 H   0  0  0  0  0  0  0  0  0  0  0  0
    3.9968   -0.9561   -1.4964 H   0  0  0  0  0  0  0  0  0  0  0  0
    3.2897    0.9454    0.8071 H   0  0  0  0  0  0  0  0  0  0  0  0
    3.3379   -0.8111    0.9165 H   0  0  0  0  0  0  0  0  0  0  0  0
    1.4755    0.7576   -0.9470 H   0  0  0  0  0  0  0  0  0  0  0  0
    1.5428   -0.9829   -0.8164 H   0  0  0  0  0  0  0  0  0  0  0  0
    0.8891    0.9116    1.5290 H   0  0  0  0  0  0  0  0  0  0  0  0
    0.9536   -0.7894    1.6660 H   0  0  0  0  0  0  0  0  0  0  0  0
    0.5685   -2.5359    0.5081 H   0  0  0  0  0  0  0  0  0  0  0  0
   -0.4472   -4.7249    0.4544 H   0  0  0  0  0  0  0  0  0  0  0  0
   -2.9149   -4.9745    0.3624 H   0  0  0  0  0  0  0  0  0  0  0  0
   -4.3391   -2.9686    0.3339 H   0  0  0  0  0  0  0  0  0  0  0  0
   -4.5481    2.4399   -0.1160 H   0  0  0  0  0  0  0  0  0  0  0  0
   -3.2830    4.5248   -0.4242 H   0  0  0  0  0  0  0  0  0  0  0  0
    0.3830    2.4084    0.0981 H   0  0  0  0  0  0  0  0  0  0  0  0
  1  2  1  0
  2  3  1  0
  3  4  1  0
  4  5  1  0
  5  6  1  0
  6  7  1  0
  7  8  2  0
  8  9  1  0
  9 10  2  0
 10 11  1  0
 11 12  2  0
 12 13  1  0
 13 14  1  0
 14 15  2  0
 15 16  1  0
 16 17  2  0
 17 18  1  0
 17 19  1  0
 19 20  2  0
 20  6  1  0
 12  7  1  0
 20 14  1  0
  1 21  1  0
  1 22  1  0
  2 23  1  0
  2 24  1  0
  3 25  1  0
  3 26  1  0
  4 27  1  0
  4 28  1  0
  5 29  1  0
  5 30  1  0
  8 31  1  0
  9 32  1  0
 10 33  1  0
 11 34  1  0
 15 35  1  0
 16 36  1  0
 19 37  1  0
M  END
$$$$
