
     RDKit          3D

 44 47  0  0  0  0  0  0  0  0999 V2000
   -5.6281   -3.1105    0.7325 C   0  0  0  0  0  0  0  0  0  0  0  0
   -4.6396   -1.9597    0.8012 C   0  0  0  0  0  0  0  0  0  0  0  0
   -4.6413   -1.3056   -0.4737 O   0  0  0  0  0  0  0  0  0  0  0  0
   -3.4544   -0.6777   -0.7409 C   0  0  0  0  0  0  0  0  0  0  0  0
   -2.8157   -1.0519   -1.9234 C   0  0  0  0  0  0  0  0  0  0  0  0
   -1.5906   -0.4783   -2.2724 C   0  0  0  0  0  0  0  0  0  0  0  0
   -0.9990    0.4783   -1.4399 C   0  0  0  0  0  0  0  0  0  0  0  0
    0.2937    1.0586   -1.8095 C   0  0  0  0  0  0  0  0  0  0  0  0
    1.4704    0.7416   -1.2515 C   0  0  0  0  0  0  0  0  0  0  0  0
    1.7539   -0.4238    0.0284 S   0  0  0  0  0  0  0  0  0  0  0  0
    3.4337   -0.0883   -0.0504 C   0  0  0  0  0  0  0  0  0  0  0  0
    4.4946   -0.5175    0.5694 N   0  0  0  0  0  0  0  0  0  0  0  0
    5.4928    0.2218   -0.0525 C   0  0  0  0  0  0  0  0  0  0  0  0
    6.9996    0.0707    0.3367 C   0  0  0  0  0  0  0  0  0  0  0  0
    7.4937   -0.7803    1.3069 C   0  0  0  0  0  0  0  0  0  0  0  0
    8.8982   -0.6004    1.3308 C   0  0  0  0  0  0  0  0  0  0  0  0
    9.1760    0.3466    0.3746 C   0  0  0  0  0  0  0  0  0  0  0  0
    8.0344    0.7602   -0.2322 O   0  0  0  0  0  0  0  0  0  0  0  0
    5.0673    1.0696   -1.0112 N   0  0  0  0  0  0  0  0  0  0  0  0
    3.7456    0.8388   -0.9773 N   0  0  0  0  0  0  0  0  0  0  0  0
    2.7300    1.3912   -1.7273 C   0  0  0  0  0  0  0  0  0  0  0  0
    2.8909    2.2323   -2.5924 O   0  0  0  0  0  0  0  0  0  0  0  0
   -1.6561    0.8785   -0.2712 C   0  0  0  0  0  0  0  0  0  0  0  0
   -2.8940    0.3224    0.0603 C   0  0  0  0  0  0  0  0  0  0  0  0
   -3.4967    0.7803    1.2028 O   0  0  0  0  0  0  0  0  0  0  0  0
   -4.5784    1.6628    0.8742 C   0  0  0  0  0  0  0  0  0  0  0  0
   -5.1468    2.2089    2.1710 C   0  0  0  0  0  0  0  0  0  0  0  0
   -5.6705   -3.6468    1.6848 H   0  0  0  0  0  0  0  0  0  0  0  0
   -6.6303   -2.7434    0.4885 H   0  0  0  0  0  0  0  0  0  0  0  0
   -5.3444   -3.8141   -0.0573 H   0  0  0  0  0  0  0  0  0  0  0  0
   -3.6467   -2.3534    1.0532 H   0  0  0  0  0  0  0  0  0  0  0  0
   -4.9628   -1.2586    1.5770 H   0  0  0  0  0  0  0  0  0  0  0  0
   -3.2666   -1.8035   -2.5663 H   0  0  0  0  0  0  0  0  0  0  0  0
   -1.1035   -0.7916   -3.1929 H   0  0  0  0  0  0  0  0  0  0  0  0
    0.2499    1.7886   -2.6174 H   0  0  0  0  0  0  0  0  0  0  0  0
    6.9026   -1.4476    1.9191 H   0  0  0  0  0  0  0  0  0  0  0  0
    9.6180   -1.0984    1.9648 H   0  0  0  0  0  0  0  0  0  0  0  0
   10.0856    0.8133    0.0222 H   0  0  0  0  0  0  0  0  0  0  0  0
   -1.2232    1.6338    0.3800 H   0  0  0  0  0  0  0  0  0  0  0  0
   -5.3680    1.1278    0.3351 H   0  0  0  0  0  0  0  0  0  0  0  0
   -4.2175    2.4944    0.2566 H   0  0  0  0  0  0  0  0  0  0  0  0
   -5.9825    2.8867    1.9750 H   0  0  0  0  0  0  0  0  0  0  0  0
   -4.3783    2.7505    2.7317 H   0  0  0  0  0  0  0  0  0  0  0  0
   -5.4961    1.3936    2.8137 H   0  0  0  0  0  0  0  0  0  0  0  0
  1  2  1  0
  2  3  1  0
  3  4  1  0
  4  5  2  0
  5  6  1  0
  6  7  2  0
  7  8  1  0
  8  9  2  3
  9 10  1  0
 10 11  1  0
 11 12  2  0
 12 13  1  0
 13 14  1  0
 14 15  2  0
 15 16  1  0
 16 17  2  0
 17 18  1  0
 13 19  2  0
 19 20  1  0
 20 21  1  0
 21 22  2  0
  7 23  1  0
 23 24  2  0
 24 25  1  0
 25 26  1  0
 26 27  1  0
 24  4  1  0
 21  9  1  0
 20 11  1  0
 18 14  1  0
  1 28  1  0
  1 29  1  0
  1 30  1  0
  2 31  1  0
  2 32  1  0
  5 33  1  0
  6 34  1  0
  8 35  1  0
 15 36  1  0
 16 37  1  0
 17 38  1  0
 23 39  1  0
 26 40  1  0
 26 41  1  0
 27 42  1  0
 27 43  1  0
 27 44  1  0
M  END
$$$$
