
     RDKit          3D

 24 26  0  0  0  0  0  0  0  0999 V2000
   -4.3273   -1.1789   -1.7501 F   0  0  0  0  0  0  0  0  0  0  0  0
   -3.2409   -0.6857   -1.1454 C   0  0  0  0  0  0  0  0  0  0  0  0
   -2.6434   -1.4059   -0.1171 C   0  0  0  0  0  0  0  0  0  0  0  0
   -1.5068   -0.8965    0.5150 C   0  0  0  0  0  0  0  0  0  0  0  0
   -0.9741    0.3366    0.1097 C   0  0  0  0  0  0  0  0  0  0  0  0
    0.2142    0.8574    0.7490 C   0  0  0  0  0  0  0  0  0  0  0  0
    0.2226    1.9707    1.5705 C   0  0  0  0  0  0  0  0  0  0  0  0
    1.8269    2.2649    2.1615 S   0  0  0  0  0  0  0  0  0  0  0  0
    2.4202    0.9388    1.3023 C   0  0  0  0  0  0  0  0  0  0  0  0
    1.4773    0.3276    0.6312 N   0  0  0  0  0  4  0  0  0  0  0  0
    1.9081   -0.8406   -0.1239 C   0  0  0  0  0  0  0  0  0  0  0  0
    3.4399   -0.7829   -0.2504 C   0  0  0  0  0  0  0  0  0  0  0  0
    4.0046    0.2772    1.1353 S   0  0  0  0  0  0  0  0  0  0  0  0
   -1.5901    1.0557   -0.9255 C   0  0  0  0  0  0  0  0  0  0  0  0
   -2.7257    0.5392   -1.5534 C   0  0  0  0  0  0  0  0  0  0  0  0
   -3.0773   -2.3549    0.1882 H   0  0  0  0  0  0  0  0  0  0  0  0
   -1.0682   -1.4661    1.3324 H   0  0  0  0  0  0  0  0  0  0  0  0
   -0.5992    2.6118    1.8663 H   0  0  0  0  0  0  0  0  0  0  0  0
    1.6030   -1.7370    0.4291 H   0  0  0  0  0  0  0  0  0  0  0  0
    1.4380   -0.8594   -1.1123 H   0  0  0  0  0  0  0  0  0  0  0  0
    3.8944   -1.7762   -0.2101 H   0  0  0  0  0  0  0  0  0  0  0  0
    3.7255   -0.2973   -1.1889 H   0  0  0  0  0  0  0  0  0  0  0  0
   -1.2041    2.0185   -1.2576 H   0  0  0  0  0  0  0  0  0  0  0  0
   -3.2177    1.0832   -2.3559 H   0  0  0  0  0  0  0  0  0  0  0  0
  1  2  1  0
  2  3  2  0
  3  4  1  0
  4  5  2  0
  5  6  1  0
  6  7  2  0
  7  8  1  0
  8  9  1  0
  9 10  2  0
 10 11  1  0
 11 12  1  0
 12 13  1  0
  5 14  1  0
 14 15  2  0
 15  2  1  0
 10  6  1  0
 13  9  1  0
  3 16  1  0
  4 17  1  0
  7 18  1  0
 11 19  1  0
 11 20  1  0
 12 21  1  0
 12 22  1  0
 14 23  1  0
 15 24  1  0
M  CHG  1  10   1
M  END
$$$$
