
     RDKit          3D

 53 57  0  0  0  0  0  0  0  0999 V2000
    5.8307   -0.3032    3.8201 C   0  0  0  0  0  0  0  0  0  0  0  0
    4.8729    0.6885    3.4727 O   0  0  0  0  0  0  0  0  0  0  0  0
    4.2423    0.5436    2.2681 C   0  0  0  0  0  0  0  0  0  0  0  0
    3.3350    1.5576    1.9567 C   0  0  0  0  0  0  0  0  0  0  0  0
    2.6174    1.5320    0.7580 C   0  0  0  0  0  0  0  0  0  0  0  0
    2.7895    0.4799   -0.1502 C   0  0  0  0  0  0  0  0  0  0  0  0
    2.0161    0.4411   -1.4523 C   0  0  0  0  0  0  0  0  0  0  0  0
    0.5611    0.3851   -1.2554 N   0  0  0  0  0  0  0  0  0  0  0  0
   -0.1209   -0.7693   -0.9389 C   0  0  0  0  0  0  0  0  0  0  0  0
    0.6191   -2.0434   -0.8276 C   0  0  0  0  0  0  0  0  0  0  0  0
    0.9513   -2.7590   -1.9815 C   0  0  0  0  0  0  0  0  0  0  0  0
    1.6289   -3.9721   -1.8622 C   0  0  0  0  0  0  0  0  0  0  0  0
    1.9542   -4.4691   -0.5979 C   0  0  0  0  0  0  0  0  0  0  0  0
    1.5957   -3.7615    0.5518 C   0  0  0  0  0  0  0  0  0  0  0  0
    0.9183   -2.5477    0.4403 C   0  0  0  0  0  0  0  0  0  0  0  0
   -1.3934   -0.8135   -0.7293 N   0  0  0  0  0  0  0  0  0  0  0  0
   -2.1627    0.3261   -0.8066 C   0  0  0  0  0  0  0  0  0  0  0  0
   -1.6007    1.5126   -1.1229 C   0  0  0  0  0  0  0  0  0  0  0  0
   -2.4490    2.7288   -1.1938 C   0  0  0  0  0  0  0  0  0  0  0  0
   -2.0015    3.8455   -1.4373 O   0  0  0  0  0  0  0  0  0  0  0  0
   -3.8975    2.5835   -0.9570 C   0  0  0  0  0  0  0  0  0  0  0  0
   -4.7224    3.7175   -1.0553 C   0  0  0  0  0  0  0  0  0  0  0  0
   -6.0908    3.6072   -0.8363 C   0  0  0  0  0  0  0  0  0  0  0  0
   -6.6311    2.3675   -0.5200 C   0  0  0  0  0  0  0  0  0  0  0  0
   -5.8033    1.2415   -0.4225 C   0  0  0  0  0  0  0  0  0  0  0  0
   -4.4140    1.3214   -0.6378 C   0  0  0  0  0  0  0  0  0  0  0  0
   -3.5439    0.2123   -0.5479 N   0  0  0  0  0  0  0  0  0  0  0  0
   -4.1417   -1.0796   -0.1904 C   0  0  0  0  0  0  0  0  0  0  0  0
   -0.1411    1.5703   -1.3877 C   0  0  0  0  0  0  0  0  0  0  0  0
    0.4130    2.6193   -1.7112 O   0  0  0  0  0  0  0  0  0  0  0  0
    3.7154   -0.5265    0.1599 C   0  0  0  0  0  0  0  0  0  0  0  0
    4.4319   -0.4987    1.3623 C   0  0  0  0  0  0  0  0  0  0  0  0
    6.6549   -0.3266    3.0995 H   0  0  0  0  0  0  0  0  0  0  0  0
    5.3600   -1.2876    3.9175 H   0  0  0  0  0  0  0  0  0  0  0  0
    6.2492   -0.0370    4.7954 H   0  0  0  0  0  0  0  0  0  0  0  0
    3.1869    2.3805    2.6521 H   0  0  0  0  0  0  0  0  0  0  0  0
    1.9299    2.3475    0.5400 H   0  0  0  0  0  0  0  0  0  0  0  0
    2.2992    1.3207   -2.0428 H   0  0  0  0  0  0  0  0  0  0  0  0
    2.3277   -0.4205   -2.0512 H   0  0  0  0  0  0  0  0  0  0  0  0
    0.6791   -2.3812   -2.9634 H   0  0  0  0  0  0  0  0  0  0  0  0
    1.8954   -4.5371   -2.7525 H   0  0  0  0  0  0  0  0  0  0  0  0
    2.4778   -5.4182   -0.5074 H   0  0  0  0  0  0  0  0  0  0  0  0
    1.8390   -4.1588    1.5344 H   0  0  0  0  0  0  0  0  0  0  0  0
    0.6331   -1.9965    1.3330 H   0  0  0  0  0  0  0  0  0  0  0  0
   -4.2943    4.6872   -1.3033 H   0  0  0  0  0  0  0  0  0  0  0  0
   -6.7292    4.4836   -0.9123 H   0  0  0  0  0  0  0  0  0  0  0  0
   -7.7006    2.2699   -0.3470 H   0  0  0  0  0  0  0  0  0  0  0  0
   -6.2847    0.3003   -0.1736 H   0  0  0  0  0  0  0  0  0  0  0  0
   -4.8630   -1.3961   -0.9535 H   0  0  0  0  0  0  0  0  0  0  0  0
   -4.6417   -1.0197    0.7840 H   0  0  0  0  0  0  0  0  0  0  0  0
   -3.4083   -1.8889   -0.1036 H   0  0  0  0  0  0  0  0  0  0  0  0
    3.8829   -1.3526   -0.5288 H   0  0  0  0  0  0  0  0  0  0  0  0
    5.1283   -1.3070    1.5581 H   0  0  0  0  0  0  0  0  0  0  0  0
  1  2  1  0
  2  3  1  0
  3  4  2  0
  4  5  1  0
  5  6  2  0
  6  7  1  0
  7  8  1  0
  8  9  1  0
  9 10  1  0
 10 11  2  0
 11 12  1  0
 12 13  2  0
 13 14  1  0
 14 15  2  0
  9 16  2  0
 16 17  1  0
 17 18  2  0
 18 19  1  0
 19 20  2  0
 19 21  1  0
 21 22  2  0
 22 23  1  0
 23 24  2  0
 24 25  1  0
 25 26  2  0
 26 27  1  0
 27 28  1  0
 18 29  1  0
 29 30  2  0
  6 31  1  0
 31 32  2  0
 32  3  1  0
 29  8  1  0
 15 10  1  0
 27 17  1  0
 26 21  1  0
  1 33  1  0
  1 34  1  0
  1 35  1  0
  4 36  1  0
  5 37  1  0
  7 38  1  0
  7 39  1  0
 11 40  1  0
 12 41  1  0
 13 42  1  0
 14 43  1  0
 15 44  1  0
 22 45  1  0
 23 46  1  0
 24 47  1  0
 25 48  1  0
 28 49  1  0
 28 50  1  0
 28 51  1  0
 31 52  1  0
 32 53  1  0
M  END
$$$$
