
     RDKit          3D

 36 37  0  0  0  0  0  0  0  0999 V2000
   -7.2546   -0.4036    0.8485 C   0  0  0  0  0  0  0  0  0  0  0  0
   -6.3756    0.1805   -0.1049 O   0  0  0  0  0  0  0  0  0  0  0  0
   -5.0400    0.1509    0.1850 C   0  0  0  0  0  0  0  0  0  0  0  0
   -4.4595   -0.4004    1.3272 C   0  0  0  0  0  0  0  0  0  0  0  0
   -3.0701   -0.3620    1.4978 C   0  0  0  0  0  0  0  0  0  0  0  0
   -2.2482    0.2276    0.5283 C   0  0  0  0  0  0  0  0  0  0  0  0
   -0.7788    0.2383    0.7634 C   0  0  0  0  0  0  0  0  0  0  0  0
   -0.2531   -0.2327    1.7595 O   0  0  0  0  0  0  0  0  0  0  0  0
   -0.1320    0.8268   -0.2734 O   0  0  0  0  0  0  0  0  0  0  0  0
    1.2982    0.9056   -0.1455 C   0  0  0  0  0  0  0  0  0  0  0  0
    1.9481   -0.4025   -0.5937 C   0  0  0  0  0  0  0  0  0  0  0  0
    3.4522   -0.3311   -0.5443 C   0  0  0  0  0  0  0  0  0  0  0  0
    4.1306   -0.5742    0.6583 C   0  0  0  0  0  0  0  0  0  0  0  0
    5.5223   -0.4899    0.7126 C   0  0  0  0  0  0  0  0  0  0  0  0
    6.2373   -0.1601   -0.4319 C   0  0  0  0  0  0  0  0  0  0  0  0
    7.5955   -0.0888   -0.3344 O   0  0  0  0  0  0  0  0  0  0  0  0
    5.5830    0.0892   -1.6339 C   0  0  0  0  0  0  0  0  0  0  0  0
    4.1896    0.0055   -1.6883 C   0  0  0  0  0  0  0  0  0  0  0  0
   -2.8324    0.7804   -0.6167 C   0  0  0  0  0  0  0  0  0  0  0  0
   -4.2204    0.7393   -0.7821 C   0  0  0  0  0  0  0  0  0  0  0  0
   -8.2760   -0.2973    0.4705 H   0  0  0  0  0  0  0  0  0  0  0  0
   -7.1989    0.1194    1.8090 H   0  0  0  0  0  0  0  0  0  0  0  0
   -7.0532   -1.4733    0.9676 H   0  0  0  0  0  0  0  0  0  0  0  0
   -5.0549   -0.8675    2.1049 H   0  0  0  0  0  0  0  0  0  0  0  0
   -2.6320   -0.7965    2.3951 H   0  0  0  0  0  0  0  0  0  0  0  0
    1.6258    1.7304   -0.7888 H   0  0  0  0  0  0  0  0  0  0  0  0
    1.5816    1.1788    0.8788 H   0  0  0  0  0  0  0  0  0  0  0  0
    1.5994   -1.2385    0.0253 H   0  0  0  0  0  0  0  0  0  0  0  0
    1.6141   -0.6511   -1.6094 H   0  0  0  0  0  0  0  0  0  0  0  0
    3.5780   -0.8315    1.5601 H   0  0  0  0  0  0  0  0  0  0  0  0
    6.0457   -0.6808    1.6450 H   0  0  0  0  0  0  0  0  0  0  0  0
    7.9558    0.1392   -1.2066 H   0  0  0  0  0  0  0  0  0  0  0  0
    6.1345    0.3487   -2.5317 H   0  0  0  0  0  0  0  0  0  0  0  0
    3.6824    0.2033   -2.6301 H   0  0  0  0  0  0  0  0  0  0  0  0
   -2.2261    1.2469   -1.3887 H   0  0  0  0  0  0  0  0  0  0  0  0
   -4.6684    1.1711   -1.6744 H   0  0  0  0  0  0  0  0  0  0  0  0
  1  2  1  0
  2  3  1  0
  3  4  2  0
  4  5  1  0
  5  6  2  0
  6  7  1  0
  7  8  2  0
  7  9  1  0
  9 10  1  0
 10 11  1  0
 11 12  1  0
 12 13  2  0
 13 14  1  0
 14 15  2  0
 15 16  1  0
 15 17  1  0
 17 18  2  0
  6 19  1  0
 19 20  2  0
 20  3  1  0
 18 12  1  0
  1 21  1  0
  1 22  1  0
  1 23  1  0
  4 24  1  0
  5 25  1  0
 10 26  1  0
 10 27  1  0
 11 28  1  0
 11 29  1  0
 13 30  1  0
 14 31  1  0
 16 32  1  0
 17 33  1  0
 18 34  1  0
 19 35  1  0
 20 36  1  0
M  END
$$$$
