
     RDKit          3D

 64 69  0  0  0  0  0  0  0  0999 V2000
    6.2123   -1.2054    2.1959 F   0  0  0  0  0  0  0  0  0  0  0  0
    7.0905   -0.1986    1.9322 C   0  0  0  0  0  0  0  0  0  0  0  0
    8.3031   -0.6550    2.3591 F   0  0  0  0  0  0  0  0  0  0  0  0
    6.7672    0.8204    2.7768 F   0  0  0  0  0  0  0  0  0  0  0  0
    7.0815    0.2238    0.4778 C   0  0  0  0  0  0  0  0  0  0  0  0
    8.2952    0.2271   -0.2381 C   0  0  0  0  0  0  0  0  0  0  0  0
    8.3409    0.6120   -1.5773 C   0  0  0  0  0  0  0  0  0  0  0  0
    7.1754    1.0028   -2.2251 C   0  0  0  0  0  0  0  0  0  0  0  0
    5.9643    1.0109   -1.5352 C   0  0  0  0  0  0  0  0  0  0  0  0
    5.8983    0.6275   -0.1834 C   0  0  0  0  0  0  0  0  0  0  0  0
    4.5430    0.6441    0.4973 C   0  0  0  0  0  0  0  0  0  0  0  0
    3.7232   -0.6181    0.1717 C   0  0  0  0  0  0  0  0  0  0  0  0
    2.4421   -0.6853    0.8957 N   0  0  0  0  0  0  0  0  0  0  0  0
    1.7692   -1.9880    0.6782 C   0  0  0  0  0  0  0  0  0  0  0  0
    0.6212   -1.9627   -0.3514 C   0  0  0  0  0  0  0  0  0  0  0  0
   -0.4283   -1.0084    0.0476 N   0  0  0  0  0  0  0  0  0  0  0  0
   -1.6158   -0.9639   -0.6754 C   0  0  0  0  0  0  0  0  0  0  0  0
   -1.6355   -1.5139   -1.8653 N   0  0  0  0  0  0  0  0  0  0  0  0
   -2.7937   -1.4659   -2.6634 C   0  0  0  0  0  0  0  0  0  0  0  0
   -2.7508   -2.0535   -3.9288 C   0  0  0  0  0  0  0  0  0  0  0  0
   -3.8678   -2.0255   -4.7665 C   0  0  0  0  0  0  0  0  0  0  0  0
   -5.0439   -1.4052   -4.3439 C   0  0  0  0  0  0  0  0  0  0  0  0
   -5.1092   -0.8111   -3.0837 C   0  0  0  0  0  0  0  0  0  0  0  0
   -3.9828   -0.8469   -2.2569 C   0  0  0  0  0  0  0  0  0  0  0  0
   -3.9653   -0.2876   -0.9690 N   0  0  0  0  0  0  0  0  0  0  0  0
   -4.9695    0.3551   -0.2846 C   0  0  0  0  0  0  0  0  0  0  0  0
   -4.5109    0.6642    0.9823 C   0  0  0  0  0  0  0  0  0  0  0  0
   -5.3172    1.3131    2.0060 C   0  0  0  0  0  0  0  0  0  0  0  0
   -5.1631    0.9574    3.3530 C   0  0  0  0  0  0  0  0  0  0  0  0
   -5.9261    1.5798    4.3446 C   0  0  0  0  0  0  0  0  0  0  0  0
   -6.8478    2.5667    3.9995 C   0  0  0  0  0  0  0  0  0  0  0  0
   -7.0083    2.9306    2.6647 C   0  0  0  0  0  0  0  0  0  0  0  0
   -6.2470    2.3074    1.6724 C   0  0  0  0  0  0  0  0  0  0  0  0
   -3.1733    0.1894    1.0510 C   0  0  0  0  0  0  0  0  0  0  0  0
   -2.8395   -0.3510   -0.1787 C   0  0  0  0  0  0  0  0  0  0  0  0
    0.0478    0.1509    0.8172 C   0  0  0  0  0  0  0  0  0  0  0  0
    1.5420    0.4362    0.5449 C   0  0  0  0  0  0  0  0  0  0  0  0
    9.2215   -0.0744    0.2507 H   0  0  0  0  0  0  0  0  0  0  0  0
    9.2868    0.6071   -2.1140 H   0  0  0  0  0  0  0  0  0  0  0  0
    7.2076    1.3035   -3.2691 H   0  0  0  0  0  0  0  0  0  0  0  0
    5.0638    1.3221   -2.0617 H   0  0  0  0  0  0  0  0  0  0  0  0
    4.0099    1.5462    0.1709 H   0  0  0  0  0  0  0  0  0  0  0  0
    4.6559    0.7511    1.5810 H   0  0  0  0  0  0  0  0  0  0  0  0
    3.5544   -0.6912   -0.9110 H   0  0  0  0  0  0  0  0  0  0  0  0
    4.3293   -1.4901    0.4502 H   0  0  0  0  0  0  0  0  0  0  0  0
    1.3530   -2.2952    1.6466 H   0  0  0  0  0  0  0  0  0  0  0  0
    2.4876   -2.7700    0.4057 H   0  0  0  0  0  0  0  0  0  0  0  0
    0.1917   -2.9696   -0.4196 H   0  0  0  0  0  0  0  0  0  0  0  0
    1.0172   -1.6969   -1.3399 H   0  0  0  0  0  0  0  0  0  0  0  0
   -1.8356   -2.5359   -4.2611 H   0  0  0  0  0  0  0  0  0  0  0  0
   -3.8178   -2.4886   -5.7482 H   0  0  0  0  0  0  0  0  0  0  0  0
   -5.9111   -1.3874   -4.9987 H   0  0  0  0  0  0  0  0  0  0  0  0
   -6.0354   -0.3384   -2.7756 H   0  0  0  0  0  0  0  0  0  0  0  0
   -5.9389    0.5175   -0.7323 H   0  0  0  0  0  0  0  0  0  0  0  0
   -4.4578    0.1821    3.6433 H   0  0  0  0  0  0  0  0  0  0  0  0
   -5.8016    1.2916    5.3850 H   0  0  0  0  0  0  0  0  0  0  0  0
   -7.4405    3.0520    4.7701 H   0  0  0  0  0  0  0  0  0  0  0  0
   -7.7239    3.7029    2.3943 H   0  0  0  0  0  0  0  0  0  0  0  0
   -6.3784    2.6181    0.6391 H   0  0  0  0  0  0  0  0  0  0  0  0
   -2.5217    0.2462    1.9113 H   0  0  0  0  0  0  0  0  0  0  0  0
   -0.1052   -0.0403    1.8856 H   0  0  0  0  0  0  0  0  0  0  0  0
   -0.5142    1.0538    0.5534 H   0  0  0  0  0  0  0  0  0  0  0  0
    1.6455    0.6898   -0.5193 H   0  0  0  0  0  0  0  0  0  0  0  0
    1.8364    1.3203    1.1221 H   0  0  0  0  0  0  0  0  0  0  0  0
  1  2  1  0
  2  3  1  0
  2  4  1  0
  2  5  1  0
  5  6  2  0
  6  7  1  0
  7  8  2  0
  8  9  1  0
  9 10  2  0
 10 11  1  0
 11 12  1  0
 12 13  1  0
 13 14  1  0
 14 15  1  0
 15 16  1  0
 16 17  1  0
 17 18  2  0
 18 19  1  0
 19 20  2  0
 20 21  1  0
 21 22  2  0
 22 23  1  0
 23 24  2  0
 24 25  1  0
 25 26  1  0
 26 27  2  0
 27 28  1  0
 28 29  2  0
 29 30  1  0
 30 31  2  0
 31 32  1  0
 32 33  2  0
 27 34  1  0
 34 35  2  0
 16 36  1  0
 36 37  1  0
 10  5  1  0
 37 13  1  0
 35 17  1  0
 24 19  1  0
 35 25  1  0
 33 28  1  0
  6 38  1  0
  7 39  1  0
  8 40  1  0
  9 41  1  0
 11 42  1  0
 11 43  1  0
 12 44  1  0
 12 45  1  0
 14 46  1  0
 14 47  1  0
 15 48  1  0
 15 49  1  0
 20 50  1  0
 21 51  1  0
 22 52  1  0
 23 53  1  0
 26 54  1  0
 29 55  1  0
 30 56  1  0
 31 57  1  0
 32 58  1  0
 33 59  1  0
 34 60  1  0
 36 61  1  0
 36 62  1  0
 37 63  1  0
 37 64  1  0
M  END
$$$$
