
     RDKit          3D

 49 51  0  0  0  0  0  0  0  0999 V2000
    1.8574   -1.2904    0.9997 O   0  0  0  0  0  0  0  0  0  0  0  0
    2.2051   -0.5642    0.0792 C   0  0  0  0  0  0  0  0  0  0  0  0
    3.4356    0.0340   -0.0696 N   0  0  0  0  0  0  0  0  0  0  0  0
    4.5482   -0.2729    0.7895 C   0  0  0  0  0  0  0  0  0  0  0  0
    5.4094   -1.3511    0.1877 C   0  0  0  0  0  0  0  0  0  0  0  0
    6.4977   -1.0240   -0.6336 C   0  0  0  0  0  0  0  0  0  0  0  0
    7.2800   -2.0279   -1.2033 C   0  0  0  0  0  0  0  0  0  0  0  0
    6.9758   -3.3658   -0.9687 C   0  0  0  0  0  0  0  0  0  0  0  0
    5.8909   -3.7052   -0.1607 C   0  0  0  0  0  0  0  0  0  0  0  0
    5.1105   -2.7035    0.4136 C   0  0  0  0  0  0  0  0  0  0  0  0
    1.2345   -0.2499   -1.0829 C   0  0  0  0  0  0  0  0  0  0  0  0
    1.6038    0.4397   -2.0268 O   0  0  0  0  0  0  0  0  0  0  0  0
   -0.0251   -0.7857   -0.9349 N   0  0  0  0  0  0  0  0  0  0  0  0
   -1.0886   -0.4708   -1.8683 C   0  0  0  0  0  0  0  0  0  0  0  0
   -1.6763    0.9593   -1.7275 C   0  0  0  0  0  0  0  0  0  0  0  0
   -2.2806    1.3364   -2.9826 O   0  0  0  0  0  0  0  0  0  0  0  0
   -3.6426    0.9088   -2.9028 C   0  0  0  0  0  0  0  0  0  0  0  0
   -4.0328    1.1951   -1.4689 C   0  0  0  0  0  0  0  0  0  0  0  0
   -2.7582    1.1261   -0.7318 N   0  0  0  0  0  0  0  0  0  0  0  0
   -2.6978    0.2771    0.7050 S   0  0  0  0  0  6  0  0  0  0  0  0
   -3.2538   -1.0360    0.4558 O   0  0  0  0  0  0  0  0  0  0  0  0
   -1.3814    0.4325    1.2798 O   0  0  0  0  0  0  0  0  0  0  0  0
   -3.8324    1.1799    1.7287 C   0  0  0  0  0  0  0  0  0  0  0  0
   -5.0494    0.6075    2.1085 C   0  0  0  0  0  0  0  0  0  0  0  0
   -5.9190    1.3292    2.9271 C   0  0  0  0  0  0  0  0  0  0  0  0
   -5.5637    2.6068    3.3577 C   0  0  0  0  0  0  0  0  0  0  0  0
   -6.7418    3.5724    4.4719 Br  0  0  0  0  0  0  0  0  0  0  0  0
   -4.3457    3.1745    2.9825 C   0  0  0  0  0  0  0  0  0  0  0  0
   -3.4709    2.4577    2.1683 C   0  0  0  0  0  0  0  0  0  0  0  0
    3.6045    0.4905   -0.9623 H   0  0  0  0  0  0  0  0  0  0  0  0
    4.1932   -0.5756    1.7823 H   0  0  0  0  0  0  0  0  0  0  0  0
    5.1268    0.6492    0.9180 H   0  0  0  0  0  0  0  0  0  0  0  0
    6.7446    0.0156   -0.8309 H   0  0  0  0  0  0  0  0  0  0  0  0
    8.1241   -1.7642   -1.8368 H   0  0  0  0  0  0  0  0  0  0  0  0
    7.5816   -4.1444   -1.4162 H   0  0  0  0  0  0  0  0  0  0  0  0
    5.6484   -4.7476    0.0161 H   0  0  0  0  0  0  0  0  0  0  0  0
    4.2590   -2.9792    1.0350 H   0  0  0  0  0  0  0  0  0  0  0  0
   -0.2381   -1.1611   -0.0082 H   0  0  0  0  0  0  0  0  0  0  0  0
   -1.8621   -1.2385   -1.7663 H   0  0  0  0  0  0  0  0  0  0  0  0
   -0.6743   -0.5826   -2.8780 H   0  0  0  0  0  0  0  0  0  0  0  0
   -0.8844    1.6870   -1.5245 H   0  0  0  0  0  0  0  0  0  0  0  0
   -3.6865   -0.1587   -3.1383 H   0  0  0  0  0  0  0  0  0  0  0  0
   -4.2492    1.4565   -3.6292 H   0  0  0  0  0  0  0  0  0  0  0  0
   -4.4207    2.2173   -1.3741 H   0  0  0  0  0  0  0  0  0  0  0  0
   -4.7991    0.5021   -1.1163 H   0  0  0  0  0  0  0  0  0  0  0  0
   -5.3186   -0.3947    1.7902 H   0  0  0  0  0  0  0  0  0  0  0  0
   -6.8625    0.8846    3.2311 H   0  0  0  0  0  0  0  0  0  0  0  0
   -4.0638    4.1660    3.3290 H   0  0  0  0  0  0  0  0  0  0  0  0
   -2.5114    2.8884    1.8851 H   0  0  0  0  0  0  0  0  0  0  0  0
  1  2  2  0
  2  3  1  0
  3  4  1  0
  4  5  1  0
  5  6  2  0
  6  7  1  0
  7  8  2  0
  8  9  1  0
  9 10  2  0
  2 11  1  0
 11 12  2  0
 11 13  1  0
 13 14  1  0
 14 15  1  0
 15 16  1  0
 16 17  1  0
 17 18  1  0
 18 19  1  0
 19 20  1  0
 20 21  2  0
 20 22  2  0
 20 23  1  0
 23 24  2  0
 24 25  1  0
 25 26  2  0
 26 27  1  0
 26 28  1  0
 28 29  2  0
 10  5  1  0
 19 15  1  0
 29 23  1  0
  3 30  1  0
  4 31  1  0
  4 32  1  0
  6 33  1  0
  7 34  1  0
  8 35  1  0
  9 36  1  0
 10 37  1  0
 13 38  1  0
 14 39  1  0
 14 40  1  0
 15 41  1  0
 17 42  1  0
 17 43  1  0
 18 44  1  0
 18 45  1  0
 24 46  1  0
 25 47  1  0
 28 48  1  0
 29 49  1  0
M  END
$$$$
