
     RDKit          3D

 71 75  0  0  0  0  0  0  0  0999 V2000
   -4.3667    2.6402    2.1923 C   0  0  0  0  0  0  0  0  0  0  0  0
   -5.2982    1.4868    2.4215 C   0  0  0  0  0  0  0  0  0  0  0  0
   -6.0981    1.4289    3.5626 C   0  0  0  0  0  0  0  0  0  0  0  0
   -6.9725    0.3583    3.7573 C   0  0  0  0  0  0  0  0  0  0  0  0
   -7.0749   -0.6761    2.8133 C   0  0  0  0  0  0  0  0  0  0  0  0
   -8.0323   -1.8059    3.0819 C   0  0  0  0  0  0  0  0  0  0  0  0
   -6.2855   -0.6203    1.6455 C   0  0  0  0  0  0  0  0  0  0  0  0
   -6.3249   -1.6956    0.5805 C   0  0  0  0  0  0  0  0  0  0  0  0
   -5.3410   -2.7325    0.8219 N   0  0  0  0  0  0  0  0  0  0  0  0
   -5.6957   -3.9140    1.3874 N   0  0  0  0  0  0  0  0  0  0  0  0
   -4.6012   -4.6702    1.4744 N   0  0  0  0  0  0  0  0  0  0  0  0
   -3.5781   -3.9626    0.9251 C   0  0  0  0  0  0  0  0  0  0  0  0
   -2.1902   -4.2918    0.7532 C   0  0  0  0  0  0  0  0  0  0  0  0
   -1.6454   -5.3314    1.1073 O   0  0  0  0  0  0  0  0  0  0  0  0
   -1.4842   -3.2744    0.1201 N   0  0  0  0  0  0  0  0  0  0  0  0
   -2.0483   -2.0762   -0.2991 C   0  0  0  0  0  0  0  0  0  0  0  0
   -1.1224   -1.0783   -0.9820 C   0  0  0  0  0  0  0  0  0  0  0  0
   -0.0207   -0.5966   -0.0359 C   0  0  0  0  0  0  0  0  0  0  0  0
    1.1009    0.0542   -0.8317 C   0  0  0  0  0  0  0  0  0  0  0  0
    1.7718   -0.9472   -1.7062 N   0  0  0  0  0  0  0  0  0  0  0  0
    2.8032   -0.2900   -2.9079 S   0  0  0  0  0  6  0  0  0  0  0  0
    2.0147    0.6395   -3.6891 O   0  0  0  0  0  0  0  0  0  0  0  0
    3.5210   -1.3789   -3.5353 O   0  0  0  0  0  0  0  0  0  0  0  0
    3.9830    0.6338   -1.9532 C   0  0  0  0  0  0  0  0  0  0  0  0
    3.9608    2.0326   -1.9757 C   0  0  0  0  0  0  0  0  0  0  0  0
    4.8935    2.7450   -1.2210 C   0  0  0  0  0  0  0  0  0  0  0  0
    5.8536    2.0511   -0.4731 C   0  0  0  0  0  0  0  0  0  0  0  0
    7.0219    2.9648    0.5194 S   0  0  0  0  0  6  0  0  0  0  0  0
    6.4142    4.2443    0.8203 O   0  0  0  0  0  0  0  0  0  0  0  0
    7.4677    2.0823    1.5777 O   0  0  0  0  0  0  0  0  0  0  0  0
    8.3187    3.2193   -0.5497 N   0  0  0  0  0  0  0  0  0  0  0  0
    8.0961    4.1456   -1.6726 C   0  0  0  0  0  0  0  0  0  0  0  0
    9.1220    2.0411   -0.9194 C   0  0  0  0  0  0  0  0  0  0  0  0
    5.8678    0.6513   -0.4439 C   0  0  0  0  0  0  0  0  0  0  0  0
    4.9335   -0.0613   -1.1961 C   0  0  0  0  0  0  0  0  0  0  0  0
    0.8971   -2.0493   -2.1975 C   0  0  0  0  0  0  0  0  0  0  0  0
   -0.5617   -1.6230   -2.3033 C   0  0  0  0  0  0  0  0  0  0  0  0
   -3.3077   -1.7697   -0.1480 N   0  0  0  0  0  0  0  0  0  0  0  0
   -4.0184   -2.7414    0.4761 C   0  0  0  0  0  0  0  0  0  0  0  0
   -5.4073    0.4687    1.4670 C   0  0  0  0  0  0  0  0  0  0  0  0
   -4.8151    3.3505    1.4912 H   0  0  0  0  0  0  0  0  0  0  0  0
   -3.4130    2.2889    1.7858 H   0  0  0  0  0  0  0  0  0  0  0  0
   -4.1471    3.1645    3.1281 H   0  0  0  0  0  0  0  0  0  0  0  0
   -6.0454    2.2136    4.3141 H   0  0  0  0  0  0  0  0  0  0  0  0
   -7.5771    0.3365    4.6623 H   0  0  0  0  0  0  0  0  0  0  0  0
   -8.8049   -1.8428    2.3081 H   0  0  0  0  0  0  0  0  0  0  0  0
   -7.5011   -2.7604    3.1193 H   0  0  0  0  0  0  0  0  0  0  0  0
   -8.5385   -1.6820    4.0444 H   0  0  0  0  0  0  0  0  0  0  0  0
   -6.1205   -1.2671   -0.4085 H   0  0  0  0  0  0  0  0  0  0  0  0
   -7.3118   -2.1652    0.5106 H   0  0  0  0  0  0  0  0  0  0  0  0
   -0.5009   -3.4671    0.0080 H   0  0  0  0  0  0  0  0  0  0  0  0
   -1.7458   -0.2093   -1.2385 H   0  0  0  0  0  0  0  0  0  0  0  0
    0.3847   -1.4187    0.5663 H   0  0  0  0  0  0  0  0  0  0  0  0
   -0.4423    0.1243    0.6751 H   0  0  0  0  0  0  0  0  0  0  0  0
    1.8364    0.4588   -0.1301 H   0  0  0  0  0  0  0  0  0  0  0  0
    0.6999    0.8829   -1.4248 H   0  0  0  0  0  0  0  0  0  0  0  0
    3.2225    2.5703   -2.5675 H   0  0  0  0  0  0  0  0  0  0  0  0
    4.8665    3.8334   -1.2172 H   0  0  0  0  0  0  0  0  0  0  0  0
    7.5334    5.0290   -1.3579 H   0  0  0  0  0  0  0  0  0  0  0  0
    7.5660    3.6503   -2.4902 H   0  0  0  0  0  0  0  0  0  0  0  0
    9.0608    4.5025   -2.0488 H   0  0  0  0  0  0  0  0  0  0  0  0
    9.3702    1.4391   -0.0406 H   0  0  0  0  0  0  0  0  0  0  0  0
    8.5973    1.4207   -1.6513 H   0  0  0  0  0  0  0  0  0  0  0  0
   10.0714    2.3655   -1.3591 H   0  0  0  0  0  0  0  0  0  0  0  0
    6.5974    0.1146    0.1604 H   0  0  0  0  0  0  0  0  0  0  0  0
    4.9434   -1.1500   -1.1872 H   0  0  0  0  0  0  0  0  0  0  0  0
    1.2305   -2.4196   -3.1725 H   0  0  0  0  0  0  0  0  0  0  0  0
    1.0067   -2.8925   -1.5063 H   0  0  0  0  0  0  0  0  0  0  0  0
   -1.1658   -2.4594   -2.6746 H   0  0  0  0  0  0  0  0  0  0  0  0
   -0.6338   -0.8328   -3.0626 H   0  0  0  0  0  0  0  0  0  0  0  0
   -4.7902    0.5206    0.5702 H   0  0  0  0  0  0  0  0  0  0  0  0
  1  2  1  0
  2  3  2  0
  3  4  1  0
  4  5  2  0
  5  6  1  0
  5  7  1  0
  7  8  1  0
  8  9  1  0
  9 10  1  0
 10 11  2  0
 11 12  1  0
 12 13  1  0
 13 14  2  0
 13 15  1  0
 15 16  1  0
 16 17  1  0
 17 18  1  0
 18 19  1  0
 19 20  1  0
 20 21  1  0
 21 22  2  0
 21 23  2  0
 21 24  1  0
 24 25  2  0
 25 26  1  0
 26 27  2  0
 27 28  1  0
 28 29  2  0
 28 30  2  0
 28 31  1  0
 31 32  1  0
 31 33  1  0
 27 34  1  0
 34 35  2  0
 20 36  1  0
 36 37  1  0
 16 38  2  0
 38 39  1  0
  7 40  2  0
 40  2  1  0
 39  9  1  0
 39 12  2  0
 37 17  1  0
 35 24  1  0
  1 41  1  0
  1 42  1  0
  1 43  1  0
  3 44  1  0
  4 45  1  0
  6 46  1  0
  6 47  1  0
  6 48  1  0
  8 49  1  0
  8 50  1  0
 15 51  1  0
 17 52  1  0
 18 53  1  0
 18 54  1  0
 19 55  1  0
 19 56  1  0
 25 57  1  0
 26 58  1  0
 32 59  1  0
 32 60  1  0
 32 61  1  0
 33 62  1  0
 33 63  1  0
 33 64  1  0
 34 65  1  0
 35 66  1  0
 36 67  1  0
 36 68  1  0
 37 69  1  0
 37 70  1  0
 40 71  1  0
M  END
$$$$
