
     RDKit          3D

 57 60  0  0  0  0  0  0  0  0999 V2000
   -5.6062    3.3238    0.2408 C   0  0  0  0  0  0  0  0  0  0  0  0
   -4.6460    3.4407    1.2825 O   0  0  0  0  0  0  0  0  0  0  0  0
   -3.6865    2.4688    1.3628 C   0  0  0  0  0  0  0  0  0  0  0  0
   -2.7695    2.6469    2.3998 C   0  0  0  0  0  0  0  0  0  0  0  0
   -1.7331    1.7335    2.6068 C   0  0  0  0  0  0  0  0  0  0  0  0
   -1.6035    0.6284    1.7695 C   0  0  0  0  0  0  0  0  0  0  0  0
   -0.5857   -0.3417    1.8975 N   0  0  0  0  0  0  0  0  0  0  0  0
    0.4455   -0.3947    2.8143 C   0  0  0  0  0  0  0  0  0  0  0  0
    0.6442    0.4148    3.7181 O   0  0  0  0  0  0  0  0  0  0  0  0
    1.3214   -1.6298    2.6917 C   0  0  0  0  0  0  0  0  0  0  0  0
    1.8673   -1.8141    1.3544 N   0  0  0  0  0  0  0  0  0  0  0  0
    2.9718   -1.1539    0.8878 C   0  0  0  0  0  0  0  0  0  0  0  0
    3.1809   -1.5489   -0.4169 C   0  0  0  0  0  0  0  0  0  0  0  0
    4.4056   -0.9334   -1.4700 S   0  0  0  0  0  6  0  0  0  0  0  0
    4.8775   -2.0958   -2.1992 O   0  0  0  0  0  0  0  0  0  0  0  0
    5.2993   -0.1745   -0.6153 O   0  0  0  0  0  0  0  0  0  0  0  0
    3.5658    0.1562   -2.6080 C   0  0  0  0  0  0  0  0  0  0  0  0
    2.6475    1.1114   -1.8914 C   0  0  0  0  0  0  0  0  0  0  0  0
    3.1596    2.1818   -1.1439 C   0  0  0  0  0  0  0  0  0  0  0  0
    2.3008    3.0435   -0.4601 C   0  0  0  0  0  0  0  0  0  0  0  0
    0.9226    2.8548   -0.5270 C   0  0  0  0  0  0  0  0  0  0  0  0
    0.4014    1.8072   -1.2815 C   0  0  0  0  0  0  0  0  0  0  0  0
    1.2566    0.9378   -1.9586 C   0  0  0  0  0  0  0  0  0  0  0  0
    2.1810   -2.5054   -0.7536 C   0  0  0  0  0  0  0  0  0  0  0  0
    1.8741   -3.2568   -1.9092 C   0  0  0  0  0  0  0  0  0  0  0  0
    0.7797   -4.1269   -1.9051 C   0  0  0  0  0  0  0  0  0  0  0  0
   -0.0100   -4.2621   -0.7698 C   0  0  0  0  0  0  0  0  0  0  0  0
    0.2705   -3.5364    0.3905 C   0  0  0  0  0  0  0  0  0  0  0  0
    1.3691   -2.6594    0.3796 C   0  0  0  0  0  0  0  0  0  0  0  0
   -2.5273    0.4415    0.7178 C   0  0  0  0  0  0  0  0  0  0  0  0
   -2.3102   -0.6793   -0.0537 O   0  0  0  0  0  0  0  0  0  0  0  0
   -3.1549   -0.8721   -1.1809 C   0  0  0  0  0  0  0  0  0  0  0  0
   -3.5652    1.3614    0.5207 C   0  0  0  0  0  0  0  0  0  0  0  0
   -6.2889    4.1753    0.3178 H   0  0  0  0  0  0  0  0  0  0  0  0
   -6.1994    2.4099    0.3510 H   0  0  0  0  0  0  0  0  0  0  0  0
   -5.1275    3.3689   -0.7432 H   0  0  0  0  0  0  0  0  0  0  0  0
   -2.8615    3.5071    3.0598 H   0  0  0  0  0  0  0  0  0  0  0  0
   -1.0462    1.9174    3.4263 H   0  0  0  0  0  0  0  0  0  0  0  0
   -0.6252   -1.0511    1.1699 H   0  0  0  0  0  0  0  0  0  0  0  0
    2.1719   -1.5414    3.3775 H   0  0  0  0  0  0  0  0  0  0  0  0
    0.7507   -2.5178    2.9777 H   0  0  0  0  0  0  0  0  0  0  0  0
    3.5091   -0.4385    1.5004 H   0  0  0  0  0  0  0  0  0  0  0  0
    4.3308    0.7027   -3.1690 H   0  0  0  0  0  0  0  0  0  0  0  0
    3.0143   -0.4691   -3.3180 H   0  0  0  0  0  0  0  0  0  0  0  0
    4.2341    2.3448   -1.0704 H   0  0  0  0  0  0  0  0  0  0  0  0
    2.7084    3.8598    0.1311 H   0  0  0  0  0  0  0  0  0  0  0  0
    0.2541    3.5212    0.0128 H   0  0  0  0  0  0  0  0  0  0  0  0
   -0.6739    1.6635   -1.3346 H   0  0  0  0  0  0  0  0  0  0  0  0
    0.8240    0.1180   -2.5287 H   0  0  0  0  0  0  0  0  0  0  0  0
    2.4931   -3.1836   -2.8001 H   0  0  0  0  0  0  0  0  0  0  0  0
    0.5553   -4.7112   -2.7943 H   0  0  0  0  0  0  0  0  0  0  0  0
   -0.8524   -4.9506   -0.7800 H   0  0  0  0  0  0  0  0  0  0  0  0
   -0.3541   -3.6633    1.2694 H   0  0  0  0  0  0  0  0  0  0  0  0
   -4.1916   -1.0372   -0.8702 H   0  0  0  0  0  0  0  0  0  0  0  0
   -3.0776   -0.0340   -1.8814 H   0  0  0  0  0  0  0  0  0  0  0  0
   -2.8154   -1.7727   -1.7019 H   0  0  0  0  0  0  0  0  0  0  0  0
   -4.2761    1.2149   -0.2809 H   0  0  0  0  0  0  0  0  0  0  0  0
  1  2  1  0
  2  3  1  0
  3  4  2  0
  4  5  1  0
  5  6  2  0
  6  7  1  0
  7  8  1  0
  8  9  2  0
  8 10  1  0
 10 11  1  0
 11 12  1  0
 12 13  2  0
 13 14  1  0
 14 15  2  0
 14 16  2  0
 14 17  1  0
 17 18  1  0
 18 19  2  0
 19 20  1  0
 20 21  2  0
 21 22  1  0
 22 23  2  0
 13 24  1  0
 24 25  2  0
 25 26  1  0
 26 27  2  0
 27 28  1  0
 28 29  2  0
  6 30  1  0
 30 31  1  0
 31 32  1  0
 30 33  2  0
 33  3  1  0
 29 11  1  0
 23 18  1  0
 29 24  1  0
  1 34  1  0
  1 35  1  0
  1 36  1  0
  4 37  1  0
  5 38  1  0
  7 39  1  0
 10 40  1  0
 10 41  1  0
 12 42  1  0
 17 43  1  0
 17 44  1  0
 19 45  1  0
 20 46  1  0
 21 47  1  0
 22 48  1  0
 23 49  1  0
 25 50  1  0
 26 51  1  0
 27 52  1  0
 28 53  1  0
 32 54  1  0
 32 55  1  0
 32 56  1  0
 33 57  1  0
M  END
$$$$
