
     RDKit          3D

 56 61  0  0  0  0  0  0  0  0999 V2000
    5.1216   -0.4583    1.4686 C   0  0  0  0  0  0  0  0  0  0  0  0
    4.0916   -1.1822    0.6518 C   0  0  0  0  0  0  0  0  0  0  0  0
    4.3028   -2.5124    0.2659 C   0  0  0  0  0  0  0  0  0  0  0  0
    3.3687   -3.1714   -0.5315 C   0  0  0  0  0  0  0  0  0  0  0  0
    2.2183   -2.5013   -0.9301 C   0  0  0  0  0  0  0  0  0  0  0  0
    1.9923   -1.1641   -0.5849 C   0  0  0  0  0  0  0  0  0  0  0  0
    2.9453   -0.5077    0.2026 C   0  0  0  0  0  0  0  0  0  0  0  0
    0.7739   -0.5101   -1.1910 C   0  0  0  0  0  0  0  0  0  0  0  0
   -0.4082   -1.4774   -1.1598 C   0  0  0  0  0  0  0  0  0  0  0  0
   -0.0140   -2.9540   -1.2577 C   0  0  0  0  0  0  0  0  0  0  0  0
    1.3214   -3.1678   -1.7248 O   0  0  0  0  0  0  0  0  0  0  0  0
   -1.0952   -1.1407    0.1850 C   0  0  0  0  0  0  0  0  0  0  0  0
   -2.4923   -1.7210    0.3575 C   0  0  0  0  0  0  0  0  0  0  0  0
   -2.8934   -2.1588    1.6307 C   0  0  0  0  0  0  0  0  0  0  0  0
   -4.1634   -2.6995    1.8428 C   0  0  0  0  0  0  0  0  0  0  0  0
   -5.0577   -2.8136    0.7839 C   0  0  0  0  0  0  0  0  0  0  0  0
   -4.6812   -2.3860   -0.4855 C   0  0  0  0  0  0  0  0  0  0  0  0
   -3.4101   -1.8444   -0.6978 C   0  0  0  0  0  0  0  0  0  0  0  0
   -0.9295    0.4199    0.2921 C   0  0  0  0  0  0  0  0  0  0  0  0
   -2.1511    1.1666   -0.2738 C   0  0  0  0  0  0  0  0  0  0  0  0
   -0.6620    0.8187    1.7559 C   0  0  0  0  0  0  0  0  0  0  0  0
   -0.9038    0.0734    2.7096 O   0  0  0  0  0  0  0  0  0  0  0  0
   -0.2787    2.0893    2.0705 N   0  0  0  0  0  0  0  0  0  0  0  0
    0.0230    3.1883    1.2563 C   0  0  0  0  0  0  0  0  0  0  0  0
   -0.1022    4.4386    1.8912 C   0  0  0  0  0  0  0  0  0  0  0  0
    0.1225    5.6190    1.1909 C   0  0  0  0  0  0  0  0  0  0  0  0
   -0.0277    6.7930    1.8178 F   0  0  0  0  0  0  0  0  0  0  0  0
    0.4916    5.5780   -0.1408 C   0  0  0  0  0  0  0  0  0  0  0  0
    0.7089    6.7120   -0.8190 F   0  0  0  0  0  0  0  0  0  0  0  0
    0.6582    4.3556   -0.7769 C   0  0  0  0  0  0  0  0  0  0  0  0
    0.4355    3.1446   -0.0856 C   0  0  0  0  0  0  0  0  0  0  0  0
    0.8177    1.9163   -0.8268 C   0  0  0  0  0  0  0  0  0  0  0  0
    1.6469    2.0398   -1.7281 O   0  0  0  0  0  0  0  0  0  0  0  0
    0.2928    0.6866   -0.4927 N   0  0  0  0  0  0  0  0  0  0  0  0
    4.6522    0.2992    2.1051 H   0  0  0  0  0  0  0  0  0  0  0  0
    5.8454    0.0310    0.8097 H   0  0  0  0  0  0  0  0  0  0  0  0
    5.6547   -1.1510    2.1283 H   0  0  0  0  0  0  0  0  0  0  0  0
    5.2015   -3.0395    0.5777 H   0  0  0  0  0  0  0  0  0  0  0  0
    3.5346   -4.2003   -0.8355 H   0  0  0  0  0  0  0  0  0  0  0  0
    2.8180    0.5408    0.4573 H   0  0  0  0  0  0  0  0  0  0  0  0
    1.0192   -0.2534   -2.2300 H   0  0  0  0  0  0  0  0  0  0  0  0
   -1.0631   -1.2216   -2.0016 H   0  0  0  0  0  0  0  0  0  0  0  0
   -0.1360   -3.4862   -0.3050 H   0  0  0  0  0  0  0  0  0  0  0  0
   -0.6838   -3.4570   -1.9650 H   0  0  0  0  0  0  0  0  0  0  0  0
   -0.4695   -1.6048    0.9641 H   0  0  0  0  0  0  0  0  0  0  0  0
   -2.2144   -2.0855    2.4795 H   0  0  0  0  0  0  0  0  0  0  0  0
   -4.4504   -3.0315    2.8373 H   0  0  0  0  0  0  0  0  0  0  0  0
   -6.0458   -3.2349    0.9480 H   0  0  0  0  0  0  0  0  0  0  0  0
   -5.3793   -2.4727   -1.3145 H   0  0  0  0  0  0  0  0  0  0  0  0
   -3.1663   -1.5155   -1.7041 H   0  0  0  0  0  0  0  0  0  0  0  0
   -2.3431    0.8831   -1.3143 H   0  0  0  0  0  0  0  0  0  0  0  0
   -3.0498    0.9630    0.3187 H   0  0  0  0  0  0  0  0  0  0  0  0
   -2.0379    2.2529   -0.2691 H   0  0  0  0  0  0  0  0  0  0  0  0
   -0.3367    2.2427    3.0725 H   0  0  0  0  0  0  0  0  0  0  0  0
   -0.4032    4.5178    2.9330 H   0  0  0  0  0  0  0  0  0  0  0  0
    0.9912    4.3542   -1.8133 H   0  0  0  0  0  0  0  0  0  0  0  0
  1  2  1  0
  2  3  2  0
  3  4  1  0
  4  5  2  0
  5  6  1  0
  6  7  2  0
  6  8  1  0
  8  9  1  0
  9 10  1  0
 10 11  1  0
  9 12  1  0
 12 13  1  0
 13 14  2  0
 14 15  1  0
 15 16  2  0
 16 17  1  0
 17 18  2  0
 12 19  1  0
 19 20  1  0
 19 21  1  0
 21 22  2  0
 21 23  1  0
 23 24  1  0
 24 25  2  0
 25 26  1  0
 26 27  1  0
 26 28  2  0
 28 29  1  0
 28 30  1  0
 30 31  2  0
 31 32  1  0
 32 33  2  0
 32 34  1  0
  7  2  1  0
 34  8  1  0
 11  5  1  0
 18 13  1  0
 34 19  1  0
 31 24  1  0
  1 35  1  0
  1 36  1  0
  1 37  1  0
  3 38  1  0
  4 39  1  0
  7 40  1  0
  8 41  1  0
  9 42  1  0
 10 43  1  0
 10 44  1  0
 12 45  1  0
 14 46  1  0
 15 47  1  0
 16 48  1  0
 17 49  1  0
 18 50  1  0
 20 51  1  0
 20 52  1  0
 20 53  1  0
 23 54  1  0
 25 55  1  0
 30 56  1  0
M  END
$$$$
