
     RDKit          3D

 45 46  0  0  0  0  0  0  0  0999 V2000
    6.5915   -3.2500    0.7743 C   0  0  0  0  0  0  0  0  0  0  0  0
    5.8628   -2.3761   -0.0799 O   0  0  0  0  0  0  0  0  0  0  0  0
    4.9448   -1.5534    0.5130 C   0  0  0  0  0  0  0  0  0  0  0  0
    4.6463   -1.5057    1.8753 C   0  0  0  0  0  0  0  0  0  0  0  0
    3.6780   -0.6140    2.3489 C   0  0  0  0  0  0  0  0  0  0  0  0
    2.9928    0.2245    1.4611 C   0  0  0  0  0  0  0  0  0  0  0  0
    1.9962    1.1542    2.0338 C   0  0  0  0  0  0  0  0  0  0  0  0
    2.2950    1.8326    3.0141 O   0  0  0  0  0  0  0  0  0  0  0  0
    0.6189    1.2407    1.4803 C   0  0  0  0  0  0  0  0  0  0  0  0
    0.0206    0.2763    0.7647 C   0  0  0  0  0  0  0  0  0  0  0  0
   -1.3545    0.3864    0.2558 C   0  0  0  0  0  0  0  0  0  0  0  0
   -2.3998    0.8782    1.0529 C   0  0  0  0  0  0  0  0  0  0  0  0
   -3.7030    0.9492    0.5542 C   0  0  0  0  0  0  0  0  0  0  0  0
   -4.7861    1.4167    1.2531 O   0  0  0  0  0  0  0  0  0  0  0  0
   -4.5919    1.7459    2.6216 C   0  0  0  0  0  0  0  0  0  0  0  0
   -3.9485    0.5239   -0.7624 C   0  0  0  0  0  0  0  0  0  0  0  0
   -5.2371    0.5504   -1.2512 O   0  0  0  0  0  0  0  0  0  0  0  0
   -5.4836    1.8014   -1.8906 C   0  0  0  0  0  0  0  0  0  0  0  0
   -2.9224   -0.0053   -1.5630 C   0  0  0  0  0  0  0  0  0  0  0  0
   -3.2826   -0.4131   -2.8217 O   0  0  0  0  0  0  0  0  0  0  0  0
   -2.3077   -1.1038   -3.5899 C   0  0  0  0  0  0  0  0  0  0  0  0
   -1.6269   -0.0657   -1.0441 C   0  0  0  0  0  0  0  0  0  0  0  0
    3.3126    0.1949    0.1015 C   0  0  0  0  0  0  0  0  0  0  0  0
    2.7027    1.0498   -0.7729 O   0  0  0  0  0  0  0  0  0  0  0  0
    4.2774   -0.6973   -0.3702 C   0  0  0  0  0  0  0  0  0  0  0  0
    7.1893   -2.6865    1.4983 H   0  0  0  0  0  0  0  0  0  0  0  0
    5.9237   -3.9575    1.2768 H   0  0  0  0  0  0  0  0  0  0  0  0
    7.2809   -3.8280    0.1513 H   0  0  0  0  0  0  0  0  0  0  0  0
    5.1493   -2.1413    2.5969 H   0  0  0  0  0  0  0  0  0  0  0  0
    3.4596   -0.5713    3.4145 H   0  0  0  0  0  0  0  0  0  0  0  0
    0.1031    2.1564    1.7520 H   0  0  0  0  0  0  0  0  0  0  0  0
    0.5395   -0.6433    0.5083 H   0  0  0  0  0  0  0  0  0  0  0  0
   -2.1769    1.1927    2.0672 H   0  0  0  0  0  0  0  0  0  0  0  0
   -4.2413    0.8797    3.1924 H   0  0  0  0  0  0  0  0  0  0  0  0
   -3.9085    2.5946    2.7284 H   0  0  0  0  0  0  0  0  0  0  0  0
   -5.5601    2.0457    3.0339 H   0  0  0  0  0  0  0  0  0  0  0  0
   -5.3975    2.6353   -1.1855 H   0  0  0  0  0  0  0  0  0  0  0  0
   -6.5097    1.7862   -2.2703 H   0  0  0  0  0  0  0  0  0  0  0  0
   -4.8115    1.9547   -2.7420 H   0  0  0  0  0  0  0  0  0  0  0  0
   -2.7836   -1.4285   -4.5202 H   0  0  0  0  0  0  0  0  0  0  0  0
   -1.9506   -1.9985   -3.0691 H   0  0  0  0  0  0  0  0  0  0  0  0
   -1.4771   -0.4420   -3.8555 H   0  0  0  0  0  0  0  0  0  0  0  0
   -0.8052   -0.4506   -1.6398 H   0  0  0  0  0  0  0  0  0  0  0  0
    3.1505    0.9997   -1.6346 H   0  0  0  0  0  0  0  0  0  0  0  0
    4.5309   -0.7385   -1.4260 H   0  0  0  0  0  0  0  0  0  0  0  0
  1  2  1  0
  2  3  1  0
  3  4  2  0
  4  5  1  0
  5  6  2  0
  6  7  1  0
  7  8  2  0
  7  9  1  0
  9 10  2  0
 10 11  1  0
 11 12  2  0
 12 13  1  0
 13 14  1  0
 14 15  1  0
 13 16  2  0
 16 17  1  0
 17 18  1  0
 16 19  1  0
 19 20  1  0
 20 21  1  0
 19 22  2  0
  6 23  1  0
 23 24  1  0
 23 25  2  0
 25  3  1  0
 22 11  1  0
  1 26  1  0
  1 27  1  0
  1 28  1  0
  4 29  1  0
  5 30  1  0
  9 31  1  0
 10 32  1  0
 12 33  1  0
 15 34  1  0
 15 35  1  0
 15 36  1  0
 18 37  1  0
 18 38  1  0
 18 39  1  0
 21 40  1  0
 21 41  1  0
 21 42  1  0
 22 43  1  0
 24 44  1  0
 25 45  1  0
M  END
$$$$
