
     RDKit          3D

 61 65  0  0  0  0  0  0  0  0999 V2000
   -8.7236   -0.4265   -0.4843 C   0  0  0  0  0  0  0  0  0  0  0  0
   -7.7432   -0.5053    0.5393 O   0  0  0  0  0  0  0  0  0  0  0  0
   -6.4928   -0.0128    0.2632 C   0  0  0  0  0  0  0  0  0  0  0  0
   -6.0751    0.4151   -1.0020 C   0  0  0  0  0  0  0  0  0  0  0  0
   -4.7834    0.9201   -1.1872 C   0  0  0  0  0  0  0  0  0  0  0  0
   -3.8843    0.9988   -0.1148 C   0  0  0  0  0  0  0  0  0  0  0  0
   -2.5452    1.5610   -0.2660 C   0  0  0  0  0  0  0  0  0  0  0  0
   -1.6364    1.8008    0.6585 N   0  0  0  0  0  0  0  0  0  0  0  0
   -0.5795    2.3703   -0.0245 C   0  0  0  0  0  0  0  0  0  0  0  0
    0.6155    2.8352    0.7271 C   0  0  0  0  0  0  0  0  0  0  0  0
    1.8694    2.4397    0.1093 N   0  0  0  0  0  0  0  0  0  0  0  0
    2.4969    1.2216    0.2026 C   0  0  0  0  0  0  0  0  0  0  0  0
    1.8192   -0.1381    1.0335 S   0  0  0  0  0  0  0  0  0  0  0  0
    3.2901   -0.8239    1.8445 C   0  0  0  0  0  0  0  0  0  0  0  0
    3.8445   -2.0461    1.1556 C   0  0  0  0  0  0  0  0  0  0  0  0
    4.8332   -1.9224    0.1682 C   0  0  0  0  0  0  0  0  0  0  0  0
    5.3741   -3.0544   -0.4464 C   0  0  0  0  0  0  0  0  0  0  0  0
    4.9296   -4.3327   -0.0966 C   0  0  0  0  0  0  0  0  0  0  0  0
    5.5325   -5.5526   -0.7231 C   0  0  0  0  0  0  0  0  0  0  0  0
    3.9345   -4.4605    0.8804 C   0  0  0  0  0  0  0  0  0  0  0  0
    3.3915   -3.3279    1.4963 C   0  0  0  0  0  0  0  0  0  0  0  0
    3.6566    1.2178   -0.4143 N   0  0  0  0  0  0  0  0  0  0  0  0
    3.8014    2.4797   -0.9261 C   0  0  0  0  0  0  0  0  0  0  0  0
    4.8493    3.0141   -1.6760 C   0  0  0  0  0  0  0  0  0  0  0  0
    4.7087    4.3420   -2.0416 C   0  0  0  0  0  0  0  0  0  0  0  0
    3.6547    5.1272   -1.7126 N   0  0  0  0  0  0  0  0  0  0  0  0
    2.6431    4.6097   -0.9779 C   0  0  0  0  0  0  0  0  0  0  0  0
    2.7098    3.2771   -0.5968 C   0  0  0  0  0  0  0  0  0  0  0  0
   -0.9131    2.4676   -1.3640 C   0  0  0  0  0  0  0  0  0  0  0  0
   -0.2656    3.0044   -2.5747 C   0  0  0  0  0  0  0  0  0  0  0  0
   -2.1639    1.9391   -1.5244 O   0  0  0  0  0  0  0  0  0  0  0  0
   -4.3018    0.5483    1.1516 C   0  0  0  0  0  0  0  0  0  0  0  0
   -5.5936    0.0451    1.3502 C   0  0  0  0  0  0  0  0  0  0  0  0
   -6.0774   -0.3819    2.5665 O   0  0  0  0  0  0  0  0  0  0  0  0
   -5.1508   -0.5032    3.6366 C   0  0  0  0  0  0  0  0  0  0  0  0
   -8.4814   -1.1062   -1.3074 H   0  0  0  0  0  0  0  0  0  0  0  0
   -9.6782   -0.7469   -0.0556 H   0  0  0  0  0  0  0  0  0  0  0  0
   -8.8498    0.6008   -0.8427 H   0  0  0  0  0  0  0  0  0  0  0  0
   -6.7315    0.3753   -1.8666 H   0  0  0  0  0  0  0  0  0  0  0  0
   -4.4944    1.2655   -2.1795 H   0  0  0  0  0  0  0  0  0  0  0  0
    0.6140    2.4484    1.7523 H   0  0  0  0  0  0  0  0  0  0  0  0
    0.5969    3.9274    0.8092 H   0  0  0  0  0  0  0  0  0  0  0  0
    2.9950   -1.0973    2.8650 H   0  0  0  0  0  0  0  0  0  0  0  0
    4.0729   -0.0633    1.9634 H   0  0  0  0  0  0  0  0  0  0  0  0
    5.1905   -0.9379   -0.1264 H   0  0  0  0  0  0  0  0  0  0  0  0
    6.1451   -2.9268   -1.1983 H   0  0  0  0  0  0  0  0  0  0  0  0
    6.1716   -5.2924   -1.5758 H   0  0  0  0  0  0  0  0  0  0  0  0
    4.7501   -6.2218   -1.0912 H   0  0  0  0  0  0  0  0  0  0  0  0
    6.1433   -6.0857    0.0130 H   0  0  0  0  0  0  0  0  0  0  0  0
    3.5767   -5.4456    1.1719 H   0  0  0  0  0  0  0  0  0  0  0  0
    2.6140   -3.4538    2.2520 H   0  0  0  0  0  0  0  0  0  0  0  0
    5.7151    2.4251   -1.9502 H   0  0  0  0  0  0  0  0  0  0  0  0
    5.4782    4.8349   -2.6307 H   0  0  0  0  0  0  0  0  0  0  0  0
    1.8230    5.2778   -0.7372 H   0  0  0  0  0  0  0  0  0  0  0  0
    0.0879    4.0245   -2.3986 H   0  0  0  0  0  0  0  0  0  0  0  0
   -0.9671    3.0386   -3.4170 H   0  0  0  0  0  0  0  0  0  0  0  0
    0.5852    2.3798   -2.8716 H   0  0  0  0  0  0  0  0  0  0  0  0
   -3.5953    0.6188    1.9785 H   0  0  0  0  0  0  0  0  0  0  0  0
   -4.7424    0.4726    3.9163 H   0  0  0  0  0  0  0  0  0  0  0  0
   -4.3518   -1.2153    3.3905 H   0  0  0  0  0  0  0  0  0  0  0  0
   -5.6924   -0.8889    4.5067 H   0  0  0  0  0  0  0  0  0  0  0  0
  1  2  1  0
  2  3  1  0
  3  4  2  0
  4  5  1  0
  5  6  2  0
  6  7  1  0
  7  8  2  0
  8  9  1  0
  9 10  1  0
 10 11  1  0
 11 12  1  0
 12 13  1  0
 13 14  1  0
 14 15  1  0
 15 16  2  0
 16 17  1  0
 17 18  2  0
 18 19  1  0
 18 20  1  0
 20 21  2  0
 12 22  2  0
 22 23  1  0
 23 24  2  0
 24 25  1  0
 25 26  2  0
 26 27  1  0
 27 28  2  0
  9 29  2  0
 29 30  1  0
 29 31  1  0
  6 32  1  0
 32 33  2  0
 33 34  1  0
 34 35  1  0
 33  3  1  0
 31  7  1  0
 28 11  1  0
 21 15  1  0
 28 23  1  0
  1 36  1  0
  1 37  1  0
  1 38  1  0
  4 39  1  0
  5 40  1  0
 10 41  1  0
 10 42  1  0
 14 43  1  0
 14 44  1  0
 16 45  1  0
 17 46  1  0
 19 47  1  0
 19 48  1  0
 19 49  1  0
 20 50  1  0
 21 51  1  0
 24 52  1  0
 25 53  1  0
 27 54  1  0
 30 55  1  0
 30 56  1  0
 30 57  1  0
 32 58  1  0
 35 59  1  0
 35 60  1  0
 35 61  1  0
M  END
$$$$
