
     RDKit          3D

 41 42  0  0  0  0  0  0  0  0999 V2000
    3.8491    2.6777    1.9490 C   0  0  0  0  0  0  0  0  0  0  0  0
    2.3623    2.3818    1.9425 C   0  0  0  0  0  0  0  0  0  0  0  0
    2.0125    1.8935    0.6410 O   0  0  0  0  0  0  0  0  0  0  0  0
    0.6912    1.5521    0.5038 C   0  0  0  0  0  0  0  0  0  0  0  0
   -0.1355    1.6567    1.4035 O   0  0  0  0  0  0  0  0  0  0  0  0
    0.4114    0.9981   -0.9197 C   0  0  0  0  0  0  0  0  0  0  0  0
   -0.8369    0.2316   -0.9628 N   0  0  0  0  0  0  0  0  0  0  0  0
   -2.0592    0.8534   -0.9734 C   0  0  0  0  0  0  0  0  0  0  0  0
   -2.1858    2.0586   -1.1381 O   0  0  0  0  0  0  0  0  0  0  0  0
   -3.2507   -0.0091   -0.7427 C   0  0  0  0  0  0  0  0  0  0  0  0
   -4.4219    0.5934   -0.2617 C   0  0  0  0  0  0  0  0  0  0  0  0
   -5.5666   -0.1722   -0.0333 C   0  0  0  0  0  0  0  0  0  0  0  0
   -5.5481   -1.5420   -0.2923 C   0  0  0  0  0  0  0  0  0  0  0  0
   -4.3872   -2.1388   -0.7834 C   0  0  0  0  0  0  0  0  0  0  0  0
   -4.3757   -3.8276   -1.1174 Cl  0  0  0  0  0  0  0  0  0  0  0  0
   -3.2379   -1.3828   -1.0136 C   0  0  0  0  0  0  0  0  0  0  0  0
    1.4571   -0.0077   -1.3120 N   0  0  0  0  0  0  0  0  0  0  0  0
    1.7159   -1.0644   -0.5043 C   0  0  0  0  0  0  0  0  0  0  0  0
    0.8727   -1.5940    0.3557 N   0  0  0  0  0  0  0  0  0  0  0  0
    1.4075   -2.6637    1.0388 N   0  0  0  0  0  0  0  0  0  0  0  0
    2.6441   -2.9167    0.6685 C   0  0  0  0  0  0  0  0  0  0  0  0
    3.4901   -4.0075    1.2130 C   0  0  0  0  0  0  0  0  0  0  0  0
    3.2436   -1.8545   -0.5394 S   0  0  0  0  0  0  0  0  0  0  0  0
    0.5139    2.2648   -1.8390 C   0  0  0  0  0  0  0  0  0  0  0  0
   -0.0733    2.0742   -3.0468 F   0  0  0  0  0  0  0  0  0  0  0  0
    0.0310    3.4033   -1.3017 F   0  0  0  0  0  0  0  0  0  0  0  0
    1.8333    2.5098   -2.1158 F   0  0  0  0  0  0  0  0  0  0  0  0
    4.1678    3.0551    2.9246 H   0  0  0  0  0  0  0  0  0  0  0  0
    4.0976    3.4204    1.1836 H   0  0  0  0  0  0  0  0  0  0  0  0
    4.4224    1.7747    1.7140 H   0  0  0  0  0  0  0  0  0  0  0  0
    1.8001    3.2977    2.1555 H   0  0  0  0  0  0  0  0  0  0  0  0
    2.1338    1.6213    2.6976 H   0  0  0  0  0  0  0  0  0  0  0  0
   -0.7753   -0.6644   -0.4940 H   0  0  0  0  0  0  0  0  0  0  0  0
   -4.4423    1.6633   -0.0590 H   0  0  0  0  0  0  0  0  0  0  0  0
   -6.4700    0.3007    0.3446 H   0  0  0  0  0  0  0  0  0  0  0  0
   -6.4408   -2.1366   -0.1150 H   0  0  0  0  0  0  0  0  0  0  0  0
   -2.3557   -1.8685   -1.4199 H   0  0  0  0  0  0  0  0  0  0  0  0
    2.2844    0.4495   -1.6951 H   0  0  0  0  0  0  0  0  0  0  0  0
    3.7901   -4.7005    0.4207 H   0  0  0  0  0  0  0  0  0  0  0  0
    2.9404   -4.5778    1.9687 H   0  0  0  0  0  0  0  0  0  0  0  0
    4.3906   -3.6030    1.6859 H   0  0  0  0  0  0  0  0  0  0  0  0
  1  2  1  0
  2  3  1  0
  3  4  1  0
  4  5  2  0
  4  6  1  0
  6  7  1  0
  7  8  1  0
  8  9  2  0
  8 10  1  0
 10 11  2  0
 11 12  1  0
 12 13  2  0
 13 14  1  0
 14 15  1  0
 14 16  2  0
  6 17  1  0
 17 18  1  0
 18 19  2  0
 19 20  1  0
 20 21  2  0
 21 22  1  0
 21 23  1  0
  6 24  1  0
 24 25  1  0
 24 26  1  0
 24 27  1  0
 16 10  1  0
 23 18  1  0
  1 28  1  0
  1 29  1  0
  1 30  1  0
  2 31  1  0
  2 32  1  0
  7 33  1  0
 11 34  1  0
 12 35  1  0
 13 36  1  0
 16 37  1  0
 17 38  1  0
 22 39  1  0
 22 40  1  0
 22 41  1  0
M  END
$$$$
