
     RDKit          3D

 56 60  0  0  0  0  0  0  0  0999 V2000
   -6.0713   -2.4517   -2.7537 C   0  0  0  0  0  0  0  0  0  0  0  0
   -5.2889   -1.8916   -1.6822 N   0  0  0  0  0  0  0  0  0  0  0  0
   -4.4316   -2.5621   -0.8522 C   0  0  0  0  0  0  0  0  0  0  0  0
   -3.9805   -4.2181   -1.0421 S   0  0  0  0  0  0  0  0  0  0  0  0
   -3.0033   -4.4957    0.4653 C   0  0  0  0  0  0  0  0  0  0  0  0
   -1.5705   -4.0086    0.2998 C   0  0  0  0  0  0  0  0  0  0  0  0
   -0.6705   -4.7952    0.0137 O   0  0  0  0  0  0  0  0  0  0  0  0
   -1.4228   -2.6506    0.5233 N   0  0  0  0  0  0  0  0  0  0  0  0
   -0.2345   -1.8963    0.5551 C   0  0  0  0  0  0  0  0  0  0  0  0
   -0.3776   -0.5103    0.6748 C   0  0  0  0  0  0  0  0  0  0  0  0
    0.7400    0.3306    0.7473 C   0  0  0  0  0  0  0  0  0  0  0  0
    2.0316   -0.2252    0.7063 C   0  0  0  0  0  0  0  0  0  0  0  0
    3.2208    0.4802    0.7865 N   0  0  0  0  0  0  0  0  0  0  0  0
    4.2315   -0.3542    0.7229 C   0  0  0  0  0  0  0  0  0  0  0  0
    5.8868    0.2008    0.8311 S   0  0  0  0  0  0  0  0  0  0  0  0
    5.6287    1.9972    0.7513 C   0  0  0  0  0  0  0  0  0  0  0  0
    6.9497    2.7043    0.9742 C   0  0  0  0  0  0  0  0  0  0  0  0
    7.5558    3.2730    0.0685 O   0  0  0  0  0  0  0  0  0  0  0  0
    7.3853    2.6703    2.2890 N   0  0  0  0  0  0  0  0  0  0  0  0
    8.6542    3.1972    2.6807 C   0  0  0  0  0  0  0  0  0  0  0  0
    9.8658    2.3070    2.7291 C   0  0  0  0  0  0  0  0  0  0  0  0
    9.2658    2.8258    4.0029 C   0  0  0  0  0  0  0  0  0  0  0  0
    3.8371   -2.0104    0.5628 S   0  0  0  0  0  0  0  0  0  0  0  0
    2.1608   -1.6095    0.5826 C   0  0  0  0  0  0  0  0  0  0  0  0
    1.0434   -2.4628    0.5006 C   0  0  0  0  0  0  0  0  0  0  0  0
   -3.9993   -1.7555    0.0860 N   0  0  0  0  0  0  0  0  0  0  0  0
   -4.5371   -0.5207   -0.1481 N   0  0  0  0  0  0  0  0  0  0  0  0
   -5.2963   -0.5859   -1.2317 C   0  0  0  0  0  0  0  0  0  0  0  0
   -6.0354    0.5400   -1.8020 C   0  0  0  0  0  0  0  0  0  0  0  0
   -6.0667    0.7940   -3.1818 C   0  0  0  0  0  0  0  0  0  0  0  0
   -6.7859    1.8808   -3.6886 C   0  0  0  0  0  0  0  0  0  0  0  0
   -7.4684    2.7327   -2.8213 C   0  0  0  0  0  0  0  0  0  0  0  0
   -7.4248    2.5058   -1.4467 C   0  0  0  0  0  0  0  0  0  0  0  0
   -6.7083    1.4185   -0.9405 C   0  0  0  0  0  0  0  0  0  0  0  0
   -6.3760   -3.4705   -2.4983 H   0  0  0  0  0  0  0  0  0  0  0  0
   -5.4612   -2.4535   -3.6599 H   0  0  0  0  0  0  0  0  0  0  0  0
   -6.9775   -1.8582   -2.9045 H   0  0  0  0  0  0  0  0  0  0  0  0
   -2.9724   -5.5734    0.6618 H   0  0  0  0  0  0  0  0  0  0  0  0
   -3.4679   -4.0316    1.3416 H   0  0  0  0  0  0  0  0  0  0  0  0
   -2.2878   -2.1127    0.5961 H   0  0  0  0  0  0  0  0  0  0  0  0
   -1.3677   -0.0568    0.7131 H   0  0  0  0  0  0  0  0  0  0  0  0
    0.6168    1.4051    0.8412 H   0  0  0  0  0  0  0  0  0  0  0  0
    5.2342    2.2819   -0.2313 H   0  0  0  0  0  0  0  0  0  0  0  0
    4.9213    2.3300    1.5195 H   0  0  0  0  0  0  0  0  0  0  0  0
    6.9061    2.0498    2.9335 H   0  0  0  0  0  0  0  0  0  0  0  0
    8.8137    4.2183    2.3394 H   0  0  0  0  0  0  0  0  0  0  0  0
   10.8098    2.7254    2.3968 H   0  0  0  0  0  0  0  0  0  0  0  0
    9.7406    1.2579    2.4887 H   0  0  0  0  0  0  0  0  0  0  0  0
    8.7460    2.1217    4.6422 H   0  0  0  0  0  0  0  0  0  0  0  0
    9.8087    3.5963    4.5413 H   0  0  0  0  0  0  0  0  0  0  0  0
    1.1989   -3.5329    0.4128 H   0  0  0  0  0  0  0  0  0  0  0  0
   -5.5172    0.1640   -3.8773 H   0  0  0  0  0  0  0  0  0  0  0  0
   -6.8078    2.0705   -4.7601 H   0  0  0  0  0  0  0  0  0  0  0  0
   -8.0243    3.5805   -3.2147 H   0  0  0  0  0  0  0  0  0  0  0  0
   -7.9432    3.1771   -0.7674 H   0  0  0  0  0  0  0  0  0  0  0  0
   -6.6766    1.2573    0.1363 H   0  0  0  0  0  0  0  0  0  0  0  0
  1  2  1  0
  2  3  1  0
  3  4  1  0
  4  5  1  0
  5  6  1  0
  6  7  2  0
  6  8  1  0
  8  9  1  0
  9 10  2  0
 10 11  1  0
 11 12  2  0
 12 13  1  0
 13 14  2  0
 14 15  1  0
 15 16  1  0
 16 17  1  0
 17 18  2  0
 17 19  1  0
 19 20  1  0
 20 21  1  0
 21 22  1  0
 14 23  1  0
 23 24  1  0
 24 25  2  0
  3 26  2  0
 26 27  1  0
 27 28  2  0
 28 29  1  0
 29 30  2  0
 30 31  1  0
 31 32  2  0
 32 33  1  0
 33 34  2  0
 28  2  1  0
 34 29  1  0
 25  9  1  0
 24 12  1  0
 22 20  1  0
  1 35  1  0
  1 36  1  0
  1 37  1  0
  5 38  1  0
  5 39  1  0
  8 40  1  0
 10 41  1  0
 11 42  1  0
 16 43  1  0
 16 44  1  0
 19 45  1  0
 20 46  1  0
 21 47  1  0
 21 48  1  0
 22 49  1  0
 22 50  1  0
 25 51  1  0
 30 52  1  0
 31 53  1  0
 32 54  1  0
 33 55  1  0
 34 56  1  0
M  END
$$$$
