
     RDKit          3D

 57 59  0  0  0  0  0  0  0  0999 V2000
   -8.4786   -0.0237    0.7759 C   0  0  0  0  0  0  0  0  0  0  0  0
   -7.7862   -1.0297    0.0503 O   0  0  0  0  0  0  0  0  0  0  0  0
   -6.4977   -0.7622   -0.3410 C   0  0  0  0  0  0  0  0  0  0  0  0
   -5.7972    0.4035   -0.0056 C   0  0  0  0  0  0  0  0  0  0  0  0
   -4.4855    0.5876   -0.4444 C   0  0  0  0  0  0  0  0  0  0  0  0
   -3.8739   -0.4016   -1.2151 C   0  0  0  0  0  0  0  0  0  0  0  0
   -2.2020   -0.1580   -1.7524 S   0  0  0  0  0  6  0  0  0  0  0  0
   -2.1201    1.1602   -2.3411 O   0  0  0  0  0  0  0  0  0  0  0  0
   -1.7698   -1.3338   -2.4771 O   0  0  0  0  0  0  0  0  0  0  0  0
   -1.3510   -0.1285   -0.2963 N   0  0  0  0  0  0  0  0  0  0  0  0
   -1.3036   -1.3778    0.4923 C   0  0  0  0  0  0  0  0  0  0  0  0
    0.1563   -1.7673    0.4597 C   0  0  0  0  0  0  0  0  0  0  0  0
    0.8342   -0.5117    0.4302 O   0  0  0  0  0  0  0  0  0  0  0  0
    0.0547    0.3186   -0.4480 C   0  0  0  0  0  0  0  0  0  0  0  0
    0.2013    1.8036   -0.0563 C   0  0  0  0  0  0  0  0  0  0  0  0
    1.5490    2.3125   -0.2460 N   0  0  0  0  0  0  0  0  0  0  0  0
    2.4925    2.2767    0.7553 C   0  0  0  0  0  0  0  0  0  0  0  0
    2.3000    2.0051    1.9318 O   0  0  0  0  0  0  0  0  0  0  0  0
    3.9167    2.6305    0.2699 C   0  0  0  0  0  0  0  0  0  0  0  0
    4.1226    2.8503   -0.9157 O   0  0  0  0  0  0  0  0  0  0  0  0
    4.8495    2.6464    1.2787 N   0  0  0  0  0  0  0  0  0  0  0  0
    6.2596    2.7716    1.0221 C   0  0  0  0  0  0  0  0  0  0  0  0
    6.9134    1.4154    0.9439 C   0  0  0  0  0  0  0  0  0  0  0  0
    7.4514    0.8143    2.0933 C   0  0  0  0  0  0  0  0  0  0  0  0
    8.0318   -0.4530    2.0198 C   0  0  0  0  0  0  0  0  0  0  0  0
    8.0684   -1.1216    0.8018 C   0  0  0  0  0  0  0  0  0  0  0  0
    8.6240   -2.3385    0.7347 F   0  0  0  0  0  0  0  0  0  0  0  0
    7.5331   -0.5488   -0.3453 C   0  0  0  0  0  0  0  0  0  0  0  0
    6.9519    0.7179   -0.2747 C   0  0  0  0  0  0  0  0  0  0  0  0
   -4.5590   -1.5673   -1.5675 C   0  0  0  0  0  0  0  0  0  0  0  0
   -5.8739   -1.7533   -1.1310 C   0  0  0  0  0  0  0  0  0  0  0  0
   -6.6315   -2.8631   -1.4130 O   0  0  0  0  0  0  0  0  0  0  0  0
   -6.0859   -3.8295   -2.3005 C   0  0  0  0  0  0  0  0  0  0  0  0
   -9.4925   -0.3877    0.9678 H   0  0  0  0  0  0  0  0  0  0  0  0
   -8.0029    0.1604    1.7446 H   0  0  0  0  0  0  0  0  0  0  0  0
   -8.5618    0.8991    0.1924 H   0  0  0  0  0  0  0  0  0  0  0  0
   -6.2459    1.1874    0.5963 H   0  0  0  0  0  0  0  0  0  0  0  0
   -3.9487    1.4975   -0.1837 H   0  0  0  0  0  0  0  0  0  0  0  0
   -1.9482   -2.1773    0.1203 H   0  0  0  0  0  0  0  0  0  0  0  0
   -1.6186   -1.1343    1.5130 H   0  0  0  0  0  0  0  0  0  0  0  0
    0.4629   -2.3445    1.3356 H   0  0  0  0  0  0  0  0  0  0  0  0
    0.4100   -2.3266   -0.4476 H   0  0  0  0  0  0  0  0  0  0  0  0
    0.4320    0.1515   -1.4646 H   0  0  0  0  0  0  0  0  0  0  0  0
   -0.4582    2.4306   -0.6638 H   0  0  0  0  0  0  0  0  0  0  0  0
   -0.0763    1.9394    0.9956 H   0  0  0  0  0  0  0  0  0  0  0  0
    1.8978    2.4952   -1.1840 H   0  0  0  0  0  0  0  0  0  0  0  0
    4.5288    2.3147    2.1843 H   0  0  0  0  0  0  0  0  0  0  0  0
    6.6938    3.3574    1.8397 H   0  0  0  0  0  0  0  0  0  0  0  0
    6.4301    3.3306    0.0949 H   0  0  0  0  0  0  0  0  0  0  0  0
    7.4197    1.3296    3.0506 H   0  0  0  0  0  0  0  0  0  0  0  0
    8.4516   -0.9240    2.9029 H   0  0  0  0  0  0  0  0  0  0  0  0
    7.5668   -1.0918   -1.2842 H   0  0  0  0  0  0  0  0  0  0  0  0
    6.5218    1.1601   -1.1724 H   0  0  0  0  0  0  0  0  0  0  0  0
   -4.0549   -2.3108   -2.1759 H   0  0  0  0  0  0  0  0  0  0  0  0
   -5.2005   -4.3055   -1.8665 H   0  0  0  0  0  0  0  0  0  0  0  0
   -5.8611   -3.3884   -3.2771 H   0  0  0  0  0  0  0  0  0  0  0  0
   -6.8402   -4.6074   -2.4528 H   0  0  0  0  0  0  0  0  0  0  0  0
  1  2  1  0
  2  3  1  0
  3  4  2  0
  4  5  1  0
  5  6  2  0
  6  7  1  0
  7  8  2  0
  7  9  2  0
  7 10  1  0
 10 11  1  0
 11 12  1  0
 12 13  1  0
 13 14  1  0
 14 15  1  0
 15 16  1  0
 16 17  1  0
 17 18  2  0
 17 19  1  0
 19 20  2  0
 19 21  1  0
 21 22  1  0
 22 23  1  0
 23 24  2  0
 24 25  1  0
 25 26  2  0
 26 27  1  0
 26 28  1  0
 28 29  2  0
  6 30  1  0
 30 31  2  0
 31 32  1  0
 32 33  1  0
 31  3  1  0
 14 10  1  0
 29 23  1  0
  1 34  1  0
  1 35  1  0
  1 36  1  0
  4 37  1  0
  5 38  1  0
 11 39  1  0
 11 40  1  0
 12 41  1  0
 12 42  1  0
 14 43  1  0
 15 44  1  0
 15 45  1  0
 16 46  1  0
 21 47  1  0
 22 48  1  0
 22 49  1  0
 24 50  1  0
 25 51  1  0
 28 52  1  0
 29 53  1  0
 30 54  1  0
 33 55  1  0
 33 56  1  0
 33 57  1  0
M  END
$$$$
