
     RDKit          3D

 27 27  0  0  0  0  0  0  0  0999 V2000
   -2.7959    0.3970   -0.8885 C   0  0  0  0  0  0  0  0  0  0  0  0
   -1.3008    0.0206   -1.0202 C   0  0  0  0  0  0  0  0  0  0  0  0
   -0.6104    1.1385   -1.8122 C   0  0  0  0  0  0  0  0  0  0  0  0
   -1.2378   -1.3188   -1.7679 C   0  0  0  0  0  0  0  0  0  0  0  0
   -0.6390   -0.1190    0.6617 S   0  0  0  0  0  6  0  0  0  0  0  0
   -0.8757    1.1449    1.3334 O   0  0  0  0  0  0  0  0  0  0  0  0
   -1.0506   -1.3883    1.2247 O   0  0  0  0  0  0  0  0  0  0  0  0
    1.0999   -0.2354    0.6748 C   0  0  0  0  0  0  0  0  0  0  0  0
    1.9399   -0.6065   -0.4196 C   0  0  0  0  0  0  0  0  0  0  0  0
    3.2771   -0.5662   -0.0930 C   0  0  0  0  0  0  0  0  0  0  0  0
    3.5248   -0.1091    1.5281 S   0  0  0  0  0  0  0  0  0  0  0  0
    1.8370    0.0141    1.8272 C   0  0  0  0  0  0  0  0  0  0  0  0
    1.3580    0.3041    3.1624 C   0  0  0  0  0  0  0  0  0  0  0  0
    0.3253   -0.0741    3.6933 O   0  0  0  0  0  0  0  0  0  0  0  0
    2.2080    1.0917    3.8612 O   0  0  0  0  0  0  0  0  0  0  0  0
   -3.3425   -0.3468   -0.2975 H   0  0  0  0  0  0  0  0  0  0  0  0
   -2.9238    1.3658   -0.3926 H   0  0  0  0  0  0  0  0  0  0  0  0
   -3.2773    0.4629   -1.8709 H   0  0  0  0  0  0  0  0  0  0  0  0
   -1.1117    1.3037   -2.7731 H   0  0  0  0  0  0  0  0  0  0  0  0
   -0.6291    2.0866   -1.2632 H   0  0  0  0  0  0  0  0  0  0  0  0
    0.4333    0.9137   -2.0374 H   0  0  0  0  0  0  0  0  0  0  0  0
   -0.2226   -1.7005   -1.8745 H   0  0  0  0  0  0  0  0  0  0  0  0
   -1.8142   -2.0923   -1.2477 H   0  0  0  0  0  0  0  0  0  0  0  0
   -1.6561   -1.2234   -2.7766 H   0  0  0  0  0  0  0  0  0  0  0  0
    1.6227   -0.8829   -1.4136 H   0  0  0  0  0  0  0  0  0  0  0  0
    4.1227   -0.7863   -0.7313 H   0  0  0  0  0  0  0  0  0  0  0  0
    1.7389    1.2059    4.7132 H   0  0  0  0  0  0  0  0  0  0  0  0
  1  2  1  0
  2  3  1  0
  2  4  1  0
  2  5  1  0
  5  6  2  0
  5  7  2  0
  5  8  1  0
  8  9  1  0
  9 10  2  0
 10 11  1  0
 11 12  1  0
 12 13  1  0
 13 14  2  0
 13 15  1  0
 12  8  2  0
  1 16  1  0
  1 17  1  0
  1 18  1  0
  3 19  1  0
  3 20  1  0
  3 21  1  0
  4 22  1  0
  4 23  1  0
  4 24  1  0
  9 25  1  0
 10 26  1  0
 15 27  1  0
M  END
$$$$
