
     RDKit          3D

 57 60  0  0  0  0  0  0  0  0999 V2000
    0.5393   -1.9682    1.3738 C   0  0  0  0  0  0  0  0  0  0  0  0
   -0.4431   -1.0723    2.1178 C   0  0  0  0  0  0  0  0  0  0  0  0
   -0.5323    0.3822    1.6083 C   0  0  0  0  0  0  0  0  0  0  0  0
   -0.9818    0.5245   -0.1799 S   0  0  0  0  0  0  0  0  0  0  0  0
   -2.5702   -0.2386   -0.1866 C   0  0  0  0  0  0  0  0  0  0  0  0
   -3.2817   -0.0782    0.8887 N   0  0  0  0  0  0  0  0  0  0  0  0
   -4.5172   -0.7196    0.8787 C   0  0  0  0  0  0  0  0  0  0  0  0
   -5.4304   -0.6930    1.9571 C   0  0  0  0  0  0  0  0  0  0  0  0
   -6.5599   -1.4318    1.6644 C   0  0  0  0  0  0  0  0  0  0  0  0
   -6.4769   -2.1385    0.0966 S   0  0  0  0  0  0  0  0  0  0  0  0
   -4.9482   -1.4571   -0.1797 C   0  0  0  0  0  0  0  0  0  0  0  0
   -4.1778   -1.6177   -1.3774 C   0  0  0  0  0  0  0  0  0  0  0  0
   -4.5414   -2.2859   -2.3447 O   0  0  0  0  0  0  0  0  0  0  0  0
   -2.9494   -0.9416   -1.3345 N   0  0  0  0  0  0  0  0  0  0  0  0
   -2.1522   -0.9887   -2.5660 C   0  0  0  0  0  0  0  0  0  0  0  0
   -1.0134   -1.9906   -2.5301 C   0  0  0  0  0  0  0  0  0  0  0  0
   -1.2395   -3.3453   -2.2414 C   0  0  0  0  0  0  0  0  0  0  0  0
   -0.1779   -4.2566   -2.2257 C   0  0  0  0  0  0  0  0  0  0  0  0
    1.1227   -3.8285   -2.5156 C   0  0  0  0  0  0  0  0  0  0  0  0
    2.2158   -4.8289   -2.4888 C   0  0  0  0  0  0  0  0  0  0  0  0
    2.0984   -6.0048   -2.1995 O   0  0  0  0  0  0  0  0  0  0  0  0
    3.4078   -4.3057   -2.8343 O   0  0  0  0  0  0  0  0  0  0  0  0
    1.3547   -2.4852   -2.8216 C   0  0  0  0  0  0  0  0  0  0  0  0
    0.2928   -1.5763   -2.8350 C   0  0  0  0  0  0  0  0  0  0  0  0
    0.7730    1.1568    1.9089 C   0  0  0  0  0  0  0  0  0  0  0  0
    1.5578    0.7727    2.7784 O   0  0  0  0  0  0  0  0  0  0  0  0
    0.9113    2.3278    1.1761 N   0  0  0  0  0  0  0  0  0  0  0  0
    1.9552    3.2717    1.2435 C   0  0  0  0  0  0  0  0  0  0  0  0
    2.9514    3.2663    2.2206 C   0  0  0  0  0  0  0  0  0  0  0  0
    3.9596    4.2373    2.2167 C   0  0  0  0  0  0  0  0  0  0  0  0
    3.9976    5.2322    1.2300 C   0  0  0  0  0  0  0  0  0  0  0  0
    5.1053    6.2460    1.2440 C   0  0  0  0  0  0  0  0  0  0  0  0
    2.9947    5.2344    0.2515 C   0  0  0  0  0  0  0  0  0  0  0  0
    2.9654    6.4153   -1.0100 Cl  0  0  0  0  0  0  0  0  0  0  0  0
    1.9822    4.2673    0.2619 C   0  0  0  0  0  0  0  0  0  0  0  0
    0.2258   -2.1389    0.3421 H   0  0  0  0  0  0  0  0  0  0  0  0
    1.5493   -1.5480    1.3613 H   0  0  0  0  0  0  0  0  0  0  0  0
    0.5897   -2.9468    1.8656 H   0  0  0  0  0  0  0  0  0  0  0  0
   -0.1578   -1.0660    3.1779 H   0  0  0  0  0  0  0  0  0  0  0  0
   -1.4314   -1.5435    2.0896 H   0  0  0  0  0  0  0  0  0  0  0  0
   -1.3033    0.9061    2.1890 H   0  0  0  0  0  0  0  0  0  0  0  0
   -5.2791   -0.1701    2.8922 H   0  0  0  0  0  0  0  0  0  0  0  0
   -7.4286   -1.5984    2.2894 H   0  0  0  0  0  0  0  0  0  0  0  0
   -2.7837   -1.2304   -3.4298 H   0  0  0  0  0  0  0  0  0  0  0  0
   -1.7705    0.0191   -2.7674 H   0  0  0  0  0  0  0  0  0  0  0  0
   -2.2429   -3.7115   -2.0354 H   0  0  0  0  0  0  0  0  0  0  0  0
   -0.3713   -5.3031   -1.9905 H   0  0  0  0  0  0  0  0  0  0  0  0
    4.0233   -5.0670   -2.7798 H   0  0  0  0  0  0  0  0  0  0  0  0
    2.3568   -2.1337   -3.0531 H   0  0  0  0  0  0  0  0  0  0  0  0
    0.5008   -0.5368   -3.0808 H   0  0  0  0  0  0  0  0  0  0  0  0
    0.2391    2.4450    0.4249 H   0  0  0  0  0  0  0  0  0  0  0  0
    2.9691    2.5257    3.0148 H   0  0  0  0  0  0  0  0  0  0  0  0
    4.7183    4.2035    2.9966 H   0  0  0  0  0  0  0  0  0  0  0  0
    4.6983    7.2636    1.2698 H   0  0  0  0  0  0  0  0  0  0  0  0
    5.7425    6.1256    0.3614 H   0  0  0  0  0  0  0  0  0  0  0  0
    5.7414    6.1319    2.1325 H   0  0  0  0  0  0  0  0  0  0  0  0
    1.2225    4.2925   -0.5165 H   0  0  0  0  0  0  0  0  0  0  0  0
  1  2  1  0
  2  3  1  0
  3  4  1  0
  4  5  1  0
  5  6  2  0
  6  7  1  0
  7  8  1  0
  8  9  2  0
  9 10  1  0
 10 11  1  0
 11 12  1  0
 12 13  2  0
 12 14  1  0
 14 15  1  0
 15 16  1  0
 16 17  2  0
 17 18  1  0
 18 19  2  0
 19 20  1  0
 20 21  2  0
 20 22  1  0
 19 23  1  0
 23 24  2  0
  3 25  1  0
 25 26  2  0
 25 27  1  0
 27 28  1  0
 28 29  2  0
 29 30  1  0
 30 31  2  0
 31 32  1  0
 31 33  1  0
 33 34  1  0
 33 35  2  0
 14  5  1  0
 24 16  1  0
 35 28  1  0
 11  7  2  0
  1 36  1  0
  1 37  1  0
  1 38  1  0
  2 39  1  0
  2 40  1  0
  3 41  1  0
  8 42  1  0
  9 43  1  0
 15 44  1  0
 15 45  1  0
 17 46  1  0
 18 47  1  0
 22 48  1  0
 23 49  1  0
 24 50  1  0
 27 51  1  0
 29 52  1  0
 30 53  1  0
 32 54  1  0
 32 55  1  0
 32 56  1  0
 35 57  1  0
M  END
$$$$
