
     RDKit          3D

 84 87  0  0  0  0  0  0  0  0999 V2000
    7.0621    3.2341    3.0970 C   0  0  0  0  0  0  0  0  0  0  0  0
    6.3171    3.6376    1.9503 O   0  0  0  0  0  0  0  0  0  0  0  0
    5.0542    3.1333    1.8202 C   0  0  0  0  0  0  0  0  0  0  0  0
    4.3351    3.6281    0.7247 C   0  0  0  0  0  0  0  0  0  0  0  0
    3.0235    3.2171    0.4810 C   0  0  0  0  0  0  0  0  0  0  0  0
    2.4287    2.2858    1.3315 C   0  0  0  0  0  0  0  0  0  0  0  0
    0.7312    1.8243    1.0921 S   0  0  0  0  0  6  0  0  0  0  0  0
    0.0299    2.9745    0.5649 O   0  0  0  0  0  0  0  0  0  0  0  0
    0.2644    1.1600    2.2922 O   0  0  0  0  0  0  0  0  0  0  0  0
    0.7523    0.6524   -0.1457 N   0  0  0  0  0  0  0  0  0  0  0  0
    1.1303    1.0969   -1.5026 C   0  0  0  0  0  0  0  0  0  0  0  0
    1.3433   -0.6715    0.2162 C   0  0  0  0  0  0  0  0  0  0  0  0
    0.2658   -1.6552    0.7394 C   0  0  0  0  0  0  0  0  0  0  0  0
   -0.5825   -1.9550   -0.3982 O   0  0  0  0  0  0  0  0  0  0  0  0
   -1.8967   -2.1603   -0.0376 C   0  0  0  0  0  0  0  0  0  0  0  0
   -2.7869   -1.0844    0.1386 C   0  0  0  0  0  0  0  0  0  0  0  0
   -2.3495    0.2364   -0.1468 N   0  0  0  0  0  0  0  0  0  0  0  0
   -3.1758    1.3050   -0.4428 C   0  0  0  0  0  0  0  0  0  0  0  0
   -4.3998    1.2714   -0.5041 O   0  0  0  0  0  0  0  0  0  0  0  0
   -2.4791    2.4551   -0.7264 N   0  0  0  0  0  0  0  0  0  0  0  0
   -3.1728    3.6744   -1.1241 C   0  0  0  0  0  0  0  0  0  0  0  0
   -2.3036    4.9135   -0.8526 C   0  0  0  0  0  0  0  0  0  0  0  0
   -2.7652    6.1083   -1.6766 C   0  0  0  0  0  0  0  0  0  0  0  0
   -2.6381    5.8388   -3.1753 C   0  0  0  0  0  0  0  0  0  0  0  0
   -2.6850    4.3547   -3.5279 C   0  0  0  0  0  0  0  0  0  0  0  0
   -3.6265    3.5915   -2.5948 C   0  0  0  0  0  0  0  0  0  0  0  0
   -4.1030   -1.3579    0.5411 C   0  0  0  0  0  0  0  0  0  0  0  0
   -4.5628   -2.6670    0.6874 C   0  0  0  0  0  0  0  0  0  0  0  0
   -3.7147   -3.7267    0.4077 C   0  0  0  0  0  0  0  0  0  0  0  0
   -2.3883   -3.4721    0.0405 C   0  0  0  0  0  0  0  0  0  0  0  0
   -1.5536   -4.6378   -0.2984 C   0  0  0  0  0  0  0  0  0  0  0  0
   -1.9637   -5.4095   -1.1629 O   0  0  0  0  0  0  0  0  0  0  0  0
   -0.3703   -4.8403    0.4078 N   0  0  0  0  0  0  0  0  0  0  0  0
    0.5174   -5.9612    0.0336 C   0  0  0  0  0  0  0  0  0  0  0  0
   -0.0660   -7.3174    0.4283 C   0  0  0  0  0  0  0  0  0  0  0  0
    0.9318   -5.9351   -1.4493 C   0  0  0  0  0  0  0  0  0  0  0  0
    2.1517   -6.6648   -1.6377 O   0  0  0  0  0  0  0  0  0  0  0  0
   -0.0188   -4.0756    1.6017 C   0  0  0  0  0  0  0  0  0  0  0  0
    0.9631   -2.9369    1.2915 C   0  0  0  0  0  0  0  0  0  0  0  0
    1.7838   -2.6289    2.5547 C   0  0  0  0  0  0  0  0  0  0  0  0
    3.1331    1.7964    2.4378 C   0  0  0  0  0  0  0  0  0  0  0  0
    4.4472    2.2146    2.6750 C   0  0  0  0  0  0  0  0  0  0  0  0
    7.1970    2.1454    3.1181 H   0  0  0  0  0  0  0  0  0  0  0  0
    8.0538    3.6850    3.0244 H   0  0  0  0  0  0  0  0  0  0  0  0
    6.5937    3.5962    4.0146 H   0  0  0  0  0  0  0  0  0  0  0  0
    4.7988    4.3619    0.0667 H   0  0  0  0  0  0  0  0  0  0  0  0
    2.4706    3.6434   -0.3543 H   0  0  0  0  0  0  0  0  0  0  0  0
    2.2135    1.1782   -1.5942 H   0  0  0  0  0  0  0  0  0  0  0  0
    0.6708    2.0589   -1.7433 H   0  0  0  0  0  0  0  0  0  0  0  0
    0.7602    0.3759   -2.2390 H   0  0  0  0  0  0  0  0  0  0  0  0
    1.8231   -1.1066   -0.6703 H   0  0  0  0  0  0  0  0  0  0  0  0
    2.1386   -0.5127    0.9448 H   0  0  0  0  0  0  0  0  0  0  0  0
   -0.3169   -1.1855    1.5400 H   0  0  0  0  0  0  0  0  0  0  0  0
   -1.3843    0.3268   -0.4384 H   0  0  0  0  0  0  0  0  0  0  0  0
   -1.5253    2.5539   -0.3843 H   0  0  0  0  0  0  0  0  0  0  0  0
   -4.0711    3.7491   -0.4969 H   0  0  0  0  0  0  0  0  0  0  0  0
   -1.2494    4.7098   -1.0840 H   0  0  0  0  0  0  0  0  0  0  0  0
   -2.3373    5.1550    0.2166 H   0  0  0  0  0  0  0  0  0  0  0  0
   -3.8095    6.3326   -1.4280 H   0  0  0  0  0  0  0  0  0  0  0  0
   -2.1837    7.0004   -1.4158 H   0  0  0  0  0  0  0  0  0  0  0  0
   -1.7041    6.2669   -3.5607 H   0  0  0  0  0  0  0  0  0  0  0  0
   -3.4541    6.3646   -3.6927 H   0  0  0  0  0  0  0  0  0  0  0  0
   -1.6759    3.9272   -3.4503 H   0  0  0  0  0  0  0  0  0  0  0  0
   -3.0074    4.2338   -4.5679 H   0  0  0  0  0  0  0  0  0  0  0  0
   -4.6304    4.0322   -2.6832 H   0  0  0  0  0  0  0  0  0  0  0  0
   -3.7092    2.5509   -2.9360 H   0  0  0  0  0  0  0  0  0  0  0  0
   -4.8239   -0.5601    0.7051 H   0  0  0  0  0  0  0  0  0  0  0  0
   -5.6005   -2.8544    0.9587 H   0  0  0  0  0  0  0  0  0  0  0  0
   -4.0855   -4.7498    0.4613 H   0  0  0  0  0  0  0  0  0  0  0  0
    1.4387   -5.8411    0.6183 H   0  0  0  0  0  0  0  0  0  0  0  0
    0.6596   -8.1193    0.2432 H   0  0  0  0  0  0  0  0  0  0  0  0
   -0.9714   -7.5540   -0.1385 H   0  0  0  0  0  0  0  0  0  0  0  0
   -0.3236   -7.3410    1.4927 H   0  0  0  0  0  0  0  0  0  0  0  0
    0.1747   -6.3894   -2.0945 H   0  0  0  0  0  0  0  0  0  0  0  0
    1.0995   -4.9117   -1.7925 H   0  0  0  0  0  0  0  0  0  0  0  0
    2.8836   -6.0313   -1.5643 H   0  0  0  0  0  0  0  0  0  0  0  0
   -0.9109   -3.6912    2.1078 H   0  0  0  0  0  0  0  0  0  0  0  0
    0.4224   -4.7918    2.3121 H   0  0  0  0  0  0  0  0  0  0  0  0
    1.6716   -3.2980    0.5354 H   0  0  0  0  0  0  0  0  0  0  0  0
    1.1796   -2.1264    3.3231 H   0  0  0  0  0  0  0  0  0  0  0  0
    2.1862   -3.5481    2.9952 H   0  0  0  0  0  0  0  0  0  0  0  0
    2.6480   -1.9999    2.3315 H   0  0  0  0  0  0  0  0  0  0  0  0
    2.6677    1.0977    3.1299 H   0  0  0  0  0  0  0  0  0  0  0  0
    4.9592    1.8199    3.5491 H   0  0  0  0  0  0  0  0  0  0  0  0
  1  2  1  0
  2  3  1  0
  3  4  2  0
  4  5  1  0
  5  6  2  0
  6  7  1  0
  7  8  2  0
  7  9  2  0
  7 10  1  0
 10 11  1  0
 10 12  1  0
 12 13  1  0
 13 14  1  0
 14 15  1  0
 15 16  2  0
 16 17  1  0
 17 18  1  0
 18 19  2  0
 18 20  1  0
 20 21  1  0
 21 22  1  0
 22 23  1  0
 23 24  1  0
 24 25  1  0
 25 26  1  0
 16 27  1  0
 27 28  2  0
 28 29  1  0
 29 30  2  0
 30 31  1  0
 31 32  2  0
 31 33  1  0
 33 34  1  0
 34 35  1  0
 34 36  1  0
 36 37  1  0
 33 38  1  0
 38 39  1  0
 39 40  1  0
  6 41  1  0
 41 42  2  0
 42  3  1  0
 39 13  1  0
 30 15  1  0
 26 21  1  0
  1 43  1  0
  1 44  1  0
  1 45  1  0
  4 46  1  0
  5 47  1  0
 11 48  1  0
 11 49  1  0
 11 50  1  0
 12 51  1  0
 12 52  1  0
 13 53  1  0
 17 54  1  0
 20 55  1  0
 21 56  1  0
 22 57  1  0
 22 58  1  0
 23 59  1  0
 23 60  1  0
 24 61  1  0
 24 62  1  0
 25 63  1  0
 25 64  1  0
 26 65  1  0
 26 66  1  0
 27 67  1  0
 28 68  1  0
 29 69  1  0
 34 70  1  0
 35 71  1  0
 35 72  1  0
 35 73  1  0
 36 74  1  0
 36 75  1  0
 37 76  1  0
 38 77  1  0
 38 78  1  0
 39 79  1  0
 40 80  1  0
 40 81  1  0
 40 82  1  0
 41 83  1  0
 42 84  1  0
M  END
$$$$
