
     RDKit          3D

 42 44  0  0  0  0  0  0  0  0999 V2000
   -0.2806    3.4040   -0.5572 C   0  0  0  0  0  0  0  0  0  0  0  0
   -0.2756    2.7065    0.7895 C   0  0  0  0  0  0  0  0  0  0  0  0
   -0.5303    1.3058    0.6153 O   0  0  0  0  0  0  0  0  0  0  0  0
   -1.8424    0.9236    0.6152 C   0  0  0  0  0  0  0  0  0  0  0  0
   -2.7800    1.7002    0.7574 O   0  0  0  0  0  0  0  0  0  0  0  0
   -2.0217   -0.5156    0.4232 C   0  0  0  0  0  0  0  0  0  0  0  0
   -1.0092   -1.4544    0.1984 C   0  0  0  0  0  0  0  0  0  0  0  0
    0.3475   -1.2037    0.1179 N   0  0  0  0  0  0  0  0  0  0  0  0
    1.3833   -2.0848   -0.1170 C   0  0  0  0  0  0  0  0  0  0  0  0
    1.3204   -3.2942   -0.2988 O   0  0  0  0  0  0  0  0  0  0  0  0
    2.6802   -1.3772   -0.1344 C   0  0  0  0  0  0  0  0  0  0  0  0
    3.9626   -1.9409   -0.3572 C   0  0  0  0  0  0  0  0  0  0  0  0
    4.8429   -0.8888   -0.2818 C   0  0  0  0  0  0  0  0  0  0  0  0
    4.0861    0.2158   -0.0287 N   0  0  0  0  0  0  0  0  0  0  0  0
    4.5661    1.5741    0.1422 C   0  0  0  0  0  0  0  0  0  0  0  0
    4.3523    2.4188   -1.1010 C   0  0  0  0  0  0  0  0  0  0  0  0
    2.7677   -0.0439    0.0711 N   0  0  0  0  0  0  0  0  0  0  0  0
   -1.6113   -3.0526    0.0103 S   0  0  0  0  0  0  0  0  0  0  0  0
   -3.1759   -2.5249    0.2191 C   0  0  0  0  0  0  0  0  0  0  0  0
   -3.2819   -1.1807    0.4300 C   0  0  0  0  0  0  0  0  0  0  0  0
   -4.7027   -0.7800    0.6037 C   0  0  0  0  0  0  0  0  0  0  0  0
   -5.4134   -2.1553    0.8077 C   0  0  0  0  0  0  0  0  0  0  0  0
   -4.4692   -3.2448    0.2134 C   0  0  0  0  0  0  0  0  0  0  0  0
   -1.2615    3.3242   -1.0363 H   0  0  0  0  0  0  0  0  0  0  0  0
    0.4433    2.9378   -1.2338 H   0  0  0  0  0  0  0  0  0  0  0  0
   -0.0299    4.4627   -0.4471 H   0  0  0  0  0  0  0  0  0  0  0  0
   -0.9915    3.1628    1.4823 H   0  0  0  0  0  0  0  0  0  0  0  0
    0.7157    2.7962    1.2460 H   0  0  0  0  0  0  0  0  0  0  0  0
    0.6495   -0.2362    0.2399 H   0  0  0  0  0  0  0  0  0  0  0  0
    4.1931   -2.9804   -0.5477 H   0  0  0  0  0  0  0  0  0  0  0  0
    5.9177   -0.8395   -0.3871 H   0  0  0  0  0  0  0  0  0  0  0  0
    4.0381    2.0034    1.0009 H   0  0  0  0  0  0  0  0  0  0  0  0
    5.6313    1.5246    0.3924 H   0  0  0  0  0  0  0  0  0  0  0  0
    3.2888    2.4918   -1.3524 H   0  0  0  0  0  0  0  0  0  0  0  0
    4.8704    1.9874   -1.9640 H   0  0  0  0  0  0  0  0  0  0  0  0
    4.7350    3.4317   -0.9427 H   0  0  0  0  0  0  0  0  0  0  0  0
   -4.8585   -0.1264    1.4663 H   0  0  0  0  0  0  0  0  0  0  0  0
   -5.0745   -0.2869   -0.3005 H   0  0  0  0  0  0  0  0  0  0  0  0
   -5.5340   -2.3369    1.8840 H   0  0  0  0  0  0  0  0  0  0  0  0
   -6.4107   -2.1783    0.3576 H   0  0  0  0  0  0  0  0  0  0  0  0
   -4.7701   -3.4976   -0.8084 H   0  0  0  0  0  0  0  0  0  0  0  0
   -4.4672   -4.1471    0.8309 H   0  0  0  0  0  0  0  0  0  0  0  0
  1  2  1  0
  2  3  1  0
  3  4  1  0
  4  5  2  0
  4  6  1  0
  6  7  2  0
  7  8  1  0
  8  9  1  0
  9 10  2  0
  9 11  1  0
 11 12  1  0
 12 13  2  0
 13 14  1  0
 14 15  1  0
 15 16  1  0
 14 17  1  0
  7 18  1  0
 18 19  1  0
 19 20  2  0
 20 21  1  0
 21 22  1  0
 22 23  1  0
 20  6  1  0
 17 11  2  0
 23 19  1  0
  1 24  1  0
  1 25  1  0
  1 26  1  0
  2 27  1  0
  2 28  1  0
  8 29  1  0
 12 30  1  0
 13 31  1  0
 15 32  1  0
 15 33  1  0
 16 34  1  0
 16 35  1  0
 16 36  1  0
 21 37  1  0
 21 38  1  0
 22 39  1  0
 22 40  1  0
 23 41  1  0
 23 42  1  0
M  END
$$$$
