
     RDKit          3D

 37 38  0  0  0  0  0  0  0  0999 V2000
    1.4134    2.0067   -1.7663 O   0  0  0  0  0  0  0  0  0  0  0  0
    0.7748    2.2266   -0.7415 C   0  0  0  0  0  0  0  0  0  0  0  0
   -0.5957    2.9043   -0.7660 C   0  0  0  0  0  0  0  0  0  0  0  0
   -1.6615    1.9546   -0.8952 O   0  0  0  0  0  0  0  0  0  0  0  0
   -1.9655    1.2843    0.2455 C   0  0  0  0  0  0  0  0  0  0  0  0
   -1.4144    1.4527    1.3230 O   0  0  0  0  0  0  0  0  0  0  0  0
   -3.0546    0.2952    0.0181 C   0  0  0  0  0  0  0  0  0  0  0  0
   -3.4552   -0.4686    1.1298 C   0  0  0  0  0  0  0  0  0  0  0  0
   -4.4725   -1.4208    1.0136 C   0  0  0  0  0  0  0  0  0  0  0  0
   -5.0969   -1.6174   -0.2156 C   0  0  0  0  0  0  0  0  0  0  0  0
   -6.3499   -2.7865   -0.3599 Cl  0  0  0  0  0  0  0  0  0  0  0  0
   -4.7067   -0.8790   -1.3291 C   0  0  0  0  0  0  0  0  0  0  0  0
   -3.6896    0.0721   -1.2132 C   0  0  0  0  0  0  0  0  0  0  0  0
   -3.3863    0.7354   -2.3715 O   0  0  0  0  0  0  0  0  0  0  0  0
    1.2063    1.8691    0.5184 N   0  0  0  0  0  0  0  0  0  0  0  0
    2.4026    1.0695    0.7135 C   0  0  0  0  0  0  0  0  0  0  0  0
    2.1439   -0.4258    0.4898 C   0  0  0  0  0  0  0  0  0  0  0  0
    3.3003   -1.2408    0.8126 N   0  0  0  0  0  0  0  0  0  0  0  0
    4.2304   -1.6466   -0.1120 C   0  0  0  0  0  0  0  0  0  0  0  0
    4.0591   -1.2989   -1.4164 O   0  0  0  0  0  0  0  0  0  0  0  0
    5.2388   -2.3654    0.3938 C   0  0  0  0  0  0  0  0  0  0  0  0
    5.0746   -2.5565    2.1144 S   0  0  0  0  0  0  0  0  0  0  0  0
    3.5748   -1.6087    2.1184 C   0  0  0  0  0  0  0  0  0  0  0  0
    2.9397   -1.3442    3.1257 O   0  0  0  0  0  0  0  0  0  0  0  0
   -0.7343    3.5382    0.1184 H   0  0  0  0  0  0  0  0  0  0  0  0
   -0.6318    3.5686   -1.6367 H   0  0  0  0  0  0  0  0  0  0  0  0
   -2.9739   -0.3316    2.0987 H   0  0  0  0  0  0  0  0  0  0  0  0
   -4.7698   -2.0034    1.8827 H   0  0  0  0  0  0  0  0  0  0  0  0
   -5.1876   -1.0384   -2.2914 H   0  0  0  0  0  0  0  0  0  0  0  0
   -2.6393    1.3432   -2.2056 H   0  0  0  0  0  0  0  0  0  0  0  0
    0.4994    1.8415    1.2558 H   0  0  0  0  0  0  0  0  0  0  0  0
    3.1864    1.4252    0.0360 H   0  0  0  0  0  0  0  0  0  0  0  0
    2.7401    1.2524    1.7401 H   0  0  0  0  0  0  0  0  0  0  0  0
    1.8179   -0.6228   -0.5380 H   0  0  0  0  0  0  0  0  0  0  0  0
    1.3176   -0.7425    1.1399 H   0  0  0  0  0  0  0  0  0  0  0  0
    4.7977   -1.6585   -1.9357 H   0  0  0  0  0  0  0  0  0  0  0  0
    6.0676   -2.7830   -0.1593 H   0  0  0  0  0  0  0  0  0  0  0  0
  1  2  2  0
  2  3  1  0
  3  4  1  0
  4  5  1  0
  5  6  2  0
  5  7  1  0
  7  8  2  0
  8  9  1  0
  9 10  2  0
 10 11  1  0
 10 12  1  0
 12 13  2  0
 13 14  1  0
  2 15  1  0
 15 16  1  0
 16 17  1  0
 17 18  1  0
 18 19  1  0
 19 20  1  0
 19 21  2  0
 21 22  1  0
 22 23  1  0
 23 24  2  0
 13  7  1  0
 23 18  1  0
  3 25  1  0
  3 26  1  0
  8 27  1  0
  9 28  1  0
 12 29  1  0
 14 30  1  0
 15 31  1  0
 16 32  1  0
 16 33  1  0
 17 34  1  0
 17 35  1  0
 20 36  1  0
 21 37  1  0
M  END
$$$$
