
     RDKit          3D

 50 53  0  0  0  0  0  0  0  0999 V2000
   -4.0360   -1.0109    5.6113 C   0  0  0  0  0  0  0  0  0  0  0  0
   -3.4182   -0.8748    4.2514 C   0  0  0  0  0  0  0  0  0  0  0  0
   -2.6615   -1.9194    3.7129 C   0  0  0  0  0  0  0  0  0  0  0  0
   -2.0508   -1.7835    2.4633 C   0  0  0  0  0  0  0  0  0  0  0  0
   -2.1881   -0.5977    1.7224 C   0  0  0  0  0  0  0  0  0  0  0  0
   -1.5523   -0.5063    0.4436 N   0  0  0  0  0  0  0  0  0  0  0  0
   -0.5767   -1.4051    0.1376 N   0  0  0  0  0  0  0  0  0  0  0  0
   -0.0441   -0.9679   -1.0054 C   0  0  0  0  0  0  0  0  0  0  0  0
    1.0954   -1.5475   -1.7051 C   0  0  0  0  0  0  0  0  0  0  0  0
    1.7431   -2.5022   -1.2834 O   0  0  0  0  0  0  0  0  0  0  0  0
    1.3823   -0.8875   -2.9213 N   0  0  0  0  0  0  0  0  0  0  0  0
    2.5773   -1.3001   -3.6625 C   0  0  0  0  0  0  0  0  0  0  0  0
    3.7896   -0.5467   -3.1158 C   0  0  0  0  0  0  0  0  0  0  0  0
    4.9088   -1.0458   -3.0393 O   0  0  0  0  0  0  0  0  0  0  0  0
    3.5337    0.7827   -2.8340 N   0  0  0  0  0  0  0  0  0  0  0  0
    4.3481    1.5135   -1.8928 C   0  0  0  0  0  0  0  0  0  0  0  0
    3.7108    1.3422   -0.5462 C   0  0  0  0  0  0  0  0  0  0  0  0
    3.9890    0.3839    0.4127 C   0  0  0  0  0  0  0  0  0  0  0  0
    3.1409    0.4886    1.5531 C   0  0  0  0  0  0  0  0  0  0  0  0
    2.2349    1.5150    1.4249 C   0  0  0  0  0  0  0  0  0  0  0  0
    2.4219    2.3620   -0.0574 S   0  0  0  0  0  0  0  0  0  0  0  0
    0.7037    0.2435   -3.4049 N   0  0  0  0  0  0  0  0  0  0  0  0
   -0.3131    0.7453   -2.7553 C   0  0  0  0  0  0  0  0  0  0  0  0
   -0.9960    1.9542   -3.3301 C   0  0  0  0  0  0  0  0  0  0  0  0
   -0.7308    0.1407   -1.5133 C   0  0  0  0  0  0  0  0  0  0  0  0
   -1.7613    0.3853   -0.6185 C   0  0  0  0  0  0  0  0  0  0  0  0
   -2.9112    1.3246   -0.7169 C   0  0  0  0  0  0  0  0  0  0  0  0
   -2.9078    0.4623    2.2844 C   0  0  0  0  0  0  0  0  0  0  0  0
   -3.5201    0.3226    3.5367 C   0  0  0  0  0  0  0  0  0  0  0  0
   -4.9376   -0.3954    5.6991 H   0  0  0  0  0  0  0  0  0  0  0  0
   -4.3318   -2.0474    5.8015 H   0  0  0  0  0  0  0  0  0  0  0  0
   -3.3211   -0.7015    6.3797 H   0  0  0  0  0  0  0  0  0  0  0  0
   -2.5346   -2.8487    4.2624 H   0  0  0  0  0  0  0  0  0  0  0  0
   -1.4745   -2.6235    2.0761 H   0  0  0  0  0  0  0  0  0  0  0  0
    2.4506   -1.0638   -4.7226 H   0  0  0  0  0  0  0  0  0  0  0  0
    2.7380   -2.3750   -3.5442 H   0  0  0  0  0  0  0  0  0  0  0  0
    2.5535    1.0467   -2.8937 H   0  0  0  0  0  0  0  0  0  0  0  0
    5.3771    1.1357   -1.8954 H   0  0  0  0  0  0  0  0  0  0  0  0
    4.3626    2.5628   -2.2055 H   0  0  0  0  0  0  0  0  0  0  0  0
    4.7587   -0.3761    0.2915 H   0  0  0  0  0  0  0  0  0  0  0  0
    3.1822   -0.1716    2.4080 H   0  0  0  0  0  0  0  0  0  0  0  0
    1.4630    1.8091    2.1248 H   0  0  0  0  0  0  0  0  0  0  0  0
   -0.4268    2.3448   -4.1816 H   0  0  0  0  0  0  0  0  0  0  0  0
   -1.0723    2.7402   -2.5740 H   0  0  0  0  0  0  0  0  0  0  0  0
   -1.9937    1.6790   -3.6809 H   0  0  0  0  0  0  0  0  0  0  0  0
   -2.6758    2.2777   -0.2348 H   0  0  0  0  0  0  0  0  0  0  0  0
   -3.1695    1.5351   -1.7595 H   0  0  0  0  0  0  0  0  0  0  0  0
   -3.8167    0.9020   -0.2703 H   0  0  0  0  0  0  0  0  0  0  0  0
   -2.9757    1.4342    1.8101 H   0  0  0  0  0  0  0  0  0  0  0  0
   -4.0670    1.1645    3.9570 H   0  0  0  0  0  0  0  0  0  0  0  0
  1  2  1  0
  2  3  2  0
  3  4  1  0
  4  5  2  0
  5  6  1  0
  6  7  1  0
  7  8  2  0
  8  9  1  0
  9 10  2  0
  9 11  1  0
 11 12  1  0
 12 13  1  0
 13 14  2  0
 13 15  1  0
 15 16  1  0
 16 17  1  0
 17 18  2  0
 18 19  1  0
 19 20  2  0
 20 21  1  0
 11 22  1  0
 22 23  2  0
 23 24  1  0
 23 25  1  0
 25 26  2  0
 26 27  1  0
  5 28  1  0
 28 29  2  0
 29  2  1  0
 26  6  1  0
 25  8  1  0
 21 17  1  0
  1 30  1  0
  1 31  1  0
  1 32  1  0
  3 33  1  0
  4 34  1  0
 12 35  1  0
 12 36  1  0
 15 37  1  0
 16 38  1  0
 16 39  1  0
 18 40  1  0
 19 41  1  0
 20 42  1  0
 24 43  1  0
 24 44  1  0
 24 45  1  0
 27 46  1  0
 27 47  1  0
 27 48  1  0
 28 49  1  0
 29 50  1  0
M  END
$$$$
