
     RDKit          3D

 31 32  0  0  0  0  0  0  0  0999 V2000
   -0.2592   -2.6883    1.6535 C   0  0  0  0  0  0  0  0  0  0  0  0
    1.5304   -2.8818    1.8761 S   0  0  0  0  0  0  0  0  0  0  0  0
    2.1504   -1.5070    0.9180 C   0  0  0  0  0  0  0  0  0  0  0  0
    3.2594   -0.8071    1.4088 C   0  0  0  0  0  0  0  0  0  0  0  0
    3.7869    0.2768    0.7029 C   0  0  0  0  0  0  0  0  0  0  0  0
    3.2144    0.6643   -0.5070 C   0  0  0  0  0  0  0  0  0  0  0  0
    2.1260   -0.0447   -1.0128 C   0  0  0  0  0  0  0  0  0  0  0  0
    1.5026    0.3619   -2.2317 N   0  0  0  0  0  0  0  0  0  0  0  0
    0.3146    1.5716   -2.0907 S   0  0  0  0  0  6  0  0  0  0  0  0
    0.8236    2.6319   -1.2434 O   0  0  0  0  0  0  0  0  0  0  0  0
   -0.1513    1.8587   -3.4320 O   0  0  0  0  0  0  0  0  0  0  0  0
   -1.0994    0.9745   -1.2611 C   0  0  0  0  0  0  0  0  0  0  0  0
   -2.0292    1.7533   -0.5973 C   0  0  0  0  0  0  0  0  0  0  0  0
   -2.9646    0.8734   -0.1388 N   0  0  0  0  0  0  0  0  0  0  0  0
   -4.1510    1.1963    0.6124 C   0  0  0  0  0  0  0  0  0  0  0  0
   -2.5906   -0.3822   -0.5251 C   0  0  0  0  0  0  0  0  0  0  0  0
   -1.4626   -0.3645   -1.1997 N   0  0  0  0  0  0  0  0  0  0  0  0
    1.5948   -1.1235   -0.3056 C   0  0  0  0  0  0  0  0  0  0  0  0
   -0.7753   -3.3589    2.3461 H   0  0  0  0  0  0  0  0  0  0  0  0
   -0.5578   -2.9573    0.6373 H   0  0  0  0  0  0  0  0  0  0  0  0
   -0.5692   -1.6628    1.8723 H   0  0  0  0  0  0  0  0  0  0  0  0
    3.7172   -1.0958    2.3530 H   0  0  0  0  0  0  0  0  0  0  0  0
    4.6378    0.8226    1.1028 H   0  0  0  0  0  0  0  0  0  0  0  0
    3.6154    1.5235   -1.0375 H   0  0  0  0  0  0  0  0  0  0  0  0
    2.1602    0.6575   -2.9518 H   0  0  0  0  0  0  0  0  0  0  0  0
   -2.0846    2.8216   -0.4372 H   0  0  0  0  0  0  0  0  0  0  0  0
   -4.2158    2.2789    0.7468 H   0  0  0  0  0  0  0  0  0  0  0  0
   -5.0212    0.8379    0.0566 H   0  0  0  0  0  0  0  0  0  0  0  0
   -4.0879    0.7029    1.5855 H   0  0  0  0  0  0  0  0  0  0  0  0
   -3.1722   -1.2654   -0.2925 H   0  0  0  0  0  0  0  0  0  0  0  0
    0.7582   -1.6682   -0.7328 H   0  0  0  0  0  0  0  0  0  0  0  0
  1  2  1  0
  2  3  1  0
  3  4  2  0
  4  5  1  0
  5  6  2  0
  6  7  1  0
  7  8  1  0
  8  9  1  0
  9 10  2  0
  9 11  2  0
  9 12  1  0
 12 13  2  0
 13 14  1  0
 14 15  1  0
 14 16  1  0
 16 17  2  0
  7 18  2  0
 18  3  1  0
 17 12  1  0
  1 19  1  0
  1 20  1  0
  1 21  1  0
  4 22  1  0
  5 23  1  0
  6 24  1  0
  8 25  1  0
 13 26  1  0
 15 27  1  0
 15 28  1  0
 15 29  1  0
 16 30  1  0
 18 31  1  0
M  END
$$$$
