
     RDKit          3D

 37 39  0  0  0  0  0  0  0  0999 V2000
    5.9761    1.2296   -0.3615 C   0  0  0  0  0  0  0  0  0  0  0  0
    4.5943    1.2981   -0.6962 O   0  0  0  0  0  0  0  0  0  0  0  0
    3.7565    0.4182   -0.0655 C   0  0  0  0  0  0  0  0  0  0  0  0
    4.1336   -0.5174    0.9074 C   0  0  0  0  0  0  0  0  0  0  0  0
    3.1805   -1.3593    1.4878 C   0  0  0  0  0  0  0  0  0  0  0  0
    1.8597   -1.2500    1.0807 C   0  0  0  0  0  0  0  0  0  0  0  0
    1.4590   -0.3240    0.0978 C   0  0  0  0  0  0  0  0  0  0  0  0
    2.4160    0.5143   -0.4671 C   0  0  0  0  0  0  0  0  0  0  0  0
    0.0582   -0.3362   -0.1954 N   0  0  0  0  0  0  0  0  0  0  0  0
   -0.2162   -0.1622   -1.6257 C   0  0  0  0  0  0  0  0  0  0  0  0
   -0.5859   -1.2908    0.6080 C   0  0  0  0  0  0  0  0  0  0  0  0
   -1.9050   -1.5026    0.7683 C   0  0  0  0  0  0  0  0  0  0  0  0
   -2.9771   -0.7145    0.1628 C   0  0  0  0  0  0  0  0  0  0  0  0
   -3.8475   -1.3424   -0.7378 C   0  0  0  0  0  0  0  0  0  0  0  0
   -4.8636   -0.6177   -1.3465 C   0  0  0  0  0  0  0  0  0  0  0  0
   -5.0039    0.7275   -1.0476 C   0  0  0  0  0  0  0  0  0  0  0  0
   -4.1367    1.3179   -0.1376 C   0  0  0  0  0  0  0  0  0  0  0  0
   -3.1548    0.6033    0.4641 N   0  0  0  0  0  4  0  0  0  0  0  0
   -2.3029    1.2968    1.4559 C   0  0  0  0  0  0  0  0  0  0  0  0
    0.4957   -2.2331    1.6685 S   0  0  0  0  0  0  0  0  0  0  0  0
    6.1377    1.4724    0.6939 H   0  0  0  0  0  0  0  0  0  0  0  0
    6.5022    1.9793   -0.9604 H   0  0  0  0  0  0  0  0  0  0  0  0
    6.3946    0.2491   -0.6116 H   0  0  0  0  0  0  0  0  0  0  0  0
    5.1641   -0.6141    1.2361 H   0  0  0  0  0  0  0  0  0  0  0  0
    3.4759   -2.0855    2.2393 H   0  0  0  0  0  0  0  0  0  0  0  0
    2.1520    1.2606   -1.2090 H   0  0  0  0  0  0  0  0  0  0  0  0
    0.3017   -0.9209   -2.2244 H   0  0  0  0  0  0  0  0  0  0  0  0
    0.0837    0.8338   -1.9684 H   0  0  0  0  0  0  0  0  0  0  0  0
   -1.2829   -0.2461   -1.8470 H   0  0  0  0  0  0  0  0  0  0  0  0
   -2.2557   -2.2917    1.4323 H   0  0  0  0  0  0  0  0  0  0  0  0
   -3.7270   -2.3982   -0.9781 H   0  0  0  0  0  0  0  0  0  0  0  0
   -5.5381   -1.1003   -2.0526 H   0  0  0  0  0  0  0  0  0  0  0  0
   -5.7907    1.3146   -1.5173 H   0  0  0  0  0  0  0  0  0  0  0  0
   -4.2257    2.3700    0.1209 H   0  0  0  0  0  0  0  0  0  0  0  0
   -2.0628    0.6205    2.2787 H   0  0  0  0  0  0  0  0  0  0  0  0
   -1.4093    1.6550    0.9416 H   0  0  0  0  0  0  0  0  0  0  0  0
   -2.8556    2.1459    1.8690 H   0  0  0  0  0  0  0  0  0  0  0  0
  1  2  1  0
  2  3  1  0
  3  4  2  0
  4  5  1  0
  5  6  2  0
  6  7  1  0
  7  8  2  0
  7  9  1  0
  9 10  1  0
  9 11  1  0
 11 12  2  3
 12 13  1  0
 13 14  2  0
 14 15  1  0
 15 16  2  0
 16 17  1  0
 17 18  2  0
 18 19  1  0
 11 20  1  0
  8  3  1  0
 18 13  1  0
 20  6  1  0
  1 21  1  0
  1 22  1  0
  1 23  1  0
  4 24  1  0
  5 25  1  0
  8 26  1  0
 10 27  1  0
 10 28  1  0
 10 29  1  0
 12 30  1  0
 14 31  1  0
 15 32  1  0
 16 33  1  0
 17 34  1  0
 19 35  1  0
 19 36  1  0
 19 37  1  0
M  CHG  1  18   1
M  END
$$$$
