
     RDKit          3D

 44 46  0  0  0  0  0  0  0  0999 V2000
   -3.3279   -2.4964   -3.6128 C   0  0  0  0  0  0  0  0  0  0  0  0
   -3.2498   -2.0408   -2.1848 C   0  0  0  0  0  0  0  0  0  0  0  0
   -2.9812   -2.9612   -1.1622 C   0  0  0  0  0  0  0  0  0  0  0  0
   -2.8707   -2.5350    0.1622 C   0  0  0  0  0  0  0  0  0  0  0  0
   -3.0098   -1.1772    0.4609 C   0  0  0  0  0  0  0  0  0  0  0  0
   -2.8573   -0.6330    2.1470 S   0  0  0  0  0  6  0  0  0  0  0  0
   -3.5097    0.6534    2.2690 O   0  0  0  0  0  0  0  0  0  0  0  0
   -3.2278   -1.7439    2.9994 O   0  0  0  0  0  0  0  0  0  0  0  0
   -1.1871   -0.4361    2.3328 N   0  0  0  0  0  0  0  0  0  0  0  0
   -0.4905    0.4094    1.4238 C   0  0  0  0  0  0  0  0  0  0  0  0
   -0.7047    1.7876    1.4351 C   0  0  0  0  0  0  0  0  0  0  0  0
   -0.0589    2.6234    0.5107 C   0  0  0  0  0  0  0  0  0  0  0  0
   -0.3244    4.1009    0.5578 C   0  0  0  0  0  0  0  0  0  0  0  0
    0.8119    2.0410   -0.4251 C   0  0  0  0  0  0  0  0  0  0  0  0
    1.4678    2.8095   -1.3520 O   0  0  0  0  0  0  0  0  0  0  0  0
    1.0298    0.6515   -0.4421 C   0  0  0  0  0  0  0  0  0  0  0  0
    2.1098   -0.1241   -1.6385 S   0  0  0  0  0  0  0  0  0  0  0  0
    3.6102   -0.2180   -0.7517 C   0  0  0  0  0  0  0  0  0  0  0  0
    4.7637   -0.4983   -1.3687 N   0  0  0  0  0  0  0  0  0  0  0  0
    5.6292   -0.4842   -0.3459 N   0  0  0  0  0  0  0  0  0  0  0  0
    4.9990   -0.2314    0.8381 C   0  0  0  0  0  0  0  0  0  0  0  0
    5.7088   -0.1656    2.1312 C   0  0  0  0  0  0  0  0  0  0  0  0
    3.7145   -0.0697    0.6086 N   0  0  0  0  0  0  0  0  0  0  0  0
    0.3677   -0.1599    0.4868 C   0  0  0  0  0  0  0  0  0  0  0  0
   -3.2861   -0.2495   -0.5462 C   0  0  0  0  0  0  0  0  0  0  0  0
   -3.3924   -0.6827   -1.8683 C   0  0  0  0  0  0  0  0  0  0  0  0
   -3.7046   -3.5227   -3.6755 H   0  0  0  0  0  0  0  0  0  0  0  0
   -2.3360   -2.4544   -4.0731 H   0  0  0  0  0  0  0  0  0  0  0  0
   -4.0126   -1.8639   -4.1876 H   0  0  0  0  0  0  0  0  0  0  0  0
   -2.8601   -4.0175   -1.3941 H   0  0  0  0  0  0  0  0  0  0  0  0
   -2.6760   -3.2624    0.9467 H   0  0  0  0  0  0  0  0  0  0  0  0
   -0.7341   -1.3076    2.6039 H   0  0  0  0  0  0  0  0  0  0  0  0
   -1.3799    2.2152    2.1747 H   0  0  0  0  0  0  0  0  0  0  0  0
   -0.7090    4.4483   -0.4066 H   0  0  0  0  0  0  0  0  0  0  0  0
    0.5949    4.6425    0.8021 H   0  0  0  0  0  0  0  0  0  0  0  0
   -1.0709    4.3546    1.3180 H   0  0  0  0  0  0  0  0  0  0  0  0
    1.3310    3.7495   -1.1638 H   0  0  0  0  0  0  0  0  0  0  0  0
    6.6122   -0.6556   -0.5246 H   0  0  0  0  0  0  0  0  0  0  0  0
    5.0092    0.0527    2.9439 H   0  0  0  0  0  0  0  0  0  0  0  0
    6.1995   -1.1187    2.3514 H   0  0  0  0  0  0  0  0  0  0  0  0
    6.4684    0.6220    2.1155 H   0  0  0  0  0  0  0  0  0  0  0  0
    0.5265   -1.2344    0.4712 H   0  0  0  0  0  0  0  0  0  0  0  0
   -3.4052    0.8065   -0.3145 H   0  0  0  0  0  0  0  0  0  0  0  0
   -3.5876    0.0460   -2.6526 H   0  0  0  0  0  0  0  0  0  0  0  0
  1  2  1  0
  2  3  2  0
  3  4  1  0
  4  5  2  0
  5  6  1  0
  6  7  2  0
  6  8  2  0
  6  9  1  0
  9 10  1  0
 10 11  2  0
 11 12  1  0
 12 13  1  0
 12 14  2  0
 14 15  1  0
 14 16  1  0
 16 17  1  0
 17 18  1  0
 18 19  2  0
 19 20  1  0
 20 21  1  0
 21 22  1  0
 21 23  2  0
 16 24  2  0
  5 25  1  0
 25 26  2  0
 26  2  1  0
 24 10  1  0
 23 18  1  0
  1 27  1  0
  1 28  1  0
  1 29  1  0
  3 30  1  0
  4 31  1  0
  9 32  1  0
 11 33  1  0
 13 34  1  0
 13 35  1  0
 13 36  1  0
 15 37  1  0
 20 38  1  0
 22 39  1  0
 22 40  1  0
 22 41  1  0
 24 42  1  0
 25 43  1  0
 26 44  1  0
M  END
$$$$
