
     RDKit          3D

 46 49  0  0  0  0  0  0  0  0999 V2000
   -4.7565    3.2851    0.8786 C   0  0  0  0  0  0  0  0  0  0  0  0
   -4.2811    2.4581   -0.1715 O   0  0  0  0  0  0  0  0  0  0  0  0
   -3.4092    1.4641    0.1735 C   0  0  0  0  0  0  0  0  0  0  0  0
   -3.1408    0.5461   -0.8435 C   0  0  0  0  0  0  0  0  0  0  0  0
   -2.2667   -0.5224   -0.6255 C   0  0  0  0  0  0  0  0  0  0  0  0
   -1.6449   -0.6803    0.6219 C   0  0  0  0  0  0  0  0  0  0  0  0
   -0.7702   -1.7848    0.8474 N   0  0  0  0  0  0  0  0  0  0  0  0
    0.4460   -1.8063    1.5179 C   0  0  0  0  0  0  0  0  0  0  0  0
    1.2791   -0.4120    2.1485 S   0  0  0  0  0  0  0  0  0  0  0  0
    2.9559   -0.7268    1.5051 C   0  0  0  0  0  0  0  0  0  0  0  0
    3.1348   -0.0925    0.1312 C   0  0  0  0  0  0  0  0  0  0  0  0
    3.4992   -0.7618   -0.8307 O   0  0  0  0  0  0  0  0  0  0  0  0
    2.9140    1.2700    0.1504 N   0  0  0  0  0  0  0  0  0  0  0  0
    3.2419    2.1760   -0.8675 C   0  0  0  0  0  0  0  0  0  0  0  0
    3.8725    1.7475   -1.9760 N   0  0  0  0  0  0  0  0  0  0  0  0
    4.2106    2.6649   -2.9122 C   0  0  0  0  0  0  0  0  0  0  0  0
    3.9283    4.0174   -2.7958 C   0  0  0  0  0  0  0  0  0  0  0  0
    4.3848    5.1272   -4.0265 Cl  0  0  0  0  0  0  0  0  0  0  0  0
    3.2649    4.4593   -1.6622 C   0  0  0  0  0  0  0  0  0  0  0  0
    2.9201    3.5317   -0.6841 C   0  0  0  0  0  0  0  0  0  0  0  0
    2.0859    4.0924    0.7246 Cl  0  0  0  0  0  0  0  0  0  0  0  0
    0.9752   -3.0048    1.5655 N   0  0  0  0  0  0  0  0  0  0  0  0
    0.1277   -3.8045    0.8606 C   0  0  0  0  0  0  0  0  0  0  0  0
    0.2442   -5.1754    0.5883 C   0  0  0  0  0  0  0  0  0  0  0  0
   -0.7696   -5.8160   -0.1222 C   0  0  0  0  0  0  0  0  0  0  0  0
   -1.8856   -5.1047   -0.5484 C   0  0  0  0  0  0  0  0  0  0  0  0
   -2.0215   -3.7364   -0.2874 C   0  0  0  0  0  0  0  0  0  0  0  0
   -0.9795   -3.0940    0.4032 C   0  0  0  0  0  0  0  0  0  0  0  0
   -1.9049    0.2486    1.6382 C   0  0  0  0  0  0  0  0  0  0  0  0
   -2.7812    1.3157    1.4139 C   0  0  0  0  0  0  0  0  0  0  0  0
   -5.5109    3.9550    0.4573 H   0  0  0  0  0  0  0  0  0  0  0  0
   -5.2415    2.6954    1.6621 H   0  0  0  0  0  0  0  0  0  0  0  0
   -3.9554    3.9074    1.2830 H   0  0  0  0  0  0  0  0  0  0  0  0
   -3.6169    0.6643   -1.8200 H   0  0  0  0  0  0  0  0  0  0  0  0
   -2.0551   -1.1899   -1.4574 H   0  0  0  0  0  0  0  0  0  0  0  0
    3.1879   -1.7995    1.4514 H   0  0  0  0  0  0  0  0  0  0  0  0
    3.6822   -0.2756    2.1883 H   0  0  0  0  0  0  0  0  0  0  0  0
    2.4796    1.6653    0.9768 H   0  0  0  0  0  0  0  0  0  0  0  0
    4.7253    2.2621   -3.7765 H   0  0  0  0  0  0  0  0  0  0  0  0
    3.0231    5.5099   -1.5406 H   0  0  0  0  0  0  0  0  0  0  0  0
    1.1084   -5.7228    0.9414 H   0  0  0  0  0  0  0  0  0  0  0  0
   -0.6835   -6.8782   -0.3361 H   0  0  0  0  0  0  0  0  0  0  0  0
   -2.6728   -5.6231   -1.0935 H   0  0  0  0  0  0  0  0  0  0  0  0
   -2.9112   -3.2094   -0.6063 H   0  0  0  0  0  0  0  0  0  0  0  0
   -1.4746    0.1467    2.6273 H   0  0  0  0  0  0  0  0  0  0  0  0
   -2.9578    2.0108    2.2275 H   0  0  0  0  0  0  0  0  0  0  0  0
  1  2  1  0
  2  3  1  0
  3  4  2  0
  4  5  1  0
  5  6  2  0
  6  7  1  0
  7  8  1  0
  8  9  1  0
  9 10  1  0
 10 11  1  0
 11 12  2  0
 11 13  1  0
 13 14  1  0
 14 15  2  0
 15 16  1  0
 16 17  2  0
 17 18  1  0
 17 19  1  0
 19 20  2  0
 20 21  1  0
  8 22  2  0
 22 23  1  0
 23 24  2  0
 24 25  1  0
 25 26  2  0
 26 27  1  0
 27 28  2  0
  6 29  1  0
 29 30  2  0
 30  3  1  0
 28  7  1  0
 20 14  1  0
 28 23  1  0
  1 31  1  0
  1 32  1  0
  1 33  1  0
  4 34  1  0
  5 35  1  0
 10 36  1  0
 10 37  1  0
 13 38  1  0
 16 39  1  0
 19 40  1  0
 24 41  1  0
 25 42  1  0
 26 43  1  0
 27 44  1  0
 29 45  1  0
 30 46  1  0
M  END
$$$$
