
     RDKit          3D

 55 60  0  0  0  0  0  0  0  0999 V2000
    4.8939    1.7479    1.0535 O   0  0  0  0  0  0  0  0  0  0  0  0
    4.1980    0.7405    1.1694 C   0  0  0  0  0  0  0  0  0  0  0  0
    4.7137   -0.4276    1.8696 C   0  0  0  0  0  0  0  0  0  0  0  0
    4.0685   -1.3983    2.6927 C   0  0  0  0  0  0  0  0  0  0  0  0
    5.0467   -2.2624    3.1261 C   0  0  0  0  0  0  0  0  0  0  0  0
    6.2571   -1.8832    2.6472 O   0  0  0  0  0  0  0  0  0  0  0  0
    6.0538   -0.7635    1.9087 C   0  0  0  0  0  0  0  0  0  0  0  0
    2.8978    0.6915    0.6518 N   0  0  0  0  0  0  0  0  0  0  0  0
    2.1907   -0.5435    0.3238 C   0  0  0  0  0  0  0  0  0  0  0  0
    1.3988   -0.4295   -0.9768 C   0  0  0  0  0  0  0  0  0  0  0  0
    0.4035    0.7644   -1.0021 C   0  0  0  0  0  0  0  0  0  0  0  0
    0.8276    1.8599    0.0118 C   0  0  0  0  0  0  0  0  0  0  0  0
    2.3446    1.9370    0.1277 C   0  0  0  0  0  0  0  0  0  0  0  0
    0.5727    1.4332   -2.2866 O   0  0  0  0  0  0  0  0  0  0  0  0
   -0.0910    0.9307   -3.3648 C   0  0  0  0  0  0  0  0  0  0  0  0
    0.3005    1.4259   -4.6102 C   0  0  0  0  0  0  0  0  0  0  0  0
   -0.3089    0.9528   -5.7737 C   0  0  0  0  0  0  0  0  0  0  0  0
   -1.3082   -0.0107   -5.6829 C   0  0  0  0  0  0  0  0  0  0  0  0
   -1.8868   -0.4661   -6.8011 F   0  0  0  0  0  0  0  0  0  0  0  0
   -1.7161   -0.5044   -4.4511 C   0  0  0  0  0  0  0  0  0  0  0  0
   -1.1068   -0.0167   -3.2922 C   0  0  0  0  0  0  0  0  0  0  0  0
   -1.5244   -0.4987   -1.9709 C   0  0  0  0  0  0  0  0  0  0  0  0
   -2.1789   -1.5343   -1.8790 O   0  0  0  0  0  0  0  0  0  0  0  0
   -1.0758    0.3403   -0.7780 C   0  0  0  0  0  0  0  0  0  0  0  0
   -1.3606   -0.3864    0.5296 C   0  0  0  0  0  0  0  0  0  0  0  0
   -2.6961    0.2072    0.8307 C   0  0  0  0  0  0  0  0  0  0  0  0
   -3.6002   -0.3590    1.8598 C   0  0  0  0  0  0  0  0  0  0  0  0
   -3.2196   -1.4472    2.6541 C   0  0  0  0  0  0  0  0  0  0  0  0
   -4.0992   -1.9520    3.6182 C   0  0  0  0  0  0  0  0  0  0  0  0
   -5.3548   -1.3707    3.7893 C   0  0  0  0  0  0  0  0  0  0  0  0
   -6.4302   -1.9954    4.9771 Cl  0  0  0  0  0  0  0  0  0  0  0  0
   -5.7413   -0.2869    3.0050 C   0  0  0  0  0  0  0  0  0  0  0  0
   -4.8646    0.2189    2.0412 C   0  0  0  0  0  0  0  0  0  0  0  0
   -2.9804    1.2714    0.1498 N   0  0  0  0  0  0  0  0  0  0  0  0
   -1.9091    1.5104   -0.7375 O   0  0  0  0  0  0  0  0  0  0  0  0
    3.0231   -1.4519    2.9582 H   0  0  0  0  0  0  0  0  0  0  0  0
    5.0490   -3.1391    3.7592 H   0  0  0  0  0  0  0  0  0  0  0  0
    6.9404   -0.3205    1.4746 H   0  0  0  0  0  0  0  0  0  0  0  0
    1.5216   -0.7686    1.1599 H   0  0  0  0  0  0  0  0  0  0  0  0
    2.8996   -1.3712    0.2255 H   0  0  0  0  0  0  0  0  0  0  0  0
    2.1184   -0.3247   -1.8007 H   0  0  0  0  0  0  0  0  0  0  0  0
    0.8817   -1.3787   -1.1585 H   0  0  0  0  0  0  0  0  0  0  0  0
    0.4501    2.8399   -0.3067 H   0  0  0  0  0  0  0  0  0  0  0  0
    0.4186    1.6691    1.0092 H   0  0  0  0  0  0  0  0  0  0  0  0
    2.8096    2.1310   -0.8464 H   0  0  0  0  0  0  0  0  0  0  0  0
    2.6247    2.7612    0.7940 H   0  0  0  0  0  0  0  0  0  0  0  0
    1.0848    2.1764   -4.6764 H   0  0  0  0  0  0  0  0  0  0  0  0
   -0.0105    1.3279   -6.7481 H   0  0  0  0  0  0  0  0  0  0  0  0
   -2.5051   -1.2492   -4.4037 H   0  0  0  0  0  0  0  0  0  0  0  0
   -1.3864   -1.4746    0.4403 H   0  0  0  0  0  0  0  0  0  0  0  0
   -0.6882   -0.1113    1.3450 H   0  0  0  0  0  0  0  0  0  0  0  0
   -2.2489   -1.9207    2.5461 H   0  0  0  0  0  0  0  0  0  0  0  0
   -3.8002   -2.7987    4.2314 H   0  0  0  0  0  0  0  0  0  0  0  0
   -6.7196    0.1689    3.1348 H   0  0  0  0  0  0  0  0  0  0  0  0
   -5.1777    1.0655    1.4322 H   0  0  0  0  0  0  0  0  0  0  0  0
  1  2  2  0
  2  3  1  0
  3  4  1  0
  4  5  2  0
  5  6  1  0
  6  7  1  0
  2  8  1  0
  8  9  1  0
  9 10  1  0
 10 11  1  0
 11 12  1  0
 12 13  1  0
 11 14  1  0
 14 15  1  0
 15 16  2  0
 16 17  1  0
 17 18  2  0
 18 19  1  0
 18 20  1  0
 20 21  2  0
 21 22  1  0
 22 23  2  0
 22 24  1  0
 24 25  1  0
 25 26  1  0
 26 27  1  0
 27 28  2  0
 28 29  1  0
 29 30  2  0
 30 31  1  0
 30 32  1  0
 32 33  2  0
 26 34  2  0
 34 35  1  0
  7  3  2  0
 13  8  1  0
 21 15  1  0
 35 24  1  0
 24 11  1  0
 33 27  1  0
  4 36  1  0
  5 37  1  0
  7 38  1  0
  9 39  1  0
  9 40  1  0
 10 41  1  0
 10 42  1  0
 12 43  1  0
 12 44  1  0
 13 45  1  0
 13 46  1  0
 16 47  1  0
 17 48  1  0
 20 49  1  0
 25 50  1  0
 25 51  1  0
 28 52  1  0
 29 53  1  0
 32 54  1  0
 33 55  1  0
M  END
$$$$
