
     RDKit          3D

 36 37  0  0  0  0  0  0  0  0999 V2000
    1.2603    3.6279   -0.6340 O   0  0  0  0  0  0  0  0  0  0  0  0
    0.6802    2.6262   -1.0511 C   0  0  0  0  0  0  0  0  0  0  0  0
   -0.8226    2.6166   -1.3401 C   0  0  0  0  0  0  0  0  0  0  0  0
   -1.5046    1.3744   -1.2068 O   0  0  0  0  0  0  0  0  0  0  0  0
   -1.4862    0.8592    0.0511 C   0  0  0  0  0  0  0  0  0  0  0  0
   -0.7692    1.2155    0.9806 O   0  0  0  0  0  0  0  0  0  0  0  0
   -2.3862   -0.3070    0.1295 C   0  0  0  0  0  0  0  0  0  0  0  0
   -1.8365   -1.5062    0.5999 C   0  0  0  0  0  0  0  0  0  0  0  0
   -2.6414   -2.6383    0.7174 C   0  0  0  0  0  0  0  0  0  0  0  0
   -1.9601   -4.1128    1.2852 Cl  0  0  0  0  0  0  0  0  0  0  0  0
   -3.9941   -2.5804    0.3804 C   0  0  0  0  0  0  0  0  0  0  0  0
   -4.5496   -1.3758   -0.0701 C   0  0  0  0  0  0  0  0  0  0  0  0
   -3.7460   -0.2388   -0.1949 C   0  0  0  0  0  0  0  0  0  0  0  0
   -4.5131    1.2252   -0.7057 Cl  0  0  0  0  0  0  0  0  0  0  0  0
    1.3324    1.4447   -1.3383 N   0  0  0  0  0  0  0  0  0  0  0  0
    2.7511    1.2903   -1.0695 C   0  0  0  0  0  0  0  0  0  0  0  0
    3.0445    0.9715    0.4080 C   0  0  0  0  0  0  0  0  0  0  0  0
    2.7197   -0.3958    0.7854 N   0  0  0  0  0  0  0  0  0  0  0  0
    1.8923   -0.7655    1.8250 C   0  0  0  0  0  0  0  0  0  0  0  0
    1.1142    0.1355    2.4948 O   0  0  0  0  0  0  0  0  0  0  0  0
    1.9250   -2.0674    2.1300 C   0  0  0  0  0  0  0  0  0  0  0  0
    3.0143   -2.9377    1.0984 S   0  0  0  0  0  0  0  0  0  0  0  0
    3.4822   -1.4422    0.2691 C   0  0  0  0  0  0  0  0  0  0  0  0
    4.3400   -1.3871   -0.5978 O   0  0  0  0  0  0  0  0  0  0  0  0
   -0.9536    2.9476   -2.3757 H   0  0  0  0  0  0  0  0  0  0  0  0
   -1.3044    3.3587   -0.6917 H   0  0  0  0  0  0  0  0  0  0  0  0
   -0.7852   -1.5571    0.8703 H   0  0  0  0  0  0  0  0  0  0  0  0
   -4.6258   -3.4609    0.4751 H   0  0  0  0  0  0  0  0  0  0  0  0
   -5.6102   -1.3361   -0.3188 H   0  0  0  0  0  0  0  0  0  0  0  0
    0.8010    0.6428   -1.6484 H   0  0  0  0  0  0  0  0  0  0  0  0
    3.1182    0.5156   -1.7410 H   0  0  0  0  0  0  0  0  0  0  0  0
    3.2525    2.2301   -1.3349 H   0  0  0  0  0  0  0  0  0  0  0  0
    2.5333    1.6810    1.0656 H   0  0  0  0  0  0  0  0  0  0  0  0
    4.1233    1.0948    0.5726 H   0  0  0  0  0  0  0  0  0  0  0  0
    0.7571    0.7843    1.8483 H   0  0  0  0  0  0  0  0  0  0  0  0
    1.3474   -2.5329    2.9229 H   0  0  0  0  0  0  0  0  0  0  0  0
  1  2  2  0
  2  3  1  0
  3  4  1  0
  4  5  1  0
  5  6  2  0
  5  7  1  0
  7  8  2  0
  8  9  1  0
  9 10  1  0
  9 11  2  0
 11 12  1  0
 12 13  2  0
 13 14  1  0
  2 15  1  0
 15 16  1  0
 16 17  1  0
 17 18  1  0
 18 19  1  0
 19 20  1  0
 19 21  2  0
 21 22  1  0
 22 23  1  0
 23 24  2  0
 13  7  1  0
 23 18  1  0
  3 25  1  0
  3 26  1  0
  8 27  1  0
 11 28  1  0
 12 29  1  0
 15 30  1  0
 16 31  1  0
 16 32  1  0
 17 33  1  0
 17 34  1  0
 20 35  1  0
 21 36  1  0
M  END
$$$$
