
     RDKit          3D

 57 61  0  0  0  0  0  0  0  0999 V2000
    1.8612   -3.5572    2.3773 O   0  0  0  0  0  0  0  0  0  0  0  0
    2.1769   -2.4703    1.9022 C   0  0  0  0  0  0  0  0  0  0  0  0
    1.2306   -1.4852    1.6417 N   0  0  0  0  0  0  0  0  0  0  0  0
    1.5209   -0.2477    1.0757 C   0  0  0  0  0  0  0  0  0  0  0  0
    0.3552    0.7125    0.8710 C   0  0  0  0  0  0  0  0  0  0  0  0
   -0.6971    0.1445   -0.0852 C   0  0  0  0  0  0  0  0  0  0  0  0
   -2.0612    0.7514    0.2081 C   0  0  0  0  0  0  0  0  0  0  0  0
   -2.5151    0.3055    1.5549 N   0  0  0  0  0  0  0  0  0  0  0  0
   -4.0565    0.8943    2.0367 S   0  0  0  0  0  6  0  0  0  0  0  0
   -4.0226    2.3253    1.8684 O   0  0  0  0  0  0  0  0  0  0  0  0
   -4.3691    0.2993    3.3211 O   0  0  0  0  0  0  0  0  0  0  0  0
   -5.1513    0.1425    0.8436 C   0  0  0  0  0  0  0  0  0  0  0  0
   -5.3376   -1.2459    0.9810 C   0  0  0  0  0  0  0  0  0  0  0  0
   -6.1840   -1.9347    0.1180 C   0  0  0  0  0  0  0  0  0  0  0  0
   -6.8538   -1.2455   -0.8852 C   0  0  0  0  0  0  0  0  0  0  0  0
   -6.6761    0.1322   -1.0239 C   0  0  0  0  0  0  0  0  0  0  0  0
   -5.8233    0.8566   -0.1644 C   0  0  0  0  0  0  0  0  0  0  0  0
   -5.6662    2.3411   -0.3899 C   0  0  0  0  0  0  0  0  0  0  0  0
   -6.1127    3.0956    0.6402 F   0  0  0  0  0  0  0  0  0  0  0  0
   -4.3811    2.6947   -0.6540 F   0  0  0  0  0  0  0  0  0  0  0  0
   -6.3696    2.7810   -1.4745 F   0  0  0  0  0  0  0  0  0  0  0  0
   -1.4824    0.3973    2.6302 C   0  0  0  0  0  0  0  0  0  0  0  0
   -0.2417    1.1747    2.2070 C   0  0  0  0  0  0  0  0  0  0  0  0
    2.7214    0.1345    0.7315 N   0  0  0  0  0  0  0  0  0  0  0  0
    3.6650   -0.8087    0.9780 C   0  0  0  0  0  0  0  0  0  0  0  0
    3.5037   -2.0554    1.5354 C   0  0  0  0  0  0  0  0  0  0  0  0
    4.6995   -2.6993    1.6266 N   0  0  0  0  0  0  0  0  0  0  0  0
    5.6280   -1.8836    1.1241 N   0  0  0  0  0  0  0  0  0  0  0  0
    5.0021   -0.7548    0.7052 N   0  0  0  0  0  0  0  0  0  0  0  0
    5.7425    0.3128    0.0683 C   0  0  0  0  0  0  0  0  0  0  0  0
    5.7009    0.1823   -1.4337 C   0  0  0  0  0  0  0  0  0  0  0  0
    6.5912   -0.6736   -2.1026 C   0  0  0  0  0  0  0  0  0  0  0  0
    6.5344   -0.8165   -3.4923 C   0  0  0  0  0  0  0  0  0  0  0  0
    5.5794   -0.1138   -4.2270 C   0  0  0  0  0  0  0  0  0  0  0  0
    4.6899    0.7252   -3.5669 C   0  0  0  0  0  0  0  0  0  0  0  0
    3.7612    1.3914   -4.2725 F   0  0  0  0  0  0  0  0  0  0  0  0
    4.7402    0.8805   -2.1844 C   0  0  0  0  0  0  0  0  0  0  0  0
    0.2825   -1.7624    1.8520 H   0  0  0  0  0  0  0  0  0  0  0  0
    0.7814    1.6098    0.3948 H   0  0  0  0  0  0  0  0  0  0  0  0
   -0.7593   -0.9505   -0.0195 H   0  0  0  0  0  0  0  0  0  0  0  0
   -0.4058    0.3704   -1.1207 H   0  0  0  0  0  0  0  0  0  0  0  0
   -2.0148    1.8464    0.1552 H   0  0  0  0  0  0  0  0  0  0  0  0
   -2.7632    0.3990   -0.5546 H   0  0  0  0  0  0  0  0  0  0  0  0
   -4.8250   -1.7949    1.7702 H   0  0  0  0  0  0  0  0  0  0  0  0
   -6.3262   -3.0064    0.2330 H   0  0  0  0  0  0  0  0  0  0  0  0
   -7.5197   -1.7770   -1.5589 H   0  0  0  0  0  0  0  0  0  0  0  0
   -7.2167    0.6451   -1.8203 H   0  0  0  0  0  0  0  0  0  0  0  0
   -1.8859    0.8664    3.5339 H   0  0  0  0  0  0  0  0  0  0  0  0
   -1.2153   -0.6268    2.9132 H   0  0  0  0  0  0  0  0  0  0  0  0
   -0.5242    2.2329    2.1096 H   0  0  0  0  0  0  0  0  0  0  0  0
    0.5081    1.1341    3.0070 H   0  0  0  0  0  0  0  0  0  0  0  0
    6.7756    0.2784    0.4326 H   0  0  0  0  0  0  0  0  0  0  0  0
    5.3170    1.2689    0.3969 H   0  0  0  0  0  0  0  0  0  0  0  0
    7.3249   -1.2497   -1.5415 H   0  0  0  0  0  0  0  0  0  0  0  0
    7.2270   -1.4839   -3.9979 H   0  0  0  0  0  0  0  0  0  0  0  0
    5.5184   -0.2210   -5.3055 H   0  0  0  0  0  0  0  0  0  0  0  0
    4.0181    1.5382   -1.7073 H   0  0  0  0  0  0  0  0  0  0  0  0
  1  2  2  0
  2  3  1  0
  3  4  1  0
  4  5  1  0
  5  6  1  0
  6  7  1  0
  7  8  1  0
  8  9  1  0
  9 10  2  0
  9 11  2  0
  9 12  1  0
 12 13  2  0
 13 14  1  0
 14 15  2  0
 15 16  1  0
 16 17  2  0
 17 18  1  0
 18 19  1  0
 18 20  1  0
 18 21  1  0
  8 22  1  0
 22 23  1  0
  4 24  2  0
 24 25  1  0
 25 26  2  0
 26 27  1  0
 27 28  2  0
 28 29  1  0
 29 30  1  0
 30 31  1  0
 31 32  2  0
 32 33  1  0
 33 34  2  0
 34 35  1  0
 35 36  1  0
 35 37  2  0
 26  2  1  0
 37 31  1  0
 23  5  1  0
 29 25  1  0
 17 12  1  0
  3 38  1  0
  5 39  1  0
  6 40  1  0
  6 41  1  0
  7 42  1  0
  7 43  1  0
 13 44  1  0
 14 45  1  0
 15 46  1  0
 16 47  1  0
 22 48  1  0
 22 49  1  0
 23 50  1  0
 23 51  1  0
 30 52  1  0
 30 53  1  0
 32 54  1  0
 33 55  1  0
 34 56  1  0
 37 57  1  0
M  END
$$$$
