
     RDKit          3D

 61 65  0  0  0  0  0  0  0  0999 V2000
   -1.8073    1.1179   -4.8019 C   0  0  0  0  0  0  0  0  0  0  0  0
   -2.0007    0.2917   -3.5649 C   0  0  0  0  0  0  0  0  0  0  0  0
   -3.2841   -0.0261   -3.1118 C   0  0  0  0  0  0  0  0  0  0  0  0
   -3.4597   -0.7667   -1.9373 C   0  0  0  0  0  0  0  0  0  0  0  0
   -2.3578   -1.1847   -1.1780 C   0  0  0  0  0  0  0  0  0  0  0  0
   -2.5283   -1.9356    0.0347 N   0  0  0  0  0  0  0  0  0  0  0  0
   -3.3850   -1.5464    1.0642 C   0  0  0  0  0  0  0  0  0  0  0  0
   -4.1535    0.0427    1.0349 S   0  0  0  0  0  0  0  0  0  0  0  0
   -3.3724    0.7380    2.5248 C   0  0  0  0  0  0  0  0  0  0  0  0
   -1.8551    0.7516    2.3995 C   0  0  0  0  0  0  0  0  0  0  0  0
   -1.1508    0.2143    3.2495 O   0  0  0  0  0  0  0  0  0  0  0  0
   -1.4085    1.4464    1.2866 N   0  0  0  0  0  0  0  0  0  0  0  0
   -0.0792    1.6134    0.8517 C   0  0  0  0  0  0  0  0  0  0  0  0
    1.0331    1.1118    1.5207 C   0  0  0  0  0  0  0  0  0  0  0  0
    2.3231    1.2844    0.9935 C   0  0  0  0  0  0  0  0  0  0  0  0
    2.5435    1.9662   -0.2089 C   0  0  0  0  0  0  0  0  0  0  0  0
    3.8077    2.1490   -0.7794 N   0  0  0  0  0  0  0  0  0  0  0  0
    4.9371    1.2835   -0.3756 C   0  0  0  0  0  0  0  0  0  0  0  0
    5.8946    2.0469    0.5543 C   0  0  0  0  0  0  0  0  0  0  0  0
    6.4649    3.2263   -0.0433 O   0  0  0  0  0  0  0  0  0  0  0  0
    5.6971    3.7298   -1.1484 C   0  0  0  0  0  0  0  0  0  0  0  0
    4.1803    3.5777   -0.9481 C   0  0  0  0  0  0  0  0  0  0  0  0
    1.4120    2.4784   -0.8604 C   0  0  0  0  0  0  0  0  0  0  0  0
    0.1217    2.3081   -0.3421 C   0  0  0  0  0  0  0  0  0  0  0  0
   -3.6301   -2.2418    2.1264 N   0  0  0  0  0  0  0  0  0  0  0  0
   -2.9698   -3.4586    2.2940 C   0  0  0  0  0  0  0  0  0  0  0  0
   -3.2318   -4.2154    3.4393 C   0  0  0  0  0  0  0  0  0  0  0  0
   -2.5728   -5.4282    3.6582 C   0  0  0  0  0  0  0  0  0  0  0  0
   -1.6436   -5.8943    2.7291 C   0  0  0  0  0  0  0  0  0  0  0  0
   -1.3743   -5.1451    1.5847 C   0  0  0  0  0  0  0  0  0  0  0  0
   -2.0389   -3.9284    1.3759 C   0  0  0  0  0  0  0  0  0  0  0  0
   -1.7861   -3.1186    0.1693 C   0  0  0  0  0  0  0  0  0  0  0  0
   -0.9728   -3.5564   -0.6432 O   0  0  0  0  0  0  0  0  0  0  0  0
   -1.0739   -0.8768   -1.6485 C   0  0  0  0  0  0  0  0  0  0  0  0
   -0.8969   -0.1365   -2.8218 C   0  0  0  0  0  0  0  0  0  0  0  0
   -0.9133    0.7958   -5.3481 H   0  0  0  0  0  0  0  0  0  0  0  0
   -2.6600    1.0150   -5.4829 H   0  0  0  0  0  0  0  0  0  0  0  0
   -1.6993    2.1736   -4.5314 H   0  0  0  0  0  0  0  0  0  0  0  0
   -4.1602    0.2882   -3.6765 H   0  0  0  0  0  0  0  0  0  0  0  0
   -4.4729   -1.0349   -1.6459 H   0  0  0  0  0  0  0  0  0  0  0  0
   -3.7216    1.7661    2.6689 H   0  0  0  0  0  0  0  0  0  0  0  0
   -3.6623    0.1593    3.4079 H   0  0  0  0  0  0  0  0  0  0  0  0
   -2.1258    1.8041    0.6642 H   0  0  0  0  0  0  0  0  0  0  0  0
    0.9433    0.5723    2.4581 H   0  0  0  0  0  0  0  0  0  0  0  0
    3.1487    0.8826    1.5727 H   0  0  0  0  0  0  0  0  0  0  0  0
    4.6142    0.3394    0.0748 H   0  0  0  0  0  0  0  0  0  0  0  0
    5.4757    1.0055   -1.2906 H   0  0  0  0  0  0  0  0  0  0  0  0
    5.3772    2.3611    1.4693 H   0  0  0  0  0  0  0  0  0  0  0  0
    6.7258    1.3962    0.8524 H   0  0  0  0  0  0  0  0  0  0  0  0
    5.9554    4.7861   -1.2725 H   0  0  0  0  0  0  0  0  0  0  0  0
    6.0234    3.2068   -2.0557 H   0  0  0  0  0  0  0  0  0  0  0  0
    3.8892    4.1477   -0.0548 H   0  0  0  0  0  0  0  0  0  0  0  0
    3.6623    4.0001   -1.8154 H   0  0  0  0  0  0  0  0  0  0  0  0
    1.5237    2.9938   -1.8113 H   0  0  0  0  0  0  0  0  0  0  0  0
   -0.7178    2.7069   -0.9055 H   0  0  0  0  0  0  0  0  0  0  0  0
   -3.9506   -3.8512    4.1703 H   0  0  0  0  0  0  0  0  0  0  0  0
   -2.7842   -6.0053    4.5554 H   0  0  0  0  0  0  0  0  0  0  0  0
   -1.1269   -6.8369    2.8978 H   0  0  0  0  0  0  0  0  0  0  0  0
   -0.6512   -5.5084    0.8586 H   0  0  0  0  0  0  0  0  0  0  0  0
   -0.1891   -1.1850   -1.0930 H   0  0  0  0  0  0  0  0  0  0  0  0
    0.1143    0.1026   -3.1445 H   0  0  0  0  0  0  0  0  0  0  0  0
  1  2  1  0
  2  3  2  0
  3  4  1  0
  4  5  2  0
  5  6  1  0
  6  7  1  0
  7  8  1  0
  8  9  1  0
  9 10  1  0
 10 11  2  0
 10 12  1  0
 12 13  1  0
 13 14  2  0
 14 15  1  0
 15 16  2  0
 16 17  1  0
 17 18  1  0
 18 19  1  0
 19 20  1  0
 20 21  1  0
 21 22  1  0
 16 23  1  0
 23 24  2  0
  7 25  2  0
 25 26  1  0
 26 27  2  0
 27 28  1  0
 28 29  2  0
 29 30  1  0
 30 31  2  0
 31 32  1  0
 32 33  2  0
  5 34  1  0
 34 35  2  0
 35  2  1  0
 32  6  1  0
 24 13  1  0
 31 26  1  0
 22 17  1  0
  1 36  1  0
  1 37  1  0
  1 38  1  0
  3 39  1  0
  4 40  1  0
  9 41  1  0
  9 42  1  0
 12 43  1  0
 14 44  1  0
 15 45  1  0
 18 46  1  0
 18 47  1  0
 19 48  1  0
 19 49  1  0
 21 50  1  0
 21 51  1  0
 22 52  1  0
 22 53  1  0
 23 54  1  0
 24 55  1  0
 27 56  1  0
 28 57  1  0
 29 58  1  0
 30 59  1  0
 34 60  1  0
 35 61  1  0
M  END
$$$$
