
     RDKit          3D

 36 37  0  0  0  0  0  0  0  0999 V2000
   -0.0230    0.7965    0.0717 O   0  0  0  0  0  0  0  0  0  0  0  0
   -0.5679   -0.1529    0.6268 C   0  0  0  0  0  0  0  0  0  0  0  0
    0.1759   -1.4024    1.0945 C   0  0  0  0  0  0  0  0  0  0  0  0
    1.5854   -1.2288    0.9659 O   0  0  0  0  0  0  0  0  0  0  0  0
    2.2960   -2.3610    1.1736 C   0  0  0  0  0  0  0  0  0  0  0  0
    1.8453   -3.4603    1.4396 O   0  0  0  0  0  0  0  0  0  0  0  0
    3.7301   -2.0471    1.0155 C   0  0  0  0  0  0  0  0  0  0  0  0
    4.1363   -1.3895   -0.1590 C   0  0  0  0  0  0  0  0  0  0  0  0
    5.4821   -1.1018   -0.3718 C   0  0  0  0  0  0  0  0  0  0  0  0
    6.4252   -1.4706    0.5849 C   0  0  0  0  0  0  0  0  0  0  0  0
    6.0255   -2.1216    1.7591 C   0  0  0  0  0  0  0  0  0  0  0  0
    7.2699   -2.5272    2.8923 Cl  0  0  0  0  0  0  0  0  0  0  0  0
    4.6715   -2.4159    1.9870 C   0  0  0  0  0  0  0  0  0  0  0  0
    4.1769   -3.1704    3.4686 Cl  0  0  0  0  0  0  0  0  0  0  0  0
   -1.9259   -0.1937    0.8763 N   0  0  0  0  0  0  0  0  0  0  0  0
   -2.8078    0.8921    0.4844 C   0  0  0  0  0  0  0  0  0  0  0  0
   -3.1144    0.9013   -1.0177 C   0  0  0  0  0  0  0  0  0  0  0  0
   -4.1782    1.8316   -1.3507 N   0  0  0  0  0  0  0  0  0  0  0  0
   -3.9670    3.1492   -1.6707 C   0  0  0  0  0  0  0  0  0  0  0  0
   -2.6903    3.6163   -1.7261 O   0  0  0  0  0  0  0  0  0  0  0  0
   -5.0829    3.8532   -1.8924 C   0  0  0  0  0  0  0  0  0  0  0  0
   -6.4998    2.8669   -1.6880 S   0  0  0  0  0  0  0  0  0  0  0  0
   -5.5091    1.4574   -1.2656 C   0  0  0  0  0  0  0  0  0  0  0  0
   -5.9680    0.3739   -0.9435 O   0  0  0  0  0  0  0  0  0  0  0  0
   -0.0703   -1.5817    2.1472 H   0  0  0  0  0  0  0  0  0  0  0  0
   -0.1650   -2.2399    0.4741 H   0  0  0  0  0  0  0  0  0  0  0  0
    3.4029   -1.1021   -0.9113 H   0  0  0  0  0  0  0  0  0  0  0  0
    5.7952   -0.5921   -1.2806 H   0  0  0  0  0  0  0  0  0  0  0  0
    7.4757   -1.2437    0.4138 H   0  0  0  0  0  0  0  0  0  0  0  0
   -2.3426   -1.0359    1.2554 H   0  0  0  0  0  0  0  0  0  0  0  0
   -2.3495    1.8425    0.7812 H   0  0  0  0  0  0  0  0  0  0  0  0
   -3.7285    0.7734    1.0661 H   0  0  0  0  0  0  0  0  0  0  0  0
   -2.2189    1.1314   -1.6062 H   0  0  0  0  0  0  0  0  0  0  0  0
   -3.4352   -0.1030   -1.3226 H   0  0  0  0  0  0  0  0  0  0  0  0
   -2.7111    4.5568   -1.9700 H   0  0  0  0  0  0  0  0  0  0  0  0
   -5.1385    4.8993   -2.1547 H   0  0  0  0  0  0  0  0  0  0  0  0
  1  2  2  0
  2  3  1  0
  3  4  1  0
  4  5  1  0
  5  6  2  0
  5  7  1  0
  7  8  2  0
  8  9  1  0
  9 10  2  0
 10 11  1  0
 11 12  1  0
 11 13  2  0
 13 14  1  0
  2 15  1  0
 15 16  1  0
 16 17  1  0
 17 18  1  0
 18 19  1  0
 19 20  1  0
 19 21  2  0
 21 22  1  0
 22 23  1  0
 23 24  2  0
 13  7  1  0
 23 18  1  0
  3 25  1  0
  3 26  1  0
  8 27  1  0
  9 28  1  0
 10 29  1  0
 15 30  1  0
 16 31  1  0
 16 32  1  0
 17 33  1  0
 17 34  1  0
 20 35  1  0
 21 36  1  0
M  END
$$$$
