
     RDKit          3D

 97 99  0  0  0  0  0  0  0  0999 V2000
   -0.3065   -2.5545    1.0074 C   0  0  0  0  0  0  0  0  0  0  0  0
   -0.6672   -1.2896    0.7095 C   0  0  0  0  0  0  0  0  0  0  0  0
   -2.1036   -1.0345    0.2592 C   0  0  1  0  0  0  0  0  0  0  0  0
   -2.5765    0.1552    0.9286 O   0  0  0  0  0  0  0  0  0  0  0  0
   -3.5898   -0.0085    1.8272 C   0  0  0  0  0  0  0  0  0  0  0  0
   -4.1045   -1.0771    2.1302 O   0  0  0  0  0  0  0  0  0  0  0  0
   -3.9976    1.3340    2.3994 C   0  0  0  0  0  0  0  0  0  0  0  0
   -4.7422    1.1593    3.7213 C   0  0  0  0  0  0  0  0  0  0  0  0
   -4.8572    2.0792    1.3863 C   0  0  0  0  0  0  0  0  0  0  0  0
   -2.3273   -0.8808   -1.2642 C   0  0  0  0  0  0  0  0  0  0  0  0
   -3.6993   -0.4349   -1.4622 O   0  0  0  0  0  0  0  0  0  0  0  0
   -3.9619    0.0871   -2.6878 C   0  0  0  0  0  0  0  0  0  0  0  0
   -5.4033    0.4809   -2.7908 C   0  0  0  0  0  0  0  0  0  0  0  0
   -3.1302    0.2380   -3.5730 O   0  0  0  0  0  0  0  0  0  0  0  0
   -2.1960   -2.2428   -1.9631 C   0  0  0  0  0  0  0  0  0  0  0  0
   -3.1167   -3.0701   -1.8584 O   0  0  0  0  0  0  0  0  0  0  0  0
   -0.9623   -2.5792   -2.8493 C   0  0  0  0  0  0  0  0  0  0  0  0
   -0.4072   -3.9478   -2.3942 C   0  0  0  0  0  0  0  0  0  0  0  0
   -1.4857   -2.7630   -4.2919 C   0  0  0  0  0  0  0  0  0  0  0  0
    0.1062   -1.4932   -2.8961 C   0  0  0  0  0  0  0  0  0  0  0  0
    1.3242   -1.5001   -2.3211 C   0  0  0  0  0  0  0  0  0  0  0  0
    2.3561   -0.3985   -2.5161 C   0  0  2  0  0  0  0  0  0  0  0  0
    3.5199   -1.0071   -3.3196 C   0  0  0  0  0  0  0  0  0  0  0  0
    2.9071    0.2555   -1.2092 C   0  0  2  0  0  0  0  0  0  0  0  0
    3.3515   -0.7953   -0.3130 O   0  0  0  0  0  0  0  0  0  0  0  0
    4.4908   -0.5238    0.3791 C   0  0  0  0  0  0  0  0  0  0  0  0
    5.1184    0.5256    0.3309 O   0  0  0  0  0  0  0  0  0  0  0  0
    4.9280   -1.6998    1.1649 C   0  0  0  0  0  0  0  0  0  0  0  0
    4.0105   -2.6183    1.6898 C   0  0  0  0  0  0  0  0  0  0  0  0
    4.4627   -3.7060    2.4387 C   0  0  0  0  0  0  0  0  0  0  0  0
    5.8290   -3.8833    2.6617 C   0  0  0  0  0  0  0  0  0  0  0  0
    6.7459   -2.9624    2.1483 C   0  0  0  0  0  0  0  0  0  0  0  0
    6.2977   -1.8682    1.4055 C   0  0  0  0  0  0  0  0  0  0  0  0
    1.9842    1.2885   -0.4723 C   0  0  1  0  0  0  0  0  0  0  0  0
    2.5874    1.6589    0.7805 O   0  0  0  0  0  0  0  0  0  0  0  0
    1.8493    2.5970   -1.3009 C   0  0  0  0  0  0  0  0  0  0  0  0
    0.3468    2.9161   -1.3671 C   0  0  2  0  0  0  0  0  0  0  0  0
    0.0784    4.4109   -1.4619 C   0  0  0  0  0  0  0  0  0  0  0  0
   -0.2483    2.1995   -0.1424 C   0  0  2  0  0  0  0  0  0  0  0  0
    0.0393    2.9454    1.0463 O   0  0  0  0  0  0  0  0  0  0  0  0
   -0.9564    3.7265    1.5379 C   0  0  0  0  0  0  0  0  0  0  0  0
   -0.4768    4.4846    2.7379 C   0  0  0  0  0  0  0  0  0  0  0  0
   -2.0748    3.8488    1.0589 O   0  0  0  0  0  0  0  0  0  0  0  0
    0.5169    0.8558   -0.1950 C   0  0  2  0  0  0  0  0  0  0  0  0
    0.3347   -0.1472    0.9674 C   0  0  1  0  0  0  0  0  0  0  0  0
   -0.0658    0.5139    2.1792 O   0  0  0  0  0  0  0  0  0  0  0  0
    0.5019    0.0644    3.3310 C   0  0  0  0  0  0  0  0  0  0  0  0
   -0.0042    0.8694    4.4890 C   0  0  0  0  0  0  0  0  0  0  0  0
    1.3096   -0.8477    3.4341 O   0  0  0  0  0  0  0  0  0  0  0  0
   -0.9907   -3.3930    0.9068 H   0  0  0  0  0  0  0  0  0  0  0  0
    0.6748   -2.7931    1.4045 H   0  0  0  0  0  0  0  0  0  0  0  0
   -2.7109   -1.8919    0.5780 H   0  0  0  0  0  0  0  0  0  0  0  0
   -3.0816    1.8967    2.6114 H   0  0  0  0  0  0  0  0  0  0  0  0
   -4.1318    0.5998    4.4418 H   0  0  0  0  0  0  0  0  0  0  0  0
   -5.6798    0.6073    3.5848 H   0  0  0  0  0  0  0  0  0  0  0  0
   -4.9828    2.1334    4.1623 H   0  0  0  0  0  0  0  0  0  0  0  0
   -4.3314    2.2004    0.4343 H   0  0  0  0  0  0  0  0  0  0  0  0
   -5.1235    3.0741    1.7572 H   0  0  0  0  0  0  0  0  0  0  0  0
   -5.7816    1.5332    1.1747 H   0  0  0  0  0  0  0  0  0  0  0  0
   -1.6790   -0.1190   -1.6905 H   0  0  0  0  0  0  0  0  0  0  0  0
   -6.0419   -0.3715   -2.5431 H   0  0  0  0  0  0  0  0  0  0  0  0
   -5.6009    1.3210   -2.1213 H   0  0  0  0  0  0  0  0  0  0  0  0
   -5.6241    0.7870   -3.8191 H   0  0  0  0  0  0  0  0  0  0  0  0
    0.3845   -4.2972   -3.0638 H   0  0  0  0  0  0  0  0  0  0  0  0
   -1.1887   -4.7145   -2.3883 H   0  0  0  0  0  0  0  0  0  0  0  0
   -0.0020   -3.9129   -1.3806 H   0  0  0  0  0  0  0  0  0  0  0  0
   -0.6792   -3.0633   -4.9738 H   0  0  0  0  0  0  0  0  0  0  0  0
   -1.9258   -1.8383   -4.6842 H   0  0  0  0  0  0  0  0  0  0  0  0
   -2.2652   -3.5343   -4.3420 H   0  0  0  0  0  0  0  0  0  0  0  0
   -0.1554   -0.6277   -3.5116 H   0  0  0  0  0  0  0  0  0  0  0  0
    1.6472   -2.3441   -1.7116 H   0  0  0  0  0  0  0  0  0  0  0  0
    1.9272    0.3934   -3.1407 H   0  0  0  0  0  0  0  0  0  0  0  0
    4.2721   -0.2457   -3.5572 H   0  0  0  0  0  0  0  0  0  0  0  0
    4.0209   -1.8115   -2.7684 H   0  0  0  0  0  0  0  0  0  0  0  0
    3.1665   -1.4241   -4.2697 H   0  0  0  0  0  0  0  0  0  0  0  0
    3.7961    0.8229   -1.5216 H   0  0  0  0  0  0  0  0  0  0  0  0
    2.9442   -2.4783    1.5454 H   0  0  0  0  0  0  0  0  0  0  0  0
    3.7475   -4.4127    2.8583 H   0  0  0  0  0  0  0  0  0  0  0  0
    6.1783   -4.7313    3.2453 H   0  0  0  0  0  0  0  0  0  0  0  0
    7.8095   -3.0941    2.3357 H   0  0  0  0  0  0  0  0  0  0  0  0
    7.0181   -1.1499    1.0144 H   0  0  0  0  0  0  0  0  0  0  0  0
    3.5471    1.7989    0.6353 H   0  0  0  0  0  0  0  0  0  0  0  0
    2.4028    3.4157   -0.8237 H   0  0  0  0  0  0  0  0  0  0  0  0
    2.2400    2.5014   -2.3207 H   0  0  0  0  0  0  0  0  0  0  0  0
   -0.0611    2.4428   -2.2716 H   0  0  0  0  0  0  0  0  0  0  0  0
    0.5049    4.8177   -2.3861 H   0  0  0  0  0  0  0  0  0  0  0  0
    0.5240    4.9598   -0.6255 H   0  0  0  0  0  0  0  0  0  0  0  0
   -0.9976    4.6117   -1.4719 H   0  0  0  0  0  0  0  0  0  0  0  0
   -1.3232    2.0371   -0.2724 H   0  0  0  0  0  0  0  0  0  0  0  0
   -0.0936    5.4593    2.4211 H   0  0  0  0  0  0  0  0  0  0  0  0
    0.3128    3.9288    3.2520 H   0  0  0  0  0  0  0  0  0  0  0  0
   -1.3067    4.6128    3.4379 H   0  0  0  0  0  0  0  0  0  0  0  0
    0.1806    0.3738   -1.1052 H   0  0  0  0  0  0  0  0  0  0  0  0
    1.3135   -0.6124    1.1230 H   0  0  0  0  0  0  0  0  0  0  0  0
    0.4980    1.8384    4.5128 H   0  0  0  0  0  0  0  0  0  0  0  0
   -1.0864    0.9998    4.4084 H   0  0  0  0  0  0  0  0  0  0  0  0
    0.1995    0.3329    5.4187 H   0  0  0  0  0  0  0  0  0  0  0  0
  1  2  2  0
  2  3  1  0
  3  4  1  0
  4  5  1  0
  5  6  2  0
  5  7  1  0
  7  8  1  0
  7  9  1  0
  3 10  1  0
 10 11  1  0
 11 12  1  0
 12 13  1  0
 12 14  2  0
 10 15  1  0
 15 16  2  0
 15 17  1  0
 17 18  1  0
 17 19  1  0
 17 20  1  0
 20 21  2  0
 21 22  1  0
 22 23  1  0
 22 24  1  0
 24 25  1  0
 25 26  1  0
 26 27  2  0
 26 28  1  0
 28 29  2  0
 29 30  1  0
 30 31  2  0
 31 32  1  0
 32 33  2  0
 24 34  1  0
 34 35  1  1
 34 36  1  0
 36 37  1  0
 37 38  1  0
 37 39  1  0
 39 40  1  0
 40 41  1  0
 41 42  1  0
 41 43  2  0
 39 44  1  0
 44 45  1  0
 45 46  1  0
 46 47  1  0
 47 48  1  0
 47 49  2  0
 45  2  1  0
 33 28  1  0
 44 34  1  0
  1 50  1  0
  1 51  1  0
  3 52  1  1
  7 53  1  0
  8 54  1  0
  8 55  1  0
  8 56  1  0
  9 57  1  0
  9 58  1  0
  9 59  1  0
 10 60  1  0
 13 61  1  0
 13 62  1  0
 13 63  1  0
 18 64  1  0
 18 65  1  0
 18 66  1  0
 19 67  1  0
 19 68  1  0
 19 69  1  0
 20 70  1  0
 21 71  1  0
 22 72  1  6
 23 73  1  0
 23 74  1  0
 23 75  1  0
 24 76  1  6
 29 77  1  0
 30 78  1  0
 31 79  1  0
 32 80  1  0
 33 81  1  0
 35 82  1  0
 36 83  1  0
 36 84  1  0
 37 85  1  6
 38 86  1  0
 38 87  1  0
 38 88  1  0
 39 89  1  6
 42 90  1  0
 42 91  1  0
 42 92  1  0
 44 93  1  6
 45 94  1  1
 48 95  1  0
 48 96  1  0
 48 97  1  0
M  END
$$$$
