
     RDKit          3D

 53 55  0  0  0  0  0  0  0  0999 V2000
   -5.9239   -3.9888    1.2634 C   0  0  0  0  0  0  0  0  0  0  0  0
   -5.5280   -2.6394    1.4746 O   0  0  0  0  0  0  0  0  0  0  0  0
   -6.0025   -1.6987    0.5973 C   0  0  0  0  0  0  0  0  0  0  0  0
   -6.8621   -1.9694   -0.4730 C   0  0  0  0  0  0  0  0  0  0  0  0
   -7.2784   -0.9436   -1.3259 C   0  0  0  0  0  0  0  0  0  0  0  0
   -6.8366    0.3594   -1.1208 C   0  0  0  0  0  0  0  0  0  0  0  0
   -5.9826    0.6405   -0.0569 C   0  0  0  0  0  0  0  0  0  0  0  0
   -5.5675   -0.3783    0.8185 C   0  0  0  0  0  0  0  0  0  0  0  0
   -4.6263   -0.0359    1.9472 C   0  0  0  0  0  0  0  0  0  0  0  0
   -3.2559   -0.2530    1.5616 N   0  0  0  0  0  0  0  0  0  0  0  0
   -2.4728    0.7387    1.0260 C   0  0  0  0  0  0  0  0  0  0  0  0
   -2.7548    1.9270    0.9465 O   0  0  0  0  0  0  0  0  0  0  0  0
   -1.1176    0.2309    0.4811 C   0  0  0  0  0  0  0  0  0  0  0  0
   -0.8264   -0.9547    0.5569 O   0  0  0  0  0  0  0  0  0  0  0  0
   -0.3426    1.2278   -0.0697 N   0  0  0  0  0  0  0  0  0  0  0  0
    1.0411    1.0026   -0.4452 C   0  0  0  0  0  0  0  0  0  0  0  0
    2.0417    1.2753    0.7027 C   0  0  0  0  0  0  0  0  0  0  0  0
    1.7428    0.4474    1.8452 O   0  0  0  0  0  0  0  0  0  0  0  0
    2.7061   -0.6063    1.8569 C   0  0  0  0  0  0  0  0  0  0  0  0
    3.9573    0.0485    1.3196 C   0  0  0  0  0  0  0  0  0  0  0  0
    3.4147    0.9246    0.2705 N   0  0  0  0  0  0  0  0  0  0  0  0
    4.3360    2.2459   -0.2179 S   0  0  0  0  0  6  0  0  0  0  0  0
    3.6252    2.9042   -1.2923 O   0  0  0  0  0  0  0  0  0  0  0  0
    4.7401    2.9707    0.9670 O   0  0  0  0  0  0  0  0  0  0  0  0
    5.7690    1.4681   -0.9203 C   0  0  0  0  0  0  0  0  0  0  0  0
    5.6472    0.8005   -2.1437 C   0  0  0  0  0  0  0  0  0  0  0  0
    6.7682    0.1890   -2.7073 C   0  0  0  0  0  0  0  0  0  0  0  0
    7.9973    0.2556   -2.0489 C   0  0  0  0  0  0  0  0  0  0  0  0
    9.5140   -0.5742   -2.8138 Br  0  0  0  0  0  0  0  0  0  0  0  0
    8.1194    0.9308   -0.8329 C   0  0  0  0  0  0  0  0  0  0  0  0
    7.0013    1.5442   -0.2643 C   0  0  0  0  0  0  0  0  0  0  0  0
   -5.5768   -4.3552    0.2917 H   0  0  0  0  0  0  0  0  0  0  0  0
   -5.4500   -4.6003    2.0373 H   0  0  0  0  0  0  0  0  0  0  0  0
   -7.0079   -4.1028    1.3674 H   0  0  0  0  0  0  0  0  0  0  0  0
   -7.2262   -2.9709   -0.6760 H   0  0  0  0  0  0  0  0  0  0  0  0
   -7.9444   -1.1654   -2.1560 H   0  0  0  0  0  0  0  0  0  0  0  0
   -7.1521    1.1558   -1.7898 H   0  0  0  0  0  0  0  0  0  0  0  0
   -5.6310    1.6610    0.0885 H   0  0  0  0  0  0  0  0  0  0  0  0
   -4.7649    1.0073    2.2550 H   0  0  0  0  0  0  0  0  0  0  0  0
   -4.8302   -0.6522    2.8293 H   0  0  0  0  0  0  0  0  0  0  0  0
   -2.9295   -1.2074    1.4411 H   0  0  0  0  0  0  0  0  0  0  0  0
   -0.7051    2.1744    0.0161 H   0  0  0  0  0  0  0  0  0  0  0  0
    1.2500    1.6533   -1.2997 H   0  0  0  0  0  0  0  0  0  0  0  0
    1.1385   -0.0357   -0.7840 H   0  0  0  0  0  0  0  0  0  0  0  0
    1.9588    2.3137    1.0416 H   0  0  0  0  0  0  0  0  0  0  0  0
    2.8293   -0.9959    2.8707 H   0  0  0  0  0  0  0  0  0  0  0  0
    2.3525   -1.4112    1.2028 H   0  0  0  0  0  0  0  0  0  0  0  0
    4.4384    0.6363    2.1083 H   0  0  0  0  0  0  0  0  0  0  0  0
    4.6614   -0.6861    0.9226 H   0  0  0  0  0  0  0  0  0  0  0  0
    4.6891    0.7569   -2.6576 H   0  0  0  0  0  0  0  0  0  0  0  0
    6.6756   -0.3308   -3.6579 H   0  0  0  0  0  0  0  0  0  0  0  0
    9.0796    0.9886   -0.3256 H   0  0  0  0  0  0  0  0  0  0  0  0
    7.1013    2.0774    0.6788 H   0  0  0  0  0  0  0  0  0  0  0  0
  1  2  1  0
  2  3  1  0
  3  4  2  0
  4  5  1  0
  5  6  2  0
  6  7  1  0
  7  8  2  0
  8  9  1  0
  9 10  1  0
 10 11  1  0
 11 12  2  0
 11 13  1  0
 13 14  2  0
 13 15  1  0
 15 16  1  0
 16 17  1  0
 17 18  1  0
 18 19  1  0
 19 20  1  0
 20 21  1  0
 21 22  1  0
 22 23  2  0
 22 24  2  0
 22 25  1  0
 25 26  2  0
 26 27  1  0
 27 28  2  0
 28 29  1  0
 28 30  1  0
 30 31  2  0
  8  3  1  0
 21 17  1  0
 31 25  1  0
  1 32  1  0
  1 33  1  0
  1 34  1  0
  4 35  1  0
  5 36  1  0
  6 37  1  0
  7 38  1  0
  9 39  1  0
  9 40  1  0
 10 41  1  0
 15 42  1  0
 16 43  1  0
 16 44  1  0
 17 45  1  0
 19 46  1  0
 19 47  1  0
 20 48  1  0
 20 49  1  0
 26 50  1  0
 27 51  1  0
 30 52  1  0
 31 53  1  0
M  END
$$$$
