
     RDKit          3D

 62 66  0  0  0  0  0  0  0  0999 V2000
   -4.4413    5.6710   -3.1467 C   0  0  0  0  0  0  0  0  0  0  0  0
   -3.5852    4.5929   -2.7909 O   0  0  0  0  0  0  0  0  0  0  0  0
   -4.1137    3.6196   -1.9871 C   0  0  0  0  0  0  0  0  0  0  0  0
   -5.4151    3.5755   -1.5049 C   0  0  0  0  0  0  0  0  0  0  0  0
   -5.8373    2.5222   -0.6845 C   0  0  0  0  0  0  0  0  0  0  0  0
   -4.9264    1.5018   -0.3501 C   0  0  0  0  0  0  0  0  0  0  0  0
   -5.2307    0.1280    0.6369 S   0  0  0  0  0  0  0  0  0  0  0  0
   -3.6355   -0.4597    0.4590 C   0  0  0  0  0  0  0  0  0  0  0  0
   -3.2760   -1.7177    1.1254 C   0  0  0  0  0  0  0  0  0  0  0  0
   -3.4343   -2.9217    0.4194 C   0  0  0  0  0  0  0  0  0  0  0  0
   -3.0977   -4.1386    1.0092 C   0  0  0  0  0  0  0  0  0  0  0  0
   -2.5973   -4.1616    2.3075 C   0  0  0  0  0  0  0  0  0  0  0  0
   -2.4310   -2.9701    3.0203 C   0  0  0  0  0  0  0  0  0  0  0  0
   -2.7673   -1.7408    2.4404 C   0  0  0  0  0  0  0  0  0  0  0  0
   -2.6250   -0.5256    3.0629 O   0  0  0  0  0  0  0  0  0  0  0  0
   -2.2320   -0.5300    4.4282 C   0  0  0  0  0  0  0  0  0  0  0  0
   -2.8720    0.3681   -0.3459 C   0  0  0  0  0  0  0  0  0  0  0  0
   -1.4807    0.0644   -0.6512 C   0  0  0  0  0  0  0  0  0  0  0  0
   -1.1434   -0.5179   -1.8752 C   0  0  0  0  0  0  0  0  0  0  0  0
    0.1937   -0.7947   -2.1678 C   0  0  0  0  0  0  0  0  0  0  0  0
    1.2034   -0.4896   -1.2501 C   0  0  0  0  0  0  0  0  0  0  0  0
    2.4653   -0.8127   -1.6655 O   0  0  0  0  0  0  0  0  0  0  0  0
    3.5462   -0.4934   -0.7823 C   0  0  0  0  0  0  0  0  0  0  0  0
    4.8531   -0.9553   -1.4503 C   0  0  0  0  0  0  0  0  0  0  0  0
    6.1141   -0.7330   -0.7422 N   0  0  0  0  0  0  0  0  0  0  0  0
    6.2273   -1.3935    0.5532 C   0  0  0  0  0  0  0  0  0  0  0  0
    7.5071   -0.7935    1.1194 C   0  0  0  0  0  0  0  0  0  0  0  0
    7.6660    0.5514    0.4133 C   0  0  0  0  0  0  0  0  0  0  0  0
    6.4592    0.6645   -0.5072 C   0  0  0  0  0  0  0  0  0  0  0  0
    0.8647    0.0958   -0.0291 C   0  0  0  0  0  0  0  0  0  0  0  0
   -0.4740    0.3723    0.2694 C   0  0  0  0  0  0  0  0  0  0  0  0
   -3.6125    1.5142   -0.8203 C   0  0  0  0  0  0  0  0  0  0  0  0
   -3.2190    2.5971   -1.6495 C   0  0  0  0  0  0  0  0  0  0  0  0
   -5.2944    5.3190   -3.7363 H   0  0  0  0  0  0  0  0  0  0  0  0
   -4.7725    6.2219   -2.2600 H   0  0  0  0  0  0  0  0  0  0  0  0
   -3.8666    6.3616   -3.7717 H   0  0  0  0  0  0  0  0  0  0  0  0
   -6.1397    4.3470   -1.7448 H   0  0  0  0  0  0  0  0  0  0  0  0
   -6.8568    2.4949   -0.3096 H   0  0  0  0  0  0  0  0  0  0  0  0
   -3.8208   -2.9102   -0.5974 H   0  0  0  0  0  0  0  0  0  0  0  0
   -3.2237   -5.0648    0.4547 H   0  0  0  0  0  0  0  0  0  0  0  0
   -2.3319   -5.1101    2.7681 H   0  0  0  0  0  0  0  0  0  0  0  0
   -2.0304   -3.0373    4.0260 H   0  0  0  0  0  0  0  0  0  0  0  0
   -2.2301    0.5066    4.7785 H   0  0  0  0  0  0  0  0  0  0  0  0
   -1.2153   -0.9200    4.5426 H   0  0  0  0  0  0  0  0  0  0  0  0
   -2.9441   -1.0879    5.0454 H   0  0  0  0  0  0  0  0  0  0  0  0
   -1.9137   -0.7594   -2.6035 H   0  0  0  0  0  0  0  0  0  0  0  0
    0.4515   -1.2511   -3.1207 H   0  0  0  0  0  0  0  0  0  0  0  0
    3.4086   -1.0207    0.1683 H   0  0  0  0  0  0  0  0  0  0  0  0
    3.5719    0.5893   -0.6156 H   0  0  0  0  0  0  0  0  0  0  0  0
    4.7651   -2.0276   -1.6722 H   0  0  0  0  0  0  0  0  0  0  0  0
    4.9211   -0.4852   -2.4406 H   0  0  0  0  0  0  0  0  0  0  0  0
    6.2998   -2.4816    0.4612 H   0  0  0  0  0  0  0  0  0  0  0  0
    5.3907   -1.1523    1.2187 H   0  0  0  0  0  0  0  0  0  0  0  0
    7.4480   -0.6754    2.2069 H   0  0  0  0  0  0  0  0  0  0  0  0
    8.3695   -1.4330    0.8969 H   0  0  0  0  0  0  0  0  0  0  0  0
    8.5969    0.5559   -0.1659 H   0  0  0  0  0  0  0  0  0  0  0  0
    7.7113    1.3810    1.1252 H   0  0  0  0  0  0  0  0  0  0  0  0
    5.6592    1.2107    0.0049 H   0  0  0  0  0  0  0  0  0  0  0  0
    6.7097    1.1929   -1.4325 H   0  0  0  0  0  0  0  0  0  0  0  0
    1.6125    0.3499    0.7140 H   0  0  0  0  0  0  0  0  0  0  0  0
   -0.7289    0.8273    1.2245 H   0  0  0  0  0  0  0  0  0  0  0  0
   -2.1999    2.6376   -2.0290 H   0  0  0  0  0  0  0  0  0  0  0  0
  1  2  1  0
  2  3  1  0
  3  4  2  0
  4  5  1  0
  5  6  2  0
  6  7  1  0
  7  8  1  0
  8  9  1  0
  9 10  2  0
 10 11  1  0
 11 12  2  0
 12 13  1  0
 13 14  2  0
 14 15  1  0
 15 16  1  0
  8 17  2  0
 17 18  1  0
 18 19  2  0
 19 20  1  0
 20 21  2  0
 21 22  1  0
 22 23  1  0
 23 24  1  0
 24 25  1  0
 25 26  1  0
 26 27  1  0
 27 28  1  0
 28 29  1  0
 21 30  1  0
 30 31  2  0
 17 32  1  0
 32 33  2  0
 33  3  1  0
 32  6  1  0
 14  9  1  0
 31 18  1  0
 29 25  1  0
  1 34  1  0
  1 35  1  0
  1 36  1  0
  4 37  1  0
  5 38  1  0
 10 39  1  0
 11 40  1  0
 12 41  1  0
 13 42  1  0
 16 43  1  0
 16 44  1  0
 16 45  1  0
 19 46  1  0
 20 47  1  0
 23 48  1  0
 23 49  1  0
 24 50  1  0
 24 51  1  0
 26 52  1  0
 26 53  1  0
 27 54  1  0
 27 55  1  0
 28 56  1  0
 28 57  1  0
 29 58  1  0
 29 59  1  0
 30 60  1  0
 31 61  1  0
 33 62  1  0
M  END
$$$$
