
     RDKit          3D

 31 32  0  0  0  0  0  0  0  0999 V2000
    2.5872    1.6460   -0.7494 C   0  0  0  0  0  0  0  0  0  0  0  0
    2.2986    0.9303    0.5620 C   0  0  0  0  0  0  0  0  0  0  0  0
    2.4583   -0.5161    0.4355 N   0  0  0  0  0  0  0  0  0  0  0  0
    1.6090   -1.4176   -0.1367 C   0  0  0  0  0  0  0  0  0  0  0  0
    0.2591   -1.1144   -0.5625 C   0  0  0  0  0  0  0  0  0  0  0  0
   -0.2561   -1.5809   -1.7583 C   0  0  0  0  0  0  0  0  0  0  0  0
   -1.8616   -1.0761   -2.0387 S   0  0  0  0  0  0  0  0  0  0  0  0
   -1.9379   -0.2654   -0.5331 C   0  0  0  0  0  0  0  0  0  0  0  0
   -3.2104    0.4349   -0.1158 C   0  0  0  0  0  0  0  0  0  0  0  0
   -2.9656    1.9299    0.0989 C   0  0  0  0  0  0  0  0  0  0  0  0
   -3.7980   -0.2035    1.1442 C   0  0  0  0  0  0  0  0  0  0  0  0
   -0.7431   -0.3794    0.1539 C   0  0  0  0  0  0  0  0  0  0  0  0
    2.1072   -2.6106   -0.3048 N   0  0  0  0  0  0  0  0  0  0  0  0
    3.3710   -2.5157    0.1974 N   0  0  0  0  0  0  0  0  0  0  0  0
    3.6218   -1.2238    0.6321 C   0  0  0  0  0  0  0  0  0  0  0  0
    5.0848   -0.7335    1.2371 S   0  0  0  0  0  0  0  0  0  0  0  0
    2.4725    2.7271   -0.6246 H   0  0  0  0  0  0  0  0  0  0  0  0
    1.9020    1.3199   -1.5384 H   0  0  0  0  0  0  0  0  0  0  0  0
    3.6077    1.4476   -1.0922 H   0  0  0  0  0  0  0  0  0  0  0  0
    1.2837    1.1626    0.8867 H   0  0  0  0  0  0  0  0  0  0  0  0
    2.9754    1.3043    1.3365 H   0  0  0  0  0  0  0  0  0  0  0  0
    0.2497   -2.1912   -2.4955 H   0  0  0  0  0  0  0  0  0  0  0  0
   -3.9601    0.3379   -0.9122 H   0  0  0  0  0  0  0  0  0  0  0  0
   -2.5568    2.3937   -0.8058 H   0  0  0  0  0  0  0  0  0  0  0  0
   -2.2580    2.1126    0.9154 H   0  0  0  0  0  0  0  0  0  0  0  0
   -3.9013    2.4431    0.3457 H   0  0  0  0  0  0  0  0  0  0  0  0
   -3.9880   -1.2717    0.9901 H   0  0  0  0  0  0  0  0  0  0  0  0
   -4.7484    0.2712    1.4107 H   0  0  0  0  0  0  0  0  0  0  0  0
   -3.1227   -0.1059    2.0016 H   0  0  0  0  0  0  0  0  0  0  0  0
   -0.6037    0.0348    1.1451 H   0  0  0  0  0  0  0  0  0  0  0  0
    4.0237   -3.2901    0.1749 H   0  0  0  0  0  0  0  0  0  0  0  0
  1  2  1  0
  2  3  1  0
  3  4  1  0
  4  5  1  0
  5  6  2  0
  6  7  1  0
  7  8  1  0
  8  9  1  0
  9 10  1  0
  9 11  1  0
  8 12  2  0
  4 13  2  0
 13 14  1  0
 14 15  1  0
 15 16  2  0
 15  3  1  0
 12  5  1  0
  1 17  1  0
  1 18  1  0
  1 19  1  0
  2 20  1  0
  2 21  1  0
  6 22  1  0
  9 23  1  0
 10 24  1  0
 10 25  1  0
 10 26  1  0
 11 27  1  0
 11 28  1  0
 11 29  1  0
 12 30  1  0
 14 31  1  0
M  END
$$$$
