
     RDKit          3D

 40 41  0  0  0  0  0  0  0  0999 V2000
   -6.9346    0.1516   -0.1920 C   0  0  0  0  0  0  0  0  0  0  0  0
   -5.4407    0.0499   -0.0906 C   0  0  0  0  0  0  0  0  0  0  0  0
   -4.7546    0.6952    0.9324 C   0  0  0  0  0  0  0  0  0  0  0  0
   -3.3754    0.5576    1.0241 C   0  0  0  0  0  0  0  0  0  0  0  0
   -2.6845   -0.2300    0.0961 C   0  0  0  0  0  0  0  0  0  0  0  0
   -1.2337   -0.4030    0.2097 C   0  0  0  0  0  0  0  0  0  0  0  0
   -0.3765    0.6277    0.1352 C   0  0  0  0  0  0  0  0  0  0  0  0
    1.0799    0.4604    0.2135 C   0  0  0  0  0  0  0  0  0  0  0  0
    1.8973    1.2124   -0.6280 C   0  0  0  0  0  0  0  0  0  0  0  0
    3.2941    1.0818   -0.5739 C   0  0  0  0  0  0  0  0  0  0  0  0
    3.9362    0.2193    0.3307 C   0  0  0  0  0  0  0  0  0  0  0  0
    5.3261    0.0734    0.3630 N   0  0  0  0  0  0  0  0  0  0  0  0
    5.9497   -0.5791    1.5148 C   0  0  0  0  0  0  0  0  0  0  0  0
    6.1656    1.0495   -0.3325 C   0  0  0  0  0  0  0  0  0  0  0  0
    3.0871   -0.5188    1.1728 C   0  0  0  0  0  0  0  0  0  0  0  0
    1.6889   -0.3983    1.1273 C   0  0  0  0  0  0  0  0  0  0  0  0
   -3.3737   -0.8651   -0.8912 N   0  0  0  0  0  4  0  0  0  0  0  0
   -2.6666   -1.6845   -1.8974 C   0  0  0  0  0  0  0  0  0  0  0  0
   -4.7196   -0.7390   -0.9853 C   0  0  0  0  0  0  0  0  0  0  0  0
   -7.4043   -0.6378    0.4028 H   0  0  0  0  0  0  0  0  0  0  0  0
   -7.2849    1.1242    0.1693 H   0  0  0  0  0  0  0  0  0  0  0  0
   -7.2626    0.0538   -1.2322 H   0  0  0  0  0  0  0  0  0  0  0  0
   -5.2860    1.3038    1.6641 H   0  0  0  0  0  0  0  0  0  0  0  0
   -2.8416    1.0587    1.8306 H   0  0  0  0  0  0  0  0  0  0  0  0
   -0.8778   -1.4220    0.3385 H   0  0  0  0  0  0  0  0  0  0  0  0
   -0.7194    1.6491   -0.0241 H   0  0  0  0  0  0  0  0  0  0  0  0
    1.4712    1.9059   -1.3494 H   0  0  0  0  0  0  0  0  0  0  0  0
    3.8686    1.6849   -1.2712 H   0  0  0  0  0  0  0  0  0  0  0  0
    7.0402   -0.6133    1.4121 H   0  0  0  0  0  0  0  0  0  0  0  0
    5.6245   -1.6212    1.6035 H   0  0  0  0  0  0  0  0  0  0  0  0
    5.7218   -0.0415    2.4419 H   0  0  0  0  0  0  0  0  0  0  0  0
    5.9621    1.0517   -1.4087 H   0  0  0  0  0  0  0  0  0  0  0  0
    7.2290    0.8054   -0.2296 H   0  0  0  0  0  0  0  0  0  0  0  0
    6.0162    2.0560    0.0734 H   0  0  0  0  0  0  0  0  0  0  0  0
    3.4947   -1.2163    1.8990 H   0  0  0  0  0  0  0  0  0  0  0  0
    1.1010   -0.9841    1.8290 H   0  0  0  0  0  0  0  0  0  0  0  0
   -1.9009   -1.0654   -2.3723 H   0  0  0  0  0  0  0  0  0  0  0  0
   -2.2317   -2.5475   -1.3869 H   0  0  0  0  0  0  0  0  0  0  0  0
   -3.3688   -2.0296   -2.6606 H   0  0  0  0  0  0  0  0  0  0  0  0
   -5.2161   -1.2758   -1.7899 H   0  0  0  0  0  0  0  0  0  0  0  0
  1  2  1  0
  2  3  2  0
  3  4  1  0
  4  5  2  0
  5  6  1  0
  6  7  2  3
  7  8  1  0
  8  9  2  0
  9 10  1  0
 10 11  2  0
 11 12  1  0
 12 13  1  0
 12 14  1  0
 11 15  1  0
 15 16  2  0
  5 17  1  0
 17 18  1  0
 17 19  2  0
 19  2  1  0
 16  8  1  0
  1 20  1  0
  1 21  1  0
  1 22  1  0
  3 23  1  0
  4 24  1  0
  6 25  1  0
  7 26  1  0
  9 27  1  0
 10 28  1  0
 13 29  1  0
 13 30  1  0
 13 31  1  0
 14 32  1  0
 14 33  1  0
 14 34  1  0
 15 35  1  0
 16 36  1  0
 18 37  1  0
 18 38  1  0
 18 39  1  0
 19 40  1  0
M  CHG  1  17   1
M  END
$$$$
