
     RDKit          3D

 50 52  0  0  0  0  0  0  0  0999 V2000
    7.8642    0.6040    1.7914 C   0  0  0  0  0  0  0  0  0  0  0  0
    7.3589    0.7451    3.1483 N   0  0  0  0  0  0  0  0  0  0  0  0
    5.9678    1.6117    3.4698 S   0  0  0  0  0  6  0  0  0  0  0  0
    5.7118    1.4690    4.8851 O   0  0  0  0  0  0  0  0  0  0  0  0
    6.0800    2.9092    2.8414 O   0  0  0  0  0  0  0  0  0  0  0  0
    4.7284    0.6799    2.6042 C   0  0  0  0  0  0  0  0  0  0  0  0
    4.1645   -0.4477    3.2176 C   0  0  0  0  0  0  0  0  0  0  0  0
    3.1663   -1.1670    2.5535 C   0  0  0  0  0  0  0  0  0  0  0  0
    2.7249   -0.7486    1.2862 C   0  0  0  0  0  0  0  0  0  0  0  0
    1.6574   -1.4854    0.5534 C   0  0  0  0  0  0  0  0  0  0  0  0
    1.6123   -1.4726   -0.6742 O   0  0  0  0  0  0  0  0  0  0  0  0
    0.7159   -2.1279    1.3346 N   0  0  0  0  0  0  0  0  0  0  0  0
   -0.4664   -2.6896    0.7067 C   0  0  0  0  0  0  0  0  0  0  0  0
   -1.4937   -1.5703    0.5429 C   0  0  0  0  0  0  0  0  0  0  0  0
   -1.9733   -0.9847    1.5129 O   0  0  0  0  0  0  0  0  0  0  0  0
   -1.7760   -1.2419   -0.7686 N   0  0  0  0  0  0  0  0  0  0  0  0
   -2.5517   -0.0593   -1.1094 C   0  0  0  0  0  0  0  0  0  0  0  0
   -4.0177   -0.0569   -0.6242 C   0  0  0  0  0  0  0  0  0  0  0  0
   -4.8413   -1.2385   -1.1364 C   0  0  0  0  0  0  0  0  0  0  0  0
   -4.9577   -1.2286   -2.5640 O   0  0  0  0  0  0  0  0  0  0  0  0
   -5.3241    0.0124   -3.0172 C   0  0  0  0  0  0  0  0  0  0  0  0
   -5.8436    0.0841   -4.3099 C   0  0  0  0  0  0  0  0  0  0  0  0
   -6.2538    1.3150   -4.8290 C   0  0  0  0  0  0  0  0  0  0  0  0
   -6.1343    2.4732   -4.0574 C   0  0  0  0  0  0  0  0  0  0  0  0
   -5.5972    2.4032   -2.7682 C   0  0  0  0  0  0  0  0  0  0  0  0
   -5.1821    1.1749   -2.2530 C   0  0  0  0  0  0  0  0  0  0  0  0
   -4.6413    1.1901   -0.9939 O   0  0  0  0  0  0  0  0  0  0  0  0
    3.3004    0.3791    0.6780 C   0  0  0  0  0  0  0  0  0  0  0  0
    4.2960    1.1030    1.3409 C   0  0  0  0  0  0  0  0  0  0  0  0
    8.9613    0.5923    1.8176 H   0  0  0  0  0  0  0  0  0  0  0  0
    7.5205   -0.3422    1.3639 H   0  0  0  0  0  0  0  0  0  0  0  0
    7.5578    1.4374    1.1497 H   0  0  0  0  0  0  0  0  0  0  0  0
    7.6872    0.1281    3.8889 H   0  0  0  0  0  0  0  0  0  0  0  0
    4.4938   -0.7689    4.2067 H   0  0  0  0  0  0  0  0  0  0  0  0
    2.7541   -2.0584    3.0274 H   0  0  0  0  0  0  0  0  0  0  0  0
    0.5988   -1.8173    2.2954 H   0  0  0  0  0  0  0  0  0  0  0  0
   -0.8851   -3.4560    1.3693 H   0  0  0  0  0  0  0  0  0  0  0  0
   -0.2109   -3.1496   -0.2551 H   0  0  0  0  0  0  0  0  0  0  0  0
   -1.0740   -1.5235   -1.4508 H   0  0  0  0  0  0  0  0  0  0  0  0
   -2.0289    0.8128   -0.6946 H   0  0  0  0  0  0  0  0  0  0  0  0
   -2.5003    0.0490   -2.2008 H   0  0  0  0  0  0  0  0  0  0  0  0
   -4.0367   -0.0851    0.4723 H   0  0  0  0  0  0  0  0  0  0  0  0
   -4.3857   -2.1917   -0.8449 H   0  0  0  0  0  0  0  0  0  0  0  0
   -5.8530   -1.2178   -0.7095 H   0  0  0  0  0  0  0  0  0  0  0  0
   -5.9437   -0.8173   -4.9026 H   0  0  0  0  0  0  0  0  0  0  0  0
   -6.6782    1.3670   -5.8279 H   0  0  0  0  0  0  0  0  0  0  0  0
   -6.4582    3.4303   -4.4596 H   0  0  0  0  0  0  0  0  0  0  0  0
   -5.4983    3.3026   -2.1697 H   0  0  0  0  0  0  0  0  0  0  0  0
    2.9632    0.7041   -0.3080 H   0  0  0  0  0  0  0  0  0  0  0  0
    4.7218    1.9913    0.8706 H   0  0  0  0  0  0  0  0  0  0  0  0
  1  2  1  0
  2  3  1  0
  3  4  2  0
  3  5  2  0
  3  6  1  0
  6  7  2  0
  7  8  1  0
  8  9  2  0
  9 10  1  0
 10 11  2  0
 10 12  1  0
 12 13  1  0
 13 14  1  0
 14 15  2  0
 14 16  1  0
 16 17  1  0
 17 18  1  0
 18 19  1  0
 19 20  1  0
 20 21  1  0
 21 22  2  0
 22 23  1  0
 23 24  2  0
 24 25  1  0
 25 26  2  0
 26 27  1  0
  9 28  1  0
 28 29  2  0
 29  6  1  0
 27 18  1  0
 26 21  1  0
  1 30  1  0
  1 31  1  0
  1 32  1  0
  2 33  1  0
  7 34  1  0
  8 35  1  0
 12 36  1  0
 13 37  1  0
 13 38  1  0
 16 39  1  0
 17 40  1  0
 17 41  1  0
 18 42  1  0
 19 43  1  0
 19 44  1  0
 22 45  1  0
 23 46  1  0
 24 47  1  0
 25 48  1  0
 28 49  1  0
 29 50  1  0
M  END
$$$$
