
     RDKit          3D

 72 74  0  0  0  0  0  0  0  0999 V2000
    0.9642    3.8886    5.1577 C   0  0  0  0  0  0  0  0  0  0  0  0
    0.8156    4.0037    3.7481 O   0  0  0  0  0  0  0  0  0  0  0  0
    0.2246    2.9524    3.1054 C   0  0  0  0  0  0  0  0  0  0  0  0
    0.2621    3.0209    1.7117 C   0  0  0  0  0  0  0  0  0  0  0  0
   -0.2964    2.0071    0.9269 C   0  0  0  0  0  0  0  0  0  0  0  0
   -0.9119    0.8985    1.5263 C   0  0  0  0  0  0  0  0  0  0  0  0
   -1.5396   -0.2425    0.7299 C   0  0  0  0  0  0  0  0  0  0  0  0
   -1.7361    0.0088   -0.7959 C   0  0  0  0  0  0  0  0  0  0  0  0
   -1.1007   -0.5937   -1.6607 O   0  0  0  0  0  0  0  0  0  0  0  0
   -2.6788    0.9862   -1.0890 N   0  0  0  0  0  0  0  0  0  0  0  0
   -3.1060    1.3586   -2.4457 C   0  0  0  0  0  0  0  0  0  0  0  0
   -1.9251    1.8890   -3.2742 C   0  0  0  0  0  0  0  0  0  0  0  0
   -4.1490    2.4857   -2.3230 C   0  0  0  0  0  0  0  0  0  0  0  0
   -3.7615    0.1661   -3.1594 C   0  0  0  0  0  0  0  0  0  0  0  0
   -0.9447   -1.5695    1.0277 N   0  0  0  0  0  0  0  0  0  0  0  0
   -1.8934   -2.6460    1.3525 C   0  0  0  0  0  0  0  0  0  0  0  0
   -2.6581   -3.1546    0.1260 C   0  0  0  0  0  0  0  0  0  0  0  0
   -3.2717   -4.5293    0.3315 C   0  0  0  0  0  0  0  0  0  0  0  0
   -4.3952   -4.5081   -0.6748 C   0  0  0  0  0  0  0  0  0  0  0  0
   -4.8907   -3.0816   -0.5593 C   0  0  0  0  0  0  0  0  0  0  0  0
   -3.7713   -2.2740   -0.1589 O   0  0  0  0  0  0  0  0  0  0  0  0
    0.3595   -1.9546    0.7315 C   0  0  0  0  0  0  0  0  0  0  0  0
    0.6986   -3.1422    0.7931 O   0  0  0  0  0  0  0  0  0  0  0  0
    1.3875   -0.8943    0.3816 C   0  0  0  0  0  0  0  0  0  0  0  0
    2.7349   -1.5330    0.0518 C   0  0  0  0  0  0  0  0  0  0  0  0
    3.7999   -0.5033   -0.2652 C   0  0  0  0  0  0  0  0  0  0  0  0
    3.5392    0.6722   -0.4964 O   0  0  0  0  0  0  0  0  0  0  0  0
    5.0583   -1.0675   -0.2745 N   0  0  0  0  0  0  0  0  0  0  0  0
    6.2302   -0.4017   -0.5517 C   0  0  0  0  0  0  0  0  0  0  0  0
    6.4312    0.9431   -0.9395 C   0  0  0  0  0  0  0  0  0  0  0  0
    7.7925    1.0617   -1.0726 C   0  0  0  0  0  0  0  0  0  0  0  0
    8.6938    2.1676   -1.4369 C   0  0  0  0  0  0  0  0  0  0  0  0
    8.3756   -0.1337   -0.7849 O   0  0  0  0  0  0  0  0  0  0  0  0
    7.3961   -1.0557   -0.4632 N   0  0  0  0  0  0  0  0  0  0  0  0
   -0.9525    0.8455    2.9327 C   0  0  0  0  0  0  0  0  0  0  0  0
   -0.3913    1.8613    3.7150 C   0  0  0  0  0  0  0  0  0  0  0  0
   -0.0101    3.9147    5.6572 H   0  0  0  0  0  0  0  0  0  0  0  0
    1.5431    4.7523    5.5055 H   0  0  0  0  0  0  0  0  0  0  0  0
    1.5211    2.9835    5.4286 H   0  0  0  0  0  0  0  0  0  0  0  0
    0.7479    3.8652    1.2274 H   0  0  0  0  0  0  0  0  0  0  0  0
   -0.2167    2.0956   -0.1558 H   0  0  0  0  0  0  0  0  0  0  0  0
   -2.5681   -0.2865    1.1204 H   0  0  0  0  0  0  0  0  0  0  0  0
   -3.2539    1.3097   -0.3218 H   0  0  0  0  0  0  0  0  0  0  0  0
   -2.2616    2.2535   -4.2514 H   0  0  0  0  0  0  0  0  0  0  0  0
   -1.4263    2.7168   -2.7594 H   0  0  0  0  0  0  0  0  0  0  0  0
   -1.1728    1.1183   -3.4640 H   0  0  0  0  0  0  0  0  0  0  0  0
   -3.7269    3.3635   -1.8211 H   0  0  0  0  0  0  0  0  0  0  0  0
   -5.0145    2.1614   -1.7338 H   0  0  0  0  0  0  0  0  0  0  0  0
   -4.5128    2.8009   -3.3075 H   0  0  0  0  0  0  0  0  0  0  0  0
   -3.0581   -0.6608   -3.3054 H   0  0  0  0  0  0  0  0  0  0  0  0
   -4.1401    0.4566   -4.1477 H   0  0  0  0  0  0  0  0  0  0  0  0
   -4.6074   -0.2218   -2.5785 H   0  0  0  0  0  0  0  0  0  0  0  0
   -1.3449   -3.4749    1.8143 H   0  0  0  0  0  0  0  0  0  0  0  0
   -2.5845   -2.2629    2.1139 H   0  0  0  0  0  0  0  0  0  0  0  0
   -2.0147   -3.1643   -0.7620 H   0  0  0  0  0  0  0  0  0  0  0  0
   -3.6818   -4.6292    1.3428 H   0  0  0  0  0  0  0  0  0  0  0  0
   -2.5559   -5.3392    0.1673 H   0  0  0  0  0  0  0  0  0  0  0  0
   -3.9984   -4.6859   -1.6806 H   0  0  0  0  0  0  0  0  0  0  0  0
   -5.1763   -5.2479   -0.4800 H   0  0  0  0  0  0  0  0  0  0  0  0
   -5.3029   -2.7013   -1.4973 H   0  0  0  0  0  0  0  0  0  0  0  0
   -5.6565   -2.9920    0.2189 H   0  0  0  0  0  0  0  0  0  0  0  0
    1.0511   -0.3034   -0.4714 H   0  0  0  0  0  0  0  0  0  0  0  0
    1.5193   -0.2393    1.2467 H   0  0  0  0  0  0  0  0  0  0  0  0
    2.6367   -2.1971   -0.8157 H   0  0  0  0  0  0  0  0  0  0  0  0
    3.0761   -2.1387    0.9014 H   0  0  0  0  0  0  0  0  0  0  0  0
    5.1832   -2.0441   -0.0456 H   0  0  0  0  0  0  0  0  0  0  0  0
    5.6966    1.7203   -1.0895 H   0  0  0  0  0  0  0  0  0  0  0  0
    8.7009    2.3120   -2.5210 H   0  0  0  0  0  0  0  0  0  0  0  0
    9.7207    1.9678   -1.1126 H   0  0  0  0  0  0  0  0  0  0  0  0
    8.3689    3.1006   -0.9666 H   0  0  0  0  0  0  0  0  0  0  0  0
   -1.4184   -0.0029    3.4325 H   0  0  0  0  0  0  0  0  0  0  0  0
   -0.4517    1.7680    4.7944 H   0  0  0  0  0  0  0  0  0  0  0  0
  1  2  1  0
  2  3  1  0
  3  4  2  0
  4  5  1  0
  5  6  2  0
  6  7  1  0
  7  8  1  0
  8  9  2  0
  8 10  1  0
 10 11  1  0
 11 12  1  0
 11 13  1  0
 11 14  1  0
  7 15  1  0
 15 16  1  0
 16 17  1  0
 17 18  1  0
 18 19  1  0
 19 20  1  0
 20 21  1  0
 15 22  1  0
 22 23  2  0
 22 24  1  0
 24 25  1  0
 25 26  1  0
 26 27  2  0
 26 28  1  0
 28 29  1  0
 29 30  1  0
 30 31  2  0
 31 32  1  0
 31 33  1  0
 33 34  1  0
  6 35  1  0
 35 36  2  0
 36  3  1  0
 21 17  1  0
 34 29  2  0
  1 37  1  0
  1 38  1  0
  1 39  1  0
  4 40  1  0
  5 41  1  0
  7 42  1  0
 10 43  1  0
 12 44  1  0
 12 45  1  0
 12 46  1  0
 13 47  1  0
 13 48  1  0
 13 49  1  0
 14 50  1  0
 14 51  1  0
 14 52  1  0
 16 53  1  0
 16 54  1  0
 17 55  1  0
 18 56  1  0
 18 57  1  0
 19 58  1  0
 19 59  1  0
 20 60  1  0
 20 61  1  0
 24 62  1  0
 24 63  1  0
 25 64  1  0
 25 65  1  0
 28 66  1  0
 30 67  1  0
 32 68  1  0
 32 69  1  0
 32 70  1  0
 35 71  1  0
 36 72  1  0
M  END
$$$$
