
     RDKit          3D

 54 57  0  0  0  0  0  0  0  0999 V2000
   -4.4004   -0.9036   -4.2949 C   0  0  0  0  0  0  0  0  0  0  0  0
   -3.7781   -1.4815   -3.1541 O   0  0  0  0  0  0  0  0  0  0  0  0
   -3.3031   -0.6197   -2.2041 C   0  0  0  0  0  0  0  0  0  0  0  0
   -2.7169   -1.2423   -1.0958 C   0  0  0  0  0  0  0  0  0  0  0  0
   -2.1891   -0.4853   -0.0490 C   0  0  0  0  0  0  0  0  0  0  0  0
   -2.2377    0.9061   -0.1255 C   0  0  0  0  0  0  0  0  0  0  0  0
   -1.6797    1.7248    0.9694 C   0  0  0  0  0  0  0  0  0  0  0  0
   -2.5013    2.1422    1.8789 N   0  0  0  0  0  0  0  0  0  0  0  0
   -2.0040    2.9226    2.9271 C   0  0  0  0  0  0  0  0  0  0  0  0
   -2.8905    3.3860    3.9022 C   0  0  0  0  0  0  0  0  0  0  0  0
   -2.4339    4.1662    4.9684 C   0  0  0  0  0  0  0  0  0  0  0  0
   -1.0812    4.4895    5.0681 C   0  0  0  0  0  0  0  0  0  0  0  0
   -0.1866    4.0322    4.1014 C   0  0  0  0  0  0  0  0  0  0  0  0
   -0.6568    3.2520    3.0377 C   0  0  0  0  0  0  0  0  0  0  0  0
    0.2577    2.7497    1.9996 C   0  0  0  0  0  0  0  0  0  0  0  0
    1.4611    2.9821    2.0879 O   0  0  0  0  0  0  0  0  0  0  0  0
   -0.3171    2.0109    0.9661 N   0  0  0  0  0  0  0  0  0  0  0  0
    0.6031    1.5311   -0.0727 C   0  0  0  0  0  0  0  0  0  0  0  0
    1.3864    0.2901    0.3662 C   0  0  0  0  0  0  0  0  0  0  0  0
    2.0265   -0.2588   -0.7869 O   0  0  0  0  0  0  0  0  0  0  0  0
    2.6536   -1.4685   -0.6405 C   0  0  0  0  0  0  0  0  0  0  0  0
    2.9083   -2.0915    0.5839 C   0  0  0  0  0  0  0  0  0  0  0  0
    3.5590   -3.3283    0.6279 C   0  0  0  0  0  0  0  0  0  0  0  0
    3.9788   -3.9533   -0.5488 C   0  0  0  0  0  0  0  0  0  0  0  0
    4.6485   -5.2946   -0.5032 C   0  0  0  0  0  0  0  0  0  0  0  0
    3.7179   -3.3325   -1.7755 C   0  0  0  0  0  0  0  0  0  0  0  0
    3.0650   -2.0904   -1.8322 C   0  0  0  0  0  0  0  0  0  0  0  0
    2.8085   -1.4431   -3.1654 C   0  0  0  0  0  0  0  0  0  0  0  0
   -2.8372    1.5423   -1.2144 C   0  0  0  0  0  0  0  0  0  0  0  0
   -3.3659    0.7757   -2.2572 C   0  0  0  0  0  0  0  0  0  0  0  0
   -3.6939   -0.2863   -4.8591 H   0  0  0  0  0  0  0  0  0  0  0  0
   -4.7247   -1.7195   -4.9482 H   0  0  0  0  0  0  0  0  0  0  0  0
   -5.2894   -0.3305   -4.0116 H   0  0  0  0  0  0  0  0  0  0  0  0
   -2.6803   -2.3280   -1.0467 H   0  0  0  0  0  0  0  0  0  0  0  0
   -1.7563   -0.9809    0.8147 H   0  0  0  0  0  0  0  0  0  0  0  0
   -3.9454    3.1341    3.8269 H   0  0  0  0  0  0  0  0  0  0  0  0
   -3.1359    4.5196    5.7197 H   0  0  0  0  0  0  0  0  0  0  0  0
   -0.7244    5.0961    5.8969 H   0  0  0  0  0  0  0  0  0  0  0  0
    0.8692    4.2821    4.1752 H   0  0  0  0  0  0  0  0  0  0  0  0
    1.3126    2.3317   -0.3191 H   0  0  0  0  0  0  0  0  0  0  0  0
    0.0688    1.3262   -1.0053 H   0  0  0  0  0  0  0  0  0  0  0  0
    0.6986   -0.4451    0.7996 H   0  0  0  0  0  0  0  0  0  0  0  0
    2.1363    0.5699    1.1150 H   0  0  0  0  0  0  0  0  0  0  0  0
    2.6212   -1.6395    1.5275 H   0  0  0  0  0  0  0  0  0  0  0  0
    3.7404   -3.7973    1.5926 H   0  0  0  0  0  0  0  0  0  0  0  0
    5.2034   -5.4240    0.4317 H   0  0  0  0  0  0  0  0  0  0  0  0
    5.3667   -5.3996   -1.3232 H   0  0  0  0  0  0  0  0  0  0  0  0
    3.9006   -6.0895   -0.5832 H   0  0  0  0  0  0  0  0  0  0  0  0
    4.0289   -3.8196   -2.6980 H   0  0  0  0  0  0  0  0  0  0  0  0
    3.3117   -0.4722   -3.2184 H   0  0  0  0  0  0  0  0  0  0  0  0
    3.1855   -2.0569   -3.9903 H   0  0  0  0  0  0  0  0  0  0  0  0
    1.7333   -1.3053   -3.3197 H   0  0  0  0  0  0  0  0  0  0  0  0
   -2.8974    2.6273   -1.2503 H   0  0  0  0  0  0  0  0  0  0  0  0
   -3.8246    1.2968   -3.0912 H   0  0  0  0  0  0  0  0  0  0  0  0
  1  2  1  0
  2  3  1  0
  3  4  2  0
  4  5  1  0
  5  6  2  0
  6  7  1  0
  7  8  2  0
  8  9  1  0
  9 10  2  0
 10 11  1  0
 11 12  2  0
 12 13  1  0
 13 14  2  0
 14 15  1  0
 15 16  2  0
 15 17  1  0
 17 18  1  0
 18 19  1  0
 19 20  1  0
 20 21  1  0
 21 22  2  0
 22 23  1  0
 23 24  2  0
 24 25  1  0
 24 26  1  0
 26 27  2  0
 27 28  1  0
  6 29  1  0
 29 30  2  0
 30  3  1  0
 17  7  1  0
 27 21  1  0
 14  9  1  0
  1 31  1  0
  1 32  1  0
  1 33  1  0
  4 34  1  0
  5 35  1  0
 10 36  1  0
 11 37  1  0
 12 38  1  0
 13 39  1  0
 18 40  1  0
 18 41  1  0
 19 42  1  0
 19 43  1  0
 22 44  1  0
 23 45  1  0
 25 46  1  0
 25 47  1  0
 25 48  1  0
 26 49  1  0
 28 50  1  0
 28 51  1  0
 28 52  1  0
 29 53  1  0
 30 54  1  0
M  END
$$$$
