
     RDKit          3D

 71 75  0  0  0  0  0  0  0  0999 V2000
   -9.0596   -4.1994    0.0159 C   0  0  0  0  0  0  0  0  0  0  0  0
   -8.1491   -3.0215   -0.1667 C   0  0  0  0  0  0  0  0  0  0  0  0
   -7.9505   -2.4662   -1.4307 C   0  0  0  0  0  0  0  0  0  0  0  0
   -7.0647   -1.4015   -1.6023 C   0  0  0  0  0  0  0  0  0  0  0  0
   -6.3545   -0.8645   -0.5161 C   0  0  0  0  0  0  0  0  0  0  0  0
   -5.3858    0.2561   -0.7810 C   0  0  0  0  0  0  0  0  0  0  0  0
   -6.5367   -1.4253    0.7657 C   0  0  0  0  0  0  0  0  0  0  0  0
   -5.7982   -0.9365    1.9934 C   0  0  0  0  0  0  0  0  0  0  0  0
   -4.5914   -1.6992    2.2476 N   0  0  0  0  0  0  0  0  0  0  0  0
   -4.6542   -2.9263    2.8292 N   0  0  0  0  0  0  0  0  0  0  0  0
   -3.4055   -3.3583    3.0061 N   0  0  0  0  0  0  0  0  0  0  0  0
   -2.5725   -2.3769    2.5661 C   0  0  0  0  0  0  0  0  0  0  0  0
   -1.1363   -2.3000    2.5599 C   0  0  0  0  0  0  0  0  0  0  0  0
   -0.3742   -3.1787    2.9463 O   0  0  0  0  0  0  0  0  0  0  0  0
   -0.6835   -1.0837    2.0622 N   0  0  0  0  0  0  0  0  0  0  0  0
   -1.5190   -0.0600    1.6199 C   0  0  0  0  0  0  0  0  0  0  0  0
   -0.8316    1.2056    1.1262 C   0  0  0  0  0  0  0  0  0  0  0  0
    0.0461    0.8875   -0.0956 C   0  0  0  0  0  0  0  0  0  0  0  0
    1.0466    1.9884   -0.4117 C   0  0  0  0  0  0  0  0  0  0  0  0
    1.7947    2.4109    0.7962 N   0  0  0  0  0  0  0  0  0  0  0  0
    3.0281    1.3908    1.3926 S   0  0  0  0  0  6  0  0  0  0  0  0
    3.7084    2.0880    2.4628 O   0  0  0  0  0  0  0  0  0  0  0  0
    2.4424    0.0804    1.6107 O   0  0  0  0  0  0  0  0  0  0  0  0
    4.1665    1.2886    0.0355 C   0  0  0  0  0  0  0  0  0  0  0  0
    4.7776    2.4625   -0.4244 C   0  0  0  0  0  0  0  0  0  0  0  0
    5.6670    2.3995   -1.4977 C   0  0  0  0  0  0  0  0  0  0  0  0
    5.9542    1.1607   -2.0850 C   0  0  0  0  0  0  0  0  0  0  0  0
    7.0467    1.0893   -3.4962 S   0  0  0  0  0  6  0  0  0  0  0  0
    6.7190   -0.1171   -4.2275 O   0  0  0  0  0  0  0  0  0  0  0  0
    6.9974    2.3868   -4.1387 O   0  0  0  0  0  0  0  0  0  0  0  0
    8.5817    0.8891   -2.7924 N   0  0  0  0  0  0  0  0  0  0  0  0
    8.8593   -0.4038   -2.1394 C   0  0  0  0  0  0  0  0  0  0  0  0
    9.1489    2.0408   -2.0698 C   0  0  0  0  0  0  0  0  0  0  0  0
    5.3357   -0.0113   -1.6275 C   0  0  0  0  0  0  0  0  0  0  0  0
    4.4427    0.0514   -0.5561 C   0  0  0  0  0  0  0  0  0  0  0  0
    0.8745    2.9530    1.8265 C   0  0  0  0  0  0  0  0  0  0  0  0
   -0.0898    1.8756    2.2938 C   0  0  0  0  0  0  0  0  0  0  0  0
   -2.8231   -0.1240    1.6160 N   0  0  0  0  0  0  0  0  0  0  0  0
   -3.2915   -1.3035    2.0950 C   0  0  0  0  0  0  0  0  0  0  0  0
   -7.4306   -2.5064    0.9173 C   0  0  0  0  0  0  0  0  0  0  0  0
   -9.5046   -4.1967    1.0167 H   0  0  0  0  0  0  0  0  0  0  0  0
   -8.5002   -5.1307   -0.1229 H   0  0  0  0  0  0  0  0  0  0  0  0
   -9.8841   -4.1721   -0.7051 H   0  0  0  0  0  0  0  0  0  0  0  0
   -8.4754   -2.8647   -2.2960 H   0  0  0  0  0  0  0  0  0  0  0  0
   -6.9275   -0.9965   -2.6037 H   0  0  0  0  0  0  0  0  0  0  0  0
   -5.5401    0.6923   -1.7742 H   0  0  0  0  0  0  0  0  0  0  0  0
   -5.5143    1.0688   -0.0595 H   0  0  0  0  0  0  0  0  0  0  0  0
   -4.3594   -0.1199   -0.7377 H   0  0  0  0  0  0  0  0  0  0  0  0
   -5.5340    0.1228    1.9202 H   0  0  0  0  0  0  0  0  0  0  0  0
   -6.4343   -1.0258    2.8830 H   0  0  0  0  0  0  0  0  0  0  0  0
    0.3266   -0.9791    2.0530 H   0  0  0  0  0  0  0  0  0  0  0  0
   -1.6118    1.9046    0.7922 H   0  0  0  0  0  0  0  0  0  0  0  0
   -0.6030    0.7343   -0.9672 H   0  0  0  0  0  0  0  0  0  0  0  0
    0.5766   -0.0623    0.0232 H   0  0  0  0  0  0  0  0  0  0  0  0
    0.5161    2.8652   -0.8049 H   0  0  0  0  0  0  0  0  0  0  0  0
    1.7295    1.6750   -1.2054 H   0  0  0  0  0  0  0  0  0  0  0  0
    4.5556    3.4202    0.0443 H   0  0  0  0  0  0  0  0  0  0  0  0
    6.1245    3.3122   -1.8747 H   0  0  0  0  0  0  0  0  0  0  0  0
    8.3961   -0.4530   -1.1508 H   0  0  0  0  0  0  0  0  0  0  0  0
    9.9400   -0.5349   -2.0227 H   0  0  0  0  0  0  0  0  0  0  0  0
    8.5054   -1.2393   -2.7494 H   0  0  0  0  0  0  0  0  0  0  0  0
   10.2314    1.9113   -1.9620 H   0  0  0  0  0  0  0  0  0  0  0  0
    8.7103    2.1350   -1.0704 H   0  0  0  0  0  0  0  0  0  0  0  0
    8.9942    2.9714   -2.6266 H   0  0  0  0  0  0  0  0  0  0  0  0
    5.5402   -0.9691   -2.1037 H   0  0  0  0  0  0  0  0  0  0  0  0
    3.9698   -0.8603   -0.1939 H   0  0  0  0  0  0  0  0  0  0  0  0
    1.4404    3.3594    2.6711 H   0  0  0  0  0  0  0  0  0  0  0  0
    0.3226    3.7988    1.3982 H   0  0  0  0  0  0  0  0  0  0  0  0
   -0.8229    2.3193    2.9799 H   0  0  0  0  0  0  0  0  0  0  0  0
    0.4537    1.1378    2.8943 H   0  0  0  0  0  0  0  0  0  0  0  0
   -7.5567   -2.9649    1.8987 H   0  0  0  0  0  0  0  0  0  0  0  0
  1  2  1  0
  2  3  2  0
  3  4  1  0
  4  5  2  0
  5  6  1  0
  5  7  1  0
  7  8  1  0
  8  9  1  0
  9 10  1  0
 10 11  2  0
 11 12  1  0
 12 13  1  0
 13 14  2  0
 13 15  1  0
 15 16  1  0
 16 17  1  0
 17 18  1  0
 18 19  1  0
 19 20  1  0
 20 21  1  0
 21 22  2  0
 21 23  2  0
 21 24  1  0
 24 25  2  0
 25 26  1  0
 26 27  2  0
 27 28  1  0
 28 29  2  0
 28 30  2  0
 28 31  1  0
 31 32  1  0
 31 33  1  0
 27 34  1  0
 34 35  2  0
 20 36  1  0
 36 37  1  0
 16 38  2  0
 38 39  1  0
  7 40  2  0
 40  2  1  0
 39  9  1  0
 39 12  2  0
 37 17  1  0
 35 24  1  0
  1 41  1  0
  1 42  1  0
  1 43  1  0
  3 44  1  0
  4 45  1  0
  6 46  1  0
  6 47  1  0
  6 48  1  0
  8 49  1  0
  8 50  1  0
 15 51  1  0
 17 52  1  0
 18 53  1  0
 18 54  1  0
 19 55  1  0
 19 56  1  0
 25 57  1  0
 26 58  1  0
 32 59  1  0
 32 60  1  0
 32 61  1  0
 33 62  1  0
 33 63  1  0
 33 64  1  0
 34 65  1  0
 35 66  1  0
 36 67  1  0
 36 68  1  0
 37 69  1  0
 37 70  1  0
 40 71  1  0
M  END
$$$$
