
     RDKit          3D

 60 63  0  0  0  0  0  0  0  0999 V2000
   -8.9910    0.8556   -0.3661 C   0  0  0  0  0  0  0  0  0  0  0  0
   -7.9676   -0.1271   -0.2935 O   0  0  0  0  0  0  0  0  0  0  0  0
   -6.7520    0.2517    0.2207 C   0  0  0  0  0  0  0  0  0  0  0  0
   -6.4356    1.5571    0.6204 C   0  0  0  0  0  0  0  0  0  0  0  0
   -5.1665    1.8550    1.1200 C   0  0  0  0  0  0  0  0  0  0  0  0
   -4.2129    0.8417    1.2113 C   0  0  0  0  0  0  0  0  0  0  0  0
   -2.5854    1.1989    1.8215 S   0  0  0  0  0  6  0  0  0  0  0  0
   -2.5510    2.5797    2.2549 O   0  0  0  0  0  0  0  0  0  0  0  0
   -2.2129    0.1219    2.7110 O   0  0  0  0  0  0  0  0  0  0  0  0
   -1.6532    1.0799    0.4351 N   0  0  0  0  0  0  0  0  0  0  0  0
   -1.8977    2.0142   -0.6658 C   0  0  0  0  0  0  0  0  0  0  0  0
   -0.7098    1.7373   -1.5554 C   0  0  0  0  0  0  0  0  0  0  0  0
    0.3742    1.5274   -0.6487 O   0  0  0  0  0  0  0  0  0  0  0  0
   -0.1819    0.9875    0.5798 C   0  0  0  0  0  0  0  0  0  0  0  0
    0.4381    1.7861    1.7521 C   0  0  0  0  0  0  0  0  0  0  0  0
    1.8929    1.7896    1.7395 N   0  0  0  0  0  0  0  0  0  0  0  0
    2.6170    0.6482    1.9898 C   0  0  0  0  0  0  0  0  0  0  0  0
    2.1624   -0.4184    2.3799 O   0  0  0  0  0  0  0  0  0  0  0  0
    4.1283    0.7885    1.6940 C   0  0  0  0  0  0  0  0  0  0  0  0
    4.5699    1.8292    1.2288 O   0  0  0  0  0  0  0  0  0  0  0  0
    4.8470   -0.3464    1.9851 N   0  0  0  0  0  0  0  0  0  0  0  0
    6.2238   -0.5036    1.5995 C   0  0  0  0  0  0  0  0  0  0  0  0
    6.3305   -1.1785    0.2561 C   0  0  0  0  0  0  0  0  0  0  0  0
    6.3716   -2.5896    0.1649 C   0  0  0  0  0  0  0  0  0  0  0  0
    6.4465   -3.2281   -1.0771 C   0  0  0  0  0  0  0  0  0  0  0  0
    6.4723   -2.4364   -2.2046 C   0  0  0  0  0  0  0  0  0  0  0  0
    6.4224   -1.0649   -2.1272 C   0  0  0  0  0  0  0  0  0  0  0  0
    6.3465   -0.4072   -0.9180 C   0  0  0  0  0  0  0  0  0  0  0  0
    6.4547   -0.4740   -3.3524 O   0  0  0  0  0  0  0  0  0  0  0  0
    6.5415   -1.6311   -4.2086 C   0  0  0  0  0  0  0  0  0  0  0  0
    6.5445   -2.8814   -3.4878 O   0  0  0  0  0  0  0  0  0  0  0  0
   -4.5149   -0.4708    0.8329 C   0  0  0  0  0  0  0  0  0  0  0  0
   -5.7842   -0.7715    0.3332 C   0  0  0  0  0  0  0  0  0  0  0  0
   -6.1752   -2.0201   -0.0817 O   0  0  0  0  0  0  0  0  0  0  0  0
   -5.2738   -3.0981    0.1305 C   0  0  0  0  0  0  0  0  0  0  0  0
   -8.7084    1.6713   -1.0398 H   0  0  0  0  0  0  0  0  0  0  0  0
   -9.8837    0.3778   -0.7804 H   0  0  0  0  0  0  0  0  0  0  0  0
   -9.2470    1.2338    0.6287 H   0  0  0  0  0  0  0  0  0  0  0  0
   -7.1573    2.3654    0.5545 H   0  0  0  0  0  0  0  0  0  0  0  0
   -4.9344    2.8727    1.4291 H   0  0  0  0  0  0  0  0  0  0  0  0
   -2.8388    1.8231   -1.1850 H   0  0  0  0  0  0  0  0  0  0  0  0
   -1.8699    3.0477   -0.3052 H   0  0  0  0  0  0  0  0  0  0  0  0
   -0.8482    0.8230   -2.1419 H   0  0  0  0  0  0  0  0  0  0  0  0
   -0.4818    2.5642   -2.2321 H   0  0  0  0  0  0  0  0  0  0  0  0
    0.1048   -0.0683    0.6267 H   0  0  0  0  0  0  0  0  0  0  0  0
    0.1203    1.3786    2.7158 H   0  0  0  0  0  0  0  0  0  0  0  0
    0.1374    2.8374    1.6993 H   0  0  0  0  0  0  0  0  0  0  0  0
    2.3843    2.5224    1.2344 H   0  0  0  0  0  0  0  0  0  0  0  0
    4.3013   -1.1631    2.2450 H   0  0  0  0  0  0  0  0  0  0  0  0
    6.7259    0.4699    1.5795 H   0  0  0  0  0  0  0  0  0  0  0  0
    6.7164   -1.1093    2.3676 H   0  0  0  0  0  0  0  0  0  0  0  0
    6.3446   -3.1952    1.0690 H   0  0  0  0  0  0  0  0  0  0  0  0
    6.4813   -4.3086   -1.1535 H   0  0  0  0  0  0  0  0  0  0  0  0
    6.2959    0.6770   -0.8832 H   0  0  0  0  0  0  0  0  0  0  0  0
    5.6870   -1.6242   -4.8959 H   0  0  0  0  0  0  0  0  0  0  0  0
    7.4649   -1.5634   -4.7960 H   0  0  0  0  0  0  0  0  0  0  0  0
   -3.7446   -1.2298    0.9304 H   0  0  0  0  0  0  0  0  0  0  0  0
   -5.7614   -4.0150   -0.2155 H   0  0  0  0  0  0  0  0  0  0  0  0
   -4.3598   -2.9678   -0.4576 H   0  0  0  0  0  0  0  0  0  0  0  0
   -5.0473   -3.2218    1.1957 H   0  0  0  0  0  0  0  0  0  0  0  0
  1  2  1  0
  2  3  1  0
  3  4  2  0
  4  5  1  0
  5  6  2  0
  6  7  1  0
  7  8  2  0
  7  9  2  0
  7 10  1  0
 10 11  1  0
 11 12  1  0
 12 13  1  0
 13 14  1  0
 14 15  1  0
 15 16  1  0
 16 17  1  0
 17 18  2  0
 17 19  1  0
 19 20  2  0
 19 21  1  0
 21 22  1  0
 22 23  1  0
 23 24  2  0
 24 25  1  0
 25 26  2  0
 26 27  1  0
 27 28  2  0
 27 29  1  0
 29 30  1  0
 30 31  1  0
  6 32  1  0
 32 33  2  0
 33 34  1  0
 34 35  1  0
 33  3  1  0
 14 10  1  0
 28 23  1  0
 31 26  1  0
  1 36  1  0
  1 37  1  0
  1 38  1  0
  4 39  1  0
  5 40  1  0
 11 41  1  0
 11 42  1  0
 12 43  1  0
 12 44  1  0
 14 45  1  0
 15 46  1  0
 15 47  1  0
 16 48  1  0
 21 49  1  0
 22 50  1  0
 22 51  1  0
 24 52  1  0
 25 53  1  0
 28 54  1  0
 30 55  1  0
 30 56  1  0
 32 57  1  0
 35 58  1  0
 35 59  1  0
 35 60  1  0
M  END
$$$$
