
     RDKit          3D

 35 37  0  0  0  0  0  0  0  0999 V2000
   -1.7969   -1.5585    2.5805 C   0  0  0  0  0  0  0  0  0  0  0  0
   -1.4798   -1.1358    1.1504 C   0  0  0  0  0  0  0  0  0  0  0  0
   -1.9533    0.1948    0.9168 O   0  0  0  0  0  0  0  0  0  0  0  0
   -3.2180    0.3759    0.4339 C   0  0  0  0  0  0  0  0  0  0  0  0
   -4.2013   -0.6042    0.2963 C   0  0  0  0  0  0  0  0  0  0  0  0
   -5.4604   -0.2703   -0.2164 C   0  0  0  0  0  0  0  0  0  0  0  0
   -5.7360    1.0442   -0.5866 C   0  0  0  0  0  0  0  0  0  0  0  0
   -7.4374    1.4894   -1.2773 Br  0  0  0  0  0  0  0  0  0  0  0  0
   -4.7654    2.0310   -0.4457 C   0  0  0  0  0  0  0  0  0  0  0  0
   -3.5106    1.6937    0.0667 C   0  0  0  0  0  0  0  0  0  0  0  0
    0.0457   -1.1477    0.9117 C   0  0  0  0  0  0  0  0  0  0  0  0
    0.7920   -1.8881    1.5446 O   0  0  0  0  0  0  0  0  0  0  0  0
    0.4085   -0.3043   -0.1176 N   0  0  0  0  0  0  0  0  0  0  0  0
    1.6652   -0.0929   -0.6207 C   0  0  0  0  0  0  0  0  0  0  0  0
    1.9018    0.8012   -1.5567 N   0  0  0  0  0  0  0  0  0  0  0  0
    3.2360    0.8375   -1.9164 N   0  0  0  0  0  0  0  0  0  0  0  0
    3.9407   -0.0328   -1.2286 C   0  0  0  0  0  0  0  0  0  0  0  0
    5.4757   -0.2116   -1.4364 C   0  0  0  0  0  0  0  0  0  0  0  0
    6.3371    1.0089   -1.6401 C   0  0  0  0  0  0  0  0  0  0  0  0
    6.4249    0.2389   -0.3550 C   0  0  0  0  0  0  0  0  0  0  0  0
    3.0401   -0.9651   -0.1168 S   0  0  0  0  0  0  0  0  0  0  0  0
   -1.4488   -2.5765    2.7822 H   0  0  0  0  0  0  0  0  0  0  0  0
   -1.3152   -0.8852    3.2988 H   0  0  0  0  0  0  0  0  0  0  0  0
   -2.8717   -1.5160    2.7812 H   0  0  0  0  0  0  0  0  0  0  0  0
   -1.8882   -1.8497    0.4246 H   0  0  0  0  0  0  0  0  0  0  0  0
   -4.0359   -1.6361    0.5874 H   0  0  0  0  0  0  0  0  0  0  0  0
   -6.2189   -1.0427   -0.3177 H   0  0  0  0  0  0  0  0  0  0  0  0
   -4.9718    3.0603   -0.7267 H   0  0  0  0  0  0  0  0  0  0  0  0
   -2.7558    2.4689    0.1808 H   0  0  0  0  0  0  0  0  0  0  0  0
   -0.3018    0.3106   -0.4982 H   0  0  0  0  0  0  0  0  0  0  0  0
    5.7421   -1.0991   -2.0003 H   0  0  0  0  0  0  0  0  0  0  0  0
    7.1613    0.9336   -2.3397 H   0  0  0  0  0  0  0  0  0  0  0  0
    5.8641    1.9849   -1.6192 H   0  0  0  0  0  0  0  0  0  0  0  0
    7.3115   -0.3593   -0.1796 H   0  0  0  0  0  0  0  0  0  0  0  0
    6.0203    0.7021    0.5380 H   0  0  0  0  0  0  0  0  0  0  0  0
  1  2  1  0
  2  3  1  0
  3  4  1  0
  4  5  2  0
  5  6  1  0
  6  7  2  0
  7  8  1  0
  7  9  1  0
  9 10  2  0
  2 11  1  0
 11 12  2  0
 11 13  1  0
 13 14  1  0
 14 15  2  0
 15 16  1  0
 16 17  2  0
 17 18  1  0
 18 19  1  0
 19 20  1  0
 17 21  1  0
 10  4  1  0
 21 14  1  0
 20 18  1  0
  1 22  1  0
  1 23  1  0
  1 24  1  0
  2 25  1  0
  5 26  1  0
  6 27  1  0
  9 28  1  0
 10 29  1  0
 13 30  1  0
 18 31  1  0
 19 32  1  0
 19 33  1  0
 20 34  1  0
 20 35  1  0
M  END
$$$$
