
     RDKit          3D

 41 44  0  0  0  0  0  0  0  0999 V2000
   -3.1639   -2.3022   -2.1673 O   0  0  0  0  0  0  0  0  0  0  0  0
   -2.6468   -1.4167   -1.1437 S   0  0  0  0  0  6  0  0  0  0  0  0
   -3.0481   -1.5699    0.2376 O   0  0  0  0  0  0  0  0  0  0  0  0
   -0.9660   -1.5154   -1.2666 N   0  0  0  0  0  0  0  0  0  0  0  0
   -0.1620   -0.9501   -0.2287 C   0  0  0  0  0  0  0  0  0  0  0  0
   -0.0684   -1.6326    0.9876 C   0  0  0  0  0  0  0  0  0  0  0  0
    0.7003   -1.1207    2.0355 C   0  0  0  0  0  0  0  0  0  0  0  0
    0.6771   -2.0180    3.5824 S   0  0  0  0  0  0  0  0  0  0  0  0
    2.3317   -2.5319    3.7287 C   0  0  0  0  0  0  0  0  0  0  0  0
    3.3700   -1.6373    3.7890 N   0  0  0  0  0  0  0  0  0  0  0  0
    4.4183   -2.4172    3.9208 C   0  0  0  0  0  0  0  0  0  0  0  0
    4.0184   -3.7165    3.9467 N   0  0  0  0  0  0  0  0  0  0  0  0
    2.6852   -3.8150    3.8290 N   0  0  0  0  0  0  0  0  0  0  0  0
    1.3805    0.0917    1.8405 C   0  0  0  0  0  0  0  0  0  0  0  0
    2.1480    0.6419    2.8424 O   0  0  0  0  0  0  0  0  0  0  0  0
    1.3081    0.7962    0.6158 C   0  0  0  0  0  0  0  0  0  0  0  0
    1.9900    2.0157    0.4121 C   0  0  0  0  0  0  0  0  0  0  0  0
    1.9284    2.6946   -0.8045 C   0  0  0  0  0  0  0  0  0  0  0  0
    1.1872    2.1648   -1.8499 C   0  0  0  0  0  0  0  0  0  0  0  0
    0.5042    0.9612   -1.6733 C   0  0  0  0  0  0  0  0  0  0  0  0
    0.5370    0.2611   -0.4444 C   0  0  0  0  0  0  0  0  0  0  0  0
   -2.9837    0.2487   -1.6536 C   0  0  0  0  0  0  0  0  0  0  0  0
   -3.0357    1.2648   -0.6945 C   0  0  0  0  0  0  0  0  0  0  0  0
   -3.3075    2.5726   -1.0951 C   0  0  0  0  0  0  0  0  0  0  0  0
   -3.5404    2.8567   -2.4419 C   0  0  0  0  0  0  0  0  0  0  0  0
   -3.5072    1.8353   -3.3932 C   0  0  0  0  0  0  0  0  0  0  0  0
   -3.2329    0.5250   -3.0015 C   0  0  0  0  0  0  0  0  0  0  0  0
   -0.6591   -2.3919   -1.6858 H   0  0  0  0  0  0  0  0  0  0  0  0
   -0.6224   -2.5594    1.1261 H   0  0  0  0  0  0  0  0  0  0  0  0
    5.4518   -2.1109    4.0020 H   0  0  0  0  0  0  0  0  0  0  0  0
    4.5749   -4.5592    4.0413 H   0  0  0  0  0  0  0  0  0  0  0  0
    2.4825   -0.0891    3.4033 H   0  0  0  0  0  0  0  0  0  0  0  0
    2.5820    2.4463    1.2188 H   0  0  0  0  0  0  0  0  0  0  0  0
    2.4625    3.6325   -0.9303 H   0  0  0  0  0  0  0  0  0  0  0  0
    1.1353    2.6847   -2.8028 H   0  0  0  0  0  0  0  0  0  0  0  0
   -0.0641    0.5697   -2.5141 H   0  0  0  0  0  0  0  0  0  0  0  0
   -2.8573    1.0486    0.3567 H   0  0  0  0  0  0  0  0  0  0  0  0
   -3.3388    3.3706   -0.3571 H   0  0  0  0  0  0  0  0  0  0  0  0
   -3.7547    3.8775   -2.7497 H   0  0  0  0  0  0  0  0  0  0  0  0
   -3.6997    2.0615   -4.4392 H   0  0  0  0  0  0  0  0  0  0  0  0
   -3.2147   -0.2679   -3.7455 H   0  0  0  0  0  0  0  0  0  0  0  0
  1  2  2  0
  2  3  2  0
  2  4  1  0
  4  5  1  0
  5  6  2  0
  6  7  1  0
  7  8  1  0
  8  9  1  0
  9 10  1  0
 10 11  2  0
 11 12  1  0
 12 13  1  0
  7 14  2  0
 14 15  1  0
 14 16  1  0
 16 17  2  0
 17 18  1  0
 18 19  2  0
 19 20  1  0
 20 21  2  0
  2 22  1  0
 22 23  2  0
 23 24  1  0
 24 25  2  0
 25 26  1  0
 26 27  2  0
 21  5  1  0
 27 22  1  0
 13  9  2  0
 21 16  1  0
  4 28  1  0
  6 29  1  0
 11 30  1  0
 12 31  1  0
 15 32  1  0
 17 33  1  0
 18 34  1  0
 19 35  1  0
 20 36  1  0
 23 37  1  0
 24 38  1  0
 25 39  1  0
 26 40  1  0
 27 41  1  0
M  END
$$$$
