
     RDKit          3D

 37 39  0  0  0  0  0  0  0  0999 V2000
   -4.4042   -1.0099    2.1031 C   0  0  0  0  0  0  0  0  0  0  0  0
   -4.2279   -0.3917    0.7430 C   0  0  0  0  0  0  0  0  0  0  0  0
   -4.9435   -0.9056   -0.3489 C   0  0  0  0  0  0  0  0  0  0  0  0
   -4.7940   -0.3501   -1.6177 C   0  0  0  0  0  0  0  0  0  0  0  0
   -3.9285    0.7226   -1.8061 C   0  0  0  0  0  0  0  0  0  0  0  0
   -3.2096    1.2445   -0.7276 C   0  0  0  0  0  0  0  0  0  0  0  0
   -3.3545    0.6950    0.5504 C   0  0  0  0  0  0  0  0  0  0  0  0
   -2.6851    1.1154    1.6710 O   0  0  0  0  0  0  0  0  0  0  0  0
   -1.8277    2.2442    1.5666 C   0  0  0  0  0  0  0  0  0  0  0  0
   -0.4487    1.9438    0.9667 C   0  0  0  0  0  0  0  0  0  0  0  0
    0.2234    2.8431    0.4710 O   0  0  0  0  0  0  0  0  0  0  0  0
   -0.0960    0.6200    1.0997 N   0  0  0  0  0  0  0  0  0  0  0  0
    1.0660    0.0228    0.6878 C   0  0  0  0  0  0  0  0  0  0  0  0
    1.2786   -1.2653    0.8257 N   0  0  0  0  0  0  0  0  0  0  0  0
    2.5162   -1.6399    0.3447 N   0  0  0  0  0  0  0  0  0  0  0  0
    3.2047   -0.6217   -0.1418 C   0  0  0  0  0  0  0  0  0  0  0  0
    4.5549   -0.7327   -0.7210 C   0  0  0  0  0  0  0  0  0  0  0  0
    5.1677   -1.9920   -0.7699 C   0  0  0  0  0  0  0  0  0  0  0  0
    6.4368   -2.1062   -1.3126 C   0  0  0  0  0  0  0  0  0  0  0  0
    7.1341   -1.0641   -1.8063 N   0  0  0  0  0  0  0  0  0  0  0  0
    6.5363    0.1428   -1.7550 C   0  0  0  0  0  0  0  0  0  0  0  0
    5.2700    0.3570   -1.2313 C   0  0  0  0  0  0  0  0  0  0  0  0
    2.3531    0.8712   -0.0277 S   0  0  0  0  0  0  0  0  0  0  0  0
   -4.7790   -0.2648    2.8123 H   0  0  0  0  0  0  0  0  0  0  0  0
   -5.1225   -1.8361    2.0798 H   0  0  0  0  0  0  0  0  0  0  0  0
   -3.4506   -1.4091    2.4637 H   0  0  0  0  0  0  0  0  0  0  0  0
   -5.6229   -1.7449   -0.2164 H   0  0  0  0  0  0  0  0  0  0  0  0
   -5.3517   -0.7550   -2.4583 H   0  0  0  0  0  0  0  0  0  0  0  0
   -3.8099    1.1551   -2.7967 H   0  0  0  0  0  0  0  0  0  0  0  0
   -2.5453    2.0777   -0.9325 H   0  0  0  0  0  0  0  0  0  0  0  0
   -1.6477    2.5998    2.5878 H   0  0  0  0  0  0  0  0  0  0  0  0
   -2.3086    3.0694    1.0291 H   0  0  0  0  0  0  0  0  0  0  0  0
   -0.7826   -0.0201    1.4842 H   0  0  0  0  0  0  0  0  0  0  0  0
    4.6669   -2.8786   -0.3909 H   0  0  0  0  0  0  0  0  0  0  0  0
    6.9386   -3.0684   -1.3648 H   0  0  0  0  0  0  0  0  0  0  0  0
    7.1200    0.9652   -2.1597 H   0  0  0  0  0  0  0  0  0  0  0  0
    4.8733    1.3663   -1.2343 H   0  0  0  0  0  0  0  0  0  0  0  0
  1  2  1  0
  2  3  2  0
  3  4  1  0
  4  5  2  0
  5  6  1  0
  6  7  2  0
  7  8  1  0
  8  9  1  0
  9 10  1  0
 10 11  2  0
 10 12  1  0
 12 13  1  0
 13 14  2  0
 14 15  1  0
 15 16  2  0
 16 17  1  0
 17 18  2  0
 18 19  1  0
 19 20  2  0
 20 21  1  0
 21 22  2  0
 16 23  1  0
  7  2  1  0
 23 13  1  0
 22 17  1  0
  1 24  1  0
  1 25  1  0
  1 26  1  0
  3 27  1  0
  4 28  1  0
  5 29  1  0
  6 30  1  0
  9 31  1  0
  9 32  1  0
 12 33  1  0
 18 34  1  0
 19 35  1  0
 21 36  1  0
 22 37  1  0
M  END
$$$$
