
     RDKit          3D

 54 57  0  0  0  0  0  0  0  0999 V2000
   -4.8369    3.9779   -2.1865 C   0  0  0  0  0  0  0  0  0  0  0  0
   -4.0415    2.8521   -1.5953 C   0  0  0  0  0  0  0  0  0  0  0  0
   -4.3268    1.5319   -1.9362 C   0  0  0  0  0  0  0  0  0  0  0  0
   -3.6235    0.4497   -1.3673 C   0  0  0  0  0  0  0  0  0  0  0  0
   -4.1074   -0.9261   -1.7379 C   0  0  0  0  0  0  0  0  0  0  0  0
   -2.5640    0.7087   -0.4709 C   0  0  0  0  0  0  0  0  0  0  0  0
   -1.7845   -0.3093    0.1332 N   0  0  0  0  0  0  0  0  0  0  0  0
   -1.3280   -1.4669   -0.4755 C   0  0  0  0  0  0  0  0  0  0  0  0
   -1.3760   -1.7274   -1.6757 O   0  0  0  0  0  0  0  0  0  0  0  0
   -0.6482   -2.4170    0.5096 C   0  0  0  0  0  0  0  0  0  0  0  0
    0.7827   -2.1472    0.6491 N   0  0  0  0  0  0  0  0  0  0  0  0
    1.1573   -1.2037    1.5984 C   0  0  0  0  0  0  0  0  0  0  0  0
    0.3019   -0.5165    2.1683 O   0  0  0  0  0  0  0  0  0  0  0  0
    2.5101   -1.0876    1.8723 N   0  0  0  0  0  0  0  0  0  0  0  0
    2.9209   -0.1581    2.9139 C   0  0  0  0  0  0  0  0  0  0  0  0
    3.1504    1.1875    2.3206 C   0  0  0  0  0  0  0  0  0  0  0  0
    2.3445    2.2939    2.1378 C   0  0  0  0  0  0  0  0  0  0  0  0
    3.1435    3.2704    1.4996 C   0  0  0  0  0  0  0  0  0  0  0  0
    4.3923    2.7104    1.3614 C   0  0  0  0  0  0  0  0  0  0  0  0
    4.4057    1.4470    1.8533 O   0  0  0  0  0  0  0  0  0  0  0  0
    3.5041   -1.8433    1.2675 C   0  0  0  0  0  0  0  0  0  0  0  0
    4.6789   -1.8592    1.6287 O   0  0  0  0  0  0  0  0  0  0  0  0
    3.0930   -2.6890    0.1371 C   0  0  0  0  0  0  0  0  0  0  0  0
    4.0717   -3.3553   -0.6165 C   0  0  0  0  0  0  0  0  0  0  0  0
    3.6973   -4.1548   -1.6905 C   0  0  0  0  0  0  0  0  0  0  0  0
    2.3493   -4.2855   -2.0083 C   0  0  0  0  0  0  0  0  0  0  0  0
    1.3760   -3.6289   -1.2473 C   0  0  0  0  0  0  0  0  0  0  0  0
    1.7358   -2.8244   -0.1560 C   0  0  0  0  0  0  0  0  0  0  0  0
   -2.3043    2.0438   -0.0847 C   0  0  0  0  0  0  0  0  0  0  0  0
   -1.2126    2.3974    0.8968 C   0  0  0  0  0  0  0  0  0  0  0  0
   -3.0471    3.0960   -0.6499 C   0  0  0  0  0  0  0  0  0  0  0  0
   -4.2986    4.9250   -2.1074 H   0  0  0  0  0  0  0  0  0  0  0  0
   -5.7927    4.0763   -1.6670 H   0  0  0  0  0  0  0  0  0  0  0  0
   -5.0266    3.7992   -3.2480 H   0  0  0  0  0  0  0  0  0  0  0  0
   -5.1295    1.3351   -2.6421 H   0  0  0  0  0  0  0  0  0  0  0  0
   -5.1847   -0.9141   -1.9465 H   0  0  0  0  0  0  0  0  0  0  0  0
   -3.9756   -1.6343   -0.9170 H   0  0  0  0  0  0  0  0  0  0  0  0
   -3.5969   -1.2819   -2.6365 H   0  0  0  0  0  0  0  0  0  0  0  0
   -1.2459   -0.0462    0.9586 H   0  0  0  0  0  0  0  0  0  0  0  0
   -0.8366   -3.4534    0.2120 H   0  0  0  0  0  0  0  0  0  0  0  0
   -1.1350   -2.3179    1.4903 H   0  0  0  0  0  0  0  0  0  0  0  0
    3.8359   -0.5071    3.4069 H   0  0  0  0  0  0  0  0  0  0  0  0
    2.1475   -0.0961    3.6865 H   0  0  0  0  0  0  0  0  0  0  0  0
    1.3050    2.3758    2.4298 H   0  0  0  0  0  0  0  0  0  0  0  0
    2.8512    4.2648    1.1925 H   0  0  0  0  0  0  0  0  0  0  0  0
    5.3311    3.0598    0.9603 H   0  0  0  0  0  0  0  0  0  0  0  0
    5.1262   -3.2441   -0.3700 H   0  0  0  0  0  0  0  0  0  0  0  0
    4.4545   -4.6644   -2.2818 H   0  0  0  0  0  0  0  0  0  0  0  0
    2.0498   -4.8930   -2.8586 H   0  0  0  0  0  0  0  0  0  0  0  0
    0.3426   -3.7456   -1.5645 H   0  0  0  0  0  0  0  0  0  0  0  0
   -1.1406    3.4731    1.0450 H   0  0  0  0  0  0  0  0  0  0  0  0
   -0.2451    2.0508    0.5235 H   0  0  0  0  0  0  0  0  0  0  0  0
   -1.4176    1.9479    1.8737 H   0  0  0  0  0  0  0  0  0  0  0  0
   -2.8330    4.1234   -0.3556 H   0  0  0  0  0  0  0  0  0  0  0  0
  1  2  1  0
  2  3  2  0
  3  4  1  0
  4  5  1  0
  4  6  2  0
  6  7  1  0
  7  8  1  0
  8  9  2  0
  8 10  1  0
 10 11  1  0
 11 12  1  0
 12 13  2  0
 12 14  1  0
 14 15  1  0
 15 16  1  0
 16 17  2  0
 17 18  1  0
 18 19  2  0
 19 20  1  0
 14 21  1  0
 21 22  2  0
 21 23  1  0
 23 24  2  0
 24 25  1  0
 25 26  2  0
 26 27  1  0
 27 28  2  0
  6 29  1  0
 29 30  1  0
 29 31  2  0
 31  2  1  0
 28 11  1  0
 20 16  1  0
 28 23  1  0
  1 32  1  0
  1 33  1  0
  1 34  1  0
  3 35  1  0
  5 36  1  0
  5 37  1  0
  5 38  1  0
  7 39  1  0
 10 40  1  0
 10 41  1  0
 15 42  1  0
 15 43  1  0
 17 44  1  0
 18 45  1  0
 19 46  1  0
 24 47  1  0
 25 48  1  0
 26 49  1  0
 27 50  1  0
 30 51  1  0
 30 52  1  0
 30 53  1  0
 31 54  1  0
M  END
$$$$
