
     RDKit          3D

 51 54  0  0  0  0  0  0  0  0999 V2000
    5.8543    0.5030   -3.7078 C   0  0  0  0  0  0  0  0  0  0  0  0
    5.6886    1.7603   -2.8680 C   0  0  0  0  0  0  0  0  0  0  0  0
    4.3426    1.8104   -2.1937 C   0  0  0  0  0  0  0  0  0  0  0  0
    4.1559    1.2447   -0.9307 C   0  0  0  0  0  0  0  0  0  0  0  0
    2.8993    1.2779   -0.3118 C   0  0  0  0  0  0  0  0  0  0  0  0
    1.7896    1.8710   -0.9350 C   0  0  0  0  0  0  0  0  0  0  0  0
    0.4836    1.9077   -0.3016 N   0  0  0  0  0  0  0  0  0  0  0  0
   -0.3143    3.0402   -0.5050 C   0  0  0  0  0  0  0  0  0  0  0  0
    0.0369    4.0782   -1.0684 O   0  0  0  0  0  0  0  0  0  0  0  0
   -1.6755    3.0225    0.0513 C   0  0  0  0  0  0  0  0  0  0  0  0
   -2.5532    4.0821   -0.2404 C   0  0  0  0  0  0  0  0  0  0  0  0
   -3.8429    4.0910    0.2809 C   0  0  0  0  0  0  0  0  0  0  0  0
   -4.2561    3.0416    1.0910 C   0  0  0  0  0  0  0  0  0  0  0  0
   -3.3782    1.9914    1.3830 C   0  0  0  0  0  0  0  0  0  0  0  0
   -2.0697    1.9722    0.8704 C   0  0  0  0  0  0  0  0  0  0  0  0
   -1.1490    0.9322    1.1489 N   0  0  0  0  0  0  0  0  0  0  0  0
   -1.5242   -0.1927    2.0091 C   0  0  0  0  0  0  0  0  0  0  0  0
   -2.2540   -1.2988    1.2372 C   0  0  0  0  0  0  0  0  0  0  0  0
   -2.8947   -1.1023    0.2075 O   0  0  0  0  0  0  0  0  0  0  0  0
   -2.1884   -2.5348    1.8399 N   0  0  0  0  0  0  0  0  0  0  0  0
   -2.9018   -3.6660    1.2962 C   0  0  0  0  0  0  0  0  0  0  0  0
   -2.4441   -4.8940    1.9879 C   0  0  0  0  0  0  0  0  0  0  0  0
   -1.8344   -6.0538    1.5564 C   0  0  0  0  0  0  0  0  0  0  0  0
   -1.6421   -6.8564    2.7065 C   0  0  0  0  0  0  0  0  0  0  0  0
   -2.1431   -6.1367    3.7654 C   0  0  0  0  0  0  0  0  0  0  0  0
   -2.6293   -4.9419    3.3413 O   0  0  0  0  0  0  0  0  0  0  0  0
    0.0911    0.8347    0.5129 C   0  0  0  0  0  0  0  0  0  0  0  0
    0.7653   -0.1881    0.6793 O   0  0  0  0  0  0  0  0  0  0  0  0
    1.9939    2.4310   -2.2074 C   0  0  0  0  0  0  0  0  0  0  0  0
    3.2483    2.3998   -2.8297 C   0  0  0  0  0  0  0  0  0  0  0  0
    5.0952    0.4484   -4.4955 H   0  0  0  0  0  0  0  0  0  0  0  0
    5.7662   -0.3996   -3.0936 H   0  0  0  0  0  0  0  0  0  0  0  0
    6.8394    0.4937   -4.1849 H   0  0  0  0  0  0  0  0  0  0  0  0
    5.8183    2.6475   -3.4997 H   0  0  0  0  0  0  0  0  0  0  0  0
    6.4819    1.8082   -2.1120 H   0  0  0  0  0  0  0  0  0  0  0  0
    4.9875    0.7740   -0.4109 H   0  0  0  0  0  0  0  0  0  0  0  0
    2.8252    0.8511    0.6850 H   0  0  0  0  0  0  0  0  0  0  0  0
   -2.2311    4.9035   -0.8784 H   0  0  0  0  0  0  0  0  0  0  0  0
   -4.5212    4.9084    0.0497 H   0  0  0  0  0  0  0  0  0  0  0  0
   -5.2670    3.0304    1.4922 H   0  0  0  0  0  0  0  0  0  0  0  0
   -3.7688    1.1874    1.9985 H   0  0  0  0  0  0  0  0  0  0  0  0
   -0.6241   -0.6216    2.4665 H   0  0  0  0  0  0  0  0  0  0  0  0
   -2.1449    0.1436    2.8453 H   0  0  0  0  0  0  0  0  0  0  0  0
   -1.7693   -2.6431    2.7551 H   0  0  0  0  0  0  0  0  0  0  0  0
   -3.9730   -3.5060    1.4578 H   0  0  0  0  0  0  0  0  0  0  0  0
   -2.7208   -3.7232    0.2177 H   0  0  0  0  0  0  0  0  0  0  0  0
   -1.5611   -6.2879    0.5365 H   0  0  0  0  0  0  0  0  0  0  0  0
   -1.1928   -7.8383    2.7584 H   0  0  0  0  0  0  0  0  0  0  0  0
   -2.2235   -6.3246    4.8271 H   0  0  0  0  0  0  0  0  0  0  0  0
    1.1727    2.8825   -2.7594 H   0  0  0  0  0  0  0  0  0  0  0  0
    3.3571    2.8391   -3.8189 H   0  0  0  0  0  0  0  0  0  0  0  0
  1  2  1  0
  2  3  1  0
  3  4  2  0
  4  5  1  0
  5  6  2  0
  6  7  1  0
  7  8  1  0
  8  9  2  0
  8 10  1  0
 10 11  2  0
 11 12  1  0
 12 13  2  0
 13 14  1  0
 14 15  2  0
 15 16  1  0
 16 17  1  0
 17 18  1  0
 18 19  2  0
 18 20  1  0
 20 21  1  0
 21 22  1  0
 22 23  2  0
 23 24  1  0
 24 25  2  0
 25 26  1  0
 16 27  1  0
 27 28  2  0
  6 29  1  0
 29 30  2  0
 30  3  1  0
 27  7  1  0
 15 10  1  0
 26 22  1  0
  1 31  1  0
  1 32  1  0
  1 33  1  0
  2 34  1  0
  2 35  1  0
  4 36  1  0
  5 37  1  0
 11 38  1  0
 12 39  1  0
 13 40  1  0
 14 41  1  0
 17 42  1  0
 17 43  1  0
 20 44  1  0
 21 45  1  0
 21 46  1  0
 23 47  1  0
 24 48  1  0
 25 49  1  0
 29 50  1  0
 30 51  1  0
M  END
$$$$
