
     RDKit          3D

 50 51  0  0  0  0  0  0  0  0999 V2000
   -2.2105   -0.3652    3.8026 C   0  0  0  0  0  0  0  0  0  0  0  0
   -2.4338   -1.2806    2.7386 O   0  0  0  0  0  0  0  0  0  0  0  0
   -2.1232   -0.8691    1.4679 C   0  0  0  0  0  0  0  0  0  0  0  0
   -1.6990    0.4199    1.1364 C   0  0  0  0  0  0  0  0  0  0  0  0
   -1.3855    0.7430   -0.1871 C   0  0  0  0  0  0  0  0  0  0  0  0
   -1.5217   -0.2083   -1.1973 C   0  0  0  0  0  0  0  0  0  0  0  0
   -1.0910    0.0175   -2.5528 N   0  0  0  0  0  0  0  0  0  0  0  0
    0.3243   -0.3380   -2.8567 C   0  0  0  0  0  0  0  0  0  0  0  0
    1.3535    0.6114   -2.2556 C   0  0  0  0  0  0  0  0  0  0  0  0
    1.7711    1.5741   -2.8888 O   0  0  0  0  0  0  0  0  0  0  0  0
    1.7326    0.2446   -0.9675 N   0  0  0  0  0  0  0  0  0  0  0  0
    2.6152    0.9191   -0.0881 C   0  0  0  0  0  0  0  0  0  0  0  0
    3.2401    2.1255   -0.4450 C   0  0  0  0  0  0  0  0  0  0  0  0
    4.1057    2.7908    0.4285 C   0  0  0  0  0  0  0  0  0  0  0  0
    4.3691    2.2572    1.6804 C   0  0  0  0  0  0  0  0  0  0  0  0
    3.7533    1.0551    2.0413 C   0  0  0  0  0  0  0  0  0  0  0  0
    4.0740    0.5385    3.3578 N   0  0  0  0  0  4  0  0  0  0  0  0
    3.5730    1.1235    4.3260 O   0  0  0  0  0  0  0  0  0  0  0  0
    4.8239   -0.4451    3.4097 O   0  0  0  0  0  1  0  0  0  0  0  0
    2.8619    0.3629    1.1912 C   0  0  0  0  0  0  0  0  0  0  0  0
    2.2024   -0.9241    1.6222 C   0  0  0  0  0  0  0  0  0  0  0  0
   -1.6546    1.4055   -3.3736 S   0  0  0  0  0  6  0  0  0  0  0  0
   -3.4138    1.1242   -3.3678 C   0  0  0  0  0  0  0  0  0  0  0  0
   -1.3797    2.5885   -2.5898 O   0  0  0  0  0  0  0  0  0  0  0  0
   -1.2214    1.3018   -4.7516 O   0  0  0  0  0  0  0  0  0  0  0  0
   -1.9311   -1.5038   -0.8687 C   0  0  0  0  0  0  0  0  0  0  0  0
   -2.2482   -1.8385    0.4532 C   0  0  0  0  0  0  0  0  0  0  0  0
   -2.6486   -3.0880    0.8563 O   0  0  0  0  0  0  0  0  0  0  0  0
   -3.0466   -4.0082   -0.1507 C   0  0  0  0  0  0  0  0  0  0  0  0
   -2.8573    0.5138    3.7097 H   0  0  0  0  0  0  0  0  0  0  0  0
   -2.4680   -0.8712    4.7385 H   0  0  0  0  0  0  0  0  0  0  0  0
   -1.1564   -0.0758    3.8582 H   0  0  0  0  0  0  0  0  0  0  0  0
   -1.5864    1.1975    1.8858 H   0  0  0  0  0  0  0  0  0  0  0  0
   -1.0134    1.7438   -0.3955 H   0  0  0  0  0  0  0  0  0  0  0  0
    0.5255   -1.3609   -2.5116 H   0  0  0  0  0  0  0  0  0  0  0  0
    0.4828   -0.3822   -3.9403 H   0  0  0  0  0  0  0  0  0  0  0  0
    1.2891   -0.5885   -0.6033 H   0  0  0  0  0  0  0  0  0  0  0  0
    3.0690    2.5923   -1.4115 H   0  0  0  0  0  0  0  0  0  0  0  0
    4.5684    3.7262    0.1195 H   0  0  0  0  0  0  0  0  0  0  0  0
    5.0439    2.7724    2.3603 H   0  0  0  0  0  0  0  0  0  0  0  0
    2.4003   -1.1934    2.6625 H   0  0  0  0  0  0  0  0  0  0  0  0
    1.1145   -0.8378    1.5364 H   0  0  0  0  0  0  0  0  0  0  0  0
    2.5533   -1.7514    0.9967 H   0  0  0  0  0  0  0  0  0  0  0  0
   -3.6192    0.1520   -3.8217 H   0  0  0  0  0  0  0  0  0  0  0  0
   -3.8793    1.9127   -3.9636 H   0  0  0  0  0  0  0  0  0  0  0  0
   -3.7915    1.1707   -2.3449 H   0  0  0  0  0  0  0  0  0  0  0  0
   -1.9897   -2.2412   -1.6629 H   0  0  0  0  0  0  0  0  0  0  0  0
   -3.4607   -4.8896    0.3480 H   0  0  0  0  0  0  0  0  0  0  0  0
   -2.1858   -4.3361   -0.7422 H   0  0  0  0  0  0  0  0  0  0  0  0
   -3.8304   -3.5877   -0.7890 H   0  0  0  0  0  0  0  0  0  0  0  0
  1  2  1  0
  2  3  1  0
  3  4  2  0
  4  5  1  0
  5  6  2  0
  6  7  1  0
  7  8  1  0
  8  9  1  0
  9 10  2  0
  9 11  1  0
 11 12  1  0
 12 13  2  0
 13 14  1  0
 14 15  2  0
 15 16  1  0
 16 17  1  0
 17 18  2  0
 17 19  1  0
 16 20  2  0
 20 21  1  0
  7 22  1  0
 22 23  1  0
 22 24  2  0
 22 25  2  0
  6 26  1  0
 26 27  2  0
 27 28  1  0
 28 29  1  0
 27  3  1  0
 20 12  1  0
  1 30  1  0
  1 31  1  0
  1 32  1  0
  4 33  1  0
  5 34  1  0
  8 35  1  0
  8 36  1  0
 11 37  1  0
 13 38  1  0
 14 39  1  0
 15 40  1  0
 21 41  1  0
 21 42  1  0
 21 43  1  0
 23 44  1  0
 23 45  1  0
 23 46  1  0
 26 47  1  0
 29 48  1  0
 29 49  1  0
 29 50  1  0
M  CHG  2  17   1  19  -1
M  END
$$$$
