
     RDKit          3D

 51 55  0  0  0  0  0  0  0  0999 V2000
   -0.5862   -1.7003    0.8604 C   0  0  0  0  0  0  0  0  0  0  0  0
   -1.0933   -0.7311   -0.1812 C   0  0  0  0  0  0  0  0  0  0  0  0
   -0.1514    0.1840   -0.6393 N   0  0  0  0  0  0  0  0  0  0  0  0
   -0.4514    1.1056   -1.5858 C   0  0  0  0  0  0  0  0  0  0  0  0
    0.2581    2.1005   -2.2253 C   0  0  0  0  0  0  0  0  0  0  0  0
    1.6239    2.5238   -2.0091 C   0  0  0  0  0  0  0  0  0  0  0  0
    2.3065    3.0142   -2.8999 O   0  0  0  0  0  0  0  0  0  0  0  0
    2.0637    2.3491   -0.7187 N   0  0  0  0  0  0  0  0  0  0  0  0
    3.4286    2.5875   -0.3227 C   0  0  0  0  0  0  0  0  0  0  0  0
    4.1335    1.2698   -0.1243 C   0  0  0  0  0  0  0  0  0  0  0  0
    4.7753    0.6414   -1.2181 C   0  0  0  0  0  0  0  0  0  0  0  0
    5.4076   -0.5969   -1.0688 C   0  0  0  0  0  0  0  0  0  0  0  0
    5.3739   -1.1869    0.1756 C   0  0  0  0  0  0  0  0  0  0  0  0
    4.7402   -0.5912    1.2410 C   0  0  0  0  0  0  0  0  0  0  0  0
    4.1098    0.6302    1.1260 C   0  0  0  0  0  0  0  0  0  0  0  0
    4.8109   -1.3405    2.3740 O   0  0  0  0  0  0  0  0  0  0  0  0
    5.6021   -2.4558    1.9099 C   0  0  0  0  0  0  0  0  0  0  0  0
    5.9296   -2.3827    0.5062 O   0  0  0  0  0  0  0  0  0  0  0  0
   -0.6561    2.6020   -3.1803 C   0  0  0  0  0  0  0  0  0  0  0  0
   -1.8658    2.0381   -3.1015 N   0  0  0  0  0  0  0  0  0  0  0  0
   -1.7287    1.1138   -2.1119 N   0  0  0  0  0  0  0  0  0  0  0  0
   -2.7636    0.2520   -1.7095 C   0  0  0  0  0  0  0  0  0  0  0  0
   -3.8743    0.3083   -2.2222 O   0  0  0  0  0  0  0  0  0  0  0  0
   -2.3725   -0.7291   -0.6329 C   0  0  0  0  0  0  0  0  0  0  0  0
   -3.4721   -1.6787   -0.2237 C   0  0  0  0  0  0  0  0  0  0  0  0
   -4.4985   -1.0911    0.7202 C   0  0  0  0  0  0  0  0  0  0  0  0
   -4.1430   -0.2787    1.8091 C   0  0  0  0  0  0  0  0  0  0  0  0
   -5.1213    0.2174    2.6784 C   0  0  0  0  0  0  0  0  0  0  0  0
   -6.4653   -0.0999    2.4807 C   0  0  0  0  0  0  0  0  0  0  0  0
   -6.8307   -0.9228    1.4185 C   0  0  0  0  0  0  0  0  0  0  0  0
   -5.8514   -1.4149    0.5573 C   0  0  0  0  0  0  0  0  0  0  0  0
   -6.2265   -2.2349   -0.4364 F   0  0  0  0  0  0  0  0  0  0  0  0
   -0.0785   -2.5385    0.3728 H   0  0  0  0  0  0  0  0  0  0  0  0
    0.1306   -1.2081    1.5258 H   0  0  0  0  0  0  0  0  0  0  0  0
   -1.3782   -2.0947    1.5006 H   0  0  0  0  0  0  0  0  0  0  0  0
    0.8192   -0.0154   -0.3852 H   0  0  0  0  0  0  0  0  0  0  0  0
    1.4001    2.0606   -0.0117 H   0  0  0  0  0  0  0  0  0  0  0  0
    3.4087    3.1544    0.6147 H   0  0  0  0  0  0  0  0  0  0  0  0
    3.9543    3.2004   -1.0627 H   0  0  0  0  0  0  0  0  0  0  0  0
    4.7783    1.1234   -2.1954 H   0  0  0  0  0  0  0  0  0  0  0  0
    5.9060   -1.0753   -1.9038 H   0  0  0  0  0  0  0  0  0  0  0  0
    3.6182    1.0722    1.9859 H   0  0  0  0  0  0  0  0  0  0  0  0
    5.0431   -3.3824    2.0915 H   0  0  0  0  0  0  0  0  0  0  0  0
    6.5335   -2.4868    2.4871 H   0  0  0  0  0  0  0  0  0  0  0  0
   -0.4862    3.3781   -3.9192 H   0  0  0  0  0  0  0  0  0  0  0  0
   -3.0651   -2.5791    0.2528 H   0  0  0  0  0  0  0  0  0  0  0  0
   -3.9624   -2.0462   -1.1342 H   0  0  0  0  0  0  0  0  0  0  0  0
   -3.1046   -0.0193    1.9974 H   0  0  0  0  0  0  0  0  0  0  0  0
   -4.8346    0.8550    3.5111 H   0  0  0  0  0  0  0  0  0  0  0  0
   -7.2240    0.2885    3.1556 H   0  0  0  0  0  0  0  0  0  0  0  0
   -7.8702   -1.1893    1.2536 H   0  0  0  0  0  0  0  0  0  0  0  0
  1  2  1  0
  2  3  1  0
  3  4  1  0
  4  5  2  0
  5  6  1  0
  6  7  2  0
  6  8  1  0
  8  9  1  0
  9 10  1  0
 10 11  2  0
 11 12  1  0
 12 13  2  0
 13 14  1  0
 14 15  2  0
 14 16  1  0
 16 17  1  0
 17 18  1  0
  5 19  1  0
 19 20  2  0
 20 21  1  0
 21 22  1  0
 22 23  2  0
 22 24  1  0
 24 25  1  0
 25 26  1  0
 26 27  2  0
 27 28  1  0
 28 29  2  0
 29 30  1  0
 30 31  2  0
 31 32  1  0
 24  2  2  0
 31 26  1  0
 21  4  1  0
 15 10  1  0
 18 13  1  0
  1 33  1  0
  1 34  1  0
  1 35  1  0
  3 36  1  0
  8 37  1  0
  9 38  1  0
  9 39  1  0
 11 40  1  0
 12 41  1  0
 15 42  1  0
 17 43  1  0
 17 44  1  0
 19 45  1  0
 25 46  1  0
 25 47  1  0
 27 48  1  0
 28 49  1  0
 29 50  1  0
 30 51  1  0
M  END
$$$$
