
     RDKit          3D

 32 33  0  0  0  0  0  0  0  0999 V2000
   -5.9739   -0.3949   -0.7310 C   0  0  0  0  0  0  0  0  0  0  0  0
   -4.5447   -0.2426   -0.2991 C   0  0  0  0  0  0  0  0  0  0  0  0
   -3.8334   -1.3477    0.1854 C   0  0  0  0  0  0  0  0  0  0  0  0
   -2.4938   -1.2192    0.5651 C   0  0  0  0  0  0  0  0  0  0  0  0
   -1.6918   -2.6130    1.1975 Cl  0  0  0  0  0  0  0  0  0  0  0  0
   -1.8380    0.0109    0.4353 C   0  0  0  0  0  0  0  0  0  0  0  0
   -0.5328    0.1499    0.8378 O   0  0  0  0  0  0  0  0  0  0  0  0
    0.3675   -0.1548   -0.2354 C   0  0  0  0  0  0  0  0  0  0  0  0
    1.7757    0.1942    0.2301 C   0  0  0  0  0  0  0  0  0  0  0  0
    2.8038   -0.1084   -0.8512 C   0  0  0  0  0  0  0  0  0  0  0  0
    4.1496    0.2284   -0.4358 N   0  0  0  0  0  0  0  0  0  0  0  0
    5.0284   -0.5956    0.2079 C   0  0  0  0  0  0  0  0  0  0  0  0
    6.1668    0.1597    0.3671 C   0  0  0  0  0  0  0  0  0  0  0  0
    5.9992    1.4113   -0.1674 N   0  0  0  0  0  0  0  0  0  0  0  0
    4.7749    1.4234   -0.6439 C   0  0  0  0  0  0  0  0  0  0  0  0
   -2.5516    1.1208   -0.0327 C   0  0  0  0  0  0  0  0  0  0  0  0
   -1.7510    2.8376   -0.1657 Br  0  0  0  0  0  0  0  0  0  0  0  0
   -3.8918    0.9910   -0.4127 C   0  0  0  0  0  0  0  0  0  0  0  0
   -6.5079   -1.0818   -0.0661 H   0  0  0  0  0  0  0  0  0  0  0  0
   -6.0154   -0.7839   -1.7528 H   0  0  0  0  0  0  0  0  0  0  0  0
   -6.5008    0.5642   -0.6984 H   0  0  0  0  0  0  0  0  0  0  0  0
   -4.3296   -2.3122    0.2763 H   0  0  0  0  0  0  0  0  0  0  0  0
    0.1195    0.4298   -1.1302 H   0  0  0  0  0  0  0  0  0  0  0  0
    0.3117   -1.2209   -0.4855 H   0  0  0  0  0  0  0  0  0  0  0  0
    1.8150    1.2539    0.5129 H   0  0  0  0  0  0  0  0  0  0  0  0
    2.0075   -0.3615    1.1477 H   0  0  0  0  0  0  0  0  0  0  0  0
    2.7974   -1.1731   -1.1113 H   0  0  0  0  0  0  0  0  0  0  0  0
    2.5898    0.4575   -1.7653 H   0  0  0  0  0  0  0  0  0  0  0  0
    4.7852   -1.6097    0.4917 H   0  0  0  0  0  0  0  0  0  0  0  0
    7.0976   -0.1301    0.8366 H   0  0  0  0  0  0  0  0  0  0  0  0
    4.3017    2.2609   -1.1396 H   0  0  0  0  0  0  0  0  0  0  0  0
   -4.4350    1.8558   -0.7893 H   0  0  0  0  0  0  0  0  0  0  0  0
  1  2  1  0
  2  3  2  0
  3  4  1  0
  4  5  1  0
  4  6  2  0
  6  7  1  0
  7  8  1  0
  8  9  1  0
  9 10  1  0
 10 11  1  0
 11 12  1  0
 12 13  2  0
 13 14  1  0
 14 15  2  0
  6 16  1  0
 16 17  1  0
 16 18  2  0
 18  2  1  0
 15 11  1  0
  1 19  1  0
  1 20  1  0
  1 21  1  0
  3 22  1  0
  8 23  1  0
  8 24  1  0
  9 25  1  0
  9 26  1  0
 10 27  1  0
 10 28  1  0
 12 29  1  0
 13 30  1  0
 15 31  1  0
 18 32  1  0
M  END
$$$$
