
     RDKit          3D

 27 27  0  0  0  0  0  0  0  0999 V2000
   -2.4511    1.1942   -1.1339 C   0  0  0  0  0  0  0  0  0  0  0  0
   -1.4403    0.2458   -0.4638 C   0  0  0  0  0  0  0  0  0  0  0  0
   -1.0049   -0.8101   -1.4826 C   0  0  0  0  0  0  0  0  0  0  0  0
   -2.1231   -0.4431    0.7269 C   0  0  0  0  0  0  0  0  0  0  0  0
   -0.0321    1.2536    0.0987 S   0  0  0  0  0  6  0  0  0  0  0  0
   -0.4787    2.1301    1.1657 O   0  0  0  0  0  0  0  0  0  0  0  0
    0.7077    1.7850   -1.0261 O   0  0  0  0  0  0  0  0  0  0  0  0
    1.0869    0.1889    0.9044 C   0  0  0  0  0  0  0  0  0  0  0  0
    0.9824   -0.1106    2.3030 C   0  0  0  0  0  0  0  0  0  0  0  0
    2.0050   -0.9195    2.7407 C   0  0  0  0  0  0  0  0  0  0  0  0
    3.0966   -1.3005    1.4856 S   0  0  0  0  0  0  0  0  0  0  0  0
    2.2087   -0.3850    0.3321 C   0  0  0  0  0  0  0  0  0  0  0  0
    2.6670   -0.3487   -1.0335 C   0  0  0  0  0  0  0  0  0  0  0  0
    2.0158   -0.5678   -2.0432 O   0  0  0  0  0  0  0  0  0  0  0  0
    3.9815   -0.0504   -1.1214 O   0  0  0  0  0  0  0  0  0  0  0  0
   -2.8036    1.9598   -0.4337 H   0  0  0  0  0  0  0  0  0  0  0  0
   -3.3277    0.6475   -1.4990 H   0  0  0  0  0  0  0  0  0  0  0  0
   -2.0019    1.7140   -1.9878 H   0  0  0  0  0  0  0  0  0  0  0  0
   -0.5374   -0.3493   -2.3586 H   0  0  0  0  0  0  0  0  0  0  0  0
   -1.8643   -1.3894   -1.8397 H   0  0  0  0  0  0  0  0  0  0  0  0
   -0.2949   -1.5207   -1.0488 H   0  0  0  0  0  0  0  0  0  0  0  0
   -1.4653   -1.1790    1.1995 H   0  0  0  0  0  0  0  0  0  0  0  0
   -2.4206    0.2791    1.4947 H   0  0  0  0  0  0  0  0  0  0  0  0
   -3.0260   -0.9759    0.4072 H   0  0  0  0  0  0  0  0  0  0  0  0
    0.2044    0.2672    2.9580 H   0  0  0  0  0  0  0  0  0  0  0  0
    2.1731   -1.2932    3.7422 H   0  0  0  0  0  0  0  0  0  0  0  0
    4.1427   -0.0220   -2.0865 H   0  0  0  0  0  0  0  0  0  0  0  0
  1  2  1  0
  2  3  1  0
  2  4  1  0
  2  5  1  0
  5  6  2  0
  5  7  2  0
  5  8  1  0
  8  9  1  0
  9 10  2  0
 10 11  1  0
 11 12  1  0
 12 13  1  0
 13 14  2  0
 13 15  1  0
 12  8  2  0
  1 16  1  0
  1 17  1  0
  1 18  1  0
  3 19  1  0
  3 20  1  0
  3 21  1  0
  4 22  1  0
  4 23  1  0
  4 24  1  0
  9 25  1  0
 10 26  1  0
 15 27  1  0
M  END
$$$$
