
     RDKit          3D

 37 38  0  0  0  0  0  0  0  0999 V2000
   -7.6985    0.3493   -0.3952 C   0  0  0  0  0  0  0  0  0  0  0  0
   -6.3280    0.8153    0.0302 C   0  0  0  0  0  0  0  0  0  0  0  0
   -6.1802    1.8975    0.5860 O   0  0  0  0  0  0  0  0  0  0  0  0
   -5.3459   -0.1167   -0.2536 N   0  0  0  0  0  0  0  0  0  0  0  0
   -3.9629   -0.0100   -0.0013 C   0  0  0  0  0  0  0  0  0  0  0  0
   -3.3557    1.1125    0.5643 C   0  0  0  0  0  0  0  0  0  0  0  0
   -1.9716    1.1408    0.7784 C   0  0  0  0  0  0  0  0  0  0  0  0
   -1.1769    0.0423    0.4342 C   0  0  0  0  0  0  0  0  0  0  0  0
    0.2871    0.1231    0.6799 C   0  0  0  0  0  0  0  0  0  0  0  0
    0.8690    1.1508    0.9903 O   0  0  0  0  0  0  0  0  0  0  0  0
    0.8623   -1.0989    0.5442 O   0  0  0  0  0  0  0  0  0  0  0  0
    2.2869   -1.0852    0.6596 C   0  0  0  0  0  0  0  0  0  0  0  0
    2.9541   -0.5960   -0.6230 C   0  0  0  0  0  0  0  0  0  0  0  0
    2.3405   -0.4995   -1.6861 O   0  0  0  0  0  0  0  0  0  0  0  0
    4.4063   -0.2467   -0.5868 C   0  0  0  0  0  0  0  0  0  0  0  0
    5.2269   -0.5529    0.5086 C   0  0  0  0  0  0  0  0  0  0  0  0
    6.5817   -0.2066    0.4856 C   0  0  0  0  0  0  0  0  0  0  0  0
    7.1120    0.4384   -0.6263 C   0  0  0  0  0  0  0  0  0  0  0  0
    8.4103    0.7652   -0.6415 F   0  0  0  0  0  0  0  0  0  0  0  0
    6.3146    0.7450   -1.7212 C   0  0  0  0  0  0  0  0  0  0  0  0
    4.9613    0.4012   -1.7029 C   0  0  0  0  0  0  0  0  0  0  0  0
   -1.7797   -1.0824   -0.1386 C   0  0  0  0  0  0  0  0  0  0  0  0
   -3.1628   -1.1052   -0.3535 C   0  0  0  0  0  0  0  0  0  0  0  0
   -7.6468   -0.2308   -1.3211 H   0  0  0  0  0  0  0  0  0  0  0  0
   -8.1345   -0.2632    0.3983 H   0  0  0  0  0  0  0  0  0  0  0  0
   -8.3368    1.2189   -0.5767 H   0  0  0  0  0  0  0  0  0  0  0  0
   -5.6519   -0.9810   -0.6823 H   0  0  0  0  0  0  0  0  0  0  0  0
   -3.9278    1.9909    0.8476 H   0  0  0  0  0  0  0  0  0  0  0  0
   -1.5210    2.0303    1.2155 H   0  0  0  0  0  0  0  0  0  0  0  0
    2.5917   -0.4830    1.5224 H   0  0  0  0  0  0  0  0  0  0  0  0
    2.6020   -2.1196    0.8315 H   0  0  0  0  0  0  0  0  0  0  0  0
    4.8461   -1.0633    1.3881 H   0  0  0  0  0  0  0  0  0  0  0  0
    7.2284   -0.4366    1.3273 H   0  0  0  0  0  0  0  0  0  0  0  0
    6.7470    1.2484   -2.5803 H   0  0  0  0  0  0  0  0  0  0  0  0
    4.3388    0.6446   -2.5629 H   0  0  0  0  0  0  0  0  0  0  0  0
   -1.1856   -1.9440   -0.4336 H   0  0  0  0  0  0  0  0  0  0  0  0
   -3.6003   -1.9929   -0.8036 H   0  0  0  0  0  0  0  0  0  0  0  0
  1  2  1  0
  2  3  2  0
  2  4  1  0
  4  5  1  0
  5  6  2  0
  6  7  1  0
  7  8  2  0
  8  9  1  0
  9 10  2  0
  9 11  1  0
 11 12  1  0
 12 13  1  0
 13 14  2  0
 13 15  1  0
 15 16  2  0
 16 17  1  0
 17 18  2  0
 18 19  1  0
 18 20  1  0
 20 21  2  0
  8 22  1  0
 22 23  2  0
 23  5  1  0
 21 15  1  0
  1 24  1  0
  1 25  1  0
  1 26  1  0
  4 27  1  0
  6 28  1  0
  7 29  1  0
 12 30  1  0
 12 31  1  0
 16 32  1  0
 17 33  1  0
 20 34  1  0
 21 35  1  0
 22 36  1  0
 23 37  1  0
M  END
$$$$
