
     RDKit          3D

 50 53  0  0  0  0  0  0  0  0999 V2000
   -0.6185    0.9777    4.5251 C   0  0  0  0  0  0  0  0  0  0  0  0
   -0.4763    0.2412    3.2030 C   0  0  0  0  0  0  0  0  0  0  0  0
   -1.0128    1.0493    2.0300 C   0  0  0  0  0  0  0  0  0  0  0  0
   -1.4928    2.1691    2.2133 O   0  0  0  0  0  0  0  0  0  0  0  0
   -0.9512    0.4673    0.7672 N   0  0  0  0  0  0  0  0  0  0  0  0
   -1.6574    1.1412   -0.3295 C   0  0  0  0  0  0  0  0  0  0  0  0
   -3.0475    0.5806   -0.5394 C   0  0  0  0  0  0  0  0  0  0  0  0
   -3.3246   -0.2598   -1.6241 C   0  0  0  0  0  0  0  0  0  0  0  0
   -4.6076   -0.7858   -1.8085 C   0  0  0  0  0  0  0  0  0  0  0  0
   -5.6331   -0.4939   -0.9020 C   0  0  0  0  0  0  0  0  0  0  0  0
   -7.0151   -1.0396   -1.1199 C   0  0  0  0  0  0  0  0  0  0  0  0
   -5.3637    0.3588    0.1741 C   0  0  0  0  0  0  0  0  0  0  0  0
   -4.0834    0.8887    0.3535 C   0  0  0  0  0  0  0  0  0  0  0  0
   -0.3328   -0.8303    0.4649 C   0  0  0  0  0  0  0  0  0  0  0  0
    0.9756   -0.6407   -0.2571 C   0  0  0  0  0  0  0  0  0  0  0  0
    2.1288   -0.3302    0.3637 C   0  0  0  0  0  0  0  0  0  0  0  0
    3.3861   -0.2096   -0.3751 C   0  0  0  0  0  0  0  0  0  0  0  0
    4.5862    0.0893    0.2770 C   0  0  0  0  0  0  0  0  0  0  0  0
    5.7313    0.1592   -0.4899 C   0  0  0  0  0  0  0  0  0  0  0  0
    5.7098   -0.0446   -1.8515 C   0  0  0  0  0  0  0  0  0  0  0  0
    4.5443   -0.3306   -2.5289 C   0  0  0  0  0  0  0  0  0  0  0  0
    3.3750   -0.4209   -1.7713 C   0  0  0  0  0  0  0  0  0  0  0  0
    2.1676   -0.7477   -2.3950 N   0  0  0  0  0  0  0  0  0  0  0  0
    0.9794   -0.8990   -1.7323 C   0  0  0  0  0  0  0  0  0  0  0  0
   -0.0357   -1.2363   -2.3340 O   0  0  0  0  0  0  0  0  0  0  0  0
    6.9454    0.0677   -2.4105 O   0  0  0  0  0  0  0  0  0  0  0  0
    7.7557    0.3120   -1.2398 C   0  0  0  0  0  0  0  0  0  0  0  0
    6.9838    0.4220   -0.0264 O   0  0  0  0  0  0  0  0  0  0  0  0
   -0.0765    1.9283    4.5063 H   0  0  0  0  0  0  0  0  0  0  0  0
   -0.2167    0.3716    5.3427 H   0  0  0  0  0  0  0  0  0  0  0  0
   -1.6689    1.1942    4.7444 H   0  0  0  0  0  0  0  0  0  0  0  0
   -1.0348   -0.6990    3.2677 H   0  0  0  0  0  0  0  0  0  0  0  0
    0.5830    0.0231    3.0415 H   0  0  0  0  0  0  0  0  0  0  0  0
   -1.0631    1.0595   -1.2470 H   0  0  0  0  0  0  0  0  0  0  0  0
   -1.7417    2.2183   -0.1316 H   0  0  0  0  0  0  0  0  0  0  0  0
   -2.5406   -0.5188   -2.3352 H   0  0  0  0  0  0  0  0  0  0  0  0
   -4.7982   -1.4280   -2.6653 H   0  0  0  0  0  0  0  0  0  0  0  0
   -6.9711   -2.0621   -1.5111 H   0  0  0  0  0  0  0  0  0  0  0  0
   -7.5734   -1.0751   -0.1779 H   0  0  0  0  0  0  0  0  0  0  0  0
   -7.5590   -0.4114   -1.8291 H   0  0  0  0  0  0  0  0  0  0  0  0
   -6.1502    0.6213    0.8788 H   0  0  0  0  0  0  0  0  0  0  0  0
   -3.8965    1.5526    1.1956 H   0  0  0  0  0  0  0  0  0  0  0  0
   -0.1444   -1.3942    1.3822 H   0  0  0  0  0  0  0  0  0  0  0  0
   -1.0429   -1.4425   -0.1017 H   0  0  0  0  0  0  0  0  0  0  0  0
    2.1650   -0.1652    1.4355 H   0  0  0  0  0  0  0  0  0  0  0  0
    4.6345    0.2584    1.3471 H   0  0  0  0  0  0  0  0  0  0  0  0
    4.5548   -0.4882   -3.6003 H   0  0  0  0  0  0  0  0  0  0  0  0
    2.1408   -0.9247   -3.3902 H   0  0  0  0  0  0  0  0  0  0  0  0
    8.4679   -0.5140   -1.1292 H   0  0  0  0  0  0  0  0  0  0  0  0
    8.3155    1.2410   -1.3847 H   0  0  0  0  0  0  0  0  0  0  0  0
  1  2  1  0
  2  3  1  0
  3  4  2  0
  3  5  1  0
  5  6  1  0
  6  7  1  0
  7  8  2  0
  8  9  1  0
  9 10  2  0
 10 11  1  0
 10 12  1  0
 12 13  2  0
  5 14  1  0
 14 15  1  0
 15 16  2  0
 16 17  1  0
 17 18  2  0
 18 19  1  0
 19 20  2  0
 20 21  1  0
 21 22  2  0
 22 23  1  0
 23 24  1  0
 24 25  2  0
 20 26  1  0
 26 27  1  0
 27 28  1  0
 13  7  1  0
 24 15  1  0
 22 17  1  0
 28 19  1  0
  1 29  1  0
  1 30  1  0
  1 31  1  0
  2 32  1  0
  2 33  1  0
  6 34  1  0
  6 35  1  0
  8 36  1  0
  9 37  1  0
 11 38  1  0
 11 39  1  0
 11 40  1  0
 12 41  1  0
 13 42  1  0
 14 43  1  0
 14 44  1  0
 16 45  1  0
 18 46  1  0
 21 47  1  0
 23 48  1  0
 27 49  1  0
 27 50  1  0
M  END
$$$$
