
     RDKit          3D

 39 41  0  0  0  0  0  0  0  0999 V2000
    5.4311   -0.2906    0.4834 C   0  0  0  0  0  0  0  0  0  0  0  0
    4.4814    0.8379    0.8440 C   0  0  0  0  0  0  0  0  0  0  0  0
    3.7735    1.3518   -0.3184 N   0  0  0  0  0  0  0  0  0  0  0  0
    4.3468    2.3590   -1.0179 N   0  0  0  0  0  0  0  0  0  0  0  0
    3.4820    2.5975   -2.0025 C   0  0  0  0  0  0  0  0  0  0  0  0
    2.3559    1.7720   -1.9133 C   0  0  0  0  0  0  0  0  0  0  0  0
    0.9695    1.7916   -3.1728 Br  0  0  0  0  0  0  0  0  0  0  0  0
    2.5304    0.9816   -0.7940 C   0  0  0  0  0  0  0  0  0  0  0  0
    1.7047   -0.0534   -0.2018 C   0  0  0  0  0  0  0  0  0  0  0  0
    2.2121   -0.9942    0.3957 O   0  0  0  0  0  0  0  0  0  0  0  0
    0.3487    0.1786   -0.3429 N   0  0  0  0  0  0  0  0  0  0  0  0
   -0.7052   -0.6157    0.0905 C   0  0  0  0  0  0  0  0  0  0  0  0
   -0.4119   -2.1849    0.7314 S   0  0  0  0  0  0  0  0  0  0  0  0
   -2.0407   -2.4447    0.9461 C   0  0  0  0  0  0  0  0  0  0  0  0
   -2.8219   -1.3966    0.5563 C   0  0  0  0  0  0  0  0  0  0  0  0
   -2.0684   -0.2998    0.0451 C   0  0  0  0  0  0  0  0  0  0  0  0
   -2.6600    0.9480   -0.4366 C   0  0  0  0  0  0  0  0  0  0  0  0
   -3.8699    1.1403   -0.4834 O   0  0  0  0  0  0  0  0  0  0  0  0
   -1.7305    1.8771   -0.8202 O   0  0  0  0  0  0  0  0  0  0  0  0
   -2.2989    3.1057   -1.2797 C   0  0  0  0  0  0  0  0  0  0  0  0
   -4.2619   -1.6977    0.7725 C   0  0  0  0  0  0  0  0  0  0  0  0
   -4.2044   -2.9698    1.6758 C   0  0  0  0  0  0  0  0  0  0  0  0
   -2.7936   -3.6034    1.4762 C   0  0  0  0  0  0  0  0  0  0  0  0
    6.1905    0.0484   -0.2296 H   0  0  0  0  0  0  0  0  0  0  0  0
    5.9446   -0.6566    1.3779 H   0  0  0  0  0  0  0  0  0  0  0  0
    4.9005   -1.1317    0.0254 H   0  0  0  0  0  0  0  0  0  0  0  0
    3.7466    0.5238    1.5912 H   0  0  0  0  0  0  0  0  0  0  0  0
    5.0397    1.6735    1.2825 H   0  0  0  0  0  0  0  0  0  0  0  0
    3.7206    3.3539   -2.7389 H   0  0  0  0  0  0  0  0  0  0  0  0
    0.0724    1.0592   -0.7653 H   0  0  0  0  0  0  0  0  0  0  0  0
   -2.9368    2.9314   -2.1523 H   0  0  0  0  0  0  0  0  0  0  0  0
   -1.4804    3.7659   -1.5777 H   0  0  0  0  0  0  0  0  0  0  0  0
   -2.8616    3.5907   -0.4757 H   0  0  0  0  0  0  0  0  0  0  0  0
   -4.7524   -1.9256   -0.1798 H   0  0  0  0  0  0  0  0  0  0  0  0
   -4.7964   -0.8856    1.2732 H   0  0  0  0  0  0  0  0  0  0  0  0
   -5.0118   -3.6740    1.4528 H   0  0  0  0  0  0  0  0  0  0  0  0
   -4.3138   -2.6658    2.7254 H   0  0  0  0  0  0  0  0  0  0  0  0
   -2.3945   -3.9869    2.4190 H   0  0  0  0  0  0  0  0  0  0  0  0
   -2.8361   -4.4112    0.7384 H   0  0  0  0  0  0  0  0  0  0  0  0
  1  2  1  0
  2  3  1  0
  3  4  1  0
  4  5  2  0
  5  6  1  0
  6  7  1  0
  6  8  2  0
  8  9  1  0
  9 10  2  0
  9 11  1  0
 11 12  1  0
 12 13  1  0
 13 14  1  0
 14 15  2  0
 15 16  1  0
 16 17  1  0
 17 18  2  0
 17 19  1  0
 19 20  1  0
 15 21  1  0
 21 22  1  0
 22 23  1  0
  8  3  1  0
 16 12  2  0
 23 14  1  0
  1 24  1  0
  1 25  1  0
  1 26  1  0
  2 27  1  0
  2 28  1  0
  5 29  1  0
 11 30  1  0
 20 31  1  0
 20 32  1  0
 20 33  1  0
 21 34  1  0
 21 35  1  0
 22 36  1  0
 22 37  1  0
 23 38  1  0
 23 39  1  0
M  END
$$$$
