
     RDKit          3D

 43 45  0  0  0  0  0  0  0  0999 V2000
   -4.8034   -1.7883    1.9085 C   0  0  0  0  0  0  0  0  0  0  0  0
   -3.8178   -1.6539    0.8919 O   0  0  0  0  0  0  0  0  0  0  0  0
   -3.5945   -0.3963    0.4065 C   0  0  0  0  0  0  0  0  0  0  0  0
   -4.2613    0.7633    0.7917 C   0  0  0  0  0  0  0  0  0  0  0  0
   -3.9393    1.9945    0.2037 C   0  0  0  0  0  0  0  0  0  0  0  0
   -2.9381    2.0881   -0.7695 C   0  0  0  0  0  0  0  0  0  0  0  0
   -2.6088    3.2462   -1.4119 O   0  0  0  0  0  0  0  0  0  0  0  0
   -3.1212    4.4677   -0.8963 C   0  0  0  0  0  0  0  0  0  0  0  0
   -2.2632    0.9197   -1.1424 C   0  0  0  0  0  0  0  0  0  0  0  0
   -0.9548    0.9800   -2.3440 S   0  0  0  0  0  6  0  0  0  0  0  0
   -1.5523    0.6551   -3.6233 O   0  0  0  0  0  0  0  0  0  0  0  0
   -0.1576    2.1739   -2.1591 O   0  0  0  0  0  0  0  0  0  0  0  0
    0.0215   -0.3347   -1.9713 N   0  0  0  0  0  0  0  0  0  0  0  0
    0.9190   -0.4110   -0.8678 C   0  0  0  0  0  0  0  0  0  0  0  0
    0.9446    0.5030    0.1858 C   0  0  0  0  0  0  0  0  0  0  0  0
    1.8210    0.3191    1.2579 C   0  0  0  0  0  0  0  0  0  0  0  0
    2.6720   -0.7815    1.2845 C   0  0  0  0  0  0  0  0  0  0  0  0
    3.5047   -0.8725    2.3654 O   0  0  0  0  0  0  0  0  0  0  0  0
    2.6503   -1.7256    0.2517 C   0  0  0  0  0  0  0  0  0  0  0  0
    3.6350   -3.2169    0.2572 S   0  0  0  0  0  0  0  0  0  0  0  0
    5.2484   -2.5801    0.1198 C   0  0  0  0  0  0  0  0  0  0  0  0
    6.0360   -2.7484   -0.9829 N   0  0  0  0  0  0  0  0  0  0  0  0
    7.1414   -2.1227   -0.6542 C   0  0  0  0  0  0  0  0  0  0  0  0
    7.0188   -1.6109    0.5988 N   0  0  0  0  0  0  0  0  0  0  0  0
    5.8133   -1.8963    1.1241 N   0  0  0  0  0  0  0  0  0  0  0  0
    1.7593   -1.5314   -0.8156 C   0  0  0  0  0  0  0  0  0  0  0  0
   -2.5991   -0.3151   -0.5659 C   0  0  0  0  0  0  0  0  0  0  0  0
   -4.8437   -2.8428    2.1979 H   0  0  0  0  0  0  0  0  0  0  0  0
   -5.7937   -1.5063    1.5360 H   0  0  0  0  0  0  0  0  0  0  0  0
   -4.5351   -1.2083    2.7978 H   0  0  0  0  0  0  0  0  0  0  0  0
   -5.0480    0.7480    1.5395 H   0  0  0  0  0  0  0  0  0  0  0  0
   -4.5058    2.8644    0.5220 H   0  0  0  0  0  0  0  0  0  0  0  0
   -2.8611    4.5946    0.1598 H   0  0  0  0  0  0  0  0  0  0  0  0
   -4.2032    4.5324   -1.0482 H   0  0  0  0  0  0  0  0  0  0  0  0
   -2.6574    5.2866   -1.4544 H   0  0  0  0  0  0  0  0  0  0  0  0
    0.1111   -0.9930   -2.7429 H   0  0  0  0  0  0  0  0  0  0  0  0
    0.3057    1.3799    0.2042 H   0  0  0  0  0  0  0  0  0  0  0  0
    1.8438    1.0403    2.0708 H   0  0  0  0  0  0  0  0  0  0  0  0
    4.2660   -1.4376    2.1105 H   0  0  0  0  0  0  0  0  0  0  0  0
    8.0299   -2.0123   -1.2596 H   0  0  0  0  0  0  0  0  0  0  0  0
    7.6884   -1.0747    1.1407 H   0  0  0  0  0  0  0  0  0  0  0  0
    1.7221   -2.2677   -1.6156 H   0  0  0  0  0  0  0  0  0  0  0  0
   -2.0929   -1.2284   -0.8679 H   0  0  0  0  0  0  0  0  0  0  0  0
  1  2  1  0
  2  3  1  0
  3  4  2  0
  4  5  1  0
  5  6  2  0
  6  7  1  0
  7  8  1  0
  6  9  1  0
  9 10  1  0
 10 11  2  0
 10 12  2  0
 10 13  1  0
 13 14  1  0
 14 15  2  0
 15 16  1  0
 16 17  2  0
 17 18  1  0
 17 19  1  0
 19 20  1  0
 20 21  1  0
 21 22  1  0
 22 23  2  0
 23 24  1  0
 24 25  1  0
 19 26  2  0
  9 27  2  0
 27  3  1  0
 26 14  1  0
 25 21  2  0
  1 28  1  0
  1 29  1  0
  1 30  1  0
  4 31  1  0
  5 32  1  0
  8 33  1  0
  8 34  1  0
  8 35  1  0
 13 36  1  0
 15 37  1  0
 16 38  1  0
 18 39  1  0
 23 40  1  0
 24 41  1  0
 26 42  1  0
 27 43  1  0
M  END
$$$$
