
     RDKit          3D

 43 45  0  0  0  0  0  0  0  0999 V2000
   -5.2508    1.3697   -3.1443 C   0  0  0  0  0  0  0  0  0  0  0  0
   -4.2248    0.4021   -2.9423 O   0  0  0  0  0  0  0  0  0  0  0  0
   -3.7184    0.2882   -1.6764 C   0  0  0  0  0  0  0  0  0  0  0  0
   -3.9556    1.1671   -0.6169 C   0  0  0  0  0  0  0  0  0  0  0  0
   -3.3753    0.9303    0.6402 C   0  0  0  0  0  0  0  0  0  0  0  0
   -2.5564   -0.1907    0.8589 C   0  0  0  0  0  0  0  0  0  0  0  0
   -1.9513   -0.4642    2.0558 O   0  0  0  0  0  0  0  0  0  0  0  0
   -2.5661    0.0861    3.2201 C   0  0  0  0  0  0  0  0  0  0  0  0
   -2.3098   -1.0555   -0.2170 C   0  0  0  0  0  0  0  0  0  0  0  0
   -1.3169   -2.5158   -0.0101 S   0  0  0  0  0  6  0  0  0  0  0  0
   -1.9778   -3.3433    0.9792 O   0  0  0  0  0  0  0  0  0  0  0  0
   -1.0137   -3.0491   -1.3246 O   0  0  0  0  0  0  0  0  0  0  0  0
    0.1155   -1.9717    0.6953 N   0  0  0  0  0  0  0  0  0  0  0  0
    0.9191   -0.9242    0.1454 C   0  0  0  0  0  0  0  0  0  0  0  0
    1.0074   -0.6433   -1.2187 C   0  0  0  0  0  0  0  0  0  0  0  0
    1.8861    0.3408   -1.6823 C   0  0  0  0  0  0  0  0  0  0  0  0
    2.7207    1.0085   -0.7853 C   0  0  0  0  0  0  0  0  0  0  0  0
    3.5843    1.9249   -1.3180 O   0  0  0  0  0  0  0  0  0  0  0  0
    2.6907    0.7050    0.5816 C   0  0  0  0  0  0  0  0  0  0  0  0
    3.8227    1.4687    1.7453 S   0  0  0  0  0  0  0  0  0  0  0  0
    5.2843    0.6162    1.3013 C   0  0  0  0  0  0  0  0  0  0  0  0
    5.4320   -0.7361    1.4409 N   0  0  0  0  0  0  0  0  0  0  0  0
    6.5913   -0.9620    0.8723 C   0  0  0  0  0  0  0  0  0  0  0  0
    7.1100    0.2073    0.4180 N   0  0  0  0  0  0  0  0  0  0  0  0
    6.2783    1.2355    0.6612 N   0  0  0  0  0  0  0  0  0  0  0  0
    1.7817   -0.2648    1.0335 C   0  0  0  0  0  0  0  0  0  0  0  0
   -2.8847   -0.8183   -1.4756 C   0  0  0  0  0  0  0  0  0  0  0  0
   -5.6134    1.2617   -4.1716 H   0  0  0  0  0  0  0  0  0  0  0  0
   -4.8606    2.3884   -3.0329 H   0  0  0  0  0  0  0  0  0  0  0  0
   -6.0989    1.1966   -2.4729 H   0  0  0  0  0  0  0  0  0  0  0  0
   -4.5817    2.0538   -0.7359 H   0  0  0  0  0  0  0  0  0  0  0  0
   -3.5747    1.6567    1.4283 H   0  0  0  0  0  0  0  0  0  0  0  0
   -2.1004   -0.3761    4.0936 H   0  0  0  0  0  0  0  0  0  0  0  0
   -2.3884    1.1627    3.2841 H   0  0  0  0  0  0  0  0  0  0  0  0
   -3.6381   -0.1396    3.2539 H   0  0  0  0  0  0  0  0  0  0  0  0
    0.0041   -1.9699    1.7052 H   0  0  0  0  0  0  0  0  0  0  0  0
    0.4305   -1.1949   -1.9611 H   0  0  0  0  0  0  0  0  0  0  0  0
    1.9480    0.5533   -2.7530 H   0  0  0  0  0  0  0  0  0  0  0  0
    4.2181    2.1850   -0.6150 H   0  0  0  0  0  0  0  0  0  0  0  0
    7.0787   -1.9195    0.7617 H   0  0  0  0  0  0  0  0  0  0  0  0
    7.9828    0.3722   -0.0654 H   0  0  0  0  0  0  0  0  0  0  0  0
    1.7777   -0.5358    2.0829 H   0  0  0  0  0  0  0  0  0  0  0  0
   -2.7063   -1.5060   -2.3051 H   0  0  0  0  0  0  0  0  0  0  0  0
  1  2  1  0
  2  3  1  0
  3  4  2  0
  4  5  1  0
  5  6  2  0
  6  7  1  0
  7  8  1  0
  6  9  1  0
  9 10  1  0
 10 11  2  0
 10 12  2  0
 10 13  1  0
 13 14  1  0
 14 15  2  0
 15 16  1  0
 16 17  2  0
 17 18  1  0
 17 19  1  0
 19 20  1  0
 20 21  1  0
 21 22  1  0
 22 23  2  0
 23 24  1  0
 24 25  1  0
 19 26  2  0
  9 27  2  0
 27  3  1  0
 26 14  1  0
 25 21  2  0
  1 28  1  0
  1 29  1  0
  1 30  1  0
  4 31  1  0
  5 32  1  0
  8 33  1  0
  8 34  1  0
  8 35  1  0
 13 36  1  0
 15 37  1  0
 16 38  1  0
 18 39  1  0
 23 40  1  0
 24 41  1  0
 26 42  1  0
 27 43  1  0
M  END
$$$$
