
     RDKit          3D

 44 44  0  0  0  0  0  0  0  0999 V2000
   -5.5538   -0.3565   -0.2756 C   0  0  0  0  0  0  0  0  0  0  0  0
   -4.8680    0.9181    0.1953 C   0  0  0  0  0  0  0  0  0  0  0  0
   -3.4451    0.9157   -0.1693 N   0  0  0  0  0  0  0  0  0  0  0  0
   -3.1145    1.5494   -1.4527 C   0  0  0  0  0  0  0  0  0  0  0  0
   -2.7871    3.0242   -1.2677 C   0  0  0  0  0  0  0  0  0  0  0  0
   -2.4692    0.3689    0.6589 C   0  0  0  0  0  0  0  0  0  0  0  0
   -2.7882   -0.3406    1.8288 C   0  0  0  0  0  0  0  0  0  0  0  0
   -1.8084   -0.8907    2.6657 C   0  0  0  0  0  0  0  0  0  0  0  0
   -0.4601   -0.7515    2.3570 C   0  0  0  0  0  0  0  0  0  0  0  0
   -0.0961   -0.0630    1.2076 C   0  0  0  0  0  0  0  0  0  0  0  0
    1.1834    0.1534    0.7720 O   0  0  0  0  0  0  0  0  0  0  0  0
    2.2301   -0.4611    1.5121 C   0  0  0  0  0  0  0  0  0  0  0  0
    3.5810   -0.1905    0.8462 C   0  0  0  0  0  0  0  0  0  0  0  0
    4.4890    0.3571    1.4795 O   0  0  0  0  0  0  0  0  0  0  0  0
    3.7758   -0.6141   -0.4667 N   0  0  0  0  0  0  0  0  0  0  0  0
    2.7600   -1.2812   -1.2721 C   0  0  0  0  0  0  0  0  0  0  0  0
    5.0151   -0.2186   -1.1419 C   0  0  0  0  0  0  0  0  0  0  0  0
    6.2241   -1.0709   -0.7516 C   0  0  0  0  0  0  0  0  0  0  0  0
    6.1315   -2.4192   -1.3228 C   0  0  0  0  0  0  0  0  0  0  0  0
    6.0565   -3.4793   -1.7894 N   0  0  0  0  0  0  0  0  0  0  0  0
   -1.0936    0.4852    0.3837 C   0  0  0  0  0  0  0  0  0  0  0  0
   -6.6171   -0.3307   -0.0174 H   0  0  0  0  0  0  0  0  0  0  0  0
   -5.4714   -0.4690   -1.3618 H   0  0  0  0  0  0  0  0  0  0  0  0
   -5.1148   -1.2473    0.1836 H   0  0  0  0  0  0  0  0  0  0  0  0
   -5.3686    1.7736   -0.2761 H   0  0  0  0  0  0  0  0  0  0  0  0
   -5.0142    1.0683    1.2708 H   0  0  0  0  0  0  0  0  0  0  0  0
   -3.9712    1.4689   -2.1342 H   0  0  0  0  0  0  0  0  0  0  0  0
   -2.3002    1.0276   -1.9676 H   0  0  0  0  0  0  0  0  0  0  0  0
   -2.5640    3.4856   -2.2348 H   0  0  0  0  0  0  0  0  0  0  0  0
   -1.9211    3.1696   -0.6151 H   0  0  0  0  0  0  0  0  0  0  0  0
   -3.6311    3.5615   -0.8225 H   0  0  0  0  0  0  0  0  0  0  0  0
   -3.8206   -0.4970    2.1251 H   0  0  0  0  0  0  0  0  0  0  0  0
   -2.1083   -1.4291    3.5613 H   0  0  0  0  0  0  0  0  0  0  0  0
    0.2687   -1.1843    3.0325 H   0  0  0  0  0  0  0  0  0  0  0  0
    2.0989   -1.5473    1.5840 H   0  0  0  0  0  0  0  0  0  0  0  0
    2.2714   -0.0301    2.5201 H   0  0  0  0  0  0  0  0  0  0  0  0
    2.2360   -0.5244   -1.8624 H   0  0  0  0  0  0  0  0  0  0  0  0
    2.0422   -1.8229   -0.6544 H   0  0  0  0  0  0  0  0  0  0  0  0
    3.2391   -1.9989   -1.9435 H   0  0  0  0  0  0  0  0  0  0  0  0
    4.8518   -0.2346   -2.2266 H   0  0  0  0  0  0  0  0  0  0  0  0
    5.2228    0.8243   -0.8709 H   0  0  0  0  0  0  0  0  0  0  0  0
    7.1324   -0.5887   -1.1312 H   0  0  0  0  0  0  0  0  0  0  0  0
    6.3269   -1.1364    0.3365 H   0  0  0  0  0  0  0  0  0  0  0  0
   -0.7497    1.0265   -0.4921 H   0  0  0  0  0  0  0  0  0  0  0  0
  1  2  1  0
  2  3  1  0
  3  4  1  0
  4  5  1  0
  3  6  1  0
  6  7  2  0
  7  8  1  0
  8  9  2  0
  9 10  1  0
 10 11  1  0
 11 12  1  0
 12 13  1  0
 13 14  2  0
 13 15  1  0
 15 16  1  0
 15 17  1  0
 17 18  1  0
 18 19  1  0
 19 20  3  0
 10 21  2  0
 21  6  1  0
  1 22  1  0
  1 23  1  0
  1 24  1  0
  2 25  1  0
  2 26  1  0
  4 27  1  0
  4 28  1  0
  5 29  1  0
  5 30  1  0
  5 31  1  0
  7 32  1  0
  8 33  1  0
  9 34  1  0
 12 35  1  0
 12 36  1  0
 16 37  1  0
 16 38  1  0
 16 39  1  0
 17 40  1  0
 17 41  1  0
 18 42  1  0
 18 43  1  0
 21 44  1  0
M  END
$$$$
