
     RDKit          3D

 50 54  0  0  0  0  0  0  0  0999 V2000
   -4.3892    0.1717   -2.2661 C   0  0  0  0  0  0  0  0  0  0  0  0
   -4.0886   -0.9900   -1.3693 C   0  0  0  0  0  0  0  0  0  0  0  0
   -4.9272   -2.0238   -1.1929 C   0  0  0  0  0  0  0  0  0  0  0  0
   -4.5953   -3.1084   -0.3096 C   0  0  0  0  0  0  0  0  0  0  0  0
   -3.4347   -3.0938    0.3538 C   0  0  0  0  0  0  0  0  0  0  0  0
   -2.5250   -2.0519    0.2161 N   0  0  0  0  0  0  0  0  0  0  0  0
   -1.3335   -2.1002    0.9179 C   0  0  0  0  0  0  0  0  0  0  0  0
   -0.9954   -3.0332    1.6509 O   0  0  0  0  0  0  0  0  0  0  0  0
   -0.4188   -0.9379    0.7409 C   0  0  0  0  0  0  0  0  0  0  0  0
    0.8380   -0.8972    1.4717 C   0  0  0  0  0  0  0  0  0  0  0  0
    1.7012    0.1255    1.3550 C   0  0  0  0  0  0  0  0  0  0  0  0
    3.2176    0.0509    2.1709 S   0  0  0  0  0  6  0  0  0  0  0  0
    3.8618    1.3532    2.1688 O   0  0  0  0  0  0  0  0  0  0  0  0
    3.0836   -0.6892    3.4143 O   0  0  0  0  0  0  0  0  0  0  0  0
    4.1737   -0.9737    1.0593 C   0  0  0  0  0  0  0  0  0  0  0  0
    4.7334   -0.4000   -0.0902 C   0  0  0  0  0  0  0  0  0  0  0  0
    5.4815   -1.1972   -0.9574 C   0  0  0  0  0  0  0  0  0  0  0  0
    5.6676   -2.5450   -0.6652 C   0  0  0  0  0  0  0  0  0  0  0  0
    6.3830   -3.3056   -1.5031 F   0  0  0  0  0  0  0  0  0  0  0  0
    5.1241   -3.1150    0.4839 C   0  0  0  0  0  0  0  0  0  0  0  0
    4.3756   -2.3268    1.3590 C   0  0  0  0  0  0  0  0  0  0  0  0
    1.3187    1.2416    0.4343 C   0  0  0  0  0  0  0  0  0  0  0  0
    2.0686    2.2944    0.2887 N   0  0  0  0  0  0  0  0  0  0  0  0
    0.1203    1.1378   -0.2890 N   0  0  0  0  0  0  0  0  0  0  0  0
   -0.2791    2.2677   -1.1576 C   0  0  0  0  0  0  0  0  0  0  0  0
   -1.0840    3.3406   -0.4947 C   0  0  0  0  0  0  0  0  0  0  0  0
   -2.1703    3.3302    0.3601 C   0  0  0  0  0  0  0  0  0  0  0  0
   -2.4820    4.6835    0.6301 C   0  0  0  0  0  0  0  0  0  0  0  0
   -1.5734    5.4355   -0.0796 C   0  0  0  0  0  0  0  0  0  0  0  0
   -0.7312    4.6312   -0.7762 O   0  0  0  0  0  0  0  0  0  0  0  0
   -0.7682    0.0484   -0.1143 C   0  0  0  0  0  0  0  0  0  0  0  0
   -1.9606    0.0080   -0.7969 N   0  0  0  0  0  0  0  0  0  0  0  0
   -2.7799   -0.9813   -0.6255 C   0  0  0  0  0  0  0  0  0  0  0  0
   -3.6599    0.2271   -3.0817 H   0  0  0  0  0  0  0  0  0  0  0  0
   -4.3604    1.1126   -1.7048 H   0  0  0  0  0  0  0  0  0  0  0  0
   -5.3842    0.0891   -2.7166 H   0  0  0  0  0  0  0  0  0  0  0  0
   -5.8828   -2.0698   -1.7074 H   0  0  0  0  0  0  0  0  0  0  0  0
   -5.2995   -3.9264   -0.1945 H   0  0  0  0  0  0  0  0  0  0  0  0
   -3.1656   -3.9034    1.0283 H   0  0  0  0  0  0  0  0  0  0  0  0
    1.0571   -1.7459    2.1172 H   0  0  0  0  0  0  0  0  0  0  0  0
    4.5976    0.6560   -0.3166 H   0  0  0  0  0  0  0  0  0  0  0  0
    5.9235   -0.7765   -1.8562 H   0  0  0  0  0  0  0  0  0  0  0  0
    5.2922   -4.1681    0.6907 H   0  0  0  0  0  0  0  0  0  0  0  0
    3.9613   -2.7726    2.2617 H   0  0  0  0  0  0  0  0  0  0  0  0
    2.8926    2.3012    0.9124 H   0  0  0  0  0  0  0  0  0  0  0  0
   -0.8570    1.8949   -2.0142 H   0  0  0  0  0  0  0  0  0  0  0  0
    0.6088    2.7156   -1.6227 H   0  0  0  0  0  0  0  0  0  0  0  0
   -2.6683    2.4502    0.7407 H   0  0  0  0  0  0  0  0  0  0  0  0
   -3.2666    5.0676    1.2669 H   0  0  0  0  0  0  0  0  0  0  0  0
   -1.4015    6.4983   -0.1908 H   0  0  0  0  0  0  0  0  0  0  0  0
  1  2  1  0
  2  3  2  0
  3  4  1  0
  4  5  2  0
  5  6  1  0
  6  7  1  0
  7  8  2  0
  7  9  1  0
  9 10  1  0
 10 11  2  0
 11 12  1  0
 12 13  2  0
 12 14  2  0
 12 15  1  0
 15 16  2  0
 16 17  1  0
 17 18  2  0
 18 19  1  0
 18 20  1  0
 20 21  2  0
 11 22  1  0
 22 23  2  3
 22 24  1  0
 24 25  1  0
 25 26  1  0
 26 27  2  0
 27 28  1  0
 28 29  2  0
 29 30  1  0
 24 31  1  0
 31 32  1  0
 32 33  2  0
 33  2  1  0
 33  6  1  0
 31  9  2  0
 21 15  1  0
 30 26  1  0
  1 34  1  0
  1 35  1  0
  1 36  1  0
  3 37  1  0
  4 38  1  0
  5 39  1  0
 10 40  1  0
 16 41  1  0
 17 42  1  0
 20 43  1  0
 21 44  1  0
 23 45  1  0
 25 46  1  0
 25 47  1  0
 27 48  1  0
 28 49  1  0
 29 50  1  0
M  END
$$$$
