
     RDKit          3D

 61 65  0  0  0  0  0  0  0  0999 V2000
    2.7716   -4.7225    3.0499 C   0  0  0  0  0  0  0  0  0  0  0  0
    3.2179   -3.5012    2.3019 C   0  0  0  0  0  0  0  0  0  0  0  0
    4.4630   -3.4640    1.6787 C   0  0  0  0  0  0  0  0  0  0  0  0
    4.8580   -2.3274    0.9667 C   0  0  0  0  0  0  0  0  0  0  0  0
    4.0392   -1.2138    0.8436 C   0  0  0  0  0  0  0  0  0  0  0  0
    4.4894   -0.1574    0.1431 N   0  0  0  0  0  0  0  0  0  0  0  0
    3.7173    0.9503    0.0066 C   0  0  0  0  0  0  0  0  0  0  0  0
    4.3168    2.0575   -0.7665 C   0  0  0  0  0  0  0  0  0  0  0  0
    3.5418    2.9239   -1.5605 C   0  0  0  0  0  0  0  0  0  0  0  0
    4.1288    3.9680   -2.2837 C   0  0  0  0  0  0  0  0  0  0  0  0
    5.5059    4.1671   -2.2311 C   0  0  0  0  0  0  0  0  0  0  0  0
    6.2963    3.3220   -1.4590 C   0  0  0  0  0  0  0  0  0  0  0  0
    5.7067    2.2790   -0.7386 C   0  0  0  0  0  0  0  0  0  0  0  0
    2.4544    1.0195    0.5677 C   0  0  0  0  0  0  0  0  0  0  0  0
    1.9850   -0.0886    1.2733 C   0  0  0  0  0  0  0  0  0  0  0  0
    0.6334    0.0007    1.8569 C   0  0  0  0  0  0  0  0  0  0  0  0
    0.5373    0.1916    3.0651 O   0  0  0  0  0  0  0  0  0  0  0  0
   -0.4573   -0.1217    1.0043 N   0  0  0  0  0  0  0  0  0  0  0  0
   -1.8040    0.0128    1.5624 C   0  0  0  0  0  0  0  0  0  0  0  0
   -2.7834    0.6144    0.5507 C   0  0  0  0  0  0  0  0  0  0  0  0
   -2.8529   -0.1687   -0.7303 N   0  0  0  0  0  0  0  0  0  0  0  0
   -4.3380   -0.9502   -1.0216 S   0  0  0  0  0  6  0  0  0  0  0  0
   -4.6758   -1.7015    0.1678 O   0  0  0  0  0  0  0  0  0  0  0  0
   -4.2729   -1.5696   -2.3260 O   0  0  0  0  0  0  0  0  0  0  0  0
   -5.5476    0.2364   -1.1831 C   0  0  0  0  0  0  0  0  0  0  0  0
   -5.5193    1.3452   -2.0542 C   0  0  0  0  0  0  0  0  0  0  0  0
   -4.4804    1.7389   -3.0339 C   0  0  0  0  0  0  0  0  0  0  0  0
   -6.6174    2.0986   -1.8993 N   0  0  0  0  0  0  0  0  0  0  0  0
   -7.3830    1.4617   -0.9384 O   0  0  0  0  0  0  0  0  0  0  0  0
   -6.7404    0.3382   -0.5124 C   0  0  0  0  0  0  0  0  0  0  0  0
   -7.4301   -0.4605    0.5173 C   0  0  0  0  0  0  0  0  0  0  0  0
   -1.6726   -1.0630   -0.9610 C   0  0  0  0  0  0  0  0  0  0  0  0
   -0.3759   -0.4416   -0.4266 C   0  0  0  0  0  0  0  0  0  0  0  0
    2.7737   -1.2417    1.4491 C   0  0  0  0  0  0  0  0  0  0  0  0
    2.3729   -2.3944    2.1728 C   0  0  0  0  0  0  0  0  0  0  0  0
    3.6253   -5.2357    3.5041 H   0  0  0  0  0  0  0  0  0  0  0  0
    2.2636   -5.4130    2.3698 H   0  0  0  0  0  0  0  0  0  0  0  0
    2.0854   -4.4560    3.8606 H   0  0  0  0  0  0  0  0  0  0  0  0
    5.1414   -4.3118    1.7449 H   0  0  0  0  0  0  0  0  0  0  0  0
    5.8375   -2.3119    0.4932 H   0  0  0  0  0  0  0  0  0  0  0  0
    2.4666    2.7876   -1.6445 H   0  0  0  0  0  0  0  0  0  0  0  0
    3.5096    4.6215   -2.8935 H   0  0  0  0  0  0  0  0  0  0  0  0
    5.9634    4.9766   -2.7938 H   0  0  0  0  0  0  0  0  0  0  0  0
    7.3728    3.4688   -1.4153 H   0  0  0  0  0  0  0  0  0  0  0  0
    6.3455    1.6296   -0.1412 H   0  0  0  0  0  0  0  0  0  0  0  0
    1.8469    1.9143    0.4883 H   0  0  0  0  0  0  0  0  0  0  0  0
   -1.7780    0.6331    2.4648 H   0  0  0  0  0  0  0  0  0  0  0  0
   -2.1292   -0.9912    1.8611 H   0  0  0  0  0  0  0  0  0  0  0  0
   -2.4652    1.6303    0.2842 H   0  0  0  0  0  0  0  0  0  0  0  0
   -3.7705    0.7090    1.0154 H   0  0  0  0  0  0  0  0  0  0  0  0
   -3.5687    2.0560   -2.5177 H   0  0  0  0  0  0  0  0  0  0  0  0
   -4.2323    0.9026   -3.6944 H   0  0  0  0  0  0  0  0  0  0  0  0
   -4.8170    2.5719   -3.6621 H   0  0  0  0  0  0  0  0  0  0  0  0
   -6.8711   -0.4363    1.4588 H   0  0  0  0  0  0  0  0  0  0  0  0
   -8.4364   -0.0737    0.7133 H   0  0  0  0  0  0  0  0  0  0  0  0
   -7.5280   -1.5026    0.1955 H   0  0  0  0  0  0  0  0  0  0  0  0
   -1.8399   -2.0287   -0.4686 H   0  0  0  0  0  0  0  0  0  0  0  0
   -1.5670   -1.2343   -2.0376 H   0  0  0  0  0  0  0  0  0  0  0  0
    0.4614   -1.1217   -0.6090 H   0  0  0  0  0  0  0  0  0  0  0  0
   -0.1700    0.4995   -0.9496 H   0  0  0  0  0  0  0  0  0  0  0  0
    1.3956   -2.4216    2.6540 H   0  0  0  0  0  0  0  0  0  0  0  0
  1  2  1  0
  2  3  2  0
  3  4  1  0
  4  5  2  0
  5  6  1  0
  6  7  2  0
  7  8  1  0
  8  9  2  0
  9 10  1  0
 10 11  2  0
 11 12  1  0
 12 13  2  0
  7 14  1  0
 14 15  2  0
 15 16  1  0
 16 17  2  0
 16 18  1  0
 18 19  1  0
 19 20  1  0
 20 21  1  0
 21 22  1  0
 22 23  2  0
 22 24  2  0
 22 25  1  0
 25 26  1  0
 26 27  1  0
 26 28  2  0
 28 29  1  0
 29 30  1  0
 30 31  1  0
 21 32  1  0
 32 33  1  0
 15 34  1  0
 34 35  2  0
 35  2  1  0
 34  5  1  0
 13  8  1  0
 33 18  1  0
 30 25  2  0
  1 36  1  0
  1 37  1  0
  1 38  1  0
  3 39  1  0
  4 40  1  0
  9 41  1  0
 10 42  1  0
 11 43  1  0
 12 44  1  0
 13 45  1  0
 14 46  1  0
 19 47  1  0
 19 48  1  0
 20 49  1  0
 20 50  1  0
 27 51  1  0
 27 52  1  0
 27 53  1  0
 31 54  1  0
 31 55  1  0
 31 56  1  0
 32 57  1  0
 32 58  1  0
 33 59  1  0
 33 60  1  0
 35 61  1  0
M  END
$$$$
