
     RDKit          3D

 40 41  0  0  0  0  0  0  0  0999 V2000
   -2.8738   -4.2080   -1.1345 C   0  0  0  0  0  0  0  0  0  0  0  0
   -1.4952   -3.5702   -1.0897 C   0  0  0  0  0  0  0  0  0  0  0  0
   -1.5904   -2.1471   -1.0271 O   0  0  0  0  0  0  0  0  0  0  0  0
   -1.7495   -1.5015   -2.2343 C   0  0  0  0  0  0  0  0  0  0  0  0
   -1.6744   -2.2302   -3.3770 N   0  0  0  0  0  0  0  0  0  0  0  0
   -1.7869   -1.5646   -4.5472 C   0  0  0  0  0  0  0  0  0  0  0  0
   -1.9676   -0.1953   -4.6399 C   0  0  0  0  0  0  0  0  0  0  0  0
   -2.0412    0.5382   -3.4599 C   0  0  0  0  0  0  0  0  0  0  0  0
   -1.9304   -0.1226   -2.2301 C   0  0  0  0  0  0  0  0  0  0  0  0
   -2.0313    0.6252   -0.9638 C   0  0  0  0  0  0  0  0  0  0  0  0
   -2.6567    0.2611    0.0163 O   0  0  0  0  0  0  0  0  0  0  0  0
   -1.3166    1.7725   -1.0857 O   0  0  0  0  0  0  0  0  0  0  0  0
   -1.2498    2.5844    0.0926 C   0  0  0  0  0  0  0  0  0  0  0  0
    0.0446    2.3081    0.8142 C   0  0  0  0  0  0  0  0  0  0  0  0
    0.1031    1.3218    1.8086 C   0  0  0  0  0  0  0  0  0  0  0  0
    1.3058    1.0422    2.4644 C   0  0  0  0  0  0  0  0  0  0  0  0
    2.4705    1.7431    2.1279 C   0  0  0  0  0  0  0  0  0  0  0  0
    3.7783    1.4873    2.7911 C   0  0  0  0  0  0  0  0  0  0  0  0
    4.8053    2.0855    2.5099 O   0  0  0  0  0  0  0  0  0  0  0  0
    3.6590    0.5164    3.7311 O   0  0  0  0  0  0  0  0  0  0  0  0
    4.8780    0.2149    4.4112 C   0  0  0  0  0  0  0  0  0  0  0  0
    2.4173    2.7212    1.1261 C   0  0  0  0  0  0  0  0  0  0  0  0
    1.2144    2.9982    0.4709 C   0  0  0  0  0  0  0  0  0  0  0  0
   -2.7963   -5.2981   -1.0895 H   0  0  0  0  0  0  0  0  0  0  0  0
   -3.4101   -3.9363   -2.0488 H   0  0  0  0  0  0  0  0  0  0  0  0
   -3.4836   -3.8628   -0.2931 H   0  0  0  0  0  0  0  0  0  0  0  0
   -1.0000   -3.8855   -0.1642 H   0  0  0  0  0  0  0  0  0  0  0  0
   -0.8511   -3.9164   -1.9067 H   0  0  0  0  0  0  0  0  0  0  0  0
   -1.7238   -2.1829   -5.4387 H   0  0  0  0  0  0  0  0  0  0  0  0
   -2.0513    0.2882   -5.6072 H   0  0  0  0  0  0  0  0  0  0  0  0
   -2.1903    1.6138   -3.5007 H   0  0  0  0  0  0  0  0  0  0  0  0
   -2.1140    2.4487    0.7545 H   0  0  0  0  0  0  0  0  0  0  0  0
   -1.2802    3.6319   -0.2291 H   0  0  0  0  0  0  0  0  0  0  0  0
   -0.7908    0.7569    2.0724 H   0  0  0  0  0  0  0  0  0  0  0  0
    1.3168    0.2709    3.2305 H   0  0  0  0  0  0  0  0  0  0  0  0
    4.6729   -0.5743    5.1398 H   0  0  0  0  0  0  0  0  0  0  0  0
    5.2453    1.0951    4.9482 H   0  0  0  0  0  0  0  0  0  0  0  0
    5.6302   -0.1520    3.7059 H   0  0  0  0  0  0  0  0  0  0  0  0
    3.3158    3.2692    0.8476 H   0  0  0  0  0  0  0  0  0  0  0  0
    1.1983    3.7531   -0.3126 H   0  0  0  0  0  0  0  0  0  0  0  0
  1  2  1  0
  2  3  1  0
  3  4  1  0
  4  5  2  0
  5  6  1  0
  6  7  2  0
  7  8  1  0
  8  9  2  0
  9 10  1  0
 10 11  2  0
 10 12  1  0
 12 13  1  0
 13 14  1  0
 14 15  2  0
 15 16  1  0
 16 17  2  0
 17 18  1  0
 18 19  2  0
 18 20  1  0
 20 21  1  0
 17 22  1  0
 22 23  2  0
  9  4  1  0
 23 14  1  0
  1 24  1  0
  1 25  1  0
  1 26  1  0
  2 27  1  0
  2 28  1  0
  6 29  1  0
  7 30  1  0
  8 31  1  0
 13 32  1  0
 13 33  1  0
 15 34  1  0
 16 35  1  0
 21 36  1  0
 21 37  1  0
 21 38  1  0
 22 39  1  0
 23 40  1  0
M  END
$$$$
