
     RDKit          3D

 35 37  0  0  0  0  0  0  0  0999 V2000
   -0.7803   -1.3754    0.0252 O   0  0  0  0  0  0  0  0  0  0  0  0
   -0.5028   -0.8717   -1.0540 C   0  0  0  0  0  0  0  0  0  0  0  0
   -1.4810   -0.1752   -1.9489 C   0  0  0  0  0  0  0  0  0  0  0  0
   -2.7752    0.0852   -1.7122 C   0  0  0  0  0  0  0  0  0  0  0  0
   -3.5197   -0.2681   -0.5021 C   0  0  0  0  0  0  0  0  0  0  0  0
   -3.9017   -1.5930   -0.2531 C   0  0  0  0  0  0  0  0  0  0  0  0
   -4.6281   -1.9086    0.8968 C   0  0  0  0  0  0  0  0  0  0  0  0
   -4.9738   -0.8997    1.7879 C   0  0  0  0  0  0  0  0  0  0  0  0
   -5.6731   -1.2029    2.8894 F   0  0  0  0  0  0  0  0  0  0  0  0
   -4.6081    0.4204    1.5517 C   0  0  0  0  0  0  0  0  0  0  0  0
   -3.8808    0.7386    0.4032 C   0  0  0  0  0  0  0  0  0  0  0  0
   -0.7066    0.3085   -3.4272 S   0  0  0  0  0  0  0  0  0  0  0  0
    0.8556   -0.3341   -2.9452 C   0  0  0  0  0  0  0  0  0  0  0  0
    2.2125   -0.3019   -3.9172 S   0  0  0  0  0  0  0  0  0  0  0  0
    0.7374   -0.8723   -1.6822 N   0  0  0  0  0  0  0  0  0  0  0  0
    1.8477   -1.4282   -1.0009 N   0  0  0  0  0  0  0  0  0  0  0  0
    2.5342   -0.4706   -0.1991 C   0  0  0  0  0  0  0  0  0  0  0  0
    2.0012    0.7686   -0.0330 N   0  0  0  0  0  0  0  0  0  0  0  0
    2.6482    1.6433    0.7735 C   0  0  0  0  0  0  0  0  0  0  0  0
    3.8262    1.3557    1.4446 C   0  0  0  0  0  0  0  0  0  0  0  0
    4.4822    2.3975    2.2964 C   0  0  0  0  0  0  0  0  0  0  0  0
    5.2538    1.8691    3.2851 F   0  0  0  0  0  0  0  0  0  0  0  0
    5.3008    3.2095    1.5747 F   0  0  0  0  0  0  0  0  0  0  0  0
    3.5905    3.2179    2.9158 F   0  0  0  0  0  0  0  0  0  0  0  0
    4.3792    0.0860    1.2586 C   0  0  0  0  0  0  0  0  0  0  0  0
    3.7293   -0.8364    0.4384 C   0  0  0  0  0  0  0  0  0  0  0  0
    4.4409   -2.3935    0.2170 Cl  0  0  0  0  0  0  0  0  0  0  0  0
   -3.3678    0.6227   -2.4503 H   0  0  0  0  0  0  0  0  0  0  0  0
   -3.6274   -2.3882   -0.9419 H   0  0  0  0  0  0  0  0  0  0  0  0
   -4.9194   -2.9330    1.1045 H   0  0  0  0  0  0  0  0  0  0  0  0
   -4.8879    1.1904    2.2630 H   0  0  0  0  0  0  0  0  0  0  0  0
   -3.5940    1.7724    0.2255 H   0  0  0  0  0  0  0  0  0  0  0  0
    2.5123   -1.8643   -1.6412 H   0  0  0  0  0  0  0  0  0  0  0  0
    2.1660    2.6155    0.8650 H   0  0  0  0  0  0  0  0  0  0  0  0
    5.3097   -0.1842    1.7545 H   0  0  0  0  0  0  0  0  0  0  0  0
  1  2  2  0
  2  3  1  0
  3  4  2  3
  4  5  1  0
  5  6  2  0
  6  7  1  0
  7  8  2  0
  8  9  1  0
  8 10  1  0
 10 11  2  0
  3 12  1  0
 12 13  1  0
 13 14  2  0
 13 15  1  0
 15 16  1  0
 16 17  1  0
 17 18  2  0
 18 19  1  0
 19 20  2  0
 20 21  1  0
 21 22  1  0
 21 23  1  0
 21 24  1  0
 20 25  1  0
 25 26  2  0
 26 27  1  0
 15  2  1  0
 26 17  1  0
 11  5  1  0
  4 28  1  0
  6 29  1  0
  7 30  1  0
 10 31  1  0
 11 32  1  0
 16 33  1  0
 19 34  1  0
 25 35  1  0
M  END
$$$$
