
     RDKit          3D

 39 40  0  0  0  0  0  0  0  0999 V2000
   -0.7163    2.5667    4.1678 C   0  0  0  0  0  0  0  0  0  0  0  0
   -1.2476    2.1340    2.8279 C   0  0  0  0  0  0  0  0  0  0  0  0
   -2.3415    2.5085    2.4197 O   0  0  0  0  0  0  0  0  0  0  0  0
   -0.3690    1.3518    2.1278 N   0  0  0  0  0  0  0  0  0  0  0  0
   -0.8202    0.4588    1.2943 C   0  0  0  0  0  0  0  0  0  0  0  0
   -2.2690    0.1135    1.0107 C   0  0  0  0  0  0  0  0  0  0  0  0
   -2.4929   -1.2358    0.3684 C   0  0  0  0  0  0  0  0  0  0  0  0
   -2.8353   -1.3301   -0.9878 C   0  0  0  0  0  0  0  0  0  0  0  0
   -3.0172   -2.5778   -1.5855 C   0  0  0  0  0  0  0  0  0  0  0  0
   -2.8588   -3.7410   -0.8351 C   0  0  0  0  0  0  0  0  0  0  0  0
   -2.5208   -3.6584    0.5142 C   0  0  0  0  0  0  0  0  0  0  0  0
   -2.3397   -2.4123    1.1155 C   0  0  0  0  0  0  0  0  0  0  0  0
    0.2266   -0.2951    0.4927 C   0  0  0  0  0  0  0  0  0  0  0  0
    0.9478   -1.1364    0.9961 O   0  0  0  0  0  0  0  0  0  0  0  0
    0.2000    0.1505   -0.7777 O   0  0  0  0  0  0  0  0  0  0  0  0
    1.1433   -0.4710   -1.6544 C   0  0  0  0  0  0  0  0  0  0  0  0
    2.3549    0.4122   -1.7937 C   0  0  0  0  0  0  0  0  0  0  0  0
    3.4889    0.1909   -1.0002 C   0  0  0  0  0  0  0  0  0  0  0  0
    4.6048    1.0213   -1.1138 C   0  0  0  0  0  0  0  0  0  0  0  0
    4.5951    2.0841   -2.0152 C   0  0  0  0  0  0  0  0  0  0  0  0
    3.4680    2.3212   -2.7999 C   0  0  0  0  0  0  0  0  0  0  0  0
    2.3507    1.4922   -2.6875 C   0  0  0  0  0  0  0  0  0  0  0  0
   -1.5017    3.0839    4.7259 H   0  0  0  0  0  0  0  0  0  0  0  0
    0.1285    3.2454    4.0256 H   0  0  0  0  0  0  0  0  0  0  0  0
   -0.4002    1.6912    4.7415 H   0  0  0  0  0  0  0  0  0  0  0  0
   -2.8378    0.1278    1.9478 H   0  0  0  0  0  0  0  0  0  0  0  0
   -2.6808    0.9027    0.3701 H   0  0  0  0  0  0  0  0  0  0  0  0
   -2.9618   -0.4326   -1.5901 H   0  0  0  0  0  0  0  0  0  0  0  0
   -3.2845   -2.6429   -2.6371 H   0  0  0  0  0  0  0  0  0  0  0  0
   -3.0007   -4.7127   -1.3010 H   0  0  0  0  0  0  0  0  0  0  0  0
   -2.3965   -4.5662    1.0993 H   0  0  0  0  0  0  0  0  0  0  0  0
   -2.0720   -2.3693    2.1695 H   0  0  0  0  0  0  0  0  0  0  0  0
    1.4180   -1.4838   -1.3337 H   0  0  0  0  0  0  0  0  0  0  0  0
    0.6577   -0.5883   -2.6303 H   0  0  0  0  0  0  0  0  0  0  0  0
    3.5057   -0.6277   -0.2823 H   0  0  0  0  0  0  0  0  0  0  0  0
    5.4795    0.8414   -0.4942 H   0  0  0  0  0  0  0  0  0  0  0  0
    5.4636    2.7317   -2.1008 H   0  0  0  0  0  0  0  0  0  0  0  0
    3.4573    3.1556   -3.4964 H   0  0  0  0  0  0  0  0  0  0  0  0
    1.4738    1.6960   -3.2979 H   0  0  0  0  0  0  0  0  0  0  0  0
  1  2  1  0
  2  3  2  0
  2  4  1  0
  4  5  2  3
  5  6  1  0
  6  7  1  0
  7  8  2  0
  8  9  1  0
  9 10  2  0
 10 11  1  0
 11 12  2  0
  5 13  1  0
 13 14  2  0
 13 15  1  0
 15 16  1  0
 16 17  1  0
 17 18  2  0
 18 19  1  0
 19 20  2  0
 20 21  1  0
 21 22  2  0
 12  7  1  0
 22 17  1  0
  1 23  1  0
  1 24  1  0
  1 25  1  0
  6 26  1  0
  6 27  1  0
  8 28  1  0
  9 29  1  0
 10 30  1  0
 11 31  1  0
 12 32  1  0
 16 33  1  0
 16 34  1  0
 18 35  1  0
 19 36  1  0
 20 37  1  0
 21 38  1  0
 22 39  1  0
M  END
$$$$
