
     RDKit          3D

 39 41  0  0  0  0  0  0  0  0999 V2000
   -2.4882    3.0915    2.8390 C   0  0  0  0  0  0  0  0  0  0  0  0
   -3.0564    1.7893    2.8866 O   0  0  0  0  0  0  0  0  0  0  0  0
   -2.3423    0.7867    2.2896 C   0  0  0  0  0  0  0  0  0  0  0  0
   -1.0265    0.8812    1.8310 C   0  0  0  0  0  0  0  0  0  0  0  0
   -0.4128   -0.2207    1.2291 C   0  0  0  0  0  0  0  0  0  0  0  0
   -1.1254   -1.4124    1.0703 C   0  0  0  0  0  0  0  0  0  0  0  0
   -0.3524   -2.8070    0.2811 S   0  0  0  0  0  6  0  0  0  0  0  0
   -1.0856   -3.9931    0.6739 O   0  0  0  0  0  0  0  0  0  0  0  0
    1.0758   -2.7089    0.4976 O   0  0  0  0  0  0  0  0  0  0  0  0
   -0.7050   -2.5655   -1.3590 N   0  0  0  0  0  0  0  0  0  0  0  0
   -0.3278   -1.3349   -1.9677 C   0  0  0  0  0  0  0  0  0  0  0  0
   -1.3178   -0.4275   -2.3469 C   0  0  0  0  0  0  0  0  0  0  0  0
   -0.9563    0.8169   -2.8632 C   0  0  0  0  0  0  0  0  0  0  0  0
    0.3908    1.1493   -2.9870 C   0  0  0  0  0  0  0  0  0  0  0  0
    0.6783    2.3917   -3.4843 O   0  0  0  0  0  0  0  0  0  0  0  0
    1.3945    0.2494   -2.6095 C   0  0  0  0  0  0  0  0  0  0  0  0
    3.1210    0.6953   -2.7563 S   0  0  0  0  0  0  0  0  0  0  0  0
    3.7062    0.2953   -1.1603 C   0  0  0  0  0  0  0  0  0  0  0  0
    3.0944    0.7113   -0.0071 N   0  0  0  0  0  0  0  0  0  0  0  0
    3.7868    0.1035    0.9267 C   0  0  0  0  0  0  0  0  0  0  0  0
    4.7739   -0.6332    0.3534 N   0  0  0  0  0  0  0  0  0  0  0  0
    4.7640   -0.5011   -0.9815 N   0  0  0  0  0  0  0  0  0  0  0  0
    1.0198   -1.0079   -2.1177 C   0  0  0  0  0  0  0  0  0  0  0  0
   -2.4283   -1.5272    1.5545 C   0  0  0  0  0  0  0  0  0  0  0  0
   -3.0313   -0.4237    2.1610 C   0  0  0  0  0  0  0  0  0  0  0  0
   -1.5903    3.1496    3.4612 H   0  0  0  0  0  0  0  0  0  0  0  0
   -2.2753    3.3951    1.8099 H   0  0  0  0  0  0  0  0  0  0  0  0
   -3.2248    3.7912    3.2464 H   0  0  0  0  0  0  0  0  0  0  0  0
   -0.4493    1.7957    1.9271 H   0  0  0  0  0  0  0  0  0  0  0  0
    0.6103   -0.1322    0.8718 H   0  0  0  0  0  0  0  0  0  0  0  0
   -1.6105   -2.9599   -1.6078 H   0  0  0  0  0  0  0  0  0  0  0  0
   -2.3711   -0.6655   -2.2281 H   0  0  0  0  0  0  0  0  0  0  0  0
   -1.7201    1.5323   -3.1564 H   0  0  0  0  0  0  0  0  0  0  0  0
    1.6500    2.4786   -3.4879 H   0  0  0  0  0  0  0  0  0  0  0  0
    3.6209    0.1471    1.9924 H   0  0  0  0  0  0  0  0  0  0  0  0
    5.4640   -1.2344    0.7909 H   0  0  0  0  0  0  0  0  0  0  0  0
    1.7803   -1.7334   -1.8339 H   0  0  0  0  0  0  0  0  0  0  0  0
   -2.9814   -2.4590    1.4647 H   0  0  0  0  0  0  0  0  0  0  0  0
   -4.0522   -0.5035    2.5316 H   0  0  0  0  0  0  0  0  0  0  0  0
  1  2  1  0
  2  3  1  0
  3  4  2  0
  4  5  1  0
  5  6  2  0
  6  7  1  0
  7  8  2  0
  7  9  2  0
  7 10  1  0
 10 11  1  0
 11 12  2  0
 12 13  1  0
 13 14  2  0
 14 15  1  0
 14 16  1  0
 16 17  1  0
 17 18  1  0
 18 19  1  0
 19 20  2  0
 20 21  1  0
 21 22  1  0
 16 23  2  0
  6 24  1  0
 24 25  2  0
 25  3  1  0
 23 11  1  0
 22 18  2  0
  1 26  1  0
  1 27  1  0
  1 28  1  0
  4 29  1  0
  5 30  1  0
 10 31  1  0
 12 32  1  0
 13 33  1  0
 15 34  1  0
 20 35  1  0
 21 36  1  0
 23 37  1  0
 24 38  1  0
 25 39  1  0
M  END
$$$$
