
     RDKit          3D

 44 46  0  0  0  0  0  0  0  0999 V2000
   -7.3273   -0.6946   -0.7246 C   0  0  0  0  0  0  0  0  0  0  0  0
   -6.3888    0.3701   -0.7901 O   0  0  0  0  0  0  0  0  0  0  0  0
   -5.1472    0.1500   -0.2563 C   0  0  0  0  0  0  0  0  0  0  0  0
   -4.7055   -1.0653    0.2720 C   0  0  0  0  0  0  0  0  0  0  0  0
   -3.4185   -1.1788    0.8141 C   0  0  0  0  0  0  0  0  0  0  0  0
   -2.5555   -0.0787    0.8351 C   0  0  0  0  0  0  0  0  0  0  0  0
   -1.2167   -0.2221    1.4166 C   0  0  0  0  0  0  0  0  0  0  0  0
   -0.0609   -0.1738    0.7234 C   0  0  0  0  0  0  0  0  0  0  0  0
   -0.0224    0.0215   -0.6836 C   0  0  0  0  0  0  0  0  0  0  0  0
    0.1032    0.1800   -1.8265 N   0  0  0  0  0  0  0  0  0  0  0  0
    1.2223   -0.3552    1.4970 C   0  0  0  0  0  0  0  0  0  0  0  0
    1.1743   -0.5620    2.7064 O   0  0  0  0  0  0  0  0  0  0  0  0
    2.3803   -0.2724    0.7384 N   0  0  0  0  0  0  0  0  0  0  0  0
    3.7313   -0.3879    1.1773 C   0  0  0  0  0  0  0  0  0  0  0  0
    4.0505   -0.5844    2.5248 C   0  0  0  0  0  0  0  0  0  0  0  0
    5.3760   -0.6871    2.9325 C   0  0  0  0  0  0  0  0  0  0  0  0
    6.3980   -0.5938    1.9944 C   0  0  0  0  0  0  0  0  0  0  0  0
    6.1356   -0.4023    0.6501 C   0  0  0  0  0  0  0  0  0  0  0  0
    7.1953   -0.3285   -0.1737 N   0  0  0  0  0  0  0  0  0  0  0  0
    6.9751   -0.1449   -1.4894 C   0  0  0  0  0  0  0  0  0  0  0  0
    5.7190   -0.0276   -2.0388 C   0  0  0  0  0  0  0  0  0  0  0  0
    4.6237   -0.1038   -1.1828 C   0  0  0  0  0  0  0  0  0  0  0  0
    4.7917   -0.2956    0.2129 C   0  0  0  0  0  0  0  0  0  0  0  0
   -2.9916    1.1416    0.3153 C   0  0  0  0  0  0  0  0  0  0  0  0
   -4.2673    1.2430   -0.2463 C   0  0  0  0  0  0  0  0  0  0  0  0
   -4.6446    2.4770   -0.7169 O   0  0  0  0  0  0  0  0  0  0  0  0
   -4.5314    2.5165   -2.1398 C   0  0  0  0  0  0  0  0  0  0  0  0
   -6.9958   -1.5474   -1.3257 H   0  0  0  0  0  0  0  0  0  0  0  0
   -8.2701   -0.3359   -1.1487 H   0  0  0  0  0  0  0  0  0  0  0  0
   -7.5202   -0.9903    0.3118 H   0  0  0  0  0  0  0  0  0  0  0  0
   -5.3384   -1.9468    0.2836 H   0  0  0  0  0  0  0  0  0  0  0  0
   -3.1014   -2.1370    1.2213 H   0  0  0  0  0  0  0  0  0  0  0  0
   -1.2141   -0.3967    2.4922 H   0  0  0  0  0  0  0  0  0  0  0  0
    2.2767   -0.1089   -0.2521 H   0  0  0  0  0  0  0  0  0  0  0  0
    3.2926   -0.6607    3.2972 H   0  0  0  0  0  0  0  0  0  0  0  0
    5.6130   -0.8386    3.9825 H   0  0  0  0  0  0  0  0  0  0  0  0
    7.4320   -0.6745    2.3226 H   0  0  0  0  0  0  0  0  0  0  0  0
    7.8673   -0.0934   -2.1065 H   0  0  0  0  0  0  0  0  0  0  0  0
    5.5900    0.1182   -3.1053 H   0  0  0  0  0  0  0  0  0  0  0  0
    3.6434   -0.0112   -1.6383 H   0  0  0  0  0  0  0  0  0  0  0  0
   -2.3563    2.0231    0.3406 H   0  0  0  0  0  0  0  0  0  0  0  0
   -5.2180    1.8139   -2.6230 H   0  0  0  0  0  0  0  0  0  0  0  0
   -4.7986    3.5256   -2.4680 H   0  0  0  0  0  0  0  0  0  0  0  0
   -3.5010    2.3197   -2.4575 H   0  0  0  0  0  0  0  0  0  0  0  0
  1  2  1  0
  2  3  1  0
  3  4  2  0
  4  5  1  0
  5  6  2  0
  6  7  1  0
  7  8  2  3
  8  9  1  0
  9 10  3  0
  8 11  1  0
 11 12  2  0
 11 13  1  0
 13 14  1  0
 14 15  2  0
 15 16  1  0
 16 17  2  0
 17 18  1  0
 18 19  2  0
 19 20  1  0
 20 21  2  0
 21 22  1  0
 22 23  2  0
  6 24  1  0
 24 25  2  0
 25 26  1  0
 26 27  1  0
 25  3  1  0
 23 14  1  0
 23 18  1  0
  1 28  1  0
  1 29  1  0
  1 30  1  0
  4 31  1  0
  5 32  1  0
  7 33  1  0
 13 34  1  0
 15 35  1  0
 16 36  1  0
 17 37  1  0
 20 38  1  0
 21 39  1  0
 22 40  1  0
 24 41  1  0
 27 42  1  0
 27 43  1  0
 27 44  1  0
M  END
$$$$
