
     RDKit          3D

 63 66  0  0  0  0  0  0  0  0999 V2000
    1.5435    2.4649   -2.8933 C   0  0  0  0  0  0  0  0  0  0  0  0
    1.9682    2.2153   -1.4742 C   0  0  0  0  0  0  0  0  0  0  0  0
    1.0443    1.9967   -0.5804 N   0  0  0  0  0  0  0  0  0  0  0  0
    1.3756    1.7742    0.7610 N   0  0  0  0  0  0  0  0  0  0  0  0
    0.2483    1.5434    1.6603 C   0  0  0  0  0  0  0  0  0  0  0  0
   -0.0936    0.0631    1.7571 C   0  0  0  0  0  0  0  0  0  0  0  0
   -1.2966   -0.1581    2.6438 C   0  0  0  0  0  0  0  0  0  0  0  0
   -1.9001    0.7486    3.2065 O   0  0  0  0  0  0  0  0  0  0  0  0
   -1.6415   -1.4877    2.7541 N   0  0  0  0  0  0  0  0  0  0  0  0
   -2.8289   -1.9099    3.4619 C   0  0  0  0  0  0  0  0  0  0  0  0
   -3.9609   -2.1667    2.5016 C   0  0  0  0  0  0  0  0  0  0  0  0
   -4.7270   -1.1009    2.0151 C   0  0  0  0  0  0  0  0  0  0  0  0
   -5.7667   -1.3325    1.1125 C   0  0  0  0  0  0  0  0  0  0  0  0
   -6.0622   -2.6272    0.6792 C   0  0  0  0  0  0  0  0  0  0  0  0
   -7.1008   -2.7055   -0.2043 O   0  0  0  0  0  0  0  0  0  0  0  0
   -7.6488   -3.9874   -0.5239 C   0  0  0  0  0  0  0  0  0  0  0  0
   -6.9637   -4.5465   -1.7667 C   0  0  0  0  0  0  0  0  0  0  0  0
   -9.1348   -3.7760   -0.8014 C   0  0  0  0  0  0  0  0  0  0  0  0
   -5.2907   -3.6903    1.1456 C   0  0  0  0  0  0  0  0  0  0  0  0
   -4.2454   -3.4614    2.0492 C   0  0  0  0  0  0  0  0  0  0  0  0
    2.6881    1.6967    1.2715 C   0  0  0  0  0  0  0  0  0  0  0  0
    2.9475    1.4288    2.4428 O   0  0  0  0  0  0  0  0  0  0  0  0
    3.7001    1.9559    0.2559 C   0  0  0  0  0  0  0  0  0  0  0  0
    5.0225    1.9540    0.4366 N   0  0  0  0  0  0  0  0  0  0  0  0
    5.5445    2.3339   -0.7617 N   0  0  0  0  0  0  0  0  0  0  0  0
    6.9371    2.6536   -0.8293 C   0  0  0  0  0  0  0  0  0  0  0  0
    7.7759    2.2500    0.2241 C   0  0  0  0  0  0  0  0  0  0  0  0
    9.1403    2.5486    0.2039 C   0  0  0  0  0  0  0  0  0  0  0  0
    9.6808    3.2642   -0.8596 C   0  0  0  0  0  0  0  0  0  0  0  0
    8.8557    3.6918   -1.8970 C   0  0  0  0  0  0  0  0  0  0  0  0
    7.4880    3.3960   -1.8800 C   0  0  0  0  0  0  0  0  0  0  0  0
    4.5556    2.3437   -1.7543 C   0  0  0  0  0  0  0  0  0  0  0  0
    4.8212    2.4272   -3.2135 C   0  0  0  0  0  0  0  0  0  0  0  0
    3.3550    2.2048   -1.0766 C   0  0  0  0  0  0  0  0  0  0  0  0
    2.0506    3.3482   -3.2901 H   0  0  0  0  0  0  0  0  0  0  0  0
    0.4639    2.6329   -2.9433 H   0  0  0  0  0  0  0  0  0  0  0  0
    1.7858    1.5930   -3.5058 H   0  0  0  0  0  0  0  0  0  0  0  0
    0.4980    1.9398    2.6527 H   0  0  0  0  0  0  0  0  0  0  0  0
   -0.6083    2.1222    1.2916 H   0  0  0  0  0  0  0  0  0  0  0  0
   -0.3157   -0.3402    0.7612 H   0  0  0  0  0  0  0  0  0  0  0  0
    0.7535   -0.4992    2.1679 H   0  0  0  0  0  0  0  0  0  0  0  0
   -1.2070   -2.1570    2.1337 H   0  0  0  0  0  0  0  0  0  0  0  0
   -2.5744   -2.8267    4.0056 H   0  0  0  0  0  0  0  0  0  0  0  0
   -3.1257   -1.1633    4.2073 H   0  0  0  0  0  0  0  0  0  0  0  0
   -4.5149   -0.0819    2.3360 H   0  0  0  0  0  0  0  0  0  0  0  0
   -6.3538   -0.4936    0.7460 H   0  0  0  0  0  0  0  0  0  0  0  0
   -7.5731   -4.6854    0.3164 H   0  0  0  0  0  0  0  0  0  0  0  0
   -7.0520   -3.8503   -2.6073 H   0  0  0  0  0  0  0  0  0  0  0  0
   -7.3999   -5.5057   -2.0609 H   0  0  0  0  0  0  0  0  0  0  0  0
   -5.8932   -4.6928   -1.5972 H   0  0  0  0  0  0  0  0  0  0  0  0
   -9.6275   -4.7151   -1.0719 H   0  0  0  0  0  0  0  0  0  0  0  0
   -9.2887   -3.0532   -1.6097 H   0  0  0  0  0  0  0  0  0  0  0  0
   -9.6299   -3.3648    0.0861 H   0  0  0  0  0  0  0  0  0  0  0  0
   -5.4646   -4.7099    0.8195 H   0  0  0  0  0  0  0  0  0  0  0  0
   -3.6559   -4.3067    2.3959 H   0  0  0  0  0  0  0  0  0  0  0  0
    7.3808    1.6895    1.0706 H   0  0  0  0  0  0  0  0  0  0  0  0
    9.7755    2.2252    1.0241 H   0  0  0  0  0  0  0  0  0  0  0  0
   10.7411    3.5007   -0.8730 H   0  0  0  0  0  0  0  0  0  0  0  0
    9.2755    4.2704   -2.7157 H   0  0  0  0  0  0  0  0  0  0  0  0
    6.8844    3.8066   -2.6800 H   0  0  0  0  0  0  0  0  0  0  0  0
    5.7820    1.9787   -3.4824 H   0  0  0  0  0  0  0  0  0  0  0  0
    4.0708    1.8674   -3.7786 H   0  0  0  0  0  0  0  0  0  0  0  0
    4.7921    3.4662   -3.5543 H   0  0  0  0  0  0  0  0  0  0  0  0
  1  2  1  0
  2  3  2  0
  3  4  1  0
  4  5  1  0
  5  6  1  0
  6  7  1  0
  7  8  2  0
  7  9  1  0
  9 10  1  0
 10 11  1  0
 11 12  2  0
 12 13  1  0
 13 14  2  0
 14 15  1  0
 15 16  1  0
 16 17  1  0
 16 18  1  0
 14 19  1  0
 19 20  2  0
  4 21  1  0
 21 22  2  0
 21 23  1  0
 23 24  2  0
 24 25  1  0
 25 26  1  0
 26 27  2  0
 27 28  1  0
 28 29  2  0
 29 30  1  0
 30 31  2  0
 25 32  1  0
 32 33  1  0
 32 34  2  0
 34  2  1  0
 20 11  1  0
 34 23  1  0
 31 26  1  0
  1 35  1  0
  1 36  1  0
  1 37  1  0
  5 38  1  0
  5 39  1  0
  6 40  1  0
  6 41  1  0
  9 42  1  0
 10 43  1  0
 10 44  1  0
 12 45  1  0
 13 46  1  0
 16 47  1  0
 17 48  1  0
 17 49  1  0
 17 50  1  0
 18 51  1  0
 18 52  1  0
 18 53  1  0
 19 54  1  0
 20 55  1  0
 27 56  1  0
 28 57  1  0
 29 58  1  0
 30 59  1  0
 31 60  1  0
 33 61  1  0
 33 62  1  0
 33 63  1  0
M  END
$$$$
