
     RDKit          3D

 60 62  0  0  0  0  0  0  0  0999 V2000
   -4.6889    1.4592    2.3245 C   0  0  0  0  0  0  0  0  0  0  0  0
   -4.0435    1.6877    0.9884 C   0  0  0  0  0  0  0  0  0  0  0  0
   -4.5924    1.1566   -0.1799 C   0  0  0  0  0  0  0  0  0  0  0  0
   -3.9711    1.3853   -1.4073 C   0  0  0  0  0  0  0  0  0  0  0  0
   -2.7831    2.1374   -1.4842 C   0  0  0  0  0  0  0  0  0  0  0  0
   -2.0431    2.2825   -3.1088 S   0  0  0  0  0  6  0  0  0  0  0  0
   -0.8623    3.1186   -3.0566 O   0  0  0  0  0  0  0  0  0  0  0  0
   -3.1138    2.5736   -4.0404 O   0  0  0  0  0  0  0  0  0  0  0  0
   -1.5412    0.7064   -3.4747 N   0  0  0  0  0  0  0  0  0  0  0  0
   -0.8536   -0.0567   -2.4776 C   0  0  0  0  0  0  0  0  0  0  0  0
    0.3885    0.4116   -2.0347 C   0  0  0  0  0  0  0  0  0  0  0  0
    1.0530   -0.2194   -0.9789 C   0  0  0  0  0  0  0  0  0  0  0  0
    2.3830    0.3346   -0.4798 C   0  0  0  0  0  0  0  0  0  0  0  0
    3.4378   -0.7549   -0.3661 C   0  0  0  0  0  0  0  0  0  0  0  0
    3.8033   -1.4445   -1.3098 O   0  0  0  0  0  0  0  0  0  0  0  0
    3.9242   -0.8675    0.8971 O   0  0  0  0  0  0  0  0  0  0  0  0
    4.8842   -1.9107    1.1262 C   0  0  0  0  0  0  0  0  0  0  0  0
    4.1656   -3.2389    1.3174 C   0  0  0  0  0  0  0  0  0  0  0  0
    5.6663   -1.5335    2.3805 C   0  0  0  0  0  0  0  0  0  0  0  0
    2.2280    1.2034    0.7628 C   0  0  0  0  0  0  0  0  0  0  0  0
    1.1494    1.3532    1.3551 O   0  0  0  0  0  0  0  0  0  0  0  0
    3.4865    1.9389    1.1981 C   0  0  0  0  0  0  0  0  0  0  0  0
    3.2683    3.2766    1.3479 F   0  0  0  0  0  0  0  0  0  0  0  0
    4.5049    1.8314    0.2957 F   0  0  0  0  0  0  0  0  0  0  0  0
    3.9718    1.4963    2.3876 F   0  0  0  0  0  0  0  0  0  0  0  0
    0.4419   -1.3287   -0.3791 C   0  0  0  0  0  0  0  0  0  0  0  0
    1.0744   -1.8361    0.7288 O   0  0  0  0  0  0  0  0  0  0  0  0
   -0.7680   -1.8857   -0.8622 C   0  0  0  0  0  0  0  0  0  0  0  0
   -1.3283   -3.0760   -0.3363 C   0  0  0  0  0  0  0  0  0  0  0  0
   -2.5322   -3.5962   -0.8105 C   0  0  0  0  0  0  0  0  0  0  0  0
   -3.2043   -2.9443   -1.8301 C   0  0  0  0  0  0  0  0  0  0  0  0
   -2.6635   -1.7816   -2.3821 C   0  0  0  0  0  0  0  0  0  0  0  0
   -1.4386   -1.2302   -1.9257 C   0  0  0  0  0  0  0  0  0  0  0  0
   -2.2397    2.7203   -0.3246 C   0  0  0  0  0  0  0  0  0  0  0  0
   -1.0106    3.5921   -0.3053 C   0  0  0  0  0  0  0  0  0  0  0  0
   -2.8846    2.4713    0.9027 C   0  0  0  0  0  0  0  0  0  0  0  0
   -5.4602    0.6860    2.2729 H   0  0  0  0  0  0  0  0  0  0  0  0
   -5.1554    2.3832    2.6794 H   0  0  0  0  0  0  0  0  0  0  0  0
   -3.9426    1.1289    3.0563 H   0  0  0  0  0  0  0  0  0  0  0  0
   -5.5046    0.5595   -0.1446 H   0  0  0  0  0  0  0  0  0  0  0  0
   -4.4142    0.9552   -2.3042 H   0  0  0  0  0  0  0  0  0  0  0  0
   -2.2021    0.2352   -4.0899 H   0  0  0  0  0  0  0  0  0  0  0  0
    0.8337    1.2861   -2.5161 H   0  0  0  0  0  0  0  0  0  0  0  0
    2.7708    1.0146   -1.2563 H   0  0  0  0  0  0  0  0  0  0  0  0
    5.5817   -1.9716    0.2884 H   0  0  0  0  0  0  0  0  0  0  0  0
    3.5941   -3.5087    0.4201 H   0  0  0  0  0  0  0  0  0  0  0  0
    4.8748   -4.0474    1.5333 H   0  0  0  0  0  0  0  0  0  0  0  0
    3.4477   -3.1788    2.1429 H   0  0  0  0  0  0  0  0  0  0  0  0
    5.0025   -1.4643    3.2494 H   0  0  0  0  0  0  0  0  0  0  0  0
    6.4441   -2.2697    2.5919 H   0  0  0  0  0  0  0  0  0  0  0  0
    6.1385   -0.5482    2.2617 H   0  0  0  0  0  0  0  0  0  0  0  0
    0.4000   -2.2506    1.3076 H   0  0  0  0  0  0  0  0  0  0  0  0
   -0.8174   -3.6405    0.4400 H   0  0  0  0  0  0  0  0  0  0  0  0
   -2.9367   -4.5133   -0.3860 H   0  0  0  0  0  0  0  0  0  0  0  0
   -4.1433   -3.3409   -2.2086 H   0  0  0  0  0  0  0  0  0  0  0  0
   -3.2233   -1.3151   -3.1867 H   0  0  0  0  0  0  0  0  0  0  0  0
   -1.1252    4.4186   -1.0088 H   0  0  0  0  0  0  0  0  0  0  0  0
   -0.1143    3.0040   -0.5411 H   0  0  0  0  0  0  0  0  0  0  0  0
   -0.8511    4.0531    0.6806 H   0  0  0  0  0  0  0  0  0  0  0  0
   -2.4660    2.8923    1.8228 H   0  0  0  0  0  0  0  0  0  0  0  0
  1  2  1  0
  2  3  2  0
  3  4  1  0
  4  5  2  0
  5  6  1  0
  6  7  2  0
  6  8  2  0
  6  9  1  0
  9 10  1  0
 10 11  2  0
 11 12  1  0
 12 13  1  0
 13 14  1  0
 14 15  2  0
 14 16  1  0
 16 17  1  0
 17 18  1  0
 17 19  1  0
 13 20  1  0
 20 21  2  0
 20 22  1  0
 22 23  1  0
 22 24  1  0
 22 25  1  0
 12 26  2  0
 26 27  1  0
 26 28  1  0
 28 29  2  0
 29 30  1  0
 30 31  2  0
 31 32  1  0
 32 33  2  0
  5 34  1  0
 34 35  1  0
 34 36  2  0
 36  2  1  0
 33 10  1  0
 33 28  1  0
  1 37  1  0
  1 38  1  0
  1 39  1  0
  3 40  1  0
  4 41  1  0
  9 42  1  0
 11 43  1  0
 13 44  1  0
 17 45  1  0
 18 46  1  0
 18 47  1  0
 18 48  1  0
 19 49  1  0
 19 50  1  0
 19 51  1  0
 27 52  1  0
 29 53  1  0
 30 54  1  0
 31 55  1  0
 32 56  1  0
 35 57  1  0
 35 58  1  0
 35 59  1  0
 36 60  1  0
M  END
$$$$
