
     RDKit          3D

 43 45  0  0  0  0  0  0  0  0999 V2000
   -7.7522    0.9149    1.3537 C   0  0  0  0  0  0  0  0  0  0  0  0
   -6.3668    0.9381    0.9179 N   0  0  0  0  0  0  0  0  0  0  0  0
   -5.7666    2.2565    0.7646 C   0  0  0  0  0  0  0  0  0  0  0  0
   -5.8043   -0.2484    0.4505 C   0  0  0  0  0  0  0  0  0  0  0  0
   -6.4499   -1.2788    0.2689 O   0  0  0  0  0  0  0  0  0  0  0  0
   -4.3510   -0.2978    0.1649 C   0  0  0  0  0  0  0  0  0  0  0  0
   -3.9179   -0.8551   -1.0391 C   0  0  0  0  0  0  0  0  0  0  0  0
   -2.5496   -0.9399   -1.3141 C   0  0  0  0  0  0  0  0  0  0  0  0
   -1.6012   -0.4815   -0.3874 C   0  0  0  0  0  0  0  0  0  0  0  0
   -0.2429   -0.6055   -0.7501 N   0  0  0  0  0  0  0  0  0  0  0  0
    0.8728   -0.1836   -0.0372 C   0  0  0  0  0  0  0  0  0  0  0  0
    0.8196    0.4082    1.0370 O   0  0  0  0  0  0  0  0  0  0  0  0
    2.1425   -0.4933   -0.6846 C   0  0  0  0  0  0  0  0  0  0  0  0
    2.4950   -1.1840   -1.8316 C   0  0  0  0  0  0  0  0  0  0  0  0
    3.9103   -1.1379   -1.9234 C   0  0  0  0  0  0  0  0  0  0  0  0
    4.3578   -0.4248   -0.8305 C   0  0  0  0  0  0  0  0  0  0  0  0
    5.6721   -0.0219   -0.3340 C   0  0  0  0  0  0  0  0  0  0  0  0
    6.8387   -0.3673   -1.0347 C   0  0  0  0  0  0  0  0  0  0  0  0
    8.0999    0.0158   -0.5639 C   0  0  0  0  0  0  0  0  0  0  0  0
    8.2068    0.7492    0.6145 C   0  0  0  0  0  0  0  0  0  0  0  0
    9.7569    1.2194    1.1924 Cl  0  0  0  0  0  0  0  0  0  0  0  0
    7.0644    1.1028    1.3256 C   0  0  0  0  0  0  0  0  0  0  0  0
    5.8052    0.7185    0.8524 C   0  0  0  0  0  0  0  0  0  0  0  0
    3.2854   -0.0364   -0.0819 O   0  0  0  0  0  0  0  0  0  0  0  0
   -2.0459    0.0483    0.8269 C   0  0  0  0  0  0  0  0  0  0  0  0
   -3.4149    0.1321    1.1086 C   0  0  0  0  0  0  0  0  0  0  0  0
   -8.3824    1.2875    0.5407 H   0  0  0  0  0  0  0  0  0  0  0  0
   -7.8622    1.5599    2.2304 H   0  0  0  0  0  0  0  0  0  0  0  0
   -8.0732   -0.0962    1.6189 H   0  0  0  0  0  0  0  0  0  0  0  0
   -5.5717    2.6675    1.7591 H   0  0  0  0  0  0  0  0  0  0  0  0
   -6.4729    2.9062    0.2378 H   0  0  0  0  0  0  0  0  0  0  0  0
   -4.8419    2.2333    0.1862 H   0  0  0  0  0  0  0  0  0  0  0  0
   -4.6441   -1.2269   -1.7587 H   0  0  0  0  0  0  0  0  0  0  0  0
   -2.2419   -1.3741   -2.2620 H   0  0  0  0  0  0  0  0  0  0  0  0
   -0.0722   -1.0350   -1.6470 H   0  0  0  0  0  0  0  0  0  0  0  0
    1.8298   -1.6744   -2.5271 H   0  0  0  0  0  0  0  0  0  0  0  0
    4.5251   -1.5779   -2.6959 H   0  0  0  0  0  0  0  0  0  0  0  0
    6.7843   -0.9395   -1.9573 H   0  0  0  0  0  0  0  0  0  0  0  0
    8.9905   -0.2620   -1.1213 H   0  0  0  0  0  0  0  0  0  0  0  0
    7.1404    1.6752    2.2463 H   0  0  0  0  0  0  0  0  0  0  0  0
    4.9236    1.0049    1.4244 H   0  0  0  0  0  0  0  0  0  0  0  0
   -1.3553    0.3946    1.5897 H   0  0  0  0  0  0  0  0  0  0  0  0
   -3.7400    0.5212    2.0702 H   0  0  0  0  0  0  0  0  0  0  0  0
  1  2  1  0
  2  3  1  0
  2  4  1  0
  4  5  2  0
  4  6  1  0
  6  7  2  0
  7  8  1  0
  8  9  2  0
  9 10  1  0
 10 11  1  0
 11 12  2  0
 11 13  1  0
 13 14  2  0
 14 15  1  0
 15 16  2  0
 16 17  1  0
 17 18  2  0
 18 19  1  0
 19 20  2  0
 20 21  1  0
 20 22  1  0
 22 23  2  0
 16 24  1  0
  9 25  1  0
 25 26  2  0
 26  6  1  0
 24 13  1  0
 23 17  1  0
  1 27  1  0
  1 28  1  0
  1 29  1  0
  3 30  1  0
  3 31  1  0
  3 32  1  0
  7 33  1  0
  8 34  1  0
 10 35  1  0
 14 36  1  0
 15 37  1  0
 18 38  1  0
 19 39  1  0
 22 40  1  0
 23 41  1  0
 25 42  1  0
 26 43  1  0
M  END
$$$$
