
     RDKit          3D

 35 37  0  0  0  0  0  0  0  0999 V2000
   -0.0402    2.2917   -0.2449 O   0  0  0  0  0  0  0  0  0  0  0  0
   -0.2418    1.1949   -0.7510 C   0  0  0  0  0  0  0  0  0  0  0  0
   -1.5051    0.4179   -0.6288 C   0  0  0  0  0  0  0  0  0  0  0  0
   -2.5175    0.8452    0.1379 C   0  0  0  0  0  0  0  0  0  0  0  0
   -3.7964    0.1570    0.3376 C   0  0  0  0  0  0  0  0  0  0  0  0
   -4.1178   -0.3354    1.6097 C   0  0  0  0  0  0  0  0  0  0  0  0
   -5.3369   -0.9813    1.8253 C   0  0  0  0  0  0  0  0  0  0  0  0
   -6.2316   -1.1268    0.7717 C   0  0  0  0  0  0  0  0  0  0  0  0
   -7.4009   -1.7455    0.9801 F   0  0  0  0  0  0  0  0  0  0  0  0
   -5.9324   -0.6362   -0.4938 C   0  0  0  0  0  0  0  0  0  0  0  0
   -4.7142    0.0103   -0.7118 C   0  0  0  0  0  0  0  0  0  0  0  0
   -1.4188   -1.0279   -1.5689 S   0  0  0  0  0  0  0  0  0  0  0  0
    0.2190   -0.6890   -2.1366 C   0  0  0  0  0  0  0  0  0  0  0  0
    1.0316   -1.6712   -3.2129 S   0  0  0  0  0  0  0  0  0  0  0  0
    0.6345    0.4939   -1.5603 N   0  0  0  0  0  0  0  0  0  0  0  0
    1.9251    1.0339   -1.7830 N   0  0  0  0  0  0  0  0  0  0  0  0
    2.8570    0.6276   -0.7799 C   0  0  0  0  0  0  0  0  0  0  0  0
    2.5281   -0.3822    0.0680 N   0  0  0  0  0  0  0  0  0  0  0  0
    3.4493   -0.7847    0.9757 C   0  0  0  0  0  0  0  0  0  0  0  0
    4.7110   -0.2253    1.1018 C   0  0  0  0  0  0  0  0  0  0  0  0
    5.6703   -0.7529    2.1231 C   0  0  0  0  0  0  0  0  0  0  0  0
    6.5964    0.1674    2.5080 F   0  0  0  0  0  0  0  0  0  0  0  0
    5.0553   -1.1626    3.2660 F   0  0  0  0  0  0  0  0  0  0  0  0
    6.3717   -1.8250    1.6678 F   0  0  0  0  0  0  0  0  0  0  0  0
    5.0487    0.8060    0.2214 C   0  0  0  0  0  0  0  0  0  0  0  0
    4.1201    1.2363   -0.7264 C   0  0  0  0  0  0  0  0  0  0  0  0
    4.5581    2.5223   -1.7912 Cl  0  0  0  0  0  0  0  0  0  0  0  0
   -2.4133    1.7737    0.6982 H   0  0  0  0  0  0  0  0  0  0  0  0
   -3.4218   -0.2253    2.4384 H   0  0  0  0  0  0  0  0  0  0  0  0
   -5.5933   -1.3707    2.8053 H   0  0  0  0  0  0  0  0  0  0  0  0
   -6.6479   -0.7588   -1.3006 H   0  0  0  0  0  0  0  0  0  0  0  0
   -4.4906    0.3972   -1.7034 H   0  0  0  0  0  0  0  0  0  0  0  0
    1.8882    2.0572   -1.7716 H   0  0  0  0  0  0  0  0  0  0  0  0
    3.1241   -1.6019    1.6181 H   0  0  0  0  0  0  0  0  0  0  0  0
    6.0319    1.2703    0.2731 H   0  0  0  0  0  0  0  0  0  0  0  0
  1  2  2  0
  2  3  1  0
  3  4  2  3
  4  5  1  0
  5  6  2  0
  6  7  1  0
  7  8  2  0
  8  9  1  0
  8 10  1  0
 10 11  2  0
  3 12  1  0
 12 13  1  0
 13 14  2  0
 13 15  1  0
 15 16  1  0
 16 17  1  0
 17 18  2  0
 18 19  1  0
 19 20  2  0
 20 21  1  0
 21 22  1  0
 21 23  1  0
 21 24  1  0
 20 25  1  0
 25 26  2  0
 26 27  1  0
 15  2  1  0
 26 17  1  0
 11  5  1  0
  4 28  1  0
  6 29  1  0
  7 30  1  0
 10 31  1  0
 11 32  1  0
 16 33  1  0
 19 34  1  0
 25 35  1  0
M  END
$$$$
