
     RDKit          3D

 38 38  0  0  0  0  0  0  0  0999 V2000
    5.3346    3.2360    3.1927 C   0  0  0  0  0  0  0  0  0  0  0  0
    5.8107    2.0245    2.6216 O   0  0  0  0  0  0  0  0  0  0  0  0
    4.7524    1.1941    2.1392 C   0  0  0  0  0  0  0  0  0  0  0  0
    4.3044    1.6137    0.7352 C   0  0  0  0  0  0  0  0  0  0  0  0
    3.3444    0.6932    0.1504 N   0  0  0  0  0  0  0  0  0  0  0  0
    2.0133    0.7304    0.5109 C   0  0  0  0  0  0  0  0  0  0  0  0
    1.5827    1.5384    1.3287 O   0  0  0  0  0  0  0  0  0  0  0  0
    1.1159   -0.2734   -0.1566 C   0  0  0  0  0  0  0  0  0  0  0  0
    1.7050   -1.4301   -0.7279 C   0  0  0  0  0  0  0  0  0  0  0  0
    2.2438   -2.3522   -1.1856 N   0  0  0  0  0  0  0  0  0  0  0  0
   -0.2050    0.0064   -0.1532 C   0  0  0  0  0  0  0  0  0  0  0  0
   -1.3629   -0.7256   -0.6861 C   0  0  0  0  0  0  0  0  0  0  0  0
   -1.1771   -2.0934   -1.2984 C   0  0  0  0  0  0  0  0  0  0  0  0
   -2.5738   -0.1356   -0.5906 C   0  0  0  0  0  0  0  0  0  0  0  0
   -3.8425   -0.7089   -1.0485 C   0  0  0  0  0  0  0  0  0  0  0  0
   -4.5850   -1.5391   -0.2024 C   0  0  0  0  0  0  0  0  0  0  0  0
   -5.7941   -2.0846   -0.6374 C   0  0  0  0  0  0  0  0  0  0  0  0
   -6.2650   -1.8006   -1.9200 C   0  0  0  0  0  0  0  0  0  0  0  0
   -5.5282   -0.9727   -2.7676 C   0  0  0  0  0  0  0  0  0  0  0  0
   -4.3180   -0.4281   -2.3332 C   0  0  0  0  0  0  0  0  0  0  0  0
    4.8029    3.8369    2.4533 H   0  0  0  0  0  0  0  0  0  0  0  0
    4.6833    3.0269    4.0479 H   0  0  0  0  0  0  0  0  0  0  0  0
    6.1981    3.8067    3.5455 H   0  0  0  0  0  0  0  0  0  0  0  0
    5.1498    0.1734    2.0970 H   0  0  0  0  0  0  0  0  0  0  0  0
    3.9161    1.1750    2.8483 H   0  0  0  0  0  0  0  0  0  0  0  0
    3.8590    2.6145    0.7596 H   0  0  0  0  0  0  0  0  0  0  0  0
    5.1653    1.6699    0.0609 H   0  0  0  0  0  0  0  0  0  0  0  0
    3.6980    0.0180   -0.5183 H   0  0  0  0  0  0  0  0  0  0  0  0
   -0.4903    0.9489    0.3253 H   0  0  0  0  0  0  0  0  0  0  0  0
   -2.1142   -2.5578   -1.6179 H   0  0  0  0  0  0  0  0  0  0  0  0
   -0.5455   -2.0352   -2.1918 H   0  0  0  0  0  0  0  0  0  0  0  0
   -0.7277   -2.7819   -0.5740 H   0  0  0  0  0  0  0  0  0  0  0  0
   -2.6905    0.8529   -0.1463 H   0  0  0  0  0  0  0  0  0  0  0  0
   -4.2295   -1.7608    0.8009 H   0  0  0  0  0  0  0  0  0  0  0  0
   -6.3737   -2.7224    0.0256 H   0  0  0  0  0  0  0  0  0  0  0  0
   -7.2084   -2.2223   -2.2575 H   0  0  0  0  0  0  0  0  0  0  0  0
   -5.8965   -0.7508   -3.7647 H   0  0  0  0  0  0  0  0  0  0  0  0
   -3.7522    0.2160   -3.0013 H   0  0  0  0  0  0  0  0  0  0  0  0
  1  2  1  0
  2  3  1  0
  3  4  1  0
  4  5  1  0
  5  6  1  0
  6  7  2  0
  6  8  1  0
  8  9  1  0
  9 10  3  0
  8 11  2  3
 11 12  1  0
 12 13  1  0
 12 14  2  3
 14 15  1  0
 15 16  2  0
 16 17  1  0
 17 18  2  0
 18 19  1  0
 19 20  2  0
 20 15  1  0
  1 21  1  0
  1 22  1  0
  1 23  1  0
  3 24  1  0
  3 25  1  0
  4 26  1  0
  4 27  1  0
  5 28  1  0
 11 29  1  0
 13 30  1  0
 13 31  1  0
 13 32  1  0
 14 33  1  0
 16 34  1  0
 17 35  1  0
 18 36  1  0
 19 37  1  0
 20 38  1  0
M  END
$$$$
