
     RDKit          3D

 55 58  0  0  0  0  0  0  0  0999 V2000
    6.0395   -0.1937    4.0682 C   0  0  0  0  0  0  0  0  0  0  0  0
    4.7259   -0.3105    3.3197 C   0  0  0  0  0  0  0  0  0  0  0  0
    5.0000   -0.1939    1.9175 O   0  0  0  0  0  0  0  0  0  0  0  0
    3.9114   -0.3188    1.1197 C   0  0  0  0  0  0  0  0  0  0  0  0
    2.7684   -0.5156    1.5088 O   0  0  0  0  0  0  0  0  0  0  0  0
    4.2751   -0.1919   -0.3248 C   0  0  0  0  0  0  0  0  0  0  0  0
    5.6162    0.0259   -0.6938 C   0  0  0  0  0  0  0  0  0  0  0  0
    5.9744    0.1381   -2.0356 C   0  0  0  0  0  0  0  0  0  0  0  0
    4.9988    0.0353   -3.0195 C   0  0  0  0  0  0  0  0  0  0  0  0
    3.6626   -0.1784   -2.6685 C   0  0  0  0  0  0  0  0  0  0  0  0
    3.2772   -0.2932   -1.3263 C   0  0  0  0  0  0  0  0  0  0  0  0
    1.9266   -0.5131   -0.9516 N   0  0  0  0  0  0  0  0  0  0  0  0
    0.8153   -0.6128   -1.7599 C   0  0  0  0  0  0  0  0  0  0  0  0
    0.7646   -0.4830   -2.9764 O   0  0  0  0  0  0  0  0  0  0  0  0
   -0.4358   -0.8536   -0.9812 C   0  0  0  0  0  0  0  0  0  0  0  0
   -1.3938    0.0711   -1.1425 C   0  0  0  0  0  0  0  0  0  0  0  0
   -2.6183    0.0551   -0.4741 N   0  0  0  0  0  0  0  0  0  0  0  0
   -3.5938    1.1043   -0.6993 C   0  0  0  0  0  0  0  0  0  0  0  0
   -3.1973    2.3941   -1.0903 C   0  0  0  0  0  0  0  0  0  0  0  0
   -4.1385    3.4060   -1.3216 C   0  0  0  0  0  0  0  0  0  0  0  0
   -5.5016    3.1606   -1.1741 C   0  0  0  0  0  0  0  0  0  0  0  0
   -6.3105    4.2322   -1.4265 O   0  0  0  0  0  0  0  0  0  0  0  0
   -7.7099    4.0275   -1.2751 C   0  0  0  0  0  0  0  0  0  0  0  0
   -5.9152    1.8887   -0.7936 C   0  0  0  0  0  0  0  0  0  0  0  0
   -4.9711    0.8761   -0.5604 C   0  0  0  0  0  0  0  0  0  0  0  0
   -2.8980   -0.9759    0.4596 C   0  0  0  0  0  0  0  0  0  0  0  0
   -3.8959   -1.0503    1.1755 O   0  0  0  0  0  0  0  0  0  0  0  0
   -1.8741   -2.0500    0.6202 C   0  0  0  0  0  0  0  0  0  0  0  0
   -2.1373   -3.1254    1.4846 C   0  0  0  0  0  0  0  0  0  0  0  0
   -1.2088   -4.1539    1.6313 C   0  0  0  0  0  0  0  0  0  0  0  0
   -0.0197   -4.1169    0.9103 C   0  0  0  0  0  0  0  0  0  0  0  0
    0.2465   -3.0476    0.0503 C   0  0  0  0  0  0  0  0  0  0  0  0
   -0.6701   -1.9930   -0.0917 C   0  0  0  0  0  0  0  0  0  0  0  0
    6.5186    0.7686    3.8588 H   0  0  0  0  0  0  0  0  0  0  0  0
    5.8839   -0.2847    5.1468 H   0  0  0  0  0  0  0  0  0  0  0  0
    6.7368   -0.9736    3.7439 H   0  0  0  0  0  0  0  0  0  0  0  0
    4.0477    0.4926    3.6297 H   0  0  0  0  0  0  0  0  0  0  0  0
    4.2668   -1.2838    3.5284 H   0  0  0  0  0  0  0  0  0  0  0  0
    6.3993    0.1094    0.0566 H   0  0  0  0  0  0  0  0  0  0  0  0
    7.0124    0.3055   -2.3127 H   0  0  0  0  0  0  0  0  0  0  0  0
    5.2713    0.1212   -4.0691 H   0  0  0  0  0  0  0  0  0  0  0  0
    2.9434   -0.2536   -3.4786 H   0  0  0  0  0  0  0  0  0  0  0  0
    1.7655   -0.5812    0.0569 H   0  0  0  0  0  0  0  0  0  0  0  0
   -1.2326    0.8773   -1.8534 H   0  0  0  0  0  0  0  0  0  0  0  0
   -2.1498    2.6643   -1.1825 H   0  0  0  0  0  0  0  0  0  0  0  0
   -3.7995    4.3977   -1.6103 H   0  0  0  0  0  0  0  0  0  0  0  0
   -7.9606    3.7478   -0.2467 H   0  0  0  0  0  0  0  0  0  0  0  0
   -8.2116    4.9746   -1.4928 H   0  0  0  0  0  0  0  0  0  0  0  0
   -8.0783    3.2835   -1.9883 H   0  0  0  0  0  0  0  0  0  0  0  0
   -6.9638    1.6380   -0.6709 H   0  0  0  0  0  0  0  0  0  0  0  0
   -5.3545   -0.1069   -0.2986 H   0  0  0  0  0  0  0  0  0  0  0  0
   -3.0713   -3.1656    2.0424 H   0  0  0  0  0  0  0  0  0  0  0  0
   -1.4185   -4.9849    2.3000 H   0  0  0  0  0  0  0  0  0  0  0  0
    0.7027   -4.9238    1.0127 H   0  0  0  0  0  0  0  0  0  0  0  0
    1.1793   -3.0658   -0.5096 H   0  0  0  0  0  0  0  0  0  0  0  0
  1  2  1  0
  2  3  1  0
  3  4  1  0
  4  5  2  0
  4  6  1  0
  6  7  2  0
  7  8  1  0
  8  9  2  0
  9 10  1  0
 10 11  2  0
 11 12  1  0
 12 13  1  0
 13 14  2  0
 13 15  1  0
 15 16  2  0
 16 17  1  0
 17 18  1  0
 18 19  2  0
 19 20  1  0
 20 21  2  0
 21 22  1  0
 22 23  1  0
 21 24  1  0
 24 25  2  0
 17 26  1  0
 26 27  2  0
 26 28  1  0
 28 29  2  0
 29 30  1  0
 30 31  2  0
 31 32  1  0
 32 33  2  0
 11  6  1  0
 33 15  1  0
 25 18  1  0
 33 28  1  0
  1 34  1  0
  1 35  1  0
  1 36  1  0
  2 37  1  0
  2 38  1  0
  7 39  1  0
  8 40  1  0
  9 41  1  0
 10 42  1  0
 12 43  1  0
 16 44  1  0
 19 45  1  0
 20 46  1  0
 23 47  1  0
 23 48  1  0
 23 49  1  0
 24 50  1  0
 25 51  1  0
 29 52  1  0
 30 53  1  0
 31 54  1  0
 32 55  1  0
M  END
$$$$
