
     RDKit          3D

 36 38  0  0  0  0  0  0  0  0999 V2000
    5.9251   -0.9062    0.4496 C   0  0  0  0  0  0  0  0  0  0  0  0
    5.5375    0.5299    0.1599 C   0  0  0  0  0  0  0  0  0  0  0  0
    4.0650    0.6694    0.2509 N   0  0  0  0  0  4  0  0  0  0  0  0
    3.4936    0.9944    1.4334 C   0  0  0  0  0  0  0  0  0  0  0  0
    2.1147    1.1352    1.5400 C   0  0  0  0  0  0  0  0  0  0  0  0
    1.3100    0.9276    0.4218 C   0  0  0  0  0  0  0  0  0  0  0  0
   -0.1413    1.1022    0.5406 C   0  0  0  0  0  0  0  0  0  0  0  0
   -1.0389    0.2677   -0.0119 C   0  0  0  0  0  0  0  0  0  0  0  0
   -2.4623    0.3865    0.0744 C   0  0  0  0  0  0  0  0  0  0  0  0
   -3.1618    1.4198    0.6608 C   0  0  0  0  0  0  0  0  0  0  0  0
   -4.5008    1.1561    0.5254 N   0  0  0  0  0  0  0  0  0  0  0  0
   -4.6881   -0.0322   -0.1412 C   0  0  0  0  0  0  0  0  0  0  0  0
   -5.8751   -0.6840   -0.4975 C   0  0  0  0  0  0  0  0  0  0  0  0
   -5.7691   -1.8982   -1.1805 C   0  0  0  0  0  0  0  0  0  0  0  0
   -4.5247   -2.4375   -1.4934 C   0  0  0  0  0  0  0  0  0  0  0  0
   -3.3473   -1.7727   -1.1300 C   0  0  0  0  0  0  0  0  0  0  0  0
   -3.4231   -0.5430   -0.4394 C   0  0  0  0  0  0  0  0  0  0  0  0
    1.9212    0.6086   -0.7898 C   0  0  0  0  0  0  0  0  0  0  0  0
    3.3040    0.4809   -0.8517 C   0  0  0  0  0  0  0  0  0  0  0  0
    7.0106   -1.0275    0.3868 H   0  0  0  0  0  0  0  0  0  0  0  0
    5.4615   -1.5917   -0.2671 H   0  0  0  0  0  0  0  0  0  0  0  0
    5.6040   -1.2065    1.4522 H   0  0  0  0  0  0  0  0  0  0  0  0
    5.9907    1.2210    0.8785 H   0  0  0  0  0  0  0  0  0  0  0  0
    5.8477    0.8348   -0.8451 H   0  0  0  0  0  0  0  0  0  0  0  0
    4.1484    1.1373    2.2885 H   0  0  0  0  0  0  0  0  0  0  0  0
    1.6741    1.3954    2.5010 H   0  0  0  0  0  0  0  0  0  0  0  0
   -0.4718    1.9517    1.1340 H   0  0  0  0  0  0  0  0  0  0  0  0
   -0.6786   -0.5936   -0.5700 H   0  0  0  0  0  0  0  0  0  0  0  0
   -2.8421    2.3234    1.1608 H   0  0  0  0  0  0  0  0  0  0  0  0
   -5.2501    1.7455    0.8620 H   0  0  0  0  0  0  0  0  0  0  0  0
   -6.8479   -0.2677   -0.2552 H   0  0  0  0  0  0  0  0  0  0  0  0
   -6.6736   -2.4289   -1.4706 H   0  0  0  0  0  0  0  0  0  0  0  0
   -4.4667   -3.3846   -2.0246 H   0  0  0  0  0  0  0  0  0  0  0  0
   -2.3867   -2.2104   -1.3813 H   0  0  0  0  0  0  0  0  0  0  0  0
    1.3306    0.4680   -1.6933 H   0  0  0  0  0  0  0  0  0  0  0  0
    3.8114    0.2289   -1.7789 H   0  0  0  0  0  0  0  0  0  0  0  0
  1  2  1  0
  2  3  1  0
  3  4  2  0
  4  5  1  0
  5  6  2  0
  6  7  1  0
  7  8  2  3
  8  9  1  0
  9 10  2  0
 10 11  1  0
 11 12  1  0
 12 13  2  0
 13 14  1  0
 14 15  2  0
 15 16  1  0
 16 17  2  0
  6 18  1  0
 18 19  2  0
 19  3  1  0
 17  9  1  0
 17 12  1  0
  1 20  1  0
  1 21  1  0
  1 22  1  0
  2 23  1  0
  2 24  1  0
  4 25  1  0
  5 26  1  0
  7 27  1  0
  8 28  1  0
 10 29  1  0
 11 30  1  0
 13 31  1  0
 14 32  1  0
 15 33  1  0
 16 34  1  0
 18 35  1  0
 19 36  1  0
M  CHG  1   3   1
M  END
$$$$
