
     RDKit          3D

 59 62  0  0  0  0  0  0  0  0999 V2000
    7.5505    4.0041   -0.1297 C   0  0  0  0  0  0  0  0  0  0  0  0
    6.9358    3.3111    0.9496 O   0  0  0  0  0  0  0  0  0  0  0  0
    6.2537    2.1665    0.6413 C   0  0  0  0  0  0  0  0  0  0  0  0
    5.6548    1.5318    1.7316 C   0  0  0  0  0  0  0  0  0  0  0  0
    4.9284    0.3509    1.5574 C   0  0  0  0  0  0  0  0  0  0  0  0
    4.7870   -0.2070    0.2823 C   0  0  0  0  0  0  0  0  0  0  0  0
    4.0139   -1.4748    0.1470 C   0  0  0  0  0  0  0  0  0  0  0  0
    3.9484   -2.2278    1.1193 O   0  0  0  0  0  0  0  0  0  0  0  0
    3.3806   -1.8066   -1.1934 C   0  0  0  0  0  0  0  0  0  0  0  0
    1.7124   -2.4983   -0.9788 S   0  0  0  0  0  0  0  0  0  0  0  0
    0.8733   -1.0978   -0.4069 C   0  0  0  0  0  0  0  0  0  0  0  0
    1.2946    0.1388   -0.5310 N   0  0  0  0  0  0  0  0  0  0  0  0
    0.3549    0.9583    0.0350 N   0  0  0  0  0  0  0  0  0  0  0  0
   -0.6292    0.2048    0.4915 C   0  0  0  0  0  0  0  0  0  0  0  0
   -1.8463    0.7107    1.1971 C   0  0  0  0  0  0  0  0  0  0  0  0
   -3.1343    0.1214    0.8209 N   0  0  0  0  0  0  0  0  0  0  0  0
   -3.7781    0.4635   -0.3772 C   0  0  0  0  0  0  0  0  0  0  0  0
   -3.1426    1.1592   -1.4149 C   0  0  0  0  0  0  0  0  0  0  0  0
   -3.7947    1.4354   -2.6217 C   0  0  0  0  0  0  0  0  0  0  0  0
   -5.1040    1.0090   -2.8339 C   0  0  0  0  0  0  0  0  0  0  0  0
   -5.7894    1.2819   -4.1387 C   0  0  0  0  0  0  0  0  0  0  0  0
   -5.7369    0.2704   -1.8319 C   0  0  0  0  0  0  0  0  0  0  0  0
   -5.0864   -0.0174   -0.6163 C   0  0  0  0  0  0  0  0  0  0  0  0
   -5.8232   -0.8386    0.4099 C   0  0  0  0  0  0  0  0  0  0  0  0
   -0.3400   -1.1183    0.2261 N   0  0  0  0  0  0  0  0  0  0  0  0
   -1.1736   -2.2708    0.5120 C   0  0  0  0  0  0  0  0  0  0  0  0
   -1.3274   -2.5063    1.9710 C   0  0  0  0  0  0  0  0  0  0  0  0
   -2.4238   -2.7215    2.7819 C   0  0  0  0  0  0  0  0  0  0  0  0
   -1.9228   -2.8968    4.0946 C   0  0  0  0  0  0  0  0  0  0  0  0
   -0.5559   -2.7857    4.0012 C   0  0  0  0  0  0  0  0  0  0  0  0
   -0.1862   -2.5519    2.7167 O   0  0  0  0  0  0  0  0  0  0  0  0
    5.3955    0.4204   -0.8102 C   0  0  0  0  0  0  0  0  0  0  0  0
    6.1228    1.6053   -0.6299 C   0  0  0  0  0  0  0  0  0  0  0  0
    6.8045    4.3470   -0.8545 H   0  0  0  0  0  0  0  0  0  0  0  0
    8.3152    3.3853   -0.6113 H   0  0  0  0  0  0  0  0  0  0  0  0
    8.0489    4.8884    0.2801 H   0  0  0  0  0  0  0  0  0  0  0  0
    5.7521    1.9601    2.7263 H   0  0  0  0  0  0  0  0  0  0  0  0
    4.4677   -0.1267    2.4202 H   0  0  0  0  0  0  0  0  0  0  0  0
    3.3098   -0.9338   -1.8467 H   0  0  0  0  0  0  0  0  0  0  0  0
    4.0125   -2.5505   -1.6887 H   0  0  0  0  0  0  0  0  0  0  0  0
   -1.9002    1.8029    1.1078 H   0  0  0  0  0  0  0  0  0  0  0  0
   -1.6983    0.5178    2.2673 H   0  0  0  0  0  0  0  0  0  0  0  0
   -3.7912    0.1625    1.5964 H   0  0  0  0  0  0  0  0  0  0  0  0
   -2.1226    1.5202   -1.3161 H   0  0  0  0  0  0  0  0  0  0  0  0
   -3.2626    1.9881   -3.3933 H   0  0  0  0  0  0  0  0  0  0  0  0
   -5.5327    2.2806   -4.5084 H   0  0  0  0  0  0  0  0  0  0  0  0
   -5.4884    0.5378   -4.8831 H   0  0  0  0  0  0  0  0  0  0  0  0
   -6.8783    1.2467   -4.0279 H   0  0  0  0  0  0  0  0  0  0  0  0
   -6.7483   -0.0949   -1.9996 H   0  0  0  0  0  0  0  0  0  0  0  0
   -6.7672   -1.2285    0.0136 H   0  0  0  0  0  0  0  0  0  0  0  0
   -5.2209   -1.7011    0.7132 H   0  0  0  0  0  0  0  0  0  0  0  0
   -6.0570   -0.2271    1.2878 H   0  0  0  0  0  0  0  0  0  0  0  0
   -0.7405   -3.1631    0.0529 H   0  0  0  0  0  0  0  0  0  0  0  0
   -2.1386   -2.1151    0.0218 H   0  0  0  0  0  0  0  0  0  0  0  0
   -3.4558   -2.7500    2.4606 H   0  0  0  0  0  0  0  0  0  0  0  0
   -2.4852   -3.0881    4.9976 H   0  0  0  0  0  0  0  0  0  0  0  0
    0.2540   -2.8488    4.7148 H   0  0  0  0  0  0  0  0  0  0  0  0
    5.3344    0.0047   -1.8114 H   0  0  0  0  0  0  0  0  0  0  0  0
    6.5767    2.0619   -1.5038 H   0  0  0  0  0  0  0  0  0  0  0  0
  1  2  1  0
  2  3  1  0
  3  4  2  0
  4  5  1  0
  5  6  2  0
  6  7  1  0
  7  8  2  0
  7  9  1  0
  9 10  1  0
 10 11  1  0
 11 12  2  0
 12 13  1  0
 13 14  2  0
 14 15  1  0
 15 16  1  0
 16 17  1  0
 17 18  2  0
 18 19  1  0
 19 20  2  0
 20 21  1  0
 20 22  1  0
 22 23  2  0
 23 24  1  0
 14 25  1  0
 25 26  1  0
 26 27  1  0
 27 28  2  0
 28 29  1  0
 29 30  2  0
 30 31  1  0
  6 32  1  0
 32 33  2  0
 33  3  1  0
 25 11  1  0
 31 27  1  0
 23 17  1  0
  1 34  1  0
  1 35  1  0
  1 36  1  0
  4 37  1  0
  5 38  1  0
  9 39  1  0
  9 40  1  0
 15 41  1  0
 15 42  1  0
 16 43  1  0
 18 44  1  0
 19 45  1  0
 21 46  1  0
 21 47  1  0
 21 48  1  0
 22 49  1  0
 24 50  1  0
 24 51  1  0
 24 52  1  0
 26 53  1  0
 26 54  1  0
 28 55  1  0
 29 56  1  0
 30 57  1  0
 32 58  1  0
 33 59  1  0
M  END
$$$$
