
     RDKit          3D

 51 55  0  0  0  0  0  0  0  0999 V2000
    2.5073   -3.5881    0.6744 O   0  0  0  0  0  0  0  0  0  0  0  0
    1.4824   -3.0831    0.2189 C   0  0  0  0  0  0  0  0  0  0  0  0
    0.1231   -3.2894    0.8964 C   0  0  0  0  0  0  0  0  0  0  0  0
   -0.8575   -2.2217    0.6324 N   0  0  0  0  0  0  0  0  0  0  0  0
   -2.0232   -2.5637   -0.0500 C   0  0  0  0  0  0  0  0  0  0  0  0
   -2.1801   -3.6497   -0.6100 O   0  0  0  0  0  0  0  0  0  0  0  0
   -3.1432   -1.5523   -0.0486 C   0  0  0  0  0  0  0  0  0  0  0  0
   -3.0275   -0.6211   -1.2418 C   0  0  0  0  0  0  0  0  0  0  0  0
   -4.0494    0.4693   -1.1967 C   0  0  0  0  0  0  0  0  0  0  0  0
   -4.9658    0.9393   -2.1169 C   0  0  0  0  0  0  0  0  0  0  0  0
   -5.6531    2.0063   -1.4898 C   0  0  0  0  0  0  0  0  0  0  0  0
   -5.1171    2.1184   -0.2294 C   0  0  0  0  0  0  0  0  0  0  0  0
   -4.1462    1.1901   -0.0399 O   0  0  0  0  0  0  0  0  0  0  0  0
   -1.3590    0.1024   -1.4855 S   0  0  0  0  0  0  0  0  0  0  0  0
   -0.8038    0.2390    0.2156 C   0  0  0  0  0  0  0  0  0  0  0  0
   -0.4609    1.5276    0.6512 C   0  0  0  0  0  0  0  0  0  0  0  0
    0.1428    1.7216    1.8911 C   0  0  0  0  0  0  0  0  0  0  0  0
    0.4285    0.6268    2.6976 C   0  0  0  0  0  0  0  0  0  0  0  0
    0.0972   -0.6629    2.2739 C   0  0  0  0  0  0  0  0  0  0  0  0
   -0.5408   -0.8799    1.0417 C   0  0  0  0  0  0  0  0  0  0  0  0
    1.4502   -2.3952   -0.9745 N   0  0  0  0  0  0  0  0  0  0  0  0
    2.6593   -1.9129   -1.5986 C   0  0  0  0  0  0  0  0  0  0  0  0
    2.9640   -0.5114   -1.1288 C   0  0  0  0  0  0  0  0  0  0  0  0
    2.5121    0.6062   -1.8686 C   0  0  0  0  0  0  0  0  0  0  0  0
    2.7315    1.9095   -1.4101 C   0  0  0  0  0  0  0  0  0  0  0  0
    3.3963    2.0645   -0.2133 C   0  0  0  0  0  0  0  0  0  0  0  0
    3.8393    0.9854    0.5139 C   0  0  0  0  0  0  0  0  0  0  0  0
    3.6401   -0.3100    0.0866 C   0  0  0  0  0  0  0  0  0  0  0  0
    4.4609    1.3556    1.6661 O   0  0  0  0  0  0  0  0  0  0  0  0
    4.3714    2.7914    1.5715 C   0  0  0  0  0  0  0  0  0  0  0  0
    3.6800    3.2496    0.3908 O   0  0  0  0  0  0  0  0  0  0  0  0
    0.2700   -3.3822    1.9766 H   0  0  0  0  0  0  0  0  0  0  0  0
   -0.2564   -4.2571    0.5503 H   0  0  0  0  0  0  0  0  0  0  0  0
   -4.0923   -2.1022   -0.0929 H   0  0  0  0  0  0  0  0  0  0  0  0
   -3.1774   -1.0263    0.9129 H   0  0  0  0  0  0  0  0  0  0  0  0
   -3.2090   -1.2097   -2.1507 H   0  0  0  0  0  0  0  0  0  0  0  0
   -5.1139    0.5619   -3.1194 H   0  0  0  0  0  0  0  0  0  0  0  0
   -6.4398    2.6203   -1.9053 H   0  0  0  0  0  0  0  0  0  0  0  0
   -5.3046    2.7749    0.6082 H   0  0  0  0  0  0  0  0  0  0  0  0
   -0.6379    2.3910    0.0131 H   0  0  0  0  0  0  0  0  0  0  0  0
    0.4124    2.7245    2.2128 H   0  0  0  0  0  0  0  0  0  0  0  0
    0.9153    0.7735    3.6591 H   0  0  0  0  0  0  0  0  0  0  0  0
    0.3244   -1.4830    2.9490 H   0  0  0  0  0  0  0  0  0  0  0  0
    0.5898   -1.9126   -1.2065 H   0  0  0  0  0  0  0  0  0  0  0  0
    2.4987   -1.9263   -2.6817 H   0  0  0  0  0  0  0  0  0  0  0  0
    3.5008   -2.5803   -1.3824 H   0  0  0  0  0  0  0  0  0  0  0  0
    1.9696    0.4602   -2.8020 H   0  0  0  0  0  0  0  0  0  0  0  0
    2.3795    2.7686   -1.9697 H   0  0  0  0  0  0  0  0  0  0  0  0
    3.9830   -1.1476    0.6867 H   0  0  0  0  0  0  0  0  0  0  0  0
    3.8427    3.1681    2.4552 H   0  0  0  0  0  0  0  0  0  0  0  0
    5.3863    3.2068    1.5667 H   0  0  0  0  0  0  0  0  0  0  0  0
  1  2  2  0
  2  3  1  0
  3  4  1  0
  4  5  1  0
  5  6  2  0
  5  7  1  0
  7  8  1  0
  8  9  1  0
  9 10  2  0
 10 11  1  0
 11 12  2  0
 12 13  1  0
  8 14  1  0
 14 15  1  0
 15 16  2  0
 16 17  1  0
 17 18  2  0
 18 19  1  0
 19 20  2  0
  2 21  1  0
 21 22  1  0
 22 23  1  0
 23 24  2  0
 24 25  1  0
 25 26  2  0
 26 27  1  0
 27 28  2  0
 27 29  1  0
 29 30  1  0
 30 31  1  0
 20  4  1  0
 28 23  1  0
 13  9  1  0
 20 15  1  0
 31 26  1  0
  3 32  1  0
  3 33  1  0
  7 34  1  0
  7 35  1  0
  8 36  1  0
 10 37  1  0
 11 38  1  0
 12 39  1  0
 16 40  1  0
 17 41  1  0
 18 42  1  0
 19 43  1  0
 21 44  1  0
 22 45  1  0
 22 46  1  0
 24 47  1  0
 25 48  1  0
 28 49  1  0
 30 50  1  0
 30 51  1  0
M  END
$$$$
