
     RDKit          3D

 55 58  0  0  0  0  0  0  0  0999 V2000
   -6.0982    2.5738    2.3124 C   0  0  0  0  0  0  0  0  0  0  0  0
   -5.0113    1.6712    2.1432 O   0  0  0  0  0  0  0  0  0  0  0  0
   -4.2104    1.4478    3.2415 C   0  0  0  0  0  0  0  0  0  0  0  0
   -4.4117    2.0086    4.5064 C   0  0  0  0  0  0  0  0  0  0  0  0
   -3.5371    1.7080    5.5524 C   0  0  0  0  0  0  0  0  0  0  0  0
   -2.4633    0.8472    5.3407 C   0  0  0  0  0  0  0  0  0  0  0  0
   -2.2543    0.2813    4.0813 C   0  0  0  0  0  0  0  0  0  0  0  0
   -3.1185    0.5778    3.0257 C   0  0  0  0  0  0  0  0  0  0  0  0
   -2.9792    0.0429    1.7242 N   0  0  0  0  0  0  0  0  0  0  0  0
   -1.9693   -0.7581    1.2339 C   0  0  0  0  0  0  0  0  0  0  0  0
   -0.9489   -1.0852    1.8345 O   0  0  0  0  0  0  0  0  0  0  0  0
   -2.1307   -1.2011   -0.1897 C   0  0  0  0  0  0  0  0  0  0  0  0
   -3.4203   -1.4329   -0.7027 C   0  0  0  0  0  0  0  0  0  0  0  0
   -3.5913   -1.8237   -2.0294 C   0  0  0  0  0  0  0  0  0  0  0  0
   -2.4798   -1.9961   -2.8470 C   0  0  0  0  0  0  0  0  0  0  0  0
   -1.1919   -1.7950   -2.3406 C   0  0  0  0  0  0  0  0  0  0  0  0
   -0.9945   -1.4059   -1.0106 C   0  0  0  0  0  0  0  0  0  0  0  0
    0.2999   -1.2333   -0.4565 N   0  0  0  0  0  0  0  0  0  0  0  0
    1.5247   -1.3098   -1.0876 C   0  0  0  0  0  0  0  0  0  0  0  0
    1.7093   -1.4264   -2.2948 O   0  0  0  0  0  0  0  0  0  0  0  0
    2.7199   -1.1770   -0.1933 C   0  0  0  0  0  0  0  0  0  0  0  0
    2.6622   -1.6966    1.1130 C   0  0  0  0  0  0  0  0  0  0  0  0
    3.7533   -1.5592    1.9650 C   0  0  0  0  0  0  0  0  0  0  0  0
    3.6771   -2.1911    3.5630 Cl  0  0  0  0  0  0  0  0  0  0  0  0
    4.9066   -0.9177    1.5309 C   0  0  0  0  0  0  0  0  0  0  0  0
    4.9814   -0.4195    0.2261 C   0  0  0  0  0  0  0  0  0  0  0  0
    3.9027   -0.5495   -0.6584 C   0  0  0  0  0  0  0  0  0  0  0  0
    3.9644   -0.0817   -1.9925 N   0  0  0  0  0  0  0  0  0  0  0  0
    4.9847    0.5882   -2.6410 C   0  0  0  0  0  0  0  0  0  0  0  0
    6.0413    0.9395   -2.1250 O   0  0  0  0  0  0  0  0  0  0  0  0
    4.6877    0.8589   -4.0369 C   0  0  0  0  0  0  0  0  0  0  0  0
    5.4351    1.4766   -5.0226 C   0  0  0  0  0  0  0  0  0  0  0  0
    4.6496    1.4644   -6.2000 C   0  0  0  0  0  0  0  0  0  0  0  0
    3.4698    0.8439   -5.8650 C   0  0  0  0  0  0  0  0  0  0  0  0
    3.4795    0.4742   -4.5591 O   0  0  0  0  0  0  0  0  0  0  0  0
   -6.6144    2.6576    1.3513 H   0  0  0  0  0  0  0  0  0  0  0  0
   -6.8175    2.1914    3.0440 H   0  0  0  0  0  0  0  0  0  0  0  0
   -5.7438    3.5727    2.5870 H   0  0  0  0  0  0  0  0  0  0  0  0
   -5.2375    2.6802    4.7141 H   0  0  0  0  0  0  0  0  0  0  0  0
   -3.6949    2.1445    6.5357 H   0  0  0  0  0  0  0  0  0  0  0  0
   -1.7846    0.6107    6.1566 H   0  0  0  0  0  0  0  0  0  0  0  0
   -1.4115   -0.3907    3.9582 H   0  0  0  0  0  0  0  0  0  0  0  0
   -3.6936    0.3777    1.0854 H   0  0  0  0  0  0  0  0  0  0  0  0
   -4.3027   -1.3396   -0.0747 H   0  0  0  0  0  0  0  0  0  0  0  0
   -4.5888   -2.0033   -2.4233 H   0  0  0  0  0  0  0  0  0  0  0  0
   -2.6068   -2.3048   -3.8823 H   0  0  0  0  0  0  0  0  0  0  0  0
   -0.3575   -1.9681   -3.0135 H   0  0  0  0  0  0  0  0  0  0  0  0
    0.2925   -1.0225    0.5434 H   0  0  0  0  0  0  0  0  0  0  0  0
    1.7813   -2.2247    1.4701 H   0  0  0  0  0  0  0  0  0  0  0  0
    5.7613   -0.8079    2.1943 H   0  0  0  0  0  0  0  0  0  0  0  0
    5.9110    0.0573   -0.0700 H   0  0  0  0  0  0  0  0  0  0  0  0
    3.1599   -0.3146   -2.5835 H   0  0  0  0  0  0  0  0  0  0  0  0
    6.4299    1.8812   -4.8921 H   0  0  0  0  0  0  0  0  0  0  0  0
    4.9103    1.8588   -7.1720 H   0  0  0  0  0  0  0  0  0  0  0  0
    2.5692    0.5999   -6.4117 H   0  0  0  0  0  0  0  0  0  0  0  0
  1  2  1  0
  2  3  1  0
  3  4  2  0
  4  5  1  0
  5  6  2  0
  6  7  1  0
  7  8  2  0
  8  9  1  0
  9 10  1  0
 10 11  2  0
 10 12  1  0
 12 13  2  0
 13 14  1  0
 14 15  2  0
 15 16  1  0
 16 17  2  0
 17 18  1  0
 18 19  1  0
 19 20  2  0
 19 21  1  0
 21 22  2  0
 22 23  1  0
 23 24  1  0
 23 25  2  0
 25 26  1  0
 26 27  2  0
 27 28  1  0
 28 29  1  0
 29 30  2  0
 29 31  1  0
 31 32  2  0
 32 33  1  0
 33 34  2  0
 34 35  1  0
  8  3  1  0
 17 12  1  0
 27 21  1  0
 35 31  1  0
  1 36  1  0
  1 37  1  0
  1 38  1  0
  4 39  1  0
  5 40  1  0
  6 41  1  0
  7 42  1  0
  9 43  1  0
 13 44  1  0
 14 45  1  0
 15 46  1  0
 16 47  1  0
 18 48  1  0
 22 49  1  0
 25 50  1  0
 26 51  1  0
 28 52  1  0
 32 53  1  0
 33 54  1  0
 34 55  1  0
M  END
$$$$
