
     RDKit          3D

 43 45  0  0  0  0  0  0  0  0999 V2000
   -6.2109   -0.2414   -1.2088 C   0  0  0  0  0  0  0  0  0  0  0  0
   -5.0448   -1.0532   -0.8642 N   0  0  0  0  0  0  0  0  0  0  0  0
   -4.6708   -2.0637   -1.8530 C   0  0  0  0  0  0  0  0  0  0  0  0
   -4.0386   -0.4882   -0.0689 C   0  0  0  0  0  0  0  0  0  0  0  0
   -2.7788   -1.0940    0.0850 C   0  0  0  0  0  0  0  0  0  0  0  0
   -1.7717   -0.5433    0.8930 C   0  0  0  0  0  0  0  0  0  0  0  0
   -1.9914    0.6458    1.5831 C   0  0  0  0  0  0  0  0  0  0  0  0
   -0.9787    1.2247    2.4688 C   0  0  0  0  0  0  0  0  0  0  0  0
    0.2420    1.6575    2.1216 C   0  0  0  0  0  0  0  0  0  0  0  0
    1.3489    2.3134    3.2910 S   0  0  0  0  0  0  0  0  0  0  0  0
    2.6181    2.5976    2.1001 C   0  0  0  0  0  0  0  0  0  0  0  0
    4.0824    3.3016    2.4802 S   0  0  0  0  0  0  0  0  0  0  0  0
    2.1564    2.1671    0.8752 N   0  0  0  0  0  0  0  0  0  0  0  0
    2.9460    2.2403   -0.3002 N   0  0  0  0  0  0  0  0  0  0  0  0
    3.6458    1.0203   -0.5495 C   0  0  0  0  0  0  0  0  0  0  0  0
    3.7230    0.0812    0.4303 N   0  0  0  0  0  0  0  0  0  0  0  0
    4.4351   -1.0446    0.1864 C   0  0  0  0  0  0  0  0  0  0  0  0
    5.0894   -1.3063   -1.0070 C   0  0  0  0  0  0  0  0  0  0  0  0
    5.8707   -2.5721   -1.1751 C   0  0  0  0  0  0  0  0  0  0  0  0
    7.1316   -2.4713   -0.6762 F   0  0  0  0  0  0  0  0  0  0  0  0
    6.0097   -2.9431   -2.4774 F   0  0  0  0  0  0  0  0  0  0  0  0
    5.2999   -3.6346   -0.5443 F   0  0  0  0  0  0  0  0  0  0  0  0
    5.0169   -0.3334   -2.0074 C   0  0  0  0  0  0  0  0  0  0  0  0
    4.2936    0.8377   -1.7807 C   0  0  0  0  0  0  0  0  0  0  0  0
    4.2091    2.0156   -3.0395 Cl  0  0  0  0  0  0  0  0  0  0  0  0
    0.8599    1.6903    0.7629 C   0  0  0  0  0  0  0  0  0  0  0  0
    0.3130    1.3946   -0.2911 O   0  0  0  0  0  0  0  0  0  0  0  0
   -3.2393    1.2547    1.4759 C   0  0  0  0  0  0  0  0  0  0  0  0
   -4.2392    0.6937    0.6660 C   0  0  0  0  0  0  0  0  0  0  0  0
   -6.9142   -0.8033   -1.8339 H   0  0  0  0  0  0  0  0  0  0  0  0
   -6.7725    0.0469   -0.3137 H   0  0  0  0  0  0  0  0  0  0  0  0
   -5.9170    0.6553   -1.7655 H   0  0  0  0  0  0  0  0  0  0  0  0
   -4.2640   -2.9591   -1.3710 H   0  0  0  0  0  0  0  0  0  0  0  0
   -3.9424   -1.6657   -2.5682 H   0  0  0  0  0  0  0  0  0  0  0  0
   -5.5428   -2.4023   -2.4239 H   0  0  0  0  0  0  0  0  0  0  0  0
   -2.5401   -2.0241   -0.4210 H   0  0  0  0  0  0  0  0  0  0  0  0
   -0.8189   -1.0614    0.9673 H   0  0  0  0  0  0  0  0  0  0  0  0
   -1.2999    1.2961    3.5069 H   0  0  0  0  0  0  0  0  0  0  0  0
    2.3458    2.4181   -1.1116 H   0  0  0  0  0  0  0  0  0  0  0  0
    4.4616   -1.7512    1.0148 H   0  0  0  0  0  0  0  0  0  0  0  0
    5.5233   -0.4868   -2.9587 H   0  0  0  0  0  0  0  0  0  0  0  0
   -3.4569    2.1724    2.0171 H   0  0  0  0  0  0  0  0  0  0  0  0
   -5.1890    1.2181    0.6326 H   0  0  0  0  0  0  0  0  0  0  0  0
  1  2  1  0
  2  3  1  0
  2  4  1  0
  4  5  2  0
  5  6  1  0
  6  7  2  0
  7  8  1  0
  8  9  2  3
  9 10  1  0
 10 11  1  0
 11 12  2  0
 11 13  1  0
 13 14  1  0
 14 15  1  0
 15 16  2  0
 16 17  1  0
 17 18  2  0
 18 19  1  0
 19 20  1  0
 19 21  1  0
 19 22  1  0
 18 23  1  0
 23 24  2  0
 24 25  1  0
 13 26  1  0
 26 27  2  0
  7 28  1  0
 28 29  2  0
 29  4  1  0
 26  9  1  0
 24 15  1  0
  1 30  1  0
  1 31  1  0
  1 32  1  0
  3 33  1  0
  3 34  1  0
  3 35  1  0
  5 36  1  0
  6 37  1  0
  8 38  1  0
 14 39  1  0
 17 40  1  0
 23 41  1  0
 28 42  1  0
 29 43  1  0
M  END
$$$$
