
     RDKit          3D

 53 54  0  0  0  0  0  0  0  0999 V2000
   -5.0987   -1.5718   -2.6651 C   0  0  0  0  0  0  0  0  0  0  0  0
   -6.1448   -1.9939   -1.6490 C   0  0  0  0  0  0  0  0  0  0  0  0
   -6.0445   -1.2561   -0.3772 N   0  0  0  0  0  0  0  0  0  0  0  0
   -6.4552    0.1578   -0.3785 C   0  0  0  0  0  0  0  0  0  0  0  0
   -7.8919    0.2717    0.1020 C   0  0  0  0  0  0  0  0  0  0  0  0
   -5.1492   -1.8701    0.9142 S   0  0  0  0  0  6  0  0  0  0  0  0
   -5.4953   -1.1247    2.1064 O   0  0  0  0  0  0  0  0  0  0  0  0
   -5.2399   -3.3149    0.8850 O   0  0  0  0  0  0  0  0  0  0  0  0
   -3.4697   -1.4361    0.5039 C   0  0  0  0  0  0  0  0  0  0  0  0
   -2.6153   -2.4021   -0.0367 C   0  0  0  0  0  0  0  0  0  0  0  0
   -1.2896   -2.0676   -0.3256 C   0  0  0  0  0  0  0  0  0  0  0  0
   -0.8091   -0.7763   -0.0610 C   0  0  0  0  0  0  0  0  0  0  0  0
    0.6106   -0.4746   -0.3905 C   0  0  0  0  0  0  0  0  0  0  0  0
    1.4029   -1.3124   -0.7921 O   0  0  0  0  0  0  0  0  0  0  0  0
    0.8736    0.8438   -0.2133 O   0  0  0  0  0  0  0  0  0  0  0  0
    2.2443    1.1881   -0.4094 C   0  0  0  0  0  0  0  0  0  0  0  0
    3.1396    0.7356    0.7478 C   0  0  0  0  0  0  0  0  0  0  0  0
    2.7119    0.5029    1.8759 O   0  0  0  0  0  0  0  0  0  0  0  0
    4.4739    0.6394    0.4184 N   0  0  0  0  0  0  0  0  0  0  0  0
    5.4554    0.1658    1.3791 C   0  0  0  0  0  0  0  0  0  0  0  0
    6.8841    0.1713    0.8253 C   0  0  0  0  0  0  0  0  0  0  0  0
    7.3531    1.5085    0.4970 N   0  0  0  0  0  0  0  0  0  0  0  0
    8.0856    2.2911    1.3543 C   0  0  0  0  0  0  0  0  0  0  0  0
    8.4446    1.7849    2.5665 O   0  0  0  0  0  0  0  0  0  0  0  0
    8.3682    3.5128    0.8872 C   0  0  0  0  0  0  0  0  0  0  0  0
    7.6942    3.7527   -0.6975 S   0  0  0  0  0  0  0  0  0  0  0  0
    6.9838    2.1297   -0.6850 C   0  0  0  0  0  0  0  0  0  0  0  0
    6.2688    1.6876   -1.5720 O   0  0  0  0  0  0  0  0  0  0  0  0
   -1.6653    0.1748    0.5139 C   0  0  0  0  0  0  0  0  0  0  0  0
   -2.9925   -0.1563    0.8039 C   0  0  0  0  0  0  0  0  0  0  0  0
   -4.0862   -1.7811   -2.3164 H   0  0  0  0  0  0  0  0  0  0  0  0
   -5.1576   -0.5046   -2.8965 H   0  0  0  0  0  0  0  0  0  0  0  0
   -5.2454   -2.1222   -3.6002 H   0  0  0  0  0  0  0  0  0  0  0  0
   -7.1451   -1.8311   -2.0676 H   0  0  0  0  0  0  0  0  0  0  0  0
   -6.0722   -3.0720   -1.4739 H   0  0  0  0  0  0  0  0  0  0  0  0
   -6.3723    0.5883   -1.3810 H   0  0  0  0  0  0  0  0  0  0  0  0
   -5.8037    0.7579    0.2630 H   0  0  0  0  0  0  0  0  0  0  0  0
   -8.0030   -0.1216    1.1177 H   0  0  0  0  0  0  0  0  0  0  0  0
   -8.5713   -0.2885   -0.5489 H   0  0  0  0  0  0  0  0  0  0  0  0
   -8.2096    1.3190    0.1053 H   0  0  0  0  0  0  0  0  0  0  0  0
   -2.9694   -3.4118   -0.2350 H   0  0  0  0  0  0  0  0  0  0  0  0
   -0.6286   -2.8215   -0.7508 H   0  0  0  0  0  0  0  0  0  0  0  0
    2.6085    0.7961   -1.3664 H   0  0  0  0  0  0  0  0  0  0  0  0
    2.3026    2.2807   -0.4590 H   0  0  0  0  0  0  0  0  0  0  0  0
    4.7539    0.7372   -0.5569 H   0  0  0  0  0  0  0  0  0  0  0  0
    5.3818    0.7928    2.2751 H   0  0  0  0  0  0  0  0  0  0  0  0
    5.1721   -0.8543    1.6617 H   0  0  0  0  0  0  0  0  0  0  0  0
    7.5695   -0.2979    1.5395 H   0  0  0  0  0  0  0  0  0  0  0  0
    6.9163   -0.4283   -0.0931 H   0  0  0  0  0  0  0  0  0  0  0  0
    8.9417    2.4669    3.0500 H   0  0  0  0  0  0  0  0  0  0  0  0
    8.9286    4.2808    1.3995 H   0  0  0  0  0  0  0  0  0  0  0  0
   -1.3066    1.1724    0.7581 H   0  0  0  0  0  0  0  0  0  0  0  0
   -3.6375    0.5808    1.2767 H   0  0  0  0  0  0  0  0  0  0  0  0
  1  2  1  0
  2  3  1  0
  3  4  1  0
  4  5  1  0
  3  6  1  0
  6  7  2  0
  6  8  2  0
  6  9  1  0
  9 10  2  0
 10 11  1  0
 11 12  2  0
 12 13  1  0
 13 14  2  0
 13 15  1  0
 15 16  1  0
 16 17  1  0
 17 18  2  0
 17 19  1  0
 19 20  1  0
 20 21  1  0
 21 22  1  0
 22 23  1  0
 23 24  1  0
 23 25  2  0
 25 26  1  0
 26 27  1  0
 27 28  2  0
 12 29  1  0
 29 30  2  0
 30  9  1  0
 27 22  1  0
  1 31  1  0
  1 32  1  0
  1 33  1  0
  2 34  1  0
  2 35  1  0
  4 36  1  0
  4 37  1  0
  5 38  1  0
  5 39  1  0
  5 40  1  0
 10 41  1  0
 11 42  1  0
 16 43  1  0
 16 44  1  0
 19 45  1  0
 20 46  1  0
 20 47  1  0
 21 48  1  0
 21 49  1  0
 24 50  1  0
 25 51  1  0
 29 52  1  0
 30 53  1  0
M  END
$$$$
