
     RDKit          3D

 28 28  0  0  0  0  0  0  0  0999 V2000
   -1.1522   -2.1731    0.7916 C   0  0  0  0  0  0  0  0  0  0  0  0
   -2.1707   -1.1434    0.2868 C   0  0  0  0  0  0  0  0  0  0  0  0
   -2.4155   -1.3310   -1.2165 C   0  0  0  0  0  0  0  0  0  0  0  0
   -3.4975   -1.3714    1.0348 C   0  0  0  0  0  0  0  0  0  0  0  0
   -1.6840    0.3016    0.5368 C   0  0  0  0  0  0  0  0  0  0  0  0
   -2.4190    1.1406    1.0690 O   0  0  0  0  0  0  0  0  0  0  0  0
   -0.2922    0.6957    0.0760 C   0  0  0  0  0  0  0  0  0  0  0  0
    0.8308    0.7398    1.4989 S   0  0  0  0  0  0  0  0  0  0  0  0
    2.3032    1.3200    0.6986 C   0  0  0  0  0  0  0  0  0  0  0  0
    3.3070    1.7071    1.5030 N   0  0  0  0  0  0  0  0  0  0  0  0
    4.4292    2.1387    0.8999 C   0  0  0  0  0  0  0  0  0  0  0  0
    4.5840    2.1913   -0.4637 C   0  0  0  0  0  0  0  0  0  0  0  0
    3.5023    1.7669   -1.1966 C   0  0  0  0  0  0  0  0  0  0  0  0
    2.3556    1.3256   -0.6455 N   0  0  0  0  0  0  0  0  0  0  0  0
   -0.9235   -2.0152    1.8515 H   0  0  0  0  0  0  0  0  0  0  0  0
   -0.2086   -2.1223    0.2386 H   0  0  0  0  0  0  0  0  0  0  0  0
   -1.5351   -3.1942    0.6814 H   0  0  0  0  0  0  0  0  0  0  0  0
   -2.8452   -2.3166   -1.4283 H   0  0  0  0  0  0  0  0  0  0  0  0
   -1.4887   -1.2462   -1.7936 H   0  0  0  0  0  0  0  0  0  0  0  0
   -3.1068   -0.5721   -1.6008 H   0  0  0  0  0  0  0  0  0  0  0  0
   -3.8703   -2.3908    0.8838 H   0  0  0  0  0  0  0  0  0  0  0  0
   -4.2753   -0.6803    0.6897 H   0  0  0  0  0  0  0  0  0  0  0  0
   -3.3750   -1.2153    2.1130 H   0  0  0  0  0  0  0  0  0  0  0  0
   -0.3653    1.6859   -0.3871 H   0  0  0  0  0  0  0  0  0  0  0  0
    0.0674   -0.0023   -0.6834 H   0  0  0  0  0  0  0  0  0  0  0  0
    5.2249    2.4504    1.5705 H   0  0  0  0  0  0  0  0  0  0  0  0
    5.4950    2.5421   -0.9276 H   0  0  0  0  0  0  0  0  0  0  0  0
    3.5255    1.7686   -2.2826 H   0  0  0  0  0  0  0  0  0  0  0  0
  1  2  1  0
  2  3  1  0
  2  4  1  0
  2  5  1  0
  5  6  2  0
  5  7  1  0
  7  8  1  0
  8  9  1  0
  9 10  2  0
 10 11  1  0
 11 12  2  0
 12 13  1  0
 13 14  2  0
 14  9  1  0
  1 15  1  0
  1 16  1  0
  1 17  1  0
  3 18  1  0
  3 19  1  0
  3 20  1  0
  4 21  1  0
  4 22  1  0
  4 23  1  0
  7 24  1  0
  7 25  1  0
 11 26  1  0
 12 27  1  0
 13 28  1  0
M  END
$$$$
