
     RDKit          3D

 44 47  0  0  0  0  0  0  0  0999 V2000
   -1.2817    4.3305   -1.1904 C   0  0  0  0  0  0  0  0  0  0  0  0
   -1.6885    3.0587   -0.6104 N   0  0  0  0  0  0  0  0  0  0  0  0
   -2.9361    2.9324   -0.0309 C   0  0  0  0  0  0  0  0  0  0  0  0
   -3.7381    3.8635    0.0283 O   0  0  0  0  0  0  0  0  0  0  0  0
   -3.3060    1.6026    0.5425 C   0  0  0  0  0  0  0  0  0  0  0  0
   -4.6060    1.5112    1.1293 C   0  0  0  0  0  0  0  0  0  0  0  0
   -5.6519    1.3919    1.6191 N   0  0  0  0  0  0  0  0  0  0  0  0
   -2.4484    0.5566    0.5020 C   0  0  0  0  0  0  0  0  0  0  0  0
   -2.8765   -0.7369    1.0916 C   0  0  0  0  0  0  0  0  0  0  0  0
   -3.4941   -1.7067    0.2874 C   0  0  0  0  0  0  0  0  0  0  0  0
   -3.8885   -2.9256    0.8417 C   0  0  0  0  0  0  0  0  0  0  0  0
   -3.6655   -3.1705    2.1918 C   0  0  0  0  0  0  0  0  0  0  0  0
   -4.0423   -4.3417    2.7205 F   0  0  0  0  0  0  0  0  0  0  0  0
   -3.0543   -2.2196    3.0013 C   0  0  0  0  0  0  0  0  0  0  0  0
   -2.6569   -0.9993    2.4526 C   0  0  0  0  0  0  0  0  0  0  0  0
   -1.1239    0.7550   -0.1324 C   0  0  0  0  0  0  0  0  0  0  0  0
   -0.1807   -0.2823   -0.2122 C   0  0  0  0  0  0  0  0  0  0  0  0
    1.0607   -0.0592   -0.8097 C   0  0  0  0  0  0  0  0  0  0  0  0
    2.0314   -1.1654   -0.9132 C   0  0  0  0  0  0  0  0  0  0  0  0
    1.6119   -2.2989   -1.1407 O   0  0  0  0  0  0  0  0  0  0  0  0
    3.4966   -0.9685   -0.7759 C   0  0  0  0  0  0  0  0  0  0  0  0
    4.0132    0.0459    0.0407 C   0  0  0  0  0  0  0  0  0  0  0  0
    5.3945    0.2120    0.1472 C   0  0  0  0  0  0  0  0  0  0  0  0
    6.0200    1.4677    1.1430 Cl  0  0  0  0  0  0  0  0  0  0  0  0
    6.2701   -0.6239   -0.5398 C   0  0  0  0  0  0  0  0  0  0  0  0
    5.7599   -1.6520   -1.3324 C   0  0  0  0  0  0  0  0  0  0  0  0
    6.8768   -2.6804   -2.1538 Cl  0  0  0  0  0  0  0  0  0  0  0  0
    4.3764   -1.8383   -1.4434 C   0  0  0  0  0  0  0  0  0  0  0  0
    3.9116   -2.8747   -2.2139 O   0  0  0  0  0  0  0  0  0  0  0  0
    1.3077    1.1913   -1.3448 C   0  0  0  0  0  0  0  0  0  0  0  0
    0.4278    2.2153   -1.2742 N   0  0  0  0  0  0  0  0  0  0  0  0
   -0.7701    1.9913   -0.6762 C   0  0  0  0  0  0  0  0  0  0  0  0
   -0.3824    4.6919   -0.6811 H   0  0  0  0  0  0  0  0  0  0  0  0
   -2.0599    5.0917   -1.0855 H   0  0  0  0  0  0  0  0  0  0  0  0
   -1.0805    4.1954   -2.2582 H   0  0  0  0  0  0  0  0  0  0  0  0
   -3.6740   -1.5235   -0.7699 H   0  0  0  0  0  0  0  0  0  0  0  0
   -4.3699   -3.6840    0.2318 H   0  0  0  0  0  0  0  0  0  0  0  0
   -2.8962   -2.4345    4.0537 H   0  0  0  0  0  0  0  0  0  0  0  0
   -2.1827   -0.2602    3.0946 H   0  0  0  0  0  0  0  0  0  0  0  0
   -0.3994   -1.2728    0.1839 H   0  0  0  0  0  0  0  0  0  0  0  0
    3.3601    0.7003    0.6127 H   0  0  0  0  0  0  0  0  0  0  0  0
    7.3448   -0.4843   -0.4513 H   0  0  0  0  0  0  0  0  0  0  0  0
    2.9636   -3.0294   -2.0021 H   0  0  0  0  0  0  0  0  0  0  0  0
    2.2274    1.4271   -1.8734 H   0  0  0  0  0  0  0  0  0  0  0  0
  1  2  1  0
  2  3  1  0
  3  4  2  0
  3  5  1  0
  5  6  1  0
  6  7  3  0
  5  8  2  0
  8  9  1  0
  9 10  2  0
 10 11  1  0
 11 12  2  0
 12 13  1  0
 12 14  1  0
 14 15  2  0
  8 16  1  0
 16 17  2  0
 17 18  1  0
 18 19  1  0
 19 20  2  0
 19 21  1  0
 21 22  2  0
 22 23  1  0
 23 24  1  0
 23 25  2  0
 25 26  1  0
 26 27  1  0
 26 28  2  0
 28 29  1  0
 18 30  2  0
 30 31  1  0
 31 32  2  0
 32  2  1  0
 15  9  1  0
 32 16  1  0
 28 21  1  0
  1 33  1  0
  1 34  1  0
  1 35  1  0
 10 36  1  0
 11 37  1  0
 14 38  1  0
 15 39  1  0
 17 40  1  0
 22 41  1  0
 25 42  1  0
 29 43  1  0
 30 44  1  0
M  END
$$$$
