
     RDKit          3D

 43 45  0  0  0  0  0  0  0  0999 V2000
   -2.1557    0.3017   -2.0496 C   0  0  0  0  0  0  0  0  0  0  0  0
   -2.2460   -0.5547   -0.7687 C   0  0  0  0  0  0  0  0  0  0  0  0
   -2.2419   -2.0270   -1.2285 C   0  0  0  0  0  0  0  0  0  0  0  0
   -3.4417   -0.1958    0.1584 C   0  0  0  0  0  0  0  0  0  0  0  0
   -3.1897   -1.0739    1.4045 C   0  0  0  0  0  0  0  0  0  0  0  0
   -1.6523   -1.0542    1.5422 C   0  0  0  0  0  0  0  0  0  0  0  0
   -1.1928   -0.2063    0.3308 C   0  0  0  0  0  0  0  0  0  0  0  0
    0.2632   -0.2602   -0.0915 C   0  0  0  0  0  0  0  0  0  0  0  0
    1.4132   -0.4167    1.2806 S   0  0  0  0  0  6  0  0  0  0  0  0
    1.0463    0.4893    2.3441 O   0  0  0  0  0  0  0  0  0  0  0  0
    1.5728   -1.8334    1.5377 O   0  0  0  0  0  0  0  0  0  0  0  0
    2.8569    0.1375    0.6196 N   0  0  0  0  0  0  0  0  0  0  0  0
    3.5221   -0.6579   -0.4444 C   0  0  0  0  0  0  0  0  0  0  0  0
    3.6629    0.1682   -1.7272 C   0  0  0  0  0  0  0  0  0  0  0  0
    4.4050    1.3830   -1.5605 O   0  0  0  0  0  0  0  0  0  0  0  0
    4.3565    1.9102   -0.2261 C   0  0  0  0  0  0  0  0  0  0  0  0
    3.0363    1.6103    0.4907 C   0  0  0  0  0  0  0  0  0  0  0  0
   -1.6658    1.2144    0.6537 C   0  0  0  0  0  0  0  0  0  0  0  0
   -0.9444    2.1756    0.8688 O   0  0  0  0  0  0  0  0  0  0  0  0
   -3.1777    1.2715    0.5720 C   0  0  0  0  0  0  0  0  0  0  0  0
   -2.0673    1.3756   -1.8654 H   0  0  0  0  0  0  0  0  0  0  0  0
   -1.2804    0.0172   -2.6450 H   0  0  0  0  0  0  0  0  0  0  0  0
   -3.0456    0.1519   -2.6715 H   0  0  0  0  0  0  0  0  0  0  0  0
   -3.1342   -2.2397   -1.8285 H   0  0  0  0  0  0  0  0  0  0  0  0
   -1.3658   -2.2384   -1.8519 H   0  0  0  0  0  0  0  0  0  0  0  0
   -2.2236   -2.7538   -0.4134 H   0  0  0  0  0  0  0  0  0  0  0  0
   -4.4335   -0.3442   -0.2756 H   0  0  0  0  0  0  0  0  0  0  0  0
   -3.6819   -0.6813    2.3006 H   0  0  0  0  0  0  0  0  0  0  0  0
   -3.5533   -2.0960    1.2549 H   0  0  0  0  0  0  0  0  0  0  0  0
   -1.2517   -2.0727    1.5134 H   0  0  0  0  0  0  0  0  0  0  0  0
   -1.3718   -0.6070    2.5020 H   0  0  0  0  0  0  0  0  0  0  0  0
    0.4556   -1.1209   -0.7400 H   0  0  0  0  0  0  0  0  0  0  0  0
    0.5306    0.6425   -0.6475 H   0  0  0  0  0  0  0  0  0  0  0  0
    4.5111   -0.9463   -0.0699 H   0  0  0  0  0  0  0  0  0  0  0  0
    2.9704   -1.5775   -0.6611 H   0  0  0  0  0  0  0  0  0  0  0  0
    2.6743    0.4373   -2.1167 H   0  0  0  0  0  0  0  0  0  0  0  0
    4.1666   -0.4202   -2.5007 H   0  0  0  0  0  0  0  0  0  0  0  0
    5.2032    1.4916    0.3307 H   0  0  0  0  0  0  0  0  0  0  0  0
    4.5125    2.9913   -0.2953 H   0  0  0  0  0  0  0  0  0  0  0  0
    2.2064    2.0366   -0.0815 H   0  0  0  0  0  0  0  0  0  0  0  0
    3.0566    2.0622    1.4874 H   0  0  0  0  0  0  0  0  0  0  0  0
   -3.6176    1.5337    1.5367 H   0  0  0  0  0  0  0  0  0  0  0  0
   -3.4878    1.9765   -0.2027 H   0  0  0  0  0  0  0  0  0  0  0  0
  1  2  1  0
  2  3  1  0
  2  4  1  0
  4  5  1  0
  5  6  1  0
  6  7  1  0
  7  8  1  0
  8  9  1  0
  9 10  2  0
  9 11  2  0
  9 12  1  0
 12 13  1  0
 13 14  1  0
 14 15  1  0
 15 16  1  0
 16 17  1  0
  7 18  1  0
 18 19  2  0
 18 20  1  0
  7  2  1  0
 17 12  1  0
 20  4  1  0
  1 21  1  0
  1 22  1  0
  1 23  1  0
  3 24  1  0
  3 25  1  0
  3 26  1  0
  4 27  1  0
  5 28  1  0
  5 29  1  0
  6 30  1  0
  6 31  1  0
  8 32  1  0
  8 33  1  0
 13 34  1  0
 13 35  1  0
 14 36  1  0
 14 37  1  0
 16 38  1  0
 16 39  1  0
 17 40  1  0
 17 41  1  0
 20 42  1  0
 20 43  1  0
M  END
$$$$
