
     RDKit          3D

 24 25  0  0  0  0  0  0  0  0999 V2000
    4.4924   -1.0982    1.0774 C   0  0  0  0  0  0  0  0  0  0  0  0
    2.7052   -0.8272    1.0836 S   0  0  0  0  0  0  0  0  0  0  0  0
    2.4532   -0.2290   -0.5235 C   0  0  0  0  0  0  0  0  0  0  0  0
    3.4259   -0.0526   -1.3921 N   0  0  0  0  0  0  0  0  0  0  0  0
    2.8640    0.5329   -2.4855 N   0  0  0  0  0  0  0  0  0  0  0  0
    1.5686    0.7250   -2.3078 N   0  0  0  0  0  0  0  0  0  0  0  0
    1.2566    0.2141   -1.0818 N   0  0  0  0  0  0  0  0  0  0  0  0
   -0.1021    0.2220   -0.6456 C   0  0  0  0  0  0  0  0  0  0  0  0
   -0.5467   -0.4675    0.4853 C   0  0  0  0  0  0  0  0  0  0  0  0
   -1.8962   -0.4226    0.8627 C   0  0  0  0  0  0  0  0  0  0  0  0
   -2.8346    0.3045    0.1193 C   0  0  0  0  0  0  0  0  0  0  0  0
   -4.2720    0.3276    0.5564 C   0  0  0  0  0  0  0  0  0  0  0  0
   -2.3935    0.9837   -1.0221 C   0  0  0  0  0  0  0  0  0  0  0  0
   -3.4825    1.8985   -2.0035 Cl  0  0  0  0  0  0  0  0  0  0  0  0
   -1.0470    0.9406   -1.4026 C   0  0  0  0  0  0  0  0  0  0  0  0
    5.0251   -0.1600    0.8986 H   0  0  0  0  0  0  0  0  0  0  0  0
    4.7988   -1.4879    2.0519 H   0  0  0  0  0  0  0  0  0  0  0  0
    4.7702   -1.8280    0.3117 H   0  0  0  0  0  0  0  0  0  0  0  0
    0.1004   -1.0827    1.0982 H   0  0  0  0  0  0  0  0  0  0  0  0
   -2.2096   -0.9736    1.7488 H   0  0  0  0  0  0  0  0  0  0  0  0
   -4.4212   -0.2503    1.4748 H   0  0  0  0  0  0  0  0  0  0  0  0
   -4.9127   -0.1112   -0.2152 H   0  0  0  0  0  0  0  0  0  0  0  0
   -4.5930    1.3541    0.7609 H   0  0  0  0  0  0  0  0  0  0  0  0
   -0.7491    1.4876   -2.2967 H   0  0  0  0  0  0  0  0  0  0  0  0
  1  2  1  0
  2  3  1  0
  3  4  2  0
  4  5  1  0
  5  6  2  0
  6  7  1  0
  7  8  1  0
  8  9  2  0
  9 10  1  0
 10 11  2  0
 11 12  1  0
 11 13  1  0
 13 14  1  0
 13 15  2  0
  7  3  1  0
 15  8  1  0
  1 16  1  0
  1 17  1  0
  1 18  1  0
  9 19  1  0
 10 20  1  0
 12 21  1  0
 12 22  1  0
 12 23  1  0
 15 24  1  0
M  END
$$$$
