
     RDKit          3D

 67 72  0  0  0  0  0  0  0  0999 V2000
   -5.0755    3.9205    1.3690 C   0  0  0  0  0  0  0  0  0  0  0  0
   -4.0150    3.3089    0.5018 C   0  0  0  0  0  0  0  0  0  0  0  0
   -3.7762    3.7651   -0.8080 C   0  0  0  0  0  0  0  0  0  0  0  0
   -4.6839    5.0735   -1.4830 Cl  0  0  0  0  0  0  0  0  0  0  0  0
   -2.8015    3.1680   -1.6310 C   0  0  0  0  0  0  0  0  0  0  0  0
   -2.0352    2.0963   -1.1718 C   0  0  0  0  0  0  0  0  0  0  0  0
   -2.2572    1.6360    0.1180 C   0  0  0  0  0  0  0  0  0  0  0  0
   -3.2438    2.2305    0.9215 C   0  0  0  0  0  0  0  0  0  0  0  0
   -3.3281    1.5543    2.1352 N   0  0  0  0  0  0  0  0  0  0  0  0
   -2.4223    0.4952    2.2106 C   0  0  0  0  0  0  0  0  0  0  0  0
   -2.3256   -0.2586    3.1669 O   0  0  0  0  0  0  0  0  0  0  0  0
   -1.6206    0.4962    0.8781 C   0  0  1  0  0  0  0  0  0  0  0  0
   -1.8075   -0.7309    0.0721 C   0  0  0  0  0  0  0  0  0  0  0  0
   -0.5991   -1.4020   -0.1019 C   0  0  0  0  0  0  0  0  0  0  0  0
   -0.8216   -2.5301   -0.8477 C   0  0  0  0  0  0  0  0  0  0  0  0
    0.0426   -3.4406   -1.2864 O   0  0  0  0  0  0  0  0  0  0  0  0
   -2.1996   -2.5716   -1.1556 N   0  0  0  0  0  0  0  0  0  0  0  0
   -2.8732   -3.5799   -1.9308 C   0  0  0  0  0  0  0  0  0  0  0  0
   -2.3354   -4.8685   -2.0625 C   0  0  0  0  0  0  0  0  0  0  0  0
   -3.0051   -5.8378   -2.8101 C   0  0  0  0  0  0  0  0  0  0  0  0
   -2.4819   -7.0681   -2.9071 F   0  0  0  0  0  0  0  0  0  0  0  0
   -4.2080   -5.5621   -3.4378 C   0  0  0  0  0  0  0  0  0  0  0  0
   -4.7386   -4.2889   -3.3136 C   0  0  0  0  0  0  0  0  0  0  0  0
   -5.8997   -4.0001   -3.9155 F   0  0  0  0  0  0  0  0  0  0  0  0
   -4.0894   -3.3007   -2.5732 C   0  0  0  0  0  0  0  0  0  0  0  0
   -2.7988   -1.4411   -0.5576 C   0  0  0  0  0  0  0  0  0  0  0  0
   -4.1089   -1.2115   -0.6030 O   0  0  0  0  0  0  0  0  0  0  0  0
    0.5147   -0.7046    0.5786 C   0  0  1  0  0  0  0  0  0  0  0  0
    1.7136   -0.3735   -0.3288 C   0  0  0  0  0  0  0  0  0  0  0  0
    2.6583    0.5122    0.3514 N   0  0  0  0  0  0  0  0  0  0  0  0
    4.0079    0.2261    0.3452 C   0  0  0  0  0  0  0  0  0  0  0  0
    4.4943   -0.7181   -0.2626 O   0  0  0  0  0  0  0  0  0  0  0  0
    4.7120    1.1088    1.0988 O   0  0  0  0  0  0  0  0  0  0  0  0
    6.1458    0.9708    1.2699 C   0  0  0  0  0  0  0  0  0  0  0  0
    6.4992   -0.3440    1.9750 C   0  0  0  0  0  0  0  0  0  0  0  0
    6.8852    1.1226   -0.0645 C   0  0  0  0  0  0  0  0  0  0  0  0
    6.5409    2.1403    2.1860 C   0  0  0  0  0  0  0  0  0  0  0  0
    2.0875    1.5879    1.1678 C   0  0  0  0  0  0  0  0  0  0  0  0
    0.5721    1.7617    0.9441 C   0  0  0  0  0  0  0  0  0  0  0  0
   -0.1554    0.5121    1.1609 N   0  0  0  0  0  0  0  0  0  0  0  0
   -4.9887    5.0118    1.3791 H   0  0  0  0  0  0  0  0  0  0  0  0
   -6.0681    3.6387    1.0034 H   0  0  0  0  0  0  0  0  0  0  0  0
   -4.9959    3.5972    2.4112 H   0  0  0  0  0  0  0  0  0  0  0  0
   -2.6458    3.5367   -2.6433 H   0  0  0  0  0  0  0  0  0  0  0  0
   -1.2966    1.6306   -1.8187 H   0  0  0  0  0  0  0  0  0  0  0  0
   -3.9592    1.7602    2.8959 H   0  0  0  0  0  0  0  0  0  0  0  0
    0.9180   -3.2534   -0.9043 H   0  0  0  0  0  0  0  0  0  0  0  0
   -1.4196   -5.1725   -1.5685 H   0  0  0  0  0  0  0  0  0  0  0  0
   -4.7221   -6.3229   -4.0115 H   0  0  0  0  0  0  0  0  0  0  0  0
   -4.5512   -2.3199   -2.5488 H   0  0  0  0  0  0  0  0  0  0  0  0
   -4.2994   -0.3927   -0.1121 H   0  0  0  0  0  0  0  0  0  0  0  0
    0.8638   -1.3125    1.4233 H   0  0  0  0  0  0  0  0  0  0  0  0
    2.2094   -1.2947   -0.6545 H   0  0  0  0  0  0  0  0  0  0  0  0
    1.3849    0.1459   -1.2383 H   0  0  0  0  0  0  0  0  0  0  0  0
    7.5545   -0.3697    2.2688 H   0  0  0  0  0  0  0  0  0  0  0  0
    5.8850   -0.4822    2.8712 H   0  0  0  0  0  0  0  0  0  0  0  0
    6.3194   -1.2113    1.3332 H   0  0  0  0  0  0  0  0  0  0  0  0
    7.9685    1.1843    0.0844 H   0  0  0  0  0  0  0  0  0  0  0  0
    6.6961    0.2789   -0.7349 H   0  0  0  0  0  0  0  0  0  0  0  0
    6.5533    2.0239   -0.5924 H   0  0  0  0  0  0  0  0  0  0  0  0
    7.6161    2.1504    2.3942 H   0  0  0  0  0  0  0  0  0  0  0  0
    6.2673    3.1005    1.7320 H   0  0  0  0  0  0  0  0  0  0  0  0
    6.0044    2.0861    3.1411 H   0  0  0  0  0  0  0  0  0  0  0  0
    2.6112    2.5203    0.9291 H   0  0  0  0  0  0  0  0  0  0  0  0
    2.2911    1.3511    2.2197 H   0  0  0  0  0  0  0  0  0  0  0  0
    0.1987    2.5365    1.6234 H   0  0  0  0  0  0  0  0  0  0  0  0
    0.4375    2.1242   -0.0809 H   0  0  0  0  0  0  0  0  0  0  0  0
  1  2  1  0
  2  3  2  0
  3  4  1  0
  3  5  1  0
  5  6  2  0
  6  7  1  0
  7  8  2  0
  8  9  1  0
  9 10  1  0
 10 11  2  0
 10 12  1  0
 12 13  1  0
 13 14  1  0
 14 15  2  0
 15 16  1  0
 15 17  1  0
 17 18  1  0
 18 19  2  0
 19 20  1  0
 20 21  1  0
 20 22  2  0
 22 23  1  0
 23 24  1  0
 23 25  2  0
 17 26  1  0
 26 27  1  0
 14 28  1  0
 28 29  1  0
 29 30  1  0
 30 31  1  0
 31 32  2  0
 31 33  1  0
 33 34  1  0
 34 35  1  0
 34 36  1  0
 34 37  1  0
 30 38  1  0
 38 39  1  0
 39 40  1  0
  8  2  1  0
 12 40  1  1
 12  7  1  0
 26 13  2  0
 40 28  1  0
 25 18  1  0
  1 41  1  0
  1 42  1  0
  1 43  1  0
  5 44  1  0
  6 45  1  0
  9 46  1  0
 16 47  1  0
 19 48  1  0
 22 49  1  0
 25 50  1  0
 27 51  1  0
 28 52  1  1
 29 53  1  0
 29 54  1  0
 35 55  1  0
 35 56  1  0
 35 57  1  0
 36 58  1  0
 36 59  1  0
 36 60  1  0
 37 61  1  0
 37 62  1  0
 37 63  1  0
 38 64  1  0
 38 65  1  0
 39 66  1  0
 39 67  1  0
M  END
$$$$
