
     RDKit          3D

 60 66  0  0  0  0  0  0  0  0999 V2000
   -0.0536    2.2277   -2.8790 O   0  0  0  0  0  0  0  0  0  0  0  0
   -0.3913    2.8965   -1.9143 C   0  0  0  0  0  0  0  0  0  0  0  0
   -1.0470    4.1294   -2.0046 N   0  0  0  0  0  0  0  0  0  0  0  0
   -1.3165    4.6544   -0.7482 C   0  0  0  0  0  0  0  0  0  0  0  0
   -1.9476    5.8481   -0.4682 C   0  0  0  0  0  0  0  0  0  0  0  0
   -2.1292    6.1782    0.8773 C   0  0  0  0  0  0  0  0  0  0  0  0
   -1.6817    5.3188    1.8969 C   0  0  0  0  0  0  0  0  0  0  0  0
   -1.0414    4.1147    1.5888 C   0  0  0  0  0  0  0  0  0  0  0  0
   -0.8626    3.7894    0.2520 C   0  0  0  0  0  0  0  0  0  0  0  0
   -0.2191    2.5939   -0.3963 C   0  0  0  0  0  0  0  0  0  0  0  0
    1.2216    2.3814   -0.0167 N   0  0  0  0  0  0  0  0  0  0  0  0
    1.4382    0.8861    0.1746 C   0  0  2  0  0  0  0  0  0  0  0  0
    2.1300    0.2850   -1.0633 C   0  0  0  0  0  0  0  0  0  0  0  0
    2.7546   -1.0554   -0.7995 C   0  0  0  0  0  0  0  0  0  0  0  0
    2.2461   -2.2860   -1.1668 C   0  0  0  0  0  0  0  0  0  0  0  0
    3.1025   -3.2554   -0.7197 N   0  0  0  0  0  0  0  0  0  0  0  0
    4.1851   -2.6855   -0.0934 C   0  0  0  0  0  0  0  0  0  0  0  0
    5.3048   -3.2842    0.4954 C   0  0  0  0  0  0  0  0  0  0  0  0
    6.2654   -2.4425    1.0623 C   0  0  0  0  0  0  0  0  0  0  0  0
    6.1087   -1.0587    1.0422 C   0  0  0  0  0  0  0  0  0  0  0  0
    4.9808   -0.4771    0.4522 C   0  0  0  0  0  0  0  0  0  0  0  0
    3.9973   -1.3036   -0.1294 C   0  0  0  0  0  0  0  0  0  0  0  0
    0.0550    0.4029    0.3998 C   0  0  0  0  0  0  0  0  0  0  0  0
   -0.8950    1.3711    0.0595 C   0  0  0  0  0  0  0  0  0  0  0  0
   -2.1435    0.8517    0.2823 C   0  0  0  0  0  0  0  0  0  0  0  0
   -3.3599    1.3591    0.1277 O   0  0  0  0  0  0  0  0  0  0  0  0
   -1.9534   -0.4314    0.7788 N   0  0  0  0  0  0  0  0  0  0  0  0
   -3.0304   -1.2881    1.2690 C   0  0  0  0  0  0  0  0  0  0  0  0
   -3.2185   -2.5283    0.4273 C   0  0  0  0  0  0  0  0  0  0  0  0
   -3.4428   -2.4352   -0.9553 C   0  0  0  0  0  0  0  0  0  0  0  0
   -3.6285   -3.5860   -1.7224 C   0  0  0  0  0  0  0  0  0  0  0  0
   -3.6006   -4.8406   -1.1170 C   0  0  0  0  0  0  0  0  0  0  0  0
   -3.3923   -4.9470    0.2570 C   0  0  0  0  0  0  0  0  0  0  0  0
   -3.2088   -3.7972    1.0269 C   0  0  0  0  0  0  0  0  0  0  0  0
   -0.5937   -0.7109    0.8571 C   0  0  0  0  0  0  0  0  0  0  0  0
   -0.0962   -1.8525    1.3150 O   0  0  0  0  0  0  0  0  0  0  0  0
   -1.2632    4.5629   -2.8898 H   0  0  0  0  0  0  0  0  0  0  0  0
   -2.2916    6.5112   -1.2538 H   0  0  0  0  0  0  0  0  0  0  0  0
   -2.6218    7.1113    1.1430 H   0  0  0  0  0  0  0  0  0  0  0  0
   -1.8363    5.5961    2.9380 H   0  0  0  0  0  0  0  0  0  0  0  0
   -0.7033    3.4520    2.3795 H   0  0  0  0  0  0  0  0  0  0  0  0
    1.3198    2.7770    0.9172 H   0  0  0  0  0  0  0  0  0  0  0  0
    2.0498    0.7488    1.0740 H   0  0  0  0  0  0  0  0  0  0  0  0
    2.9295    0.9610   -1.3975 H   0  0  0  0  0  0  0  0  0  0  0  0
    1.4296    0.1996   -1.9042 H   0  0  0  0  0  0  0  0  0  0  0  0
    1.3363   -2.5496   -1.6891 H   0  0  0  0  0  0  0  0  0  0  0  0
    2.9667   -4.2487   -0.8368 H   0  0  0  0  0  0  0  0  0  0  0  0
    5.4294   -4.3616    0.5114 H   0  0  0  0  0  0  0  0  0  0  0  0
    7.1492   -2.8766    1.5226 H   0  0  0  0  0  0  0  0  0  0  0  0
    6.8684   -0.4218    1.4867 H   0  0  0  0  0  0  0  0  0  0  0  0
    4.8696    0.6032    0.4374 H   0  0  0  0  0  0  0  0  0  0  0  0
   -3.2618    2.2708   -0.2028 H   0  0  0  0  0  0  0  0  0  0  0  0
   -3.9653   -0.7190    1.2996 H   0  0  0  0  0  0  0  0  0  0  0  0
   -2.7705   -1.5430    2.3035 H   0  0  0  0  0  0  0  0  0  0  0  0
   -3.4670   -1.4647   -1.4466 H   0  0  0  0  0  0  0  0  0  0  0  0
   -3.7951   -3.4989   -2.7930 H   0  0  0  0  0  0  0  0  0  0  0  0
   -3.7459   -5.7356   -1.7164 H   0  0  0  0  0  0  0  0  0  0  0  0
   -3.3784   -5.9256    0.7287 H   0  0  0  0  0  0  0  0  0  0  0  0
   -3.0571   -3.9034    2.0997 H   0  0  0  0  0  0  0  0  0  0  0  0
   -0.7274   -2.5688    1.1313 H   0  0  0  0  0  0  0  0  0  0  0  0
  1  2  2  0
  2  3  1  0
  3  4  1  0
  4  5  2  0
  5  6  1  0
  6  7  2  0
  7  8  1  0
  8  9  2  0
  9 10  1  0
 10 11  1  0
 11 12  1  0
 12 13  1  0
 13 14  1  0
 14 15  2  0
 15 16  1  0
 16 17  1  0
 17 18  2  0
 18 19  1  0
 19 20  2  0
 20 21  1  0
 21 22  2  0
 12 23  1  0
 23 24  1  0
 24 25  2  0
 25 26  1  0
 25 27  1  0
 27 28  1  0
 28 29  1  0
 29 30  2  0
 30 31  1  0
 31 32  2  0
 32 33  1  0
 33 34  2  0
 27 35  1  0
 35 36  1  0
 10  2  1  0
 22 14  1  0
 35 23  2  0
  9  4  1  0
 24 10  1  0
 34 29  1  0
 22 17  1  0
  3 37  1  0
  5 38  1  0
  6 39  1  0
  7 40  1  0
  8 41  1  0
 11 42  1  0
 12 43  1  1
 13 44  1  0
 13 45  1  0
 15 46  1  0
 16 47  1  0
 18 48  1  0
 19 49  1  0
 20 50  1  0
 21 51  1  0
 26 52  1  0
 28 53  1  0
 28 54  1  0
 30 55  1  0
 31 56  1  0
 32 57  1  0
 33 58  1  0
 34 59  1  0
 36 60  1  0
M  END
$$$$
