
     RDKit          3D

 50 53  0  0  0  0  0  0  0  0999 V2000
    5.2221   -3.0606    2.7277 C   0  0  0  0  0  0  0  0  0  0  0  0
    3.8145   -3.2365    2.6217 O   0  0  0  0  0  0  0  0  0  0  0  0
    3.0855   -2.1630    2.1891 C   0  0  0  0  0  0  0  0  0  0  0  0
    3.5935   -0.9150    1.8455 C   0  0  0  0  0  0  0  0  0  0  0  0
    2.7261    0.0981    1.4241 C   0  0  0  0  0  0  0  0  0  0  0  0
    1.3358   -0.1120    1.3257 C   0  0  0  0  0  0  0  0  0  0  0  0
    0.4724    0.9773    0.8479 C   0  0  0  0  0  0  0  0  0  0  0  0
    0.6672    2.2006    1.3980 N   0  0  0  0  0  0  0  0  0  0  0  0
   -0.1233    3.1989    0.9273 C   0  0  0  0  0  0  0  0  0  0  0  0
    0.0253    4.5342    1.5702 C   0  0  0  0  0  0  0  0  0  0  0  0
    0.9559    4.6073    2.5718 N   0  0  0  0  0  0  0  0  0  0  0  0
   -0.6426    5.5050    1.2366 O   0  0  0  0  0  0  0  0  0  0  0  0
   -1.0293    2.9966   -0.0701 C   0  0  0  0  0  0  0  0  0  0  0  0
   -1.9742    3.8188   -0.6706 N   0  0  0  0  0  0  0  0  0  0  0  0
   -2.6994    3.0549   -1.5973 C   0  0  0  0  0  0  0  0  0  0  0  0
   -3.6280    3.4874   -2.2607 O   0  0  0  0  0  0  0  0  0  0  0  0
   -2.1222    1.7574   -1.5847 N   0  0  0  0  0  0  0  0  0  0  0  0
   -2.5592    0.6296   -2.3159 C   0  0  0  0  0  0  0  0  0  0  0  0
   -3.9331    0.4947   -2.5860 C   0  0  0  0  0  0  0  0  0  0  0  0
   -4.4351   -0.6125   -3.2744 C   0  0  0  0  0  0  0  0  0  0  0  0
   -3.5680   -1.5970   -3.7303 C   0  0  0  0  0  0  0  0  0  0  0  0
   -2.1974   -1.4662   -3.5128 C   0  0  0  0  0  0  0  0  0  0  0  0
   -1.6864   -0.3637   -2.8085 C   0  0  0  0  0  0  0  0  0  0  0  0
   -0.3300   -0.1462   -2.7469 O   0  0  0  0  0  0  0  0  0  0  0  0
    0.4358   -1.3060   -2.4270 C   0  0  0  0  0  0  0  0  0  0  0  0
   -1.1087    1.7311   -0.6003 C   0  0  0  0  0  0  0  0  0  0  0  0
   -0.3952    0.6979   -0.1456 N   0  0  0  0  0  0  0  0  0  0  0  0
    0.8325   -1.3813    1.6769 C   0  0  0  0  0  0  0  0  0  0  0  0
   -0.5308   -1.5422    1.6364 O   0  0  0  0  0  0  0  0  0  0  0  0
   -1.0164   -2.8723    1.4995 C   0  0  0  0  0  0  0  0  0  0  0  0
    1.7080   -2.3880    2.1090 C   0  0  0  0  0  0  0  0  0  0  0  0
    5.6504   -4.0009    3.0878 H   0  0  0  0  0  0  0  0  0  0  0  0
    5.4689   -2.2817    3.4565 H   0  0  0  0  0  0  0  0  0  0  0  0
    5.6666   -2.8445    1.7506 H   0  0  0  0  0  0  0  0  0  0  0  0
    4.6541   -0.6920    1.8942 H   0  0  0  0  0  0  0  0  0  0  0  0
    3.1451    1.0670    1.1550 H   0  0  0  0  0  0  0  0  0  0  0  0
    1.4419    3.7711    2.8767 H   0  0  0  0  0  0  0  0  0  0  0  0
    1.0584    5.4683    3.0900 H   0  0  0  0  0  0  0  0  0  0  0  0
   -2.1492    4.7896   -0.4414 H   0  0  0  0  0  0  0  0  0  0  0  0
   -4.6442    1.2408   -2.2374 H   0  0  0  0  0  0  0  0  0  0  0  0
   -5.5035   -0.6963   -3.4574 H   0  0  0  0  0  0  0  0  0  0  0  0
   -3.9539   -2.4504   -4.2818 H   0  0  0  0  0  0  0  0  0  0  0  0
   -1.5352   -2.2120   -3.9411 H   0  0  0  0  0  0  0  0  0  0  0  0
    0.6320   -1.8954   -3.3279 H   0  0  0  0  0  0  0  0  0  0  0  0
    1.4004   -0.9717   -2.0330 H   0  0  0  0  0  0  0  0  0  0  0  0
   -0.0474   -1.9197   -1.6587 H   0  0  0  0  0  0  0  0  0  0  0  0
   -0.9423   -3.4108    2.4496 H   0  0  0  0  0  0  0  0  0  0  0  0
   -2.0760   -2.8145    1.2321 H   0  0  0  0  0  0  0  0  0  0  0  0
   -0.4997   -3.4112    0.6979 H   0  0  0  0  0  0  0  0  0  0  0  0
    1.3383   -3.3630    2.4120 H   0  0  0  0  0  0  0  0  0  0  0  0
  1  2  1  0
  2  3  1  0
  3  4  2  0
  4  5  1  0
  5  6  2  0
  6  7  1  0
  7  8  2  0
  8  9  1  0
  9 10  1  0
 10 11  1  0
 10 12  2  0
  9 13  2  0
 13 14  1  0
 14 15  1  0
 15 16  2  0
 15 17  1  0
 17 18  1  0
 18 19  2  0
 19 20  1  0
 20 21  2  0
 21 22  1  0
 22 23  2  0
 23 24  1  0
 24 25  1  0
 17 26  1  0
 26 27  2  0
  6 28  1  0
 28 29  1  0
 29 30  1  0
 28 31  2  0
 31  3  1  0
 27  7  1  0
 26 13  1  0
 23 18  1  0
  1 32  1  0
  1 33  1  0
  1 34  1  0
  4 35  1  0
  5 36  1  0
 11 37  1  0
 11 38  1  0
 14 39  1  0
 19 40  1  0
 20 41  1  0
 21 42  1  0
 22 43  1  0
 25 44  1  0
 25 45  1  0
 25 46  1  0
 30 47  1  0
 30 48  1  0
 30 49  1  0
 31 50  1  0
M  END
$$$$
