
     RDKit          3D

 32 34  0  0  0  0  0  0  0  0999 V2000
    0.4412   -1.9900    1.3364 O   0  0  0  0  0  0  0  0  0  0  0  0
   -0.1755   -1.1236    0.7232 C   0  0  0  0  0  0  0  0  0  0  0  0
   -1.7032   -1.1890    0.6257 C   0  0  0  0  0  0  0  0  0  0  0  0
   -2.2200   -0.0932   -0.1261 O   0  0  0  0  0  0  0  0  0  0  0  0
   -3.5769   -0.0363   -0.2867 C   0  0  0  0  0  0  0  0  0  0  0  0
   -4.5029   -0.9533    0.2182 C   0  0  0  0  0  0  0  0  0  0  0  0
   -5.8685   -0.7722   -0.0230 C   0  0  0  0  0  0  0  0  0  0  0  0
   -6.3001    0.3206   -0.7651 C   0  0  0  0  0  0  0  0  0  0  0  0
   -7.6089    0.4888   -0.9928 F   0  0  0  0  0  0  0  0  0  0  0  0
   -5.3919    1.2395   -1.2728 C   0  0  0  0  0  0  0  0  0  0  0  0
   -4.0290    1.0590   -1.0322 C   0  0  0  0  0  0  0  0  0  0  0  0
    0.3535   -0.0346    0.0717 N   0  0  0  0  0  0  0  0  0  0  0  0
    1.6726    0.3182   -0.0349 C   0  0  0  0  0  0  0  0  0  0  0  0
    2.0593    1.3922   -0.6894 N   0  0  0  0  0  0  0  0  0  0  0  0
    3.4324    1.5501   -0.6651 N   0  0  0  0  0  0  0  0  0  0  0  0
    4.0139    0.5793    0.0030 C   0  0  0  0  0  0  0  0  0  0  0  0
    5.5596    0.5110    0.1967 C   0  0  0  0  0  0  0  0  0  0  0  0
    6.4618    0.8749   -0.9552 C   0  0  0  0  0  0  0  0  0  0  0  0
    6.3474   -0.5566   -0.5195 C   0  0  0  0  0  0  0  0  0  0  0  0
    2.9446   -0.5792    0.6594 S   0  0  0  0  0  0  0  0  0  0  0  0
   -1.9524   -2.1359    0.1330 H   0  0  0  0  0  0  0  0  0  0  0  0
   -2.0911   -1.1602    1.6505 H   0  0  0  0  0  0  0  0  0  0  0  0
   -4.2022   -1.8176    0.8014 H   0  0  0  0  0  0  0  0  0  0  0  0
   -6.5978   -1.4774    0.3637 H   0  0  0  0  0  0  0  0  0  0  0  0
   -5.7471    2.0869   -1.8500 H   0  0  0  0  0  0  0  0  0  0  0  0
   -3.3165    1.7782   -1.4294 H   0  0  0  0  0  0  0  0  0  0  0  0
   -0.2916    0.5955   -0.3924 H   0  0  0  0  0  0  0  0  0  0  0  0
    5.8910    0.7989    1.1886 H   0  0  0  0  0  0  0  0  0  0  0  0
    7.3782    1.4074   -0.7293 H   0  0  0  0  0  0  0  0  0  0  0  0
    6.0072    1.1597   -1.8980 H   0  0  0  0  0  0  0  0  0  0  0  0
    5.8242   -1.2423   -1.1766 H   0  0  0  0  0  0  0  0  0  0  0  0
    7.1887   -0.9989    0.0015 H   0  0  0  0  0  0  0  0  0  0  0  0
  1  2  2  0
  2  3  1  0
  3  4  1  0
  4  5  1  0
  5  6  2  0
  6  7  1  0
  7  8  2  0
  8  9  1  0
  8 10  1  0
 10 11  2  0
  2 12  1  0
 12 13  1  0
 13 14  2  0
 14 15  1  0
 15 16  2  0
 16 17  1  0
 17 18  1  0
 18 19  1  0
 16 20  1  0
 11  5  1  0
 20 13  1  0
 19 17  1  0
  3 21  1  0
  3 22  1  0
  6 23  1  0
  7 24  1  0
 10 25  1  0
 11 26  1  0
 12 27  1  0
 17 28  1  0
 18 29  1  0
 18 30  1  0
 19 31  1  0
 19 32  1  0
M  END
$$$$
