
     RDKit          3D

 61 66  0  0  0  0  0  0  0  0999 V2000
   -3.8052   -2.3069   -1.4719 C   0  0  0  0  0  0  0  0  0  0  0  0
   -2.5263   -1.7561   -0.8274 C   0  0  0  0  0  0  0  0  0  0  0  0
   -1.5989   -2.9056   -0.4065 C   0  0  0  0  0  0  0  0  0  0  0  0
   -2.8129   -0.8390    0.3599 C   0  0  0  0  0  0  0  0  0  0  0  0
   -3.6317   -1.3042    1.4054 C   0  0  0  0  0  0  0  0  0  0  0  0
   -3.8506   -0.5460    2.5567 C   0  0  0  0  0  0  0  0  0  0  0  0
   -3.2401    0.6941    2.7094 C   0  0  0  0  0  0  0  0  0  0  0  0
   -2.4186    1.1800    1.7029 C   0  0  0  0  0  0  0  0  0  0  0  0
   -2.2167    0.4282    0.5302 C   0  0  0  0  0  0  0  0  0  0  0  0
   -1.4269    1.0320   -0.4809 N   0  0  0  0  0  0  0  0  0  0  0  0
   -0.0973    1.4085   -0.4055 C   0  0  0  0  0  0  0  0  0  0  0  0
    0.9331    1.0605    0.9441 S   0  0  0  0  0  0  0  0  0  0  0  0
    2.2877    2.2538    0.7074 C   0  0  0  0  0  0  0  0  0  0  0  0
    3.3857    1.7205   -0.1871 C   0  0  0  0  0  0  0  0  0  0  0  0
    3.5662    2.3620   -1.3583 C   0  0  0  0  0  0  0  0  0  0  0  0
    4.4821    1.9246   -2.4115 C   0  0  0  0  0  0  0  0  0  0  0  0
    4.6947    2.6175   -3.4000 O   0  0  0  0  0  0  0  0  0  0  0  0
    5.0406    0.6793   -2.2360 O   0  0  0  0  0  0  0  0  0  0  0  0
    4.9437    0.0060   -0.9992 C   0  0  0  0  0  0  0  0  0  0  0  0
    5.6621   -1.1878   -0.9683 C   0  0  0  0  0  0  0  0  0  0  0  0
    5.7010   -1.9212    0.2038 C   0  0  0  0  0  0  0  0  0  0  0  0
    5.0704   -1.4455    1.3609 C   0  0  0  0  0  0  0  0  0  0  0  0
    5.1799   -2.2239    2.5281 C   0  0  0  0  0  0  0  0  0  0  0  0
    4.6114   -1.8153    3.7288 C   0  0  0  0  0  0  0  0  0  0  0  0
    3.9508   -0.6015    3.7812 C   0  0  0  0  0  0  0  0  0  0  0  0
    3.8395    0.1842    2.6246 C   0  0  0  0  0  0  0  0  0  0  0  0
    4.3486   -0.2092    1.3539 C   0  0  0  0  0  0  0  0  0  0  0  0
    4.2255    0.5142    0.1057 C   0  0  0  0  0  0  0  0  0  0  0  0
    0.2687    2.0095   -1.5139 N   0  0  0  0  0  0  0  0  0  0  0  0
   -0.8151    2.0359   -2.3518 N   0  0  0  0  0  0  0  0  0  0  0  0
   -1.8461    1.4892   -1.7307 C   0  0  0  0  0  0  0  0  0  0  0  0
   -3.1943    1.4050   -2.2867 C   0  0  0  0  0  0  0  0  0  0  0  0
   -4.3444    1.7633   -1.5715 C   0  0  0  0  0  0  0  0  0  0  0  0
   -5.6017    1.6325   -2.1620 C   0  0  0  0  0  0  0  0  0  0  0  0
   -5.6724    1.1514   -3.4576 C   0  0  0  0  0  0  0  0  0  0  0  0
   -4.5867    0.8198   -4.1922 N   0  0  0  0  0  0  0  0  0  0  0  0
   -3.3759    0.9703   -3.5972 C   0  0  0  0  0  0  0  0  0  0  0  0
   -4.3347   -3.0044   -0.8133 H   0  0  0  0  0  0  0  0  0  0  0  0
   -4.4967   -1.4986   -1.7281 H   0  0  0  0  0  0  0  0  0  0  0  0
   -3.5676   -2.8540   -2.3935 H   0  0  0  0  0  0  0  0  0  0  0  0
   -1.9990   -1.2029   -1.6122 H   0  0  0  0  0  0  0  0  0  0  0  0
   -0.6586   -2.5212    0.0043 H   0  0  0  0  0  0  0  0  0  0  0  0
   -2.0619   -3.5430    0.3568 H   0  0  0  0  0  0  0  0  0  0  0  0
   -1.3518   -3.5382   -1.2676 H   0  0  0  0  0  0  0  0  0  0  0  0
   -4.0999   -2.2842    1.3441 H   0  0  0  0  0  0  0  0  0  0  0  0
   -4.4895   -0.9319    3.3397 H   0  0  0  0  0  0  0  0  0  0  0  0
   -3.4081    1.2822    3.6080 H   0  0  0  0  0  0  0  0  0  0  0  0
   -1.9621    2.1599    1.8283 H   0  0  0  0  0  0  0  0  0  0  0  0
    2.6886    2.5877    1.6679 H   0  0  0  0  0  0  0  0  0  0  0  0
    1.8481    3.1752    0.3024 H   0  0  0  0  0  0  0  0  0  0  0  0
    2.9839    3.2372   -1.6305 H   0  0  0  0  0  0  0  0  0  0  0  0
    6.1886   -1.5392   -1.8558 H   0  0  0  0  0  0  0  0  0  0  0  0
    6.2609   -2.8584    0.2087 H   0  0  0  0  0  0  0  0  0  0  0  0
    5.7125   -3.1729    2.5112 H   0  0  0  0  0  0  0  0  0  0  0  0
    4.6969   -2.4349    4.6193 H   0  0  0  0  0  0  0  0  0  0  0  0
    3.5133   -0.2616    4.7204 H   0  0  0  0  0  0  0  0  0  0  0  0
    3.3483    1.1359    2.7682 H   0  0  0  0  0  0  0  0  0  0  0  0
   -4.2794    2.1552   -0.5598 H   0  0  0  0  0  0  0  0  0  0  0  0
   -6.5073    1.9021   -1.6242 H   0  0  0  0  0  0  0  0  0  0  0  0
   -6.6318    1.0214   -3.9536 H   0  0  0  0  0  0  0  0  0  0  0  0
   -2.5231    0.7084   -4.2274 H   0  0  0  0  0  0  0  0  0  0  0  0
  1  2  1  0
  2  3  1  0
  2  4  1  0
  4  5  2  0
  5  6  1  0
  6  7  2  0
  7  8  1  0
  8  9  2  0
  9 10  1  0
 10 11  1  0
 11 12  1  0
 12 13  1  0
 13 14  1  0
 14 15  2  0
 15 16  1  0
 16 17  2  0
 16 18  1  0
 18 19  1  0
 19 20  2  0
 20 21  1  0
 21 22  2  0
 22 23  1  0
 23 24  2  0
 24 25  1  0
 25 26  2  0
 26 27  1  0
 27 28  2  0
 11 29  2  0
 29 30  1  0
 30 31  2  0
 31 32  1  0
 32 33  2  0
 33 34  1  0
 34 35  2  0
 35 36  1  0
 36 37  2  0
  9  4  1  0
 31 10  1  0
 37 32  1  0
 28 14  1  0
 28 19  1  0
 27 22  1  0
  1 38  1  0
  1 39  1  0
  1 40  1  0
  2 41  1  0
  3 42  1  0
  3 43  1  0
  3 44  1  0
  5 45  1  0
  6 46  1  0
  7 47  1  0
  8 48  1  0
 13 49  1  0
 13 50  1  0
 15 51  1  0
 20 52  1  0
 21 53  1  0
 23 54  1  0
 24 55  1  0
 25 56  1  0
 26 57  1  0
 33 58  1  0
 34 59  1  0
 35 60  1  0
 37 61  1  0
M  END
$$$$
