
     RDKit          3D

 57 60  0  0  0  0  0  0  0  0999 V2000
   -1.7288   -3.7139    2.8221 C   0  0  0  0  0  0  0  0  0  0  0  0
   -2.3004   -2.4136    2.6544 O   0  0  0  0  0  0  0  0  0  0  0  0
   -1.4362   -1.5743    2.0100 C   0  0  0  0  0  0  0  0  0  0  0  0
   -0.3486   -1.0654    2.7279 C   0  0  0  0  0  0  0  0  0  0  0  0
    0.5502   -0.1873    2.1191 C   0  0  0  0  0  0  0  0  0  0  0  0
    0.3682    0.1824    0.7820 C   0  0  0  0  0  0  0  0  0  0  0  0
    1.3047    1.1159    0.0964 C   0  0  0  0  0  0  0  0  0  0  0  0
    0.9034    1.8445   -0.8026 O   0  0  0  0  0  0  0  0  0  0  0  0
    2.6163    1.0743    0.5212 N   0  0  0  0  0  0  0  0  0  0  0  0
    3.6443    1.8402   -0.1467 C   0  0  0  0  0  0  0  0  0  0  0  0
    4.3828    0.9918   -1.1503 C   0  0  0  0  0  0  0  0  0  0  0  0
    5.5639    0.3079   -0.7811 C   0  0  0  0  0  0  0  0  0  0  0  0
    6.2484   -0.4937   -1.7003 C   0  0  0  0  0  0  0  0  0  0  0  0
    5.7289   -0.5985   -2.9710 C   0  0  0  0  0  0  0  0  0  0  0  0
    4.5764    0.0540   -3.3377 C   0  0  0  0  0  0  0  0  0  0  0  0
    3.8793    0.8495   -2.4537 C   0  0  0  0  0  0  0  0  0  0  0  0
    4.2366   -0.1836   -4.6317 O   0  0  0  0  0  0  0  0  0  0  0  0
    5.3055   -1.0622   -5.0372 C   0  0  0  0  0  0  0  0  0  0  0  0
    6.2592   -1.3294   -3.9876 O   0  0  0  0  0  0  0  0  0  0  0  0
   -0.7369   -0.3028    0.0734 C   0  0  0  0  0  0  0  0  0  0  0  0
   -1.6605   -1.1569    0.6965 C   0  0  0  0  0  0  0  0  0  0  0  0
   -3.0267   -1.7776   -0.2593 S   0  0  0  0  0  6  0  0  0  0  0  0
   -3.0959   -3.2071   -0.0301 O   0  0  0  0  0  0  0  0  0  0  0  0
   -2.8680   -1.2814   -1.6132 O   0  0  0  0  0  0  0  0  0  0  0  0
   -4.4147   -1.0582    0.3713 N   0  0  0  0  0  0  0  0  0  0  0  0
   -4.9687   -1.5423    1.6364 C   0  0  0  0  0  0  0  0  0  0  0  0
   -4.7538    0.3258   -0.0001 C   0  0  0  0  0  0  0  0  0  0  0  0
   -3.8298    1.4072    0.5045 C   0  0  0  0  0  0  0  0  0  0  0  0
   -3.0193    2.1104   -0.3981 C   0  0  0  0  0  0  0  0  0  0  0  0
   -2.1503    3.1051    0.0521 C   0  0  0  0  0  0  0  0  0  0  0  0
   -2.0879    3.4178    1.4069 C   0  0  0  0  0  0  0  0  0  0  0  0
   -2.9004    2.7416    2.3124 C   0  0  0  0  0  0  0  0  0  0  0  0
   -3.7689    1.7436    1.8639 C   0  0  0  0  0  0  0  0  0  0  0  0
   -1.0599   -3.7268    3.6903 H   0  0  0  0  0  0  0  0  0  0  0  0
   -2.5467   -4.4151    3.0136 H   0  0  0  0  0  0  0  0  0  0  0  0
   -1.1901   -4.0519    1.9274 H   0  0  0  0  0  0  0  0  0  0  0  0
   -0.2082   -1.3392    3.7704 H   0  0  0  0  0  0  0  0  0  0  0  0
    1.3675    0.2205    2.7068 H   0  0  0  0  0  0  0  0  0  0  0  0
    2.9224    0.2861    1.0722 H   0  0  0  0  0  0  0  0  0  0  0  0
    3.2180    2.7250   -0.6324 H   0  0  0  0  0  0  0  0  0  0  0  0
    4.3344    2.1975    0.6254 H   0  0  0  0  0  0  0  0  0  0  0  0
    5.9558    0.4029    0.2287 H   0  0  0  0  0  0  0  0  0  0  0  0
    7.1575   -1.0161   -1.4266 H   0  0  0  0  0  0  0  0  0  0  0  0
    2.9642    1.3471   -2.7614 H   0  0  0  0  0  0  0  0  0  0  0  0
    4.8721   -2.0132   -5.3674 H   0  0  0  0  0  0  0  0  0  0  0  0
    5.8340   -0.6055   -5.8821 H   0  0  0  0  0  0  0  0  0  0  0  0
   -0.8761    0.0001   -0.9633 H   0  0  0  0  0  0  0  0  0  0  0  0
   -6.0424   -1.3300    1.6774 H   0  0  0  0  0  0  0  0  0  0  0  0
   -4.4923   -1.0633    2.4933 H   0  0  0  0  0  0  0  0  0  0  0  0
   -4.8692   -2.6275    1.7278 H   0  0  0  0  0  0  0  0  0  0  0  0
   -5.7703    0.5585    0.3460 H   0  0  0  0  0  0  0  0  0  0  0  0
   -4.8318    0.3788   -1.0943 H   0  0  0  0  0  0  0  0  0  0  0  0
   -3.0409    1.8715   -1.4606 H   0  0  0  0  0  0  0  0  0  0  0  0
   -1.5044    3.6205   -0.6566 H   0  0  0  0  0  0  0  0  0  0  0  0
   -1.4049    4.1888    1.7527 H   0  0  0  0  0  0  0  0  0  0  0  0
   -2.8618    2.9913    3.3702 H   0  0  0  0  0  0  0  0  0  0  0  0
   -4.3995    1.2365    2.5880 H   0  0  0  0  0  0  0  0  0  0  0  0
  1  2  1  0
  2  3  1  0
  3  4  2  0
  4  5  1  0
  5  6  2  0
  6  7  1  0
  7  8  2  0
  7  9  1  0
  9 10  1  0
 10 11  1  0
 11 12  2  0
 12 13  1  0
 13 14  2  0
 14 15  1  0
 15 16  2  0
 15 17  1  0
 17 18  1  0
 18 19  1  0
  6 20  1  0
 20 21  2  0
 21 22  1  0
 22 23  2  0
 22 24  2  0
 22 25  1  0
 25 26  1  0
 25 27  1  0
 27 28  1  0
 28 29  2  0
 29 30  1  0
 30 31  2  0
 31 32  1  0
 32 33  2  0
 21  3  1  0
 33 28  1  0
 16 11  1  0
 19 14  1  0
  1 34  1  0
  1 35  1  0
  1 36  1  0
  4 37  1  0
  5 38  1  0
  9 39  1  0
 10 40  1  0
 10 41  1  0
 12 42  1  0
 13 43  1  0
 16 44  1  0
 18 45  1  0
 18 46  1  0
 20 47  1  0
 26 48  1  0
 26 49  1  0
 26 50  1  0
 27 51  1  0
 27 52  1  0
 29 53  1  0
 30 54  1  0
 31 55  1  0
 32 56  1  0
 33 57  1  0
M  END
$$$$
