
     RDKit          3D

 35 35  0  0  0  0  0  0  0  0999 V2000
   -3.3139   -1.3290   -1.2368 C   0  0  0  0  0  0  0  0  0  0  0  0
   -3.5820   -0.3730   -0.0680 C   0  0  0  0  0  0  0  0  0  0  0  0
   -3.6925   -1.1599    1.2451 C   0  0  0  0  0  0  0  0  0  0  0  0
   -2.6188    0.7420    0.0762 N   0  0  0  0  0  0  0  0  0  0  0  0
   -2.8488    1.7709   -0.9443 C   0  0  0  0  0  0  0  0  0  0  0  0
   -1.2062    0.3163    0.0878 C   0  0  0  0  0  0  0  0  0  0  0  0
   -0.2474    1.3827    0.6453 C   0  0  0  0  0  0  0  0  0  0  0  0
    1.0756    0.8379    0.8078 O   0  0  0  0  0  0  0  0  0  0  0  0
    1.8339    0.8176   -0.3134 C   0  0  0  0  0  0  0  0  0  0  0  0
    1.4946    1.1431   -1.4381 O   0  0  0  0  0  0  0  0  0  0  0  0
    3.1395    0.2137    0.0006 C   0  0  0  0  0  0  0  0  0  0  0  0
    3.4938   -0.9350   -0.7226 C   0  0  0  0  0  0  0  0  0  0  0  0
    4.7123   -1.5684   -0.4776 C   0  0  0  0  0  0  0  0  0  0  0  0
    5.5829   -1.0522    0.4807 C   0  0  0  0  0  0  0  0  0  0  0  0
    5.2424    0.1034    1.1881 C   0  0  0  0  0  0  0  0  0  0  0  0
    4.0222    0.7451    0.9473 C   0  0  0  0  0  0  0  0  0  0  0  0
    3.6801    2.3532    1.8971 Br  0  0  0  0  0  0  0  0  0  0  0  0
   -3.2674   -0.7951   -2.1908 H   0  0  0  0  0  0  0  0  0  0  0  0
   -4.1218   -2.0652   -1.3164 H   0  0  0  0  0  0  0  0  0  0  0  0
   -2.3790   -1.8841   -1.1071 H   0  0  0  0  0  0  0  0  0  0  0  0
   -4.5781    0.0629   -0.2254 H   0  0  0  0  0  0  0  0  0  0  0  0
   -4.5276   -1.8677    1.1943 H   0  0  0  0  0  0  0  0  0  0  0  0
   -3.8844   -0.4883    2.0893 H   0  0  0  0  0  0  0  0  0  0  0  0
   -2.7886   -1.7364    1.4646 H   0  0  0  0  0  0  0  0  0  0  0  0
   -2.5893    1.4276   -1.9514 H   0  0  0  0  0  0  0  0  0  0  0  0
   -2.2693    2.6744   -0.7306 H   0  0  0  0  0  0  0  0  0  0  0  0
   -3.8983    2.0870   -0.9485 H   0  0  0  0  0  0  0  0  0  0  0  0
   -1.0795   -0.5702    0.7202 H   0  0  0  0  0  0  0  0  0  0  0  0
   -0.8784    0.0084   -0.9130 H   0  0  0  0  0  0  0  0  0  0  0  0
   -0.5787    1.6975    1.6412 H   0  0  0  0  0  0  0  0  0  0  0  0
   -0.2068    2.2815    0.0198 H   0  0  0  0  0  0  0  0  0  0  0  0
    2.8189   -1.3370   -1.4760 H   0  0  0  0  0  0  0  0  0  0  0  0
    4.9836   -2.4616   -1.0358 H   0  0  0  0  0  0  0  0  0  0  0  0
    6.5344   -1.5438    0.6712 H   0  0  0  0  0  0  0  0  0  0  0  0
    5.9424    0.5016    1.9194 H   0  0  0  0  0  0  0  0  0  0  0  0
  1  2  1  0
  2  3  1  0
  2  4  1  0
  4  5  1  0
  4  6  1  0
  6  7  1  0
  7  8  1  0
  8  9  1  0
  9 10  2  0
  9 11  1  0
 11 12  2  0
 12 13  1  0
 13 14  2  0
 14 15  1  0
 15 16  2  0
 16 17  1  0
 16 11  1  0
  1 18  1  0
  1 19  1  0
  1 20  1  0
  2 21  1  0
  3 22  1  0
  3 23  1  0
  3 24  1  0
  5 25  1  0
  5 26  1  0
  5 27  1  0
  6 28  1  0
  6 29  1  0
  7 30  1  0
  7 31  1  0
 12 32  1  0
 13 33  1  0
 14 34  1  0
 15 35  1  0
M  END
$$$$
