
     RDKit          3D

 34 35  0  0  0  0  0  0  0  0999 V2000
    2.5879    2.8934    2.4326 C   0  0  0  0  0  0  0  0  0  0  0  0
    2.1439    1.7644    1.5259 C   0  0  0  0  0  0  0  0  0  0  0  0
    0.8818    1.7363    1.2094 N   0  0  0  0  0  0  0  0  0  0  0  0
    0.4201    0.7975    0.3378 N   0  0  0  0  0  0  0  0  0  0  0  0
   -0.9323    0.7527    0.0096 C   0  0  0  0  0  0  0  0  0  0  0  0
   -1.7721    1.5458    0.4184 O   0  0  0  0  0  0  0  0  0  0  0  0
   -1.2179   -0.3716   -0.9638 C   0  0  0  0  0  0  0  0  0  0  0  0
   -2.6926   -0.6624   -1.2317 C   0  0  0  0  0  0  0  0  0  0  0  0
   -3.4858    0.5174   -1.7898 C   0  0  0  0  0  0  0  0  0  0  0  0
   -2.7360   -1.6986   -2.2495 O   0  0  0  0  0  0  0  0  0  0  0  0
   -3.2401   -2.8580   -1.5854 C   0  0  0  0  0  0  0  0  0  0  0  0
   -4.0784   -2.2959   -0.4731 C   0  0  0  0  0  0  0  0  0  0  0  0
   -3.3180   -1.1709   -0.0420 O   0  0  0  0  0  0  0  0  0  0  0  0
    3.1881    0.8596    1.0640 C   0  0  0  0  0  0  0  0  0  0  0  0
    4.4589    1.1876    0.6268 C   0  0  0  0  0  0  0  0  0  0  0  0
    5.2326    0.0409    0.2826 C   0  0  0  0  0  0  0  0  0  0  0  0
    4.5374   -1.1287    0.4879 C   0  0  0  0  0  0  0  0  0  0  0  0
    2.9671   -0.8406    1.0958 S   0  0  0  0  0  0  0  0  0  0  0  0
    3.3176    2.5318    3.1630 H   0  0  0  0  0  0  0  0  0  0  0  0
    3.0422    3.6851    1.8297 H   0  0  0  0  0  0  0  0  0  0  0  0
    1.7306    3.3096    2.9700 H   0  0  0  0  0  0  0  0  0  0  0  0
    1.0624    0.0945   -0.0131 H   0  0  0  0  0  0  0  0  0  0  0  0
   -0.7093   -0.1362   -1.9076 H   0  0  0  0  0  0  0  0  0  0  0  0
   -0.7457   -1.2816   -0.5691 H   0  0  0  0  0  0  0  0  0  0  0  0
   -4.4634    0.1818   -2.1561 H   0  0  0  0  0  0  0  0  0  0  0  0
   -2.9698    0.9730   -2.6414 H   0  0  0  0  0  0  0  0  0  0  0  0
   -3.6870    1.2819   -1.0354 H   0  0  0  0  0  0  0  0  0  0  0  0
   -3.8029   -3.4871   -2.2793 H   0  0  0  0  0  0  0  0  0  0  0  0
   -2.3849   -3.4219   -1.1980 H   0  0  0  0  0  0  0  0  0  0  0  0
   -5.0496   -1.9409   -0.8342 H   0  0  0  0  0  0  0  0  0  0  0  0
   -4.2335   -2.9978    0.3499 H   0  0  0  0  0  0  0  0  0  0  0  0
    4.8196    2.2065    0.5439 H   0  0  0  0  0  0  0  0  0  0  0  0
    6.2494    0.0730   -0.0909 H   0  0  0  0  0  0  0  0  0  0  0  0
    4.8798   -2.1409    0.3186 H   0  0  0  0  0  0  0  0  0  0  0  0
  1  2  1  0
  2  3  2  3
  3  4  1  0
  4  5  1  0
  5  6  2  0
  5  7  1  0
  7  8  1  0
  8  9  1  0
  8 10  1  0
 10 11  1  0
 11 12  1  0
 12 13  1  0
  2 14  1  0
 14 15  2  0
 15 16  1  0
 16 17  2  0
 17 18  1  0
 13  8  1  0
 18 14  1  0
  1 19  1  0
  1 20  1  0
  1 21  1  0
  4 22  1  0
  7 23  1  0
  7 24  1  0
  9 25  1  0
  9 26  1  0
  9 27  1  0
 11 28  1  0
 11 29  1  0
 12 30  1  0
 12 31  1  0
 15 32  1  0
 16 33  1  0
 17 34  1  0
M  END
$$$$
