
     RDKit          3D

 65 66  0  0  0  0  0  0  0  0999 V2000
   -4.6355    5.4897   -2.3202 C   0  0  0  0  0  0  0  0  0  0  0  0
   -3.2869    5.1628   -2.0045 O   0  0  0  0  0  0  0  0  0  0  0  0
   -3.0889    4.0472   -1.2384 C   0  0  0  0  0  0  0  0  0  0  0  0
   -1.7504    3.7429   -0.9787 C   0  0  0  0  0  0  0  0  0  0  0  0
   -1.4043    2.6264   -0.2081 C   0  0  0  0  0  0  0  0  0  0  0  0
   -2.3904    1.7783    0.3145 C   0  0  0  0  0  0  0  0  0  0  0  0
   -2.0915    0.5604    1.1933 C   0  0  0  0  0  0  0  0  0  0  0  0
   -2.7493   -0.7691    0.7215 C   0  0  0  0  0  0  0  0  0  0  0  0
   -3.2034   -1.5794    1.5303 O   0  0  0  0  0  0  0  0  0  0  0  0
   -2.6993   -0.9967   -0.6439 N   0  0  0  0  0  0  0  0  0  0  0  0
   -3.1078   -2.2434   -1.3012 C   0  0  0  0  0  0  0  0  0  0  0  0
   -3.0001   -2.0255   -2.8228 C   0  0  0  0  0  0  0  0  0  0  0  0
   -4.5690   -2.6044   -0.9726 C   0  0  0  0  0  0  0  0  0  0  0  0
   -2.1733   -3.3949   -0.8971 C   0  0  0  0  0  0  0  0  0  0  0  0
   -0.6759    0.3116    1.5589 N   0  0  0  0  0  0  0  0  0  0  0  0
   -0.3240    0.5301    2.9762 C   0  0  0  0  0  0  0  0  0  0  0  0
   -0.1105    2.0121    3.3030 C   0  0  0  0  0  0  0  0  0  0  0  0
   -1.3634    2.6843    3.3712 O   0  0  0  0  0  0  0  0  0  0  0  0
    0.2263   -0.0942    0.5827 C   0  0  0  0  0  0  0  0  0  0  0  0
   -0.0972   -0.2311   -0.5980 O   0  0  0  0  0  0  0  0  0  0  0  0
    1.6503   -0.3665    1.0286 C   0  0  0  0  0  0  0  0  0  0  0  0
    2.5457   -0.7967   -0.1321 C   0  0  0  0  0  0  0  0  0  0  0  0
    3.9544   -1.0895    0.3460 C   0  0  0  0  0  0  0  0  0  0  0  0
    4.3093   -0.8689    1.5029 O   0  0  0  0  0  0  0  0  0  0  0  0
    4.7452   -1.6003   -0.6591 N   0  0  0  0  0  0  0  0  0  0  0  0
    6.0670   -1.9638   -0.5211 C   0  0  0  0  0  0  0  0  0  0  0  0
    6.9040   -1.9005    0.6166 C   0  0  0  0  0  0  0  0  0  0  0  0
    8.1142   -2.3836    0.1818 C   0  0  0  0  0  0  0  0  0  0  0  0
    9.4282   -2.5994    0.8148 C   0  0  0  0  0  0  0  0  0  0  0  0
    8.0128   -2.7184   -1.1341 O   0  0  0  0  0  0  0  0  0  0  0  0
    6.7289   -2.4575   -1.5765 N   0  0  0  0  0  0  0  0  0  0  0  0
   -3.7371    2.1064    0.0553 C   0  0  0  0  0  0  0  0  0  0  0  0
   -4.0843    3.2244   -0.7130 C   0  0  0  0  0  0  0  0  0  0  0  0
   -5.2004    5.7411   -1.4152 H   0  0  0  0  0  0  0  0  0  0  0  0
   -5.1217    4.6819   -2.8781 H   0  0  0  0  0  0  0  0  0  0  0  0
   -4.6213    6.3751   -2.9611 H   0  0  0  0  0  0  0  0  0  0  0  0
   -0.9673    4.3827   -1.3837 H   0  0  0  0  0  0  0  0  0  0  0  0
   -0.3507    2.4345   -0.0356 H   0  0  0  0  0  0  0  0  0  0  0  0
   -2.6196    0.7849    2.1318 H   0  0  0  0  0  0  0  0  0  0  0  0
   -1.9227   -0.5012   -1.0882 H   0  0  0  0  0  0  0  0  0  0  0  0
   -3.6587   -1.2125   -3.1531 H   0  0  0  0  0  0  0  0  0  0  0  0
   -3.2783   -2.9299   -3.3766 H   0  0  0  0  0  0  0  0  0  0  0  0
   -1.9790   -1.7540   -3.1166 H   0  0  0  0  0  0  0  0  0  0  0  0
   -4.9064   -3.4612   -1.5658 H   0  0  0  0  0  0  0  0  0  0  0  0
   -5.2433   -1.7653   -1.1816 H   0  0  0  0  0  0  0  0  0  0  0  0
   -4.6997   -2.8732    0.0793 H   0  0  0  0  0  0  0  0  0  0  0  0
   -1.1252   -3.1389   -1.0979 H   0  0  0  0  0  0  0  0  0  0  0  0
   -2.4088   -4.3114   -1.4501 H   0  0  0  0  0  0  0  0  0  0  0  0
   -2.2512   -3.6251    0.1701 H   0  0  0  0  0  0  0  0  0  0  0  0
   -1.1245    0.1036    3.5922 H   0  0  0  0  0  0  0  0  0  0  0  0
    0.5887   -0.0153    3.2253 H   0  0  0  0  0  0  0  0  0  0  0  0
    0.3706    2.1152    4.2800 H   0  0  0  0  0  0  0  0  0  0  0  0
    0.5184    2.4966    2.5493 H   0  0  0  0  0  0  0  0  0  0  0  0
   -1.2464    3.5712    2.9900 H   0  0  0  0  0  0  0  0  0  0  0  0
    1.6330   -1.1709    1.7739 H   0  0  0  0  0  0  0  0  0  0  0  0
    2.0562    0.5420    1.4896 H   0  0  0  0  0  0  0  0  0  0  0  0
    2.1414   -1.6994   -0.6072 H   0  0  0  0  0  0  0  0  0  0  0  0
    2.5923   -0.0042   -0.8898 H   0  0  0  0  0  0  0  0  0  0  0  0
    4.3747   -1.7471   -1.5906 H   0  0  0  0  0  0  0  0  0  0  0  0
    6.6659   -1.5506    1.6117 H   0  0  0  0  0  0  0  0  0  0  0  0
    9.4148   -2.2917    1.8644 H   0  0  0  0  0  0  0  0  0  0  0  0
   10.2011   -2.0191    0.3025 H   0  0  0  0  0  0  0  0  0  0  0  0
    9.7052   -3.6579    0.7734 H   0  0  0  0  0  0  0  0  0  0  0  0
   -4.5398    1.4866    0.4583 H   0  0  0  0  0  0  0  0  0  0  0  0
   -5.1413    3.4207   -0.8771 H   0  0  0  0  0  0  0  0  0  0  0  0
  1  2  1  0
  2  3  1  0
  3  4  2  0
  4  5  1  0
  5  6  2  0
  6  7  1  0
  7  8  1  0
  8  9  2  0
  8 10  1  0
 10 11  1  0
 11 12  1  0
 11 13  1  0
 11 14  1  0
  7 15  1  0
 15 16  1  0
 16 17  1  0
 17 18  1  0
 15 19  1  0
 19 20  2  0
 19 21  1  0
 21 22  1  0
 22 23  1  0
 23 24  2  0
 23 25  1  0
 25 26  1  0
 26 27  1  0
 27 28  2  0
 28 29  1  0
 28 30  1  0
 30 31  1  0
  6 32  1  0
 32 33  2  0
 33  3  1  0
 31 26  2  0
  1 34  1  0
  1 35  1  0
  1 36  1  0
  4 37  1  0
  5 38  1  0
  7 39  1  0
 10 40  1  0
 12 41  1  0
 12 42  1  0
 12 43  1  0
 13 44  1  0
 13 45  1  0
 13 46  1  0
 14 47  1  0
 14 48  1  0
 14 49  1  0
 16 50  1  0
 16 51  1  0
 17 52  1  0
 17 53  1  0
 18 54  1  0
 21 55  1  0
 21 56  1  0
 22 57  1  0
 22 58  1  0
 25 59  1  0
 27 60  1  0
 29 61  1  0
 29 62  1  0
 29 63  1  0
 32 64  1  0
 33 65  1  0
M  END
$$$$
