
     RDKit          3D

 43 45  0  0  0  0  0  0  0  0999 V2000
    6.3052    0.4114    2.6998 C   0  0  0  0  0  0  0  0  0  0  0  0
    5.5384    0.3122    1.4135 C   0  0  0  0  0  0  0  0  0  0  0  0
    6.2129    0.2365    0.1897 C   0  0  0  0  0  0  0  0  0  0  0  0
    5.5018    0.1230   -1.0092 C   0  0  0  0  0  0  0  0  0  0  0  0
    6.2301    0.0182   -2.3164 C   0  0  0  0  0  0  0  0  0  0  0  0
    4.1025    0.0479   -0.9675 C   0  0  0  0  0  0  0  0  0  0  0  0
    3.4102    0.1025    0.2501 C   0  0  0  0  0  0  0  0  0  0  0  0
    2.0019    0.0261    0.1926 N   0  0  0  0  0  0  0  0  0  0  0  0
    1.1175   -0.0166    1.2550 C   0  0  0  0  0  0  0  0  0  0  0  0
    1.3962   -0.0680    2.4468 O   0  0  0  0  0  0  0  0  0  0  0  0
   -0.3228   -0.0460    0.8700 C   0  0  0  0  0  0  0  0  0  0  0  0
   -0.8089    0.6572   -0.2373 C   0  0  0  0  0  0  0  0  0  0  0  0
   -2.1700    0.6021   -0.5651 C   0  0  0  0  0  0  0  0  0  0  0  0
   -3.0593   -0.1437    0.2119 C   0  0  0  0  0  0  0  0  0  0  0  0
   -4.4365   -0.2497   -0.0511 N   0  0  0  0  0  0  0  0  0  0  0  0
   -5.1609    0.3069   -1.0909 C   0  0  0  0  0  0  0  0  0  0  0  0
   -4.6974    1.0015   -1.9894 O   0  0  0  0  0  0  0  0  0  0  0  0
   -6.5741   -0.0227   -1.0226 C   0  0  0  0  0  0  0  0  0  0  0  0
   -7.6306    0.3230   -1.8441 C   0  0  0  0  0  0  0  0  0  0  0  0
   -8.7882   -0.2800   -1.2971 C   0  0  0  0  0  0  0  0  0  0  0  0
   -8.3731   -0.9580   -0.1758 C   0  0  0  0  0  0  0  0  0  0  0  0
   -7.0346   -0.8116    0.0028 O   0  0  0  0  0  0  0  0  0  0  0  0
   -2.5701   -0.8281    1.3318 C   0  0  0  0  0  0  0  0  0  0  0  0
   -1.2124   -0.7771    1.6627 C   0  0  0  0  0  0  0  0  0  0  0  0
    4.1370    0.2352    1.4342 C   0  0  0  0  0  0  0  0  0  0  0  0
    5.7467    0.9899    3.4432 H   0  0  0  0  0  0  0  0  0  0  0  0
    7.2629    0.9199    2.5467 H   0  0  0  0  0  0  0  0  0  0  0  0
    6.4966   -0.5893    3.0990 H   0  0  0  0  0  0  0  0  0  0  0  0
    7.3007    0.2692    0.1719 H   0  0  0  0  0  0  0  0  0  0  0  0
    6.4380   -1.0315   -2.5457 H   0  0  0  0  0  0  0  0  0  0  0  0
    7.1770    0.5673   -2.2818 H   0  0  0  0  0  0  0  0  0  0  0  0
    5.6361    0.4479   -3.1298 H   0  0  0  0  0  0  0  0  0  0  0  0
    3.5562   -0.0600   -1.9014 H   0  0  0  0  0  0  0  0  0  0  0  0
    1.6110   -0.0720   -0.7347 H   0  0  0  0  0  0  0  0  0  0  0  0
   -0.1544    1.2800   -0.8413 H   0  0  0  0  0  0  0  0  0  0  0  0
   -2.5044    1.1676   -1.4298 H   0  0  0  0  0  0  0  0  0  0  0  0
   -4.9896   -0.8054    0.5935 H   0  0  0  0  0  0  0  0  0  0  0  0
   -7.5588    0.9394   -2.7305 H   0  0  0  0  0  0  0  0  0  0  0  0
   -9.8004   -0.2269   -1.6734 H   0  0  0  0  0  0  0  0  0  0  0  0
   -8.8815   -1.5614    0.5639 H   0  0  0  0  0  0  0  0  0  0  0  0
   -3.2360   -1.4090    1.9656 H   0  0  0  0  0  0  0  0  0  0  0  0
   -0.8500   -1.3104    2.5398 H   0  0  0  0  0  0  0  0  0  0  0  0
    3.6347    0.2826    2.3957 H   0  0  0  0  0  0  0  0  0  0  0  0
  1  2  1  0
  2  3  2  0
  3  4  1  0
  4  5  1  0
  4  6  2  0
  6  7  1  0
  7  8  1  0
  8  9  1  0
  9 10  2  0
  9 11  1  0
 11 12  2  0
 12 13  1  0
 13 14  2  0
 14 15  1  0
 15 16  1  0
 16 17  2  0
 16 18  1  0
 18 19  2  0
 19 20  1  0
 20 21  2  0
 21 22  1  0
 14 23  1  0
 23 24  2  0
  7 25  2  0
 25  2  1  0
 24 11  1  0
 22 18  1  0
  1 26  1  0
  1 27  1  0
  1 28  1  0
  3 29  1  0
  5 30  1  0
  5 31  1  0
  5 32  1  0
  6 33  1  0
  8 34  1  0
 12 35  1  0
 13 36  1  0
 15 37  1  0
 19 38  1  0
 20 39  1  0
 21 40  1  0
 23 41  1  0
 24 42  1  0
 25 43  1  0
M  END
$$$$
