
     RDKit          3D

 42 44  0  0  0  0  0  0  0  0999 V2000
   -2.0779    1.9197    1.8361 C   0  0  0  0  0  0  0  0  0  0  0  0
   -3.0416    0.7590    1.6770 C   0  0  0  0  0  0  0  0  0  0  0  0
   -3.5408    0.2630    2.6911 O   0  0  0  0  0  0  0  0  0  0  0  0
   -3.3484    0.3665    0.3567 N   0  0  0  0  0  0  0  0  0  0  0  0
   -2.4119    0.4511   -0.6769 C   0  0  0  0  0  0  0  0  0  0  0  0
   -1.0965    0.1780   -0.6454 C   0  0  0  0  0  0  0  0  0  0  0  0
   -0.3524   -0.4330    0.4366 C   0  0  0  0  0  0  0  0  0  0  0  0
    0.9814   -0.5581    0.5402 C   0  0  0  0  0  0  0  0  0  0  0  0
    1.9831   -0.0581   -0.3826 C   0  0  0  0  0  0  0  0  0  0  0  0
    3.3115   -0.2159   -0.2828 C   0  0  0  0  0  0  0  0  0  0  0  0
    4.1931   -1.0576    0.9560 S   0  0  0  0  0  0  0  0  0  0  0  0
    5.7430   -0.6838    0.1834 C   0  0  0  0  0  0  0  0  0  0  0  0
    6.9988   -1.0595    0.6388 C   0  0  0  0  0  0  0  0  0  0  0  0
    8.1262   -0.6783   -0.0975 C   0  0  0  0  0  0  0  0  0  0  0  0
    7.9917    0.0708   -1.2763 C   0  0  0  0  0  0  0  0  0  0  0  0
    6.7277    0.4470   -1.7318 C   0  0  0  0  0  0  0  0  0  0  0  0
    5.6217    0.0590   -0.9868 C   0  0  0  0  0  0  0  0  0  0  0  0
    4.2248    0.3650   -1.3154 C   0  0  0  0  0  0  0  0  0  0  0  0
    3.8831    1.0033   -2.2967 O   0  0  0  0  0  0  0  0  0  0  0  0
   -4.7024   -0.0700    0.0571 C   0  0  0  0  0  0  0  0  0  0  0  0
   -4.9777   -0.8092   -1.1093 C   0  0  0  0  0  0  0  0  0  0  0  0
   -6.2778   -1.2226   -1.4221 C   0  0  0  0  0  0  0  0  0  0  0  0
   -7.3333   -0.9049   -0.5751 C   0  0  0  0  0  0  0  0  0  0  0  0
   -7.0876   -0.1782    0.5845 C   0  0  0  0  0  0  0  0  0  0  0  0
   -5.7864    0.2339    0.8967 C   0  0  0  0  0  0  0  0  0  0  0  0
   -1.9304    2.4787    0.9096 H   0  0  0  0  0  0  0  0  0  0  0  0
   -2.5055    2.6191    2.5623 H   0  0  0  0  0  0  0  0  0  0  0  0
   -1.1201    1.5633    2.2203 H   0  0  0  0  0  0  0  0  0  0  0  0
   -2.8361    0.7395   -1.6383 H   0  0  0  0  0  0  0  0  0  0  0  0
   -0.5513    0.3352   -1.5745 H   0  0  0  0  0  0  0  0  0  0  0  0
   -0.9460   -0.8764    1.2370 H   0  0  0  0  0  0  0  0  0  0  0  0
    1.3502   -1.0808    1.4227 H   0  0  0  0  0  0  0  0  0  0  0  0
    1.6173    0.5098   -1.2360 H   0  0  0  0  0  0  0  0  0  0  0  0
    7.1119   -1.6394    1.5504 H   0  0  0  0  0  0  0  0  0  0  0  0
    9.1178   -0.9655    0.2471 H   0  0  0  0  0  0  0  0  0  0  0  0
    8.8780    0.3594   -1.8376 H   0  0  0  0  0  0  0  0  0  0  0  0
    6.6088    1.0269   -2.6426 H   0  0  0  0  0  0  0  0  0  0  0  0
   -4.1817   -1.1119   -1.7843 H   0  0  0  0  0  0  0  0  0  0  0  0
   -6.4601   -1.8015   -2.3239 H   0  0  0  0  0  0  0  0  0  0  0  0
   -8.3431   -1.2278   -0.8135 H   0  0  0  0  0  0  0  0  0  0  0  0
   -7.9064    0.0717    1.2547 H   0  0  0  0  0  0  0  0  0  0  0  0
   -5.6543    0.8126    1.8071 H   0  0  0  0  0  0  0  0  0  0  0  0
  1  2  1  0
  2  3  2  0
  2  4  1  0
  4  5  1  0
  5  6  2  3
  6  7  1  0
  7  8  2  3
  8  9  1  0
  9 10  2  3
 10 11  1  0
 11 12  1  0
 12 13  2  0
 13 14  1  0
 14 15  2  0
 15 16  1  0
 16 17  2  0
 17 18  1  0
 18 19  2  0
  4 20  1  0
 20 21  2  0
 21 22  1  0
 22 23  2  0
 23 24  1  0
 24 25  2  0
 18 10  1  0
 25 20  1  0
 17 12  1  0
  1 26  1  0
  1 27  1  0
  1 28  1  0
  5 29  1  0
  6 30  1  0
  7 31  1  0
  8 32  1  0
  9 33  1  0
 13 34  1  0
 14 35  1  0
 15 36  1  0
 16 37  1  0
 21 38  1  0
 22 39  1  0
 23 40  1  0
 24 41  1  0
 25 42  1  0
M  END
$$$$
