
     RDKit          3D

 47 49  0  0  0  0  0  0  0  0999 V2000
   -3.9711   -0.2072   -2.3942 C   0  0  0  0  0  0  0  0  0  0  0  0
   -4.0354    0.7403   -1.2083 C   0  0  0  0  0  0  0  0  0  0  0  0
   -4.1665    0.0154    0.0632 N   0  0  0  0  0  4  0  0  0  0  0  0
   -3.1247   -0.2994    0.8259 C   0  0  0  0  0  0  0  0  0  0  0  0
   -1.7567   -0.0749    0.5131 C   0  0  0  0  0  0  0  0  0  0  0  0
   -0.8636    0.3430    1.4252 C   0  0  0  0  0  0  0  0  0  0  0  0
    0.5270    0.6139    1.1276 C   0  0  0  0  0  0  0  0  0  0  0  0
    1.3288   -0.1986    0.4208 C   0  0  0  0  0  0  0  0  0  0  0  0
    2.7423    0.0957    0.1505 C   0  0  0  0  0  0  0  0  0  0  0  0
    3.5983    0.6168    1.1193 C   0  0  0  0  0  0  0  0  0  0  0  0
    4.9492    0.8613    0.8245 C   0  0  0  0  0  0  0  0  0  0  0  0
    5.5094    0.5823   -0.4340 C   0  0  0  0  0  0  0  0  0  0  0  0
    6.8509    0.8514   -0.7234 N   0  0  0  0  0  0  0  0  0  0  0  0
    7.7963    0.9914    0.3846 C   0  0  0  0  0  0  0  0  0  0  0  0
    7.4254    0.3820   -1.9829 C   0  0  0  0  0  0  0  0  0  0  0  0
    4.6244    0.0555   -1.3896 C   0  0  0  0  0  0  0  0  0  0  0  0
    3.2722   -0.1956   -1.1052 C   0  0  0  0  0  0  0  0  0  0  0  0
   -3.6448   -1.0945    2.2592 S   0  0  0  0  0  0  0  0  0  0  0  0
   -5.2985   -0.9961    1.8071 C   0  0  0  0  0  0  0  0  0  0  0  0
   -6.4266   -1.4557    2.5041 C   0  0  0  0  0  0  0  0  0  0  0  0
   -7.6826   -1.2627    1.9241 C   0  0  0  0  0  0  0  0  0  0  0  0
   -7.8105   -0.6346    0.6896 C   0  0  0  0  0  0  0  0  0  0  0  0
   -6.6809   -0.1781   -0.0007 C   0  0  0  0  0  0  0  0  0  0  0  0
   -5.4053   -0.3617    0.5728 C   0  0  0  0  0  0  0  0  0  0  0  0
   -4.8743   -0.8226   -2.4572 H   0  0  0  0  0  0  0  0  0  0  0  0
   -3.1154   -0.8835   -2.3108 H   0  0  0  0  0  0  0  0  0  0  0  0
   -3.8743    0.3561   -3.3270 H   0  0  0  0  0  0  0  0  0  0  0  0
   -3.1434    1.3765   -1.1880 H   0  0  0  0  0  0  0  0  0  0  0  0
   -4.8786    1.4308   -1.3208 H   0  0  0  0  0  0  0  0  0  0  0  0
   -1.4308   -0.2289   -0.5128 H   0  0  0  0  0  0  0  0  0  0  0  0
   -1.1471    0.5595    2.4553 H   0  0  0  0  0  0  0  0  0  0  0  0
    0.9222    1.5335    1.5591 H   0  0  0  0  0  0  0  0  0  0  0  0
    0.9623   -1.1307   -0.0015 H   0  0  0  0  0  0  0  0  0  0  0  0
    3.2410    0.8368    2.1218 H   0  0  0  0  0  0  0  0  0  0  0  0
    5.5541    1.2858    1.6201 H   0  0  0  0  0  0  0  0  0  0  0  0
    7.5634    1.8704    0.9948 H   0  0  0  0  0  0  0  0  0  0  0  0
    7.7991    0.0953    1.0151 H   0  0  0  0  0  0  0  0  0  0  0  0
    8.8193    1.1402    0.0210 H   0  0  0  0  0  0  0  0  0  0  0  0
    7.4166   -0.7121   -2.0353 H   0  0  0  0  0  0  0  0  0  0  0  0
    6.8885    0.7969   -2.8426 H   0  0  0  0  0  0  0  0  0  0  0  0
    8.4648    0.7121   -2.0916 H   0  0  0  0  0  0  0  0  0  0  0  0
    4.9652   -0.1824   -2.3928 H   0  0  0  0  0  0  0  0  0  0  0  0
    2.6464   -0.6123   -1.8902 H   0  0  0  0  0  0  0  0  0  0  0  0
   -6.3339   -1.9503    3.4687 H   0  0  0  0  0  0  0  0  0  0  0  0
   -8.5736   -1.6115    2.4472 H   0  0  0  0  0  0  0  0  0  0  0  0
   -8.8025   -0.4991    0.2585 H   0  0  0  0  0  0  0  0  0  0  0  0
   -6.8262    0.3020   -0.9642 H   0  0  0  0  0  0  0  0  0  0  0  0
  1  2  1  0
  2  3  1  0
  3  4  2  0
  4  5  1  0
  5  6  2  3
  6  7  1  0
  7  8  2  3
  8  9  1  0
  9 10  2  0
 10 11  1  0
 11 12  2  0
 12 13  1  0
 13 14  1  0
 13 15  1  0
 12 16  1  0
 16 17  2  0
  4 18  1  0
 18 19  1  0
 19 20  2  0
 20 21  1  0
 21 22  2  0
 22 23  1  0
 23 24  2  0
 24  3  1  0
 17  9  1  0
 24 19  1  0
  1 25  1  0
  1 26  1  0
  1 27  1  0
  2 28  1  0
  2 29  1  0
  5 30  1  0
  6 31  1  0
  7 32  1  0
  8 33  1  0
 10 34  1  0
 11 35  1  0
 14 36  1  0
 14 37  1  0
 14 38  1  0
 15 39  1  0
 15 40  1  0
 15 41  1  0
 16 42  1  0
 17 43  1  0
 20 44  1  0
 21 45  1  0
 22 46  1  0
 23 47  1  0
M  CHG  1   3   1
M  END
$$$$
