
     RDKit          3D

 47 50  0  0  0  0  0  0  0  0999 V2000
   -9.1502    0.2619   -1.1571 C   0  0  0  0  0  0  0  0  0  0  0  0
   -7.9056   -0.4271   -1.0190 O   0  0  0  0  0  0  0  0  0  0  0  0
   -6.9137    0.3292   -0.4827 C   0  0  0  0  0  0  0  0  0  0  0  0
   -7.0107    1.4963   -0.1422 O   0  0  0  0  0  0  0  0  0  0  0  0
   -5.6597   -0.4645   -0.3485 C   0  0  0  0  0  0  0  0  0  0  0  0
   -5.5509   -1.7738   -0.8260 C   0  0  0  0  0  0  0  0  0  0  0  0
   -4.3506   -2.4667   -0.6805 C   0  0  0  0  0  0  0  0  0  0  0  0
   -3.2507   -1.8657   -0.0510 C   0  0  0  0  0  0  0  0  0  0  0  0
   -3.3408   -0.5642    0.4549 C   0  0  0  0  0  0  0  0  0  0  0  0
   -2.2668    0.0902    1.1307 N   0  0  0  0  0  0  0  0  0  0  0  0
   -2.3902    1.4043    1.4727 N   0  0  0  0  0  0  0  0  0  0  0  0
   -1.2632    1.7594    2.0604 N   0  0  0  0  0  0  0  0  0  0  0  0
   -0.4009    0.7090    2.1388 N   0  0  0  0  0  0  0  0  0  0  0  0
   -1.0160   -0.3159    1.5930 C   0  0  0  0  0  0  0  0  0  0  0  0
   -0.3261   -1.9043    1.5375 S   0  0  0  0  0  0  0  0  0  0  0  0
    0.9218   -1.8091    2.8608 C   0  0  0  0  0  0  0  0  0  0  0  0
    2.1505   -0.9695    2.5215 C   0  0  0  0  0  0  0  0  0  0  0  0
    2.7817   -0.4355    3.4327 O   0  0  0  0  0  0  0  0  0  0  0  0
    2.4909   -0.9750    1.1884 N   0  0  0  0  0  0  0  0  0  0  0  0
    3.5344   -0.3237    0.5846 C   0  0  0  0  0  0  0  0  0  0  0  0
    3.6911   -0.3796   -0.7208 N   0  0  0  0  0  0  0  0  0  0  0  0
    4.7973    0.3661   -1.0748 C   0  0  0  0  0  0  0  0  0  0  0  0
    5.4564    0.9717   -0.0254 C   0  0  0  0  0  0  0  0  0  0  0  0
    4.6933    0.5885    1.4438 S   0  0  0  0  0  0  0  0  0  0  0  0
    6.6739    1.8185   -0.1471 C   0  0  0  0  0  0  0  0  0  0  0  0
    6.8507    2.2738   -1.6082 C   0  0  0  0  0  0  0  0  0  0  0  0
    6.6240    1.1217   -2.6048 C   0  0  0  0  0  0  0  0  0  0  0  0
    5.2071    0.5330   -2.4980 C   0  0  0  0  0  0  0  0  0  0  0  0
   -4.5551    0.1347    0.2840 C   0  0  0  0  0  0  0  0  0  0  0  0
   -9.0518    1.0887   -1.8672 H   0  0  0  0  0  0  0  0  0  0  0  0
   -9.8879   -0.4453   -1.5479 H   0  0  0  0  0  0  0  0  0  0  0  0
   -9.5003    0.6225   -0.1837 H   0  0  0  0  0  0  0  0  0  0  0  0
   -6.3889   -2.2659   -1.3169 H   0  0  0  0  0  0  0  0  0  0  0  0
   -4.2659   -3.4848   -1.0624 H   0  0  0  0  0  0  0  0  0  0  0  0
   -2.3490   -2.4618   -0.0046 H   0  0  0  0  0  0  0  0  0  0  0  0
    1.2685   -2.8286    3.0679 H   0  0  0  0  0  0  0  0  0  0  0  0
    0.4582   -1.4151    3.7725 H   0  0  0  0  0  0  0  0  0  0  0  0
    1.8785   -1.4350    0.5262 H   0  0  0  0  0  0  0  0  0  0  0  0
    7.5515    1.2335    0.1582 H   0  0  0  0  0  0  0  0  0  0  0  0
    6.6152    2.6968    0.5056 H   0  0  0  0  0  0  0  0  0  0  0  0
    6.1408    3.0816   -1.8291 H   0  0  0  0  0  0  0  0  0  0  0  0
    7.8567    2.6881   -1.7406 H   0  0  0  0  0  0  0  0  0  0  0  0
    6.7983    1.4726   -3.6284 H   0  0  0  0  0  0  0  0  0  0  0  0
    7.3632    0.3337   -2.4089 H   0  0  0  0  0  0  0  0  0  0  0  0
    4.4901    1.2052   -2.9879 H   0  0  0  0  0  0  0  0  0  0  0  0
    5.1675   -0.4277   -3.0221 H   0  0  0  0  0  0  0  0  0  0  0  0
   -4.6669    1.1578    0.6471 H   0  0  0  0  0  0  0  0  0  0  0  0
  1  2  1  0
  2  3  1  0
  3  4  2  0
  3  5  1  0
  5  6  2  0
  6  7  1  0
  7  8  2  0
  8  9  1  0
  9 10  1  0
 10 11  1  0
 11 12  2  0
 12 13  1  0
 13 14  2  0
 14 15  1  0
 15 16  1  0
 16 17  1  0
 17 18  2  0
 17 19  1  0
 19 20  1  0
 20 21  2  0
 21 22  1  0
 22 23  2  0
 23 24  1  0
 23 25  1  0
 25 26  1  0
 26 27  1  0
 27 28  1  0
  9 29  2  0
 29  5  1  0
 14 10  1  0
 24 20  1  0
 28 22  1  0
  1 30  1  0
  1 31  1  0
  1 32  1  0
  6 33  1  0
  7 34  1  0
  8 35  1  0
 16 36  1  0
 16 37  1  0
 19 38  1  0
 25 39  1  0
 25 40  1  0
 26 41  1  0
 26 42  1  0
 27 43  1  0
 27 44  1  0
 28 45  1  0
 28 46  1  0
 29 47  1  0
M  END
$$$$
