
     RDKit          3D

 59 62  0  0  0  0  0  0  0  0999 V2000
    5.7372    0.7925    5.3131 C   0  0  0  0  0  0  0  0  0  0  0  0
    4.9300   -0.2606    4.7959 O   0  0  0  0  0  0  0  0  0  0  0  0
    4.7110   -0.2628    3.4465 C   0  0  0  0  0  0  0  0  0  0  0  0
    5.3278    0.5751    2.5156 C   0  0  0  0  0  0  0  0  0  0  0  0
    5.0159    0.4703    1.1535 C   0  0  0  0  0  0  0  0  0  0  0  0
    4.0744   -0.4670    0.7131 C   0  0  0  0  0  0  0  0  0  0  0  0
    3.7103   -0.6211   -0.7318 C   0  0  0  0  0  0  0  0  0  0  0  0
    3.2458   -1.6970   -1.1100 O   0  0  0  0  0  0  0  0  0  0  0  0
    3.9639    0.5337   -1.6871 C   0  0  0  0  0  0  0  0  0  0  0  0
    2.5374    0.8121   -2.7807 S   0  0  0  0  0  0  0  0  0  0  0  0
    1.3896    1.4125   -1.6364 C   0  0  0  0  0  0  0  0  0  0  0  0
    1.6650    1.7681   -0.4051 N   0  0  0  0  0  0  0  0  0  0  0  0
    0.5019    2.1918    0.1794 N   0  0  0  0  0  0  0  0  0  0  0  0
   -0.4687    2.0964   -0.7132 C   0  0  0  0  0  0  0  0  0  0  0  0
   -1.9047    2.4288   -0.4427 C   0  0  0  0  0  0  0  0  0  0  0  0
   -2.4279    1.8820    0.8231 N   0  0  0  0  0  0  0  0  0  0  0  0
   -2.9509    0.5782    0.6658 C   0  0  0  0  0  0  0  0  0  0  0  0
   -2.0987   -0.5297    0.7130 C   0  0  0  0  0  0  0  0  0  0  0  0
   -2.5908   -1.8151    0.5015 C   0  0  0  0  0  0  0  0  0  0  0  0
   -3.9383   -2.0252    0.2187 C   0  0  0  0  0  0  0  0  0  0  0  0
   -4.4754   -3.4133    0.0311 C   0  0  0  0  0  0  0  0  0  0  0  0
   -4.7916   -0.9222    0.1668 C   0  0  0  0  0  0  0  0  0  0  0  0
   -4.3113    0.3818    0.3784 C   0  0  0  0  0  0  0  0  0  0  0  0
   -5.2748    1.5473    0.3503 C   0  0  0  0  0  0  0  0  0  0  0  0
    0.0578    1.6081   -1.8878 N   0  0  0  0  0  0  0  0  0  0  0  0
   -0.6562    1.3705   -3.1313 C   0  0  0  0  0  0  0  0  0  0  0  0
   -1.3116    0.0434   -3.1376 C   0  0  0  0  0  0  0  0  0  0  0  0
   -2.6280   -0.3673   -3.1933 C   0  0  0  0  0  0  0  0  0  0  0  0
   -2.6048   -1.7809   -3.1520 C   0  0  0  0  0  0  0  0  0  0  0  0
   -1.2819   -2.1437   -3.0806 C   0  0  0  0  0  0  0  0  0  0  0  0
   -0.4886   -1.0415   -3.1018 O   0  0  0  0  0  0  0  0  0  0  0  0
    3.4668   -1.3166    1.6489 C   0  0  0  0  0  0  0  0  0  0  0  0
    3.7891   -1.2134    3.0032 C   0  0  0  0  0  0  0  0  0  0  0  0
    5.7602    0.6949    6.3971 H   0  0  0  0  0  0  0  0  0  0  0  0
    5.3180    1.7775    5.0742 H   0  0  0  0  0  0  0  0  0  0  0  0
    6.7598    0.7096    4.9503 H   0  0  0  0  0  0  0  0  0  0  0  0
    6.0659    1.3161    2.8179 H   0  0  0  0  0  0  0  0  0  0  0  0
    5.5399    1.1278    0.4612 H   0  0  0  0  0  0  0  0  0  0  0  0
    4.8374    0.2791   -2.2960 H   0  0  0  0  0  0  0  0  0  0  0  0
    4.1792    1.4708   -1.1737 H   0  0  0  0  0  0  0  0  0  0  0  0
   -2.5582    2.1633   -1.2830 H   0  0  0  0  0  0  0  0  0  0  0  0
   -1.9601    3.5196   -0.3569 H   0  0  0  0  0  0  0  0  0  0  0  0
   -1.6396    1.8387    1.4749 H   0  0  0  0  0  0  0  0  0  0  0  0
   -1.0360   -0.4055    0.9186 H   0  0  0  0  0  0  0  0  0  0  0  0
   -1.8957   -2.6595    0.5619 H   0  0  0  0  0  0  0  0  0  0  0  0
   -4.8204   -3.8106    0.9903 H   0  0  0  0  0  0  0  0  0  0  0  0
   -5.3128   -3.4186   -0.6779 H   0  0  0  0  0  0  0  0  0  0  0  0
   -3.7144   -4.0828   -0.3711 H   0  0  0  0  0  0  0  0  0  0  0  0
   -5.8486   -1.0805   -0.0276 H   0  0  0  0  0  0  0  0  0  0  0  0
   -5.2523    2.0652    1.3174 H   0  0  0  0  0  0  0  0  0  0  0  0
   -5.0248    2.2560   -0.4425 H   0  0  0  0  0  0  0  0  0  0  0  0
   -6.3003    1.2046    0.1746 H   0  0  0  0  0  0  0  0  0  0  0  0
    0.0399    1.4591   -3.9679 H   0  0  0  0  0  0  0  0  0  0  0  0
   -1.3891    2.1737   -3.2514 H   0  0  0  0  0  0  0  0  0  0  0  0
   -3.5000    0.2691   -3.2298 H   0  0  0  0  0  0  0  0  0  0  0  0
   -3.4518   -2.4583   -3.1398 H   0  0  0  0  0  0  0  0  0  0  0  0
   -0.7627   -3.0886   -3.0127 H   0  0  0  0  0  0  0  0  0  0  0  0
    2.7370   -2.0579    1.3313 H   0  0  0  0  0  0  0  0  0  0  0  0
    3.3098   -1.8778    3.7214 H   0  0  0  0  0  0  0  0  0  0  0  0
  1  2  1  0
  2  3  1  0
  3  4  2  0
  4  5  1  0
  5  6  2  0
  6  7  1  0
  7  8  2  0
  7  9  1  0
  9 10  1  0
 10 11  1  0
 11 12  2  0
 12 13  1  0
 13 14  2  0
 14 15  1  0
 15 16  1  0
 16 17  1  0
 17 18  2  0
 18 19  1  0
 19 20  2  0
 20 21  1  0
 20 22  1  0
 22 23  2  0
 23 24  1  0
 14 25  1  0
 25 26  1  0
 26 27  1  0
 27 28  2  0
 28 29  1  0
 29 30  2  0
 30 31  1  0
  6 32  1  0
 32 33  2  0
 33  3  1  0
 25 11  1  0
 31 27  1  0
 23 17  1  0
  1 34  1  0
  1 35  1  0
  1 36  1  0
  4 37  1  0
  5 38  1  0
  9 39  1  0
  9 40  1  0
 15 41  1  0
 15 42  1  0
 16 43  1  0
 18 44  1  0
 19 45  1  0
 21 46  1  0
 21 47  1  0
 21 48  1  0
 22 49  1  0
 24 50  1  0
 24 51  1  0
 24 52  1  0
 26 53  1  0
 26 54  1  0
 28 55  1  0
 29 56  1  0
 30 57  1  0
 32 58  1  0
 33 59  1  0
M  END
$$$$
