
     RDKit          3D

 42 44  0  0  0  0  0  0  0  0999 V2000
    3.7411    0.9988    6.4075 C   0  0  0  0  0  0  0  0  0  0  0  0
    4.2638    0.8655    5.0919 O   0  0  0  0  0  0  0  0  0  0  0  0
    3.3687    0.6892    4.0736 C   0  0  0  0  0  0  0  0  0  0  0  0
    3.9472    0.5659    2.8132 C   0  0  0  0  0  0  0  0  0  0  0  0
    3.1491    0.3814    1.6847 C   0  0  0  0  0  0  0  0  0  0  0  0
    1.7502    0.3164    1.7960 C   0  0  0  0  0  0  0  0  0  0  0  0
    0.9940    0.1152    0.5138 C   0  0  0  0  0  0  0  0  0  0  0  0
    1.5984    0.0171   -0.5543 O   0  0  0  0  0  0  0  0  0  0  0  0
   -0.3911    0.0459    0.5845 N   0  0  0  0  0  0  0  0  0  0  0  0
   -1.3317   -0.1317   -0.4232 C   0  0  0  0  0  0  0  0  0  0  0  0
   -2.9251   -0.1598    0.0746 S   0  0  0  0  0  0  0  0  0  0  0  0
   -0.7923   -0.2570   -1.6823 N   0  0  0  0  0  0  0  0  0  0  0  0
   -1.3347   -0.4471   -2.9727 C   0  0  0  0  0  0  0  0  0  0  0  0
   -0.3795   -0.5237   -4.0271 C   0  0  0  0  0  0  0  0  0  0  0  0
   -0.7517   -0.7102   -5.3655 C   0  0  0  0  0  0  0  0  0  0  0  0
   -2.0944   -0.8166   -5.6141 C   0  0  0  0  0  0  0  0  0  0  0  0
   -2.7686   -1.0031   -6.8149 N   0  0  0  0  0  0  0  0  0  0  0  0
   -4.1461   -1.0485   -6.5549 C   0  0  0  0  0  0  0  0  0  0  0  0
   -5.0352   -1.1998   -7.3733 O   0  0  0  0  0  0  0  0  0  0  0  0
   -4.2982   -0.8859   -5.1706 N   0  0  0  0  0  0  0  0  0  0  0  0
   -3.0388   -0.7438   -4.5953 C   0  0  0  0  0  0  0  0  0  0  0  0
   -2.6954   -0.5609   -3.2725 C   0  0  0  0  0  0  0  0  0  0  0  0
    1.1581    0.4407    3.0711 C   0  0  0  0  0  0  0  0  0  0  0  0
   -0.2119    0.3720    3.1397 O   0  0  0  0  0  0  0  0  0  0  0  0
   -0.8330    0.4949    4.4162 C   0  0  0  0  0  0  0  0  0  0  0  0
    1.9782    0.6264    4.1993 C   0  0  0  0  0  0  0  0  0  0  0  0
    3.1032    1.8849    6.4903 H   0  0  0  0  0  0  0  0  0  0  0  0
    4.5852    1.1309    7.0912 H   0  0  0  0  0  0  0  0  0  0  0  0
    3.2040    0.0944    6.7118 H   0  0  0  0  0  0  0  0  0  0  0  0
    5.0289    0.6136    2.7063 H   0  0  0  0  0  0  0  0  0  0  0  0
    3.6323    0.2884    0.7132 H   0  0  0  0  0  0  0  0  0  0  0  0
   -0.8017    0.1370    1.5080 H   0  0  0  0  0  0  0  0  0  0  0  0
    0.2283   -0.1975   -1.6661 H   0  0  0  0  0  0  0  0  0  0  0  0
    0.6832   -0.4360   -3.8014 H   0  0  0  0  0  0  0  0  0  0  0  0
   -0.0114   -0.7660   -6.1535 H   0  0  0  0  0  0  0  0  0  0  0  0
   -2.3691   -1.0943   -7.7341 H   0  0  0  0  0  0  0  0  0  0  0  0
   -5.1875   -0.8776   -4.6988 H   0  0  0  0  0  0  0  0  0  0  0  0
   -3.4796   -0.5138   -2.5351 H   0  0  0  0  0  0  0  0  0  0  0  0
   -0.5280   -0.3186    5.0823 H   0  0  0  0  0  0  0  0  0  0  0  0
   -1.9143    0.4157    4.2679 H   0  0  0  0  0  0  0  0  0  0  0  0
   -0.6290    1.4744    4.8605 H   0  0  0  0  0  0  0  0  0  0  0  0
    1.5343    0.7229    5.1818 H   0  0  0  0  0  0  0  0  0  0  0  0
  1  2  1  0
  2  3  1  0
  3  4  2  0
  4  5  1  0
  5  6  2  0
  6  7  1  0
  7  8  2  0
  7  9  1  0
  9 10  1  0
 10 11  2  0
 10 12  1  0
 12 13  1  0
 13 14  2  0
 14 15  1  0
 15 16  2  0
 16 17  1  0
 17 18  1  0
 18 19  2  0
 18 20  1  0
 20 21  1  0
 21 22  2  0
  6 23  1  0
 23 24  1  0
 24 25  1  0
 23 26  2  0
 26  3  1  0
 22 13  1  0
 21 16  1  0
  1 27  1  0
  1 28  1  0
  1 29  1  0
  4 30  1  0
  5 31  1  0
  9 32  1  0
 12 33  1  0
 14 34  1  0
 15 35  1  0
 17 36  1  0
 20 37  1  0
 22 38  1  0
 25 39  1  0
 25 40  1  0
 25 41  1  0
 26 42  1  0
M  END
$$$$
