
     RDKit          3D

 60 65  0  0  0  0  0  0  0  0999 V2000
    3.0148   -0.1027   -3.6817 C   0  0  0  0  0  0  0  0  0  0  0  0
    4.0844   -0.7768   -2.9071 C   0  0  0  0  0  0  0  0  0  0  0  0
    4.9060   -1.6339   -3.5292 N   0  0  0  0  0  0  0  0  0  0  0  0
    5.8400   -2.0144   -2.5857 O   0  0  0  0  0  0  0  0  0  0  0  0
    5.5658   -1.4026   -1.4043 C   0  0  0  0  0  0  0  0  0  0  0  0
    6.4942   -1.6777   -0.2902 C   0  0  0  0  0  0  0  0  0  0  0  0
    4.4298   -0.6316   -1.5371 C   0  0  0  0  0  0  0  0  0  0  0  0
    3.8438    0.1767   -0.4905 C   0  0  0  0  0  0  0  0  0  0  0  0
    4.5401    0.9533    0.1585 O   0  0  0  0  0  0  0  0  0  0  0  0
    2.4768    0.0324   -0.2410 N   0  0  0  0  0  0  0  0  0  0  0  0
    1.6675   -1.1024   -0.6859 C   0  0  0  0  0  0  0  0  0  0  0  0
    0.6918   -1.5395    0.4033 C   0  0  0  0  0  0  0  0  0  0  0  0
   -0.2966   -0.4079    0.8283 C   0  0  0  0  0  0  0  0  0  0  0  0
    0.3525    0.9792    0.5546 C   0  0  0  0  0  0  0  0  0  0  0  0
    1.8659    0.9370    0.7261 C   0  0  0  0  0  0  0  0  0  0  0  0
   -0.4549   -0.4513    2.2723 O   0  0  0  0  0  0  0  0  0  0  0  0
   -1.2039   -1.4840    2.7618 C   0  0  0  0  0  0  0  0  0  0  0  0
   -1.0171   -1.7947    4.1107 C   0  0  0  0  0  0  0  0  0  0  0  0
   -1.7255   -2.8504    4.6872 C   0  0  0  0  0  0  0  0  0  0  0  0
   -2.6189   -3.5829    3.9122 C   0  0  0  0  0  0  0  0  0  0  0  0
   -3.2942   -4.5963    4.4696 F   0  0  0  0  0  0  0  0  0  0  0  0
   -2.8294   -3.2722    2.5740 C   0  0  0  0  0  0  0  0  0  0  0  0
   -2.1217   -2.2099    2.0042 C   0  0  0  0  0  0  0  0  0  0  0  0
   -2.3533   -1.8257    0.5988 C   0  0  0  0  0  0  0  0  0  0  0  0
   -3.0879   -2.5142   -0.1031 O   0  0  0  0  0  0  0  0  0  0  0  0
   -1.6859   -0.5321    0.1395 C   0  0  0  0  0  0  0  0  0  0  0  0
   -2.6626    0.6084    0.4013 C   0  0  0  0  0  0  0  0  0  0  0  0
   -2.6383    1.2671   -0.9339 C   0  0  0  0  0  0  0  0  0  0  0  0
   -3.3044    2.5676   -1.1828 C   0  0  0  0  0  0  0  0  0  0  0  0
   -3.9879    3.2482   -0.1675 C   0  0  0  0  0  0  0  0  0  0  0  0
   -4.6038    4.4752   -0.4397 C   0  0  0  0  0  0  0  0  0  0  0  0
   -4.5435    5.0170   -1.7235 C   0  0  0  0  0  0  0  0  0  0  0  0
   -5.3090    6.5215   -2.0523 Cl  0  0  0  0  0  0  0  0  0  0  0  0
   -3.8679    4.3456   -2.7404 C   0  0  0  0  0  0  0  0  0  0  0  0
   -3.2469    3.1236   -2.4705 C   0  0  0  0  0  0  0  0  0  0  0  0
   -1.9946    0.6202   -1.8510 N   0  0  0  0  0  0  0  0  0  0  0  0
   -1.5218   -0.5828   -1.2830 O   0  0  0  0  0  0  0  0  0  0  0  0
    2.1775   -0.7878   -3.8567 H   0  0  0  0  0  0  0  0  0  0  0  0
    2.6346    0.7814   -3.1562 H   0  0  0  0  0  0  0  0  0  0  0  0
    3.3947    0.2320   -4.6559 H   0  0  0  0  0  0  0  0  0  0  0  0
    7.0775   -2.5854   -0.4754 H   0  0  0  0  0  0  0  0  0  0  0  0
    5.9461   -1.8160    0.6478 H   0  0  0  0  0  0  0  0  0  0  0  0
    7.1903   -0.8444   -0.1623 H   0  0  0  0  0  0  0  0  0  0  0  0
    1.1254   -0.7917   -1.5838 H   0  0  0  0  0  0  0  0  0  0  0  0
    2.3080   -1.9483   -0.9509 H   0  0  0  0  0  0  0  0  0  0  0  0
    0.1535   -2.4284    0.0553 H   0  0  0  0  0  0  0  0  0  0  0  0
    1.2728   -1.8684    1.2764 H   0  0  0  0  0  0  0  0  0  0  0  0
   -0.0527    1.7345    1.2386 H   0  0  0  0  0  0  0  0  0  0  0  0
    0.1478    1.3175   -0.4666 H   0  0  0  0  0  0  0  0  0  0  0  0
    2.2850    1.9412    0.5931 H   0  0  0  0  0  0  0  0  0  0  0  0
    2.1414    0.5962    1.7316 H   0  0  0  0  0  0  0  0  0  0  0  0
   -0.3126   -1.2248    4.7115 H   0  0  0  0  0  0  0  0  0  0  0  0
   -1.5838   -3.1095    5.7334 H   0  0  0  0  0  0  0  0  0  0  0  0
   -3.5436   -3.8504    1.9940 H   0  0  0  0  0  0  0  0  0  0  0  0
   -3.6829    0.2686    0.6130 H   0  0  0  0  0  0  0  0  0  0  0  0
   -2.3410    1.2812    1.1989 H   0  0  0  0  0  0  0  0  0  0  0  0
   -4.0614    2.8472    0.8413 H   0  0  0  0  0  0  0  0  0  0  0  0
   -5.1332    5.0004    0.3523 H   0  0  0  0  0  0  0  0  0  0  0  0
   -3.8220    4.7624   -3.7434 H   0  0  0  0  0  0  0  0  0  0  0  0
   -2.7250    2.6056   -3.2748 H   0  0  0  0  0  0  0  0  0  0  0  0
  1  2  1  0
  2  3  2  0
  3  4  1  0
  4  5  1  0
  5  6  1  0
  5  7  2  0
  7  8  1  0
  8  9  2  0
  8 10  1  0
 10 11  1  0
 11 12  1  0
 12 13  1  0
 13 14  1  0
 14 15  1  0
 13 16  1  0
 16 17  1  0
 17 18  2  0
 18 19  1  0
 19 20  2  0
 20 21  1  0
 20 22  1  0
 22 23  2  0
 23 24  1  0
 24 25  2  0
 24 26  1  0
 26 27  1  0
 27 28  1  0
 28 29  1  0
 29 30  2  0
 30 31  1  0
 31 32  2  0
 32 33  1  0
 32 34  1  0
 34 35  2  0
 28 36  2  0
 36 37  1  0
  7  2  1  0
 15 10  1  0
 23 17  1  0
 37 26  1  0
 26 13  1  0
 35 29  1  0
  1 38  1  0
  1 39  1  0
  1 40  1  0
  6 41  1  0
  6 42  1  0
  6 43  1  0
 11 44  1  0
 11 45  1  0
 12 46  1  0
 12 47  1  0
 14 48  1  0
 14 49  1  0
 15 50  1  0
 15 51  1  0
 18 52  1  0
 19 53  1  0
 22 54  1  0
 27 55  1  0
 27 56  1  0
 30 57  1  0
 31 58  1  0
 34 59  1  0
 35 60  1  0
M  END
$$$$
