
     RDKit          3D

 44 44  0  0  0  0  0  0  0  0999 V2000
   -0.9775    0.6152    1.9288 C   0  0  0  0  0  0  0  0  0  0  0  0
   -1.8265   -0.4550    1.2095 C   0  0  0  0  0  0  0  0  0  0  0  0
   -3.1335   -0.5970    1.9979 C   0  0  0  0  0  0  0  0  0  0  0  0
   -2.0266   -0.1261   -0.3089 C   0  0  0  0  0  0  0  0  0  0  0  0
   -2.6123    1.1768   -0.4087 O   0  0  0  0  0  0  0  0  0  0  0  0
   -0.6932   -0.0532   -0.9687 C   0  0  0  0  0  0  0  0  0  0  0  0
    0.3847    0.0125   -1.4975 C   0  0  0  0  0  0  0  0  0  0  0  0
    1.7135    0.0973   -2.1250 C   0  0  0  0  0  0  0  0  0  0  0  0
    2.7929    0.5070   -1.2161 N   0  0  0  0  0  0  0  0  0  0  0  0
    2.6067    1.8689   -0.7009 C   0  0  0  0  0  0  0  0  0  0  0  0
    3.8258    2.3171    0.1078 C   0  0  0  0  0  0  0  0  0  0  0  0
    4.1356    1.3369    1.2338 C   0  0  0  0  0  0  0  0  0  0  0  0
    4.2491   -0.0824    0.6884 C   0  0  0  0  0  0  0  0  0  0  0  0
    3.0178   -0.4617   -0.1369 C   0  0  0  0  0  0  0  0  0  0  0  0
   -2.9048   -1.1265   -1.1400 C   0  0  0  0  0  0  0  0  0  0  0  0
   -4.4216   -0.9208   -1.0246 C   0  0  0  0  0  0  0  0  0  0  0  0
   -2.5474   -2.5988   -0.9061 C   0  0  0  0  0  0  0  0  0  0  0  0
    0.0164    0.7138    1.4833 H   0  0  0  0  0  0  0  0  0  0  0  0
   -0.8258    0.3442    2.9798 H   0  0  0  0  0  0  0  0  0  0  0  0
   -1.4626    1.5967    1.9055 H   0  0  0  0  0  0  0  0  0  0  0  0
   -1.2798   -1.4034    1.2994 H   0  0  0  0  0  0  0  0  0  0  0  0
   -3.7966    0.2595    1.8399 H   0  0  0  0  0  0  0  0  0  0  0  0
   -2.9365   -0.6705    3.0736 H   0  0  0  0  0  0  0  0  0  0  0  0
   -3.6654   -1.5111    1.7259 H   0  0  0  0  0  0  0  0  0  0  0  0
   -2.5312    1.4523   -1.3377 H   0  0  0  0  0  0  0  0  0  0  0  0
    1.6724    0.7964   -2.9695 H   0  0  0  0  0  0  0  0  0  0  0  0
    1.9684   -0.8739   -2.5673 H   0  0  0  0  0  0  0  0  0  0  0  0
    2.4757    2.5693   -1.5346 H   0  0  0  0  0  0  0  0  0  0  0  0
    1.7119    1.9407   -0.0702 H   0  0  0  0  0  0  0  0  0  0  0  0
    4.6966    2.3994   -0.5551 H   0  0  0  0  0  0  0  0  0  0  0  0
    3.6467    3.3145    0.5249 H   0  0  0  0  0  0  0  0  0  0  0  0
    5.0664    1.6226    1.7357 H   0  0  0  0  0  0  0  0  0  0  0  0
    3.3374    1.3779    1.9851 H   0  0  0  0  0  0  0  0  0  0  0  0
    4.3705   -0.7884    1.5177 H   0  0  0  0  0  0  0  0  0  0  0  0
    5.1488   -0.1636    0.0650 H   0  0  0  0  0  0  0  0  0  0  0  0
    2.1479   -0.5309    0.5282 H   0  0  0  0  0  0  0  0  0  0  0  0
    3.1861   -1.4597   -0.5593 H   0  0  0  0  0  0  0  0  0  0  0  0
   -2.6920   -0.9258   -2.2019 H   0  0  0  0  0  0  0  0  0  0  0  0
   -4.9429   -1.5640   -1.7433 H   0  0  0  0  0  0  0  0  0  0  0  0
   -4.8110   -1.1692   -0.0366 H   0  0  0  0  0  0  0  0  0  0  0  0
   -4.7064    0.1101   -1.2563 H   0  0  0  0  0  0  0  0  0  0  0  0
   -2.8210   -2.9316    0.0991 H   0  0  0  0  0  0  0  0  0  0  0  0
   -1.4766   -2.7772   -1.0456 H   0  0  0  0  0  0  0  0  0  0  0  0
   -3.0802   -3.2387   -1.6184 H   0  0  0  0  0  0  0  0  0  0  0  0
  1  2  1  0
  2  3  1  0
  2  4  1  0
  4  5  1  0
  4  6  1  0
  6  7  3  0
  7  8  1  0
  8  9  1  0
  9 10  1  0
 10 11  1  0
 11 12  1  0
 12 13  1  0
 13 14  1  0
  4 15  1  0
 15 16  1  0
 15 17  1  0
 14  9  1  0
  1 18  1  0
  1 19  1  0
  1 20  1  0
  2 21  1  0
  3 22  1  0
  3 23  1  0
  3 24  1  0
  5 25  1  0
  8 26  1  0
  8 27  1  0
 10 28  1  0
 10 29  1  0
 11 30  1  0
 11 31  1  0
 12 32  1  0
 12 33  1  0
 13 34  1  0
 13 35  1  0
 14 36  1  0
 14 37  1  0
 15 38  1  0
 16 39  1  0
 16 40  1  0
 16 41  1  0
 17 42  1  0
 17 43  1  0
 17 44  1  0
M  END
$$$$
