
     RDKit          3D

 65 68  0  0  0  0  0  0  0  0999 V2000
    9.1788   -0.4308    4.6617 C   0  0  0  0  0  0  0  0  0  0  0  0
    8.1281    0.2679    3.9019 C   0  0  0  0  0  0  0  0  0  0  0  0
    6.9043   -0.0962    3.3989 C   0  0  0  0  0  0  0  0  0  0  0  0
    6.4186    1.0704    2.7686 C   0  0  0  0  0  0  0  0  0  0  0  0
    5.2400    1.2742    2.0874 N   0  0  0  0  0  0  0  0  0  0  0  0
    4.2594    0.3289    1.8887 C   0  0  0  0  0  0  0  0  0  0  0  0
    4.2751   -0.8224    2.3121 O   0  0  0  0  0  0  0  0  0  0  0  0
    3.1200    0.8760    1.0529 C   0  0  0  0  0  0  0  0  0  0  0  0
    2.0095   -0.1516    0.8520 C   0  0  0  0  0  0  0  0  0  0  0  0
    0.9261    0.3818   -0.0695 C   0  0  0  0  0  0  0  0  0  0  0  0
    0.9758    1.5484   -0.4710 O   0  0  0  0  0  0  0  0  0  0  0  0
   -0.1187   -0.4663   -0.4278 N   0  0  0  0  0  0  0  0  0  0  0  0
   -0.3128   -1.8013    0.1533 C   0  0  0  0  0  0  0  0  0  0  0  0
    0.0024   -2.8986   -0.8288 C   0  0  0  0  0  0  0  0  0  0  0  0
   -0.8248   -3.9355   -1.2229 C   0  0  0  0  0  0  0  0  0  0  0  0
   -0.2069   -4.8066   -2.1647 C   0  0  0  0  0  0  0  0  0  0  0  0
    1.0841   -4.4236   -2.4464 C   0  0  0  0  0  0  0  0  0  0  0  0
    1.5394   -3.0234   -1.5817 S   0  0  0  0  0  0  0  0  0  0  0  0
   -1.2583    0.1829   -1.1136 C   0  0  0  0  0  0  0  0  0  0  0  0
   -2.2047    0.8304   -0.0574 C   0  0  0  0  0  0  0  0  0  0  0  0
   -2.2979    0.4290    1.1026 O   0  0  0  0  0  0  0  0  0  0  0  0
   -2.9713    1.8774   -0.5426 N   0  0  0  0  0  0  0  0  0  0  0  0
   -3.9588    2.5353    0.2829 C   0  0  0  0  0  0  0  0  0  0  0  0
   -4.4190    3.8661   -0.3016 C   0  0  0  0  0  0  0  0  0  0  0  0
   -5.7311    4.1126    0.4222 C   0  0  0  0  0  0  0  0  0  0  0  0
   -6.3899    2.7403    0.4621 C   0  0  0  0  0  0  0  0  0  0  0  0
   -5.2484    1.7219    0.4390 C   0  0  0  0  0  0  0  0  0  0  0  0
   -1.9868   -0.6985   -2.1224 C   0  0  0  0  0  0  0  0  0  0  0  0
   -3.2352   -1.2871   -1.8600 C   0  0  0  0  0  0  0  0  0  0  0  0
   -3.8640   -2.0809   -2.8220 C   0  0  0  0  0  0  0  0  0  0  0  0
   -3.2514   -2.3088   -4.0529 C   0  0  0  0  0  0  0  0  0  0  0  0
   -2.0089   -1.7426   -4.3251 C   0  0  0  0  0  0  0  0  0  0  0  0
   -1.3820   -0.9425   -3.3690 C   0  0  0  0  0  0  0  0  0  0  0  0
    7.2940    2.0751    2.8824 N   0  0  0  0  0  0  0  0  0  0  0  0
    8.3621    1.5725    3.6020 O   0  0  0  0  0  0  0  0  0  0  0  0
    8.9775   -1.5056    4.7136 H   0  0  0  0  0  0  0  0  0  0  0  0
    9.2322   -0.0438    5.6843 H   0  0  0  0  0  0  0  0  0  0  0  0
   10.1557   -0.2913    4.1875 H   0  0  0  0  0  0  0  0  0  0  0  0
    6.4364   -1.0659    3.4754 H   0  0  0  0  0  0  0  0  0  0  0  0
    5.1352    2.2111    1.7182 H   0  0  0  0  0  0  0  0  0  0  0  0
    3.5290    1.1851    0.0834 H   0  0  0  0  0  0  0  0  0  0  0  0
    2.7193    1.7669    1.5510 H   0  0  0  0  0  0  0  0  0  0  0  0
    2.4328   -1.0659    0.4298 H   0  0  0  0  0  0  0  0  0  0  0  0
    1.5623   -0.3831    1.8250 H   0  0  0  0  0  0  0  0  0  0  0  0
   -1.3489   -1.8899    0.4985 H   0  0  0  0  0  0  0  0  0  0  0  0
    0.3091   -1.9421    1.0410 H   0  0  0  0  0  0  0  0  0  0  0  0
   -1.8431   -4.0498   -0.8677 H   0  0  0  0  0  0  0  0  0  0  0  0
   -0.6870   -5.6679   -2.6126 H   0  0  0  0  0  0  0  0  0  0  0  0
    1.7844   -4.8969   -3.1202 H   0  0  0  0  0  0  0  0  0  0  0  0
   -0.8682    1.0301   -1.6954 H   0  0  0  0  0  0  0  0  0  0  0  0
   -2.9837    2.0364   -1.5445 H   0  0  0  0  0  0  0  0  0  0  0  0
   -3.5208    2.7049    1.2755 H   0  0  0  0  0  0  0  0  0  0  0  0
   -4.5882    3.7878   -1.3830 H   0  0  0  0  0  0  0  0  0  0  0  0
   -3.6928    4.6680   -0.1320 H   0  0  0  0  0  0  0  0  0  0  0  0
   -5.5383    4.4654    1.4423 H   0  0  0  0  0  0  0  0  0  0  0  0
   -6.3533    4.8574   -0.0816 H   0  0  0  0  0  0  0  0  0  0  0  0
   -7.0265    2.6234    1.3445 H   0  0  0  0  0  0  0  0  0  0  0  0
   -7.0231    2.5996   -0.4219 H   0  0  0  0  0  0  0  0  0  0  0  0
   -5.3939    1.0184   -0.3887 H   0  0  0  0  0  0  0  0  0  0  0  0
   -5.2254    1.1340    1.3616 H   0  0  0  0  0  0  0  0  0  0  0  0
   -3.7343   -1.1440   -0.9024 H   0  0  0  0  0  0  0  0  0  0  0  0
   -4.8309   -2.5297   -2.6080 H   0  0  0  0  0  0  0  0  0  0  0  0
   -3.7390   -2.9343   -4.7961 H   0  0  0  0  0  0  0  0  0  0  0  0
   -1.5205   -1.9316   -5.2781 H   0  0  0  0  0  0  0  0  0  0  0  0
   -0.4027   -0.5209   -3.5925 H   0  0  0  0  0  0  0  0  0  0  0  0
  1  2  1  0
  2  3  2  0
  3  4  1  0
  4  5  1  0
  5  6  1  0
  6  7  2  0
  6  8  1  0
  8  9  1  0
  9 10  1  0
 10 11  2  0
 10 12  1  0
 12 13  1  0
 13 14  1  0
 14 15  2  0
 15 16  1  0
 16 17  2  0
 17 18  1  0
 12 19  1  0
 19 20  1  0
 20 21  2  0
 20 22  1  0
 22 23  1  0
 23 24  1  0
 24 25  1  0
 25 26  1  0
 26 27  1  0
 19 28  1  0
 28 29  2  0
 29 30  1  0
 30 31  2  0
 31 32  1  0
 32 33  2  0
  4 34  2  0
 34 35  1  0
 35  2  1  0
 18 14  1  0
 27 23  1  0
 33 28  1  0
  1 36  1  0
  1 37  1  0
  1 38  1  0
  3 39  1  0
  5 40  1  0
  8 41  1  0
  8 42  1  0
  9 43  1  0
  9 44  1  0
 13 45  1  0
 13 46  1  0
 15 47  1  0
 16 48  1  0
 17 49  1  0
 19 50  1  0
 22 51  1  0
 23 52  1  0
 24 53  1  0
 24 54  1  0
 25 55  1  0
 25 56  1  0
 26 57  1  0
 26 58  1  0
 27 59  1  0
 27 60  1  0
 29 61  1  0
 30 62  1  0
 31 63  1  0
 32 64  1  0
 33 65  1  0
M  END
$$$$
