
     RDKit          3D

 49 52  0  0  0  0  0  0  0  0999 V2000
   -3.7014   -1.9206    1.7304 O   0  0  0  0  0  0  0  0  0  0  0  0
   -3.8883   -0.7894    1.2808 C   0  0  0  0  0  0  0  0  0  0  0  0
   -2.7909    0.0143    0.7729 C   0  0  0  0  0  0  0  0  0  0  0  0
   -2.7585    1.0846   -0.1371 C   0  0  0  0  0  0  0  0  0  0  0  0
   -1.5262    1.5414   -0.3499 N   0  0  0  0  0  0  0  0  0  0  0  0
   -0.7175    0.7531    0.3852 N   0  0  0  0  0  0  0  0  0  0  0  0
    0.6962    0.9351    0.3899 C   0  0  0  0  0  0  0  0  0  0  0  0
    1.4964    0.1243    1.2184 C   0  0  0  0  0  0  0  0  0  0  0  0
    2.8898    0.2690    1.2390 C   0  0  0  0  0  0  0  0  0  0  0  0
    3.5056    1.2219    0.4260 C   0  0  0  0  0  0  0  0  0  0  0  0
    5.2780    1.3936    0.4372 S   0  0  0  0  0  6  0  0  0  0  0  0
    5.5675    2.7931    0.2122 O   0  0  0  0  0  0  0  0  0  0  0  0
    5.7842    0.6961    1.5990 O   0  0  0  0  0  0  0  0  0  0  0  0
    5.7420    0.5802   -0.9640 N   0  0  0  0  0  0  0  0  0  0  0  0
    5.2854   -0.7465   -1.1924 C   0  0  0  0  0  0  0  0  0  0  0  0
    5.6249   -1.7842   -0.3246 C   0  0  0  0  0  0  0  0  0  0  0  0
    5.1274   -3.0695   -0.5466 C   0  0  0  0  0  0  0  0  0  0  0  0
    4.2925   -3.3161   -1.6359 C   0  0  0  0  0  0  0  0  0  0  0  0
    3.9579   -2.2798   -2.5075 C   0  0  0  0  0  0  0  0  0  0  0  0
    4.4551   -0.9943   -2.2870 C   0  0  0  0  0  0  0  0  0  0  0  0
    2.7423    2.0576   -0.3865 C   0  0  0  0  0  0  0  0  0  0  0  0
    1.3465    1.9001   -0.4033 C   0  0  0  0  0  0  0  0  0  0  0  0
    0.6445    2.7692   -1.3294 N   0  0  0  0  0  4  0  0  0  0  0  0
    0.5106    2.3463   -2.4877 O   0  0  0  0  0  0  0  0  0  0  0  0
    0.3570    3.9036   -0.9219 O   0  0  0  0  0  1  0  0  0  0  0  0
   -1.4567   -0.1814    1.0790 C   0  0  0  0  0  0  0  0  0  0  0  0
   -5.2862   -0.2924    1.2429 C   0  0  0  0  0  0  0  0  0  0  0  0
   -5.5892    1.0623    1.4205 C   0  0  0  0  0  0  0  0  0  0  0  0
   -6.9169    1.4795    1.3708 C   0  0  0  0  0  0  0  0  0  0  0  0
   -7.1991    2.7784    1.5261 F   0  0  0  0  0  0  0  0  0  0  0  0
   -7.9541    0.5774    1.1637 C   0  0  0  0  0  0  0  0  0  0  0  0
   -7.6629   -0.7771    1.0207 C   0  0  0  0  0  0  0  0  0  0  0  0
   -6.3374   -1.2095    1.0744 C   0  0  0  0  0  0  0  0  0  0  0  0
   -6.1394   -2.5595    0.9572 O   0  0  0  0  0  0  0  0  0  0  0  0
   -3.5757    1.5582   -0.6682 H   0  0  0  0  0  0  0  0  0  0  0  0
    1.0747   -0.6385    1.8684 H   0  0  0  0  0  0  0  0  0  0  0  0
    3.4855   -0.3749    1.8856 H   0  0  0  0  0  0  0  0  0  0  0  0
    5.8402    1.2017   -1.7650 H   0  0  0  0  0  0  0  0  0  0  0  0
    6.2853   -1.6095    0.5212 H   0  0  0  0  0  0  0  0  0  0  0  0
    5.3964   -3.8774    0.1309 H   0  0  0  0  0  0  0  0  0  0  0  0
    3.9074   -4.3181   -1.8106 H   0  0  0  0  0  0  0  0  0  0  0  0
    3.3103   -2.4753   -3.3594 H   0  0  0  0  0  0  0  0  0  0  0  0
    4.1812   -0.1973   -2.9728 H   0  0  0  0  0  0  0  0  0  0  0  0
    3.2209    2.8132   -1.0084 H   0  0  0  0  0  0  0  0  0  0  0  0
   -1.0082   -0.9147    1.7303 H   0  0  0  0  0  0  0  0  0  0  0  0
   -4.8254    1.8077    1.6165 H   0  0  0  0  0  0  0  0  0  0  0  0
   -8.9804    0.9312    1.1305 H   0  0  0  0  0  0  0  0  0  0  0  0
   -8.4638   -1.4989    0.8807 H   0  0  0  0  0  0  0  0  0  0  0  0
   -5.2276   -2.7681    1.2597 H   0  0  0  0  0  0  0  0  0  0  0  0
  1  2  2  0
  2  3  1  0
  3  4  1  0
  4  5  2  0
  5  6  1  0
  6  7  1  0
  7  8  2  0
  8  9  1  0
  9 10  2  0
 10 11  1  0
 11 12  2  0
 11 13  2  0
 11 14  1  0
 14 15  1  0
 15 16  2  0
 16 17  1  0
 17 18  2  0
 18 19  1  0
 19 20  2  0
 10 21  1  0
 21 22  2  0
 22 23  1  0
 23 24  2  0
 23 25  1  0
  6 26  1  0
  2 27  1  0
 27 28  2  0
 28 29  1  0
 29 30  1  0
 29 31  2  0
 31 32  1  0
 32 33  2  0
 33 34  1  0
 26  3  2  0
 33 27  1  0
 22  7  1  0
 20 15  1  0
  4 35  1  0
  8 36  1  0
  9 37  1  0
 14 38  1  0
 16 39  1  0
 17 40  1  0
 18 41  1  0
 19 42  1  0
 20 43  1  0
 21 44  1  0
 26 45  1  0
 28 46  1  0
 31 47  1  0
 32 48  1  0
 34 49  1  0
M  CHG  2  23   1  25  -1
M  END
$$$$
