
     RDKit          3D

 36 37  0  0  0  0  0  0  0  0999 V2000
   -2.3553   -2.1423    1.8977 C   0  0  0  0  0  0  0  0  0  0  0  0
   -3.0301   -1.8758    0.5656 C   0  0  0  0  0  0  0  0  0  0  0  0
   -2.5286   -0.6607   -0.0120 O   0  0  0  0  0  0  0  0  0  0  0  0
   -1.3964   -0.7749   -0.7483 C   0  0  0  0  0  0  0  0  0  0  0  0
   -0.7684   -1.8069   -0.9383 O   0  0  0  0  0  0  0  0  0  0  0  0
   -0.9827    0.5442   -1.3042 C   0  0  0  0  0  0  0  0  0  0  0  0
   -1.8119    1.6717   -1.1718 C   0  0  0  0  0  0  0  0  0  0  0  0
   -1.4256    2.9024   -1.7059 C   0  0  0  0  0  0  0  0  0  0  0  0
   -0.2140    3.0184   -2.3807 C   0  0  0  0  0  0  0  0  0  0  0  0
    0.6171    1.9066   -2.5201 C   0  0  0  0  0  0  0  0  0  0  0  0
    0.2474    0.6695   -1.9813 C   0  0  0  0  0  0  0  0  0  0  0  0
    1.1506   -0.4378   -2.1255 N   0  0  0  0  0  0  0  0  0  0  0  0
    2.6303   -0.3957   -1.2969 S   0  0  0  0  0  6  0  0  0  0  0  0
    3.3863    0.7683   -1.7032 O   0  0  0  0  0  0  0  0  0  0  0  0
    3.2024   -1.7200   -1.4405 O   0  0  0  0  0  0  0  0  0  0  0  0
    2.1528   -0.2202    0.3950 C   0  0  0  0  0  0  0  0  0  0  0  0
    1.9421   -1.3655    1.1734 C   0  0  0  0  0  0  0  0  0  0  0  0
    1.5899   -1.2344    2.5181 C   0  0  0  0  0  0  0  0  0  0  0  0
    1.4551    0.0332    3.0846 C   0  0  0  0  0  0  0  0  0  0  0  0
    1.6774    1.1703    2.3074 C   0  0  0  0  0  0  0  0  0  0  0  0
    2.0322    1.0400    0.9661 C   0  0  0  0  0  0  0  0  0  0  0  0
    2.2182    2.1587    0.2555 F   0  0  0  0  0  0  0  0  0  0  0  0
   -2.7892   -3.0208    2.3833 H   0  0  0  0  0  0  0  0  0  0  0  0
   -1.2829   -2.3133    1.7654 H   0  0  0  0  0  0  0  0  0  0  0  0
   -2.4616   -1.2799    2.5639 H   0  0  0  0  0  0  0  0  0  0  0  0
   -2.9101   -2.7209   -0.1219 H   0  0  0  0  0  0  0  0  0  0  0  0
   -4.1051   -1.7354    0.7193 H   0  0  0  0  0  0  0  0  0  0  0  0
   -2.7680    1.6086   -0.6569 H   0  0  0  0  0  0  0  0  0  0  0  0
   -2.0720    3.7707   -1.5983 H   0  0  0  0  0  0  0  0  0  0  0  0
    0.0906    3.9752   -2.7989 H   0  0  0  0  0  0  0  0  0  0  0  0
    1.5597    2.0155   -3.0535 H   0  0  0  0  0  0  0  0  0  0  0  0
    0.7176   -1.3644   -2.0023 H   0  0  0  0  0  0  0  0  0  0  0  0
    2.0468   -2.3593    0.7412 H   0  0  0  0  0  0  0  0  0  0  0  0
    1.4236   -2.1226    3.1241 H   0  0  0  0  0  0  0  0  0  0  0  0
    1.1827    0.1352    4.1326 H   0  0  0  0  0  0  0  0  0  0  0  0
    1.5793    2.1621    2.7393 H   0  0  0  0  0  0  0  0  0  0  0  0
  1  2  1  0
  2  3  1  0
  3  4  1  0
  4  5  2  0
  4  6  1  0
  6  7  2  0
  7  8  1  0
  8  9  2  0
  9 10  1  0
 10 11  2  0
 11 12  1  0
 12 13  1  0
 13 14  2  0
 13 15  2  0
 13 16  1  0
 16 17  2  0
 17 18  1  0
 18 19  2  0
 19 20  1  0
 20 21  2  0
 21 22  1  0
 11  6  1  0
 21 16  1  0
  1 23  1  0
  1 24  1  0
  1 25  1  0
  2 26  1  0
  2 27  1  0
  7 28  1  0
  8 29  1  0
  9 30  1  0
 10 31  1  0
 12 32  1  0
 17 33  1  0
 18 34  1  0
 19 35  1  0
 20 36  1  0
M  END
$$$$
