
     RDKit          3D

 67 72  0  0  0  0  0  0  0  0999 V2000
    2.9681   -3.3434    0.5283 O   0  0  0  0  0  0  0  0  0  0  0  0
    2.5701   -2.1904    0.7211 C   0  0  0  0  0  0  0  0  0  0  0  0
    3.5712   -1.1093    1.1494 C   0  0  0  0  0  0  0  0  0  0  0  0
    4.2862   -0.5692   -0.1037 C   0  0  0  0  0  0  0  0  0  0  0  0
    5.4424    0.3484    0.2193 C   0  0  0  0  0  0  0  0  0  0  0  0
    6.6840   -0.1800    0.5973 C   0  0  0  0  0  0  0  0  0  0  0  0
    7.7443    0.6695    0.9161 C   0  0  0  0  0  0  0  0  0  0  0  0
    7.5735    2.0515    0.8620 C   0  0  0  0  0  0  0  0  0  0  0  0
    6.3423    2.5865    0.4883 C   0  0  0  0  0  0  0  0  0  0  0  0
    5.2805    1.7399    0.1685 C   0  0  0  0  0  0  0  0  0  0  0  0
    2.9308   -0.0535    1.9259 N   0  0  0  0  0  0  0  0  0  0  0  0
    1.7457    0.4304    1.3816 C   0  0  0  0  0  0  0  0  0  0  0  0
    1.5433    1.7380    1.5945 N   0  0  0  0  0  0  0  0  0  0  0  0
    0.3808    2.2186    1.1667 C   0  0  0  0  0  0  0  0  0  0  0  0
   -0.5918    1.5079    0.5924 N   0  0  0  0  0  0  0  0  0  0  0  0
   -0.3858    0.1858    0.4053 C   0  0  0  0  0  0  0  0  0  0  0  0
   -1.4885   -0.5511   -0.0583 N   0  0  0  0  0  0  0  0  0  0  0  0
   -2.3616   -0.9874    1.0646 C   0  0  0  0  0  0  0  0  0  0  0  0
   -3.3662    0.0867    1.5390 C   0  0  0  0  0  0  0  0  0  0  0  0
   -4.1689    0.5867    0.3950 N   0  0  0  0  0  0  0  0  0  0  0  0
   -5.2977    1.3258    0.7869 C   0  0  0  0  0  0  0  0  0  0  0  0
   -5.4977    2.6751    0.4606 C   0  0  0  0  0  0  0  0  0  0  0  0
   -6.6449    3.3651    0.8725 C   0  0  0  0  0  0  0  0  0  0  0  0
   -7.6257    2.7145    1.6138 C   0  0  0  0  0  0  0  0  0  0  0  0
   -7.4621    1.3730    1.9367 C   0  0  0  0  0  0  0  0  0  0  0  0
   -6.3133    0.6907    1.5232 C   0  0  0  0  0  0  0  0  0  0  0  0
   -3.3056    1.1482   -0.6698 C   0  0  0  0  0  0  0  0  0  0  0  0
   -2.2598    0.1109   -1.1447 C   0  0  0  0  0  0  0  0  0  0  0  0
    0.8407   -0.4208    0.7302 C   0  0  0  0  0  0  0  0  0  0  0  0
    1.2567   -1.7803    0.4499 N   0  0  0  0  0  0  0  0  0  0  0  0
    0.3911   -2.7531   -0.2107 C   0  0  0  0  0  0  0  0  0  0  0  0
    0.2808   -2.6058   -1.7186 C   0  0  0  0  0  0  0  0  0  0  0  0
    1.3733   -2.2393   -2.5193 C   0  0  0  0  0  0  0  0  0  0  0  0
    1.2432   -2.1443   -3.9078 C   0  0  0  0  0  0  0  0  0  0  0  0
    0.0229   -2.4339   -4.5110 C   0  0  0  0  0  0  0  0  0  0  0  0
   -0.1384   -2.3121   -6.2192 Cl  0  0  0  0  0  0  0  0  0  0  0  0
   -1.0654   -2.8290   -3.7394 C   0  0  0  0  0  0  0  0  0  0  0  0
   -0.9326   -2.9238   -2.3519 C   0  0  0  0  0  0  0  0  0  0  0  0
    4.2964   -1.5981    1.8119 H   0  0  0  0  0  0  0  0  0  0  0  0
    3.5811   -0.0471   -0.7637 H   0  0  0  0  0  0  0  0  0  0  0  0
    4.6683   -1.4058   -0.7046 H   0  0  0  0  0  0  0  0  0  0  0  0
    6.8357   -1.2563    0.6455 H   0  0  0  0  0  0  0  0  0  0  0  0
    8.7052    0.2526    1.2071 H   0  0  0  0  0  0  0  0  0  0  0  0
    8.4002    2.7117    1.1110 H   0  0  0  0  0  0  0  0  0  0  0  0
    6.2081    3.6643    0.4471 H   0  0  0  0  0  0  0  0  0  0  0  0
    4.3236    2.1748   -0.1152 H   0  0  0  0  0  0  0  0  0  0  0  0
    3.5245    0.7265    2.1966 H   0  0  0  0  0  0  0  0  0  0  0  0
    0.1993    3.2778    1.3104 H   0  0  0  0  0  0  0  0  0  0  0  0
   -2.9293   -1.8580    0.7110 H   0  0  0  0  0  0  0  0  0  0  0  0
   -1.7643   -1.3371    1.9165 H   0  0  0  0  0  0  0  0  0  0  0  0
   -2.8393    0.9223    2.0159 H   0  0  0  0  0  0  0  0  0  0  0  0
   -3.9987   -0.3756    2.3054 H   0  0  0  0  0  0  0  0  0  0  0  0
   -4.7587    3.2300   -0.1089 H   0  0  0  0  0  0  0  0  0  0  0  0
   -6.7675    4.4130    0.6112 H   0  0  0  0  0  0  0  0  0  0  0  0
   -8.5166    3.2490    1.9309 H   0  0  0  0  0  0  0  0  0  0  0  0
   -8.2280    0.8502    2.5029 H   0  0  0  0  0  0  0  0  0  0  0  0
   -6.2264   -0.3664    1.7608 H   0  0  0  0  0  0  0  0  0  0  0  0
   -2.8085    2.0580   -0.3174 H   0  0  0  0  0  0  0  0  0  0  0  0
   -3.9165    1.4215   -1.5395 H   0  0  0  0  0  0  0  0  0  0  0  0
   -2.7996   -0.6816   -1.6786 H   0  0  0  0  0  0  0  0  0  0  0  0
   -1.5826    0.5646   -1.8797 H   0  0  0  0  0  0  0  0  0  0  0  0
   -0.5840   -2.7657    0.2788 H   0  0  0  0  0  0  0  0  0  0  0  0
    0.7781   -3.7653   -0.0360 H   0  0  0  0  0  0  0  0  0  0  0  0
    2.3427   -2.0332   -2.0760 H   0  0  0  0  0  0  0  0  0  0  0  0
    2.0993   -1.8520   -4.5100 H   0  0  0  0  0  0  0  0  0  0  0  0
   -2.0166   -3.0662   -4.2077 H   0  0  0  0  0  0  0  0  0  0  0  0
   -1.7919   -3.2343   -1.7603 H   0  0  0  0  0  0  0  0  0  0  0  0
  1  2  2  0
  2  3  1  0
  3  4  1  0
  4  5  1  0
  5  6  2  0
  6  7  1  0
  7  8  2  0
  8  9  1  0
  9 10  2  0
  3 11  1  0
 11 12  1  0
 12 13  2  0
 13 14  1  0
 14 15  2  0
 15 16  1  0
 16 17  1  0
 17 18  1  0
 18 19  1  0
 19 20  1  0
 20 21  1  0
 21 22  2  0
 22 23  1  0
 23 24  2  0
 24 25  1  0
 25 26  2  0
 20 27  1  0
 27 28  1  0
 16 29  2  0
 29 30  1  0
 30 31  1  0
 31 32  1  0
 32 33  2  0
 33 34  1  0
 34 35  2  0
 35 36  1  0
 35 37  1  0
 37 38  2  0
 30  2  1  0
 38 32  1  0
 10  5  1  0
 29 12  1  0
 28 17  1  0
 26 21  1  0
  3 39  1  0
  4 40  1  0
  4 41  1  0
  6 42  1  0
  7 43  1  0
  8 44  1  0
  9 45  1  0
 10 46  1  0
 11 47  1  0
 14 48  1  0
 18 49  1  0
 18 50  1  0
 19 51  1  0
 19 52  1  0
 22 53  1  0
 23 54  1  0
 24 55  1  0
 25 56  1  0
 26 57  1  0
 27 58  1  0
 27 59  1  0
 28 60  1  0
 28 61  1  0
 31 62  1  0
 31 63  1  0
 33 64  1  0
 34 65  1  0
 37 66  1  0
 38 67  1  0
M  END
$$$$
