
     RDKit          3D

 36 37  0  0  0  0  0  0  0  0999 V2000
   -2.5201    1.9293   -1.6147 C   0  0  0  0  0  0  0  0  0  0  0  0
   -2.6656    1.5957    0.1639 S   0  0  0  0  0  0  0  0  0  0  0  0
   -3.3079   -0.0768    0.0891 C   0  0  0  0  0  0  0  0  0  0  0  0
   -4.6518   -0.2317    0.4708 C   0  0  0  0  0  0  0  0  0  0  0  0
   -5.2768   -1.4793    0.4176 C   0  0  0  0  0  0  0  0  0  0  0  0
   -4.5683   -2.5928   -0.0190 C   0  0  0  0  0  0  0  0  0  0  0  0
   -3.2306   -2.4597   -0.3893 C   0  0  0  0  0  0  0  0  0  0  0  0
   -2.5837   -1.2115   -0.3249 C   0  0  0  0  0  0  0  0  0  0  0  0
   -1.1417   -1.2091   -0.7169 C   0  0  0  0  0  0  0  0  0  0  0  0
   -0.7988   -1.9366   -1.6425 O   0  0  0  0  0  0  0  0  0  0  0  0
   -0.3210   -0.4002    0.0428 N   0  0  0  0  0  0  0  0  0  0  0  0
    1.0697   -0.2113   -0.0874 C   0  0  0  0  0  0  0  0  0  0  0  0
    1.8657   -0.8848   -1.0088 C   0  0  0  0  0  0  0  0  0  0  0  0
    3.2404   -0.6352   -1.0715 C   0  0  0  0  0  0  0  0  0  0  0  0
    3.8476    0.2927   -0.2141 C   0  0  0  0  0  0  0  0  0  0  0  0
    5.3289    0.5306   -0.3148 C   0  0  0  0  0  0  0  0  0  0  0  0
    3.0526    0.9783    0.7223 C   0  0  0  0  0  0  0  0  0  0  0  0
    3.6477    1.9851    1.6682 C   0  0  0  0  0  0  0  0  0  0  0  0
    1.6715    0.7163    0.7734 C   0  0  0  0  0  0  0  0  0  0  0  0
   -1.7875    1.2665   -2.0814 H   0  0  0  0  0  0  0  0  0  0  0  0
   -3.4886    1.8027   -2.1063 H   0  0  0  0  0  0  0  0  0  0  0  0
   -2.1906    2.9619   -1.7570 H   0  0  0  0  0  0  0  0  0  0  0  0
   -5.2327    0.6265    0.8054 H   0  0  0  0  0  0  0  0  0  0  0  0
   -6.3194   -1.5777    0.7110 H   0  0  0  0  0  0  0  0  0  0  0  0
   -5.0525   -3.5651   -0.0699 H   0  0  0  0  0  0  0  0  0  0  0  0
   -2.6825   -3.3396   -0.7247 H   0  0  0  0  0  0  0  0  0  0  0  0
   -0.7778    0.1651    0.7506 H   0  0  0  0  0  0  0  0  0  0  0  0
    1.4509   -1.6154   -1.6955 H   0  0  0  0  0  0  0  0  0  0  0  0
    3.8339   -1.1795   -1.8034 H   0  0  0  0  0  0  0  0  0  0  0  0
    5.5303    1.5782   -0.5601 H   0  0  0  0  0  0  0  0  0  0  0  0
    5.8201    0.2749    0.6293 H   0  0  0  0  0  0  0  0  0  0  0  0
    5.7827   -0.0841   -1.0995 H   0  0  0  0  0  0  0  0  0  0  0  0
    2.8874    2.4167    2.3279 H   0  0  0  0  0  0  0  0  0  0  0  0
    4.1042    2.8081    1.1094 H   0  0  0  0  0  0  0  0  0  0  0  0
    4.4026    1.5107    2.3031 H   0  0  0  0  0  0  0  0  0  0  0  0
    1.0616    1.2511    1.4984 H   0  0  0  0  0  0  0  0  0  0  0  0
  1  2  1  0
  2  3  1  0
  3  4  2  0
  4  5  1  0
  5  6  2  0
  6  7  1  0
  7  8  2  0
  8  9  1  0
  9 10  2  0
  9 11  1  0
 11 12  1  0
 12 13  2  0
 13 14  1  0
 14 15  2  0
 15 16  1  0
 15 17  1  0
 17 18  1  0
 17 19  2  0
  8  3  1  0
 19 12  1  0
  1 20  1  0
  1 21  1  0
  1 22  1  0
  4 23  1  0
  5 24  1  0
  6 25  1  0
  7 26  1  0
 11 27  1  0
 13 28  1  0
 14 29  1  0
 16 30  1  0
 16 31  1  0
 16 32  1  0
 18 33  1  0
 18 34  1  0
 18 35  1  0
 19 36  1  0
M  END
$$$$
