
     RDKit          3D

 36 38  0  0  0  0  0  0  0  0999 V2000
   -0.2015    3.0220    1.1874 C   0  0  0  0  0  0  0  0  0  0  0  0
   -0.3057    1.7342    0.5802 O   0  0  0  0  0  0  0  0  0  0  0  0
   -1.5621    1.4200    0.1421 C   0  0  0  0  0  0  0  0  0  0  0  0
   -2.5266    2.1690    0.2537 O   0  0  0  0  0  0  0  0  0  0  0  0
   -1.6462    0.0975   -0.4768 C   0  0  0  0  0  0  0  0  0  0  0  0
   -0.5935   -0.8072   -0.6515 C   0  0  0  0  0  0  0  0  0  0  0  0
    0.7243   -0.6306   -0.2717 N   0  0  0  0  0  0  0  0  0  0  0  0
    1.7934   -1.4911   -0.4228 C   0  0  0  0  0  0  0  0  0  0  0  0
    1.7997   -2.6052   -0.9313 O   0  0  0  0  0  0  0  0  0  0  0  0
    3.0304   -0.9007    0.1285 C   0  0  0  0  0  0  0  0  0  0  0  0
    4.3217   -1.4880    0.1530 C   0  0  0  0  0  0  0  0  0  0  0  0
    5.1337   -0.5618    0.7613 C   0  0  0  0  0  0  0  0  0  0  0  0
    4.3322    0.4967    1.0638 N   0  0  0  0  0  0  0  0  0  0  0  0
    4.7271    1.7227    1.7147 C   0  0  0  0  0  0  0  0  0  0  0  0
    3.0478    0.3270    0.6943 N   0  0  0  0  0  0  0  0  0  0  0  0
   -1.0860   -2.2586   -1.4301 S   0  0  0  0  0  0  0  0  0  0  0  0
   -2.6545   -1.7129   -1.5347 C   0  0  0  0  0  0  0  0  0  0  0  0
   -2.8427   -0.4697   -1.0046 C   0  0  0  0  0  0  0  0  0  0  0  0
   -4.2616   -0.0458   -1.1344 C   0  0  0  0  0  0  0  0  0  0  0  0
   -4.9736   -1.3806   -1.5208 C   0  0  0  0  0  0  0  0  0  0  0  0
   -3.8773   -2.3268   -2.0990 C   0  0  0  0  0  0  0  0  0  0  0  0
   -0.8386    3.0803    2.0754 H   0  0  0  0  0  0  0  0  0  0  0  0
    0.8373    3.1662    1.4971 H   0  0  0  0  0  0  0  0  0  0  0  0
   -0.4606    3.8067    0.4698 H   0  0  0  0  0  0  0  0  0  0  0  0
    0.9635    0.2497    0.1863 H   0  0  0  0  0  0  0  0  0  0  0  0
    4.6021   -2.4606   -0.2285 H   0  0  0  0  0  0  0  0  0  0  0  0
    6.1890   -0.5731    0.9959 H   0  0  0  0  0  0  0  0  0  0  0  0
    4.5157    2.5548    1.0384 H   0  0  0  0  0  0  0  0  0  0  0  0
    5.7955    1.6874    1.9411 H   0  0  0  0  0  0  0  0  0  0  0  0
    4.1523    1.8222    2.6388 H   0  0  0  0  0  0  0  0  0  0  0  0
   -4.6711    0.3621   -0.2062 H   0  0  0  0  0  0  0  0  0  0  0  0
   -4.3687    0.6918   -1.9365 H   0  0  0  0  0  0  0  0  0  0  0  0
   -5.3940   -1.8349   -0.6137 H   0  0  0  0  0  0  0  0  0  0  0  0
   -5.7994   -1.2233   -2.2215 H   0  0  0  0  0  0  0  0  0  0  0  0
   -3.8678   -2.2800   -3.1928 H   0  0  0  0  0  0  0  0  0  0  0  0
   -4.0343   -3.3594   -1.7758 H   0  0  0  0  0  0  0  0  0  0  0  0
  1  2  1  0
  2  3  1  0
  3  4  2  0
  3  5  1  0
  5  6  2  0
  6  7  1  0
  7  8  1  0
  8  9  2  0
  8 10  1  0
 10 11  1  0
 11 12  2  0
 12 13  1  0
 13 14  1  0
 13 15  1  0
  6 16  1  0
 16 17  1  0
 17 18  2  0
 18 19  1  0
 19 20  1  0
 20 21  1  0
 18  5  1  0
 15 10  2  0
 21 17  1  0
  1 22  1  0
  1 23  1  0
  1 24  1  0
  7 25  1  0
 11 26  1  0
 12 27  1  0
 14 28  1  0
 14 29  1  0
 14 30  1  0
 19 31  1  0
 19 32  1  0
 20 33  1  0
 20 34  1  0
 21 35  1  0
 21 36  1  0
M  END
$$$$
