
     RDKit          3D

 64 69  0  0  0  0  0  0  0  0999 V2000
   -3.3926    5.2533    2.7370 C   0  0  0  0  0  0  0  0  0  0  0  0
   -4.3435    4.1957    2.7607 O   0  0  0  0  0  0  0  0  0  0  0  0
   -4.1492    3.1706    1.8770 C   0  0  0  0  0  0  0  0  0  0  0  0
   -5.0878    2.1402    1.9638 C   0  0  0  0  0  0  0  0  0  0  0  0
   -5.0064    1.0277    1.1218 C   0  0  0  0  0  0  0  0  0  0  0  0
   -3.9812    0.9312    0.1729 C   0  0  0  0  0  0  0  0  0  0  0  0
   -3.8744   -0.2427   -0.7042 C   0  0  0  0  0  0  0  0  0  0  0  0
   -5.1532   -0.5576   -1.7967 S   0  0  0  0  0  0  0  0  0  0  0  0
   -4.3872   -1.9518   -2.4452 C   0  0  0  0  0  0  0  0  0  0  0  0
   -4.8991   -2.7908   -3.4598 C   0  0  0  0  0  0  0  0  0  0  0  0
   -4.1173   -3.8670   -3.8254 C   0  0  0  0  0  0  0  0  0  0  0  0
   -2.9064   -4.1210   -3.2429 C   0  0  0  0  0  0  0  0  0  0  0  0
   -2.3866   -3.3132   -2.2506 C   0  0  0  0  0  0  0  0  0  0  0  0
   -3.1453   -2.1831   -1.8337 C   0  0  0  0  0  0  0  0  0  0  0  0
   -2.8565   -1.1764   -0.8316 C   0  0  0  0  0  0  0  0  0  0  0  0
   -1.6458   -1.1176   -0.0163 C   0  0  0  0  0  0  0  0  0  0  0  0
   -0.4088   -0.8691   -0.6215 C   0  0  0  0  0  0  0  0  0  0  0  0
    0.7611   -0.8249    0.1458 C   0  0  0  0  0  0  0  0  0  0  0  0
    0.7047   -1.0320    1.5238 C   0  0  0  0  0  0  0  0  0  0  0  0
    1.7614   -1.0157    2.3900 O   0  0  0  0  0  0  0  0  0  0  0  0
    3.0871   -0.9391    1.8554 C   0  0  0  0  0  0  0  0  0  0  0  0
    3.5282    0.5271    1.7047 C   0  0  0  0  0  0  0  0  0  0  0  0
    4.9163    0.6857    1.2382 N   0  0  0  0  0  0  0  0  0  0  0  0
    5.3621    2.0760    1.3530 C   0  0  0  0  0  0  0  0  0  0  0  0
    6.8767    2.1708    1.1333 C   0  0  0  0  0  0  0  0  0  0  0  0
    7.3892    1.2370    0.0352 C   0  0  0  0  0  0  0  0  0  0  0  0
    6.2616    0.8230   -0.8967 C   0  0  0  0  0  0  0  0  0  0  0  0
    5.1116    0.1606   -0.1245 C   0  0  0  0  0  0  0  0  0  0  0  0
   -0.5335   -1.2722    2.1265 C   0  0  0  0  0  0  0  0  0  0  0  0
   -1.7037   -1.3207    1.3646 C   0  0  0  0  0  0  0  0  0  0  0  0
   -2.3058   -5.2318   -3.7496 O   0  0  0  0  0  0  0  0  0  0  0  0
   -3.2880   -5.6526   -4.7182 C   0  0  0  0  0  0  0  0  0  0  0  0
   -4.4393   -4.7855   -4.7769 O   0  0  0  0  0  0  0  0  0  0  0  0
   -3.0435    1.9688    0.0876 C   0  0  0  0  0  0  0  0  0  0  0  0
   -3.1260    3.0819    0.9337 C   0  0  0  0  0  0  0  0  0  0  0  0
   -3.4036    5.7714    1.7722 H   0  0  0  0  0  0  0  0  0  0  0  0
   -2.3889    4.8879    2.9798 H   0  0  0  0  0  0  0  0  0  0  0  0
   -3.6776    5.9772    3.5066 H   0  0  0  0  0  0  0  0  0  0  0  0
   -5.8889    2.2024    2.6967 H   0  0  0  0  0  0  0  0  0  0  0  0
   -5.7461    0.2364    1.2194 H   0  0  0  0  0  0  0  0  0  0  0  0
   -5.8593   -2.6008   -3.9251 H   0  0  0  0  0  0  0  0  0  0  0  0
   -1.4264   -3.5439   -1.8006 H   0  0  0  0  0  0  0  0  0  0  0  0
   -0.3464   -0.7040   -1.6951 H   0  0  0  0  0  0  0  0  0  0  0  0
    1.6936   -0.6209   -0.3681 H   0  0  0  0  0  0  0  0  0  0  0  0
    3.7408   -1.4271    2.5888 H   0  0  0  0  0  0  0  0  0  0  0  0
    3.1864   -1.5238    0.9343 H   0  0  0  0  0  0  0  0  0  0  0  0
    2.8353    1.0715    1.0515 H   0  0  0  0  0  0  0  0  0  0  0  0
    3.4206    0.9927    2.6933 H   0  0  0  0  0  0  0  0  0  0  0  0
    5.1444    2.4757    2.3513 H   0  0  0  0  0  0  0  0  0  0  0  0
    4.8317    2.7150    0.6343 H   0  0  0  0  0  0  0  0  0  0  0  0
    7.4072    1.9417    2.0658 H   0  0  0  0  0  0  0  0  0  0  0  0
    7.1285    3.2078    0.8807 H   0  0  0  0  0  0  0  0  0  0  0  0
    7.8245    0.3405    0.4949 H   0  0  0  0  0  0  0  0  0  0  0  0
    8.1950    1.7235   -0.5260 H   0  0  0  0  0  0  0  0  0  0  0  0
    5.8870    1.7106   -1.4214 H   0  0  0  0  0  0  0  0  0  0  0  0
    6.6362    0.1363   -1.6637 H   0  0  0  0  0  0  0  0  0  0  0  0
    5.3165   -0.9138   -0.0472 H   0  0  0  0  0  0  0  0  0  0  0  0
    4.2030    0.2703   -0.7304 H   0  0  0  0  0  0  0  0  0  0  0  0
   -0.5876   -1.4289    3.2013 H   0  0  0  0  0  0  0  0  0  0  0  0
   -2.6526   -1.5174    1.8578 H   0  0  0  0  0  0  0  0  0  0  0  0
   -3.6230   -6.6643   -4.4618 H   0  0  0  0  0  0  0  0  0  0  0  0
   -2.8168   -5.6781   -5.7073 H   0  0  0  0  0  0  0  0  0  0  0  0
   -2.2374    1.9195   -0.6413 H   0  0  0  0  0  0  0  0  0  0  0  0
   -2.3752    3.8577    0.8280 H   0  0  0  0  0  0  0  0  0  0  0  0
  1  2  1  0
  2  3  1  0
  3  4  2  0
  4  5  1  0
  5  6  2  0
  6  7  1  0
  7  8  1  0
  8  9  1  0
  9 10  2  0
 10 11  1  0
 11 12  2  0
 12 13  1  0
 13 14  2  0
 14 15  1  0
 15 16  1  0
 16 17  2  0
 17 18  1  0
 18 19  2  0
 19 20  1  0
 20 21  1  0
 21 22  1  0
 22 23  1  0
 23 24  1  0
 24 25  1  0
 25 26  1  0
 26 27  1  0
 27 28  1  0
 19 29  1  0
 29 30  2  0
 12 31  1  0
 31 32  1  0
 32 33  1  0
  6 34  1  0
 34 35  2  0
 35  3  1  0
 15  7  2  0
 30 16  1  0
 14  9  1  0
 28 23  1  0
 33 11  1  0
  1 36  1  0
  1 37  1  0
  1 38  1  0
  4 39  1  0
  5 40  1  0
 10 41  1  0
 13 42  1  0
 17 43  1  0
 18 44  1  0
 21 45  1  0
 21 46  1  0
 22 47  1  0
 22 48  1  0
 24 49  1  0
 24 50  1  0
 25 51  1  0
 25 52  1  0
 26 53  1  0
 26 54  1  0
 27 55  1  0
 27 56  1  0
 28 57  1  0
 28 58  1  0
 29 59  1  0
 30 60  1  0
 32 61  1  0
 32 62  1  0
 34 63  1  0
 35 64  1  0
M  END
$$$$
