
     RDKit          3D

 59 62  0  0  0  0  0  0  0  0999 V2000
   10.2046    1.9527   -0.5872 C   0  0  0  0  0  0  0  0  0  0  0  0
    9.0220    1.7895   -1.3595 O   0  0  0  0  0  0  0  0  0  0  0  0
    7.8391    1.7453   -0.6766 C   0  0  0  0  0  0  0  0  0  0  0  0
    7.6863    1.8095    0.7078 C   0  0  0  0  0  0  0  0  0  0  0  0
    6.4087    1.7450    1.2763 C   0  0  0  0  0  0  0  0  0  0  0  0
    5.2709    1.6108    0.4685 C   0  0  0  0  0  0  0  0  0  0  0  0
    3.9321    1.5370    1.1320 C   0  0  0  0  0  0  0  0  0  0  0  0
    3.8533    1.8432    2.3219 O   0  0  0  0  0  0  0  0  0  0  0  0
    2.7465    1.1016    0.2881 C   0  0  0  0  0  0  0  0  0  0  0  0
    1.3269    0.6176    1.3169 S   0  0  0  0  0  0  0  0  0  0  0  0
    0.2534    0.0405    0.0922 C   0  0  0  0  0  0  0  0  0  0  0  0
    0.4195    0.1924   -1.2000 N   0  0  0  0  0  0  0  0  0  0  0  0
   -0.6115   -0.4549   -1.8295 N   0  0  0  0  0  0  0  0  0  0  0  0
   -1.3906   -0.9924   -0.9067 C   0  0  0  0  0  0  0  0  0  0  0  0
   -2.5918   -1.8430   -1.1756 C   0  0  0  0  0  0  0  0  0  0  0  0
   -3.7960   -1.5688   -0.3918 N   0  0  0  0  0  0  0  0  0  0  0  0
   -4.6700   -0.5275   -0.7286 C   0  0  0  0  0  0  0  0  0  0  0  0
   -4.2908    0.5460   -1.5461 C   0  0  0  0  0  0  0  0  0  0  0  0
   -5.1623    1.6062   -1.8187 C   0  0  0  0  0  0  0  0  0  0  0  0
   -6.4352    1.6409   -1.2518 C   0  0  0  0  0  0  0  0  0  0  0  0
   -7.3876    2.7553   -1.5647 C   0  0  0  0  0  0  0  0  0  0  0  0
   -6.8228    0.5939   -0.4120 C   0  0  0  0  0  0  0  0  0  0  0  0
   -5.9479   -0.4714   -0.1244 C   0  0  0  0  0  0  0  0  0  0  0  0
   -6.4221   -1.5465    0.8183 C   0  0  0  0  0  0  0  0  0  0  0  0
   -0.8847   -0.6810    0.3377 N   0  0  0  0  0  0  0  0  0  0  0  0
   -1.4342   -1.0540    1.6264 C   0  0  0  0  0  0  0  0  0  0  0  0
   -1.0458   -2.4428    1.9802 C   0  0  0  0  0  0  0  0  0  0  0  0
    0.0954   -3.0019    2.5172 C   0  0  0  0  0  0  0  0  0  0  0  0
   -0.1560   -4.3887    2.6341 C   0  0  0  0  0  0  0  0  0  0  0  0
   -1.4298   -4.5900    2.1596 C   0  0  0  0  0  0  0  0  0  0  0  0
   -1.9781   -3.4151    1.7596 O   0  0  0  0  0  0  0  0  0  0  0  0
    5.4253    1.5536   -0.9199 C   0  0  0  0  0  0  0  0  0  0  0  0
    6.7051    1.6191   -1.4828 C   0  0  0  0  0  0  0  0  0  0  0  0
   11.0547    1.9638   -1.2777 H   0  0  0  0  0  0  0  0  0  0  0  0
   10.3467    1.1143    0.1037 H   0  0  0  0  0  0  0  0  0  0  0  0
   10.1962    2.9084   -0.0526 H   0  0  0  0  0  0  0  0  0  0  0  0
    8.5359    1.9082    1.3753 H   0  0  0  0  0  0  0  0  0  0  0  0
    6.3084    1.7955    2.3597 H   0  0  0  0  0  0  0  0  0  0  0  0
    3.0373    0.2320   -0.3093 H   0  0  0  0  0  0  0  0  0  0  0  0
    2.4569    1.9333   -0.3615 H   0  0  0  0  0  0  0  0  0  0  0  0
   -2.2978   -2.8814   -0.9738 H   0  0  0  0  0  0  0  0  0  0  0  0
   -2.8315   -1.8207   -2.2463 H   0  0  0  0  0  0  0  0  0  0  0  0
   -4.3028   -2.4269   -0.1979 H   0  0  0  0  0  0  0  0  0  0  0  0
   -3.3054    0.5890   -2.0033 H   0  0  0  0  0  0  0  0  0  0  0  0
   -4.8274    2.4064   -2.4756 H   0  0  0  0  0  0  0  0  0  0  0  0
   -8.0876    2.4430   -2.3461 H   0  0  0  0  0  0  0  0  0  0  0  0
   -7.9547    3.0415   -0.6723 H   0  0  0  0  0  0  0  0  0  0  0  0
   -6.8522    3.6464   -1.9098 H   0  0  0  0  0  0  0  0  0  0  0  0
   -7.8171    0.6113    0.0332 H   0  0  0  0  0  0  0  0  0  0  0  0
   -7.3765   -1.2825    1.2859 H   0  0  0  0  0  0  0  0  0  0  0  0
   -5.6994   -1.6967    1.6266 H   0  0  0  0  0  0  0  0  0  0  0  0
   -6.5656   -2.4851    0.2749 H   0  0  0  0  0  0  0  0  0  0  0  0
   -2.5180   -0.9264    1.6032 H   0  0  0  0  0  0  0  0  0  0  0  0
   -1.0744   -0.3531    2.3858 H   0  0  0  0  0  0  0  0  0  0  0  0
    0.9968   -2.4730    2.7958 H   0  0  0  0  0  0  0  0  0  0  0  0
    0.5070   -5.1502    3.0189 H   0  0  0  0  0  0  0  0  0  0  0  0
   -2.0576   -5.4622    2.0479 H   0  0  0  0  0  0  0  0  0  0  0  0
    4.5771    1.4685   -1.5931 H   0  0  0  0  0  0  0  0  0  0  0  0
    6.8191    1.5748   -2.5646 H   0  0  0  0  0  0  0  0  0  0  0  0
  1  2  1  0
  2  3  1  0
  3  4  2  0
  4  5  1  0
  5  6  2  0
  6  7  1  0
  7  8  2  0
  7  9  1  0
  9 10  1  0
 10 11  1  0
 11 12  2  0
 12 13  1  0
 13 14  2  0
 14 15  1  0
 15 16  1  0
 16 17  1  0
 17 18  2  0
 18 19  1  0
 19 20  2  0
 20 21  1  0
 20 22  1  0
 22 23  2  0
 23 24  1  0
 14 25  1  0
 25 26  1  0
 26 27  1  0
 27 28  2  0
 28 29  1  0
 29 30  2  0
 30 31  1  0
  6 32  1  0
 32 33  2  0
 33  3  1  0
 25 11  1  0
 31 27  1  0
 23 17  1  0
  1 34  1  0
  1 35  1  0
  1 36  1  0
  4 37  1  0
  5 38  1  0
  9 39  1  0
  9 40  1  0
 15 41  1  0
 15 42  1  0
 16 43  1  0
 18 44  1  0
 19 45  1  0
 21 46  1  0
 21 47  1  0
 21 48  1  0
 22 49  1  0
 24 50  1  0
 24 51  1  0
 24 52  1  0
 26 53  1  0
 26 54  1  0
 28 55  1  0
 29 56  1  0
 30 57  1  0
 32 58  1  0
 33 59  1  0
M  END
$$$$
