
     RDKit          3D

 36 37  0  0  0  0  0  0  0  0999 V2000
   -0.3344    0.3396    2.8334 O   0  0  0  0  0  0  0  0  0  0  0  0
   -0.2224    0.7953    1.7035 C   0  0  0  0  0  0  0  0  0  0  0  0
   -1.2988    0.7048    0.6873 C   0  0  0  0  0  0  0  0  0  0  0  0
   -2.3753   -0.0586    0.9271 C   0  0  0  0  0  0  0  0  0  0  0  0
   -3.4730   -0.2032   -0.0394 C   0  0  0  0  0  0  0  0  0  0  0  0
   -4.1745    0.9398   -0.4568 C   0  0  0  0  0  0  0  0  0  0  0  0
   -5.2355    0.8371   -1.3600 C   0  0  0  0  0  0  0  0  0  0  0  0
   -5.6134   -0.4089   -1.8542 C   0  0  0  0  0  0  0  0  0  0  0  0
   -4.9324   -1.5546   -1.4436 C   0  0  0  0  0  0  0  0  0  0  0  0
   -3.8699   -1.4556   -0.5389 C   0  0  0  0  0  0  0  0  0  0  0  0
   -3.0642   -2.9187   -0.0862 Cl  0  0  0  0  0  0  0  0  0  0  0  0
    0.9045    1.4179    1.2273 N   0  0  0  0  0  0  0  0  0  0  0  0
    2.1322    1.4444    2.0020 C   0  0  0  0  0  0  0  0  0  0  0  0
    2.9068    0.1229    1.9371 C   0  0  0  0  0  0  0  0  0  0  0  0
    3.3530   -0.2204    0.5341 C   0  0  0  0  0  0  0  0  0  0  0  0
    4.4791    0.3963   -0.0276 C   0  0  0  0  0  0  0  0  0  0  0  0
    4.8718    0.0945   -1.3325 C   0  0  0  0  0  0  0  0  0  0  0  0
    4.1431   -0.8231   -2.0873 C   0  0  0  0  0  0  0  0  0  0  0  0
    3.0212   -1.4411   -1.5382 C   0  0  0  0  0  0  0  0  0  0  0  0
    2.6269   -1.1415   -0.2338 C   0  0  0  0  0  0  0  0  0  0  0  0
   -1.1827    1.2597   -0.2347 H   0  0  0  0  0  0  0  0  0  0  0  0
   -2.4653   -0.6310    1.8487 H   0  0  0  0  0  0  0  0  0  0  0  0
   -3.9074    1.9216   -0.0703 H   0  0  0  0  0  0  0  0  0  0  0  0
   -5.7706    1.7310   -1.6720 H   0  0  0  0  0  0  0  0  0  0  0  0
   -6.4404   -0.4895   -2.5555 H   0  0  0  0  0  0  0  0  0  0  0  0
   -5.2341   -2.5245   -1.8314 H   0  0  0  0  0  0  0  0  0  0  0  0
    0.9868    1.5993    0.2355 H   0  0  0  0  0  0  0  0  0  0  0  0
    1.8816    1.6680    3.0451 H   0  0  0  0  0  0  0  0  0  0  0  0
    2.7356    2.2727    1.6152 H   0  0  0  0  0  0  0  0  0  0  0  0
    3.7910    0.1874    2.5835 H   0  0  0  0  0  0  0  0  0  0  0  0
    2.2972   -0.6954    2.3401 H   0  0  0  0  0  0  0  0  0  0  0  0
    5.0595    1.1128    0.5491 H   0  0  0  0  0  0  0  0  0  0  0  0
    5.7491    0.5732   -1.7599 H   0  0  0  0  0  0  0  0  0  0  0  0
    4.4519   -1.0601   -3.1020 H   0  0  0  0  0  0  0  0  0  0  0  0
    2.4543   -2.1601   -2.1240 H   0  0  0  0  0  0  0  0  0  0  0  0
    1.7486   -1.6318    0.1824 H   0  0  0  0  0  0  0  0  0  0  0  0
  1  2  2  0
  2  3  1  0
  3  4  2  3
  4  5  1  0
  5  6  2  0
  6  7  1  0
  7  8  2  0
  8  9  1  0
  9 10  2  0
 10 11  1  0
  2 12  1  0
 12 13  1  0
 13 14  1  0
 14 15  1  0
 15 16  2  0
 16 17  1  0
 17 18  2  0
 18 19  1  0
 19 20  2  0
 10  5  1  0
 20 15  1  0
  3 21  1  0
  4 22  1  0
  6 23  1  0
  7 24  1  0
  8 25  1  0
  9 26  1  0
 12 27  1  0
 13 28  1  0
 13 29  1  0
 14 30  1  0
 14 31  1  0
 16 32  1  0
 17 33  1  0
 18 34  1  0
 19 35  1  0
 20 36  1  0
M  END
$$$$
