
     RDKit          3D

 35 37  0  0  0  0  0  0  0  0999 V2000
    7.0290    1.3784    0.6341 C   0  0  0  0  0  0  0  0  0  0  0  0
    6.6273    0.0811    0.2128 O   0  0  0  0  0  0  0  0  0  0  0  0
    5.2841   -0.1513    0.1151 C   0  0  0  0  0  0  0  0  0  0  0  0
    4.9430   -1.4378   -0.3048 C   0  0  0  0  0  0  0  0  0  0  0  0
    3.6027   -1.8105   -0.4477 C   0  0  0  0  0  0  0  0  0  0  0  0
    2.5737   -0.9003   -0.1722 C   0  0  0  0  0  0  0  0  0  0  0  0
    1.1849   -1.3130   -0.3287 C   0  0  0  0  0  0  0  0  0  0  0  0
    0.6832   -2.4676   -0.7150 N   0  0  0  0  0  0  0  0  0  0  0  0
   -0.6901   -2.3250   -0.6891 N   0  0  0  0  0  0  0  0  0  0  0  0
   -0.9314   -1.0979   -0.2909 C   0  0  0  0  0  0  0  0  0  0  0  0
   -2.0916   -0.4144   -0.0779 N   0  0  0  0  0  0  0  0  0  0  0  0
   -3.3165   -0.9751   -0.3443 C   0  0  0  0  0  0  0  0  0  0  0  0
   -3.5265   -2.0821   -0.8223 O   0  0  0  0  0  0  0  0  0  0  0  0
   -4.4870   -0.1007   -0.0451 C   0  0  0  0  0  0  0  0  0  0  0  0
   -4.4866    0.7993    1.0319 C   0  0  0  0  0  0  0  0  0  0  0  0
   -5.6092    1.5961    1.2719 C   0  0  0  0  0  0  0  0  0  0  0  0
   -6.7236    1.4853    0.4461 C   0  0  0  0  0  0  0  0  0  0  0  0
   -7.7958    2.2518    0.6822 F   0  0  0  0  0  0  0  0  0  0  0  0
   -6.7438    0.5861   -0.6136 C   0  0  0  0  0  0  0  0  0  0  0  0
   -5.6256   -0.2135   -0.8576 C   0  0  0  0  0  0  0  0  0  0  0  0
    0.2116   -0.3898   -0.0386 O   0  0  0  0  0  0  0  0  0  0  0  0
    2.9250    0.3907    0.2493 C   0  0  0  0  0  0  0  0  0  0  0  0
    4.2692    0.7632    0.3921 C   0  0  0  0  0  0  0  0  0  0  0  0
    6.6973    2.1440   -0.0752 H   0  0  0  0  0  0  0  0  0  0  0  0
    8.1228    1.3985    0.6583 H   0  0  0  0  0  0  0  0  0  0  0  0
    6.6693    1.5938    1.6457 H   0  0  0  0  0  0  0  0  0  0  0  0
    5.7271   -2.1592   -0.5238 H   0  0  0  0  0  0  0  0  0  0  0  0
    3.3691   -2.8221   -0.7777 H   0  0  0  0  0  0  0  0  0  0  0  0
   -1.9926    0.5444    0.2119 H   0  0  0  0  0  0  0  0  0  0  0  0
   -3.6419    0.8702    1.7112 H   0  0  0  0  0  0  0  0  0  0  0  0
   -5.6296    2.2937    2.1041 H   0  0  0  0  0  0  0  0  0  0  0  0
   -7.6282    0.5077   -1.2384 H   0  0  0  0  0  0  0  0  0  0  0  0
   -5.6419   -0.9257   -1.6813 H   0  0  0  0  0  0  0  0  0  0  0  0
    2.1567    1.1277    0.4728 H   0  0  0  0  0  0  0  0  0  0  0  0
    4.4860    1.7742    0.7210 H   0  0  0  0  0  0  0  0  0  0  0  0
  1  2  1  0
  2  3  1  0
  3  4  2  0
  4  5  1  0
  5  6  2  0
  6  7  1  0
  7  8  2  0
  8  9  1  0
  9 10  2  0
 10 11  1  0
 11 12  1  0
 12 13  2  0
 12 14  1  0
 14 15  2  0
 15 16  1  0
 16 17  2  0
 17 18  1  0
 17 19  1  0
 19 20  2  0
 10 21  1  0
  6 22  1  0
 22 23  2  0
 23  3  1  0
 21  7  1  0
 20 14  1  0
  1 24  1  0
  1 25  1  0
  1 26  1  0
  4 27  1  0
  5 28  1  0
 11 29  1  0
 15 30  1  0
 16 31  1  0
 19 32  1  0
 20 33  1  0
 22 34  1  0
 23 35  1  0
M  END
$$$$
