
     RDKit          3D

 36 38  0  0  0  0  0  0  0  0999 V2000
   -2.7084    0.8921   -2.2408 C   0  0  0  0  0  0  0  0  0  0  0  0
   -2.2807    0.3020   -0.9330 C   0  0  0  0  0  0  0  0  0  0  0  0
   -0.9574    0.2764   -0.6589 N   0  0  0  0  0  0  0  0  0  0  0  0
   -0.6130   -0.2552    0.5437 C   0  0  0  0  0  0  0  0  0  0  0  0
    1.1377   -0.2895    0.9181 S   0  0  0  0  0  6  0  0  0  0  0  0
    1.5426   -1.6860    0.9934 O   0  0  0  0  0  0  0  0  0  0  0  0
    1.3670    0.6277    2.0255 O   0  0  0  0  0  0  0  0  0  0  0  0
    1.8722    0.4202   -0.5494 C   0  0  0  0  0  0  0  0  0  0  0  0
    3.3738    0.4608   -0.3968 C   0  0  0  0  0  0  0  0  0  0  0  0
    4.0017    1.5759    0.1788 C   0  0  0  0  0  0  0  0  0  0  0  0
    5.3908    1.6117    0.3216 C   0  0  0  0  0  0  0  0  0  0  0  0
    6.1596    0.5326   -0.1073 C   0  0  0  0  0  0  0  0  0  0  0  0
    7.8707    0.5784    0.0669 Cl  0  0  0  0  0  0  0  0  0  0  0  0
    5.5509   -0.5842   -0.6746 C   0  0  0  0  0  0  0  0  0  0  0  0
    4.1620   -0.6212   -0.8179 C   0  0  0  0  0  0  0  0  0  0  0  0
   -1.4241   -0.7577    1.4968 N   0  0  0  0  0  0  0  0  0  0  0  0
   -2.7128   -0.7105    1.1569 C   0  0  0  0  0  0  0  0  0  0  0  0
   -3.1949   -0.2000   -0.0367 C   0  0  0  0  0  0  0  0  0  0  0  0
   -4.6837   -0.2576   -0.0862 C   0  0  0  0  0  0  0  0  0  0  0  0
   -4.9795   -1.2790    1.0238 C   0  0  0  0  0  0  0  0  0  0  0  0
   -3.8392   -1.1601    2.0440 C   0  0  0  0  0  0  0  0  0  0  0  0
   -3.2135    0.1367   -2.8508 H   0  0  0  0  0  0  0  0  0  0  0  0
   -1.8433    1.2591   -2.8027 H   0  0  0  0  0  0  0  0  0  0  0  0
   -3.3866    1.7346   -2.0745 H   0  0  0  0  0  0  0  0  0  0  0  0
    1.4759    1.4313   -0.6865 H   0  0  0  0  0  0  0  0  0  0  0  0
    1.5933   -0.1933   -1.4118 H   0  0  0  0  0  0  0  0  0  0  0  0
    3.4136    2.4208    0.5337 H   0  0  0  0  0  0  0  0  0  0  0  0
    5.8638    2.4793    0.7738 H   0  0  0  0  0  0  0  0  0  0  0  0
    6.1489   -1.4313   -0.9999 H   0  0  0  0  0  0  0  0  0  0  0  0
    3.7003   -1.5082   -1.2490 H   0  0  0  0  0  0  0  0  0  0  0  0
   -5.0628   -0.6035   -1.0518 H   0  0  0  0  0  0  0  0  0  0  0  0
   -5.1090    0.7220    0.1551 H   0  0  0  0  0  0  0  0  0  0  0  0
   -4.9717   -2.2900    0.5928 H   0  0  0  0  0  0  0  0  0  0  0  0
   -5.9642   -1.1305    1.4775 H   0  0  0  0  0  0  0  0  0  0  0  0
   -3.6269   -2.1137    2.5345 H   0  0  0  0  0  0  0  0  0  0  0  0
   -4.0531   -0.3899    2.7918 H   0  0  0  0  0  0  0  0  0  0  0  0
  1  2  1  0
  2  3  2  0
  3  4  1  0
  4  5  1  0
  5  6  2  0
  5  7  2  0
  5  8  1  0
  8  9  1  0
  9 10  2  0
 10 11  1  0
 11 12  2  0
 12 13  1  0
 12 14  1  0
 14 15  2  0
  4 16  2  0
 16 17  1  0
 17 18  2  0
 18 19  1  0
 19 20  1  0
 20 21  1  0
 18  2  1  0
 15  9  1  0
 21 17  1  0
  1 22  1  0
  1 23  1  0
  1 24  1  0
  8 25  1  0
  8 26  1  0
 10 27  1  0
 11 28  1  0
 14 29  1  0
 15 30  1  0
 19 31  1  0
 19 32  1  0
 20 33  1  0
 20 34  1  0
 21 35  1  0
 21 36  1  0
M  END
$$$$
