
     RDKit          3D

 36 37  0  0  0  0  0  0  0  0999 V2000
   -1.7106   -2.9705    0.9426 C   0  0  0  0  0  0  0  0  0  0  0  0
   -2.3841   -1.4918    1.7524 S   0  0  0  0  0  0  0  0  0  0  0  0
   -3.2792   -0.7898    0.3663 C   0  0  0  0  0  0  0  0  0  0  0  0
   -4.6810   -0.8478    0.4527 C   0  0  0  0  0  0  0  0  0  0  0  0
   -5.4872   -0.3691   -0.5822 C   0  0  0  0  0  0  0  0  0  0  0  0
   -4.9048    0.1749   -1.7211 C   0  0  0  0  0  0  0  0  0  0  0  0
   -3.5159    0.2522   -1.8181 C   0  0  0  0  0  0  0  0  0  0  0  0
   -2.6920   -0.2114   -0.7755 C   0  0  0  0  0  0  0  0  0  0  0  0
   -1.2227   -0.0415   -0.9877 C   0  0  0  0  0  0  0  0  0  0  0  0
   -0.7853   -0.2094   -2.1208 O   0  0  0  0  0  0  0  0  0  0  0  0
   -0.5011    0.3310    0.1283 N   0  0  0  0  0  0  0  0  0  0  0  0
    0.8839    0.5753    0.2246 C   0  0  0  0  0  0  0  0  0  0  0  0
    1.3880    0.8843    1.4906 C   0  0  0  0  0  0  0  0  0  0  0  0
    2.7494    1.1387    1.6734 C   0  0  0  0  0  0  0  0  0  0  0  0
    3.6384    1.0906    0.5921 C   0  0  0  0  0  0  0  0  0  0  0  0
    5.0981    1.3698    0.8219 C   0  0  0  0  0  0  0  0  0  0  0  0
    3.1408    0.7814   -0.6880 C   0  0  0  0  0  0  0  0  0  0  0  0
    4.0480    0.7171   -1.8871 C   0  0  0  0  0  0  0  0  0  0  0  0
    1.7655    0.5273   -0.8559 C   0  0  0  0  0  0  0  0  0  0  0  0
   -1.1717   -3.5672    1.6833 H   0  0  0  0  0  0  0  0  0  0  0  0
   -1.0142   -2.7004    0.1452 H   0  0  0  0  0  0  0  0  0  0  0  0
   -2.5188   -3.5789    0.5275 H   0  0  0  0  0  0  0  0  0  0  0  0
   -5.1622   -1.2798    1.3289 H   0  0  0  0  0  0  0  0  0  0  0  0
   -6.5699   -0.4288   -0.4994 H   0  0  0  0  0  0  0  0  0  0  0  0
   -5.5278    0.5419   -2.5333 H   0  0  0  0  0  0  0  0  0  0  0  0
   -3.0693    0.6854   -2.7125 H   0  0  0  0  0  0  0  0  0  0  0  0
   -1.0194    0.3908    0.9985 H   0  0  0  0  0  0  0  0  0  0  0  0
    0.7311    0.9298    2.3553 H   0  0  0  0  0  0  0  0  0  0  0  0
    3.1103    1.3755    2.6719 H   0  0  0  0  0  0  0  0  0  0  0  0
    5.3042    1.5916    1.8745 H   0  0  0  0  0  0  0  0  0  0  0  0
    5.7003    0.4988    0.5451 H   0  0  0  0  0  0  0  0  0  0  0  0
    5.4168    2.2367    0.2345 H   0  0  0  0  0  0  0  0  0  0  0  0
    4.5267    1.6872   -2.0536 H   0  0  0  0  0  0  0  0  0  0  0  0
    3.4964    0.4617   -2.7981 H   0  0  0  0  0  0  0  0  0  0  0  0
    4.8156   -0.0497   -1.7420 H   0  0  0  0  0  0  0  0  0  0  0  0
    1.4038    0.2940   -1.8528 H   0  0  0  0  0  0  0  0  0  0  0  0
  1  2  1  0
  2  3  1  0
  3  4  2  0
  4  5  1  0
  5  6  2  0
  6  7  1  0
  7  8  2  0
  8  9  1  0
  9 10  2  0
  9 11  1  0
 11 12  1  0
 12 13  2  0
 13 14  1  0
 14 15  2  0
 15 16  1  0
 15 17  1  0
 17 18  1  0
 17 19  2  0
  8  3  1  0
 19 12  1  0
  1 20  1  0
  1 21  1  0
  1 22  1  0
  4 23  1  0
  5 24  1  0
  6 25  1  0
  7 26  1  0
 11 27  1  0
 13 28  1  0
 14 29  1  0
 16 30  1  0
 16 31  1  0
 16 32  1  0
 18 33  1  0
 18 34  1  0
 18 35  1  0
 19 36  1  0
M  END
$$$$
