
     RDKit          3D

 44 47  0  0  0  0  0  0  0  0999 V2000
   -4.2816    1.9398    1.9860 C   0  0  0  0  0  0  0  0  0  0  0  0
   -3.4955    1.7347    0.6953 C   0  0  0  0  0  0  0  0  0  0  0  0
   -2.0950    1.2335    0.9955 C   0  0  0  0  0  0  0  0  0  0  0  0
   -1.3345    0.9228   -0.2710 C   0  0  0  0  0  0  0  0  0  0  0  0
   -0.5753    1.7643   -0.7620 O   0  0  0  0  0  0  0  0  0  0  0  0
   -1.4584   -0.3537   -0.8013 N   0  0  0  0  0  0  0  0  0  0  0  0
   -0.5940   -0.7054   -1.9338 C   0  0  0  0  0  0  0  0  0  0  0  0
    0.8386   -1.0265   -1.4887 C   0  0  0  0  0  0  0  0  0  0  0  0
    1.2250   -2.1893   -1.4094 O   0  0  0  0  0  0  0  0  0  0  0  0
    1.5773    0.1096   -1.2004 N   0  0  0  0  0  0  0  0  0  0  0  0
    2.9157    0.1976   -0.7739 C   0  0  0  0  0  0  0  0  0  0  0  0
    3.7639   -0.9156   -0.6207 C   0  0  0  0  0  0  0  0  0  0  0  0
    5.0852   -0.7593   -0.1827 C   0  0  0  0  0  0  0  0  0  0  0  0
    5.5263    0.5160    0.0876 C   0  0  0  0  0  0  0  0  0  0  0  0
    4.7092    1.6071   -0.0717 C   0  0  0  0  0  0  0  0  0  0  0  0
    3.4026    1.4825   -0.4933 C   0  0  0  0  0  0  0  0  0  0  0  0
    5.3357    2.7754    0.2362 O   0  0  0  0  0  0  0  0  0  0  0  0
    6.6496    2.2921    0.5854 C   0  0  0  0  0  0  0  0  0  0  0  0
    6.7685    0.8588    0.5216 O   0  0  0  0  0  0  0  0  0  0  0  0
   -2.4398   -1.3027   -0.3773 C   0  0  0  0  0  0  0  0  0  0  0  0
   -2.0675   -2.6535   -0.2523 C   0  0  0  0  0  0  0  0  0  0  0  0
   -2.9852   -3.6191    0.1668 C   0  0  0  0  0  0  0  0  0  0  0  0
   -4.2943   -3.2564    0.4553 C   0  0  0  0  0  0  0  0  0  0  0  0
   -4.6886   -1.9284    0.3187 C   0  0  0  0  0  0  0  0  0  0  0  0
   -3.7745   -0.9439   -0.0931 C   0  0  0  0  0  0  0  0  0  0  0  0
   -4.4648    0.6748   -0.4342 S   0  0  0  0  0  0  0  0  0  0  0  0
   -4.4542    0.9994    2.5206 H   0  0  0  0  0  0  0  0  0  0  0  0
   -5.2517    2.4110    1.7862 H   0  0  0  0  0  0  0  0  0  0  0  0
   -3.7407    2.6081    2.6655 H   0  0  0  0  0  0  0  0  0  0  0  0
   -3.4206    2.7059    0.1925 H   0  0  0  0  0  0  0  0  0  0  0  0
   -2.0901    0.3702    1.6710 H   0  0  0  0  0  0  0  0  0  0  0  0
   -1.5323    2.0113    1.5304 H   0  0  0  0  0  0  0  0  0  0  0  0
   -0.9984   -1.5581   -2.4929 H   0  0  0  0  0  0  0  0  0  0  0  0
   -0.5633    0.1343   -2.6358 H   0  0  0  0  0  0  0  0  0  0  0  0
    1.0590    0.9897   -1.2288 H   0  0  0  0  0  0  0  0  0  0  0  0
    3.4173   -1.9238   -0.8306 H   0  0  0  0  0  0  0  0  0  0  0  0
    5.7389   -1.6144   -0.0583 H   0  0  0  0  0  0  0  0  0  0  0  0
    2.7847    2.3659   -0.6010 H   0  0  0  0  0  0  0  0  0  0  0  0
    6.8845    2.6199    1.6062 H   0  0  0  0  0  0  0  0  0  0  0  0
    7.3780    2.7365   -0.1005 H   0  0  0  0  0  0  0  0  0  0  0  0
   -1.0473   -2.9754   -0.4494 H   0  0  0  0  0  0  0  0  0  0  0  0
   -2.6717   -4.6564    0.2626 H   0  0  0  0  0  0  0  0  0  0  0  0
   -5.0142   -4.0115    0.7633 H   0  0  0  0  0  0  0  0  0  0  0  0
   -5.7267   -1.6681    0.5113 H   0  0  0  0  0  0  0  0  0  0  0  0
  1  2  1  0
  2  3  1  0
  3  4  1  0
  4  5  2  0
  4  6  1  0
  6  7  1  0
  7  8  1  0
  8  9  2  0
  8 10  1  0
 10 11  1  0
 11 12  2  0
 12 13  1  0
 13 14  2  0
 14 15  1  0
 15 16  2  0
 15 17  1  0
 17 18  1  0
 18 19  1  0
  6 20  1  0
 20 21  2  0
 21 22  1  0
 22 23  2  0
 23 24  1  0
 24 25  2  0
 25 26  1  0
 26  2  1  0
 16 11  1  0
 25 20  1  0
 19 14  1  0
  1 27  1  0
  1 28  1  0
  1 29  1  0
  2 30  1  0
  3 31  1  0
  3 32  1  0
  7 33  1  0
  7 34  1  0
 10 35  1  0
 12 36  1  0
 13 37  1  0
 16 38  1  0
 18 39  1  0
 18 40  1  0
 21 41  1  0
 22 42  1  0
 23 43  1  0
 24 44  1  0
M  END
$$$$
