
     RDKit          3D

 38 41  0  0  0  0  0  0  0  0999 V2000
   -4.7842   -0.5836   -2.6832 O   0  0  0  0  0  0  0  0  0  0  0  0
   -4.1883   -1.3024   -1.8874 C   0  0  0  0  0  0  0  0  0  0  0  0
   -3.4405   -0.8126   -0.7433 C   0  0  0  0  0  0  0  0  0  0  0  0
   -2.7545   -1.6166    0.1477 C   0  0  0  0  0  0  0  0  0  0  0  0
   -2.1561   -0.8105    1.0835 N   0  0  0  0  0  0  0  0  0  0  0  0
   -1.3056   -1.3048    2.1572 C   0  0  0  0  0  0  0  0  0  0  0  0
    0.1054   -1.6376    1.6992 C   0  0  0  0  0  0  0  0  0  0  0  0
    0.6370   -2.6802    2.0780 O   0  0  0  0  0  0  0  0  0  0  0  0
    0.7050   -0.6581    0.9238 N   0  0  0  0  0  0  0  0  0  0  0  0
    2.0044   -0.6642    0.3721 C   0  0  0  0  0  0  0  0  0  0  0  0
    2.9221   -1.7198    0.5346 C   0  0  0  0  0  0  0  0  0  0  0  0
    4.2014   -1.6595   -0.0360 C   0  0  0  0  0  0  0  0  0  0  0  0
    4.5322   -0.5368   -0.7589 C   0  0  0  0  0  0  0  0  0  0  0  0
    3.6438    0.4968   -0.9241 C   0  0  0  0  0  0  0  0  0  0  0  0
    2.3776    0.4634   -0.3756 C   0  0  0  0  0  0  0  0  0  0  0  0
    4.1624    1.5136   -1.6641 O   0  0  0  0  0  0  0  0  0  0  0  0
    5.4824    0.9996   -1.9421 C   0  0  0  0  0  0  0  0  0  0  0  0
    5.7210   -0.3050   -1.3741 O   0  0  0  0  0  0  0  0  0  0  0  0
   -2.4657    0.5127    0.8429 C   0  0  0  0  0  0  0  0  0  0  0  0
   -2.1094    1.6887    1.5263 C   0  0  0  0  0  0  0  0  0  0  0  0
   -2.5639    2.9102    1.0206 C   0  0  0  0  0  0  0  0  0  0  0  0
   -3.3477    2.9626   -0.1262 C   0  0  0  0  0  0  0  0  0  0  0  0
   -3.7004    1.7877   -0.7983 C   0  0  0  0  0  0  0  0  0  0  0  0
   -3.2581    0.5387   -0.3112 C   0  0  0  0  0  0  0  0  0  0  0  0
   -4.1928   -2.3993   -2.0120 H   0  0  0  0  0  0  0  0  0  0  0  0
   -2.6333   -2.6935    0.1835 H   0  0  0  0  0  0  0  0  0  0  0  0
   -1.2647   -0.5681    2.9629 H   0  0  0  0  0  0  0  0  0  0  0  0
   -1.7833   -2.2108    2.5481 H   0  0  0  0  0  0  0  0  0  0  0  0
    0.1511    0.1643    0.7056 H   0  0  0  0  0  0  0  0  0  0  0  0
    2.6723   -2.6080    1.1057 H   0  0  0  0  0  0  0  0  0  0  0  0
    4.9084   -2.4717    0.0933 H   0  0  0  0  0  0  0  0  0  0  0  0
    1.7069    1.3016   -0.5299 H   0  0  0  0  0  0  0  0  0  0  0  0
    6.2219    1.6986   -1.5367 H   0  0  0  0  0  0  0  0  0  0  0  0
    5.6140    0.9394   -3.0285 H   0  0  0  0  0  0  0  0  0  0  0  0
   -1.5028    1.6709    2.4272 H   0  0  0  0  0  0  0  0  0  0  0  0
   -2.3046    3.8341    1.5340 H   0  0  0  0  0  0  0  0  0  0  0  0
   -3.6953    3.9208   -0.5057 H   0  0  0  0  0  0  0  0  0  0  0  0
   -4.3183    1.8393   -1.6933 H   0  0  0  0  0  0  0  0  0  0  0  0
  1  2  2  0
  2  3  1  0
  3  4  2  0
  4  5  1  0
  5  6  1  0
  6  7  1  0
  7  8  2  0
  7  9  1  0
  9 10  1  0
 10 11  2  0
 11 12  1  0
 12 13  2  0
 13 14  1  0
 14 15  2  0
 14 16  1  0
 16 17  1  0
 17 18  1  0
  5 19  1  0
 19 20  2  0
 20 21  1  0
 21 22  2  0
 22 23  1  0
 23 24  2  0
 24  3  1  0
 15 10  1  0
 24 19  1  0
 18 13  1  0
  2 25  1  0
  4 26  1  0
  6 27  1  0
  6 28  1  0
  9 29  1  0
 11 30  1  0
 12 31  1  0
 15 32  1  0
 17 33  1  0
 17 34  1  0
 20 35  1  0
 21 36  1  0
 22 37  1  0
 23 38  1  0
M  END
$$$$
