
     RDKit          3D

 32 33  0  0  0  0  0  0  0  0999 V2000
   -5.8013   -0.7169   -0.6414 C   0  0  0  0  0  0  0  0  0  0  0  0
   -4.3362   -0.5578   -0.3582 C   0  0  0  0  0  0  0  0  0  0  0  0
   -3.3879   -0.8317   -1.3517 C   0  0  0  0  0  0  0  0  0  0  0  0
   -2.0215   -0.7167   -1.0783 C   0  0  0  0  0  0  0  0  0  0  0  0
   -0.9026   -1.0986   -2.3395 Cl  0  0  0  0  0  0  0  0  0  0  0  0
   -1.5850   -0.3151    0.1905 C   0  0  0  0  0  0  0  0  0  0  0  0
   -0.2427   -0.2326    0.4669 O   0  0  0  0  0  0  0  0  0  0  0  0
    0.2630    1.0712    0.1519 C   0  0  0  0  0  0  0  0  0  0  0  0
    1.7758    1.0607    0.3398 C   0  0  0  0  0  0  0  0  0  0  0  0
    2.4521    0.0508   -0.5858 C   0  0  0  0  0  0  0  0  0  0  0  0
    3.8960    0.0916   -0.4645 N   0  0  0  0  0  0  0  0  0  0  0  0
    4.6528   -0.6110    0.4298 C   0  0  0  0  0  0  0  0  0  0  0  0
    5.9504   -0.2459    0.1564 C   0  0  0  0  0  0  0  0  0  0  0  0
    5.9959    0.6524   -0.8790 N   0  0  0  0  0  0  0  0  0  0  0  0
    4.7441    0.8318   -1.2365 C   0  0  0  0  0  0  0  0  0  0  0  0
   -2.5288   -0.0880    1.1982 C   0  0  0  0  0  0  0  0  0  0  0  0
   -2.0108    0.3589    2.9692 Br  0  0  0  0  0  0  0  0  0  0  0  0
   -3.8958   -0.2033    0.9235 C   0  0  0  0  0  0  0  0  0  0  0  0
   -6.1150   -1.7426   -0.4247 H   0  0  0  0  0  0  0  0  0  0  0  0
   -6.0227   -0.4924   -1.6901 H   0  0  0  0  0  0  0  0  0  0  0  0
   -6.3938   -0.0281   -0.0301 H   0  0  0  0  0  0  0  0  0  0  0  0
   -3.7149   -1.1446   -2.3415 H   0  0  0  0  0  0  0  0  0  0  0  0
   -0.1764    1.8160    0.8257 H   0  0  0  0  0  0  0  0  0  0  0  0
    0.0218    1.3527   -0.8805 H   0  0  0  0  0  0  0  0  0  0  0  0
    2.1704    2.0671    0.1562 H   0  0  0  0  0  0  0  0  0  0  0  0
    2.0115    0.8057    1.3808 H   0  0  0  0  0  0  0  0  0  0  0  0
    2.1367   -0.9744   -0.3610 H   0  0  0  0  0  0  0  0  0  0  0  0
    2.2047    0.2536   -1.6342 H   0  0  0  0  0  0  0  0  0  0  0  0
    4.2260   -1.2846    1.1595 H   0  0  0  0  0  0  0  0  0  0  0  0
    6.8536   -0.5821    0.6488 H   0  0  0  0  0  0  0  0  0  0  0  0
    4.4047    1.4790   -2.0346 H   0  0  0  0  0  0  0  0  0  0  0  0
   -4.6243   -0.0251    1.7127 H   0  0  0  0  0  0  0  0  0  0  0  0
  1  2  1  0
  2  3  2  0
  3  4  1  0
  4  5  1  0
  4  6  2  0
  6  7  1  0
  7  8  1  0
  8  9  1  0
  9 10  1  0
 10 11  1  0
 11 12  1  0
 12 13  2  0
 13 14  1  0
 14 15  2  0
  6 16  1  0
 16 17  1  0
 16 18  2  0
 18  2  1  0
 15 11  1  0
  1 19  1  0
  1 20  1  0
  1 21  1  0
  3 22  1  0
  8 23  1  0
  8 24  1  0
  9 25  1  0
  9 26  1  0
 10 27  1  0
 10 28  1  0
 12 29  1  0
 13 30  1  0
 15 31  1  0
 18 32  1  0
M  END
$$$$
