
     RDKit          3D

 37 40  0  0  0  0  0  0  0  0999 V2000
   -2.1027    2.5080    0.4676 C   0  0  0  0  0  0  0  0  0  0  0  0
   -2.4576    2.4426   -1.0081 C   0  0  0  0  0  0  0  0  0  0  0  0
   -2.0964    1.1833   -1.5725 O   0  0  0  0  0  0  0  0  0  0  0  0
   -2.9173    0.1004   -1.3826 C   0  0  0  0  0  0  0  0  0  0  0  0
   -4.2084    0.1530   -0.8503 C   0  0  0  0  0  0  0  0  0  0  0  0
   -4.9683   -1.0135   -0.7168 C   0  0  0  0  0  0  0  0  0  0  0  0
   -4.4482   -2.2414   -1.1163 C   0  0  0  0  0  0  0  0  0  0  0  0
   -3.1626   -2.3091   -1.6490 C   0  0  0  0  0  0  0  0  0  0  0  0
   -2.3910   -1.1463   -1.7800 C   0  0  0  0  0  0  0  0  0  0  0  0
   -1.0424   -1.2694   -2.3488 C   0  0  0  0  0  0  0  0  0  0  0  0
    0.0992   -1.1124   -1.6632 C   0  0  0  0  0  0  0  0  0  0  0  0
    1.6702   -1.1939   -2.4622 S   0  0  0  0  0  0  0  0  0  0  0  0
    2.4374   -0.8218   -0.9770 C   0  0  0  0  0  0  0  0  0  0  0  0
    3.6676   -0.6549   -0.5882 N   0  0  0  0  0  0  0  0  0  0  0  0
    3.4977   -0.3991    0.7638 C   0  0  0  0  0  0  0  0  0  0  0  0
    4.7063   -0.1208    1.7170 C   0  0  0  0  0  0  0  0  0  0  0  0
    4.6240    0.1401    3.0719 C   0  0  0  0  0  0  0  0  0  0  0  0
    5.9495    0.3298    3.5326 C   0  0  0  0  0  0  0  0  0  0  0  0
    6.7595    0.1736    2.4333 C   0  0  0  0  0  0  0  0  0  0  0  0
    6.0179   -0.0992    1.3297 O   0  0  0  0  0  0  0  0  0  0  0  0
    2.2186   -0.4099    1.1956 N   0  0  0  0  0  0  0  0  0  0  0  0
    1.5731   -0.6802    0.0459 N   0  0  0  0  0  0  0  0  0  0  0  0
    0.2239   -0.8383   -0.1913 C   0  0  0  0  0  0  0  0  0  0  0  0
   -0.6151   -0.7767    0.6873 O   0  0  0  0  0  0  0  0  0  0  0  0
   -1.0430    2.2758    0.6173 H   0  0  0  0  0  0  0  0  0  0  0  0
   -2.3035    3.5056    0.8685 H   0  0  0  0  0  0  0  0  0  0  0  0
   -2.6733    1.7791    1.0507 H   0  0  0  0  0  0  0  0  0  0  0  0
   -1.8610    3.1955   -1.5360 H   0  0  0  0  0  0  0  0  0  0  0  0
   -3.5024    2.7045   -1.2035 H   0  0  0  0  0  0  0  0  0  0  0  0
   -4.6596    1.0831   -0.5242 H   0  0  0  0  0  0  0  0  0  0  0  0
   -5.9698   -0.9606   -0.2967 H   0  0  0  0  0  0  0  0  0  0  0  0
   -5.0419   -3.1455   -1.0085 H   0  0  0  0  0  0  0  0  0  0  0  0
   -2.7656   -3.2747   -1.9531 H   0  0  0  0  0  0  0  0  0  0  0  0
   -1.0273   -1.4706   -3.4176 H   0  0  0  0  0  0  0  0  0  0  0  0
    3.7106    0.1853    3.6494 H   0  0  0  0  0  0  0  0  0  0  0  0
    6.2737    0.5522    4.5394 H   0  0  0  0  0  0  0  0  0  0  0  0
    7.8281    0.2223    2.2760 H   0  0  0  0  0  0  0  0  0  0  0  0
  1  2  1  0
  2  3  1  0
  3  4  1  0
  4  5  2  0
  5  6  1  0
  6  7  2  0
  7  8  1  0
  8  9  2  0
  9 10  1  0
 10 11  2  3
 11 12  1  0
 12 13  1  0
 13 14  2  0
 14 15  1  0
 15 16  1  0
 16 17  2  0
 17 18  1  0
 18 19  2  0
 19 20  1  0
 15 21  2  0
 21 22  1  0
 22 23  1  0
 23 24  2  0
  9  4  1  0
 23 11  1  0
 22 13  1  0
 20 16  1  0
  1 25  1  0
  1 26  1  0
  1 27  1  0
  2 28  1  0
  2 29  1  0
  5 30  1  0
  6 31  1  0
  7 32  1  0
  8 33  1  0
 10 34  1  0
 17 35  1  0
 18 36  1  0
 19 37  1  0
M  END
$$$$
