
     RDKit          3D

 48 51  0  0  0  0  0  0  0  0999 V2000
    3.4021    2.9775    0.1038 C   0  0  0  0  0  0  0  0  0  0  0  0
    3.3653    2.0526   -1.1035 C   0  0  0  0  0  0  0  0  0  0  0  0
    3.0019    0.6952   -0.7064 N   0  0  0  0  0  0  0  0  0  0  0  0
    1.7191    0.1465   -0.6229 C   0  0  0  0  0  0  0  0  0  0  0  0
    0.5595    0.7898   -0.8597 C   0  0  0  0  0  0  0  0  0  0  0  0
   -0.7796    0.1918   -0.7738 C   0  0  0  0  0  0  0  0  0  0  0  0
   -1.2782   -0.4358   -1.9152 C   0  0  0  0  0  0  0  0  0  0  0  0
   -2.5365   -1.0053   -1.8985 C   0  0  0  0  0  0  0  0  0  0  0  0
   -3.3029   -0.9333   -0.7422 C   0  0  0  0  0  0  0  0  0  0  0  0
   -4.5868   -1.5012   -0.7289 C   0  0  0  0  0  0  0  0  0  0  0  0
   -5.3963   -1.4295    0.4076 C   0  0  0  0  0  0  0  0  0  0  0  0
   -6.7548   -2.0703    0.4174 C   0  0  0  0  0  0  0  0  0  0  0  0
   -4.9011   -0.8006    1.5477 C   0  0  0  0  0  0  0  0  0  0  0  0
   -3.6213   -0.2323    1.5488 C   0  0  0  0  0  0  0  0  0  0  0  0
   -2.7877   -0.2863    0.4146 C   0  0  0  0  0  0  0  0  0  0  0  0
   -1.5216    0.2559    0.3734 N   0  0  0  0  0  4  0  0  0  0  0  0
   -0.9336    0.8958    1.5892 C   0  0  0  0  0  0  0  0  0  0  0  0
   -1.3279    2.3601    1.6401 C   0  0  0  0  0  0  0  0  0  0  0  0
    1.6994   -1.5628   -0.0983 S   0  0  0  0  0  0  0  0  0  0  0  0
    3.4797   -1.4970    0.0453 C   0  0  0  0  0  0  0  0  0  0  0  0
    4.2962   -2.5402    0.4599 C   0  0  0  0  0  0  0  0  0  0  0  0
    5.6697   -2.3180    0.5281 C   0  0  0  0  0  0  0  0  0  0  0  0
    6.1998   -1.0681    0.1864 C   0  0  0  0  0  0  0  0  0  0  0  0
    5.3652   -0.0229   -0.2313 C   0  0  0  0  0  0  0  0  0  0  0  0
    3.9918   -0.2285   -0.3095 C   0  0  0  0  0  0  0  0  0  0  0  0
    2.4301    3.0094    0.6073 H   0  0  0  0  0  0  0  0  0  0  0  0
    4.1466    2.6491    0.8361 H   0  0  0  0  0  0  0  0  0  0  0  0
    3.6573    3.9954   -0.2068 H   0  0  0  0  0  0  0  0  0  0  0  0
    2.6407    2.4403   -1.8293 H   0  0  0  0  0  0  0  0  0  0  0  0
    4.3263    2.0769   -1.6295 H   0  0  0  0  0  0  0  0  0  0  0  0
    0.5615    1.8319   -1.1633 H   0  0  0  0  0  0  0  0  0  0  0  0
   -0.6795   -0.4924   -2.8238 H   0  0  0  0  0  0  0  0  0  0  0  0
   -2.9104   -1.4994   -2.7949 H   0  0  0  0  0  0  0  0  0  0  0  0
   -4.9718   -2.0072   -1.6156 H   0  0  0  0  0  0  0  0  0  0  0  0
   -6.6718   -3.1170    0.7256 H   0  0  0  0  0  0  0  0  0  0  0  0
   -7.4276   -1.5502    1.1074 H   0  0  0  0  0  0  0  0  0  0  0  0
   -7.2130   -2.0277   -0.5764 H   0  0  0  0  0  0  0  0  0  0  0  0
   -5.5127   -0.7459    2.4486 H   0  0  0  0  0  0  0  0  0  0  0  0
   -3.3232    0.2535    2.4725 H   0  0  0  0  0  0  0  0  0  0  0  0
    0.1530    0.7897    1.5810 H   0  0  0  0  0  0  0  0  0  0  0  0
   -1.2587    0.3466    2.4765 H   0  0  0  0  0  0  0  0  0  0  0  0
   -0.9630    2.8991    0.7603 H   0  0  0  0  0  0  0  0  0  0  0  0
   -2.4142    2.4844    1.6748 H   0  0  0  0  0  0  0  0  0  0  0  0
   -0.9029    2.8350    2.5296 H   0  0  0  0  0  0  0  0  0  0  0  0
    3.8824   -3.5079    0.7247 H   0  0  0  0  0  0  0  0  0  0  0  0
    6.3348   -3.1176    0.8478 H   0  0  0  0  0  0  0  0  0  0  0  0
    7.2750   -0.9080    0.2451 H   0  0  0  0  0  0  0  0  0  0  0  0
    5.8195    0.9291   -0.4829 H   0  0  0  0  0  0  0  0  0  0  0  0
  1  2  1  0
  2  3  1  0
  3  4  1  0
  4  5  2  3
  5  6  1  0
  6  7  2  0
  7  8  1  0
  8  9  2  0
  9 10  1  0
 10 11  2  0
 11 12  1  0
 11 13  1  0
 13 14  2  0
 14 15  1  0
 15 16  2  0
 16 17  1  0
 17 18  1  0
  4 19  1  0
 19 20  1  0
 20 21  2  0
 21 22  1  0
 22 23  2  0
 23 24  1  0
 24 25  2  0
 25  3  1  0
 16  6  1  0
 25 20  1  0
 15  9  1  0
  1 26  1  0
  1 27  1  0
  1 28  1  0
  2 29  1  0
  2 30  1  0
  5 31  1  0
  7 32  1  0
  8 33  1  0
 10 34  1  0
 12 35  1  0
 12 36  1  0
 12 37  1  0
 13 38  1  0
 14 39  1  0
 17 40  1  0
 17 41  1  0
 18 42  1  0
 18 43  1  0
 18 44  1  0
 21 45  1  0
 22 46  1  0
 23 47  1  0
 24 48  1  0
M  CHG  1  16   1
M  END
$$$$
