
     RDKit          3D

 60 65  0  0  0  0  0  0  0  0999 V2000
   -3.9945    4.0704   -1.9646 O   0  0  0  0  0  0  0  0  0  0  0  0
   -3.6306    3.2171   -1.1637 C   0  0  0  0  0  0  0  0  0  0  0  0
   -2.3779    2.6201   -1.2419 N   0  0  0  0  0  0  0  0  0  0  0  0
   -1.9144    1.6534   -0.3572 C   0  0  0  0  0  0  0  0  0  0  0  0
   -0.5132    1.1177   -0.6061 C   0  0  0  0  0  0  0  0  0  0  0  0
   -0.4250    0.4065   -1.9613 C   0  0  0  0  0  0  0  0  0  0  0  0
    0.9940   -0.0897   -2.2263 C   0  0  0  0  0  0  0  0  0  0  0  0
    1.9233    1.0606   -2.1359 N   0  0  0  0  0  0  0  0  0  0  0  0
    3.4369    0.8789   -2.9054 S   0  0  0  0  0  6  0  0  0  0  0  0
    3.2053    0.3084   -4.2155 O   0  0  0  0  0  0  0  0  0  0  0  0
    4.1718    2.1155   -2.7484 O   0  0  0  0  0  0  0  0  0  0  0  0
    4.2462   -0.3593   -1.9163 C   0  0  0  0  0  0  0  0  0  0  0  0
    4.1547   -1.7076   -2.2813 C   0  0  0  0  0  0  0  0  0  0  0  0
    4.8009   -2.6746   -1.5094 C   0  0  0  0  0  0  0  0  0  0  0  0
    5.5399   -2.2911   -0.3906 C   0  0  0  0  0  0  0  0  0  0  0  0
    5.6660   -0.9364   -0.0606 C   0  0  0  0  0  0  0  0  0  0  0  0
    5.0158    0.0342   -0.8178 C   0  0  0  0  0  0  0  0  0  0  0  0
    6.4094   -0.4902    1.0016 O   0  0  0  0  0  0  0  0  0  0  0  0
    7.3137   -1.5012    1.4625 C   0  0  0  0  0  0  0  0  0  0  0  0
    6.5963   -2.8337    1.6026 C   0  0  0  0  0  0  0  0  0  0  0  0
    6.1287   -3.2976    0.3304 O   0  0  0  0  0  0  0  0  0  0  0  0
    1.9337    1.6898   -0.7940 C   0  0  0  0  0  0  0  0  0  0  0  0
    0.5371    2.2291   -0.4964 C   0  0  0  0  0  0  0  0  0  0  0  0
   -2.6043    1.1909    0.6500 N   0  0  0  0  0  0  0  0  0  0  0  0
   -3.8352    1.7532    0.7458 C   0  0  0  0  0  0  0  0  0  0  0  0
   -4.3994    2.7131   -0.0593 C   0  0  0  0  0  0  0  0  0  0  0  0
   -5.6506    3.0255    0.3708 N   0  0  0  0  0  0  0  0  0  0  0  0
   -5.8989    2.2750    1.4442 N   0  0  0  0  0  0  0  0  0  0  0  0
   -4.8139    1.4926    1.6633 N   0  0  0  0  0  0  0  0  0  0  0  0
   -4.7671    0.5769    2.7847 C   0  0  0  0  0  0  0  0  0  0  0  0
   -5.2740   -0.7873    2.4057 C   0  0  0  0  0  0  0  0  0  0  0  0
   -4.4554   -1.7067    1.7323 C   0  0  0  0  0  0  0  0  0  0  0  0
   -4.9504   -2.9622    1.3702 C   0  0  0  0  0  0  0  0  0  0  0  0
   -6.2657   -3.3121    1.6743 C   0  0  0  0  0  0  0  0  0  0  0  0
   -7.0870   -2.4063    2.3419 C   0  0  0  0  0  0  0  0  0  0  0  0
   -6.5883   -1.1573    2.6999 C   0  0  0  0  0  0  0  0  0  0  0  0
   -7.3914   -0.3055    3.3517 F   0  0  0  0  0  0  0  0  0  0  0  0
   -1.8079    2.9492   -2.0080 H   0  0  0  0  0  0  0  0  0  0  0  0
   -0.3051    0.3765    0.1788 H   0  0  0  0  0  0  0  0  0  0  0  0
   -1.1239   -0.4382   -1.9874 H   0  0  0  0  0  0  0  0  0  0  0  0
   -0.7239    1.0845   -2.7707 H   0  0  0  0  0  0  0  0  0  0  0  0
    1.2708   -0.8590   -1.4969 H   0  0  0  0  0  0  0  0  0  0  0  0
    1.0217   -0.5368   -3.2248 H   0  0  0  0  0  0  0  0  0  0  0  0
    3.5896   -2.0110   -3.1602 H   0  0  0  0  0  0  0  0  0  0  0  0
    4.7297   -3.7256   -1.7781 H   0  0  0  0  0  0  0  0  0  0  0  0
    5.1261    1.0840   -0.5579 H   0  0  0  0  0  0  0  0  0  0  0  0
    8.1527   -1.5675    0.7586 H   0  0  0  0  0  0  0  0  0  0  0  0
    7.7061   -1.1778    2.4317 H   0  0  0  0  0  0  0  0  0  0  0  0
    7.2789   -3.5908    2.0004 H   0  0  0  0  0  0  0  0  0  0  0  0
    5.7375   -2.7571    2.2805 H   0  0  0  0  0  0  0  0  0  0  0  0
    2.6401    2.5249   -0.7601 H   0  0  0  0  0  0  0  0  0  0  0  0
    2.2278    0.9579   -0.0336 H   0  0  0  0  0  0  0  0  0  0  0  0
    0.5147    2.6685    0.5081 H   0  0  0  0  0  0  0  0  0  0  0  0
    0.3116    3.0423   -1.1977 H   0  0  0  0  0  0  0  0  0  0  0  0
   -3.7299    0.5170    3.1347 H   0  0  0  0  0  0  0  0  0  0  0  0
   -5.3503    1.0148    3.6033 H   0  0  0  0  0  0  0  0  0  0  0  0
   -3.4286   -1.4486    1.4800 H   0  0  0  0  0  0  0  0  0  0  0  0
   -4.3101   -3.6675    0.8457 H   0  0  0  0  0  0  0  0  0  0  0  0
   -6.6507   -4.2881    1.3895 H   0  0  0  0  0  0  0  0  0  0  0  0
   -8.1134   -2.6623    2.5846 H   0  0  0  0  0  0  0  0  0  0  0  0
  1  2  2  0
  2  3  1  0
  3  4  1  0
  4  5  1  0
  5  6  1  0
  6  7  1  0
  7  8  1  0
  8  9  1  0
  9 10  2  0
  9 11  2  0
  9 12  1  0
 12 13  2  0
 13 14  1  0
 14 15  2  0
 15 16  1  0
 16 17  2  0
 16 18  1  0
 18 19  1  0
 19 20  1  0
 20 21  1  0
  8 22  1  0
 22 23  1  0
  4 24  2  0
 24 25  1  0
 25 26  2  0
 26 27  1  0
 27 28  2  0
 28 29  1  0
 29 30  1  0
 30 31  1  0
 31 32  2  0
 32 33  1  0
 33 34  2  0
 34 35  1  0
 35 36  2  0
 36 37  1  0
 26  2  1  0
 36 31  1  0
 23  5  1  0
 29 25  1  0
 17 12  1  0
 21 15  1  0
  3 38  1  0
  5 39  1  0
  6 40  1  0
  6 41  1  0
  7 42  1  0
  7 43  1  0
 13 44  1  0
 14 45  1  0
 17 46  1  0
 19 47  1  0
 19 48  1  0
 20 49  1  0
 20 50  1  0
 22 51  1  0
 22 52  1  0
 23 53  1  0
 23 54  1  0
 30 55  1  0
 30 56  1  0
 32 57  1  0
 33 58  1  0
 34 59  1  0
 35 60  1  0
M  END
$$$$
