
     RDKit          3D

 65 69  0  0  0  0  0  0  0  0999 V2000
   -4.6287   -5.0984    3.5015 C   0  0  0  0  0  0  0  0  0  0  0  0
   -4.6955   -3.7464    3.0662 O   0  0  0  0  0  0  0  0  0  0  0  0
   -4.3003   -3.4891    1.7816 C   0  0  0  0  0  0  0  0  0  0  0  0
   -3.8510   -4.4321    0.8574 C   0  0  0  0  0  0  0  0  0  0  0  0
   -3.4706   -4.0311   -0.4262 C   0  0  0  0  0  0  0  0  0  0  0  0
   -3.5382   -2.6862   -0.7910 C   0  0  0  0  0  0  0  0  0  0  0  0
   -3.9910   -1.7291    0.1240 C   0  0  0  0  0  0  0  0  0  0  0  0
   -4.0448   -0.3117   -0.2527 C   0  0  0  0  0  0  0  0  0  0  0  0
   -5.5793    0.4352   -0.3763 S   0  0  0  0  0  0  0  0  0  0  0  0
   -4.9096    1.9425   -0.8498 C   0  0  0  0  0  0  0  0  0  0  0  0
   -5.6160    3.1235   -1.1490 C   0  0  0  0  0  0  0  0  0  0  0  0
   -4.9065    4.2724   -1.5163 C   0  0  0  0  0  0  0  0  0  0  0  0
   -3.5205    4.2554   -1.5833 C   0  0  0  0  0  0  0  0  0  0  0  0
   -2.7185    5.3096   -1.9256 O   0  0  0  0  0  0  0  0  0  0  0  0
   -3.3632    6.5422   -2.2211 C   0  0  0  0  0  0  0  0  0  0  0  0
   -2.8306    3.0745   -1.2828 C   0  0  0  0  0  0  0  0  0  0  0  0
   -3.5171    1.8868   -0.9144 C   0  0  0  0  0  0  0  0  0  0  0  0
   -3.0218    0.5698   -0.5703 C   0  0  0  0  0  0  0  0  0  0  0  0
   -1.6178    0.1654   -0.5466 C   0  0  0  0  0  0  0  0  0  0  0  0
   -1.0061   -0.2212    0.6489 C   0  0  0  0  0  0  0  0  0  0  0  0
    0.3384   -0.6002    0.6554 C   0  0  0  0  0  0  0  0  0  0  0  0
    1.0896   -0.5880   -0.5223 C   0  0  0  0  0  0  0  0  0  0  0  0
    2.3909   -0.9786   -0.3723 O   0  0  0  0  0  0  0  0  0  0  0  0
    3.2499   -0.8357   -1.5067 C   0  0  0  0  0  0  0  0  0  0  0  0
    4.6920   -1.2187   -1.1155 C   0  0  0  0  0  0  0  0  0  0  0  0
    5.5287   -0.0816   -0.6802 N   0  0  0  0  0  0  0  0  0  0  0  0
    5.0975    0.5172    0.5935 C   0  0  0  0  0  0  0  0  0  0  0  0
    6.0196    0.2095    1.7727 C   0  0  0  0  0  0  0  0  0  0  0  0
    7.4491    0.6726    1.5030 C   0  0  0  0  0  0  0  0  0  0  0  0
    7.8209    0.5709    0.0252 C   0  0  0  0  0  0  0  0  0  0  0  0
    6.9520   -0.4537   -0.7006 C   0  0  0  0  0  0  0  0  0  0  0  0
    0.4810   -0.2021   -1.7162 C   0  0  0  0  0  0  0  0  0  0  0  0
   -0.8673    0.1740   -1.7278 C   0  0  0  0  0  0  0  0  0  0  0  0
   -4.3694   -2.1431    1.4091 C   0  0  0  0  0  0  0  0  0  0  0  0
   -4.9685   -5.1315    4.5416 H   0  0  0  0  0  0  0  0  0  0  0  0
   -3.5989   -5.4712    3.4760 H   0  0  0  0  0  0  0  0  0  0  0  0
   -5.2963   -5.7363    2.9121 H   0  0  0  0  0  0  0  0  0  0  0  0
   -3.7825   -5.4863    1.1030 H   0  0  0  0  0  0  0  0  0  0  0  0
   -3.1185   -4.7680   -1.1434 H   0  0  0  0  0  0  0  0  0  0  0  0
   -3.2348   -2.3889   -1.7925 H   0  0  0  0  0  0  0  0  0  0  0  0
   -6.7011    3.1450   -1.0965 H   0  0  0  0  0  0  0  0  0  0  0  0
   -5.4791    5.1659   -1.7421 H   0  0  0  0  0  0  0  0  0  0  0  0
   -2.5884    7.2736   -2.4717 H   0  0  0  0  0  0  0  0  0  0  0  0
   -4.0222    6.4442   -3.0902 H   0  0  0  0  0  0  0  0  0  0  0  0
   -3.9091    6.9202   -1.3506 H   0  0  0  0  0  0  0  0  0  0  0  0
   -1.7435    3.0738   -1.3301 H   0  0  0  0  0  0  0  0  0  0  0  0
   -1.5661   -0.2316    1.5806 H   0  0  0  0  0  0  0  0  0  0  0  0
    0.8054   -0.9036    1.5889 H   0  0  0  0  0  0  0  0  0  0  0  0
    3.2244    0.1903   -1.8958 H   0  0  0  0  0  0  0  0  0  0  0  0
    2.9138   -1.5273   -2.2900 H   0  0  0  0  0  0  0  0  0  0  0  0
    4.6883   -2.0061   -0.3510 H   0  0  0  0  0  0  0  0  0  0  0  0
    5.1509   -1.6374   -2.0208 H   0  0  0  0  0  0  0  0  0  0  0  0
    5.0700    1.6057    0.4505 H   0  0  0  0  0  0  0  0  0  0  0  0
    4.0778    0.2352    0.8684 H   0  0  0  0  0  0  0  0  0  0  0  0
    6.0132   -0.8715    1.9667 H   0  0  0  0  0  0  0  0  0  0  0  0
    5.6435    0.6905    2.6838 H   0  0  0  0  0  0  0  0  0  0  0  0
    8.1376    0.0668    2.1049 H   0  0  0  0  0  0  0  0  0  0  0  0
    7.5794    1.7097    1.8342 H   0  0  0  0  0  0  0  0  0  0  0  0
    7.7027    1.5514   -0.4528 H   0  0  0  0  0  0  0  0  0  0  0  0
    8.8797    0.3052   -0.0713 H   0  0  0  0  0  0  0  0  0  0  0  0
    7.1082   -1.4398   -0.2411 H   0  0  0  0  0  0  0  0  0  0  0  0
    7.2872   -0.5280   -1.7420 H   0  0  0  0  0  0  0  0  0  0  0  0
    1.0236   -0.1840   -2.6550 H   0  0  0  0  0  0  0  0  0  0  0  0
   -1.3281    0.4721   -2.6669 H   0  0  0  0  0  0  0  0  0  0  0  0
   -4.7148   -1.4132    2.1378 H   0  0  0  0  0  0  0  0  0  0  0  0
  1  2  1  0
  2  3  1  0
  3  4  2  0
  4  5  1  0
  5  6  2  0
  6  7  1  0
  7  8  1  0
  8  9  1  0
  9 10  1  0
 10 11  2  0
 11 12  1  0
 12 13  2  0
 13 14  1  0
 14 15  1  0
 13 16  1  0
 16 17  2  0
 17 18  1  0
 18 19  1  0
 19 20  2  0
 20 21  1  0
 21 22  2  0
 22 23  1  0
 23 24  1  0
 24 25  1  0
 25 26  1  0
 26 27  1  0
 27 28  1  0
 28 29  1  0
 29 30  1  0
 30 31  1  0
 22 32  1  0
 32 33  2  0
  7 34  2  0
 34  3  1  0
 18  8  2  0
 33 19  1  0
 17 10  1  0
 31 26  1  0
  1 35  1  0
  1 36  1  0
  1 37  1  0
  4 38  1  0
  5 39  1  0
  6 40  1  0
 11 41  1  0
 12 42  1  0
 15 43  1  0
 15 44  1  0
 15 45  1  0
 16 46  1  0
 20 47  1  0
 21 48  1  0
 24 49  1  0
 24 50  1  0
 25 51  1  0
 25 52  1  0
 27 53  1  0
 27 54  1  0
 28 55  1  0
 28 56  1  0
 29 57  1  0
 29 58  1  0
 30 59  1  0
 30 60  1  0
 31 61  1  0
 31 62  1  0
 32 63  1  0
 33 64  1  0
 34 65  1  0
M  END
$$$$
