
     RDKit          3D

 92 94  0  0  0  0  0  0  0  0999 V2000
   -2.9278   -2.6243    3.9411 C   0  0  0  0  0  0  0  0  0  0  0  0
   -2.0137   -1.8555    3.0442 C   0  0  0  0  0  0  0  0  0  0  0  0
   -0.8847   -1.5029    3.3423 O   0  0  0  0  0  0  0  0  0  0  0  0
   -2.6252   -1.6158    1.8531 O   0  0  0  0  0  0  0  0  0  0  0  0
   -1.8936   -0.8430    0.8509 C   0  0  1  0  0  0  0  0  0  0  0  0
   -1.1504   -1.8125   -0.1148 C   0  0  2  0  0  0  0  0  0  0  0  0
    0.0017   -2.3885    0.5519 O   0  0  0  0  0  0  0  0  0  0  0  0
   -0.1721   -3.5840    1.1720 C   0  0  0  0  0  0  0  0  0  0  0  0
    1.0848   -4.0278    1.8536 C   0  0  0  0  0  0  0  0  0  0  0  0
   -1.2118   -4.2319    1.1889 O   0  0  0  0  0  0  0  0  0  0  0  0
   -0.6141   -1.2261   -1.4202 C   0  0  0  0  0  0  0  0  0  0  0  0
   -1.1435   -1.9359   -2.6475 C   0  0  0  0  0  0  0  0  0  0  0  0
    0.2694   -0.2153   -1.5974 C   0  0  0  0  0  0  0  0  0  0  0  0
    0.9998    0.6628   -0.5852 C   0  0  1  0  0  0  0  0  0  0  0  0
    2.4988    0.3120   -0.4402 C   0  0  1  0  0  0  0  0  0  0  0  0
    2.7232   -1.1031   -0.4616 O   0  0  0  0  0  0  0  0  0  0  0  0
    3.9455   -1.5229   -0.0643 C   0  0  0  0  0  0  0  0  0  0  0  0
    4.8201   -0.8202    0.4105 O   0  0  0  0  0  0  0  0  0  0  0  0
    4.0937   -2.9846   -0.3152 C   0  0  0  0  0  0  0  0  0  0  0  0
    3.1416   -3.7210   -1.0343 C   0  0  0  0  0  0  0  0  0  0  0  0
    3.3320   -5.0872   -1.2567 C   0  0  0  0  0  0  0  0  0  0  0  0
    4.4688   -5.7220   -0.7551 C   0  0  0  0  0  0  0  0  0  0  0  0
    5.4240   -4.9956   -0.0476 C   0  0  0  0  0  0  0  0  0  0  0  0
    5.2363   -3.6294    0.1718 C   0  0  0  0  0  0  0  0  0  0  0  0
    3.2205    1.0653   -1.5733 C   0  0  1  0  0  0  0  0  0  0  0  0
    3.5480    0.2483   -2.8273 C   0  0  0  0  0  0  0  0  0  0  0  0
    2.3219    2.2663   -1.9060 C   0  0  0  0  0  0  0  0  0  0  0  0
    1.0596    2.1675   -1.0085 C   0  0  1  0  0  0  0  0  0  0  0  0
   -0.0564    2.5120   -1.8494 O   0  0  0  0  0  0  0  0  0  0  0  0
    1.1524    3.2148    0.1644 C   0  0  1  0  0  0  0  0  0  0  0  0
    1.0660    4.5289   -0.4753 O   0  0  0  0  0  0  0  0  0  0  0  0
    2.0426    5.4330   -0.1864 C   0  0  0  0  0  0  0  0  0  0  0  0
    1.7832    6.7232   -0.9071 C   0  0  0  0  0  0  0  0  0  0  0  0
    2.9825    5.2391    0.5678 O   0  0  0  0  0  0  0  0  0  0  0  0
    0.0800    3.1438    1.3021 C   0  0  1  0  0  0  0  0  0  0  0  0
    0.0282    4.4229    2.1436 C   0  0  0  0  0  0  0  0  0  0  0  0
   -1.3177    2.8076    0.8314 C   0  0  0  0  0  0  0  0  0  0  0  0
   -2.1419    2.0186    1.5424 C   0  0  0  0  0  0  0  0  0  0  0  0
   -3.3892    1.3314    0.9963 C   0  0  0  0  0  0  0  0  0  0  0  0
   -4.2286    2.2891    0.1144 C   0  0  0  0  0  0  0  0  0  0  0  0
   -4.2881    0.9375    2.1871 C   0  0  0  0  0  0  0  0  0  0  0  0
   -2.9278    0.0858    0.1386 C   0  0  2  0  0  0  0  0  0  0  0  0
   -4.0813   -0.7242   -0.2227 O   0  0  0  0  0  0  0  0  0  0  0  0
   -4.5911   -0.5885   -1.4742 C   0  0  0  0  0  0  0  0  0  0  0  0
   -5.7809   -1.4857   -1.6325 C   0  0  0  0  0  0  0  0  0  0  0  0
   -4.1629    0.1520   -2.3487 O   0  0  0  0  0  0  0  0  0  0  0  0
   -3.0702   -3.6342    3.5511 H   0  0  0  0  0  0  0  0  0  0  0  0
   -2.4942   -2.6883    4.9400 H   0  0  0  0  0  0  0  0  0  0  0  0
   -3.8864   -2.1095    4.0197 H   0  0  0  0  0  0  0  0  0  0  0  0
   -1.1356   -0.2491    1.3644 H   0  0  0  0  0  0  0  0  0  0  0  0
   -1.8503   -2.6212   -0.3692 H   0  0  0  0  0  0  0  0  0  0  0  0
    1.4928   -4.8866    1.3187 H   0  0  0  0  0  0  0  0  0  0  0  0
    1.8294   -3.2272    1.8714 H   0  0  0  0  0  0  0  0  0  0  0  0
    0.8609   -4.2948    2.8904 H   0  0  0  0  0  0  0  0  0  0  0  0
   -0.9313   -1.3892   -3.5690 H   0  0  0  0  0  0  0  0  0  0  0  0
   -2.2271   -2.0490   -2.5913 H   0  0  0  0  0  0  0  0  0  0  0  0
   -0.6962   -2.9285   -2.7304 H   0  0  0  0  0  0  0  0  0  0  0  0
    0.5141    0.0433   -2.6296 H   0  0  0  0  0  0  0  0  0  0  0  0
    0.5219    0.5494    0.3854 H   0  0  0  0  0  0  0  0  0  0  0  0
    2.8281    0.7091    0.5293 H   0  0  0  0  0  0  0  0  0  0  0  0
    2.2506   -3.2489   -1.4384 H   0  0  0  0  0  0  0  0  0  0  0  0
    2.5931   -5.6620   -1.8083 H   0  0  0  0  0  0  0  0  0  0  0  0
    4.6140   -6.7893   -0.9159 H   0  0  0  0  0  0  0  0  0  0  0  0
    6.3140   -5.4875    0.3389 H   0  0  0  0  0  0  0  0  0  0  0  0
    5.9914   -3.0648    0.7143 H   0  0  0  0  0  0  0  0  0  0  0  0
    4.1779    1.4370   -1.1827 H   0  0  0  0  0  0  0  0  0  0  0  0
    2.6598   -0.2362   -3.2486 H   0  0  0  0  0  0  0  0  0  0  0  0
    3.9814    0.8963   -3.6029 H   0  0  0  0  0  0  0  0  0  0  0  0
    4.2901   -0.5317   -2.6109 H   0  0  0  0  0  0  0  0  0  0  0  0
    2.0625    2.3001   -2.9769 H   0  0  0  0  0  0  0  0  0  0  0  0
    2.8869    3.1906   -1.7112 H   0  0  0  0  0  0  0  0  0  0  0  0
   -0.0352    3.4850   -1.9566 H   0  0  0  0  0  0  0  0  0  0  0  0
    2.1333    3.0925    0.6448 H   0  0  0  0  0  0  0  0  0  0  0  0
    0.9248    7.2314   -0.4606 H   0  0  0  0  0  0  0  0  0  0  0  0
    2.6608    7.3750   -0.8239 H   0  0  0  0  0  0  0  0  0  0  0  0
    1.5948    6.5214   -1.9636 H   0  0  0  0  0  0  0  0  0  0  0  0
    0.4090    2.3329    1.9690 H   0  0  0  0  0  0  0  0  0  0  0  0
    1.0272    4.6954    2.5088 H   0  0  0  0  0  0  0  0  0  0  0  0
   -0.3726    5.2690    1.5742 H   0  0  0  0  0  0  0  0  0  0  0  0
   -0.6125    4.2889    3.0241 H   0  0  0  0  0  0  0  0  0  0  0  0
   -1.6046    3.1241   -0.1720 H   0  0  0  0  0  0  0  0  0  0  0  0
   -1.8227    1.7047    2.5403 H   0  0  0  0  0  0  0  0  0  0  0  0
   -5.2050    1.8533   -0.1360 H   0  0  0  0  0  0  0  0  0  0  0  0
   -4.4160    3.2392    0.6283 H   0  0  0  0  0  0  0  0  0  0  0  0
   -3.7248    2.5328   -0.8284 H   0  0  0  0  0  0  0  0  0  0  0  0
   -3.7436    0.3792    2.9549 H   0  0  0  0  0  0  0  0  0  0  0  0
   -5.1362    0.3223    1.8654 H   0  0  0  0  0  0  0  0  0  0  0  0
   -4.7000    1.8276    2.6801 H   0  0  0  0  0  0  0  0  0  0  0  0
   -2.4532    0.4850   -0.7628 H   0  0  0  0  0  0  0  0  0  0  0  0
   -5.4773   -2.5270   -1.4966 H   0  0  0  0  0  0  0  0  0  0  0  0
   -6.5517   -1.2127   -0.9030 H   0  0  0  0  0  0  0  0  0  0  0  0
   -6.1939   -1.3617   -2.6415 H   0  0  0  0  0  0  0  0  0  0  0  0
  1  2  1  0
  2  3  2  0
  2  4  1  0
  4  5  1  0
  5  6  1  0
  6  7  1  0
  7  8  1  0
  8  9  1  0
  8 10  2  0
  6 11  1  0
 11 12  1  0
 11 13  2  0
 13 14  1  0
 14 15  1  0
 15 16  1  0
 16 17  1  0
 17 18  2  0
 17 19  1  0
 19 20  2  0
 20 21  1  0
 21 22  2  0
 22 23  1  0
 23 24  2  0
 15 25  1  0
 25 26  1  0
 25 27  1  0
 27 28  1  0
 28 29  1  6
 28 30  1  0
 30 31  1  0
 31 32  1  0
 32 33  1  0
 32 34  2  0
 30 35  1  0
 35 36  1  0
 35 37  1  0
 37 38  2  0
 38 39  1  0
 39 40  1  0
 39 41  1  0
 39 42  1  0
 42 43  1  0
 43 44  1  0
 44 45  1  0
 44 46  2  0
 42  5  1  0
 28 14  1  0
 24 19  1  0
  1 47  1  0
  1 48  1  0
  1 49  1  0
  5 50  1  1
  6 51  1  6
  9 52  1  0
  9 53  1  0
  9 54  1  0
 12 55  1  0
 12 56  1  0
 12 57  1  0
 13 58  1  0
 14 59  1  1
 15 60  1  1
 20 61  1  0
 21 62  1  0
 22 63  1  0
 23 64  1  0
 24 65  1  0
 25 66  1  1
 26 67  1  0
 26 68  1  0
 26 69  1  0
 27 70  1  0
 27 71  1  0
 29 72  1  0
 30 73  1  1
 33 74  1  0
 33 75  1  0
 33 76  1  0
 35 77  1  1
 36 78  1  0
 36 79  1  0
 36 80  1  0
 37 81  1  0
 38 82  1  0
 40 83  1  0
 40 84  1  0
 40 85  1  0
 41 86  1  0
 41 87  1  0
 41 88  1  0
 42 89  1  6
 45 90  1  0
 45 91  1  0
 45 92  1  0
M  END
$$$$
