
     RDKit          3D

 54 57  0  0  0  0  0  0  0  0999 V2000
   -3.6798   -5.8604    0.5560 C   0  0  0  0  0  0  0  0  0  0  0  0
   -2.9370   -5.0661   -0.3604 O   0  0  0  0  0  0  0  0  0  0  0  0
   -2.7414   -3.7541   -0.0276 C   0  0  0  0  0  0  0  0  0  0  0  0
   -2.0534   -3.0067   -0.9904 C   0  0  0  0  0  0  0  0  0  0  0  0
   -1.7814   -1.6540   -0.7814 C   0  0  0  0  0  0  0  0  0  0  0  0
   -2.1827   -1.0535    0.4117 C   0  0  0  0  0  0  0  0  0  0  0  0
   -1.9095    0.3844    0.6246 C   0  0  0  0  0  0  0  0  0  0  0  0
   -2.6064    1.2230   -0.0743 N   0  0  0  0  0  0  0  0  0  0  0  0
   -2.3851    2.5914    0.1009 C   0  0  0  0  0  0  0  0  0  0  0  0
   -3.1227    3.4967   -0.6663 C   0  0  0  0  0  0  0  0  0  0  0  0
   -2.9360    4.8742   -0.5197 C   0  0  0  0  0  0  0  0  0  0  0  0
   -2.0065    5.3584    0.3998 C   0  0  0  0  0  0  0  0  0  0  0  0
   -1.2652    4.4641    1.1709 C   0  0  0  0  0  0  0  0  0  0  0  0
   -1.4614    3.0858    1.0150 C   0  0  0  0  0  0  0  0  0  0  0  0
   -0.6908    2.1131    1.8067 C   0  0  0  0  0  0  0  0  0  0  0  0
    0.1060    2.5290    2.6454 O   0  0  0  0  0  0  0  0  0  0  0  0
   -0.9387    0.7621    1.5506 N   0  0  0  0  0  0  0  0  0  0  0  0
   -0.0477   -0.2000    2.2238 C   0  0  0  0  0  0  0  0  0  0  0  0
    1.1263   -0.6358    1.3353 C   0  0  0  0  0  0  0  0  0  0  0  0
    1.9604    0.4914    1.0730 O   0  0  0  0  0  0  0  0  0  0  0  0
    2.8776    0.3704    0.0636 C   0  0  0  0  0  0  0  0  0  0  0  0
    3.3428   -0.8489   -0.4413 C   0  0  0  0  0  0  0  0  0  0  0  0
    4.2944   -0.8817   -1.4711 C   0  0  0  0  0  0  0  0  0  0  0  0
    4.7613   -2.1926   -2.0316 C   0  0  0  0  0  0  0  0  0  0  0  0
    4.7627    0.3220   -2.0049 C   0  0  0  0  0  0  0  0  0  0  0  0
    4.3132    1.5410   -1.4963 C   0  0  0  0  0  0  0  0  0  0  0  0
    3.3776    1.5769   -0.4537 C   0  0  0  0  0  0  0  0  0  0  0  0
    2.8954    2.8991    0.0768 C   0  0  0  0  0  0  0  0  0  0  0  0
   -2.8944   -1.7802    1.3693 C   0  0  0  0  0  0  0  0  0  0  0  0
   -3.1656   -3.1348    1.1512 C   0  0  0  0  0  0  0  0  0  0  0  0
   -3.1603   -5.9428    1.5164 H   0  0  0  0  0  0  0  0  0  0  0  0
   -4.6942   -5.4693    0.6865 H   0  0  0  0  0  0  0  0  0  0  0  0
   -3.7627   -6.8670    0.1350 H   0  0  0  0  0  0  0  0  0  0  0  0
   -1.7377   -3.4825   -1.9162 H   0  0  0  0  0  0  0  0  0  0  0  0
   -1.2642   -1.0763   -1.5434 H   0  0  0  0  0  0  0  0  0  0  0  0
   -3.8482    3.1207   -1.3833 H   0  0  0  0  0  0  0  0  0  0  0  0
   -3.5170    5.5663   -1.1243 H   0  0  0  0  0  0  0  0  0  0  0  0
   -1.8589    6.4293    0.5152 H   0  0  0  0  0  0  0  0  0  0  0  0
   -0.5373    4.8366    1.8879 H   0  0  0  0  0  0  0  0  0  0  0  0
    0.3466    0.2503    3.1418 H   0  0  0  0  0  0  0  0  0  0  0  0
   -0.6173   -1.0812    2.5276 H   0  0  0  0  0  0  0  0  0  0  0  0
    1.7074   -1.3947    1.8719 H   0  0  0  0  0  0  0  0  0  0  0  0
    0.7503   -1.0604    0.3991 H   0  0  0  0  0  0  0  0  0  0  0  0
    2.9876   -1.7915   -0.0375 H   0  0  0  0  0  0  0  0  0  0  0  0
    4.7748   -2.9659   -1.2563 H   0  0  0  0  0  0  0  0  0  0  0  0
    5.7802   -2.1099   -2.4244 H   0  0  0  0  0  0  0  0  0  0  0  0
    4.0957   -2.5120   -2.8394 H   0  0  0  0  0  0  0  0  0  0  0  0
    5.4858    0.3201   -2.8173 H   0  0  0  0  0  0  0  0  0  0  0  0
    4.6976    2.4656   -1.9206 H   0  0  0  0  0  0  0  0  0  0  0  0
    3.4498    3.7340   -0.3644 H   0  0  0  0  0  0  0  0  0  0  0  0
    3.0351    2.9509    1.1614 H   0  0  0  0  0  0  0  0  0  0  0  0
    1.8358    3.0363   -0.1611 H   0  0  0  0  0  0  0  0  0  0  0  0
   -3.2449   -1.2960    2.2774 H   0  0  0  0  0  0  0  0  0  0  0  0
   -3.7162   -3.6745    1.9146 H   0  0  0  0  0  0  0  0  0  0  0  0
  1  2  1  0
  2  3  1  0
  3  4  2  0
  4  5  1  0
  5  6  2  0
  6  7  1  0
  7  8  2  0
  8  9  1  0
  9 10  2  0
 10 11  1  0
 11 12  2  0
 12 13  1  0
 13 14  2  0
 14 15  1  0
 15 16  2  0
 15 17  1  0
 17 18  1  0
 18 19  1  0
 19 20  1  0
 20 21  1  0
 21 22  2  0
 22 23  1  0
 23 24  1  0
 23 25  2  0
 25 26  1  0
 26 27  2  0
 27 28  1  0
  6 29  1  0
 29 30  2  0
 30  3  1  0
 17  7  1  0
 27 21  1  0
 14  9  1  0
  1 31  1  0
  1 32  1  0
  1 33  1  0
  4 34  1  0
  5 35  1  0
 10 36  1  0
 11 37  1  0
 12 38  1  0
 13 39  1  0
 18 40  1  0
 18 41  1  0
 19 42  1  0
 19 43  1  0
 22 44  1  0
 24 45  1  0
 24 46  1  0
 24 47  1  0
 25 48  1  0
 26 49  1  0
 28 50  1  0
 28 51  1  0
 28 52  1  0
 29 53  1  0
 30 54  1  0
M  END
$$$$
