
     RDKit          3D

 59 64  0  0  0  0  0  0  0  0999 V2000
    3.7352    0.6661    2.3198 O   0  0  0  0  0  0  0  0  0  0  0  0
    3.3524    0.8594    1.1701 C   0  0  0  0  0  0  0  0  0  0  0  0
    4.0455    1.8542    0.3229 C   0  0  0  0  0  0  0  0  0  0  0  0
    5.3188    1.8089   -0.0987 C   0  0  0  0  0  0  0  0  0  0  0  0
    6.2615    0.7613    0.1278 C   0  0  0  0  0  0  0  0  0  0  0  0
    6.1257   -0.5484    0.5625 C   0  0  0  0  0  0  0  0  0  0  0  0
    7.3652   -1.2518    0.6487 C   0  0  0  0  0  0  0  0  0  0  0  0
    8.4271   -0.4719    0.2582 C   0  0  0  0  0  0  0  0  0  0  0  0
    7.9320    1.0914   -0.2112 S   0  0  0  0  0  0  0  0  0  0  0  0
    2.2488    0.2355    0.6065 N   0  0  0  0  0  0  0  0  0  0  0  0
    1.5791   -0.8069    1.3751 C   0  0  0  0  0  0  0  0  0  0  0  0
    0.0622   -0.6792    1.2599 C   0  0  0  0  0  0  0  0  0  0  0  0
   -0.4154   -0.6476   -0.2134 C   0  0  0  0  0  0  0  0  0  0  0  0
    0.3844    0.4391   -0.9835 C   0  0  0  0  0  0  0  0  0  0  0  0
    1.8942    0.2815   -0.8117 C   0  0  0  0  0  0  0  0  0  0  0  0
   -0.0228   -1.8890   -0.8572 O   0  0  0  0  0  0  0  0  0  0  0  0
   -0.8412   -2.9697   -0.7175 C   0  0  0  0  0  0  0  0  0  0  0  0
   -0.3124   -4.1939   -1.1328 C   0  0  0  0  0  0  0  0  0  0  0  0
   -1.0694   -5.3606   -1.0068 C   0  0  0  0  0  0  0  0  0  0  0  0
   -2.3503   -5.2940   -0.4670 C   0  0  0  0  0  0  0  0  0  0  0  0
   -3.0705   -6.4164   -0.3436 F   0  0  0  0  0  0  0  0  0  0  0  0
   -2.8937   -4.0829   -0.0600 C   0  0  0  0  0  0  0  0  0  0  0  0
   -2.1331   -2.9192   -0.2013 C   0  0  0  0  0  0  0  0  0  0  0  0
   -2.6816   -1.6169    0.2007 C   0  0  0  0  0  0  0  0  0  0  0  0
   -3.6650   -1.5731    0.9368 O   0  0  0  0  0  0  0  0  0  0  0  0
   -1.9468   -0.3933   -0.3313 C   0  0  0  0  0  0  0  0  0  0  0  0
   -2.4494    0.8840    0.3298 C   0  0  0  0  0  0  0  0  0  0  0  0
   -3.3156    1.4041   -0.7632 C   0  0  0  0  0  0  0  0  0  0  0  0
   -4.1939    2.5838   -0.5735 C   0  0  0  0  0  0  0  0  0  0  0  0
   -4.2936    3.2371    0.6619 C   0  0  0  0  0  0  0  0  0  0  0  0
   -5.1249    4.3531    0.7984 C   0  0  0  0  0  0  0  0  0  0  0  0
   -5.8545    4.8213   -0.2938 C   0  0  0  0  0  0  0  0  0  0  0  0
   -5.7582    4.1756   -1.5261 C   0  0  0  0  0  0  0  0  0  0  0  0
   -4.9314    3.0593   -1.6665 C   0  0  0  0  0  0  0  0  0  0  0  0
   -3.2109    0.7781   -1.8912 N   0  0  0  0  0  0  0  0  0  0  0  0
   -2.2971   -0.2799   -1.7216 O   0  0  0  0  0  0  0  0  0  0  0  0
    3.4348    2.7173    0.0773 H   0  0  0  0  0  0  0  0  0  0  0  0
    5.6681    2.6677   -0.6726 H   0  0  0  0  0  0  0  0  0  0  0  0
    5.1791   -1.0028    0.8245 H   0  0  0  0  0  0  0  0  0  0  0  0
    7.4651   -2.2789    0.9766 H   0  0  0  0  0  0  0  0  0  0  0  0
    9.4734   -0.7441    0.2260 H   0  0  0  0  0  0  0  0  0  0  0  0
    1.8624   -0.7596    2.4322 H   0  0  0  0  0  0  0  0  0  0  0  0
    1.9242   -1.7756    0.9946 H   0  0  0  0  0  0  0  0  0  0  0  0
   -0.2453    0.2388    1.7749 H   0  0  0  0  0  0  0  0  0  0  0  0
   -0.3889   -1.5196    1.7998 H   0  0  0  0  0  0  0  0  0  0  0  0
    0.1071    1.4417   -0.6409 H   0  0  0  0  0  0  0  0  0  0  0  0
    0.1627    0.3858   -2.0566 H   0  0  0  0  0  0  0  0  0  0  0  0
    2.3958    1.1029   -1.3294 H   0  0  0  0  0  0  0  0  0  0  0  0
    2.2525   -0.6473   -1.2722 H   0  0  0  0  0  0  0  0  0  0  0  0
    0.6905   -4.2418   -1.5515 H   0  0  0  0  0  0  0  0  0  0  0  0
   -0.6685   -6.3193   -1.3234 H   0  0  0  0  0  0  0  0  0  0  0  0
   -3.8990   -4.0536    0.3504 H   0  0  0  0  0  0  0  0  0  0  0  0
   -1.6662    1.6206    0.5248 H   0  0  0  0  0  0  0  0  0  0  0  0
   -3.0060    0.7197    1.2550 H   0  0  0  0  0  0  0  0  0  0  0  0
   -3.7419    2.8985    1.5342 H   0  0  0  0  0  0  0  0  0  0  0  0
   -5.2054    4.8579    1.7594 H   0  0  0  0  0  0  0  0  0  0  0  0
   -6.5008    5.6893   -0.1859 H   0  0  0  0  0  0  0  0  0  0  0  0
   -6.3269    4.5393   -2.3798 H   0  0  0  0  0  0  0  0  0  0  0  0
   -4.8676    2.5641   -2.6347 H   0  0  0  0  0  0  0  0  0  0  0  0
  1  2  2  0
  2  3  1  0
  3  4  2  3
  4  5  1  0
  5  6  2  0
  6  7  1  0
  7  8  2  0
  8  9  1  0
  2 10  1  0
 10 11  1  0
 11 12  1  0
 12 13  1  0
 13 14  1  0
 14 15  1  0
 13 16  1  0
 16 17  1  0
 17 18  2  0
 18 19  1  0
 19 20  2  0
 20 21  1  0
 20 22  1  0
 22 23  2  0
 23 24  1  0
 24 25  2  0
 24 26  1  0
 26 27  1  0
 27 28  1  0
 28 29  1  0
 29 30  2  0
 30 31  1  0
 31 32  2  0
 32 33  1  0
 33 34  2  0
 28 35  2  0
 35 36  1  0
  9  5  1  0
 15 10  1  0
 23 17  1  0
 36 26  1  0
 26 13  1  0
 34 29  1  0
  3 37  1  0
  4 38  1  0
  6 39  1  0
  7 40  1  0
  8 41  1  0
 11 42  1  0
 11 43  1  0
 12 44  1  0
 12 45  1  0
 14 46  1  0
 14 47  1  0
 15 48  1  0
 15 49  1  0
 18 50  1  0
 19 51  1  0
 22 52  1  0
 27 53  1  0
 27 54  1  0
 30 55  1  0
 31 56  1  0
 32 57  1  0
 33 58  1  0
 34 59  1  0
M  END
$$$$
