
     RDKit          3D

 57 60  0  0  0  0  0  0  0  0999 V2000
   -8.1256    2.1523    0.4339 C   0  0  0  0  0  0  0  0  0  0  0  0
   -7.2948    1.5059    1.3921 O   0  0  0  0  0  0  0  0  0  0  0  0
   -6.2096    0.8263    0.9095 C   0  0  0  0  0  0  0  0  0  0  0  0
   -5.9126    0.6059   -0.4352 C   0  0  0  0  0  0  0  0  0  0  0  0
   -4.7636   -0.1086   -0.7989 C   0  0  0  0  0  0  0  0  0  0  0  0
   -3.9065   -0.6098    0.1821 C   0  0  0  0  0  0  0  0  0  0  0  0
   -2.7222   -1.3267   -0.1035 N   0  0  0  0  0  0  0  0  0  0  0  0
   -2.2417   -1.7389   -1.3313 C   0  0  0  0  0  0  0  0  0  0  0  0
   -2.7961   -1.5834   -2.4200 O   0  0  0  0  0  0  0  0  0  0  0  0
   -0.9056   -2.4518   -1.2374 C   0  0  0  0  0  0  0  0  0  0  0  0
    0.2052   -1.5113   -1.2501 N   0  0  0  0  0  0  0  0  0  0  0  0
    0.8948   -1.1117   -0.1330 C   0  0  0  0  0  0  0  0  0  0  0  0
    1.8833   -0.2378   -0.5443 C   0  0  0  0  0  0  0  0  0  0  0  0
    3.0529    0.5355    0.4734 S   0  0  0  0  0  6  0  0  0  0  0  0
    3.0874    1.9013   -0.0042 O   0  0  0  0  0  0  0  0  0  0  0  0
    2.6357    0.1897    1.8171 O   0  0  0  0  0  0  0  0  0  0  0  0
    4.5622   -0.3274    0.0535 C   0  0  0  0  0  0  0  0  0  0  0  0
    5.7160    0.3047    0.7884 C   0  0  0  0  0  0  0  0  0  0  0  0
    6.0764   -0.1357    2.0693 C   0  0  0  0  0  0  0  0  0  0  0  0
    7.1489    0.4518    2.7450 C   0  0  0  0  0  0  0  0  0  0  0  0
    7.8670    1.4871    2.1503 C   0  0  0  0  0  0  0  0  0  0  0  0
    7.5117    1.9405    0.8817 C   0  0  0  0  0  0  0  0  0  0  0  0
    6.4416    1.3525    0.2028 C   0  0  0  0  0  0  0  0  0  0  0  0
    1.8026   -0.1087   -1.9620 C   0  0  0  0  0  0  0  0  0  0  0  0
    2.5189    0.6196   -2.9388 C   0  0  0  0  0  0  0  0  0  0  0  0
    2.1760    0.4987   -4.2898 C   0  0  0  0  0  0  0  0  0  0  0  0
    1.1252   -0.3218   -4.6823 C   0  0  0  0  0  0  0  0  0  0  0  0
    0.3888   -1.0412   -3.7375 C   0  0  0  0  0  0  0  0  0  0  0  0
    0.7470   -0.9280   -2.3817 C   0  0  0  0  0  0  0  0  0  0  0  0
   -4.2063   -0.3939    1.5456 C   0  0  0  0  0  0  0  0  0  0  0  0
   -3.3102   -0.9386    2.4385 O   0  0  0  0  0  0  0  0  0  0  0  0
   -3.6058   -0.7887    3.8204 C   0  0  0  0  0  0  0  0  0  0  0  0
   -5.3548    0.3211    1.8962 C   0  0  0  0  0  0  0  0  0  0  0  0
   -7.5545    2.8788   -0.1581 H   0  0  0  0  0  0  0  0  0  0  0  0
   -8.9014    2.7033    0.9820 H   0  0  0  0  0  0  0  0  0  0  0  0
   -8.6272    1.4189   -0.2093 H   0  0  0  0  0  0  0  0  0  0  0  0
   -6.5508    0.9733   -1.2329 H   0  0  0  0  0  0  0  0  0  0  0  0
   -4.5607   -0.2455   -1.8578 H   0  0  0  0  0  0  0  0  0  0  0  0
   -2.1983   -1.5650    0.7339 H   0  0  0  0  0  0  0  0  0  0  0  0
   -0.8475   -3.0496   -0.3203 H   0  0  0  0  0  0  0  0  0  0  0  0
   -0.7903   -3.1405   -2.0818 H   0  0  0  0  0  0  0  0  0  0  0  0
    0.6342   -1.4601    0.8616 H   0  0  0  0  0  0  0  0  0  0  0  0
    4.7178   -0.2678   -1.0287 H   0  0  0  0  0  0  0  0  0  0  0  0
    4.4445   -1.3804    0.3321 H   0  0  0  0  0  0  0  0  0  0  0  0
    5.5203   -0.9342    2.5565 H   0  0  0  0  0  0  0  0  0  0  0  0
    7.4204    0.1030    3.7387 H   0  0  0  0  0  0  0  0  0  0  0  0
    8.6979    1.9463    2.6816 H   0  0  0  0  0  0  0  0  0  0  0  0
    8.0646    2.7560    0.4222 H   0  0  0  0  0  0  0  0  0  0  0  0
    6.1719    1.7281   -0.7826 H   0  0  0  0  0  0  0  0  0  0  0  0
    3.3252    1.2905   -2.6535 H   0  0  0  0  0  0  0  0  0  0  0  0
    2.7286    1.0598   -5.0374 H   0  0  0  0  0  0  0  0  0  0  0  0
    0.8612   -0.3948   -5.7364 H   0  0  0  0  0  0  0  0  0  0  0  0
   -0.4453   -1.6590   -4.0567 H   0  0  0  0  0  0  0  0  0  0  0  0
   -3.5738    0.2628    4.1189 H   0  0  0  0  0  0  0  0  0  0  0  0
   -2.8347   -1.3214    4.3843 H   0  0  0  0  0  0  0  0  0  0  0  0
   -4.5720   -1.2411    4.0725 H   0  0  0  0  0  0  0  0  0  0  0  0
   -5.6166    0.5098    2.9330 H   0  0  0  0  0  0  0  0  0  0  0  0
  1  2  1  0
  2  3  1  0
  3  4  2  0
  4  5  1  0
  5  6  2  0
  6  7  1  0
  7  8  1  0
  8  9  2  0
  8 10  1  0
 10 11  1  0
 11 12  1  0
 12 13  2  0
 13 14  1  0
 14 15  2  0
 14 16  2  0
 14 17  1  0
 17 18  1  0
 18 19  2  0
 19 20  1  0
 20 21  2  0
 21 22  1  0
 22 23  2  0
 13 24  1  0
 24 25  2  0
 25 26  1  0
 26 27  2  0
 27 28  1  0
 28 29  2  0
  6 30  1  0
 30 31  1  0
 31 32  1  0
 30 33  2  0
 33  3  1  0
 29 11  1  0
 23 18  1  0
 29 24  1  0
  1 34  1  0
  1 35  1  0
  1 36  1  0
  4 37  1  0
  5 38  1  0
  7 39  1  0
 10 40  1  0
 10 41  1  0
 12 42  1  0
 17 43  1  0
 17 44  1  0
 19 45  1  0
 20 46  1  0
 21 47  1  0
 22 48  1  0
 23 49  1  0
 25 50  1  0
 26 51  1  0
 27 52  1  0
 28 53  1  0
 32 54  1  0
 32 55  1  0
 32 56  1  0
 33 57  1  0
M  END
$$$$
