
     RDKit          3D

 36 37  0  0  0  0  0  0  0  0999 V2000
    7.6500    0.3645    0.5440 C   0  0  0  0  0  0  0  0  0  0  0  0
    6.2005    0.7819    0.5702 C   0  0  0  0  0  0  0  0  0  0  0  0
    5.8841    1.9296    0.8618 O   0  0  0  0  0  0  0  0  0  0  0  0
    5.3476   -0.2648    0.2691 N   0  0  0  0  0  0  0  0  0  0  0  0
    3.9399   -0.2317    0.2000 C   0  0  0  0  0  0  0  0  0  0  0  0
    3.2860   -1.4340   -0.0974 C   0  0  0  0  0  0  0  0  0  0  0  0
    1.8909   -1.4857   -0.1836 C   0  0  0  0  0  0  0  0  0  0  0  0
    1.1278   -0.3343    0.0349 C   0  0  0  0  0  0  0  0  0  0  0  0
   -0.3567   -0.4325   -0.0677 C   0  0  0  0  0  0  0  0  0  0  0  0
   -0.8437   -1.3007   -0.7858 O   0  0  0  0  0  0  0  0  0  0  0  0
   -1.0625    0.4740    0.7180 N   0  0  0  0  0  0  0  0  0  0  0  0
   -2.4239    0.4724    0.8906 N   0  0  0  0  0  0  0  0  0  0  0  0
   -3.1630    0.1717   -0.1306 C   0  0  0  0  0  0  0  0  0  0  0  0
   -4.6353    0.0974   -0.0254 C   0  0  0  0  0  0  0  0  0  0  0  0
   -5.3743   -0.2388   -1.1660 C   0  0  0  0  0  0  0  0  0  0  0  0
   -6.7665   -0.3139   -1.0899 C   0  0  0  0  0  0  0  0  0  0  0  0
   -7.4040   -0.0542    0.1196 C   0  0  0  0  0  0  0  0  0  0  0  0
   -8.7395   -0.1270    0.1885 F   0  0  0  0  0  0  0  0  0  0  0  0
   -6.6771    0.2790    1.2579 C   0  0  0  0  0  0  0  0  0  0  0  0
   -5.2850    0.3554    1.1879 C   0  0  0  0  0  0  0  0  0  0  0  0
    1.7767    0.8733    0.3136 C   0  0  0  0  0  0  0  0  0  0  0  0
    3.1747    0.9196    0.3991 C   0  0  0  0  0  0  0  0  0  0  0  0
    7.9187   -0.0704    1.5102 H   0  0  0  0  0  0  0  0  0  0  0  0
    8.2763    1.2405    0.3521 H   0  0  0  0  0  0  0  0  0  0  0  0
    7.8343   -0.3636   -0.2512 H   0  0  0  0  0  0  0  0  0  0  0  0
    5.7784   -1.1634    0.0902 H   0  0  0  0  0  0  0  0  0  0  0  0
    3.8478   -2.3489   -0.2682 H   0  0  0  0  0  0  0  0  0  0  0  0
    1.4010   -2.4290   -0.4191 H   0  0  0  0  0  0  0  0  0  0  0  0
   -0.5697    0.9016    1.4963 H   0  0  0  0  0  0  0  0  0  0  0  0
   -2.7451   -0.0148   -1.1348 H   0  0  0  0  0  0  0  0  0  0  0  0
   -4.8776   -0.4466   -2.1105 H   0  0  0  0  0  0  0  0  0  0  0  0
   -7.3572   -0.5743   -1.9626 H   0  0  0  0  0  0  0  0  0  0  0  0
   -7.1966    0.4756    2.1904 H   0  0  0  0  0  0  0  0  0  0  0  0
   -4.7138    0.6135    2.0764 H   0  0  0  0  0  0  0  0  0  0  0  0
    1.2211    1.7989    0.4411 H   0  0  0  0  0  0  0  0  0  0  0  0
    3.6358    1.8796    0.6127 H   0  0  0  0  0  0  0  0  0  0  0  0
  1  2  1  0
  2  3  2  0
  2  4  1  0
  4  5  1  0
  5  6  2  0
  6  7  1  0
  7  8  2  0
  8  9  1  0
  9 10  2  0
  9 11  1  0
 11 12  1  0
 12 13  2  3
 13 14  1  0
 14 15  2  0
 15 16  1  0
 16 17  2  0
 17 18  1  0
 17 19  1  0
 19 20  2  0
  8 21  1  0
 21 22  2  0
 22  5  1  0
 20 14  1  0
  1 23  1  0
  1 24  1  0
  1 25  1  0
  4 26  1  0
  6 27  1  0
  7 28  1  0
 11 29  1  0
 13 30  1  0
 15 31  1  0
 16 32  1  0
 19 33  1  0
 20 34  1  0
 21 35  1  0
 22 36  1  0
M  END
$$$$
