
     RDKit          3D

 67 72  0  0  0  0  0  0  0  0999 V2000
   -4.2277   -4.6347    1.6897 C   0  0  0  0  0  0  0  0  0  0  0  0
   -3.4191   -3.3903    1.9005 C   0  0  0  0  0  0  0  0  0  0  0  0
   -3.2854   -2.8044    3.1744 C   0  0  0  0  0  0  0  0  0  0  0  0
   -4.0527   -3.4959    4.5639 Cl  0  0  0  0  0  0  0  0  0  0  0  0
   -2.5180   -1.6397    3.3775 C   0  0  0  0  0  0  0  0  0  0  0  0
   -1.8611   -1.0221    2.3135 C   0  0  0  0  0  0  0  0  0  0  0  0
   -1.9897   -1.5866    1.0554 C   0  0  0  0  0  0  0  0  0  0  0  0
   -2.7476   -2.7528    0.8643 C   0  0  0  0  0  0  0  0  0  0  0  0
   -2.6894   -3.1345   -0.4771 N   0  0  0  0  0  0  0  0  0  0  0  0
   -1.9104   -2.2558   -1.2339 C   0  0  0  0  0  0  0  0  0  0  0  0
   -1.6720   -2.3820   -2.4265 O   0  0  0  0  0  0  0  0  0  0  0  0
   -1.4077   -1.1639   -0.2598 C   0  0  1  0  0  0  0  0  0  0  0  0
   -1.8896    0.1954   -0.6089 C   0  0  0  0  0  0  0  0  0  0  0  0
   -0.8420    0.9691   -1.1352 C   0  0  0  0  0  0  0  0  0  0  0  0
   -1.3299    2.2052   -1.4670 C   0  0  0  0  0  0  0  0  0  0  0  0
   -0.7076    3.2661   -1.9731 O   0  0  0  0  0  0  0  0  0  0  0  0
   -2.6931    2.2222   -1.1035 N   0  0  0  0  0  0  0  0  0  0  0  0
   -3.5693    3.3552   -1.1436 C   0  0  0  0  0  0  0  0  0  0  0  0
   -4.5983    3.4805   -0.1937 C   0  0  0  0  0  0  0  0  0  0  0  0
   -5.4564    4.5828   -0.2260 C   0  0  0  0  0  0  0  0  0  0  0  0
   -5.2842    5.5589   -1.1990 C   0  0  0  0  0  0  0  0  0  0  0  0
   -6.1084    6.6139   -1.2289 F   0  0  0  0  0  0  0  0  0  0  0  0
   -4.2653    5.4584   -2.1372 C   0  0  0  0  0  0  0  0  0  0  0  0
   -3.4023    4.3591   -2.1088 C   0  0  0  0  0  0  0  0  0  0  0  0
   -3.0442    0.9263   -0.6691 C   0  0  0  0  0  0  0  0  0  0  0  0
   -4.2882    0.5135   -0.4302 O   0  0  0  0  0  0  0  0  0  0  0  0
    0.3991    0.1649   -1.1970 C   0  0  1  0  0  0  0  0  0  0  0  0
    1.6946    0.8006   -0.6975 C   0  0  0  0  0  0  0  0  0  0  0  0
    2.7379   -0.1980   -0.4134 N   0  0  0  0  0  0  0  0  0  0  0  0
    4.0048    0.2611   -0.1112 C   0  0  0  0  0  0  0  0  0  0  0  0
    4.2721    1.4496    0.0146 O   0  0  0  0  0  0  0  0  0  0  0  0
    4.9014   -0.7494    0.0124 O   0  0  0  0  0  0  0  0  0  0  0  0
    6.2927   -0.4832    0.3242 C   0  0  0  0  0  0  0  0  0  0  0  0
    6.4402    0.1804    1.6978 C   0  0  0  0  0  0  0  0  0  0  0  0
    6.9499   -1.8711    0.3778 C   0  0  0  0  0  0  0  0  0  0  0  0
    6.9664    0.3325   -0.7847 C   0  0  0  0  0  0  0  0  0  0  0  0
    2.4305   -1.6132   -0.6839 C   0  0  0  0  0  0  0  0  0  0  0  0
    0.9886   -2.0473   -0.2928 C   0  0  0  0  0  0  0  0  0  0  0  0
    0.0524   -0.9412   -0.2705 N   0  0  0  0  0  0  0  0  0  0  0  0
   -4.2892   -4.9216    0.6364 H   0  0  0  0  0  0  0  0  0  0  0  0
   -5.2556   -4.4853    2.0363 H   0  0  0  0  0  0  0  0  0  0  0  0
   -3.7791   -5.4742    2.2306 H   0  0  0  0  0  0  0  0  0  0  0  0
   -2.4323   -1.2118    4.3741 H   0  0  0  0  0  0  0  0  0  0  0  0
   -1.2686   -0.1247    2.4653 H   0  0  0  0  0  0  0  0  0  0  0  0
   -3.1426   -3.9355   -0.8883 H   0  0  0  0  0  0  0  0  0  0  0  0
    0.2338    3.0481   -2.0836 H   0  0  0  0  0  0  0  0  0  0  0  0
   -4.7182    2.7610    0.6142 H   0  0  0  0  0  0  0  0  0  0  0  0
   -6.2463    4.6929    0.5107 H   0  0  0  0  0  0  0  0  0  0  0  0
   -4.1471    6.2340   -2.8872 H   0  0  0  0  0  0  0  0  0  0  0  0
   -2.6291    4.2956   -2.8697 H   0  0  0  0  0  0  0  0  0  0  0  0
   -4.9071    1.0938   -0.9090 H   0  0  0  0  0  0  0  0  0  0  0  0
    0.5247   -0.2224   -2.2175 H   0  0  0  0  0  0  0  0  0  0  0  0
    2.0815    1.5070   -1.4422 H   0  0  0  0  0  0  0  0  0  0  0  0
    1.5324    1.3706    0.2267 H   0  0  0  0  0  0  0  0  0  0  0  0
    5.8761   -0.3709    2.4587 H   0  0  0  0  0  0  0  0  0  0  0  0
    6.0540    1.2040    1.7019 H   0  0  0  0  0  0  0  0  0  0  0  0
    7.4901    0.2257    2.0070 H   0  0  0  0  0  0  0  0  0  0  0  0
    8.0194   -1.8075    0.6052 H   0  0  0  0  0  0  0  0  0  0  0  0
    6.8296   -2.3962   -0.5774 H   0  0  0  0  0  0  0  0  0  0  0  0
    6.4715   -2.4999    1.1382 H   0  0  0  0  0  0  0  0  0  0  0  0
    6.5883    1.3584   -0.8259 H   0  0  0  0  0  0  0  0  0  0  0  0
    8.0501    0.3889   -0.6352 H   0  0  0  0  0  0  0  0  0  0  0  0
    6.7733   -0.1131   -1.7671 H   0  0  0  0  0  0  0  0  0  0  0  0
    2.5637   -1.7432   -1.7655 H   0  0  0  0  0  0  0  0  0  0  0  0
    3.1516   -2.2714   -0.1886 H   0  0  0  0  0  0  0  0  0  0  0  0
    0.6834   -2.8425   -0.9817 H   0  0  0  0  0  0  0  0  0  0  0  0
    1.0207   -2.4897    0.7098 H   0  0  0  0  0  0  0  0  0  0  0  0
  1  2  1  0
  2  3  2  0
  3  4  1  0
  3  5  1  0
  5  6  2  0
  6  7  1  0
  7  8  2  0
  8  9  1  0
  9 10  1  0
 10 11  2  0
 10 12  1  0
 12 13  1  0
 13 14  1  0
 14 15  2  0
 15 16  1  0
 15 17  1  0
 17 18  1  0
 18 19  2  0
 19 20  1  0
 20 21  2  0
 21 22  1  0
 21 23  1  0
 23 24  2  0
 17 25  1  0
 25 26  1  0
 14 27  1  0
 27 28  1  0
 28 29  1  0
 29 30  1  0
 30 31  2  0
 30 32  1  0
 32 33  1  0
 33 34  1  0
 33 35  1  0
 33 36  1  0
 29 37  1  0
 37 38  1  0
 38 39  1  0
  8  2  1  0
 12 39  1  1
 12  7  1  0
 25 13  2  0
 39 27  1  0
 24 18  1  0
  1 40  1  0
  1 41  1  0
  1 42  1  0
  5 43  1  0
  6 44  1  0
  9 45  1  0
 16 46  1  0
 19 47  1  0
 20 48  1  0
 23 49  1  0
 24 50  1  0
 26 51  1  0
 27 52  1  6
 28 53  1  0
 28 54  1  0
 34 55  1  0
 34 56  1  0
 34 57  1  0
 35 58  1  0
 35 59  1  0
 35 60  1  0
 36 61  1  0
 36 62  1  0
 36 63  1  0
 37 64  1  0
 37 65  1  0
 38 66  1  0
 38 67  1  0
M  END
$$$$
