
     RDKit          3D

 57 60  0  0  0  0  0  0  0  0999 V2000
   -1.9569    2.6845    2.8529 C   0  0  0  0  0  0  0  0  0  0  0  0
   -2.5942    2.1502    1.5756 C   0  0  0  0  0  0  0  0  0  0  0  0
   -1.7821    1.1030    0.7964 C   0  0  0  0  0  0  0  0  0  0  0  0
   -1.4600   -0.4244    1.7825 S   0  0  0  0  0  0  0  0  0  0  0  0
   -2.6147   -1.4974    1.0000 C   0  0  0  0  0  0  0  0  0  0  0  0
   -3.8428   -1.0740    0.9923 N   0  0  0  0  0  0  0  0  0  0  0  0
   -4.7494   -1.9281    0.3691 C   0  0  0  0  0  0  0  0  0  0  0  0
   -6.1271   -1.6504    0.2302 C   0  0  0  0  0  0  0  0  0  0  0  0
   -6.7689   -2.6768   -0.4372 C   0  0  0  0  0  0  0  0  0  0  0  0
   -5.6870   -3.9459   -0.8673 S   0  0  0  0  0  0  0  0  0  0  0  0
   -4.3777   -3.1212   -0.1730 C   0  0  0  0  0  0  0  0  0  0  0  0
   -3.0263   -3.5967   -0.1475 C   0  0  0  0  0  0  0  0  0  0  0  0
   -2.6696   -4.6731   -0.6226 O   0  0  0  0  0  0  0  0  0  0  0  0
   -2.1415   -2.7021    0.4728 N   0  0  0  0  0  0  0  0  0  0  0  0
   -0.7364   -3.1216    0.5282 C   0  0  0  0  0  0  0  0  0  0  0  0
    0.1286   -2.4722   -0.5393 C   0  0  0  0  0  0  0  0  0  0  0  0
   -0.1843   -2.5982   -1.9039 C   0  0  0  0  0  0  0  0  0  0  0  0
    0.6238   -2.0050   -2.8820 C   0  0  0  0  0  0  0  0  0  0  0  0
    1.7658   -1.2863   -2.5094 C   0  0  0  0  0  0  0  0  0  0  0  0
    2.6552   -0.6412   -3.5041 C   0  0  0  0  0  0  0  0  0  0  0  0
    3.6784   -0.0328   -3.2544 O   0  0  0  0  0  0  0  0  0  0  0  0
    2.2237   -0.7985   -4.7677 O   0  0  0  0  0  0  0  0  0  0  0  0
    2.0983   -1.1763   -1.1537 C   0  0  0  0  0  0  0  0  0  0  0  0
    1.2891   -1.7683   -0.1776 C   0  0  0  0  0  0  0  0  0  0  0  0
   -0.4757    1.7016    0.2481 C   0  0  0  0  0  0  0  0  0  0  0  0
   -0.4842    2.3099   -0.8215 O   0  0  0  0  0  0  0  0  0  0  0  0
    0.6223    1.5447    1.0751 N   0  0  0  0  0  0  0  0  0  0  0  0
    1.9525    1.9449    0.8389 C   0  0  0  0  0  0  0  0  0  0  0  0
    2.9101    1.5473    1.7793 C   0  0  0  0  0  0  0  0  0  0  0  0
    4.2589    1.8672    1.6045 C   0  0  0  0  0  0  0  0  0  0  0  0
    4.6792    2.6024    0.4866 C   0  0  0  0  0  0  0  0  0  0  0  0
    6.1343    2.9383    0.3227 C   0  0  0  0  0  0  0  0  0  0  0  0
    3.7126    3.0166   -0.4424 C   0  0  0  0  0  0  0  0  0  0  0  0
    4.1441    3.9570   -1.8299 Cl  0  0  0  0  0  0  0  0  0  0  0  0
    2.3621    2.6876   -0.2692 C   0  0  0  0  0  0  0  0  0  0  0  0
   -1.0098    3.1907    2.6466 H   0  0  0  0  0  0  0  0  0  0  0  0
   -2.6238    3.4181    3.3184 H   0  0  0  0  0  0  0  0  0  0  0  0
   -1.7782    1.8925    3.5854 H   0  0  0  0  0  0  0  0  0  0  0  0
   -2.7855    3.0049    0.9134 H   0  0  0  0  0  0  0  0  0  0  0  0
   -3.5781    1.7340    1.8247 H   0  0  0  0  0  0  0  0  0  0  0  0
   -2.3523    0.8116   -0.0955 H   0  0  0  0  0  0  0  0  0  0  0  0
   -6.6248   -0.7579    0.5897 H   0  0  0  0  0  0  0  0  0  0  0  0
   -7.8176   -2.7493   -0.6935 H   0  0  0  0  0  0  0  0  0  0  0  0
   -0.3422   -2.9021    1.5276 H   0  0  0  0  0  0  0  0  0  0  0  0
   -0.6470   -4.2111    0.4170 H   0  0  0  0  0  0  0  0  0  0  0  0
   -1.0543   -3.1700   -2.2267 H   0  0  0  0  0  0  0  0  0  0  0  0
    0.3556   -2.1207   -3.9315 H   0  0  0  0  0  0  0  0  0  0  0  0
    2.8838   -0.3055   -5.3002 H   0  0  0  0  0  0  0  0  0  0  0  0
    2.9901   -0.6260   -0.8518 H   0  0  0  0  0  0  0  0  0  0  0  0
    1.5779   -1.6675    0.8696 H   0  0  0  0  0  0  0  0  0  0  0  0
    0.4542    0.9972    1.9132 H   0  0  0  0  0  0  0  0  0  0  0  0
    2.6255    0.9708    2.6566 H   0  0  0  0  0  0  0  0  0  0  0  0
    4.9803    1.5369    2.3500 H   0  0  0  0  0  0  0  0  0  0  0  0
    6.5021    2.5947   -0.6555 H   0  0  0  0  0  0  0  0  0  0  0  0
    6.2859    4.0239    0.4156 H   0  0  0  0  0  0  0  0  0  0  0  0
    6.7458    2.4449    1.0923 H   0  0  0  0  0  0  0  0  0  0  0  0
    1.6525    3.0251   -1.0179 H   0  0  0  0  0  0  0  0  0  0  0  0
  1  2  1  0
  2  3  1  0
  3  4  1  0
  4  5  1  0
  5  6  2  0
  6  7  1  0
  7  8  1  0
  8  9  2  0
  9 10  1  0
 10 11  1  0
 11 12  1  0
 12 13  2  0
 12 14  1  0
 14 15  1  0
 15 16  1  0
 16 17  2  0
 17 18  1  0
 18 19  2  0
 19 20  1  0
 20 21  2  0
 20 22  1  0
 19 23  1  0
 23 24  2  0
  3 25  1  0
 25 26  2  0
 25 27  1  0
 27 28  1  0
 28 29  2  0
 29 30  1  0
 30 31  2  0
 31 32  1  0
 31 33  1  0
 33 34  1  0
 33 35  2  0
 14  5  1  0
 24 16  1  0
 35 28  1  0
 11  7  2  0
  1 36  1  0
  1 37  1  0
  1 38  1  0
  2 39  1  0
  2 40  1  0
  3 41  1  0
  8 42  1  0
  9 43  1  0
 15 44  1  0
 15 45  1  0
 17 46  1  0
 18 47  1  0
 22 48  1  0
 23 49  1  0
 24 50  1  0
 27 51  1  0
 29 52  1  0
 30 53  1  0
 32 54  1  0
 32 55  1  0
 32 56  1  0
 35 57  1  0
M  END
$$$$
