
     RDKit          3D

 43 46  0  0  0  0  0  0  0  0999 V2000
    6.4103    2.1767    0.4681 C   0  0  0  0  0  0  0  0  0  0  0  0
    5.0397    1.5646    0.4949 C   0  0  0  0  0  0  0  0  0  0  0  0
    4.6797    0.5835   -0.4334 C   0  0  0  0  0  0  0  0  0  0  0  0
    3.3929    0.0350   -0.4287 C   0  0  0  0  0  0  0  0  0  0  0  0
    2.4467    0.4718    0.4988 C   0  0  0  0  0  0  0  0  0  0  0  0
    0.9982   -0.1361    0.5175 C   0  0  0  0  0  0  0  0  0  0  0  0
   -0.0093    0.1640    1.4269 C   0  0  0  0  0  0  0  0  0  0  0  0
   -1.1408   -0.5960    1.1219 N   0  0  0  0  0  4  0  0  0  0  0  0
   -2.4085   -0.6033    1.8475 C   0  0  0  0  0  0  0  0  0  0  0  0
   -3.5105   -0.0844    0.9566 C   0  0  0  0  0  0  0  0  0  0  0  0
   -4.7208   -0.7842    0.8454 C   0  0  0  0  0  0  0  0  0  0  0  0
   -5.7488   -0.3018    0.0284 C   0  0  0  0  0  0  0  0  0  0  0  0
   -5.5879    0.8895   -0.6841 C   0  0  0  0  0  0  0  0  0  0  0  0
   -6.8936    1.4159   -1.6812 Cl  0  0  0  0  0  0  0  0  0  0  0  0
   -4.3937    1.6047   -0.5703 C   0  0  0  0  0  0  0  0  0  0  0  0
   -4.1087    3.0823   -1.4163 Cl  0  0  0  0  0  0  0  0  0  0  0  0
   -3.3665    1.1226    0.2515 C   0  0  0  0  0  0  0  0  0  0  0  0
   -0.8382   -1.3456    0.0662 C   0  0  0  0  0  0  0  0  0  0  0  0
    0.4062   -1.0710   -0.3131 N   0  0  0  0  0  0  0  0  0  0  0  0
    0.8012   -1.8399   -1.4850 C   0  0  0  0  0  0  0  0  0  0  0  0
   -0.5338   -2.4588   -1.9824 C   0  0  0  0  0  0  0  0  0  0  0  0
   -1.4937   -2.3701   -0.7794 C   0  0  0  0  0  0  0  0  0  0  0  0
    2.7989    1.4617    1.4238 C   0  0  0  0  0  0  0  0  0  0  0  0
    4.0860    2.0077    1.4157 C   0  0  0  0  0  0  0  0  0  0  0  0
    6.7451    2.4224    1.4814 H   0  0  0  0  0  0  0  0  0  0  0  0
    7.1426    1.4821    0.0435 H   0  0  0  0  0  0  0  0  0  0  0  0
    6.4000    3.0899   -0.1347 H   0  0  0  0  0  0  0  0  0  0  0  0
    5.4056    0.2372   -1.1678 H   0  0  0  0  0  0  0  0  0  0  0  0
    3.1748   -0.7333   -1.1585 H   0  0  0  0  0  0  0  0  0  0  0  0
   -0.0632    0.8284    2.2729 H   0  0  0  0  0  0  0  0  0  0  0  0
   -2.6005   -1.6345    2.1644 H   0  0  0  0  0  0  0  0  0  0  0  0
   -2.3306    0.0218    2.7435 H   0  0  0  0  0  0  0  0  0  0  0  0
   -4.8866   -1.7113    1.3939 H   0  0  0  0  0  0  0  0  0  0  0  0
   -6.6817   -0.8591   -0.0461 H   0  0  0  0  0  0  0  0  0  0  0  0
   -2.4471    1.6993    0.3358 H   0  0  0  0  0  0  0  0  0  0  0  0
    1.5059   -2.6173   -1.1760 H   0  0  0  0  0  0  0  0  0  0  0  0
    1.2407   -1.1935   -2.2479 H   0  0  0  0  0  0  0  0  0  0  0  0
   -0.9272   -1.8443   -2.8008 H   0  0  0  0  0  0  0  0  0  0  0  0
   -0.4140   -3.4788   -2.3573 H   0  0  0  0  0  0  0  0  0  0  0  0
   -1.5184   -3.2903   -0.1922 H   0  0  0  0  0  0  0  0  0  0  0  0
   -2.4925   -2.0320   -1.0540 H   0  0  0  0  0  0  0  0  0  0  0  0
    2.0984    1.8404    2.1617 H   0  0  0  0  0  0  0  0  0  0  0  0
    4.3435    2.7844    2.1345 H   0  0  0  0  0  0  0  0  0  0  0  0
  1  2  1  0
  2  3  2  0
  3  4  1  0
  4  5  2  0
  5  6  1  0
  6  7  2  0
  7  8  1  0
  8  9  1  0
  9 10  1  0
 10 11  2  0
 11 12  1  0
 12 13  2  0
 13 14  1  0
 13 15  1  0
 15 16  1  0
 15 17  2  0
  8 18  2  0
 18 19  1  0
 19 20  1  0
 20 21  1  0
 21 22  1  0
  5 23  1  0
 23 24  2  0
 24  2  1  0
 19  6  1  0
 17 10  1  0
 22 18  1  0
  1 25  1  0
  1 26  1  0
  1 27  1  0
  3 28  1  0
  4 29  1  0
  7 30  1  0
  9 31  1  0
  9 32  1  0
 11 33  1  0
 12 34  1  0
 17 35  1  0
 20 36  1  0
 20 37  1  0
 21 38  1  0
 21 39  1  0
 22 40  1  0
 22 41  1  0
 23 42  1  0
 24 43  1  0
M  CHG  1   8   1
M  END
$$$$
