
     RDKit          3D

 59 62  0  0  0  0  0  0  0  0999 V2000
    4.0355   -4.9649    0.4084 C   0  0  0  0  0  0  0  0  0  0  0  0
    4.5296   -3.6046   -0.0416 C   0  0  0  0  0  0  0  0  0  0  0  0
    3.3991   -2.8107   -0.3971 O   0  0  0  0  0  0  0  0  0  0  0  0
    3.7820   -1.5054   -0.8247 C   0  0  0  0  0  0  0  0  0  0  0  0
    2.5340   -0.7354   -1.2317 C   0  0  0  0  0  0  0  0  0  0  0  0
    1.5582   -0.5904   -0.0624 C   0  0  0  0  0  0  0  0  0  0  0  0
    0.3627    0.1683   -0.4799 N   0  0  0  0  0  0  0  0  0  0  0  0
   -0.7353   -0.4869   -1.0686 C   0  0  0  0  0  0  0  0  0  0  0  0
   -0.7553   -1.7507   -1.3607 N   0  0  0  0  0  0  0  0  0  0  0  0
   -1.9640    0.2965   -1.3944 C   0  0  0  0  0  0  0  0  0  0  0  0
   -3.3960   -0.4061   -2.0607 S   0  0  0  0  0  6  0  0  0  0  0  0
   -4.5030    0.5327   -1.9293 O   0  0  0  0  0  0  0  0  0  0  0  0
   -3.1197   -0.9651   -3.3735 O   0  0  0  0  0  0  0  0  0  0  0  0
   -3.8052   -1.7460   -0.9573 C   0  0  0  0  0  0  0  0  0  0  0  0
   -4.3567   -1.4528    0.2940 C   0  0  0  0  0  0  0  0  0  0  0  0
   -4.7153   -2.4959    1.1496 C   0  0  0  0  0  0  0  0  0  0  0  0
   -4.5261   -3.8295    0.7617 C   0  0  0  0  0  0  0  0  0  0  0  0
   -4.9434   -4.9499    1.6685 C   0  0  0  0  0  0  0  0  0  0  0  0
   -4.0013   -4.1077   -0.5080 C   0  0  0  0  0  0  0  0  0  0  0  0
   -3.6428   -3.0698   -1.3698 C   0  0  0  0  0  0  0  0  0  0  0  0
   -1.9150    1.6222   -1.1853 C   0  0  0  0  0  0  0  0  0  0  0  0
   -0.7345    2.2820   -0.6519 C   0  0  0  0  0  0  0  0  0  0  0  0
   -0.7396    3.7624   -0.4741 C   0  0  0  0  0  0  0  0  0  0  0  0
   -1.7454    4.4116   -0.7680 O   0  0  0  0  0  0  0  0  0  0  0  0
    0.4233    4.3185    0.0279 N   0  0  0  0  0  0  0  0  0  0  0  0
    0.4986    5.6953    0.2155 C   0  0  0  0  0  0  0  0  0  0  0  0
    1.5988    6.2911    0.7021 C   0  0  0  0  0  0  0  0  0  0  0  0
    1.7062    7.7702    0.9135 C   0  0  0  0  0  0  0  0  0  0  0  0
    2.7433    5.4770    1.0435 C   0  0  0  0  0  0  0  0  0  0  0  0
    2.7113    4.1494    0.8789 C   0  0  0  0  0  0  0  0  0  0  0  0
    1.4876    3.4961    0.3383 C   0  0  0  0  0  0  0  0  0  0  0  0
    1.4879    2.2103    0.1913 N   0  0  0  0  0  0  0  0  0  0  0  0
    0.3697    1.5803   -0.3088 C   0  0  0  0  0  0  0  0  0  0  0  0
    3.4683   -5.4529   -0.3911 H   0  0  0  0  0  0  0  0  0  0  0  0
    3.3591   -4.8657    1.2638 H   0  0  0  0  0  0  0  0  0  0  0  0
    4.8719   -5.6096    0.6924 H   0  0  0  0  0  0  0  0  0  0  0  0
    5.1906   -3.7157   -0.9080 H   0  0  0  0  0  0  0  0  0  0  0  0
    5.0804   -3.1200    0.7720 H   0  0  0  0  0  0  0  0  0  0  0  0
    4.4589   -1.5844   -1.6830 H   0  0  0  0  0  0  0  0  0  0  0  0
    4.3024   -0.9878   -0.0106 H   0  0  0  0  0  0  0  0  0  0  0  0
    2.0386   -1.2612   -2.0566 H   0  0  0  0  0  0  0  0  0  0  0  0
    2.8248    0.2520   -1.6087 H   0  0  0  0  0  0  0  0  0  0  0  0
    2.0596   -0.0979    0.7806 H   0  0  0  0  0  0  0  0  0  0  0  0
    1.2651   -1.5675    0.3387 H   0  0  0  0  0  0  0  0  0  0  0  0
    0.1235   -2.2180   -1.1365 H   0  0  0  0  0  0  0  0  0  0  0  0
   -4.5246   -0.4237    0.6018 H   0  0  0  0  0  0  0  0  0  0  0  0
   -5.1508   -2.2635    2.1191 H   0  0  0  0  0  0  0  0  0  0  0  0
   -5.9796   -5.2336    1.4602 H   0  0  0  0  0  0  0  0  0  0  0  0
   -4.8620   -4.6535    2.7195 H   0  0  0  0  0  0  0  0  0  0  0  0
   -4.3004   -5.8251    1.5276 H   0  0  0  0  0  0  0  0  0  0  0  0
   -3.8674   -5.1367   -0.8348 H   0  0  0  0  0  0  0  0  0  0  0  0
   -3.2272   -3.2988   -2.3486 H   0  0  0  0  0  0  0  0  0  0  0  0
   -2.7676    2.2572   -1.4218 H   0  0  0  0  0  0  0  0  0  0  0  0
   -0.3846    6.2708   -0.0538 H   0  0  0  0  0  0  0  0  0  0  0  0
    0.7866    8.2906    0.6251 H   0  0  0  0  0  0  0  0  0  0  0  0
    2.5243    8.1861    0.3156 H   0  0  0  0  0  0  0  0  0  0  0  0
    1.8976    7.9952    1.9682 H   0  0  0  0  0  0  0  0  0  0  0  0
    3.6326    5.9601    1.4374 H   0  0  0  0  0  0  0  0  0  0  0  0
    3.5505    3.5113    1.1252 H   0  0  0  0  0  0  0  0  0  0  0  0
  1  2  1  0
  2  3  1  0
  3  4  1  0
  4  5  1  0
  5  6  1  0
  6  7  1  0
  7  8  1  0
  8  9  2  3
  8 10  1  0
 10 11  1  0
 11 12  2  0
 11 13  2  0
 11 14  1  0
 14 15  2  0
 15 16  1  0
 16 17  2  0
 17 18  1  0
 17 19  1  0
 19 20  2  0
 10 21  2  0
 21 22  1  0
 22 23  1  0
 23 24  2  0
 23 25  1  0
 25 26  1  0
 26 27  2  0
 27 28  1  0
 27 29  1  0
 29 30  2  0
 30 31  1  0
 31 32  2  0
 32 33  1  0
 33  7  1  0
 20 14  1  0
 33 22  2  0
 31 25  1  0
  1 34  1  0
  1 35  1  0
  1 36  1  0
  2 37  1  0
  2 38  1  0
  4 39  1  0
  4 40  1  0
  5 41  1  0
  5 42  1  0
  6 43  1  0
  6 44  1  0
  9 45  1  0
 15 46  1  0
 16 47  1  0
 18 48  1  0
 18 49  1  0
 18 50  1  0
 19 51  1  0
 20 52  1  0
 21 53  1  0
 26 54  1  0
 28 55  1  0
 28 56  1  0
 28 57  1  0
 29 58  1  0
 30 59  1  0
M  END
$$$$
