
     RDKit          3D

 54 59  0  0  0  0  0  0  0  0999 V2000
    7.0285   -2.5989    0.5527 C   0  0  0  0  0  0  0  0  0  0  0  0
    5.9883   -1.6037    0.1319 C   0  0  0  0  0  0  0  0  0  0  0  0
    4.8082   -2.0298   -0.4852 C   0  0  0  0  0  0  0  0  0  0  0  0
    3.8244   -1.1073   -0.8504 C   0  0  0  0  0  0  0  0  0  0  0  0
    3.9911    0.2592   -0.5859 C   0  0  0  0  0  0  0  0  0  0  0  0
    2.9365    1.2680   -0.9908 C   0  0  0  0  0  0  0  0  0  0  0  0
    1.6163    0.9928   -0.4209 N   0  0  0  0  0  0  0  0  0  0  0  0
    1.2759    1.3372    0.8924 C   0  0  0  0  0  0  0  0  0  0  0  0
    2.3114    2.0159    1.7604 C   0  0  0  0  0  0  0  0  0  0  0  0
    0.1133    1.1144    1.4404 N   0  0  0  0  0  0  0  0  0  0  0  0
   -0.7779    0.5045    0.6313 C   0  0  0  0  0  0  0  0  0  0  0  0
   -0.5828    0.1130   -0.6726 C   0  0  0  0  0  0  0  0  0  0  0  0
    0.6949    0.3628   -1.2830 C   0  0  0  0  0  0  0  0  0  0  0  0
    0.9487    0.0513   -2.4427 O   0  0  0  0  0  0  0  0  0  0  0  0
   -1.7726   -0.4896   -1.1217 C   0  0  0  0  0  0  0  0  0  0  0  0
   -2.1067   -1.0468   -2.3115 N   0  0  0  0  0  0  0  0  0  0  0  0
   -3.3546   -1.5385   -2.3678 C   0  0  0  0  0  0  0  0  0  0  0  0
   -3.7773   -2.1225   -3.5551 C   0  0  0  0  0  0  0  0  0  0  0  0
   -5.0593   -2.6569   -3.6921 C   0  0  0  0  0  0  0  0  0  0  0  0
   -5.9386   -2.6071   -2.6199 C   0  0  0  0  0  0  0  0  0  0  0  0
   -5.5277   -2.0237   -1.4203 C   0  0  0  0  0  0  0  0  0  0  0  0
   -4.2551   -1.4880   -1.2689 C   0  0  0  0  0  0  0  0  0  0  0  0
   -3.9306   -0.9437   -0.0838 N   0  0  0  0  0  0  0  0  0  0  0  0
   -2.6765   -0.4500   -0.0622 C   0  0  0  0  0  0  0  0  0  0  0  0
   -2.0610    0.1752    0.9945 N   0  0  0  0  0  0  0  0  0  0  0  0
   -2.6637    0.4025    2.2969 C   0  0  0  0  0  0  0  0  0  0  0  0
   -3.2814    1.7509    2.3710 C   0  0  0  0  0  0  0  0  0  0  0  0
   -2.7730    3.0347    2.3401 C   0  0  0  0  0  0  0  0  0  0  0  0
   -3.8796    3.9079    2.4641 C   0  0  0  0  0  0  0  0  0  0  0  0
   -4.9902    3.1051    2.5715 C   0  0  0  0  0  0  0  0  0  0  0  0
   -4.6373    1.7954    2.5239 O   0  0  0  0  0  0  0  0  0  0  0  0
    5.1785    0.6822    0.0294 C   0  0  0  0  0  0  0  0  0  0  0  0
    6.1616   -0.2413    0.3948 C   0  0  0  0  0  0  0  0  0  0  0  0
    8.0295   -2.1563    0.5170 H   0  0  0  0  0  0  0  0  0  0  0  0
    6.8284   -2.9402    1.5730 H   0  0  0  0  0  0  0  0  0  0  0  0
    7.0334   -3.4660   -0.1161 H   0  0  0  0  0  0  0  0  0  0  0  0
    4.6473   -3.0854   -0.6943 H   0  0  0  0  0  0  0  0  0  0  0  0
    2.9294   -1.4711   -1.3519 H   0  0  0  0  0  0  0  0  0  0  0  0
    2.8937    1.2928   -2.0862 H   0  0  0  0  0  0  0  0  0  0  0  0
    3.2420    2.2754   -0.6898 H   0  0  0  0  0  0  0  0  0  0  0  0
    1.8658    2.3071    2.7172 H   0  0  0  0  0  0  0  0  0  0  0  0
    2.6901    2.9206    1.2802 H   0  0  0  0  0  0  0  0  0  0  0  0
    3.1326    1.3275    1.9690 H   0  0  0  0  0  0  0  0  0  0  0  0
   -3.0878   -2.1609   -4.3957 H   0  0  0  0  0  0  0  0  0  0  0  0
   -5.3635   -3.1074   -4.6334 H   0  0  0  0  0  0  0  0  0  0  0  0
   -6.9409   -3.0180   -2.7107 H   0  0  0  0  0  0  0  0  0  0  0  0
   -6.2180   -1.9836   -0.5807 H   0  0  0  0  0  0  0  0  0  0  0  0
   -3.4010   -0.3877    2.4755 H   0  0  0  0  0  0  0  0  0  0  0  0
   -1.8823    0.2933    3.0569 H   0  0  0  0  0  0  0  0  0  0  0  0
   -1.7299    3.3003    2.2342 H   0  0  0  0  0  0  0  0  0  0  0  0
   -3.8707    4.9885    2.4736 H   0  0  0  0  0  0  0  0  0  0  0  0
   -6.0479    3.2992    2.6825 H   0  0  0  0  0  0  0  0  0  0  0  0
    5.3503    1.7363    0.2365 H   0  0  0  0  0  0  0  0  0  0  0  0
    7.0678    0.1109    0.8828 H   0  0  0  0  0  0  0  0  0  0  0  0
  1  2  1  0
  2  3  2  0
  3  4  1  0
  4  5  2  0
  5  6  1  0
  6  7  1  0
  7  8  1  0
  8  9  1  0
  8 10  2  0
 10 11  1  0
 11 12  2  0
 12 13  1  0
 13 14  2  0
 12 15  1  0
 15 16  2  0
 16 17  1  0
 17 18  2  0
 18 19  1  0
 19 20  2  0
 20 21  1  0
 21 22  2  0
 22 23  1  0
 23 24  2  0
 24 25  1  0
 25 26  1  0
 26 27  1  0
 27 28  2  0
 28 29  1  0
 29 30  2  0
 30 31  1  0
  5 32  1  0
 32 33  2  0
 33  2  1  0
 13  7  1  0
 24 15  1  0
 31 27  1  0
 25 11  1  0
 22 17  1  0
  1 34  1  0
  1 35  1  0
  1 36  1  0
  3 37  1  0
  4 38  1  0
  6 39  1  0
  6 40  1  0
  9 41  1  0
  9 42  1  0
  9 43  1  0
 18 44  1  0
 19 45  1  0
 20 46  1  0
 21 47  1  0
 26 48  1  0
 26 49  1  0
 28 50  1  0
 29 51  1  0
 30 52  1  0
 32 53  1  0
 33 54  1  0
M  END
$$$$
