
     RDKit          3D

 61 63  0  0  0  0  0  0  0  0999 V2000
  -10.3227    1.6576   -1.7199 C   0  0  0  0  0  0  0  0  0  0  0  0
   -9.4323    0.6241   -2.1195 O   0  0  0  0  0  0  0  0  0  0  0  0
   -8.5645    0.1539   -1.1726 C   0  0  0  0  0  0  0  0  0  0  0  0
   -8.4565    0.6092    0.1402 C   0  0  0  0  0  0  0  0  0  0  0  0
   -7.5229    0.0350    1.0107 C   0  0  0  0  0  0  0  0  0  0  0  0
   -6.6902   -1.0059    0.5822 C   0  0  0  0  0  0  0  0  0  0  0  0
   -5.6714   -1.6102    1.5113 C   0  0  0  0  0  0  0  0  0  0  0  0
   -4.3929   -0.9704    1.3530 N   0  0  0  0  0  0  0  0  0  0  0  0
   -3.3732   -1.5244    0.6189 C   0  0  0  0  0  0  0  0  0  0  0  0
   -3.3559   -2.6428    0.1243 O   0  0  0  0  0  0  0  0  0  0  0  0
   -2.1598   -0.5823    0.4442 C   0  0  0  0  0  0  0  0  0  0  0  0
   -2.1849    0.5410    0.9264 O   0  0  0  0  0  0  0  0  0  0  0  0
   -1.1315   -1.1422   -0.2810 N   0  0  0  0  0  0  0  0  0  0  0  0
    0.1734   -0.5124   -0.3824 C   0  0  0  0  0  0  0  0  0  0  0  0
    1.1495   -0.9565    0.7268 C   0  0  0  0  0  0  0  0  0  0  0  0
    0.6754   -0.5282    2.0153 O   0  0  0  0  0  0  0  0  0  0  0  0
    1.8477   -0.3403    2.8069 C   0  0  0  0  0  0  0  0  0  0  0  0
    2.8253    0.2897    1.8428 C   0  0  0  0  0  0  0  0  0  0  0  0
    2.4757   -0.3190    0.5423 N   0  0  0  0  0  0  0  0  0  0  0  0
    3.6126   -1.3408   -0.1709 S   0  0  0  0  0  6  0  0  0  0  0  0
    4.0578   -2.2648    0.8506 O   0  0  0  0  0  0  0  0  0  0  0  0
    3.0625   -1.8108   -1.4231 O   0  0  0  0  0  0  0  0  0  0  0  0
    4.9406   -0.2300   -0.5530 C   0  0  0  0  0  0  0  0  0  0  0  0
    4.7212    0.7893   -1.4801 C   0  0  0  0  0  0  0  0  0  0  0  0
    5.7551    1.6761   -1.7835 C   0  0  0  0  0  0  0  0  0  0  0  0
    7.0059    1.5414   -1.1675 C   0  0  0  0  0  0  0  0  0  0  0  0
    8.0767    2.3681   -1.4023 O   0  0  0  0  0  0  0  0  0  0  0  0
    7.9245    3.3852   -2.3825 C   0  0  0  0  0  0  0  0  0  0  0  0
    7.2213    0.5008   -0.2360 C   0  0  0  0  0  0  0  0  0  0  0  0
    8.4746    0.4435    0.3223 O   0  0  0  0  0  0  0  0  0  0  0  0
    8.7629   -0.6406    1.1945 C   0  0  0  0  0  0  0  0  0  0  0  0
    6.1834   -0.3853    0.0674 C   0  0  0  0  0  0  0  0  0  0  0  0
   -6.7939   -1.4491   -0.7407 C   0  0  0  0  0  0  0  0  0  0  0  0
   -7.7263   -0.8740   -1.6071 C   0  0  0  0  0  0  0  0  0  0  0  0
   -9.7749    2.5634   -1.4430 H   0  0  0  0  0  0  0  0  0  0  0  0
  -10.9757    1.3252   -0.9064 H   0  0  0  0  0  0  0  0  0  0  0  0
  -10.9585    1.9026   -2.5763 H   0  0  0  0  0  0  0  0  0  0  0  0
   -9.0805    1.4102    0.5192 H   0  0  0  0  0  0  0  0  0  0  0  0
   -7.4515    0.4084    2.0290 H   0  0  0  0  0  0  0  0  0  0  0  0
   -5.5879   -2.6881    1.3332 H   0  0  0  0  0  0  0  0  0  0  0  0
   -5.9783   -1.4770    2.5543 H   0  0  0  0  0  0  0  0  0  0  0  0
   -4.2827    0.0074    1.6080 H   0  0  0  0  0  0  0  0  0  0  0  0
   -1.2568   -2.1114   -0.5646 H   0  0  0  0  0  0  0  0  0  0  0  0
    0.0367    0.5745   -0.3424 H   0  0  0  0  0  0  0  0  0  0  0  0
    0.5694   -0.7669   -1.3698 H   0  0  0  0  0  0  0  0  0  0  0  0
    1.2191   -2.0507    0.7601 H   0  0  0  0  0  0  0  0  0  0  0  0
    1.6274    0.2968    3.6674 H   0  0  0  0  0  0  0  0  0  0  0  0
    2.1949   -1.3173    3.1611 H   0  0  0  0  0  0  0  0  0  0  0  0
    2.6491    1.3680    1.7588 H   0  0  0  0  0  0  0  0  0  0  0  0
    3.8613    0.1390    2.1539 H   0  0  0  0  0  0  0  0  0  0  0  0
    3.7533    0.8978   -1.9653 H   0  0  0  0  0  0  0  0  0  0  0  0
    5.5541    2.4625   -2.5040 H   0  0  0  0  0  0  0  0  0  0  0  0
    8.8782    3.9154   -2.4649 H   0  0  0  0  0  0  0  0  0  0  0  0
    7.6963    2.9585   -3.3650 H   0  0  0  0  0  0  0  0  0  0  0  0
    7.1643    4.1127   -2.0788 H   0  0  0  0  0  0  0  0  0  0  0  0
    9.8117   -0.5583    1.4942 H   0  0  0  0  0  0  0  0  0  0  0  0
    8.1516   -0.5871    2.1013 H   0  0  0  0  0  0  0  0  0  0  0  0
    8.6372   -1.6039    0.6879 H   0  0  0  0  0  0  0  0  0  0  0  0
    6.3199   -1.1938    0.7784 H   0  0  0  0  0  0  0  0  0  0  0  0
   -6.1462   -2.2434   -1.1053 H   0  0  0  0  0  0  0  0  0  0  0  0
   -7.7986   -1.2294   -2.6312 H   0  0  0  0  0  0  0  0  0  0  0  0
  1  2  1  0
  2  3  1  0
  3  4  2  0
  4  5  1  0
  5  6  2  0
  6  7  1  0
  7  8  1  0
  8  9  1  0
  9 10  2  0
  9 11  1  0
 11 12  2  0
 11 13  1  0
 13 14  1  0
 14 15  1  0
 15 16  1  0
 16 17  1  0
 17 18  1  0
 18 19  1  0
 19 20  1  0
 20 21  2  0
 20 22  2  0
 20 23  1  0
 23 24  2  0
 24 25  1  0
 25 26  2  0
 26 27  1  0
 27 28  1  0
 26 29  1  0
 29 30  1  0
 30 31  1  0
 29 32  2  0
  6 33  1  0
 33 34  2  0
 34  3  1  0
 19 15  1  0
 32 23  1  0
  1 35  1  0
  1 36  1  0
  1 37  1  0
  4 38  1  0
  5 39  1  0
  7 40  1  0
  7 41  1  0
  8 42  1  0
 13 43  1  0
 14 44  1  0
 14 45  1  0
 15 46  1  0
 17 47  1  0
 17 48  1  0
 18 49  1  0
 18 50  1  0
 24 51  1  0
 25 52  1  0
 28 53  1  0
 28 54  1  0
 28 55  1  0
 31 56  1  0
 31 57  1  0
 31 58  1  0
 32 59  1  0
 33 60  1  0
 34 61  1  0
M  END
$$$$
