
     RDKit          3D

 45 47  0  0  0  0  0  0  0  0999 V2000
   -7.8342   -0.7495   -0.6367 C   0  0  0  0  0  0  0  0  0  0  0  0
   -6.4654   -0.2939   -0.1561 C   0  0  0  0  0  0  0  0  0  0  0  0
   -5.8439   -1.4014    0.5046 O   0  0  0  0  0  0  0  0  0  0  0  0
   -4.4739   -1.3181    0.4807 C   0  0  0  0  0  0  0  0  0  0  0  0
   -3.8191   -2.3708   -0.1711 C   0  0  0  0  0  0  0  0  0  0  0  0
   -2.4270   -2.3976   -0.2306 C   0  0  0  0  0  0  0  0  0  0  0  0
   -1.6846   -1.3781    0.3752 C   0  0  0  0  0  0  0  0  0  0  0  0
   -0.2209   -1.4206    0.3185 C   0  0  0  0  0  0  0  0  0  0  0  0
    0.5534   -0.6215   -0.4266 C   0  0  0  0  0  0  0  0  0  0  0  0
    0.0567    0.6240   -1.5112 S   0  0  0  0  0  0  0  0  0  0  0  0
    1.7113    1.0305   -1.9675 C   0  0  0  0  0  0  0  0  0  0  0  0
    2.0946    2.1836   -3.1095 S   0  0  0  0  0  0  0  0  0  0  0  0
    2.5698    0.2137   -1.2626 N   0  0  0  0  0  0  0  0  0  0  0  0
    3.9655    0.3505   -1.3178 N   0  0  0  0  0  0  0  0  0  0  0  0
    4.5442    1.1892   -0.3822 C   0  0  0  0  0  0  0  0  0  0  0  0
    3.9154    2.0148    0.2735 O   0  0  0  0  0  0  0  0  0  0  0  0
    6.0114    1.0672   -0.2125 C   0  0  0  0  0  0  0  0  0  0  0  0
    6.6602   -0.1668   -0.2707 C   0  0  0  0  0  0  0  0  0  0  0  0
    8.0327   -0.1789   -0.0925 C   0  0  0  0  0  0  0  0  0  0  0  0
    8.7696    0.9294    0.1362 N   0  0  0  0  0  0  0  0  0  0  0  0
    8.1096    2.1062    0.2090 C   0  0  0  0  0  0  0  0  0  0  0  0
    6.7424    2.2270    0.0471 C   0  0  0  0  0  0  0  0  0  0  0  0
    2.0361   -0.7406   -0.4141 C   0  0  0  0  0  0  0  0  0  0  0  0
    2.6653   -1.5788    0.2205 O   0  0  0  0  0  0  0  0  0  0  0  0
   -2.3444   -0.3403    1.0530 C   0  0  0  0  0  0  0  0  0  0  0  0
   -3.7429   -0.3035    1.1197 C   0  0  0  0  0  0  0  0  0  0  0  0
   -4.4619    0.6594    1.7768 O   0  0  0  0  0  0  0  0  0  0  0  0
   -3.7382    1.6214    2.5360 C   0  0  0  0  0  0  0  0  0  0  0  0
   -8.3633    0.0688   -1.1334 H   0  0  0  0  0  0  0  0  0  0  0  0
   -7.7365   -1.5825   -1.3407 H   0  0  0  0  0  0  0  0  0  0  0  0
   -8.4402   -1.1078    0.2032 H   0  0  0  0  0  0  0  0  0  0  0  0
   -5.8736    0.0440   -1.0204 H   0  0  0  0  0  0  0  0  0  0  0  0
   -6.5925    0.5385    0.5461 H   0  0  0  0  0  0  0  0  0  0  0  0
   -4.4003   -3.1643   -0.6366 H   0  0  0  0  0  0  0  0  0  0  0  0
   -1.9328   -3.2123   -0.7549 H   0  0  0  0  0  0  0  0  0  0  0  0
    0.2331   -2.1845    0.9452 H   0  0  0  0  0  0  0  0  0  0  0  0
    4.4707   -0.4177   -1.7437 H   0  0  0  0  0  0  0  0  0  0  0  0
    6.1292   -1.1008   -0.4112 H   0  0  0  0  0  0  0  0  0  0  0  0
    8.5956   -1.1095   -0.1234 H   0  0  0  0  0  0  0  0  0  0  0  0
    8.7307    2.9757    0.4073 H   0  0  0  0  0  0  0  0  0  0  0  0
    6.2598    3.1958    0.1161 H   0  0  0  0  0  0  0  0  0  0  0  0
   -1.7417    0.4327    1.5233 H   0  0  0  0  0  0  0  0  0  0  0  0
   -3.1050    2.2401    1.8894 H   0  0  0  0  0  0  0  0  0  0  0  0
   -3.1512    1.1402    3.3264 H   0  0  0  0  0  0  0  0  0  0  0  0
   -4.4638    2.2866    3.0169 H   0  0  0  0  0  0  0  0  0  0  0  0
  1  2  1  0
  2  3  1  0
  3  4  1  0
  4  5  2  0
  5  6  1  0
  6  7  2  0
  7  8  1  0
  8  9  2  3
  9 10  1  0
 10 11  1  0
 11 12  2  0
 11 13  1  0
 13 14  1  0
 14 15  1  0
 15 16  2  0
 15 17  1  0
 17 18  2  0
 18 19  1  0
 19 20  2  0
 20 21  1  0
 21 22  2  0
 13 23  1  0
 23 24  2  0
  7 25  1  0
 25 26  2  0
 26 27  1  0
 27 28  1  0
 26  4  1  0
 23  9  1  0
 22 17  1  0
  1 29  1  0
  1 30  1  0
  1 31  1  0
  2 32  1  0
  2 33  1  0
  5 34  1  0
  6 35  1  0
  8 36  1  0
 14 37  1  0
 18 38  1  0
 19 39  1  0
 21 40  1  0
 22 41  1  0
 25 42  1  0
 28 43  1  0
 28 44  1  0
 28 45  1  0
M  END
$$$$
