
     RDKit          3D

 47 49  0  0  0  0  0  0  0  0999 V2000
    8.1575   -0.9448   -0.5239 C   0  0  0  0  0  0  0  0  0  0  0  0
    6.7700   -1.3066   -1.0378 C   0  0  0  0  0  0  0  0  0  0  0  0
    5.6847   -0.5837   -0.2803 C   0  0  0  0  0  0  0  0  0  0  0  0
    5.0783   -1.1809    0.8326 C   0  0  0  0  0  0  0  0  0  0  0  0
    4.0911   -0.5000    1.5495 C   0  0  0  0  0  0  0  0  0  0  0  0
    3.6913    0.7810    1.1627 C   0  0  0  0  0  0  0  0  0  0  0  0
    2.6961    1.4549    1.8816 N   0  0  0  0  0  0  0  0  0  0  0  0
    1.4632    1.2824    1.5504 C   0  0  0  0  0  0  0  0  0  0  0  0
    0.9751    0.5198    0.5387 N   0  0  0  0  0  0  0  0  0  0  0  0
   -0.3800    0.4498    0.3851 C   0  0  0  0  0  0  0  0  0  0  0  0
   -0.9294   -0.2071   -0.4857 O   0  0  0  0  0  0  0  0  0  0  0  0
   -1.0493    1.2805    1.4292 C   0  0  0  0  0  0  0  0  0  0  0  0
   -2.3623    1.4334    1.6501 C   0  0  0  0  0  0  0  0  0  0  0  0
   -3.4450    0.8161    0.8792 C   0  0  0  0  0  0  0  0  0  0  0  0
   -4.2560   -0.1475    1.4910 C   0  0  0  0  0  0  0  0  0  0  0  0
   -5.3011   -0.7420    0.7827 C   0  0  0  0  0  0  0  0  0  0  0  0
   -6.0650   -1.6384    1.4809 O   0  0  0  0  0  0  0  0  0  0  0  0
   -6.1479   -2.9091    0.8334 C   0  0  0  0  0  0  0  0  0  0  0  0
   -5.5571   -0.3390   -0.5290 C   0  0  0  0  0  0  0  0  0  0  0  0
   -6.6148   -0.8631   -1.2283 O   0  0  0  0  0  0  0  0  0  0  0  0
   -4.7657    0.6411   -1.1497 C   0  0  0  0  0  0  0  0  0  0  0  0
   -5.1419    0.9593   -2.4340 O   0  0  0  0  0  0  0  0  0  0  0  0
   -4.3631    1.9453   -3.1032 C   0  0  0  0  0  0  0  0  0  0  0  0
   -3.7094    1.2157   -0.4404 C   0  0  0  0  0  0  0  0  0  0  0  0
    0.1571    2.0467    2.4140 S   0  0  0  0  0  0  0  0  0  0  0  0
    4.3109    1.3888    0.0692 C   0  0  0  0  0  0  0  0  0  0  0  0
    5.2990    0.7111   -0.6513 C   0  0  0  0  0  0  0  0  0  0  0  0
    8.2640   -1.1879    0.5407 H   0  0  0  0  0  0  0  0  0  0  0  0
    8.9235   -1.4980   -1.0777 H   0  0  0  0  0  0  0  0  0  0  0  0
    8.3602    0.1262   -0.6446 H   0  0  0  0  0  0  0  0  0  0  0  0
    6.6167   -2.3903   -0.9561 H   0  0  0  0  0  0  0  0  0  0  0  0
    6.6940   -1.0701   -2.1075 H   0  0  0  0  0  0  0  0  0  0  0  0
    5.3782   -2.1754    1.1560 H   0  0  0  0  0  0  0  0  0  0  0  0
    3.6373   -0.9673    2.4199 H   0  0  0  0  0  0  0  0  0  0  0  0
    1.5750   -0.0088   -0.0756 H   0  0  0  0  0  0  0  0  0  0  0  0
   -2.7054    2.0451    2.4817 H   0  0  0  0  0  0  0  0  0  0  0  0
   -4.0789   -0.4501    2.5217 H   0  0  0  0  0  0  0  0  0  0  0  0
   -5.1772   -3.2215    0.4174 H   0  0  0  0  0  0  0  0  0  0  0  0
   -6.4360   -3.6417    1.5942 H   0  0  0  0  0  0  0  0  0  0  0  0
   -6.9238   -2.9155    0.0597 H   0  0  0  0  0  0  0  0  0  0  0  0
   -6.6035   -0.3990   -2.0883 H   0  0  0  0  0  0  0  0  0  0  0  0
   -4.8070    2.1065   -4.0913 H   0  0  0  0  0  0  0  0  0  0  0  0
   -4.3921    2.9007   -2.5679 H   0  0  0  0  0  0  0  0  0  0  0  0
   -3.3333    1.6004   -3.2472 H   0  0  0  0  0  0  0  0  0  0  0  0
   -3.0824    1.9799   -0.8889 H   0  0  0  0  0  0  0  0  0  0  0  0
    4.0300    2.3986   -0.2182 H   0  0  0  0  0  0  0  0  0  0  0  0
    5.7744    1.2043   -1.4967 H   0  0  0  0  0  0  0  0  0  0  0  0
  1  2  1  0
  2  3  1  0
  3  4  2  0
  4  5  1  0
  5  6  2  0
  6  7  1  0
  7  8  2  3
  8  9  1  0
  9 10  1  0
 10 11  2  0
 10 12  1  0
 12 13  2  3
 13 14  1  0
 14 15  2  0
 15 16  1  0
 16 17  1  0
 17 18  1  0
 16 19  2  0
 19 20  1  0
 19 21  1  0
 21 22  1  0
 22 23  1  0
 21 24  2  0
 12 25  1  0
  6 26  1  0
 26 27  2  0
 27  3  1  0
 25  8  1  0
 24 14  1  0
  1 28  1  0
  1 29  1  0
  1 30  1  0
  2 31  1  0
  2 32  1  0
  4 33  1  0
  5 34  1  0
  9 35  1  0
 13 36  1  0
 15 37  1  0
 18 38  1  0
 18 39  1  0
 18 40  1  0
 20 41  1  0
 23 42  1  0
 23 43  1  0
 23 44  1  0
 24 45  1  0
 26 46  1  0
 27 47  1  0
M  END
$$$$
