
     RDKit          3D

 73 75  0  0  0  0  0  0  0  0999 V2000
   -1.5181   -0.9043   -3.7887 C   0  0  0  0  0  0  0  0  0  0  0  0
   -2.6322   -0.7464   -2.7631 C   0  0  0  0  0  0  0  0  0  0  0  0
   -2.5519   -1.7392   -1.5939 C   0  0  0  0  0  0  0  0  0  0  0  0
   -0.9933   -1.8561   -0.6425 S   0  0  0  0  0  0  0  0  0  0  0  0
   -0.4836   -0.1991   -0.4069 C   0  0  0  0  0  0  0  0  0  0  0  0
   -1.3928    0.7156   -0.3120 N   0  0  0  0  0  0  0  0  0  0  0  0
   -0.9918    2.0476   -0.1459 C   0  0  0  0  0  0  0  0  0  0  0  0
   -1.9637    3.0504   -0.1377 C   0  0  0  0  0  0  0  0  0  0  0  0
   -1.6092    4.3944    0.0355 C   0  0  0  0  0  0  0  0  0  0  0  0
   -2.5083    5.4322    0.0514 O   0  0  0  0  0  0  0  0  0  0  0  0
   -3.8904    5.1012    0.1083 C   0  0  0  0  0  0  0  0  0  0  0  0
   -0.2519    4.7455    0.1884 C   0  0  0  0  0  0  0  0  0  0  0  0
    0.0129    6.0821    0.3465 O   0  0  0  0  0  0  0  0  0  0  0  0
    1.3727    6.4784    0.4670 C   0  0  0  0  0  0  0  0  0  0  0  0
    0.7211    3.7443    0.1746 C   0  0  0  0  0  0  0  0  0  0  0  0
    0.3400    2.4078    0.0054 C   0  0  0  0  0  0  0  0  0  0  0  0
    1.3431    1.3338   -0.0293 C   0  0  0  0  0  0  0  0  0  0  0  0
    2.5200    1.6089    0.1937 O   0  0  0  0  0  0  0  0  0  0  0  0
    0.8789    0.0480   -0.3050 N   0  0  0  0  0  0  0  0  0  0  0  0
    1.9118   -0.9984   -0.3515 C   0  0  0  0  0  0  0  0  0  0  0  0
    2.1955   -1.5778    1.0406 C   0  0  0  0  0  0  0  0  0  0  0  0
    3.2484   -2.6557    0.9882 C   0  0  0  0  0  0  0  0  0  0  0  0
    2.8865   -3.9902    0.7838 C   0  0  0  0  0  0  0  0  0  0  0  0
    3.8643   -4.9848    0.7081 C   0  0  0  0  0  0  0  0  0  0  0  0
    5.2191   -4.6594    0.8343 C   0  0  0  0  0  0  0  0  0  0  0  0
    6.2443   -5.5700    0.7682 O   0  0  0  0  0  0  0  0  0  0  0  0
    5.9005   -6.9421    0.6452 C   0  0  0  0  0  0  0  0  0  0  0  0
    5.5944   -3.3158    1.0367 C   0  0  0  0  0  0  0  0  0  0  0  0
    6.9426   -3.0756    1.1465 O   0  0  0  0  0  0  0  0  0  0  0  0
    7.3562   -1.7406    1.3998 C   0  0  0  0  0  0  0  0  0  0  0  0
    4.6067   -2.3257    1.1090 C   0  0  0  0  0  0  0  0  0  0  0  0
   -3.7399   -1.6355   -0.6316 C   0  0  0  0  0  0  0  0  0  0  0  0
   -4.4564   -2.6060   -0.3844 O   0  0  0  0  0  0  0  0  0  0  0  0
   -3.9528   -0.4027   -0.0613 N   0  0  0  0  0  0  0  0  0  0  0  0
   -4.9528   -0.2359    0.9774 C   0  0  0  0  0  0  0  0  0  0  0  0
   -5.1421    1.2255    1.3896 C   0  0  0  0  0  0  0  0  0  0  0  0
   -5.4541    2.0995    0.3003 O   0  0  0  0  0  0  0  0  0  0  0  0
   -6.7290    1.8502   -0.2775 C   0  0  0  0  0  0  0  0  0  0  0  0
   -1.7018   -0.2470   -4.6457 H   0  0  0  0  0  0  0  0  0  0  0  0
   -0.5426   -0.6348   -3.3733 H   0  0  0  0  0  0  0  0  0  0  0  0
   -1.4675   -1.9331   -4.1589 H   0  0  0  0  0  0  0  0  0  0  0  0
   -2.6618    0.2924   -2.4210 H   0  0  0  0  0  0  0  0  0  0  0  0
   -3.5918   -0.9012   -3.2748 H   0  0  0  0  0  0  0  0  0  0  0  0
   -2.6506   -2.7363   -2.0449 H   0  0  0  0  0  0  0  0  0  0  0  0
   -2.9979    2.7577   -0.2823 H   0  0  0  0  0  0  0  0  0  0  0  0
   -4.1136    4.4846    0.9848 H   0  0  0  0  0  0  0  0  0  0  0  0
   -4.4523    6.0346    0.2092 H   0  0  0  0  0  0  0  0  0  0  0  0
   -4.2169    4.6161   -0.8174 H   0  0  0  0  0  0  0  0  0  0  0  0
    1.3966    7.5680    0.5684 H   0  0  0  0  0  0  0  0  0  0  0  0
    1.9423    6.2154   -0.4309 H   0  0  0  0  0  0  0  0  0  0  0  0
    1.8294    6.0514    1.3662 H   0  0  0  0  0  0  0  0  0  0  0  0
    1.7763    3.9725    0.2896 H   0  0  0  0  0  0  0  0  0  0  0  0
    2.8340   -0.5695   -0.7654 H   0  0  0  0  0  0  0  0  0  0  0  0
    1.6237   -1.7876   -1.0535 H   0  0  0  0  0  0  0  0  0  0  0  0
    1.2799   -1.9847    1.4863 H   0  0  0  0  0  0  0  0  0  0  0  0
    2.5201   -0.7835    1.7253 H   0  0  0  0  0  0  0  0  0  0  0  0
    1.8387   -4.2683    0.6803 H   0  0  0  0  0  0  0  0  0  0  0  0
    3.5350   -6.0059    0.5463 H   0  0  0  0  0  0  0  0  0  0  0  0
    6.8296   -7.5206    0.6406 H   0  0  0  0  0  0  0  0  0  0  0  0
    5.3039   -7.2786    1.4990 H   0  0  0  0  0  0  0  0  0  0  0  0
    5.3841   -7.1364   -0.3004 H   0  0  0  0  0  0  0  0  0  0  0  0
    7.0889   -1.0796    0.5681 H   0  0  0  0  0  0  0  0  0  0  0  0
    8.4474   -1.7385    1.4864 H   0  0  0  0  0  0  0  0  0  0  0  0
    6.9486   -1.3729    2.3476 H   0  0  0  0  0  0  0  0  0  0  0  0
    4.8701   -1.2823    1.2567 H   0  0  0  0  0  0  0  0  0  0  0  0
   -3.1630    0.2432   -0.0745 H   0  0  0  0  0  0  0  0  0  0  0  0
   -5.8928   -0.6658    0.6146 H   0  0  0  0  0  0  0  0  0  0  0  0
   -4.6346   -0.8264    1.8442 H   0  0  0  0  0  0  0  0  0  0  0  0
   -4.2097    1.5980    1.8279 H   0  0  0  0  0  0  0  0  0  0  0  0
   -5.9168    1.3106    2.1605 H   0  0  0  0  0  0  0  0  0  0  0  0
   -6.9475    2.6616   -0.9769 H   0  0  0  0  0  0  0  0  0  0  0  0
   -7.5100    1.8314    0.4889 H   0  0  0  0  0  0  0  0  0  0  0  0
   -6.7222    0.9117   -0.8380 H   0  0  0  0  0  0  0  0  0  0  0  0
  1  2  1  0
  2  3  1  0
  3  4  1  0
  4  5  1  0
  5  6  2  0
  6  7  1  0
  7  8  2  0
  8  9  1  0
  9 10  1  0
 10 11  1  0
  9 12  2  0
 12 13  1  0
 13 14  1  0
 12 15  1  0
 15 16  2  0
 16 17  1  0
 17 18  2  0
 17 19  1  0
 19 20  1  0
 20 21  1  0
 21 22  1  0
 22 23  2  0
 23 24  1  0
 24 25  2  0
 25 26  1  0
 26 27  1  0
 25 28  1  0
 28 29  1  0
 29 30  1  0
 28 31  2  0
  3 32  1  0
 32 33  2  0
 32 34  1  0
 34 35  1  0
 35 36  1  0
 36 37  1  0
 37 38  1  0
 19  5  1  0
 31 22  1  0
 16  7  1  0
  1 39  1  0
  1 40  1  0
  1 41  1  0
  2 42  1  0
  2 43  1  0
  3 44  1  0
  8 45  1  0
 11 46  1  0
 11 47  1  0
 11 48  1  0
 14 49  1  0
 14 50  1  0
 14 51  1  0
 15 52  1  0
 20 53  1  0
 20 54  1  0
 21 55  1  0
 21 56  1  0
 23 57  1  0
 24 58  1  0
 27 59  1  0
 27 60  1  0
 27 61  1  0
 30 62  1  0
 30 63  1  0
 30 64  1  0
 31 65  1  0
 34 66  1  0
 35 67  1  0
 35 68  1  0
 36 69  1  0
 36 70  1  0
 38 71  1  0
 38 72  1  0
 38 73  1  0
M  END
$$$$
