
     RDKit          3D

 54 57  0  0  0  0  0  0  0  0999 V2000
    8.0509   -0.6898    1.7054 C   0  0  0  0  0  0  0  0  0  0  0  0
    7.0087    0.4285    1.7839 C   0  0  0  0  0  0  0  0  0  0  0  0
    6.5492    0.6452    3.2278 C   0  0  0  0  0  0  0  0  0  0  0  0
    5.8344    0.1630    0.8594 C   0  0  0  0  0  0  0  0  0  0  0  0
    5.0062   -0.9550    1.0183 C   0  0  0  0  0  0  0  0  0  0  0  0
    3.9302   -1.1746    0.1520 C   0  0  0  0  0  0  0  0  0  0  0  0
    3.6564   -0.2831   -0.8910 C   0  0  0  0  0  0  0  0  0  0  0  0
    2.5542   -0.5807   -1.7150 N   0  0  0  0  0  0  0  0  0  0  0  0
    2.0515    0.1636   -2.7676 C   0  0  0  0  0  0  0  0  0  0  0  0
    2.4851    1.2365   -3.1782 O   0  0  0  0  0  0  0  0  0  0  0  0
    0.8403   -0.4972   -3.4385 C   0  0  0  0  0  0  0  0  0  0  0  0
   -0.3724   -0.3891   -2.6894 O   0  0  0  0  0  0  0  0  0  0  0  0
   -0.5110   -1.2722   -1.6743 C   0  0  0  0  0  0  0  0  0  0  0  0
    0.3168   -2.1100   -1.3485 O   0  0  0  0  0  0  0  0  0  0  0  0
   -1.8135   -1.0834   -0.9805 C   0  0  0  0  0  0  0  0  0  0  0  0
   -2.1141   -1.9155    0.1042 C   0  0  0  0  0  0  0  0  0  0  0  0
   -3.3275   -1.7765    0.7889 C   0  0  0  0  0  0  0  0  0  0  0  0
   -4.2651   -0.8047    0.4042 C   0  0  0  0  0  0  0  0  0  0  0  0
   -3.9549    0.0127   -0.6730 C   0  0  0  0  0  0  0  0  0  0  0  0
   -2.7414   -0.1123   -1.3699 C   0  0  0  0  0  0  0  0  0  0  0  0
   -5.0827    1.2379   -1.2083 S   0  0  0  0  0  6  0  0  0  0  0  0
   -5.5343    0.8213   -2.5205 O   0  0  0  0  0  0  0  0  0  0  0  0
   -4.4266    2.5113   -0.9916 O   0  0  0  0  0  0  0  0  0  0  0  0
   -6.4844    1.2144   -0.1660 C   0  0  0  0  0  0  0  0  0  0  0  0
   -7.5021    2.1474   -0.4090 C   0  0  0  0  0  0  0  0  0  0  0  0
   -8.6356    2.1582    0.4001 C   0  0  0  0  0  0  0  0  0  0  0  0
   -8.7483    1.2422    1.4431 C   0  0  0  0  0  0  0  0  0  0  0  0
   -7.7267    0.3167    1.6765 C   0  0  0  0  0  0  0  0  0  0  0  0
   -6.5774    0.2947    0.8693 C   0  0  0  0  0  0  0  0  0  0  0  0
   -5.5304   -0.7097    1.1699 C   0  0  0  0  0  0  0  0  0  0  0  0
   -5.7149   -1.4975    2.0940 O   0  0  0  0  0  0  0  0  0  0  0  0
    4.4782    0.8300   -1.0549 C   0  0  0  0  0  0  0  0  0  0  0  0
    5.5559    1.0510   -0.1881 C   0  0  0  0  0  0  0  0  0  0  0  0
    7.6552   -1.6451    2.0672 H   0  0  0  0  0  0  0  0  0  0  0  0
    8.3892   -0.8380    0.6738 H   0  0  0  0  0  0  0  0  0  0  0  0
    8.9277   -0.4419    2.3133 H   0  0  0  0  0  0  0  0  0  0  0  0
    7.5047    1.3538    1.4615 H   0  0  0  0  0  0  0  0  0  0  0  0
    6.0914   -0.2553    3.6518 H   0  0  0  0  0  0  0  0  0  0  0  0
    5.8121    1.4537    3.2870 H   0  0  0  0  0  0  0  0  0  0  0  0
    7.3977    0.9178    3.8648 H   0  0  0  0  0  0  0  0  0  0  0  0
    5.1887   -1.6683    1.8186 H   0  0  0  0  0  0  0  0  0  0  0  0
    3.3090   -2.0533    0.3076 H   0  0  0  0  0  0  0  0  0  0  0  0
    2.0294   -1.4215   -1.4702 H   0  0  0  0  0  0  0  0  0  0  0  0
    1.0677   -1.5438   -3.6767 H   0  0  0  0  0  0  0  0  0  0  0  0
    0.6732    0.0056   -4.3976 H   0  0  0  0  0  0  0  0  0  0  0  0
   -1.4072   -2.6794    0.4270 H   0  0  0  0  0  0  0  0  0  0  0  0
   -3.5338   -2.4387    1.6305 H   0  0  0  0  0  0  0  0  0  0  0  0
   -2.5365    0.5518   -2.2090 H   0  0  0  0  0  0  0  0  0  0  0  0
   -7.4134    2.8634   -1.2248 H   0  0  0  0  0  0  0  0  0  0  0  0
   -9.4300    2.8788    0.2185 H   0  0  0  0  0  0  0  0  0  0  0  0
   -9.6316    1.2457    2.0783 H   0  0  0  0  0  0  0  0  0  0  0  0
   -7.8366   -0.3901    2.4988 H   0  0  0  0  0  0  0  0  0  0  0  0
    4.3121    1.5505   -1.8493 H   0  0  0  0  0  0  0  0  0  0  0  0
    6.1764    1.9310   -0.3450 H   0  0  0  0  0  0  0  0  0  0  0  0
  1  2  1  0
  2  3  1  0
  2  4  1  0
  4  5  2  0
  5  6  1  0
  6  7  2  0
  7  8  1  0
  8  9  1  0
  9 10  2  0
  9 11  1  0
 11 12  1  0
 12 13  1  0
 13 14  2  0
 13 15  1  0
 15 16  2  0
 16 17  1  0
 17 18  2  0
 18 19  1  0
 19 20  2  0
 19 21  1  0
 21 22  2  0
 21 23  2  0
 21 24  1  0
 24 25  2  0
 25 26  1  0
 26 27  2  0
 27 28  1  0
 28 29  2  0
 29 30  1  0
 30 31  2  0
  7 32  1  0
 32 33  2  0
 33  4  1  0
 20 15  1  0
 29 24  1  0
 30 18  1  0
  1 34  1  0
  1 35  1  0
  1 36  1  0
  2 37  1  0
  3 38  1  0
  3 39  1  0
  3 40  1  0
  5 41  1  0
  6 42  1  0
  8 43  1  0
 11 44  1  0
 11 45  1  0
 16 46  1  0
 17 47  1  0
 20 48  1  0
 25 49  1  0
 26 50  1  0
 27 51  1  0
 28 52  1  0
 32 53  1  0
 33 54  1  0
M  END
$$$$
