
     RDKit          3D

 43 45  0  0  0  0  0  0  0  0999 V2000
    6.5344   -1.9148    0.8523 C   0  0  0  0  0  0  0  0  0  0  0  0
    5.6490   -0.7495    0.5200 C   0  0  0  0  0  0  0  0  0  0  0  0
    6.1930    0.5287    0.3508 C   0  0  0  0  0  0  0  0  0  0  0  0
    5.3679    1.6216    0.0666 C   0  0  0  0  0  0  0  0  0  0  0  0
    5.9529    2.9944   -0.0870 C   0  0  0  0  0  0  0  0  0  0  0  0
    3.9818    1.4271   -0.0128 C   0  0  0  0  0  0  0  0  0  0  0  0
    3.4174    0.1564    0.1648 C   0  0  0  0  0  0  0  0  0  0  0  0
    2.0123    0.0586    0.0717 N   0  0  0  0  0  0  0  0  0  0  0  0
    1.2428   -1.0886    0.1380 C   0  0  0  0  0  0  0  0  0  0  0  0
    1.6436   -2.2433    0.2209 O   0  0  0  0  0  0  0  0  0  0  0  0
   -0.2288   -0.8630    0.0525 C   0  0  0  0  0  0  0  0  0  0  0  0
   -1.0170   -1.8261   -0.5839 C   0  0  0  0  0  0  0  0  0  0  0  0
   -2.4009   -1.6494   -0.6836 C   0  0  0  0  0  0  0  0  0  0  0  0
   -3.0192   -0.5134   -0.1439 C   0  0  0  0  0  0  0  0  0  0  0  0
   -4.4190   -0.4162   -0.2914 N   0  0  0  0  0  0  0  0  0  0  0  0
   -5.2495    0.6243    0.1084 C   0  0  0  0  0  0  0  0  0  0  0  0
   -4.8494    1.6553    0.6414 O   0  0  0  0  0  0  0  0  0  0  0  0
   -6.6631    0.3959   -0.1717 C   0  0  0  0  0  0  0  0  0  0  0  0
   -7.3813   -0.6717   -0.6894 C   0  0  0  0  0  0  0  0  0  0  0  0
   -8.7443   -0.2821   -0.7169 C   0  0  0  0  0  0  0  0  0  0  0  0
   -8.7852    0.9949   -0.2157 C   0  0  0  0  0  0  0  0  0  0  0  0
   -7.5397    1.4126    0.1164 O   0  0  0  0  0  0  0  0  0  0  0  0
   -2.2288    0.4346    0.5101 C   0  0  0  0  0  0  0  0  0  0  0  0
   -0.8419    0.2614    0.6142 C   0  0  0  0  0  0  0  0  0  0  0  0
    4.2587   -0.9235    0.4366 C   0  0  0  0  0  0  0  0  0  0  0  0
    6.6177   -2.0233    1.9380 H   0  0  0  0  0  0  0  0  0  0  0  0
    7.5366   -1.7772    0.4329 H   0  0  0  0  0  0  0  0  0  0  0  0
    6.1322   -2.8426    0.4321 H   0  0  0  0  0  0  0  0  0  0  0  0
    7.2681    0.6723    0.4407 H   0  0  0  0  0  0  0  0  0  0  0  0
    5.9866    3.4974    0.8843 H   0  0  0  0  0  0  0  0  0  0  0  0
    5.3558    3.5981   -0.7785 H   0  0  0  0  0  0  0  0  0  0  0  0
    6.9680    2.9437   -0.4949 H   0  0  0  0  0  0  0  0  0  0  0  0
    3.3439    2.2842   -0.2148 H   0  0  0  0  0  0  0  0  0  0  0  0
    1.5310    0.9242   -0.1318 H   0  0  0  0  0  0  0  0  0  0  0  0
   -0.5544   -2.7168   -1.0055 H   0  0  0  0  0  0  0  0  0  0  0  0
   -2.9817   -2.4165   -1.1896 H   0  0  0  0  0  0  0  0  0  0  0  0
   -4.8596   -1.1905   -0.7652 H   0  0  0  0  0  0  0  0  0  0  0  0
   -6.9882   -1.6260   -1.0081 H   0  0  0  0  0  0  0  0  0  0  0  0
   -9.5920   -0.8608   -1.0568 H   0  0  0  0  0  0  0  0  0  0  0  0
   -9.5790    1.7073   -0.0375 H   0  0  0  0  0  0  0  0  0  0  0  0
   -2.6588    1.3201    0.9690 H   0  0  0  0  0  0  0  0  0  0  0  0
   -0.2675    1.0012    1.1656 H   0  0  0  0  0  0  0  0  0  0  0  0
    3.8557   -1.9190    0.5970 H   0  0  0  0  0  0  0  0  0  0  0  0
  1  2  1  0
  2  3  2  0
  3  4  1  0
  4  5  1  0
  4  6  2  0
  6  7  1  0
  7  8  1  0
  8  9  1  0
  9 10  2  0
  9 11  1  0
 11 12  2  0
 12 13  1  0
 13 14  2  0
 14 15  1  0
 15 16  1  0
 16 17  2  0
 16 18  1  0
 18 19  2  0
 19 20  1  0
 20 21  2  0
 21 22  1  0
 14 23  1  0
 23 24  2  0
  7 25  2  0
 25  2  1  0
 24 11  1  0
 22 18  1  0
  1 26  1  0
  1 27  1  0
  1 28  1  0
  3 29  1  0
  5 30  1  0
  5 31  1  0
  5 32  1  0
  6 33  1  0
  8 34  1  0
 12 35  1  0
 13 36  1  0
 15 37  1  0
 19 38  1  0
 20 39  1  0
 21 40  1  0
 23 41  1  0
 24 42  1  0
 25 43  1  0
M  END
$$$$
