
     RDKit          3D

 63 67  0  0  0  0  0  0  0  0999 V2000
    3.1096    6.0611   -1.9545 C   0  0  0  0  0  0  0  0  0  0  0  0
    3.2103    5.3064   -0.7538 O   0  0  0  0  0  0  0  0  0  0  0  0
    3.2659    3.9461   -0.8813 C   0  0  0  0  0  0  0  0  0  0  0  0
    3.2117    3.2305   -2.0769 C   0  0  0  0  0  0  0  0  0  0  0  0
    3.2768    1.8315   -2.0632 C   0  0  0  0  0  0  0  0  0  0  0  0
    3.3983    1.1302   -0.8558 C   0  0  0  0  0  0  0  0  0  0  0  0
    3.4452   -0.3379   -0.8385 C   0  0  0  0  0  0  0  0  0  0  0  0
    4.7559   -1.1177   -1.6156 S   0  0  0  0  0  0  0  0  0  0  0  0
    4.1974   -2.6836   -1.1909 C   0  0  0  0  0  0  0  0  0  0  0  0
    4.8059   -3.9125   -1.5114 C   0  0  0  0  0  0  0  0  0  0  0  0
    4.2080   -5.1045   -1.0873 C   0  0  0  0  0  0  0  0  0  0  0  0
    3.0258   -5.0824   -0.3604 C   0  0  0  0  0  0  0  0  0  0  0  0
    2.3465   -6.1749    0.1050 O   0  0  0  0  0  0  0  0  0  0  0  0
    2.9058   -7.4514   -0.1786 C   0  0  0  0  0  0  0  0  0  0  0  0
    2.4316   -3.8534   -0.0487 C   0  0  0  0  0  0  0  0  0  0  0  0
    3.0133   -2.6236   -0.4562 C   0  0  0  0  0  0  0  0  0  0  0  0
    2.5860   -1.2553   -0.2501 C   0  0  0  0  0  0  0  0  0  0  0  0
    1.3947   -0.8356    0.4838 C   0  0  0  0  0  0  0  0  0  0  0  0
    0.3445   -0.1852   -0.1729 C   0  0  0  0  0  0  0  0  0  0  0  0
   -0.7894    0.2274    0.5366 C   0  0  0  0  0  0  0  0  0  0  0  0
   -0.8854   -0.0112    1.9074 C   0  0  0  0  0  0  0  0  0  0  0  0
   -1.9309    0.3309    2.7184 O   0  0  0  0  0  0  0  0  0  0  0  0
   -2.9582    1.1756    2.1890 C   0  0  0  0  0  0  0  0  0  0  0  0
   -4.0743    0.3353    1.5453 C   0  0  0  0  0  0  0  0  0  0  0  0
   -5.2227    1.1297    1.0703 N   0  0  0  0  0  0  0  0  0  0  0  0
   -6.3452    0.2316    0.7119 C   0  0  0  0  0  0  0  0  0  0  0  0
   -7.5404    1.0174    0.1505 C   0  0  0  0  0  0  0  0  0  0  0  0
   -7.1612    1.7791   -1.0032 O   0  0  0  0  0  0  0  0  0  0  0  0
   -6.1109    2.6916   -0.6608 C   0  0  0  0  0  0  0  0  0  0  0  0
   -4.8806    1.9469   -0.1150 C   0  0  0  0  0  0  0  0  0  0  0  0
    0.1575   -0.6762    2.5580 C   0  0  0  0  0  0  0  0  0  0  0  0
    1.2934   -1.0855    1.8550 C   0  0  0  0  0  0  0  0  0  0  0  0
    3.4517    1.8551    0.3398 C   0  0  0  0  0  0  0  0  0  0  0  0
    3.3855    3.2511    0.3239 C   0  0  0  0  0  0  0  0  0  0  0  0
    3.0859    7.1207   -1.6823 H   0  0  0  0  0  0  0  0  0  0  0  0
    2.1800    5.8335   -2.4867 H   0  0  0  0  0  0  0  0  0  0  0  0
    3.9825    5.9014   -2.5961 H   0  0  0  0  0  0  0  0  0  0  0  0
    3.1171    3.7258   -3.0373 H   0  0  0  0  0  0  0  0  0  0  0  0
    3.2246    1.2921   -3.0066 H   0  0  0  0  0  0  0  0  0  0  0  0
    5.7300   -3.9375   -2.0828 H   0  0  0  0  0  0  0  0  0  0  0  0
    4.7006   -6.0352   -1.3497 H   0  0  0  0  0  0  0  0  0  0  0  0
    2.2491   -8.2089    0.2597 H   0  0  0  0  0  0  0  0  0  0  0  0
    3.8934   -7.5606    0.2816 H   0  0  0  0  0  0  0  0  0  0  0  0
    2.9491   -7.6325   -1.2577 H   0  0  0  0  0  0  0  0  0  0  0  0
    1.5016   -3.8462    0.5159 H   0  0  0  0  0  0  0  0  0  0  0  0
    0.4011    0.0082   -1.2418 H   0  0  0  0  0  0  0  0  0  0  0  0
   -1.5760    0.7259   -0.0184 H   0  0  0  0  0  0  0  0  0  0  0  0
   -2.5448    1.9422    1.5253 H   0  0  0  0  0  0  0  0  0  0  0  0
   -3.3783    1.7177    3.0450 H   0  0  0  0  0  0  0  0  0  0  0  0
   -3.6691   -0.2886    0.7390 H   0  0  0  0  0  0  0  0  0  0  0  0
   -4.4179   -0.3717    2.3128 H   0  0  0  0  0  0  0  0  0  0  0  0
   -6.6763   -0.3226    1.5977 H   0  0  0  0  0  0  0  0  0  0  0  0
   -6.0142   -0.4960   -0.0408 H   0  0  0  0  0  0  0  0  0  0  0  0
   -8.3286    0.3227   -0.1567 H   0  0  0  0  0  0  0  0  0  0  0  0
   -7.9651    1.6900    0.9057 H   0  0  0  0  0  0  0  0  0  0  0  0
   -6.4873    3.4224    0.0651 H   0  0  0  0  0  0  0  0  0  0  0  0
   -5.8388    3.2373   -1.5699 H   0  0  0  0  0  0  0  0  0  0  0  0
   -4.4758    1.3035   -0.9071 H   0  0  0  0  0  0  0  0  0  0  0  0
   -4.1201    2.6921    0.1389 H   0  0  0  0  0  0  0  0  0  0  0  0
    0.0877   -0.8717    3.6254 H   0  0  0  0  0  0  0  0  0  0  0  0
    2.0955   -1.5919    2.3866 H   0  0  0  0  0  0  0  0  0  0  0  0
    3.5446    1.3407    1.2934 H   0  0  0  0  0  0  0  0  0  0  0  0
    3.4271    3.8007    1.2612 H   0  0  0  0  0  0  0  0  0  0  0  0
  1  2  1  0
  2  3  1  0
  3  4  2  0
  4  5  1  0
  5  6  2  0
  6  7  1  0
  7  8  1  0
  8  9  1  0
  9 10  2  0
 10 11  1  0
 11 12  2  0
 12 13  1  0
 13 14  1  0
 12 15  1  0
 15 16  2  0
 16 17  1  0
 17 18  1  0
 18 19  2  0
 19 20  1  0
 20 21  2  0
 21 22  1  0
 22 23  1  0
 23 24  1  0
 24 25  1  0
 25 26  1  0
 26 27  1  0
 27 28  1  0
 28 29  1  0
 29 30  1  0
 21 31  1  0
 31 32  2  0
  6 33  1  0
 33 34  2  0
 34  3  1  0
 17  7  2  0
 32 18  1  0
 16  9  1  0
 30 25  1  0
  1 35  1  0
  1 36  1  0
  1 37  1  0
  4 38  1  0
  5 39  1  0
 10 40  1  0
 11 41  1  0
 14 42  1  0
 14 43  1  0
 14 44  1  0
 15 45  1  0
 19 46  1  0
 20 47  1  0
 23 48  1  0
 23 49  1  0
 24 50  1  0
 24 51  1  0
 26 52  1  0
 26 53  1  0
 27 54  1  0
 27 55  1  0
 29 56  1  0
 29 57  1  0
 30 58  1  0
 30 59  1  0
 31 60  1  0
 32 61  1  0
 33 62  1  0
 34 63  1  0
M  END
$$$$
