
     RDKit          3D

 42 44  0  0  0  0  0  0  0  0999 V2000
   -2.8391   -2.2808   -1.4248 C   0  0  0  0  0  0  0  0  0  0  0  0
   -3.7006   -1.0353   -1.4711 C   0  0  0  0  0  0  0  0  0  0  0  0
   -4.4580   -0.8846   -2.4348 O   0  0  0  0  0  0  0  0  0  0  0  0
   -3.6236   -0.1564   -0.3677 N   0  0  0  0  0  0  0  0  0  0  0  0
   -2.4469    0.0420    0.3644 C   0  0  0  0  0  0  0  0  0  0  0  0
   -1.1878   -0.1149   -0.0733 C   0  0  0  0  0  0  0  0  0  0  0  0
   -0.0315    0.1247    0.7658 C   0  0  0  0  0  0  0  0  0  0  0  0
    1.2274   -0.0240    0.3239 C   0  0  0  0  0  0  0  0  0  0  0  0
    2.3860    0.2153    1.1604 C   0  0  0  0  0  0  0  0  0  0  0  0
    3.6768    0.0839    0.8151 C   0  0  0  0  0  0  0  0  0  0  0  0
    4.9647    0.4201    1.9531 S   0  0  0  0  0  0  0  0  0  0  0  0
    6.2072    0.0267    0.7566 C   0  0  0  0  0  0  0  0  0  0  0  0
    7.5802    0.0699    0.9555 C   0  0  0  0  0  0  0  0  0  0  0  0
    8.4281   -0.2747   -0.1029 C   0  0  0  0  0  0  0  0  0  0  0  0
    7.9012   -0.6579   -1.3451 C   0  0  0  0  0  0  0  0  0  0  0  0
    6.5206   -0.7003   -1.5413 C   0  0  0  0  0  0  0  0  0  0  0  0
    5.6954   -0.3543   -0.4782 C   0  0  0  0  0  0  0  0  0  0  0  0
    4.2278   -0.3448   -0.5121 C   0  0  0  0  0  0  0  0  0  0  0  0
    3.5921   -0.6531   -1.5055 O   0  0  0  0  0  0  0  0  0  0  0  0
   -4.8252    0.5749    0.0067 C   0  0  0  0  0  0  0  0  0  0  0  0
   -4.7459    1.7814    0.7276 C   0  0  0  0  0  0  0  0  0  0  0  0
   -5.8972    2.4795    1.1103 C   0  0  0  0  0  0  0  0  0  0  0  0
   -7.1545    1.9856    0.7814 C   0  0  0  0  0  0  0  0  0  0  0  0
   -7.2599    0.7975    0.0668 C   0  0  0  0  0  0  0  0  0  0  0  0
   -6.1076    0.1009   -0.3163 C   0  0  0  0  0  0  0  0  0  0  0  0
   -2.5304   -2.5365   -0.4087 H   0  0  0  0  0  0  0  0  0  0  0  0
   -1.9697   -2.1603   -2.0749 H   0  0  0  0  0  0  0  0  0  0  0  0
   -3.4341   -3.1230   -1.7940 H   0  0  0  0  0  0  0  0  0  0  0  0
   -2.6023    0.4043    1.3787 H   0  0  0  0  0  0  0  0  0  0  0  0
   -0.9832   -0.3928   -1.1033 H   0  0  0  0  0  0  0  0  0  0  0  0
   -0.2167    0.4352    1.7923 H   0  0  0  0  0  0  0  0  0  0  0  0
    1.3983   -0.3360   -0.7044 H   0  0  0  0  0  0  0  0  0  0  0  0
    2.1612    0.5379    2.1770 H   0  0  0  0  0  0  0  0  0  0  0  0
    7.9964    0.3656    1.9143 H   0  0  0  0  0  0  0  0  0  0  0  0
    9.5068   -0.2454    0.0380 H   0  0  0  0  0  0  0  0  0  0  0  0
    8.5727   -0.9232   -2.1591 H   0  0  0  0  0  0  0  0  0  0  0  0
    6.0991   -0.9952   -2.4982 H   0  0  0  0  0  0  0  0  0  0  0  0
   -3.7868    2.2293    0.9722 H   0  0  0  0  0  0  0  0  0  0  0  0
   -5.8072    3.4156    1.6555 H   0  0  0  0  0  0  0  0  0  0  0  0
   -8.0497    2.5281    1.0735 H   0  0  0  0  0  0  0  0  0  0  0  0
   -8.2387    0.4060   -0.1987 H   0  0  0  0  0  0  0  0  0  0  0  0
   -6.2453   -0.8310   -0.8587 H   0  0  0  0  0  0  0  0  0  0  0  0
  1  2  1  0
  2  3  2  0
  2  4  1  0
  4  5  1  0
  5  6  2  3
  6  7  1  0
  7  8  2  3
  8  9  1  0
  9 10  2  3
 10 11  1  0
 11 12  1  0
 12 13  2  0
 13 14  1  0
 14 15  2  0
 15 16  1  0
 16 17  2  0
 17 18  1  0
 18 19  2  0
  4 20  1  0
 20 21  2  0
 21 22  1  0
 22 23  2  0
 23 24  1  0
 24 25  2  0
 18 10  1  0
 25 20  1  0
 17 12  1  0
  1 26  1  0
  1 27  1  0
  1 28  1  0
  5 29  1  0
  6 30  1  0
  7 31  1  0
  8 32  1  0
  9 33  1  0
 13 34  1  0
 14 35  1  0
 15 36  1  0
 16 37  1  0
 21 38  1  0
 22 39  1  0
 23 40  1  0
 24 41  1  0
 25 42  1  0
M  END
$$$$
