
     RDKit          3D

 51 53  0  0  0  0  0  0  0  0999 V2000
    2.6743    1.8761    3.8548 N   0  0  0  0  0  0  0  0  0  0  0  0
    2.7531    1.1070    2.9886 C   0  0  0  0  0  0  0  0  0  0  0  0
    2.8608    0.2097    1.8931 C   0  0  0  0  0  0  0  0  0  0  0  0
    2.1856    0.3021    0.7332 C   0  0  0  0  0  0  0  0  0  0  0  0
    1.2901    1.3408    0.3472 C   0  0  0  0  0  0  0  0  0  0  0  0
    1.0973    2.6448    0.7912 C   0  0  0  0  0  0  0  0  0  0  0  0
    0.0570    3.2268    0.0254 C   0  0  0  0  0  0  0  0  0  0  0  0
   -0.3385    2.2648   -0.8697 C   0  0  0  0  0  0  0  0  0  0  0  0
   -1.3708    2.2200   -1.9295 C   0  0  0  0  0  0  0  0  0  0  0  0
   -2.4959    1.4656   -1.4440 N   0  0  0  0  0  0  0  0  0  0  0  0
   -3.7018    1.4770   -2.0978 C   0  0  0  0  0  0  0  0  0  0  0  0
   -4.0082    2.1990   -3.0367 O   0  0  0  0  0  0  0  0  0  0  0  0
   -4.7227    0.4540   -1.5546 C   0  0  0  0  0  0  0  0  0  0  0  0
   -4.3776   -0.3118   -0.6672 O   0  0  0  0  0  0  0  0  0  0  0  0
   -5.9416    0.5593   -2.1920 N   0  0  0  0  0  0  0  0  0  0  0  0
   -7.1055   -0.1945   -1.9595 C   0  0  0  0  0  0  0  0  0  0  0  0
   -8.2247    0.0978   -2.7482 C   0  0  0  0  0  0  0  0  0  0  0  0
   -9.4157   -0.6088   -2.5696 C   0  0  0  0  0  0  0  0  0  0  0  0
  -10.7815   -0.2343   -3.5482 Cl  0  0  0  0  0  0  0  0  0  0  0  0
   -9.5102   -1.6099   -1.6098 C   0  0  0  0  0  0  0  0  0  0  0  0
   -8.3972   -1.9001   -0.8266 C   0  0  0  0  0  0  0  0  0  0  0  0
   -8.5016   -3.1379    0.3663 Cl  0  0  0  0  0  0  0  0  0  0  0  0
   -7.1987   -1.2007   -0.9949 C   0  0  0  0  0  0  0  0  0  0  0  0
    0.4011    1.1378   -0.6894 O   0  0  0  0  0  0  0  0  0  0  0  0
    3.7180   -0.9916    2.0997 C   0  0  0  0  0  0  0  0  0  0  0  0
    3.6735   -1.6289    3.1452 O   0  0  0  0  0  0  0  0  0  0  0  0
    4.5733   -1.2866    1.0609 N   0  0  0  0  0  0  0  0  0  0  0  0
    5.5640   -2.3367    1.1764 C   0  0  0  0  0  0  0  0  0  0  0  0
    6.9015   -1.7759    1.5578 C   0  0  0  0  0  0  0  0  0  0  0  0
    7.1877   -1.4059    2.8754 C   0  0  0  0  0  0  0  0  0  0  0  0
    8.4331   -0.8708    3.1881 C   0  0  0  0  0  0  0  0  0  0  0  0
    9.3553   -0.7180    2.1673 C   0  0  0  0  0  0  0  0  0  0  0  0
    9.1154   -1.0573    0.8823 N   0  0  0  0  0  0  0  0  0  0  0  0
    7.8987   -1.5782    0.6088 C   0  0  0  0  0  0  0  0  0  0  0  0
    2.2733   -0.5016    0.0039 H   0  0  0  0  0  0  0  0  0  0  0  0
    1.6399    3.1465    1.5811 H   0  0  0  0  0  0  0  0  0  0  0  0
   -0.3507    4.2240    0.1194 H   0  0  0  0  0  0  0  0  0  0  0  0
   -1.7001    3.2261   -2.2099 H   0  0  0  0  0  0  0  0  0  0  0  0
   -0.9897    1.7245   -2.8288 H   0  0  0  0  0  0  0  0  0  0  0  0
   -2.3452    0.7153   -0.7732 H   0  0  0  0  0  0  0  0  0  0  0  0
   -5.9705    1.2759   -2.9160 H   0  0  0  0  0  0  0  0  0  0  0  0
   -8.1797    0.8768   -3.5058 H   0  0  0  0  0  0  0  0  0  0  0  0
  -10.4384   -2.1569   -1.4724 H   0  0  0  0  0  0  0  0  0  0  0  0
   -6.3563   -1.4595   -0.3603 H   0  0  0  0  0  0  0  0  0  0  0  0
    4.6950   -0.6219    0.3081 H   0  0  0  0  0  0  0  0  0  0  0  0
    5.2475   -3.0897    1.9067 H   0  0  0  0  0  0  0  0  0  0  0  0
    5.6183   -2.8347    0.2020 H   0  0  0  0  0  0  0  0  0  0  0  0
    6.4436   -1.5341    3.6595 H   0  0  0  0  0  0  0  0  0  0  0  0
    8.6767   -0.5802    4.2040 H   0  0  0  0  0  0  0  0  0  0  0  0
   10.3410   -0.3063    2.3615 H   0  0  0  0  0  0  0  0  0  0  0  0
    7.7480   -1.8386   -0.4356 H   0  0  0  0  0  0  0  0  0  0  0  0
  1  2  3  0
  2  3  1  0
  3  4  2  3
  4  5  1  0
  5  6  2  0
  6  7  1  0
  7  8  2  0
  8  9  1  0
  9 10  1  0
 10 11  1  0
 11 12  2  0
 11 13  1  0
 13 14  2  0
 13 15  1  0
 15 16  1  0
 16 17  2  0
 17 18  1  0
 18 19  1  0
 18 20  2  0
 20 21  1  0
 21 22  1  0
 21 23  2  0
  8 24  1  0
  3 25  1  0
 25 26  2  0
 25 27  1  0
 27 28  1  0
 28 29  1  0
 29 30  2  0
 30 31  1  0
 31 32  2  0
 32 33  1  0
 33 34  2  0
 24  5  1  0
 34 29  1  0
 23 16  1  0
  4 35  1  0
  6 36  1  0
  7 37  1  0
  9 38  1  0
  9 39  1  0
 10 40  1  0
 15 41  1  0
 17 42  1  0
 20 43  1  0
 23 44  1  0
 27 45  1  0
 28 46  1  0
 28 47  1  0
 30 48  1  0
 31 49  1  0
 32 50  1  0
 34 51  1  0
M  END
$$$$
