
     RDKit          3D

 37 39  0  0  0  0  0  0  0  0999 V2000
   -0.0249    0.5967    4.7892 C   0  0  0  0  0  0  0  0  0  0  0  0
    1.5445    0.4167    3.9013 S   0  0  0  0  0  0  0  0  0  0  0  0
    0.9615    0.3508    2.2124 C   0  0  0  0  0  0  0  0  0  0  0  0
    1.8807    0.1477    1.2060 C   0  0  0  0  0  0  0  0  0  0  0  0
    1.4061    0.1052   -0.0913 C   0  0  0  0  0  0  0  0  0  0  0  0
    2.3051   -0.0921   -1.1574 N   0  0  0  0  0  0  0  0  0  0  0  0
    3.0876   -1.3464   -1.0203 C   0  0  0  0  0  0  0  0  0  0  0  0
    3.5959   -1.8248   -2.3897 C   0  0  0  0  0  0  0  0  0  0  0  0
    2.5371   -2.1105   -3.3170 O   0  0  0  0  0  0  0  0  0  0  0  0
    1.3861   -1.2622   -3.1423 C   0  0  0  0  0  0  0  0  0  0  0  0
    1.7288    0.0942   -2.5110 C   0  0  0  0  0  0  0  0  0  0  0  0
    0.0993    0.2757   -0.3435 N   0  0  0  0  0  0  0  0  0  0  0  0
   -0.7313    0.4505    0.6977 C   0  0  0  0  0  0  0  0  0  0  0  0
   -2.1528    0.6775    0.4144 C   0  0  0  0  0  0  0  0  0  0  0  0
   -2.8085    1.7687    1.0268 C   0  0  0  0  0  0  0  0  0  0  0  0
   -4.1563    2.0467    0.7839 C   0  0  0  0  0  0  0  0  0  0  0  0
   -4.8860    1.2349   -0.0762 C   0  0  0  0  0  0  0  0  0  0  0  0
   -4.2689    0.1437   -0.6848 C   0  0  0  0  0  0  0  0  0  0  0  0
   -2.9162   -0.1374   -0.4416 C   0  0  0  0  0  0  0  0  0  0  0  0
   -2.2760   -1.5569   -1.2017 Cl  0  0  0  0  0  0  0  0  0  0  0  0
   -0.3487    0.5089    1.9820 N   0  0  0  0  0  0  0  0  0  0  0  0
   -0.6797   -0.2580    4.5976 H   0  0  0  0  0  0  0  0  0  0  0  0
   -0.5307    1.5224    4.5007 H   0  0  0  0  0  0  0  0  0  0  0  0
    0.1784    0.6384    5.8628 H   0  0  0  0  0  0  0  0  0  0  0  0
    2.9359    0.0489    1.4226 H   0  0  0  0  0  0  0  0  0  0  0  0
    2.4617   -2.1407   -0.5913 H   0  0  0  0  0  0  0  0  0  0  0  0
    3.9439   -1.1779   -0.3579 H   0  0  0  0  0  0  0  0  0  0  0  0
    4.2507   -1.0725   -2.8449 H   0  0  0  0  0  0  0  0  0  0  0  0
    4.1843   -2.7405   -2.2733 H   0  0  0  0  0  0  0  0  0  0  0  0
    0.9378   -1.1175   -4.1302 H   0  0  0  0  0  0  0  0  0  0  0  0
    0.6629   -1.8089   -2.5276 H   0  0  0  0  0  0  0  0  0  0  0  0
    2.4971    0.5851   -3.1219 H   0  0  0  0  0  0  0  0  0  0  0  0
    0.8634    0.7662   -2.5275 H   0  0  0  0  0  0  0  0  0  0  0  0
   -2.2531    2.4195    1.7020 H   0  0  0  0  0  0  0  0  0  0  0  0
   -4.6309    2.8974    1.2671 H   0  0  0  0  0  0  0  0  0  0  0  0
   -5.9350    1.4455   -0.2687 H   0  0  0  0  0  0  0  0  0  0  0  0
   -4.8501   -0.4951   -1.3460 H   0  0  0  0  0  0  0  0  0  0  0  0
  1  2  1  0
  2  3  1  0
  3  4  2  0
  4  5  1  0
  5  6  1  0
  6  7  1  0
  7  8  1  0
  8  9  1  0
  9 10  1  0
 10 11  1  0
  5 12  2  0
 12 13  1  0
 13 14  1  0
 14 15  2  0
 15 16  1  0
 16 17  2  0
 17 18  1  0
 18 19  2  0
 19 20  1  0
 13 21  2  0
 21  3  1  0
 11  6  1  0
 19 14  1  0
  1 22  1  0
  1 23  1  0
  1 24  1  0
  4 25  1  0
  7 26  1  0
  7 27  1  0
  8 28  1  0
  8 29  1  0
 10 30  1  0
 10 31  1  0
 11 32  1  0
 11 33  1  0
 15 34  1  0
 16 35  1  0
 17 36  1  0
 18 37  1  0
M  END
$$$$
