
     RDKit          3D

 50 53  0  0  0  0  0  0  0  0999 V2000
   -0.7711    2.7957    0.5691 C   0  0  0  0  0  0  0  0  0  0  0  0
   -2.0160    2.1906    0.1392 N   0  0  0  0  0  0  0  0  0  0  0  0
   -2.7097    2.5762   -0.9781 C   0  0  0  0  0  0  0  0  0  0  0  0
   -3.8341    1.7925   -1.0796 C   0  0  0  0  0  0  0  0  0  0  0  0
   -3.8197    0.9005    0.0154 C   0  0  0  0  0  0  0  0  0  0  0  0
   -2.6844    1.1570    0.7633 C   0  0  0  0  0  0  0  0  0  0  0  0
   -2.2180    0.4996    2.0294 C   0  0  0  0  0  0  0  0  0  0  0  0
   -0.9838   -0.3241    1.8426 C   0  0  0  0  0  0  0  0  0  0  0  0
    0.2098    0.0309    2.2871 N   0  0  0  0  0  0  0  0  0  0  0  0
    1.1311   -0.8369    1.7832 N   0  0  0  0  0  0  0  0  0  0  0  0
    0.4968   -1.7032    1.0215 C   0  0  0  0  0  0  0  0  0  0  0  0
    1.2821   -3.0366    0.2349 S   0  0  0  0  0  0  0  0  0  0  0  0
    3.0309   -2.6803    0.5665 C   0  0  0  0  0  0  0  0  0  0  0  0
    3.5416   -1.5573   -0.3261 C   0  0  0  0  0  0  0  0  0  0  0  0
    4.0550   -1.8043   -1.4156 O   0  0  0  0  0  0  0  0  0  0  0  0
    3.3532   -0.3001    0.2208 N   0  0  0  0  0  0  0  0  0  0  0  0
    3.7366    0.9427   -0.3179 C   0  0  0  0  0  0  0  0  0  0  0  0
    3.2577    2.0908    0.3270 C   0  0  0  0  0  0  0  0  0  0  0  0
    3.5979    3.3643   -0.1392 C   0  0  0  0  0  0  0  0  0  0  0  0
    4.4372    3.4992   -1.2418 C   0  0  0  0  0  0  0  0  0  0  0  0
    4.9236    2.3624   -1.8832 C   0  0  0  0  0  0  0  0  0  0  0  0
    4.5718    1.0879   -1.4258 C   0  0  0  0  0  0  0  0  0  0  0  0
   -0.8675   -1.4714    1.0608 N   0  0  0  0  0  0  0  0  0  0  0  0
   -1.9147   -2.2181    0.4571 C   0  0  0  0  0  0  0  0  0  0  0  0
   -1.8076   -2.6419   -0.8749 C   0  0  0  0  0  0  0  0  0  0  0  0
   -2.8389   -3.3875   -1.4529 C   0  0  0  0  0  0  0  0  0  0  0  0
   -3.9657   -3.7055   -0.7043 C   0  0  0  0  0  0  0  0  0  0  0  0
   -4.9482   -4.4309   -1.2572 F   0  0  0  0  0  0  0  0  0  0  0  0
   -4.0846   -3.2881    0.6129 C   0  0  0  0  0  0  0  0  0  0  0  0
   -3.0598   -2.5409    1.2000 C   0  0  0  0  0  0  0  0  0  0  0  0
   -0.5796    3.6948   -0.0204 H   0  0  0  0  0  0  0  0  0  0  0  0
    0.0322    2.0784    0.4073 H   0  0  0  0  0  0  0  0  0  0  0  0
   -0.8550    3.0640    1.6256 H   0  0  0  0  0  0  0  0  0  0  0  0
   -2.3450    3.3768   -1.6171 H   0  0  0  0  0  0  0  0  0  0  0  0
   -4.5823    1.8552   -1.8559 H   0  0  0  0  0  0  0  0  0  0  0  0
   -4.5669    0.1471    0.2352 H   0  0  0  0  0  0  0  0  0  0  0  0
   -2.0117    1.2810    2.7725 H   0  0  0  0  0  0  0  0  0  0  0  0
   -3.0225   -0.0936    2.4690 H   0  0  0  0  0  0  0  0  0  0  0  0
    3.2018   -2.4498    1.6235 H   0  0  0  0  0  0  0  0  0  0  0  0
    3.6159   -3.5805    0.3426 H   0  0  0  0  0  0  0  0  0  0  0  0
    2.7543   -0.2561    1.0459 H   0  0  0  0  0  0  0  0  0  0  0  0
    2.6076    2.0061    1.1961 H   0  0  0  0  0  0  0  0  0  0  0  0
    3.2187    4.2483    0.3655 H   0  0  0  0  0  0  0  0  0  0  0  0
    4.7143    4.4875   -1.6021 H   0  0  0  0  0  0  0  0  0  0  0  0
    5.5849    2.4619   -2.7412 H   0  0  0  0  0  0  0  0  0  0  0  0
    4.9827    0.2294   -1.9480 H   0  0  0  0  0  0  0  0  0  0  0  0
   -0.9520   -2.3731   -1.4990 H   0  0  0  0  0  0  0  0  0  0  0  0
   -2.7726   -3.7146   -2.4835 H   0  0  0  0  0  0  0  0  0  0  0  0
   -4.9670   -3.5574    1.1747 H   0  0  0  0  0  0  0  0  0  0  0  0
   -3.1592   -2.2689    2.2470 H   0  0  0  0  0  0  0  0  0  0  0  0
  1  2  1  0
  2  3  1  0
  3  4  2  0
  4  5  1  0
  5  6  2  0
  6  7  1  0
  7  8  1  0
  8  9  2  0
  9 10  1  0
 10 11  2  0
 11 12  1  0
 12 13  1  0
 13 14  1  0
 14 15  2  0
 14 16  1  0
 16 17  1  0
 17 18  2  0
 18 19  1  0
 19 20  2  0
 20 21  1  0
 21 22  2  0
 11 23  1  0
 23 24  1  0
 24 25  2  0
 25 26  1  0
 26 27  2  0
 27 28  1  0
 27 29  1  0
 29 30  2  0
  6  2  1  0
 23  8  1  0
 30 24  1  0
 22 17  1  0
  1 31  1  0
  1 32  1  0
  1 33  1  0
  3 34  1  0
  4 35  1  0
  5 36  1  0
  7 37  1  0
  7 38  1  0
 13 39  1  0
 13 40  1  0
 16 41  1  0
 18 42  1  0
 19 43  1  0
 20 44  1  0
 21 45  1  0
 22 46  1  0
 25 47  1  0
 26 48  1  0
 29 49  1  0
 30 50  1  0
M  END
$$$$
