
     RDKit          3D

 57 59  0  0  0  0  0  0  0  0999 V2000
    5.5200   -1.9689    1.6821 C   0  0  0  0  0  0  0  0  0  0  0  0
    4.9661   -2.0611    0.2648 C   0  0  0  0  0  0  0  0  0  0  0  0
    6.0811   -1.2810   -0.9721 S   0  0  0  0  0  0  0  0  0  0  0  0
    5.5575    0.4664   -0.9599 C   0  0  0  0  0  0  0  0  0  0  0  0
    5.9215    1.2344    0.2861 C   0  0  0  0  0  0  0  0  0  0  0  0
    7.2388    1.2629    0.7679 C   0  0  0  0  0  0  0  0  0  0  0  0
    7.5607    1.9867    1.9184 C   0  0  0  0  0  0  0  0  0  0  0  0
    6.5754    2.7071    2.5901 C   0  0  0  0  0  0  0  0  0  0  0  0
    5.2696    2.7128    2.1071 C   0  0  0  0  0  0  0  0  0  0  0  0
    4.9466    1.9896    0.9576 C   0  0  0  0  0  0  0  0  0  0  0  0
    3.5018   -1.6472    0.0671 C   0  0  0  0  0  0  0  0  0  0  0  0
    2.8373   -2.1260   -0.8544 O   0  0  0  0  0  0  0  0  0  0  0  0
    3.0341   -0.6836    0.9566 N   0  0  0  0  0  0  0  0  0  0  0  0
    1.7517   -0.1991    1.0113 N   0  0  0  0  0  0  0  0  0  0  0  0
    1.0980   -0.0617   -0.1001 C   0  0  0  0  0  0  0  0  0  0  0  0
   -0.3008    0.4150   -0.1215 C   0  0  0  0  0  0  0  0  0  0  0  0
   -0.9872    0.6992    1.0611 C   0  0  0  0  0  0  0  0  0  0  0  0
   -2.3065    1.1543    1.0017 C   0  0  0  0  0  0  0  0  0  0  0  0
   -2.9443    1.3385   -0.2305 C   0  0  0  0  0  0  0  0  0  0  0  0
   -4.2342    1.7840   -0.1390 O   0  0  0  0  0  0  0  0  0  0  0  0
   -4.8720    2.2145   -1.3366 C   0  0  0  0  0  0  0  0  0  0  0  0
   -5.4368    1.0677   -2.1745 C   0  0  0  0  0  0  0  0  0  0  0  0
   -5.4010    1.0702   -3.4020 O   0  0  0  0  0  0  0  0  0  0  0  0
   -6.0066    0.0606   -1.4306 N   0  0  0  0  0  0  0  0  0  0  0  0
   -6.4868   -1.1432   -2.0643 C   0  0  0  0  0  0  0  0  0  0  0  0
   -7.2484   -1.9393   -1.0731 C   0  0  0  0  0  0  0  0  0  0  0  0
   -6.9288   -3.0133   -0.2637 C   0  0  0  0  0  0  0  0  0  0  0  0
   -8.1079   -3.3379    0.4539 C   0  0  0  0  0  0  0  0  0  0  0  0
   -9.0645   -2.4399    0.0458 C   0  0  0  0  0  0  0  0  0  0  0  0
   -8.5513   -1.5847   -0.8759 O   0  0  0  0  0  0  0  0  0  0  0  0
   -2.2533    1.0459   -1.4101 C   0  0  0  0  0  0  0  0  0  0  0  0
   -0.9332    0.5830   -1.3563 C   0  0  0  0  0  0  0  0  0  0  0  0
    6.5004   -2.4530    1.7527 H   0  0  0  0  0  0  0  0  0  0  0  0
    5.6302   -0.9409    2.0335 H   0  0  0  0  0  0  0  0  0  0  0  0
    4.8517   -2.4793    2.3850 H   0  0  0  0  0  0  0  0  0  0  0  0
    4.9838   -3.1312    0.0177 H   0  0  0  0  0  0  0  0  0  0  0  0
    6.0505    0.9577   -1.8092 H   0  0  0  0  0  0  0  0  0  0  0  0
    4.4847    0.5253   -1.1703 H   0  0  0  0  0  0  0  0  0  0  0  0
    8.0268    0.7171    0.2533 H   0  0  0  0  0  0  0  0  0  0  0  0
    8.5822    1.9904    2.2887 H   0  0  0  0  0  0  0  0  0  0  0  0
    6.8281    3.2722    3.4827 H   0  0  0  0  0  0  0  0  0  0  0  0
    4.5032    3.2870    2.6214 H   0  0  0  0  0  0  0  0  0  0  0  0
    3.9226    2.0225    0.5897 H   0  0  0  0  0  0  0  0  0  0  0  0
    3.5498   -0.5135    1.8153 H   0  0  0  0  0  0  0  0  0  0  0  0
    1.5516   -0.2493   -1.0888 H   0  0  0  0  0  0  0  0  0  0  0  0
   -0.5057    0.5694    2.0272 H   0  0  0  0  0  0  0  0  0  0  0  0
   -2.8384    1.3738    1.9255 H   0  0  0  0  0  0  0  0  0  0  0  0
   -4.2113    2.8454   -1.9429 H   0  0  0  0  0  0  0  0  0  0  0  0
   -5.7217    2.8422   -1.0429 H   0  0  0  0  0  0  0  0  0  0  0  0
   -5.8188    0.0478   -0.4354 H   0  0  0  0  0  0  0  0  0  0  0  0
   -7.1136   -0.8794   -2.9244 H   0  0  0  0  0  0  0  0  0  0  0  0
   -5.6183   -1.7007   -2.4347 H   0  0  0  0  0  0  0  0  0  0  0  0
   -5.9662   -3.5061   -0.2043 H   0  0  0  0  0  0  0  0  0  0  0  0
   -8.2439   -4.1291    1.1788 H   0  0  0  0  0  0  0  0  0  0  0  0
  -10.1060   -2.2843    0.2961 H   0  0  0  0  0  0  0  0  0  0  0  0
   -2.7060    1.1565   -2.3923 H   0  0  0  0  0  0  0  0  0  0  0  0
   -0.4123    0.3532   -2.2845 H   0  0  0  0  0  0  0  0  0  0  0  0
  1  2  1  0
  2  3  1  0
  3  4  1  0
  4  5  1  0
  5  6  2  0
  6  7  1  0
  7  8  2  0
  8  9  1  0
  9 10  2  0
  2 11  1  0
 11 12  2  0
 11 13  1  0
 13 14  1  0
 14 15  2  3
 15 16  1  0
 16 17  2  0
 17 18  1  0
 18 19  2  0
 19 20  1  0
 20 21  1  0
 21 22  1  0
 22 23  2  0
 22 24  1  0
 24 25  1  0
 25 26  1  0
 26 27  2  0
 27 28  1  0
 28 29  2  0
 29 30  1  0
 19 31  1  0
 31 32  2  0
 10  5  1  0
 32 16  1  0
 30 26  1  0
  1 33  1  0
  1 34  1  0
  1 35  1  0
  2 36  1  0
  4 37  1  0
  4 38  1  0
  6 39  1  0
  7 40  1  0
  8 41  1  0
  9 42  1  0
 10 43  1  0
 13 44  1  0
 15 45  1  0
 17 46  1  0
 18 47  1  0
 21 48  1  0
 21 49  1  0
 24 50  1  0
 25 51  1  0
 25 52  1  0
 27 53  1  0
 28 54  1  0
 29 55  1  0
 31 56  1  0
 32 57  1  0
M  END
$$$$
