
     RDKit          3D

 48 50  0  0  0  0  0  0  0  0999 V2000
    8.4853    0.8188   -0.0613 C   0  0  0  0  0  0  0  0  0  0  0  0
    7.3807    0.9103    0.9264 C   0  0  0  0  0  0  0  0  0  0  0  0
    7.4188    1.5417    2.1564 C   0  0  0  0  0  0  0  0  0  0  0  0
    5.9007    1.3863    2.9406 S   0  0  0  0  0  0  0  0  0  0  0  0
    5.3219    0.5065    1.5968 C   0  0  0  0  0  0  0  0  0  0  0  0
    4.0237    0.0978    1.7189 N   0  0  0  0  0  0  0  0  0  0  0  0
    3.3783   -0.6211    0.7354 C   0  0  0  0  0  0  0  0  0  0  0  0
    3.8362   -0.9694   -0.3471 O   0  0  0  0  0  0  0  0  0  0  0  0
    1.9448   -0.9327    1.1292 C   0  0  0  0  0  0  0  0  0  0  0  0
    1.2584   -1.8739    0.1457 C   0  0  0  0  0  0  0  0  0  0  0  0
    1.0596   -1.1994   -1.1486 N   0  0  0  0  0  0  0  0  0  0  0  0
   -0.0775   -1.8406   -2.2079 S   0  0  0  0  0  6  0  0  0  0  0  0
   -0.3398   -3.2152   -1.8486 O   0  0  0  0  0  0  0  0  0  0  0  0
    0.3346   -1.4596   -3.5401 O   0  0  0  0  0  0  0  0  0  0  0  0
   -1.5107   -0.8727   -1.8005 C   0  0  0  0  0  0  0  0  0  0  0  0
   -1.8073    0.2750   -2.5346 C   0  0  0  0  0  0  0  0  0  0  0  0
   -2.9501    1.0212   -2.2243 C   0  0  0  0  0  0  0  0  0  0  0  0
   -3.8084    0.6302   -1.1825 C   0  0  0  0  0  0  0  0  0  0  0  0
   -3.4929   -0.5247   -0.4662 C   0  0  0  0  0  0  0  0  0  0  0  0
   -2.3563   -1.2876   -0.7737 C   0  0  0  0  0  0  0  0  0  0  0  0
   -4.3643   -0.9440    0.6412 C   0  0  0  0  0  0  0  0  0  0  0  0
   -4.0171   -1.8875    1.3481 O   0  0  0  0  0  0  0  0  0  0  0  0
   -5.5276   -0.2159    0.8288 N   0  0  0  0  0  0  0  0  0  0  0  0
   -6.4180   -0.6339    1.8961 C   0  0  0  0  0  0  0  0  0  0  0  0
   -5.8360    0.9715    0.1755 C   0  0  0  0  0  0  0  0  0  0  0  0
   -6.8248    1.6386    0.4894 O   0  0  0  0  0  0  0  0  0  0  0  0
   -4.9691    1.3726   -0.8379 N   0  0  0  0  0  0  0  0  0  0  0  0
   -5.2807    2.5991   -1.5620 C   0  0  0  0  0  0  0  0  0  0  0  0
    6.1654    0.3225    0.6169 N   0  0  0  0  0  0  0  0  0  0  0  0
    8.4166    1.6409   -0.7802 H   0  0  0  0  0  0  0  0  0  0  0  0
    9.4609    0.8704    0.4325 H   0  0  0  0  0  0  0  0  0  0  0  0
    8.4345   -0.1262   -0.6109 H   0  0  0  0  0  0  0  0  0  0  0  0
    8.2412    2.0700    2.6171 H   0  0  0  0  0  0  0  0  0  0  0  0
    3.5530    0.3546    2.5729 H   0  0  0  0  0  0  0  0  0  0  0  0
    1.3938    0.0125    1.2010 H   0  0  0  0  0  0  0  0  0  0  0  0
    1.9565   -1.4025    2.1198 H   0  0  0  0  0  0  0  0  0  0  0  0
    1.8597   -2.7766   -0.0080 H   0  0  0  0  0  0  0  0  0  0  0  0
    0.2919   -2.1641    0.5696 H   0  0  0  0  0  0  0  0  0  0  0  0
    1.9324   -0.9634   -1.6394 H   0  0  0  0  0  0  0  0  0  0  0  0
   -1.1589    0.5961   -3.3484 H   0  0  0  0  0  0  0  0  0  0  0  0
   -3.1433    1.9078   -2.8222 H   0  0  0  0  0  0  0  0  0  0  0  0
   -2.1388   -2.1958   -0.2141 H   0  0  0  0  0  0  0  0  0  0  0  0
   -6.2924   -1.6941    2.1337 H   0  0  0  0  0  0  0  0  0  0  0  0
   -7.4611   -0.4606    1.6133 H   0  0  0  0  0  0  0  0  0  0  0  0
   -6.1914   -0.0393    2.7870 H   0  0  0  0  0  0  0  0  0  0  0  0
   -5.4384    2.3653   -2.6197 H   0  0  0  0  0  0  0  0  0  0  0  0
   -6.1886    3.0819   -1.1901 H   0  0  0  0  0  0  0  0  0  0  0  0
   -4.4555    3.3091   -1.4464 H   0  0  0  0  0  0  0  0  0  0  0  0
  1  2  1  0
  2  3  2  0
  3  4  1  0
  4  5  1  0
  5  6  1  0
  6  7  1  0
  7  8  2  0
  7  9  1  0
  9 10  1  0
 10 11  1  0
 11 12  1  0
 12 13  2  0
 12 14  2  0
 12 15  1  0
 15 16  2  0
 16 17  1  0
 17 18  2  0
 18 19  1  0
 19 20  2  0
 19 21  1  0
 21 22  2  0
 21 23  1  0
 23 24  1  0
 23 25  1  0
 25 26  2  0
 25 27  1  0
 27 28  1  0
  5 29  2  0
 29  2  1  0
 20 15  1  0
 27 18  1  0
  1 30  1  0
  1 31  1  0
  1 32  1  0
  3 33  1  0
  6 34  1  0
  9 35  1  0
  9 36  1  0
 10 37  1  0
 10 38  1  0
 11 39  1  0
 16 40  1  0
 17 41  1  0
 20 42  1  0
 24 43  1  0
 24 44  1  0
 24 45  1  0
 28 46  1  0
 28 47  1  0
 28 48  1  0
M  END
$$$$
