
     RDKit          3D

 36 37  0  0  0  0  0  0  0  0999 V2000
   -0.4897   -1.1914   -0.3908 O   0  0  0  0  0  0  0  0  0  0  0  0
   -0.6650   -0.7399    0.7396 C   0  0  0  0  0  0  0  0  0  0  0  0
   -0.0934   -1.4221    1.9856 C   0  0  0  0  0  0  0  0  0  0  0  0
    1.2668   -1.8030    1.7835 O   0  0  0  0  0  0  0  0  0  0  0  0
    2.1171   -0.7491    1.7478 C   0  0  0  0  0  0  0  0  0  0  0  0
    1.8601    0.4176    1.9864 O   0  0  0  0  0  0  0  0  0  0  0  0
    3.4301   -1.2511    1.3263 C   0  0  0  0  0  0  0  0  0  0  0  0
    3.5871   -1.5932   -0.0264 C   0  0  0  0  0  0  0  0  0  0  0  0
    4.8159   -2.0654   -0.4802 C   0  0  0  0  0  0  0  0  0  0  0  0
    5.8789   -2.1982    0.4151 C   0  0  0  0  0  0  0  0  0  0  0  0
    5.7189   -1.8543    1.7656 C   0  0  0  0  0  0  0  0  0  0  0  0
    7.0913   -2.0601    2.8010 Cl  0  0  0  0  0  0  0  0  0  0  0  0
    4.4887   -1.3717    2.2347 C   0  0  0  0  0  0  0  0  0  0  0  0
    4.2676   -0.9594    3.9048 Cl  0  0  0  0  0  0  0  0  0  0  0  0
   -1.3789    0.4175    0.9947 N   0  0  0  0  0  0  0  0  0  0  0  0
   -1.8527    1.2603   -0.0942 C   0  0  0  0  0  0  0  0  0  0  0  0
   -2.9028    0.5933   -0.9940 C   0  0  0  0  0  0  0  0  0  0  0  0
   -3.5883    1.5615   -1.8354 N   0  0  0  0  0  0  0  0  0  0  0  0
   -4.7556    2.1891   -1.4759 C   0  0  0  0  0  0  0  0  0  0  0  0
   -5.3347    1.8743   -0.2830 O   0  0  0  0  0  0  0  0  0  0  0  0
   -5.2060    3.0801   -2.3674 C   0  0  0  0  0  0  0  0  0  0  0  0
   -4.1453    3.1887   -3.7396 S   0  0  0  0  0  0  0  0  0  0  0  0
   -3.0450    1.9832   -3.0392 C   0  0  0  0  0  0  0  0  0  0  0  0
   -1.9994    1.6398   -3.5638 O   0  0  0  0  0  0  0  0  0  0  0  0
   -0.1942   -0.8012    2.8836 H   0  0  0  0  0  0  0  0  0  0  0  0
   -0.6762   -2.3340    2.1546 H   0  0  0  0  0  0  0  0  0  0  0  0
    2.7530   -1.4874   -0.7218 H   0  0  0  0  0  0  0  0  0  0  0  0
    4.9459   -2.3305   -1.5282 H   0  0  0  0  0  0  0  0  0  0  0  0
    6.8354   -2.5723    0.0545 H   0  0  0  0  0  0  0  0  0  0  0  0
   -1.1379    0.9028    1.8544 H   0  0  0  0  0  0  0  0  0  0  0  0
   -0.9862    1.5765   -0.6872 H   0  0  0  0  0  0  0  0  0  0  0  0
   -2.2746    2.1561    0.3762 H   0  0  0  0  0  0  0  0  0  0  0  0
   -3.6381    0.0429   -0.3951 H   0  0  0  0  0  0  0  0  0  0  0  0
   -2.4198   -0.1412   -1.6493 H   0  0  0  0  0  0  0  0  0  0  0  0
   -6.1737    2.3621   -0.2113 H   0  0  0  0  0  0  0  0  0  0  0  0
   -6.0993    3.6800   -2.2786 H   0  0  0  0  0  0  0  0  0  0  0  0
  1  2  2  0
  2  3  1  0
  3  4  1  0
  4  5  1  0
  5  6  2  0
  5  7  1  0
  7  8  2  0
  8  9  1  0
  9 10  2  0
 10 11  1  0
 11 12  1  0
 11 13  2  0
 13 14  1  0
  2 15  1  0
 15 16  1  0
 16 17  1  0
 17 18  1  0
 18 19  1  0
 19 20  1  0
 19 21  2  0
 21 22  1  0
 22 23  1  0
 23 24  2  0
 13  7  1  0
 23 18  1  0
  3 25  1  0
  3 26  1  0
  8 27  1  0
  9 28  1  0
 10 29  1  0
 15 30  1  0
 16 31  1  0
 16 32  1  0
 17 33  1  0
 17 34  1  0
 20 35  1  0
 21 36  1  0
M  END
$$$$
