
     RDKit          3D

 51 55  0  0  0  0  0  0  0  0999 V2000
    6.0911   -2.5087   -0.8162 C   0  0  0  0  0  0  0  0  0  0  0  0
    5.1124   -1.3550   -0.6919 C   0  0  0  0  0  0  0  0  0  0  0  0
    3.9190   -1.7137   -1.3860 O   0  0  0  0  0  0  0  0  0  0  0  0
    2.9056   -0.7959   -1.4030 C   0  0  0  0  0  0  0  0  0  0  0  0
    1.7744   -1.1938   -2.1238 C   0  0  0  0  0  0  0  0  0  0  0  0
    0.6615   -0.3576   -2.2255 C   0  0  0  0  0  0  0  0  0  0  0  0
    0.6788    0.8813   -1.5825 C   0  0  0  0  0  0  0  0  0  0  0  0
   -0.7329    1.9619   -1.6967 S   0  0  0  0  0  6  0  0  0  0  0  0
   -0.2377    3.3192   -1.5974 O   0  0  0  0  0  0  0  0  0  0  0  0
   -1.4869    1.5576   -2.8670 O   0  0  0  0  0  0  0  0  0  0  0  0
   -1.5982    1.5593   -0.2936 N   0  0  0  0  0  0  0  0  0  0  0  0
   -2.3090    2.5844    0.3874 C   0  0  0  0  0  0  0  0  0  0  0  0
   -3.5346    2.6375    0.4155 O   0  0  0  0  0  0  0  0  0  0  0  0
   -1.4628    3.4934    1.1381 C   0  0  0  0  0  0  0  0  0  0  0  0
   -1.7628    4.6849    1.7742 C   0  0  0  0  0  0  0  0  0  0  0  0
   -0.5675    5.1398    2.3798 C   0  0  0  0  0  0  0  0  0  0  0  0
    0.3887    4.1957    2.0937 C   0  0  0  0  0  0  0  0  0  0  0  0
   -0.1418    3.1883    1.3544 O   0  0  0  0  0  0  0  0  0  0  0  0
   -2.2448    0.2652   -0.2818 C   0  0  0  0  0  0  0  0  0  0  0  0
   -3.3589    0.0275   -1.1019 C   0  0  0  0  0  0  0  0  0  0  0  0
   -3.9581   -1.2163   -1.0725 C   0  0  0  0  0  0  0  0  0  0  0  0
   -5.3420   -1.7650   -1.9967 S   0  0  0  0  0  0  0  0  0  0  0  0
   -5.1923   -3.3352   -1.2034 C   0  0  0  0  0  0  0  0  0  0  0  0
   -5.9541   -4.2605   -1.4492 O   0  0  0  0  0  0  0  0  0  0  0  0
   -4.1518   -3.4471   -0.2854 O   0  0  0  0  0  0  0  0  0  0  0  0
   -3.4775   -2.2203   -0.2413 C   0  0  0  0  0  0  0  0  0  0  0  0
   -2.3785   -2.0203    0.6046 C   0  0  0  0  0  0  0  0  0  0  0  0
   -1.8928   -3.0368    1.4516 C   0  0  0  0  0  0  0  0  0  0  0  0
   -0.8008   -2.8144    2.2878 C   0  0  0  0  0  0  0  0  0  0  0  0
   -0.1799   -1.5733    2.2947 C   0  0  0  0  0  0  0  0  0  0  0  0
   -0.6488   -0.5544    1.4632 C   0  0  0  0  0  0  0  0  0  0  0  0
   -1.7488   -0.7483    0.5955 C   0  0  0  0  0  0  0  0  0  0  0  0
    1.8098    1.2997   -0.8764 C   0  0  0  0  0  0  0  0  0  0  0  0
    2.9210    0.4558   -0.7834 C   0  0  0  0  0  0  0  0  0  0  0  0
    5.6641   -3.4238   -0.3924 H   0  0  0  0  0  0  0  0  0  0  0  0
    7.0276   -2.2831   -0.2984 H   0  0  0  0  0  0  0  0  0  0  0  0
    6.3101   -2.7169   -1.8687 H   0  0  0  0  0  0  0  0  0  0  0  0
    5.5577   -0.4585   -1.1385 H   0  0  0  0  0  0  0  0  0  0  0  0
    4.8974   -1.1809    0.3687 H   0  0  0  0  0  0  0  0  0  0  0  0
    1.7649   -2.1650   -2.6141 H   0  0  0  0  0  0  0  0  0  0  0  0
   -0.2035   -0.6827   -2.7986 H   0  0  0  0  0  0  0  0  0  0  0  0
   -2.7336    5.1629    1.7878 H   0  0  0  0  0  0  0  0  0  0  0  0
   -0.4210    6.0438    2.9548 H   0  0  0  0  0  0  0  0  0  0  0  0
    1.4388    4.0996    2.3328 H   0  0  0  0  0  0  0  0  0  0  0  0
   -3.7527    0.8063   -1.7506 H   0  0  0  0  0  0  0  0  0  0  0  0
   -2.3664   -4.0173    1.4656 H   0  0  0  0  0  0  0  0  0  0  0  0
   -0.4383   -3.6107    2.9332 H   0  0  0  0  0  0  0  0  0  0  0  0
    0.6721   -1.3939    2.9460 H   0  0  0  0  0  0  0  0  0  0  0  0
   -0.1335    0.4032    1.5021 H   0  0  0  0  0  0  0  0  0  0  0  0
    1.8350    2.2758   -0.3966 H   0  0  0  0  0  0  0  0  0  0  0  0
    3.7823    0.8064   -0.2243 H   0  0  0  0  0  0  0  0  0  0  0  0
  1  2  1  0
  2  3  1  0
  3  4  1  0
  4  5  2  0
  5  6  1  0
  6  7  2  0
  7  8  1  0
  8  9  2  0
  8 10  2  0
  8 11  1  0
 11 12  1  0
 12 13  2  0
 12 14  1  0
 14 15  2  0
 15 16  1  0
 16 17  2  0
 17 18  1  0
 11 19  1  0
 19 20  2  0
 20 21  1  0
 21 22  1  0
 22 23  1  0
 23 24  2  0
 23 25  1  0
 25 26  1  0
 26 27  1  0
 27 28  2  0
 28 29  1  0
 29 30  2  0
 30 31  1  0
 31 32  2  0
  7 33  1  0
 33 34  2  0
 34  4  1  0
 18 14  1  0
 32 19  1  0
 26 21  2  0
 32 27  1  0
  1 35  1  0
  1 36  1  0
  1 37  1  0
  2 38  1  0
  2 39  1  0
  5 40  1  0
  6 41  1  0
 15 42  1  0
 16 43  1  0
 17 44  1  0
 20 45  1  0
 28 46  1  0
 29 47  1  0
 30 48  1  0
 31 49  1  0
 33 50  1  0
 34 51  1  0
M  END
$$$$
