
     RDKit          3D

 47 49  0  0  0  0  0  0  0  0999 V2000
    8.3597    0.0374    1.4196 C   0  0  0  0  0  0  0  0  0  0  0  0
    7.5053   -0.4813    0.2731 C   0  0  0  0  0  0  0  0  0  0  0  0
    6.0363   -0.2420    0.5143 C   0  0  0  0  0  0  0  0  0  0  0  0
    5.2621   -1.1958    1.1874 C   0  0  0  0  0  0  0  0  0  0  0  0
    3.9059   -0.9629    1.4281 C   0  0  0  0  0  0  0  0  0  0  0  0
    3.3038    0.2196    0.9943 C   0  0  0  0  0  0  0  0  0  0  0  0
    1.9411    0.4452    1.2229 N   0  0  0  0  0  0  0  0  0  0  0  0
    1.0907    0.0671    0.3324 C   0  0  0  0  0  0  0  0  0  0  0  0
    1.3482   -0.5526   -0.8492 N   0  0  0  0  0  0  0  0  0  0  0  0
    0.2838   -0.8717   -1.6405 C   0  0  0  0  0  0  0  0  0  0  0  0
    0.3631   -1.4304   -2.7229 O   0  0  0  0  0  0  0  0  0  0  0  0
   -0.9806   -0.4389   -0.9847 C   0  0  0  0  0  0  0  0  0  0  0  0
   -2.1733   -0.6221   -1.5667 C   0  0  0  0  0  0  0  0  0  0  0  0
   -3.4792   -0.2223   -1.0257 C   0  0  0  0  0  0  0  0  0  0  0  0
   -3.9569   -0.7473    0.1840 C   0  0  0  0  0  0  0  0  0  0  0  0
   -5.2076   -0.3657    0.6662 C   0  0  0  0  0  0  0  0  0  0  0  0
   -5.7863   -0.7943    1.8349 O   0  0  0  0  0  0  0  0  0  0  0  0
   -4.9860   -1.6119    2.6814 C   0  0  0  0  0  0  0  0  0  0  0  0
   -5.9830    0.5302   -0.0844 C   0  0  0  0  0  0  0  0  0  0  0  0
   -7.2188    0.8947    0.3964 O   0  0  0  0  0  0  0  0  0  0  0  0
   -5.5311    1.0575   -1.2995 C   0  0  0  0  0  0  0  0  0  0  0  0
   -6.3786    1.9202   -1.9414 O   0  0  0  0  0  0  0  0  0  0  0  0
   -5.9180    2.5234   -3.1416 C   0  0  0  0  0  0  0  0  0  0  0  0
   -4.2727    0.6693   -1.7657 C   0  0  0  0  0  0  0  0  0  0  0  0
   -0.6265    0.3088    0.5290 S   0  0  0  0  0  0  0  0  0  0  0  0
    4.0788    1.1839    0.3474 C   0  0  0  0  0  0  0  0  0  0  0  0
    5.4353    0.9552    0.1048 C   0  0  0  0  0  0  0  0  0  0  0  0
    9.4186   -0.1519    1.2173 H   0  0  0  0  0  0  0  0  0  0  0  0
    8.2278    1.1160    1.5573 H   0  0  0  0  0  0  0  0  0  0  0  0
    8.1009   -0.4556    2.3629 H   0  0  0  0  0  0  0  0  0  0  0  0
    7.8082    0.0026   -0.6634 H   0  0  0  0  0  0  0  0  0  0  0  0
    7.6858   -1.5541    0.1319 H   0  0  0  0  0  0  0  0  0  0  0  0
    5.7129   -2.1219    1.5378 H   0  0  0  0  0  0  0  0  0  0  0  0
    3.3177   -1.7037    1.9629 H   0  0  0  0  0  0  0  0  0  0  0  0
    2.2842   -0.7789   -1.1457 H   0  0  0  0  0  0  0  0  0  0  0  0
   -2.2185   -1.0905   -2.5500 H   0  0  0  0  0  0  0  0  0  0  0  0
   -3.3395   -1.4547    0.7277 H   0  0  0  0  0  0  0  0  0  0  0  0
   -4.7644   -2.5721    2.2044 H   0  0  0  0  0  0  0  0  0  0  0  0
   -4.0674   -1.0954    2.9793 H   0  0  0  0  0  0  0  0  0  0  0  0
   -5.5619   -1.8163    3.5890 H   0  0  0  0  0  0  0  0  0  0  0  0
   -7.3163    0.4150    1.2401 H   0  0  0  0  0  0  0  0  0  0  0  0
   -5.7537    1.7729   -3.9220 H   0  0  0  0  0  0  0  0  0  0  0  0
   -5.0142    3.1164   -2.9659 H   0  0  0  0  0  0  0  0  0  0  0  0
   -6.6981    3.2047   -3.4950 H   0  0  0  0  0  0  0  0  0  0  0  0
   -3.8852    1.0507   -2.7051 H   0  0  0  0  0  0  0  0  0  0  0  0
    3.6256    2.1218    0.0372 H   0  0  0  0  0  0  0  0  0  0  0  0
    6.0221    1.7217   -0.3969 H   0  0  0  0  0  0  0  0  0  0  0  0
  1  2  1  0
  2  3  1  0
  3  4  2  0
  4  5  1  0
  5  6  2  0
  6  7  1  0
  7  8  2  3
  8  9  1  0
  9 10  1  0
 10 11  2  0
 10 12  1  0
 12 13  2  3
 13 14  1  0
 14 15  2  0
 15 16  1  0
 16 17  1  0
 17 18  1  0
 16 19  2  0
 19 20  1  0
 19 21  1  0
 21 22  1  0
 22 23  1  0
 21 24  2  0
 12 25  1  0
  6 26  1  0
 26 27  2  0
 27  3  1  0
 25  8  1  0
 24 14  1  0
  1 28  1  0
  1 29  1  0
  1 30  1  0
  2 31  1  0
  2 32  1  0
  4 33  1  0
  5 34  1  0
  9 35  1  0
 13 36  1  0
 15 37  1  0
 18 38  1  0
 18 39  1  0
 18 40  1  0
 20 41  1  0
 23 42  1  0
 23 43  1  0
 23 44  1  0
 24 45  1  0
 26 46  1  0
 27 47  1  0
M  END
$$$$
