
     RDKit          3D

 65 69  0  0  0  0  0  0  0  0999 V2000
    8.3982    0.0400    0.9502 O   0  0  0  0  0  0  0  0  0  0  0  0
    7.2550   -0.2745    0.5761 C   0  0  0  0  0  0  0  0  0  0  0  0
    6.9950   -1.6412   -0.1010 C   0  0  0  0  0  0  0  0  0  0  0  0
    7.2548   -1.7428   -1.6345 C   0  0  0  0  0  0  0  0  0  0  0  0
    7.7731   -3.1712   -1.3913 C   0  0  0  0  0  0  0  0  0  0  0  0
    8.1075   -2.7278    0.0429 C   0  0  0  0  0  0  0  0  0  0  0  0
    6.1998    0.6000    0.8231 N   0  0  0  0  0  0  0  0  0  0  0  0
    6.4660    1.8423    1.5667 C   0  0  0  0  0  0  0  0  0  0  0  0
    5.1145    2.4782    1.8847 C   0  0  0  0  0  0  0  0  0  0  0  0
    4.2137    1.7361    0.9465 C   0  0  0  0  0  0  0  0  0  0  0  0
    2.8880    2.0377    0.6654 C   0  0  0  0  0  0  0  0  0  0  0  0
    2.2100    1.2070   -0.2273 C   0  0  0  0  0  0  0  0  0  0  0  0
    0.5352    1.5789   -0.6926 S   0  0  0  0  0  6  0  0  0  0  0  0
    0.1487    2.8216   -0.0624 O   0  0  0  0  0  0  0  0  0  0  0  0
    0.4415    1.3841   -2.1222 O   0  0  0  0  0  0  0  0  0  0  0  0
   -0.3058    0.3146    0.0239 N   0  0  0  0  0  0  0  0  0  0  0  0
   -0.8831    0.5226    1.3664 C   0  0  0  0  0  0  0  0  0  0  0  0
   -2.2722    1.1844    1.2408 C   0  0  0  0  0  0  0  0  0  0  0  0
   -3.0951    0.5395    0.1950 N   0  0  0  0  0  0  0  0  0  0  0  0
   -4.1036    1.4883   -0.3257 C   0  0  0  0  0  0  0  0  0  0  0  0
   -5.2302    0.8096   -1.1377 C   0  0  0  0  0  0  0  0  0  0  0  0
   -5.9662   -0.1569   -0.3015 N   0  0  0  0  0  0  0  0  0  0  0  0
   -7.2922   -0.4662   -0.5792 C   0  0  0  0  0  0  0  0  0  0  0  0
   -8.1427   -0.9967    0.4089 C   0  0  0  0  0  0  0  0  0  0  0  0
   -9.4859   -1.3109    0.1498 C   0  0  0  0  0  0  0  0  0  0  0  0
  -10.0226   -1.1046   -1.1162 C   0  0  0  0  0  0  0  0  0  0  0  0
   -9.2146   -0.5867   -2.1199 C   0  0  0  0  0  0  0  0  0  0  0  0
   -7.8790   -0.2776   -1.8506 C   0  0  0  0  0  0  0  0  0  0  0  0
   -7.1518    0.1919   -2.8778 F   0  0  0  0  0  0  0  0  0  0  0  0
   -5.2621   -0.6661    0.8829 C   0  0  0  0  0  0  0  0  0  0  0  0
   -3.7287   -0.7203    0.6466 C   0  0  0  0  0  0  0  0  0  0  0  0
    2.8484    0.1031   -0.8132 C   0  0  0  0  0  0  0  0  0  0  0  0
    4.1846   -0.1881   -0.5071 C   0  0  0  0  0  0  0  0  0  0  0  0
    4.8658    0.6315    0.3767 C   0  0  0  0  0  0  0  0  0  0  0  0
    6.0380   -2.0793    0.2106 H   0  0  0  0  0  0  0  0  0  0  0  0
    8.0173   -1.0487   -2.0094 H   0  0  0  0  0  0  0  0  0  0  0  0
    6.3785   -1.6810   -2.2854 H   0  0  0  0  0  0  0  0  0  0  0  0
    6.9899   -3.9360   -1.4467 H   0  0  0  0  0  0  0  0  0  0  0  0
    8.6223   -3.4809   -2.0058 H   0  0  0  0  0  0  0  0  0  0  0  0
    9.1254   -2.3328    0.1451 H   0  0  0  0  0  0  0  0  0  0  0  0
    7.9399   -3.4802    0.8189 H   0  0  0  0  0  0  0  0  0  0  0  0
    7.0611    2.4933    0.9157 H   0  0  0  0  0  0  0  0  0  0  0  0
    7.0487    1.6361    2.4711 H   0  0  0  0  0  0  0  0  0  0  0  0
    4.8198    2.2753    2.9199 H   0  0  0  0  0  0  0  0  0  0  0  0
    5.1205    3.5567    1.7030 H   0  0  0  0  0  0  0  0  0  0  0  0
    2.4026    2.8985    1.1155 H   0  0  0  0  0  0  0  0  0  0  0  0
   -0.9860   -0.0871   -0.6345 H   0  0  0  0  0  0  0  0  0  0  0  0
   -0.9775   -0.4624    1.8379 H   0  0  0  0  0  0  0  0  0  0  0  0
   -0.2185    1.1178    1.9996 H   0  0  0  0  0  0  0  0  0  0  0  0
   -2.7851    1.1919    2.2102 H   0  0  0  0  0  0  0  0  0  0  0  0
   -2.1096    2.2355    0.9731 H   0  0  0  0  0  0  0  0  0  0  0  0
   -3.6039    2.2300   -0.9583 H   0  0  0  0  0  0  0  0  0  0  0  0
   -4.5688    2.0323    0.5065 H   0  0  0  0  0  0  0  0  0  0  0  0
   -4.8067    0.2967   -2.0103 H   0  0  0  0  0  0  0  0  0  0  0  0
   -5.8972    1.6079   -1.4894 H   0  0  0  0  0  0  0  0  0  0  0  0
   -7.7810   -1.1596    1.4209 H   0  0  0  0  0  0  0  0  0  0  0  0
  -10.1112   -1.7057    0.9451 H   0  0  0  0  0  0  0  0  0  0  0  0
  -11.0628   -1.3458   -1.3171 H   0  0  0  0  0  0  0  0  0  0  0  0
   -9.6061   -0.4179   -3.1192 H   0  0  0  0  0  0  0  0  0  0  0  0
   -5.5934   -1.6834    1.1318 H   0  0  0  0  0  0  0  0  0  0  0  0
   -5.4768   -0.0145    1.7418 H   0  0  0  0  0  0  0  0  0  0  0  0
   -3.2461   -1.1128    1.5507 H   0  0  0  0  0  0  0  0  0  0  0  0
   -3.5411   -1.4650   -0.1391 H   0  0  0  0  0  0  0  0  0  0  0  0
    2.3080   -0.5242   -1.5194 H   0  0  0  0  0  0  0  0  0  0  0  0
    4.6355   -1.0346   -1.0011 H   0  0  0  0  0  0  0  0  0  0  0  0
  1  2  2  0
  2  3  1  0
  3  4  1  0
  4  5  1  0
  5  6  1  0
  2  7  1  0
  7  8  1  0
  8  9  1  0
  9 10  1  0
 10 11  2  0
 11 12  1  0
 12 13  1  0
 13 14  2  0
 13 15  2  0
 13 16  1  0
 16 17  1  0
 17 18  1  0
 18 19  1  0
 19 20  1  0
 20 21  1  0
 21 22  1  0
 22 23  1  0
 23 24  2  0
 24 25  1  0
 25 26  2  0
 26 27  1  0
 27 28  2  0
 28 29  1  0
 22 30  1  0
 30 31  1  0
 12 32  2  0
 32 33  1  0
 33 34  2  0
  6  3  1  0
 34  7  1  0
 34 10  1  0
 31 19  1  0
 28 23  1  0
  3 35  1  0
  4 36  1  0
  4 37  1  0
  5 38  1  0
  5 39  1  0
  6 40  1  0
  6 41  1  0
  8 42  1  0
  8 43  1  0
  9 44  1  0
  9 45  1  0
 11 46  1  0
 16 47  1  0
 17 48  1  0
 17 49  1  0
 18 50  1  0
 18 51  1  0
 20 52  1  0
 20 53  1  0
 21 54  1  0
 21 55  1  0
 24 56  1  0
 25 57  1  0
 26 58  1  0
 27 59  1  0
 30 60  1  0
 30 61  1  0
 31 62  1  0
 31 63  1  0
 32 64  1  0
 33 65  1  0
M  END
$$$$
