
     RDKit          3D

 42 46  0  0  0  0  0  0  0  0999 V2000
    1.0027   -0.1948   -2.1978 O   0  0  0  0  0  0  0  0  0  0  0  0
    1.7229   -0.2216   -1.2051 C   0  0  0  0  0  0  0  0  0  0  0  0
    1.2875   -0.3832    0.0924 O   0  0  0  0  0  0  0  0  0  0  0  0
   -0.1126   -0.3700    0.2170 C   0  0  0  0  0  0  0  0  0  0  0  0
   -0.8288    0.7743    0.3466 C   0  0  0  0  0  0  0  0  0  0  0  0
   -0.1414    2.0775    0.3379 C   0  0  0  0  0  0  0  0  0  0  0  0
   -0.0627    2.8241   -0.8442 C   0  0  0  0  0  0  0  0  0  0  0  0
    0.6242    4.0389   -0.8640 C   0  0  0  0  0  0  0  0  0  0  0  0
    1.2342    4.5151    0.2958 C   0  0  0  0  0  0  0  0  0  0  0  0
    1.1582    3.7787    1.4773 C   0  0  0  0  0  0  0  0  0  0  0  0
    0.4737    2.5622    1.4996 C   0  0  0  0  0  0  0  0  0  0  0  0
   -2.3376    0.7296    0.4972 C   0  0  0  0  0  0  0  0  0  0  0  0
   -3.0086    1.7530    0.6013 O   0  0  0  0  0  0  0  0  0  0  0  0
   -2.8881   -0.5250    0.5210 N   0  0  0  0  0  0  0  0  0  0  0  0
   -2.1352   -1.6800    0.4191 C   0  0  0  0  0  0  0  0  0  0  0  0
   -2.9299   -2.8125    0.4860 C   0  0  0  0  0  0  0  0  0  0  0  0
   -2.3355   -4.0555    0.4068 C   0  0  0  0  0  0  0  0  0  0  0  0
   -0.9398   -4.1132    0.2618 C   0  0  0  0  0  0  0  0  0  0  0  0
   -0.1570   -2.9385    0.1964 C   0  0  0  0  0  0  0  0  0  0  0  0
   -0.7637   -1.6850    0.2748 C   0  0  0  0  0  0  0  0  0  0  0  0
   -4.3691   -2.4247    0.6404 C   0  0  0  0  0  0  0  0  0  0  0  0
   -4.2997   -0.8768    0.6604 C   0  0  0  0  0  0  0  0  0  0  0  0
    3.1644   -0.1099   -1.2034 C   0  0  0  0  0  0  0  0  0  0  0  0
    4.1020   -0.0690   -0.1842 C   0  0  0  0  0  0  0  0  0  0  0  0
    5.3727    0.0523   -0.7972 C   0  0  0  0  0  0  0  0  0  0  0  0
    5.1413    0.0785   -2.1509 C   0  0  0  0  0  0  0  0  0  0  0  0
    3.8130   -0.0195   -2.4081 O   0  0  0  0  0  0  0  0  0  0  0  0
   -0.5316    2.4610   -1.7570 H   0  0  0  0  0  0  0  0  0  0  0  0
    0.6800    4.6136   -1.7850 H   0  0  0  0  0  0  0  0  0  0  0  0
    1.7641    5.4640    0.2792 H   0  0  0  0  0  0  0  0  0  0  0  0
    1.6278    4.1546    2.3825 H   0  0  0  0  0  0  0  0  0  0  0  0
    0.4187    1.9988    2.4280 H   0  0  0  0  0  0  0  0  0  0  0  0
   -2.9240   -4.9664    0.4531 H   0  0  0  0  0  0  0  0  0  0  0  0
   -0.4496   -5.0829    0.1948 H   0  0  0  0  0  0  0  0  0  0  0  0
    0.9196   -3.0301    0.0807 H   0  0  0  0  0  0  0  0  0  0  0  0
   -4.9681   -2.7781   -0.2043 H   0  0  0  0  0  0  0  0  0  0  0  0
   -4.7854   -2.8091    1.5765 H   0  0  0  0  0  0  0  0  0  0  0  0
   -4.6816   -0.4616    1.5995 H   0  0  0  0  0  0  0  0  0  0  0  0
   -4.8631   -0.4306   -0.1665 H   0  0  0  0  0  0  0  0  0  0  0  0
    3.8892   -0.1146    0.8753 H   0  0  0  0  0  0  0  0  0  0  0  0
    6.3374    0.1165   -0.3134 H   0  0  0  0  0  0  0  0  0  0  0  0
    5.7798    0.1599   -3.0200 H   0  0  0  0  0  0  0  0  0  0  0  0
  1  2  2  0
  2  3  1  0
  3  4  1  0
  4  5  2  0
  5  6  1  0
  6  7  2  0
  7  8  1  0
  8  9  2  0
  9 10  1  0
 10 11  2  0
  5 12  1  0
 12 13  2  0
 12 14  1  0
 14 15  1  0
 15 16  2  0
 16 17  1  0
 17 18  2  0
 18 19  1  0
 19 20  2  0
 16 21  1  0
 21 22  1  0
  2 23  1  0
 23 24  2  0
 24 25  1  0
 25 26  2  0
 26 27  1  0
 20  4  1  0
 27 23  1  0
 11  6  1  0
 22 14  1  0
 20 15  1  0
  7 28  1  0
  8 29  1  0
  9 30  1  0
 10 31  1  0
 11 32  1  0
 17 33  1  0
 18 34  1  0
 19 35  1  0
 21 36  1  0
 21 37  1  0
 22 38  1  0
 22 39  1  0
 24 40  1  0
 25 41  1  0
 26 42  1  0
M  END
$$$$
