
     RDKit          3D

 37 39  0  0  0  0  0  0  0  0999 V2000
    5.3777    2.2109    0.3244 O   0  0  0  0  0  0  0  0  0  0  0  0
    5.5624    1.3347    1.4321 C   0  0  0  0  0  0  0  0  0  0  0  0
    5.2349   -0.0982    1.0164 C   0  0  0  0  0  0  0  0  0  0  0  0
    3.7820   -0.2141    0.7190 N   0  0  0  0  0  4  0  0  0  0  0  0
    3.3190    0.1632   -0.4958 C   0  0  0  0  0  0  0  0  0  0  0  0
    1.9672    0.0605   -0.8031 C   0  0  0  0  0  0  0  0  0  0  0  0
    1.0747   -0.4239    0.1511 C   0  0  0  0  0  0  0  0  0  0  0  0
   -0.3440   -0.5515   -0.2000 C   0  0  0  0  0  0  0  0  0  0  0  0
   -1.3580   -0.2853    0.6403 C   0  0  0  0  0  0  0  0  0  0  0  0
   -2.7452   -0.4107    0.3232 C   0  0  0  0  0  0  0  0  0  0  0  0
   -3.6845   -0.7907    1.2576 C   0  0  0  0  0  0  0  0  0  0  0  0
   -4.9050   -0.8317    0.6371 N   0  0  0  0  0  0  0  0  0  0  0  0
   -4.7821   -0.4561   -0.6807 C   0  0  0  0  0  0  0  0  0  0  0  0
   -5.7638   -0.3421   -1.6731 C   0  0  0  0  0  0  0  0  0  0  0  0
   -5.3614    0.0878   -2.9396 C   0  0  0  0  0  0  0  0  0  0  0  0
   -4.0302    0.3976   -3.1994 C   0  0  0  0  0  0  0  0  0  0  0  0
   -3.0608    0.2767   -2.1962 C   0  0  0  0  0  0  0  0  0  0  0  0
   -3.4328   -0.1710   -0.9090 C   0  0  0  0  0  0  0  0  0  0  0  0
    1.5767   -0.8203    1.3897 C   0  0  0  0  0  0  0  0  0  0  0  0
    2.9367   -0.7018    1.6543 C   0  0  0  0  0  0  0  0  0  0  0  0
    5.6815    3.1003    0.5954 H   0  0  0  0  0  0  0  0  0  0  0  0
    4.9162    1.6678    2.2500 H   0  0  0  0  0  0  0  0  0  0  0  0
    6.6075    1.4003    1.7496 H   0  0  0  0  0  0  0  0  0  0  0  0
    5.7714   -0.3909    0.1069 H   0  0  0  0  0  0  0  0  0  0  0  0
    5.4787   -0.8090    1.8125 H   0  0  0  0  0  0  0  0  0  0  0  0
    4.0390    0.5526   -1.2111 H   0  0  0  0  0  0  0  0  0  0  0  0
    1.6178    0.3732   -1.7855 H   0  0  0  0  0  0  0  0  0  0  0  0
   -0.5535   -0.8879   -1.2134 H   0  0  0  0  0  0  0  0  0  0  0  0
   -1.1414    0.0327    1.6579 H   0  0  0  0  0  0  0  0  0  0  0  0
   -3.5973   -1.0516    2.3038 H   0  0  0  0  0  0  0  0  0  0  0  0
   -5.7779   -1.0878    1.0785 H   0  0  0  0  0  0  0  0  0  0  0  0
   -6.8053   -0.5723   -1.4716 H   0  0  0  0  0  0  0  0  0  0  0  0
   -6.1020    0.1889   -3.7301 H   0  0  0  0  0  0  0  0  0  0  0  0
   -3.7414    0.7421   -4.1895 H   0  0  0  0  0  0  0  0  0  0  0  0
   -2.0326    0.5416   -2.4171 H   0  0  0  0  0  0  0  0  0  0  0  0
    0.9198   -1.2343    2.1522 H   0  0  0  0  0  0  0  0  0  0  0  0
    3.3560   -0.9998    2.6109 H   0  0  0  0  0  0  0  0  0  0  0  0
  1  2  1  0
  2  3  1  0
  3  4  1  0
  4  5  2  0
  5  6  1  0
  6  7  2  0
  7  8  1  0
  8  9  2  3
  9 10  1  0
 10 11  2  0
 11 12  1  0
 12 13  1  0
 13 14  2  0
 14 15  1  0
 15 16  2  0
 16 17  1  0
 17 18  2  0
  7 19  1  0
 19 20  2  0
 20  4  1  0
 18 10  1  0
 18 13  1  0
  1 21  1  0
  2 22  1  0
  2 23  1  0
  3 24  1  0
  3 25  1  0
  5 26  1  0
  6 27  1  0
  8 28  1  0
  9 29  1  0
 11 30  1  0
 12 31  1  0
 14 32  1  0
 15 33  1  0
 16 34  1  0
 17 35  1  0
 19 36  1  0
 20 37  1  0
M  CHG  1   4   1
M  END
$$$$
