
     RDKit          3D

 61 66  0  0  0  0  0  0  0  0999 V2000
    7.7218   -2.8308   -0.3015 C   0  0  0  0  0  0  0  0  0  0  0  0
    8.0847   -1.6324    0.3100 C   0  0  0  0  0  0  0  0  0  0  0  0
    7.2181   -0.5374    0.2747 C   0  0  0  0  0  0  0  0  0  0  0  0
    5.9793   -0.6306   -0.3746 C   0  0  0  0  0  0  0  0  0  0  0  0
    5.0372    0.5512   -0.4060 C   0  0  0  0  0  0  0  0  0  0  0  0
    3.9384    0.5018    0.6755 C   0  0  0  0  0  0  0  0  0  0  0  0
    2.9111   -0.5357    0.4675 N   0  0  0  0  0  0  0  0  0  0  0  0
    2.1027   -0.7457    1.6914 C   0  0  0  0  0  0  0  0  0  0  0  0
    1.0802    0.3687    2.0170 C   0  0  0  0  0  0  0  0  0  0  0  0
    0.2183    0.7168    0.8666 N   0  0  0  0  0  0  0  0  0  0  0  0
   -1.0034    0.1050    0.7499 C   0  0  0  0  0  0  0  0  0  0  0  0
   -1.3327   -1.2248    0.9363 C   0  0  0  0  0  0  0  0  0  0  0  0
   -2.6826   -1.4015    0.5686 C   0  0  0  0  0  0  0  0  0  0  0  0
   -3.1885   -0.1633    0.2232 C   0  0  0  0  0  0  0  0  0  0  0  0
   -4.4956    0.2513   -0.2451 C   0  0  0  0  0  0  0  0  0  0  0  0
   -5.6055   -0.7275   -0.3805 C   0  0  0  0  0  0  0  0  0  0  0  0
   -6.3489   -0.7439   -1.5662 C   0  0  0  0  0  0  0  0  0  0  0  0
   -7.4125   -1.6367   -1.7088 C   0  0  0  0  0  0  0  0  0  0  0  0
   -7.7430   -2.5012   -0.6645 C   0  0  0  0  0  0  0  0  0  0  0  0
   -7.0170   -2.4709    0.5280 C   0  0  0  0  0  0  0  0  0  0  0  0
   -5.9531   -1.5789    0.6750 C   0  0  0  0  0  0  0  0  0  0  0  0
   -4.7264    1.4878   -0.5741 N   0  0  0  0  0  0  0  0  0  0  0  0
   -3.7133    2.4481   -0.3920 C   0  0  0  0  0  0  0  0  0  0  0  0
   -4.0258    3.7781   -0.6920 C   0  0  0  0  0  0  0  0  0  0  0  0
   -3.0921    4.7946   -0.4897 C   0  0  0  0  0  0  0  0  0  0  0  0
   -1.8366    4.4873    0.0286 C   0  0  0  0  0  0  0  0  0  0  0  0
   -1.5048    3.1638    0.3298 C   0  0  0  0  0  0  0  0  0  0  0  0
   -2.4319    2.1429    0.1015 C   0  0  0  0  0  0  0  0  0  0  0  0
   -2.1710    0.7712    0.3603 N   0  0  0  0  0  0  0  0  0  0  0  0
    0.9789    0.9128   -0.3930 C   0  0  0  0  0  0  0  0  0  0  0  0
    1.9847   -0.2357   -0.6504 C   0  0  0  0  0  0  0  0  0  0  0  0
    5.6241   -1.8428   -0.9813 C   0  0  0  0  0  0  0  0  0  0  0  0
    6.4917   -2.9365   -0.9462 C   0  0  0  0  0  0  0  0  0  0  0  0
    8.3950   -3.6835   -0.2710 H   0  0  0  0  0  0  0  0  0  0  0  0
    9.0410   -1.5497    0.8185 H   0  0  0  0  0  0  0  0  0  0  0  0
    7.5164    0.3894    0.7602 H   0  0  0  0  0  0  0  0  0  0  0  0
    4.6131    0.6545   -1.4120 H   0  0  0  0  0  0  0  0  0  0  0  0
    5.6230    1.4679   -0.2535 H   0  0  0  0  0  0  0  0  0  0  0  0
    3.4798    1.4943    0.7518 H   0  0  0  0  0  0  0  0  0  0  0  0
    4.4373    0.3201    1.6369 H   0  0  0  0  0  0  0  0  0  0  0  0
    1.5717   -1.6973    1.5730 H   0  0  0  0  0  0  0  0  0  0  0  0
    2.7605   -0.8963    2.5569 H   0  0  0  0  0  0  0  0  0  0  0  0
    0.4747    0.0764    2.8845 H   0  0  0  0  0  0  0  0  0  0  0  0
    1.6185    1.2762    2.3173 H   0  0  0  0  0  0  0  0  0  0  0  0
   -0.6531   -2.0091    1.2397 H   0  0  0  0  0  0  0  0  0  0  0  0
   -3.2153   -2.3432    0.5493 H   0  0  0  0  0  0  0  0  0  0  0  0
   -6.1025   -0.0602   -2.3756 H   0  0  0  0  0  0  0  0  0  0  0  0
   -7.9896   -1.6496   -2.6302 H   0  0  0  0  0  0  0  0  0  0  0  0
   -8.5764   -3.1910   -0.7757 H   0  0  0  0  0  0  0  0  0  0  0  0
   -7.2892   -3.1319    1.3478 H   0  0  0  0  0  0  0  0  0  0  0  0
   -5.4164   -1.5387    1.6196 H   0  0  0  0  0  0  0  0  0  0  0  0
   -5.0143    4.0184   -1.0766 H   0  0  0  0  0  0  0  0  0  0  0  0
   -3.3514    5.8239   -0.7216 H   0  0  0  0  0  0  0  0  0  0  0  0
   -1.1143    5.2796    0.2076 H   0  0  0  0  0  0  0  0  0  0  0  0
   -0.5317    2.9703    0.7639 H   0  0  0  0  0  0  0  0  0  0  0  0
    1.5152    1.8673   -0.3258 H   0  0  0  0  0  0  0  0  0  0  0  0
    0.3024    1.0016   -1.2538 H   0  0  0  0  0  0  0  0  0  0  0  0
    1.4186   -1.1526   -0.8623 H   0  0  0  0  0  0  0  0  0  0  0  0
    2.5424   -0.0278   -1.5693 H   0  0  0  0  0  0  0  0  0  0  0  0
    4.6594   -1.9430   -1.4731 H   0  0  0  0  0  0  0  0  0  0  0  0
    6.1989   -3.8708   -1.4154 H   0  0  0  0  0  0  0  0  0  0  0  0
  1  2  2  0
  2  3  1  0
  3  4  2  0
  4  5  1  0
  5  6  1  0
  6  7  1  0
  7  8  1  0
  8  9  1  0
  9 10  1  0
 10 11  1  0
 11 12  2  0
 12 13  1  0
 13 14  2  0
 14 15  1  0
 15 16  1  0
 16 17  2  0
 17 18  1  0
 18 19  2  0
 19 20  1  0
 20 21  2  0
 15 22  2  0
 22 23  1  0
 23 24  2  0
 24 25  1  0
 25 26  2  0
 26 27  1  0
 27 28  2  0
 28 29  1  0
 10 30  1  0
 30 31  1  0
  4 32  1  0
 32 33  2  0
 33  1  1  0
 31  7  1  0
 29 11  1  0
 29 14  1  0
 21 16  1  0
 28 23  1  0
  1 34  1  0
  2 35  1  0
  3 36  1  0
  5 37  1  0
  5 38  1  0
  6 39  1  0
  6 40  1  0
  8 41  1  0
  8 42  1  0
  9 43  1  0
  9 44  1  0
 12 45  1  0
 13 46  1  0
 17 47  1  0
 18 48  1  0
 19 49  1  0
 20 50  1  0
 21 51  1  0
 24 52  1  0
 25 53  1  0
 26 54  1  0
 27 55  1  0
 30 56  1  0
 30 57  1  0
 31 58  1  0
 31 59  1  0
 32 60  1  0
 33 61  1  0
M  END
$$$$
