
     RDKit          3D

 47 49  0  0  0  0  0  0  0  0999 V2000
   -3.3256   -1.3032   -2.3422 C   0  0  0  0  0  0  0  0  0  0  0  0
   -3.0028   -0.2121   -1.3350 C   0  0  0  0  0  0  0  0  0  0  0  0
   -3.3859   -0.6037    0.0285 N   0  0  0  0  0  4  0  0  0  0  0  0
   -2.5514   -1.2014    0.8688 C   0  0  0  0  0  0  0  0  0  0  0  0
   -1.1993   -1.5455    0.6384 C   0  0  0  0  0  0  0  0  0  0  0  0
   -0.1876   -0.6635    0.6823 C   0  0  0  0  0  0  0  0  0  0  0  0
   -0.2626    0.7522    0.9953 C   0  0  0  0  0  0  0  0  0  0  0  0
    0.7594    1.6212    0.9197 C   0  0  0  0  0  0  0  0  0  0  0  0
    2.1208    1.2964    0.4914 C   0  0  0  0  0  0  0  0  0  0  0  0
    3.0336    0.7413    1.3838 C   0  0  0  0  0  0  0  0  0  0  0  0
    4.3267    0.4057    0.9561 C   0  0  0  0  0  0  0  0  0  0  0  0
    4.7631    0.6204   -0.3638 C   0  0  0  0  0  0  0  0  0  0  0  0
    6.0456    0.2610   -0.7943 N   0  0  0  0  0  0  0  0  0  0  0  0
    7.0585   -0.0952    0.2002 C   0  0  0  0  0  0  0  0  0  0  0  0
    6.5668    0.8536   -2.0272 C   0  0  0  0  0  0  0  0  0  0  0  0
    3.8124    1.1767   -1.2393 C   0  0  0  0  0  0  0  0  0  0  0  0
    2.5157    1.5156   -0.8248 C   0  0  0  0  0  0  0  0  0  0  0  0
   -3.3295   -1.5845    2.3467 S   0  0  0  0  0  0  0  0  0  0  0  0
   -4.8114   -0.8834    1.8272 C   0  0  0  0  0  0  0  0  0  0  0  0
   -6.0240   -0.7793    2.5261 C   0  0  0  0  0  0  0  0  0  0  0  0
   -7.1051   -0.1732    1.8822 C   0  0  0  0  0  0  0  0  0  0  0  0
   -6.9837    0.3108    0.5839 C   0  0  0  0  0  0  0  0  0  0  0  0
   -5.7713    0.2047   -0.1090 C   0  0  0  0  0  0  0  0  0  0  0  0
   -4.6677   -0.3989    0.5289 C   0  0  0  0  0  0  0  0  0  0  0  0
   -3.0367   -0.9896   -3.3498 H   0  0  0  0  0  0  0  0  0  0  0  0
   -2.7897   -2.2271   -2.1028 H   0  0  0  0  0  0  0  0  0  0  0  0
   -4.3959   -1.5314   -2.3476 H   0  0  0  0  0  0  0  0  0  0  0  0
   -1.9366    0.0267   -1.3830 H   0  0  0  0  0  0  0  0  0  0  0  0
   -3.5174    0.7168   -1.6040 H   0  0  0  0  0  0  0  0  0  0  0  0
   -0.9710   -2.5918    0.4411 H   0  0  0  0  0  0  0  0  0  0  0  0
    0.8119   -1.0569    0.4825 H   0  0  0  0  0  0  0  0  0  0  0  0
   -1.2123    1.1523    1.3435 H   0  0  0  0  0  0  0  0  0  0  0  0
    0.6082    2.6652    1.1889 H   0  0  0  0  0  0  0  0  0  0  0  0
    2.7565    0.5580    2.4192 H   0  0  0  0  0  0  0  0  0  0  0  0
    4.9880   -0.0307    1.6988 H   0  0  0  0  0  0  0  0  0  0  0  0
    7.2660    0.7469    0.8696 H   0  0  0  0  0  0  0  0  0  0  0  0
    6.7488   -0.9666    0.7872 H   0  0  0  0  0  0  0  0  0  0  0  0
    8.0021   -0.3788   -0.2795 H   0  0  0  0  0  0  0  0  0  0  0  0
    5.9785    0.5406   -2.8963 H   0  0  0  0  0  0  0  0  0  0  0  0
    6.5789    1.9473   -1.9641 H   0  0  0  0  0  0  0  0  0  0  0  0
    7.5927    0.5232   -2.2256 H   0  0  0  0  0  0  0  0  0  0  0  0
    4.0566    1.3588   -2.2816 H   0  0  0  0  0  0  0  0  0  0  0  0
    1.8284    1.9473   -1.5473 H   0  0  0  0  0  0  0  0  0  0  0  0
   -6.1277   -1.1602    3.5400 H   0  0  0  0  0  0  0  0  0  0  0  0
   -8.0575   -0.0819    2.4053 H   0  0  0  0  0  0  0  0  0  0  0  0
   -7.8447    0.7763    0.1037 H   0  0  0  0  0  0  0  0  0  0  0  0
   -5.7219    0.5923   -1.1225 H   0  0  0  0  0  0  0  0  0  0  0  0
  1  2  1  0
  2  3  1  0
  3  4  2  0
  4  5  1  0
  5  6  2  3
  6  7  1  0
  7  8  2  3
  8  9  1  0
  9 10  2  0
 10 11  1  0
 11 12  2  0
 12 13  1  0
 13 14  1  0
 13 15  1  0
 12 16  1  0
 16 17  2  0
  4 18  1  0
 18 19  1  0
 19 20  2  0
 20 21  1  0
 21 22  2  0
 22 23  1  0
 23 24  2  0
 24  3  1  0
 17  9  1  0
 24 19  1  0
  1 25  1  0
  1 26  1  0
  1 27  1  0
  2 28  1  0
  2 29  1  0
  5 30  1  0
  6 31  1  0
  7 32  1  0
  8 33  1  0
 10 34  1  0
 11 35  1  0
 14 36  1  0
 14 37  1  0
 14 38  1  0
 15 39  1  0
 15 40  1  0
 15 41  1  0
 16 42  1  0
 17 43  1  0
 20 44  1  0
 21 45  1  0
 22 46  1  0
 23 47  1  0
M  CHG  1   3   1
M  END
$$$$
