
     RDKit          3D

 53 58  0  0  0  0  0  0  0  0999 V2000
    0.4997   -1.9731    0.2211 O   0  0  0  0  0  0  0  0  0  0  0  0
    1.2627   -1.1294   -0.2558 C   0  0  0  0  0  0  0  0  0  0  0  0
    0.6961   -0.1624   -1.3193 C   0  0  0  0  0  0  0  0  0  0  0  0
   -0.6930    0.2015   -0.9797 N   0  0  0  0  0  4  0  0  0  0  0  0
   -1.8515   -0.1588   -1.6624 C   0  0  0  0  0  0  0  0  0  0  0  0
   -2.9562    0.2980   -0.9509 C   0  0  0  0  0  0  0  0  0  0  0  0
   -4.4668    0.0801   -1.3319 C   0  0  0  0  0  0  0  0  0  0  0  0
   -5.4883    0.5535   -0.5031 C   0  0  0  0  0  0  0  0  0  0  0  0
   -6.8278    0.3426   -0.8481 C   0  0  0  0  0  0  0  0  0  0  0  0
   -7.1399   -0.3393   -2.0156 C   0  0  0  0  0  0  0  0  0  0  0  0
   -8.4226   -0.5385   -2.3428 F   0  0  0  0  0  0  0  0  0  0  0  0
   -6.1367   -0.8168   -2.8471 C   0  0  0  0  0  0  0  0  0  0  0  0
   -4.7966   -0.6086   -2.5076 C   0  0  0  0  0  0  0  0  0  0  0  0
   -2.3904    0.9451    0.1334 N   0  0  0  0  0  0  0  0  0  0  0  0
   -1.0666    0.8274    0.1307 C   0  0  0  0  0  0  0  0  0  0  0  0
   -0.4214    1.4264    1.3221 C   0  0  0  0  0  0  0  0  0  0  0  0
   -1.5690    2.2705    1.9093 C   0  0  0  0  0  0  0  0  0  0  0  0
   -2.8647    1.6498    1.3158 C   0  0  0  0  0  0  0  0  0  0  0  0
    2.5622   -0.8394    0.1993 N   0  0  0  0  0  0  0  0  0  0  0  0
    2.9635   -1.1235    1.5576 C   0  0  0  0  0  0  0  0  0  0  0  0
    2.4240   -2.2116    2.2668 C   0  0  0  0  0  0  0  0  0  0  0  0
    2.7898   -2.4801    3.5897 C   0  0  0  0  0  0  0  0  0  0  0  0
    3.7037   -1.6630    4.2389 C   0  0  0  0  0  0  0  0  0  0  0  0
    4.2539   -0.5785    3.5637 C   0  0  0  0  0  0  0  0  0  0  0  0
    3.8941   -0.3090    2.2341 C   0  0  0  0  0  0  0  0  0  0  0  0
    4.5852    1.1521    1.4907 S   0  0  0  0  0  0  0  0  0  0  0  0
    4.5342    0.6329   -0.2013 C   0  0  0  0  0  0  0  0  0  0  0  0
    5.4738    1.1777   -1.0880 C   0  0  0  0  0  0  0  0  0  0  0  0
    5.4816    0.8069   -2.4311 C   0  0  0  0  0  0  0  0  0  0  0  0
    4.5517   -0.1135   -2.8961 C   0  0  0  0  0  0  0  0  0  0  0  0
    3.6046   -0.6502   -2.0202 C   0  0  0  0  0  0  0  0  0  0  0  0
    3.5607   -0.2660   -0.6648 C   0  0  0  0  0  0  0  0  0  0  0  0
    1.2541    0.7767   -1.3650 H   0  0  0  0  0  0  0  0  0  0  0  0
    0.7062   -0.6531   -2.2962 H   0  0  0  0  0  0  0  0  0  0  0  0
   -1.7432   -0.7242   -2.5718 H   0  0  0  0  0  0  0  0  0  0  0  0
   -5.2853    1.0807    0.4194 H   0  0  0  0  0  0  0  0  0  0  0  0
   -7.6320    0.7031   -0.2130 H   0  0  0  0  0  0  0  0  0  0  0  0
   -6.4068   -1.3507   -3.7527 H   0  0  0  0  0  0  0  0  0  0  0  0
   -4.0402   -1.0006   -3.1798 H   0  0  0  0  0  0  0  0  0  0  0  0
   -0.1365    0.5975    1.9735 H   0  0  0  0  0  0  0  0  0  0  0  0
    0.4391    2.0162    1.0049 H   0  0  0  0  0  0  0  0  0  0  0  0
   -1.5697    2.2979    3.0025 H   0  0  0  0  0  0  0  0  0  0  0  0
   -1.4747    3.3019    1.5450 H   0  0  0  0  0  0  0  0  0  0  0  0
   -3.3069    0.9258    2.0057 H   0  0  0  0  0  0  0  0  0  0  0  0
   -3.5834    2.4274    1.0482 H   0  0  0  0  0  0  0  0  0  0  0  0
    1.7400   -2.9167    1.8033 H   0  0  0  0  0  0  0  0  0  0  0  0
    2.3638   -3.3386    4.1069 H   0  0  0  0  0  0  0  0  0  0  0  0
    3.9913   -1.8699    5.2673 H   0  0  0  0  0  0  0  0  0  0  0  0
    4.9657    0.0588    4.0855 H   0  0  0  0  0  0  0  0  0  0  0  0
    6.2144    1.8943   -0.7350 H   0  0  0  0  0  0  0  0  0  0  0  0
    6.2261    1.2250   -3.1065 H   0  0  0  0  0  0  0  0  0  0  0  0
    4.5804   -0.4307   -3.9378 H   0  0  0  0  0  0  0  0  0  0  0  0
    2.9473   -1.4235   -2.4121 H   0  0  0  0  0  0  0  0  0  0  0  0
  1  2  2  0
  2  3  1  0
  3  4  1  0
  4  5  1  0
  5  6  2  0
  6  7  1  0
  7  8  2  0
  8  9  1  0
  9 10  2  0
 10 11  1  0
 10 12  1  0
 12 13  2  0
  6 14  1  0
 14 15  1  0
 15 16  1  0
 16 17  1  0
 17 18  1  0
  2 19  1  0
 19 20  1  0
 20 21  2  0
 21 22  1  0
 22 23  2  0
 23 24  1  0
 24 25  2  0
 25 26  1  0
 26 27  1  0
 27 28  2  0
 28 29  1  0
 29 30  2  0
 30 31  1  0
 31 32  2  0
 15  4  2  0
 32 19  1  0
 13  7  1  0
 18 14  1  0
 25 20  1  0
 32 27  1  0
  3 33  1  0
  3 34  1  0
  5 35  1  0
  8 36  1  0
  9 37  1  0
 12 38  1  0
 13 39  1  0
 16 40  1  0
 16 41  1  0
 17 42  1  0
 17 43  1  0
 18 44  1  0
 18 45  1  0
 21 46  1  0
 22 47  1  0
 23 48  1  0
 24 49  1  0
 28 50  1  0
 29 51  1  0
 30 52  1  0
 31 53  1  0
M  CHG  1   4   1
M  END
$$$$
