
     RDKit          3D

 48 51  0  0  0  0  0  0  0  0999 V2000
    3.3421    3.0879   -0.0694 C   0  0  0  0  0  0  0  0  0  0  0  0
    3.4524    2.0980    1.0805 C   0  0  0  0  0  0  0  0  0  0  0  0
    3.0436    0.7621    0.6564 N   0  0  0  0  0  0  0  0  0  0  0  0
    1.7600    0.2080    0.6986 C   0  0  0  0  0  0  0  0  0  0  0  0
    0.6391    0.8284    1.1154 C   0  0  0  0  0  0  0  0  0  0  0  0
   -0.7067    0.2393    1.1606 C   0  0  0  0  0  0  0  0  0  0  0  0
   -1.0037   -0.6214    2.2185 C   0  0  0  0  0  0  0  0  0  0  0  0
   -2.2548   -1.1988    2.3140 C   0  0  0  0  0  0  0  0  0  0  0  0
   -3.2118   -0.9154    1.3485 C   0  0  0  0  0  0  0  0  0  0  0  0
   -4.4813   -1.5079    1.4408 C   0  0  0  0  0  0  0  0  0  0  0  0
   -5.4720   -1.2442    0.4916 C   0  0  0  0  0  0  0  0  0  0  0  0
   -6.8139   -1.9127    0.5845 C   0  0  0  0  0  0  0  0  0  0  0  0
   -5.1736   -0.3994   -0.5750 C   0  0  0  0  0  0  0  0  0  0  0  0
   -3.9116    0.1987   -0.6784 C   0  0  0  0  0  0  0  0  0  0  0  0
   -2.9023   -0.0344    0.2764 C   0  0  0  0  0  0  0  0  0  0  0  0
   -1.6499    0.5385    0.2156 N   0  0  0  0  0  4  0  0  0  0  0  0
   -1.3149    1.5027   -0.8767 C   0  0  0  0  0  0  0  0  0  0  0  0
   -0.8680    0.7639   -2.1235 C   0  0  0  0  0  0  0  0  0  0  0  0
    1.6828   -1.4720    0.0918 S   0  0  0  0  0  0  0  0  0  0  0  0
    3.4306   -1.3818   -0.2673 C   0  0  0  0  0  0  0  0  0  0  0  0
    4.1921   -2.3934   -0.8363 C   0  0  0  0  0  0  0  0  0  0  0  0
    5.5462   -2.1554   -1.0610 C   0  0  0  0  0  0  0  0  0  0  0  0
    6.1115   -0.9212   -0.7187 C   0  0  0  0  0  0  0  0  0  0  0  0
    5.3322    0.0920   -0.1445 C   0  0  0  0  0  0  0  0  0  0  0  0
    3.9794   -0.1300    0.0906 C   0  0  0  0  0  0  0  0  0  0  0  0
    3.9922    2.8055   -0.9036 H   0  0  0  0  0  0  0  0  0  0  0  0
    3.6328    4.0890    0.2637 H   0  0  0  0  0  0  0  0  0  0  0  0
    2.3162    3.1405   -0.4488 H   0  0  0  0  0  0  0  0  0  0  0  0
    2.8219    2.4407    1.9094 H   0  0  0  0  0  0  0  0  0  0  0  0
    4.4702    2.1001    1.4865 H   0  0  0  0  0  0  0  0  0  0  0  0
    0.6864    1.8509    1.4767 H   0  0  0  0  0  0  0  0  0  0  0  0
   -0.2517   -0.8538    2.9723 H   0  0  0  0  0  0  0  0  0  0  0  0
   -2.4689   -1.8739    3.1422 H   0  0  0  0  0  0  0  0  0  0  0  0
   -4.7103   -2.1886    2.2622 H   0  0  0  0  0  0  0  0  0  0  0  0
   -6.7869   -2.8779    0.0696 H   0  0  0  0  0  0  0  0  0  0  0  0
   -7.5927   -1.2907    0.1308 H   0  0  0  0  0  0  0  0  0  0  0  0
   -7.0966   -2.0754    1.6299 H   0  0  0  0  0  0  0  0  0  0  0  0
   -5.9252   -0.2011   -1.3395 H   0  0  0  0  0  0  0  0  0  0  0  0
   -3.7626    0.8369   -1.5437 H   0  0  0  0  0  0  0  0  0  0  0  0
   -0.5400    2.1947   -0.5369 H   0  0  0  0  0  0  0  0  0  0  0  0
   -2.1885    2.1342   -1.0630 H   0  0  0  0  0  0  0  0  0  0  0  0
   -0.6709    1.4757   -2.9311 H   0  0  0  0  0  0  0  0  0  0  0  0
   -1.6246    0.0560   -2.4732 H   0  0  0  0  0  0  0  0  0  0  0  0
    0.0501    0.1999   -1.9447 H   0  0  0  0  0  0  0  0  0  0  0  0
    3.7506   -3.3486   -1.1014 H   0  0  0  0  0  0  0  0  0  0  0  0
    6.1682   -2.9303   -1.5041 H   0  0  0  0  0  0  0  0  0  0  0  0
    7.1707   -0.7483   -0.9007 H   0  0  0  0  0  0  0  0  0  0  0  0
    5.8120    1.0331    0.1008 H   0  0  0  0  0  0  0  0  0  0  0  0
  1  2  1  0
  2  3  1  0
  3  4  1  0
  4  5  2  3
  5  6  1  0
  6  7  2  0
  7  8  1  0
  8  9  2  0
  9 10  1  0
 10 11  2  0
 11 12  1  0
 11 13  1  0
 13 14  2  0
 14 15  1  0
 15 16  2  0
 16 17  1  0
 17 18  1  0
  4 19  1  0
 19 20  1  0
 20 21  2  0
 21 22  1  0
 22 23  2  0
 23 24  1  0
 24 25  2  0
 25  3  1  0
 16  6  1  0
 25 20  1  0
 15  9  1  0
  1 26  1  0
  1 27  1  0
  1 28  1  0
  2 29  1  0
  2 30  1  0
  5 31  1  0
  7 32  1  0
  8 33  1  0
 10 34  1  0
 12 35  1  0
 12 36  1  0
 12 37  1  0
 13 38  1  0
 14 39  1  0
 17 40  1  0
 17 41  1  0
 18 42  1  0
 18 43  1  0
 18 44  1  0
 21 45  1  0
 22 46  1  0
 23 47  1  0
 24 48  1  0
M  CHG  1  16   1
M  END
$$$$
