
     RDKit          3D

 69 75  0  0  0  0  0  0  0  0999 V2000
   -4.6342    5.3302    0.8052 C   0  0  0  0  0  0  0  0  0  0  0  0
   -3.8356    4.3175    0.0414 C   0  0  0  0  0  0  0  0  0  0  0  0
   -3.8341    4.2892   -1.3667 C   0  0  0  0  0  0  0  0  0  0  0  0
   -4.7605    5.4270   -2.2861 Cl  0  0  0  0  0  0  0  0  0  0  0  0
   -3.0769    3.3444   -2.0880 C   0  0  0  0  0  0  0  0  0  0  0  0
   -2.2992    2.3956   -1.4247 C   0  0  0  0  0  0  0  0  0  0  0  0
   -2.2984    2.4094   -0.0398 C   0  0  0  0  0  0  0  0  0  0  0  0
   -3.0463    3.3619    0.6701 C   0  0  0  0  0  0  0  0  0  0  0  0
   -2.8462    3.1879    2.0399 N   0  0  0  0  0  0  0  0  0  0  0  0
   -1.9775    2.1271    2.3082 C   0  0  0  0  0  0  0  0  0  0  0  0
   -1.6249    1.7826    3.4268 O   0  0  0  0  0  0  0  0  0  0  0  0
   -1.5666    1.5376    0.9376 C   0  0  1  0  0  0  0  0  0  0  0  0
   -1.9779    0.1210    0.7575 C   0  0  0  0  0  0  0  0  0  0  0  0
   -0.8600   -0.7195    0.8813 C   0  0  0  0  0  0  0  0  0  0  0  0
   -1.2441   -2.0127    0.6724 C   0  0  0  0  0  0  0  0  0  0  0  0
   -0.4734   -3.0965    0.5933 O   0  0  0  0  0  0  0  0  0  0  0  0
   -2.6402   -1.9932    0.4796 N   0  0  0  0  0  0  0  0  0  0  0  0
   -3.4655   -3.1319    0.2478 C   0  0  0  0  0  0  0  0  0  0  0  0
   -4.5092   -3.0623   -0.6844 C   0  0  0  0  0  0  0  0  0  0  0  0
   -5.3152   -4.1792   -0.9099 C   0  0  0  0  0  0  0  0  0  0  0  0
   -5.0864   -5.3613   -0.2064 C   0  0  0  0  0  0  0  0  0  0  0  0
   -4.0498   -5.4322    0.7237 C   0  0  0  0  0  0  0  0  0  0  0  0
   -3.2367   -4.3210    0.9528 C   0  0  0  0  0  0  0  0  0  0  0  0
   -3.0860   -0.6577    0.5590 C   0  0  0  0  0  0  0  0  0  0  0  0
   -4.3623   -0.2778    0.5162 O   0  0  0  0  0  0  0  0  0  0  0  0
    0.3424    0.0783    1.1888 C   0  0  1  0  0  0  0  0  0  0  0  0
    1.6628   -0.2825    0.5177 C   0  0  0  0  0  0  0  0  0  0  0  0
    2.6816    0.7719    0.7430 N   0  0  0  0  0  0  0  0  0  0  0  0
    4.0511    0.5649    0.7046 C   0  0  0  0  0  0  0  0  0  0  0  0
    4.8614    1.4819    0.8179 O   0  0  0  0  0  0  0  0  0  0  0  0
    4.4434   -0.7387    0.5586 N   0  0  0  0  0  0  0  0  0  0  0  0
    5.8438   -1.0908    0.4701 C   0  0  0  0  0  0  0  0  0  0  0  0
    6.2748   -1.2506   -0.9660 C   0  0  0  0  0  0  0  0  0  0  0  0
    6.6314   -0.1275   -1.7262 C   0  0  0  0  0  0  0  0  0  0  0  0
    7.0142   -0.2672   -3.0609 C   0  0  0  0  0  0  0  0  0  0  0  0
    7.0373   -1.5294   -3.6511 C   0  0  0  0  0  0  0  0  0  0  0  0
    6.6743   -2.6523   -2.9090 C   0  0  0  0  0  0  0  0  0  0  0  0
    6.2915   -2.5145   -1.5732 C   0  0  0  0  0  0  0  0  0  0  0  0
    2.2169    2.1692    0.6109 C   0  0  0  0  0  0  0  0  0  0  0  0
    0.8035    2.4462    1.1834 C   0  0  0  0  0  0  0  0  0  0  0  0
   -0.1066    1.4211    0.7051 N   0  0  0  0  0  0  0  0  0  0  0  0
   -4.5711    5.1845    1.8870 H   0  0  0  0  0  0  0  0  0  0  0  0
   -4.2697    6.3402    0.5910 H   0  0  0  0  0  0  0  0  0  0  0  0
   -5.6938    5.2609    0.5380 H   0  0  0  0  0  0  0  0  0  0  0  0
   -3.0936    3.3494   -3.1757 H   0  0  0  0  0  0  0  0  0  0  0  0
   -1.7125    1.6667   -1.9754 H   0  0  0  0  0  0  0  0  0  0  0  0
   -3.2606    3.7360    2.7775 H   0  0  0  0  0  0  0  0  0  0  0  0
   -0.9515   -3.7894    0.1038 H   0  0  0  0  0  0  0  0  0  0  0  0
   -4.6829   -2.1650   -1.2766 H   0  0  0  0  0  0  0  0  0  0  0  0
   -6.1180   -4.1312   -1.6423 H   0  0  0  0  0  0  0  0  0  0  0  0
   -5.7186   -6.2286   -0.3821 H   0  0  0  0  0  0  0  0  0  0  0  0
   -3.8838   -6.3517    1.2809 H   0  0  0  0  0  0  0  0  0  0  0  0
   -2.4656   -4.3882    1.7185 H   0  0  0  0  0  0  0  0  0  0  0  0
   -4.9291   -1.0389    0.7354 H   0  0  0  0  0  0  0  0  0  0  0  0
    0.4776    0.0978    2.2801 H   0  0  0  0  0  0  0  0  0  0  0  0
    1.5490   -0.3960   -0.5677 H   0  0  0  0  0  0  0  0  0  0  0  0
    2.0153   -1.2399    0.9148 H   0  0  0  0  0  0  0  0  0  0  0  0
    3.8283   -1.3269    0.0231 H   0  0  0  0  0  0  0  0  0  0  0  0
    5.9685   -2.0383    1.0059 H   0  0  0  0  0  0  0  0  0  0  0  0
    6.4709   -0.3501    0.9789 H   0  0  0  0  0  0  0  0  0  0  0  0
    6.6071    0.8645   -1.2761 H   0  0  0  0  0  0  0  0  0  0  0  0
    7.2923    0.6108   -3.6383 H   0  0  0  0  0  0  0  0  0  0  0  0
    7.3362   -1.6377   -4.6906 H   0  0  0  0  0  0  0  0  0  0  0  0
    6.6902   -3.6358   -3.3712 H   0  0  0  0  0  0  0  0  0  0  0  0
    6.0098   -3.4005   -1.0084 H   0  0  0  0  0  0  0  0  0  0  0  0
    2.2235    2.3914   -0.4642 H   0  0  0  0  0  0  0  0  0  0  0  0
    2.9318    2.8503    1.0856 H   0  0  0  0  0  0  0  0  0  0  0  0
    0.8507    2.4589    2.2789 H   0  0  0  0  0  0  0  0  0  0  0  0
    0.4827    3.4403    0.8527 H   0  0  0  0  0  0  0  0  0  0  0  0
  1  2  1  0
  2  3  2  0
  3  4  1  0
  3  5  1  0
  5  6  2  0
  6  7  1  0
  7  8  2  0
  8  9  1  0
  9 10  1  0
 10 11  2  0
 10 12  1  0
 12 13  1  0
 13 14  1  0
 14 15  2  0
 15 16  1  0
 15 17  1  0
 17 18  1  0
 18 19  2  0
 19 20  1  0
 20 21  2  0
 21 22  1  0
 22 23  2  0
 17 24  1  0
 24 25  1  0
 14 26  1  0
 26 27  1  0
 27 28  1  0
 28 29  1  0
 29 30  2  0
 29 31  1  0
 31 32  1  0
 32 33  1  0
 33 34  2  0
 34 35  1  0
 35 36  2  0
 36 37  1  0
 37 38  2  0
 28 39  1  0
 39 40  1  0
 40 41  1  0
  8  2  1  0
 12 41  1  6
 12  7  1  0
 24 13  2  0
 41 26  1  0
 23 18  1  0
 38 33  1  0
  1 42  1  0
  1 43  1  0
  1 44  1  0
  5 45  1  0
  6 46  1  0
  9 47  1  0
 16 48  1  0
 19 49  1  0
 20 50  1  0
 21 51  1  0
 22 52  1  0
 23 53  1  0
 25 54  1  0
 26 55  1  1
 27 56  1  0
 27 57  1  0
 31 58  1  0
 32 59  1  0
 32 60  1  0
 34 61  1  0
 35 62  1  0
 36 63  1  0
 37 64  1  0
 38 65  1  0
 39 66  1  0
 39 67  1  0
 40 68  1  0
 40 69  1  0
M  END
$$$$
