
     RDKit          3D

 32 34  0  0  0  0  0  0  0  0999 V2000
   -3.3774    1.4705   -2.8532 C   0  0  0  0  0  0  0  0  0  0  0  0
   -2.4497    0.5558   -2.0719 C   0  0  0  0  0  0  0  0  0  0  0  0
   -2.9120   -0.7813   -2.2423 O   0  0  0  0  0  0  0  0  0  0  0  0
   -2.2080   -1.7724   -1.5643 C   0  0  0  0  0  0  0  0  0  0  0  0
   -2.7512   -3.0548   -1.7437 C   0  0  0  0  0  0  0  0  0  0  0  0
   -2.1809   -4.1694   -1.1404 C   0  0  0  0  0  0  0  0  0  0  0  0
   -1.0479   -4.0381   -0.3389 C   0  0  0  0  0  0  0  0  0  0  0  0
   -0.5013   -2.7560   -0.1599 C   0  0  0  0  0  0  0  0  0  0  0  0
    0.8781   -2.3085    0.7669 S   0  0  0  0  0  0  0  0  0  0  0  0
    0.6590   -0.6878    0.3243 C   0  0  0  0  0  0  0  0  0  0  0  0
    1.4688    0.3335    0.7508 N   0  0  0  0  0  0  0  0  0  0  0  0
    2.5994    0.2393    1.5362 C   0  0  0  0  0  0  0  0  0  0  0  0
    3.0776   -0.8160    1.9391 O   0  0  0  0  0  0  0  0  0  0  0  0
    3.2057    1.5384    1.8465 C   0  0  0  0  0  0  0  0  0  0  0  0
    2.7087    2.8278    1.7148 C   0  0  0  0  0  0  0  0  0  0  0  0
    3.6398    3.8250    2.1426 C   0  0  0  0  0  0  0  0  0  0  0  0
    4.8030    3.2570    2.5898 C   0  0  0  0  0  0  0  0  0  0  0  0
    6.2840    4.2685    3.2492 Br  0  0  0  0  0  0  0  0  0  0  0  0
    4.7988    1.5693    2.5057 S   0  0  0  0  0  0  0  0  0  0  0  0
   -0.3628   -0.4361   -0.4559 N   0  0  0  0  0  0  0  0  0  0  0  0
   -1.0504   -1.6130   -0.7532 C   0  0  0  0  0  0  0  0  0  0  0  0
   -3.3789    1.2027   -3.9150 H   0  0  0  0  0  0  0  0  0  0  0  0
   -3.0687    2.5148   -2.7531 H   0  0  0  0  0  0  0  0  0  0  0  0
   -4.4082    1.3708   -2.4970 H   0  0  0  0  0  0  0  0  0  0  0  0
   -1.4350    0.6624   -2.4705 H   0  0  0  0  0  0  0  0  0  0  0  0
   -2.4856    0.8419   -1.0150 H   0  0  0  0  0  0  0  0  0  0  0  0
   -3.6361   -3.1751   -2.3652 H   0  0  0  0  0  0  0  0  0  0  0  0
   -2.6213   -5.1522   -1.2956 H   0  0  0  0  0  0  0  0  0  0  0  0
   -0.5994   -4.9069    0.1348 H   0  0  0  0  0  0  0  0  0  0  0  0
    1.1803    1.2269    0.3868 H   0  0  0  0  0  0  0  0  0  0  0  0
    1.7202    3.0714    1.3460 H   0  0  0  0  0  0  0  0  0  0  0  0
    3.4514    4.8918    2.1258 H   0  0  0  0  0  0  0  0  0  0  0  0
  1  2  1  0
  2  3  1  0
  3  4  1  0
  4  5  2  0
  5  6  1  0
  6  7  2  0
  7  8  1  0
  8  9  1  0
  9 10  1  0
 10 11  1  0
 11 12  1  0
 12 13  2  0
 12 14  1  0
 14 15  2  0
 15 16  1  0
 16 17  2  0
 17 18  1  0
 17 19  1  0
 10 20  2  0
 20 21  1  0
 21  4  1  0
 21  8  2  0
 19 14  1  0
  1 22  1  0
  1 23  1  0
  1 24  1  0
  2 25  1  0
  2 26  1  0
  5 27  1  0
  6 28  1  0
  7 29  1  0
 11 30  1  0
 15 31  1  0
 16 32  1  0
M  END
$$$$
