
     RDKit          3D

 61 66  0  0  0  0  0  0  0  0999 V2000
   -8.8186   -0.2968    1.7924 F   0  0  0  0  0  0  0  0  0  0  0  0
   -7.8654   -0.9797    1.1460 C   0  0  0  0  0  0  0  0  0  0  0  0
   -8.1580   -2.2357    0.6279 C   0  0  0  0  0  0  0  0  0  0  0  0
   -7.1679   -2.9452   -0.0485 C   0  0  0  0  0  0  0  0  0  0  0  0
   -5.8930   -2.3916   -0.2010 C   0  0  0  0  0  0  0  0  0  0  0  0
   -5.5964   -1.1246    0.3250 C   0  0  0  0  0  0  0  0  0  0  0  0
   -4.2274   -0.5157    0.1293 C   0  0  0  0  0  0  0  0  0  0  0  0
   -4.1617    0.3032   -1.1728 C   0  0  0  0  0  0  0  0  0  0  0  0
   -2.8665    0.8986   -1.5171 N   0  0  0  0  0  0  0  0  0  0  0  0
   -2.4796    2.0276   -0.6491 C   0  0  0  0  0  0  0  0  0  0  0  0
   -0.9868    2.3942   -0.8040 C   0  0  0  0  0  0  0  0  0  0  0  0
   -0.1273    1.2809   -0.3382 N   0  0  0  0  0  0  0  0  0  0  0  0
    1.2313    1.3958   -0.4966 C   0  0  0  0  0  0  0  0  0  0  0  0
    1.9484    2.0848   -1.4584 C   0  0  0  0  0  0  0  0  0  0  0  0
    3.3046    1.7065   -1.3510 C   0  0  0  0  0  0  0  0  0  0  0  0
    3.4031    0.8206   -0.2965 C   0  0  0  0  0  0  0  0  0  0  0  0
    4.5183    0.0789    0.2472 C   0  0  0  0  0  0  0  0  0  0  0  0
    5.8042    0.0104   -0.4903 C   0  0  0  0  0  0  0  0  0  0  0  0
    6.9947    0.2797    0.1942 C   0  0  0  0  0  0  0  0  0  0  0  0
    8.2135    0.2195   -0.4835 C   0  0  0  0  0  0  0  0  0  0  0  0
    8.2436   -0.1242   -1.8361 C   0  0  0  0  0  0  0  0  0  0  0  0
    7.0580   -0.4164   -2.5136 C   0  0  0  0  0  0  0  0  0  0  0  0
    5.8363   -0.3532   -1.8418 C   0  0  0  0  0  0  0  0  0  0  0  0
    4.4170   -0.5390    1.3872 N   0  0  0  0  0  0  0  0  0  0  0  0
    3.1976   -0.4797    2.0926 C   0  0  0  0  0  0  0  0  0  0  0  0
    3.1433   -1.0867    3.3508 C   0  0  0  0  0  0  0  0  0  0  0  0
    1.9800   -1.0334    4.1207 C   0  0  0  0  0  0  0  0  0  0  0  0
    0.8599   -0.3575    3.6411 C   0  0  0  0  0  0  0  0  0  0  0  0
    0.8928    0.2504    2.3846 C   0  0  0  0  0  0  0  0  0  0  0  0
    2.0486    0.1659    1.6028 C   0  0  0  0  0  0  0  0  0  0  0  0
    2.1686    0.7689    0.3269 N   0  0  0  0  0  0  0  0  0  0  0  0
   -0.7049   -0.0731   -0.5701 C   0  0  0  0  0  0  0  0  0  0  0  0
   -1.7687   -0.0710   -1.6934 C   0  0  0  0  0  0  0  0  0  0  0  0
   -6.5998   -0.4184    1.0009 C   0  0  0  0  0  0  0  0  0  0  0  0
   -9.1529   -2.6514    0.7528 H   0  0  0  0  0  0  0  0  0  0  0  0
   -7.3875   -3.9273   -0.4597 H   0  0  0  0  0  0  0  0  0  0  0  0
   -5.1316   -2.9545   -0.7376 H   0  0  0  0  0  0  0  0  0  0  0  0
   -3.4848   -1.3208    0.1213 H   0  0  0  0  0  0  0  0  0  0  0  0
   -3.9874    0.1088    0.9975 H   0  0  0  0  0  0  0  0  0  0  0  0
   -4.9155    1.1009   -1.1391 H   0  0  0  0  0  0  0  0  0  0  0  0
   -4.4694   -0.3349   -2.0123 H   0  0  0  0  0  0  0  0  0  0  0  0
   -3.0910    2.8995   -0.9092 H   0  0  0  0  0  0  0  0  0  0  0  0
   -2.6656    1.7989    0.4069 H   0  0  0  0  0  0  0  0  0  0  0  0
   -0.7715    3.2901   -0.2104 H   0  0  0  0  0  0  0  0  0  0  0  0
   -0.7865    2.6316   -1.8560 H   0  0  0  0  0  0  0  0  0  0  0  0
    1.5303    2.7224   -2.2246 H   0  0  0  0  0  0  0  0  0  0  0  0
    4.1115    2.0294   -1.9967 H   0  0  0  0  0  0  0  0  0  0  0  0
    6.9711    0.5394    1.2505 H   0  0  0  0  0  0  0  0  0  0  0  0
    9.1402    0.4368    0.0422 H   0  0  0  0  0  0  0  0  0  0  0  0
    9.1957   -0.1735   -2.3604 H   0  0  0  0  0  0  0  0  0  0  0  0
    7.0876   -0.6998   -3.5629 H   0  0  0  0  0  0  0  0  0  0  0  0
    4.9197   -0.6039   -2.3699 H   0  0  0  0  0  0  0  0  0  0  0  0
    4.0221   -1.5989    3.7330 H   0  0  0  0  0  0  0  0  0  0  0  0
    1.9568   -1.5045    5.0998 H   0  0  0  0  0  0  0  0  0  0  0  0
   -0.0375   -0.2923    4.2512 H   0  0  0  0  0  0  0  0  0  0  0  0
    0.0232    0.8091    2.0571 H   0  0  0  0  0  0  0  0  0  0  0  0
    0.0738   -0.8020   -0.8270 H   0  0  0  0  0  0  0  0  0  0  0  0
   -1.1684   -0.4159    0.3617 H   0  0  0  0  0  0  0  0  0  0  0  0
   -2.1507   -1.0875   -1.8420 H   0  0  0  0  0  0  0  0  0  0  0  0
   -1.2637    0.1897   -2.6324 H   0  0  0  0  0  0  0  0  0  0  0  0
   -6.4100    0.5669    1.4151 H   0  0  0  0  0  0  0  0  0  0  0  0
  1  2  1  0
  2  3  2  0
  3  4  1  0
  4  5  2  0
  5  6  1  0
  6  7  1  0
  7  8  1  0
  8  9  1  0
  9 10  1  0
 10 11  1  0
 11 12  1  0
 12 13  1  0
 13 14  2  0
 14 15  1  0
 15 16  2  0
 16 17  1  0
 17 18  1  0
 18 19  2  0
 19 20  1  0
 20 21  2  0
 21 22  1  0
 22 23  2  0
 17 24  2  0
 24 25  1  0
 25 26  2  0
 26 27  1  0
 27 28  2  0
 28 29  1  0
 29 30  2  0
 30 31  1  0
 12 32  1  0
 32 33  1  0
  6 34  2  0
 34  2  1  0
 33  9  1  0
 31 13  1  0
 31 16  1  0
 23 18  1  0
 30 25  1  0
  3 35  1  0
  4 36  1  0
  5 37  1  0
  7 38  1  0
  7 39  1  0
  8 40  1  0
  8 41  1  0
 10 42  1  0
 10 43  1  0
 11 44  1  0
 11 45  1  0
 14 46  1  0
 15 47  1  0
 19 48  1  0
 20 49  1  0
 21 50  1  0
 22 51  1  0
 23 52  1  0
 26 53  1  0
 27 54  1  0
 28 55  1  0
 29 56  1  0
 32 57  1  0
 32 58  1  0
 33 59  1  0
 33 60  1  0
 34 61  1  0
M  END
$$$$
