
     RDKit          3D

 38 39  0  0  0  0  0  0  0  0999 V2000
    0.6751   -1.7493    2.2905 O   0  0  0  0  0  0  0  0  0  0  0  0
    0.0624   -0.9445    1.6022 C   0  0  0  0  0  0  0  0  0  0  0  0
   -1.2670   -0.4536    2.0336 C   0  0  0  0  0  0  0  0  0  0  0  0
   -2.2622   -0.2338    1.1608 C   0  0  0  0  0  0  0  0  0  0  0  0
   -3.5705    0.3032    1.5644 C   0  0  0  0  0  0  0  0  0  0  0  0
   -4.2933   -0.3518    2.5754 C   0  0  0  0  0  0  0  0  0  0  0  0
   -5.5596    0.0990    2.9646 C   0  0  0  0  0  0  0  0  0  0  0  0
   -6.1346    1.2074    2.3458 C   0  0  0  0  0  0  0  0  0  0  0  0
   -5.4452    1.8713    1.3333 C   0  0  0  0  0  0  0  0  0  0  0  0
   -4.1716    1.4186    0.9497 C   0  0  0  0  0  0  0  0  0  0  0  0
   -3.4903    2.1575   -0.1108 N   0  0  0  0  0  4  0  0  0  0  0  0
   -4.1738    2.5068   -1.0834 O   0  0  0  0  0  0  0  0  0  0  0  0
   -2.2819    2.3980    0.0280 O   0  0  0  0  0  1  0  0  0  0  0  0
    0.5365   -0.3637    0.4515 N   0  0  0  0  0  0  0  0  0  0  0  0
    1.9057   -0.5821    0.0224 C   0  0  0  0  0  0  0  0  0  0  0  0
    2.0811   -0.2879   -1.4667 C   0  0  0  0  0  0  0  0  0  0  0  0
    3.5082   -0.4779   -1.9170 C   0  0  0  0  0  0  0  0  0  0  0  0
    4.3933    0.6104   -1.9523 C   0  0  0  0  0  0  0  0  0  0  0  0
    5.7174    0.4282   -2.3537 C   0  0  0  0  0  0  0  0  0  0  0  0
    6.1567   -0.8397   -2.7146 C   0  0  0  0  0  0  0  0  0  0  0  0
    7.4281   -1.0126   -3.0993 F   0  0  0  0  0  0  0  0  0  0  0  0
    5.2973   -1.9308   -2.6805 C   0  0  0  0  0  0  0  0  0  0  0  0
    3.9727   -1.7517   -2.2799 C   0  0  0  0  0  0  0  0  0  0  0  0
   -1.3762   -0.3233    3.1045 H   0  0  0  0  0  0  0  0  0  0  0  0
   -2.1230   -0.4126    0.0967 H   0  0  0  0  0  0  0  0  0  0  0  0
   -3.8829   -1.2336    3.0666 H   0  0  0  0  0  0  0  0  0  0  0  0
   -6.1008   -0.4246    3.7504 H   0  0  0  0  0  0  0  0  0  0  0  0
   -7.1213    1.5498    2.6504 H   0  0  0  0  0  0  0  0  0  0  0  0
   -5.9022    2.7342    0.8523 H   0  0  0  0  0  0  0  0  0  0  0  0
    0.0734    0.4815    0.1360 H   0  0  0  0  0  0  0  0  0  0  0  0
    2.5422    0.0738    0.6280 H   0  0  0  0  0  0  0  0  0  0  0  0
    2.1923   -1.6155    0.2507 H   0  0  0  0  0  0  0  0  0  0  0  0
    1.7582    0.7377   -1.6886 H   0  0  0  0  0  0  0  0  0  0  0  0
    1.4216   -0.9356   -2.0590 H   0  0  0  0  0  0  0  0  0  0  0  0
    4.0572    1.6053   -1.6682 H   0  0  0  0  0  0  0  0  0  0  0  0
    6.4079    1.2648   -2.3859 H   0  0  0  0  0  0  0  0  0  0  0  0
    5.6636   -2.9123   -2.9635 H   0  0  0  0  0  0  0  0  0  0  0  0
    3.3053   -2.6107   -2.2510 H   0  0  0  0  0  0  0  0  0  0  0  0
  1  2  2  0
  2  3  1  0
  3  4  2  3
  4  5  1  0
  5  6  2  0
  6  7  1  0
  7  8  2  0
  8  9  1  0
  9 10  2  0
 10 11  1  0
 11 12  2  0
 11 13  1  0
  2 14  1  0
 14 15  1  0
 15 16  1  0
 16 17  1  0
 17 18  2  0
 18 19  1  0
 19 20  2  0
 20 21  1  0
 20 22  1  0
 22 23  2  0
 10  5  1  0
 23 17  1  0
  3 24  1  0
  4 25  1  0
  6 26  1  0
  7 27  1  0
  8 28  1  0
  9 29  1  0
 14 30  1  0
 15 31  1  0
 15 32  1  0
 16 33  1  0
 16 34  1  0
 18 35  1  0
 19 36  1  0
 22 37  1  0
 23 38  1  0
M  CHG  2  11   1  13  -1
M  END
$$$$
