
     RDKit          3D

 28 29  0  0  0  0  0  0  0  0999 V2000
    5.9572   -1.1001   -1.5255 O   0  0  0  0  0  0  0  0  0  0  0  0
    5.5285   -0.2148   -0.7727 N   0  0  0  0  0  4  0  0  0  0  0  0
    6.2237    0.6792   -0.2700 O   0  0  0  0  0  1  0  0  0  0  0  0
    4.1079   -0.2205   -0.4593 C   0  0  0  0  0  0  0  0  0  0  0  0
    3.5500    0.7416    0.3799 C   0  0  0  0  0  0  0  0  0  0  0  0
    2.1811    0.6823    0.6447 C   0  0  0  0  0  0  0  0  0  0  0  0
    1.4131   -0.3235    0.0623 C   0  0  0  0  0  0  0  0  0  0  0  0
    0.0497   -0.4506    0.3064 N   0  0  0  0  0  0  0  0  0  0  0  0
   -0.7411    0.7160   -0.0636 C   0  0  0  0  0  0  0  0  0  0  0  0
   -2.2090    0.3637   -0.0047 C   0  0  0  0  0  0  0  0  0  0  0  0
   -2.8313    0.1250    1.2301 C   0  0  0  0  0  0  0  0  0  0  0  0
   -4.1861   -0.2045    1.2899 C   0  0  0  0  0  0  0  0  0  0  0  0
   -4.9320   -0.3024    0.1170 C   0  0  0  0  0  0  0  0  0  0  0  0
   -4.3237   -0.0753   -1.1164 C   0  0  0  0  0  0  0  0  0  0  0  0
   -2.9682    0.2539   -1.1786 C   0  0  0  0  0  0  0  0  0  0  0  0
    1.9515   -1.2597   -0.7444 N   0  0  0  0  0  0  0  0  0  0  0  0
    3.2844   -1.1959   -0.9941 C   0  0  0  0  0  0  0  0  0  0  0  0
    4.1533    1.5223    0.8362 H   0  0  0  0  0  0  0  0  0  0  0  0
    1.7287    1.4018    1.3194 H   0  0  0  0  0  0  0  0  0  0  0  0
   -0.2398   -1.2668   -0.2330 H   0  0  0  0  0  0  0  0  0  0  0  0
   -0.4826    1.0576   -1.0745 H   0  0  0  0  0  0  0  0  0  0  0  0
   -0.5576    1.5530    0.6215 H   0  0  0  0  0  0  0  0  0  0  0  0
   -2.2540    0.1854    2.1506 H   0  0  0  0  0  0  0  0  0  0  0  0
   -4.6574   -0.3901    2.2515 H   0  0  0  0  0  0  0  0  0  0  0  0
   -5.9865   -0.5615    0.1638 H   0  0  0  0  0  0  0  0  0  0  0  0
   -4.9052   -0.1582   -2.0310 H   0  0  0  0  0  0  0  0  0  0  0  0
   -2.5096    0.4211   -2.1506 H   0  0  0  0  0  0  0  0  0  0  0  0
    3.6547   -1.9790   -1.6511 H   0  0  0  0  0  0  0  0  0  0  0  0
  1  2  2  0
  2  3  1  0
  2  4  1  0
  4  5  2  0
  5  6  1  0
  6  7  2  0
  7  8  1  0
  8  9  1  0
  9 10  1  0
 10 11  2  0
 11 12  1  0
 12 13  2  0
 13 14  1  0
 14 15  2  0
  7 16  1  0
 16 17  2  0
 17  4  1  0
 15 10  1  0
  5 18  1  0
  6 19  1  0
  8 20  1  0
  9 21  1  0
  9 22  1  0
 11 23  1  0
 12 24  1  0
 13 25  1  0
 14 26  1  0
 15 27  1  0
 17 28  1  0
M  CHG  2   2   1   3  -1
M  END
$$$$
