
     RDKit          3D

 51 54  0  0  0  0  0  0  0  0999 V2000
    5.9126    0.9754   -4.0403 C   0  0  0  0  0  0  0  0  0  0  0  0
    5.7796    1.8622   -2.8117 C   0  0  0  0  0  0  0  0  0  0  0  0
    4.3775    1.8510   -2.2615 C   0  0  0  0  0  0  0  0  0  0  0  0
    3.4340    2.7853   -2.6946 C   0  0  0  0  0  0  0  0  0  0  0  0
    2.1267    2.7651   -2.1918 C   0  0  0  0  0  0  0  0  0  0  0  0
    1.7187    1.8085   -1.2487 C   0  0  0  0  0  0  0  0  0  0  0  0
    0.3668    1.7884   -0.7216 N   0  0  0  0  0  0  0  0  0  0  0  0
   -0.2813    3.0099   -0.5019 C   0  0  0  0  0  0  0  0  0  0  0  0
    0.1820    4.1284   -0.7290 O   0  0  0  0  0  0  0  0  0  0  0  0
   -1.6214    2.9674    0.1059 C   0  0  0  0  0  0  0  0  0  0  0  0
   -2.2800    4.1742    0.4058 C   0  0  0  0  0  0  0  0  0  0  0  0
   -3.5313    4.1623    1.0135 C   0  0  0  0  0  0  0  0  0  0  0  0
   -4.1218    2.9464    1.3301 C   0  0  0  0  0  0  0  0  0  0  0  0
   -3.4660    1.7476    1.0282 C   0  0  0  0  0  0  0  0  0  0  0  0
   -2.2087    1.7429    0.3994 C   0  0  0  0  0  0  0  0  0  0  0  0
   -1.5283    0.5505    0.0520 N   0  0  0  0  0  0  0  0  0  0  0  0
   -2.1329   -0.7594    0.3092 C   0  0  0  0  0  0  0  0  0  0  0  0
   -1.8372   -1.2626    1.7265 C   0  0  0  0  0  0  0  0  0  0  0  0
   -1.4294   -0.5458    2.6368 O   0  0  0  0  0  0  0  0  0  0  0  0
   -2.1240   -2.5972    1.9095 N   0  0  0  0  0  0  0  0  0  0  0  0
   -2.0133   -3.2067    3.2138 C   0  0  0  0  0  0  0  0  0  0  0  0
   -2.1631   -4.6739    3.0682 C   0  0  0  0  0  0  0  0  0  0  0  0
   -1.3640   -5.7465    3.4056 C   0  0  0  0  0  0  0  0  0  0  0  0
   -2.0640   -6.9092    3.0028 C   0  0  0  0  0  0  0  0  0  0  0  0
   -3.2423   -6.4740    2.4439 C   0  0  0  0  0  0  0  0  0  0  0  0
   -3.3122   -5.1183    2.4756 O   0  0  0  0  0  0  0  0  0  0  0  0
   -0.2375    0.5445   -0.4798 C   0  0  0  0  0  0  0  0  0  0  0  0
    0.2883   -0.5388   -0.7605 O   0  0  0  0  0  0  0  0  0  0  0  0
    2.6779    0.8726   -0.8275 C   0  0  0  0  0  0  0  0  0  0  0  0
    3.9864    0.8903   -1.3265 C   0  0  0  0  0  0  0  0  0  0  0  0
    5.2444    1.3058   -4.8429 H   0  0  0  0  0  0  0  0  0  0  0  0
    6.9391    1.0059   -4.4194 H   0  0  0  0  0  0  0  0  0  0  0  0
    5.6679   -0.0663   -3.8071 H   0  0  0  0  0  0  0  0  0  0  0  0
    6.4821    1.5311   -2.0370 H   0  0  0  0  0  0  0  0  0  0  0  0
    6.0695    2.8897   -3.0639 H   0  0  0  0  0  0  0  0  0  0  0  0
    3.7042    3.5396   -3.4303 H   0  0  0  0  0  0  0  0  0  0  0  0
    1.4295    3.5021   -2.5827 H   0  0  0  0  0  0  0  0  0  0  0  0
   -1.8110    5.1292    0.1743 H   0  0  0  0  0  0  0  0  0  0  0  0
   -4.0339    5.0969    1.2496 H   0  0  0  0  0  0  0  0  0  0  0  0
   -5.0918    2.9253    1.8220 H   0  0  0  0  0  0  0  0  0  0  0  0
   -3.9672    0.8317    1.3240 H   0  0  0  0  0  0  0  0  0  0  0  0
   -1.7453   -1.4989   -0.4017 H   0  0  0  0  0  0  0  0  0  0  0  0
   -3.2140   -0.7316    0.1423 H   0  0  0  0  0  0  0  0  0  0  0  0
   -2.6140   -3.1204    1.1940 H   0  0  0  0  0  0  0  0  0  0  0  0
   -1.0454   -2.9439    3.6536 H   0  0  0  0  0  0  0  0  0  0  0  0
   -2.8042   -2.7986    3.8518 H   0  0  0  0  0  0  0  0  0  0  0  0
   -0.3953   -5.6932    3.8834 H   0  0  0  0  0  0  0  0  0  0  0  0
   -1.7497   -7.9386    3.1064 H   0  0  0  0  0  0  0  0  0  0  0  0
   -4.0915   -6.9764    2.0015 H   0  0  0  0  0  0  0  0  0  0  0  0
    2.4381    0.1233   -0.0765 H   0  0  0  0  0  0  0  0  0  0  0  0
    4.6969    0.1472   -0.9710 H   0  0  0  0  0  0  0  0  0  0  0  0
  1  2  1  0
  2  3  1  0
  3  4  2  0
  4  5  1  0
  5  6  2  0
  6  7  1  0
  7  8  1  0
  8  9  2  0
  8 10  1  0
 10 11  2  0
 11 12  1  0
 12 13  2  0
 13 14  1  0
 14 15  2  0
 15 16  1  0
 16 17  1  0
 17 18  1  0
 18 19  2  0
 18 20  1  0
 20 21  1  0
 21 22  1  0
 22 23  2  0
 23 24  1  0
 24 25  2  0
 25 26  1  0
 16 27  1  0
 27 28  2  0
  6 29  1  0
 29 30  2  0
 30  3  1  0
 27  7  1  0
 15 10  1  0
 26 22  1  0
  1 31  1  0
  1 32  1  0
  1 33  1  0
  2 34  1  0
  2 35  1  0
  4 36  1  0
  5 37  1  0
 11 38  1  0
 12 39  1  0
 13 40  1  0
 14 41  1  0
 17 42  1  0
 17 43  1  0
 20 44  1  0
 21 45  1  0
 21 46  1  0
 23 47  1  0
 24 48  1  0
 25 49  1  0
 29 50  1  0
 30 51  1  0
M  END
$$$$
