
     RDKit          3D

 39 41  0  0  0  0  0  0  0  0999 V2000
   -4.9253   -2.2870    0.2409 C   0  0  0  0  0  0  0  0  0  0  0  0
   -4.4102   -1.5835   -1.0024 C   0  0  0  0  0  0  0  0  0  0  0  0
   -3.2241   -0.7864   -0.7323 N   0  0  0  0  0  0  0  0  0  0  0  0
   -1.9399   -1.2298   -0.9224 C   0  0  0  0  0  0  0  0  0  0  0  0
   -1.0802   -0.2159   -0.5613 C   0  0  0  0  0  0  0  0  0  0  0  0
    0.3397   -0.3593   -0.6234 C   0  0  0  0  0  0  0  0  0  0  0  0
    1.2119    0.1985    0.2328 C   0  0  0  0  0  0  0  0  0  0  0  0
    2.6668    0.0291    0.1553 C   0  0  0  0  0  0  0  0  0  0  0  0
    3.2607   -1.1957   -0.1461 C   0  0  0  0  0  0  0  0  0  0  0  0
    4.6468   -1.3017   -0.1760 C   0  0  0  0  0  0  0  0  0  0  0  0
    5.4255   -0.2291    0.0877 N   0  0  0  0  0  4  0  0  0  0  0  0
    6.8914   -0.3680    0.0585 C   0  0  0  0  0  0  0  0  0  0  0  0
    4.8731    0.9628    0.4054 C   0  0  0  0  0  0  0  0  0  0  0  0
    3.4916    1.1135    0.4492 C   0  0  0  0  0  0  0  0  0  0  0  0
   -1.8750    0.9082   -0.1741 C   0  0  0  0  0  0  0  0  0  0  0  0
   -1.5965    2.2308    0.2398 C   0  0  0  0  0  0  0  0  0  0  0  0
   -2.6444    3.1013    0.5586 C   0  0  0  0  0  0  0  0  0  0  0  0
   -3.9648    2.6789    0.4657 C   0  0  0  0  0  0  0  0  0  0  0  0
   -4.2744    1.3839    0.0440 C   0  0  0  0  0  0  0  0  0  0  0  0
   -3.2165    0.5169   -0.2784 C   0  0  0  0  0  0  0  0  0  0  0  0
   -5.8089   -2.8856   -0.0005 H   0  0  0  0  0  0  0  0  0  0  0  0
   -4.1645   -2.9541    0.6599 H   0  0  0  0  0  0  0  0  0  0  0  0
   -5.2027   -1.5679    1.0186 H   0  0  0  0  0  0  0  0  0  0  0  0
   -5.1744   -0.9237   -1.4261 H   0  0  0  0  0  0  0  0  0  0  0  0
   -4.1495   -2.3171   -1.7738 H   0  0  0  0  0  0  0  0  0  0  0  0
   -1.7499   -2.2331   -1.2813 H   0  0  0  0  0  0  0  0  0  0  0  0
    0.7072   -0.9953   -1.4259 H   0  0  0  0  0  0  0  0  0  0  0  0
    0.8479    0.8193    1.0491 H   0  0  0  0  0  0  0  0  0  0  0  0
    2.6544   -2.0772   -0.3459 H   0  0  0  0  0  0  0  0  0  0  0  0
    5.1412   -2.2420   -0.4035 H   0  0  0  0  0  0  0  0  0  0  0  0
    7.3360    0.5869   -0.2337 H   0  0  0  0  0  0  0  0  0  0  0  0
    7.1642   -1.1325   -0.6736 H   0  0  0  0  0  0  0  0  0  0  0  0
    7.2127   -0.6569    1.0622 H   0  0  0  0  0  0  0  0  0  0  0  0
    5.5437    1.7886    0.6259 H   0  0  0  0  0  0  0  0  0  0  0  0
    3.0659    2.0823    0.7054 H   0  0  0  0  0  0  0  0  0  0  0  0
   -0.5743    2.5876    0.3030 H   0  0  0  0  0  0  0  0  0  0  0  0
   -2.4248    4.1173    0.8770 H   0  0  0  0  0  0  0  0  0  0  0  0
   -4.7699    3.3663    0.7166 H   0  0  0  0  0  0  0  0  0  0  0  0
   -5.3106    1.0695   -0.0327 H   0  0  0  0  0  0  0  0  0  0  0  0
  1  2  1  0
  2  3  1  0
  3  4  1  0
  4  5  2  0
  5  6  1  0
  6  7  2  3
  7  8  1  0
  8  9  2  0
  9 10  1  0
 10 11  2  0
 11 12  1  0
 11 13  1  0
 13 14  2  0
  5 15  1  0
 15 16  2  0
 16 17  1  0
 17 18  2  0
 18 19  1  0
 19 20  2  0
 20  3  1  0
 14  8  1  0
 20 15  1  0
  1 21  1  0
  1 22  1  0
  1 23  1  0
  2 24  1  0
  2 25  1  0
  4 26  1  0
  6 27  1  0
  7 28  1  0
  9 29  1  0
 10 30  1  0
 12 31  1  0
 12 32  1  0
 12 33  1  0
 13 34  1  0
 14 35  1  0
 16 36  1  0
 17 37  1  0
 18 38  1  0
 19 39  1  0
M  CHG  1  11   1
M  END
$$$$
