
     RDKit          3D

 57 61  0  0  0  0  0  0  0  0999 V2000
   -3.9649   -2.7451   -1.2008 C   0  0  0  0  0  0  0  0  0  0  0  0
   -4.6078   -1.7523   -0.2382 C   0  0  0  0  0  0  0  0  0  0  0  0
   -5.3789   -0.6334   -0.9293 C   0  0  0  0  0  0  0  0  0  0  0  0
   -3.6553   -1.2701    0.8616 C   0  0  0  0  0  0  0  0  0  0  0  0
   -3.9453   -1.5477    2.0317 O   0  0  0  0  0  0  0  0  0  0  0  0
   -2.4864   -0.5729    0.5603 N   0  0  0  0  0  0  0  0  0  0  0  0
   -1.7154   -0.0859    1.7065 C   0  0  0  0  0  0  0  0  0  0  0  0
   -0.2242    0.0281    1.3999 C   0  0  0  0  0  0  0  0  0  0  0  0
    0.0551    0.8698    0.1340 C   0  0  0  0  0  0  0  0  0  0  0  0
   -0.7781    0.2701   -1.0243 C   0  0  0  0  0  0  0  0  0  0  0  0
   -2.2623    0.1641   -0.6776 C   0  0  0  0  0  0  0  0  0  0  0  0
   -0.4664    2.1904    0.4414 O   0  0  0  0  0  0  0  0  0  0  0  0
   -0.0467    3.2310   -0.3346 C   0  0  0  0  0  0  0  0  0  0  0  0
   -0.7612    4.4225   -0.1998 C   0  0  0  0  0  0  0  0  0  0  0  0
   -0.4187    5.5327   -0.9736 C   0  0  0  0  0  0  0  0  0  0  0  0
    0.6378    5.4439   -1.8749 C   0  0  0  0  0  0  0  0  0  0  0  0
    0.9582    6.5096   -2.6193 F   0  0  0  0  0  0  0  0  0  0  0  0
    1.3659    4.2696   -2.0117 C   0  0  0  0  0  0  0  0  0  0  0  0
    1.0230    3.1673   -1.2251 C   0  0  0  0  0  0  0  0  0  0  0  0
    1.7838    1.9122   -1.3241 C   0  0  0  0  0  0  0  0  0  0  0  0
    2.5029    1.7152   -2.2992 O   0  0  0  0  0  0  0  0  0  0  0  0
    1.5791    0.9261   -0.1851 C   0  0  0  0  0  0  0  0  0  0  0  0
    2.2739   -0.4033   -0.4453 C   0  0  0  0  0  0  0  0  0  0  0  0
    3.0359   -0.5438    0.8262 C   0  0  0  0  0  0  0  0  0  0  0  0
    3.7355   -1.7999    1.1854 C   0  0  0  0  0  0  0  0  0  0  0  0
    4.3105   -1.9160    2.4572 C   0  0  0  0  0  0  0  0  0  0  0  0
    4.9699   -3.0897    2.8266 C   0  0  0  0  0  0  0  0  0  0  0  0
    5.0603   -4.1507    1.9277 C   0  0  0  0  0  0  0  0  0  0  0  0
    4.4942   -4.0394    0.6583 C   0  0  0  0  0  0  0  0  0  0  0  0
    3.8327   -2.8666    0.2844 C   0  0  0  0  0  0  0  0  0  0  0  0
    3.0354    0.5059    1.5819 N   0  0  0  0  0  0  0  0  0  0  0  0
    2.2916    1.5090    0.9267 O   0  0  0  0  0  0  0  0  0  0  0  0
   -3.4080   -3.5115   -0.6508 H   0  0  0  0  0  0  0  0  0  0  0  0
   -3.2698   -2.2772   -1.9009 H   0  0  0  0  0  0  0  0  0  0  0  0
   -4.7339   -3.2504   -1.7953 H   0  0  0  0  0  0  0  0  0  0  0  0
   -5.3687   -2.3319    0.3075 H   0  0  0  0  0  0  0  0  0  0  0  0
   -6.2967   -1.0313   -1.3768 H   0  0  0  0  0  0  0  0  0  0  0  0
   -4.8179   -0.1596   -1.7376 H   0  0  0  0  0  0  0  0  0  0  0  0
   -5.6648    0.1463   -0.2156 H   0  0  0  0  0  0  0  0  0  0  0  0
   -1.8381   -0.7556    2.5650 H   0  0  0  0  0  0  0  0  0  0  0  0
   -2.1348    0.8850    1.9975 H   0  0  0  0  0  0  0  0  0  0  0  0
    0.1795   -0.9842    1.2816 H   0  0  0  0  0  0  0  0  0  0  0  0
    0.2601    0.4787    2.2744 H   0  0  0  0  0  0  0  0  0  0  0  0
   -0.6909    0.8802   -1.9305 H   0  0  0  0  0  0  0  0  0  0  0  0
   -0.4124   -0.7314   -1.2778 H   0  0  0  0  0  0  0  0  0  0  0  0
   -2.7613   -0.3121   -1.5166 H   0  0  0  0  0  0  0  0  0  0  0  0
   -2.7134    1.1563   -0.5585 H   0  0  0  0  0  0  0  0  0  0  0  0
   -1.5874    4.4864    0.5045 H   0  0  0  0  0  0  0  0  0  0  0  0
   -0.9681    6.4647   -0.8800 H   0  0  0  0  0  0  0  0  0  0  0  0
    2.1930    4.2266   -2.7142 H   0  0  0  0  0  0  0  0  0  0  0  0
    1.5891   -1.2402   -0.5925 H   0  0  0  0  0  0  0  0  0  0  0  0
    2.9871   -0.3819   -1.2744 H   0  0  0  0  0  0  0  0  0  0  0  0
    4.2492   -1.0948    3.1688 H   0  0  0  0  0  0  0  0  0  0  0  0
    5.4139   -3.1734    3.8156 H   0  0  0  0  0  0  0  0  0  0  0  0
    5.5758   -5.0638    2.2158 H   0  0  0  0  0  0  0  0  0  0  0  0
    4.5721   -4.8672   -0.0427 H   0  0  0  0  0  0  0  0  0  0  0  0
    3.4127   -2.8083   -0.7151 H   0  0  0  0  0  0  0  0  0  0  0  0
  1  2  1  0
  2  3  1  0
  2  4  1  0
  4  5  2  0
  4  6  1  0
  6  7  1  0
  7  8  1  0
  8  9  1  0
  9 10  1  0
 10 11  1  0
  9 12  1  0
 12 13  1  0
 13 14  2  0
 14 15  1  0
 15 16  2  0
 16 17  1  0
 16 18  1  0
 18 19  2  0
 19 20  1  0
 20 21  2  0
 20 22  1  0
 22 23  1  0
 23 24  1  0
 24 25  1  0
 25 26  2  0
 26 27  1  0
 27 28  2  0
 28 29  1  0
 29 30  2  0
 24 31  2  0
 31 32  1  0
 11  6  1  0
 19 13  1  0
 32 22  1  0
 22  9  1  0
 30 25  1  0
  1 33  1  0
  1 34  1  0
  1 35  1  0
  2 36  1  0
  3 37  1  0
  3 38  1  0
  3 39  1  0
  7 40  1  0
  7 41  1  0
  8 42  1  0
  8 43  1  0
 10 44  1  0
 10 45  1  0
 11 46  1  0
 11 47  1  0
 14 48  1  0
 15 49  1  0
 18 50  1  0
 23 51  1  0
 23 52  1  0
 26 53  1  0
 27 54  1  0
 28 55  1  0
 29 56  1  0
 30 57  1  0
M  END
$$$$
