
     RDKit          3D

 74 78  0  0  0  0  0  0  0  0999 V2000
   -3.2551    1.3055   -2.1390 C   0  0  0  0  0  0  0  0  0  0  0  0
   -2.9126    0.9094   -0.6973 C   0  0  0  0  0  0  0  0  0  0  0  0
   -3.2191    2.0094    0.3246 C   0  0  0  0  0  0  0  0  0  0  0  0
   -3.0438    3.3893   -0.1330 N   0  0  0  0  0  0  0  0  0  0  0  0
   -4.2590    4.2418   -0.0252 C   0  0  0  0  0  0  0  0  0  0  0  0
   -4.4100    4.8654    1.3637 C   0  0  0  0  0  0  0  0  0  0  0  0
   -4.3825    5.3100   -1.1365 C   0  0  0  0  0  0  0  0  0  0  0  0
   -4.4783    4.6879   -2.4198 O   0  0  0  0  0  0  0  0  0  0  0  0
   -1.8007    4.0366   -0.2038 C   0  0  0  0  0  0  0  0  0  0  0  0
   -1.6966    5.2402    0.0591 O   0  0  0  0  0  0  0  0  0  0  0  0
   -0.5696    3.4088   -0.7696 C   0  0  0  0  0  0  0  0  0  0  0  0
    0.1488    4.2368   -1.6566 C   0  0  0  0  0  0  0  0  0  0  0  0
    1.3646    3.8367   -2.2094 C   0  0  0  0  0  0  0  0  0  0  0  0
    1.9286    2.6193   -1.8414 C   0  0  0  0  0  0  0  0  0  0  0  0
    1.2579    1.7896   -0.9450 C   0  0  0  0  0  0  0  0  0  0  0  0
    1.8099    0.5938   -0.4359 N   0  0  0  0  0  0  0  0  0  0  0  0
    2.9250   -0.0924   -0.8782 C   0  0  0  0  0  0  0  0  0  0  0  0
    3.5328    0.1655   -1.9101 O   0  0  0  0  0  0  0  0  0  0  0  0
    3.2277   -1.1236   -0.0026 N   0  0  0  0  0  0  0  0  0  0  0  0
    4.2261   -2.1092   -0.1331 C   0  0  0  0  0  0  0  0  0  0  0  0
    4.9582   -2.3194   -1.3169 C   0  0  0  0  0  0  0  0  0  0  0  0
    5.9277   -3.3275   -1.3972 C   0  0  0  0  0  0  0  0  0  0  0  0
    6.1380   -4.1070   -0.2825 C   0  0  0  0  0  0  0  0  0  0  0  0
    5.4265   -3.9109    0.8754 C   0  0  0  0  0  0  0  0  0  0  0  0
    4.4648   -2.9271    0.9816 C   0  0  0  0  0  0  0  0  0  0  0  0
    5.7841   -4.7814    1.8586 O   0  0  0  0  0  0  0  0  0  0  0  0
    6.8164   -5.5358    1.1876 C   0  0  0  0  0  0  0  0  0  0  0  0
    7.0287   -5.1271   -0.1797 O   0  0  0  0  0  0  0  0  0  0  0  0
   -0.0215    2.1619   -0.4679 C   0  0  0  0  0  0  0  0  0  0  0  0
   -0.6836    1.2283    0.2853 O   0  0  0  0  0  0  0  0  0  0  0  0
   -1.4670    0.3833   -0.5878 C   0  0  0  0  0  0  0  0  0  0  0  0
   -1.4084   -1.0759   -0.0650 C   0  0  0  0  0  0  0  0  0  0  0  0
   -1.5929   -1.1537    1.4124 N   0  0  0  0  0  0  0  0  0  0  0  0
   -2.8995   -1.6786    1.8439 C   0  0  0  0  0  0  0  0  0  0  0  0
   -0.2420   -1.6597    2.3183 S   0  0  0  0  0  6  0  0  0  0  0  0
    0.9401   -1.0268    1.7565 O   0  0  0  0  0  0  0  0  0  0  0  0
   -0.5516   -1.5545    3.7265 O   0  0  0  0  0  0  0  0  0  0  0  0
    0.0078   -3.3956    1.9742 C   0  0  0  0  0  0  0  0  0  0  0  0
    0.7783   -4.0395    1.0240 C   0  0  0  0  0  0  0  0  0  0  0  0
    0.6765   -5.4578    1.1036 C   0  0  0  0  0  0  0  0  0  0  0  0
   -0.1715   -5.8541    2.1114 C   0  0  0  0  0  0  0  0  0  0  0  0
   -0.8411   -4.5186    2.9477 S   0  0  0  0  0  0  0  0  0  0  0  0
   -3.1422    0.4452   -2.8061 H   0  0  0  0  0  0  0  0  0  0  0  0
   -2.6050    2.0995   -2.5190 H   0  0  0  0  0  0  0  0  0  0  0  0
   -4.2934    1.6478   -2.2147 H   0  0  0  0  0  0  0  0  0  0  0  0
   -3.5922    0.0759   -0.4750 H   0  0  0  0  0  0  0  0  0  0  0  0
   -4.2743    1.8771    0.6067 H   0  0  0  0  0  0  0  0  0  0  0  0
   -2.6744    1.8839    1.2697 H   0  0  0  0  0  0  0  0  0  0  0  0
   -5.1128    3.5701   -0.1864 H   0  0  0  0  0  0  0  0  0  0  0  0
   -4.3225    4.1047    2.1461 H   0  0  0  0  0  0  0  0  0  0  0  0
   -3.6501    5.6277    1.5609 H   0  0  0  0  0  0  0  0  0  0  0  0
   -5.3905    5.3437    1.4668 H   0  0  0  0  0  0  0  0  0  0  0  0
   -5.3030    5.8887   -0.9919 H   0  0  0  0  0  0  0  0  0  0  0  0
   -3.5459    6.0128   -1.1529 H   0  0  0  0  0  0  0  0  0  0  0  0
   -4.4661    5.4071   -3.0730 H   0  0  0  0  0  0  0  0  0  0  0  0
   -0.2441    5.2187   -1.9208 H   0  0  0  0  0  0  0  0  0  0  0  0
    1.8926    4.4961   -2.8941 H   0  0  0  0  0  0  0  0  0  0  0  0
    2.9033    2.3579   -2.2436 H   0  0  0  0  0  0  0  0  0  0  0  0
    1.3034    0.1868    0.3506 H   0  0  0  0  0  0  0  0  0  0  0  0
    2.7442   -1.0778    0.8915 H   0  0  0  0  0  0  0  0  0  0  0  0
    4.7845   -1.7135   -2.2001 H   0  0  0  0  0  0  0  0  0  0  0  0
    6.4909   -3.4873   -2.3096 H   0  0  0  0  0  0  0  0  0  0  0  0
    3.9272   -2.7985    1.9159 H   0  0  0  0  0  0  0  0  0  0  0  0
    7.7542   -5.4179    1.7456 H   0  0  0  0  0  0  0  0  0  0  0  0
    6.5378   -6.5951    1.1924 H   0  0  0  0  0  0  0  0  0  0  0  0
   -1.0222    0.3345   -1.5940 H   0  0  0  0  0  0  0  0  0  0  0  0
   -2.1384   -1.7059   -0.5866 H   0  0  0  0  0  0  0  0  0  0  0  0
   -0.4285   -1.4897   -0.3364 H   0  0  0  0  0  0  0  0  0  0  0  0
   -2.9829   -1.6894    2.9357 H   0  0  0  0  0  0  0  0  0  0  0  0
   -3.0644   -2.6883    1.4617 H   0  0  0  0  0  0  0  0  0  0  0  0
   -3.7031   -1.0305    1.4785 H   0  0  0  0  0  0  0  0  0  0  0  0
    1.3858   -3.5101    0.3016 H   0  0  0  0  0  0  0  0  0  0  0  0
    1.2030   -6.1537    0.4598 H   0  0  0  0  0  0  0  0  0  0  0  0
   -0.4328   -6.8639    2.4000 H   0  0  0  0  0  0  0  0  0  0  0  0
  1  2  1  0
  2  3  1  0
  3  4  1  0
  4  5  1  0
  5  6  1  0
  5  7  1  0
  7  8  1  0
  4  9  1  0
  9 10  2  0
  9 11  1  0
 11 12  2  0
 12 13  1  0
 13 14  2  0
 14 15  1  0
 15 16  1  0
 16 17  1  0
 17 18  2  0
 17 19  1  0
 19 20  1  0
 20 21  2  0
 21 22  1  0
 22 23  2  0
 23 24  1  0
 24 25  2  0
 24 26  1  0
 26 27  1  0
 27 28  1  0
 15 29  2  0
 29 30  1  0
 30 31  1  0
 31 32  1  0
 32 33  1  0
 33 34  1  0
 33 35  1  0
 35 36  2  0
 35 37  2  0
 35 38  1  0
 38 39  2  0
 39 40  1  0
 40 41  2  0
 41 42  1  0
 31  2  1  0
 42 38  1  0
 29 11  1  0
 25 20  1  0
 28 23  1  0
  1 43  1  0
  1 44  1  0
  1 45  1  0
  2 46  1  0
  3 47  1  0
  3 48  1  0
  5 49  1  0
  6 50  1  0
  6 51  1  0
  6 52  1  0
  7 53  1  0
  7 54  1  0
  8 55  1  0
 12 56  1  0
 13 57  1  0
 14 58  1  0
 16 59  1  0
 19 60  1  0
 21 61  1  0
 22 62  1  0
 25 63  1  0
 27 64  1  0
 27 65  1  0
 31 66  1  0
 32 67  1  0
 32 68  1  0
 34 69  1  0
 34 70  1  0
 34 71  1  0
 39 72  1  0
 40 73  1  0
 41 74  1  0
M  END
$$$$
