
     RDKit          3D

 31 31  0  0  0  0  0  0  0  0999 V2000
    3.4672    0.7511   -2.0456 N   0  0  0  0  0  0  0  0  0  0  0  0
    3.9402   -0.2557   -1.2702 C   0  0  0  0  0  0  0  0  0  0  0  0
    5.3838   -0.9964   -1.6112 S   0  0  0  0  0  0  0  0  0  0  0  0
    3.1565   -0.6349   -0.2256 N   0  0  0  0  0  0  0  0  0  0  0  0
    1.8745   -0.0998   -0.0221 N   0  0  0  0  0  0  0  0  0  0  0  0
    1.1987   -0.5463    1.0967 C   0  0  0  0  0  0  0  0  0  0  0  0
    1.7225   -1.2794    1.9369 O   0  0  0  0  0  0  0  0  0  0  0  0
   -0.2642   -0.1268    1.2178 C   0  0  0  0  0  0  0  0  0  0  0  0
   -0.5012    1.3587    0.9122 C   0  0  0  0  0  0  0  0  0  0  0  0
   -1.9619    1.7423    1.1354 C   0  0  0  0  0  0  0  0  0  0  0  0
   -2.9116    0.8362    0.3580 C   0  0  0  0  0  0  0  0  0  0  0  0
   -2.6793   -0.6421    0.6757 C   0  0  0  0  0  0  0  0  0  0  0  0
   -1.2197   -1.0686    0.4593 C   0  0  0  0  0  0  0  0  0  0  0  0
   -0.9266   -1.1662   -1.0235 C   0  0  0  0  0  0  0  0  0  0  0  0
   -0.2139   -0.4175   -1.6735 O   0  0  0  0  0  0  0  0  0  0  0  0
   -1.5382   -2.2137   -1.6042 O   0  0  0  0  0  0  0  0  0  0  0  0
    2.8584    1.4241   -1.5989 H   0  0  0  0  0  0  0  0  0  0  0  0
    4.1069    1.1212   -2.7398 H   0  0  0  0  0  0  0  0  0  0  0  0
    3.4485   -1.3879    0.3996 H   0  0  0  0  0  0  0  0  0  0  0  0
    1.3299    0.0475   -0.8782 H   0  0  0  0  0  0  0  0  0  0  0  0
   -0.4916   -0.2490    2.2891 H   0  0  0  0  0  0  0  0  0  0  0  0
   -0.2223    1.6041   -0.1181 H   0  0  0  0  0  0  0  0  0  0  0  0
    0.1397    1.9755    1.5546 H   0  0  0  0  0  0  0  0  0  0  0  0
   -2.1951    1.6820    2.2057 H   0  0  0  0  0  0  0  0  0  0  0  0
   -2.1184    2.7846    0.8350 H   0  0  0  0  0  0  0  0  0  0  0  0
   -2.7831    1.0062   -0.7180 H   0  0  0  0  0  0  0  0  0  0  0  0
   -3.9472    1.1029    0.5982 H   0  0  0  0  0  0  0  0  0  0  0  0
   -2.9510   -0.8270    1.7228 H   0  0  0  0  0  0  0  0  0  0  0  0
   -3.3581   -1.2508    0.0669 H   0  0  0  0  0  0  0  0  0  0  0  0
   -1.0777   -2.0811    0.8612 H   0  0  0  0  0  0  0  0  0  0  0  0
   -1.2655   -2.1931   -2.5463 H   0  0  0  0  0  0  0  0  0  0  0  0
  1  2  1  0
  2  3  2  0
  2  4  1  0
  4  5  1  0
  5  6  1  0
  6  7  2  0
  6  8  1  0
  8  9  1  0
  9 10  1  0
 10 11  1  0
 11 12  1  0
 12 13  1  0
 13 14  1  0
 14 15  2  0
 14 16  1  0
 13  8  1  0
  1 17  1  0
  1 18  1  0
  4 19  1  0
  5 20  1  0
  8 21  1  0
  9 22  1  0
  9 23  1  0
 10 24  1  0
 10 25  1  0
 11 26  1  0
 11 27  1  0
 12 28  1  0
 12 29  1  0
 13 30  1  0
 16 31  1  0
M  END
$$$$
