
     RDKit          3D

 44 46  0  0  0  0  0  0  0  0999 V2000
    8.6765   -1.3520    0.4184 C   0  0  0  0  0  0  0  0  0  0  0  0
    8.0349   -0.1071    0.1678 O   0  0  0  0  0  0  0  0  0  0  0  0
    6.6702   -0.1172    0.0908 C   0  0  0  0  0  0  0  0  0  0  0  0
    6.0915    1.1286   -0.1589 C   0  0  0  0  0  0  0  0  0  0  0  0
    4.7033    1.2724   -0.2634 C   0  0  0  0  0  0  0  0  0  0  0  0
    3.8699    0.1617   -0.1163 C   0  0  0  0  0  0  0  0  0  0  0  0
    2.5033    0.1944   -0.1988 O   0  0  0  0  0  0  0  0  0  0  0  0
    1.8778    1.4558   -0.4209 C   0  0  0  0  0  0  0  0  0  0  0  0
    0.4156    1.2209   -0.4220 C   0  0  0  0  0  0  0  0  0  0  0  0
   -0.4165    0.2788    0.1304 C   0  0  0  0  0  0  0  0  0  0  0  0
   -1.7258    0.6666   -0.2637 C   0  0  0  0  0  0  0  0  0  0  0  0
   -2.9785   -0.0043    0.1258 C   0  0  0  0  0  0  0  0  0  0  0  0
   -2.9887   -0.7115    1.1343 O   0  0  0  0  0  0  0  0  0  0  0  0
   -4.1405    0.1849   -0.6415 N   0  0  0  0  0  0  0  0  0  0  0  0
   -4.1199    0.6876   -2.0102 C   0  0  0  0  0  0  0  0  0  0  0  0
   -5.4533   -0.1920   -0.1124 C   0  0  0  0  0  0  0  0  0  0  0  0
   -5.8338    0.4116    1.2263 C   0  0  0  0  0  0  0  0  0  0  0  0
   -7.0023   -0.4631    1.6366 C   0  0  0  0  0  0  0  0  0  0  0  0
   -6.8122   -1.7552    1.0388 O   0  0  0  0  0  0  0  0  0  0  0  0
   -5.6956   -1.6768    0.1345 C   0  0  0  0  0  0  0  0  0  0  0  0
   -1.6733    1.8043   -0.9801 N   0  0  0  0  0  0  0  0  0  0  0  0
   -0.3374    2.1343   -1.0895 O   0  0  0  0  0  0  0  0  0  0  0  0
    4.4577   -1.0896    0.1328 C   0  0  0  0  0  0  0  0  0  0  0  0
    3.4868   -2.5114    0.3245 Cl  0  0  0  0  0  0  0  0  0  0  0  0
    5.8472   -1.2306    0.2359 C   0  0  0  0  0  0  0  0  0  0  0  0
    8.3754   -1.7633    1.3879 H   0  0  0  0  0  0  0  0  0  0  0  0
    8.4843   -2.0641   -0.3910 H   0  0  0  0  0  0  0  0  0  0  0  0
    9.7551   -1.1707    0.4536 H   0  0  0  0  0  0  0  0  0  0  0  0
    6.7315    2.0015   -0.2747 H   0  0  0  0  0  0  0  0  0  0  0  0
    4.3164    2.2669   -0.4612 H   0  0  0  0  0  0  0  0  0  0  0  0
    2.1868    1.8645   -1.3903 H   0  0  0  0  0  0  0  0  0  0  0  0
    2.1247    2.1562    0.3855 H   0  0  0  0  0  0  0  0  0  0  0  0
   -0.1337   -0.5717    0.7350 H   0  0  0  0  0  0  0  0  0  0  0  0
   -3.1548    0.5174   -2.4918 H   0  0  0  0  0  0  0  0  0  0  0  0
   -4.3607    1.7538   -1.9966 H   0  0  0  0  0  0  0  0  0  0  0  0
   -4.8692    0.1547   -2.6044 H   0  0  0  0  0  0  0  0  0  0  0  0
   -6.2108    0.1537   -0.8307 H   0  0  0  0  0  0  0  0  0  0  0  0
   -5.0347    0.3199    1.9684 H   0  0  0  0  0  0  0  0  0  0  0  0
   -6.1008    1.4710    1.1643 H   0  0  0  0  0  0  0  0  0  0  0  0
   -7.9475   -0.0596    1.2583 H   0  0  0  0  0  0  0  0  0  0  0  0
   -7.0826   -0.5699    2.7223 H   0  0  0  0  0  0  0  0  0  0  0  0
   -5.9396   -2.2120   -0.7885 H   0  0  0  0  0  0  0  0  0  0  0  0
   -4.8520   -2.1880    0.6057 H   0  0  0  0  0  0  0  0  0  0  0  0
    6.2551   -2.2165    0.4289 H   0  0  0  0  0  0  0  0  0  0  0  0
  1  2  1  0
  2  3  1  0
  3  4  2  0
  4  5  1  0
  5  6  2  0
  6  7  1  0
  7  8  1  0
  8  9  1  0
  9 10  2  0
 10 11  1  0
 11 12  1  0
 12 13  2  0
 12 14  1  0
 14 15  1  0
 14 16  1  0
 16 17  1  0
 17 18  1  0
 18 19  1  0
 19 20  1  0
 11 21  2  0
 21 22  1  0
  6 23  1  0
 23 24  1  0
 23 25  2  0
 25  3  1  0
 22  9  1  0
 20 16  1  0
  1 26  1  0
  1 27  1  0
  1 28  1  0
  4 29  1  0
  5 30  1  0
  8 31  1  0
  8 32  1  0
 10 33  1  0
 15 34  1  0
 15 35  1  0
 15 36  1  0
 16 37  1  0
 17 38  1  0
 17 39  1  0
 18 40  1  0
 18 41  1  0
 20 42  1  0
 20 43  1  0
 25 44  1  0
M  END
$$$$
