
     RDKit          3D

 43 45  0  0  0  0  0  0  0  0999 V2000
   -3.6502    0.0664    2.8028 C   0  0  0  0  0  0  0  0  0  0  0  0
   -4.4372   -0.2682    1.5688 C   0  0  0  0  0  0  0  0  0  0  0  0
   -5.8358   -0.2056    1.6047 C   0  0  0  0  0  0  0  0  0  0  0  0
   -6.5889   -0.5122    0.4717 C   0  0  0  0  0  0  0  0  0  0  0  0
   -5.9533   -0.8974   -0.7079 C   0  0  0  0  0  0  0  0  0  0  0  0
   -4.5558   -0.9699   -0.7738 C   0  0  0  0  0  0  0  0  0  0  0  0
   -3.8981   -1.3953   -2.0550 C   0  0  0  0  0  0  0  0  0  0  0  0
   -3.8089   -0.6044    0.3581 C   0  0  0  0  0  0  0  0  0  0  0  0
   -2.4374   -0.6445    0.3051 O   0  0  0  0  0  0  0  0  0  0  0  0
   -1.9219    0.6244   -0.1179 C   0  0  0  0  0  0  0  0  0  0  0  0
   -0.4460    0.5521   -0.0195 C   0  0  0  0  0  0  0  0  0  0  0  0
    0.4495   -0.2826    0.6007 C   0  0  0  0  0  0  0  0  0  0  0  0
    1.7338    0.2407    0.2789 C   0  0  0  0  0  0  0  0  0  0  0  0
    3.0189   -0.3196    0.7370 C   0  0  0  0  0  0  0  0  0  0  0  0
    3.0088   -1.2320    1.5684 O   0  0  0  0  0  0  0  0  0  0  0  0
    4.2431    0.1657    0.2449 N   0  0  0  0  0  0  0  0  0  0  0  0
    5.4535   -0.5273    0.6859 C   0  0  0  0  0  0  0  0  0  0  0  0
    6.6871    0.3587    0.5628 C   0  0  0  0  0  0  0  0  0  0  0  0
    6.8423    0.8438   -0.7864 N   0  0  0  0  0  0  0  0  0  0  0  0
    5.7704    1.2946   -1.5107 C   0  0  0  0  0  0  0  0  0  0  0  0
    5.9565    1.9159   -2.5549 O   0  0  0  0  0  0  0  0  0  0  0  0
    4.3623    1.0095   -0.9575 C   0  0  0  0  0  0  0  0  0  0  0  0
    1.5974    1.3407   -0.4791 N   0  0  0  0  0  0  0  0  0  0  0  0
    0.2440    1.5255   -0.6680 O   0  0  0  0  0  0  0  0  0  0  0  0
   -4.2440   -0.1070    3.7064 H   0  0  0  0  0  0  0  0  0  0  0  0
   -3.3488    1.1173    2.7825 H   0  0  0  0  0  0  0  0  0  0  0  0
   -2.7580   -0.5621    2.8852 H   0  0  0  0  0  0  0  0  0  0  0  0
   -6.3497    0.0772    2.5208 H   0  0  0  0  0  0  0  0  0  0  0  0
   -7.6741   -0.4629    0.5118 H   0  0  0  0  0  0  0  0  0  0  0  0
   -6.5572   -1.1503   -1.5765 H   0  0  0  0  0  0  0  0  0  0  0  0
   -2.9975   -1.9870   -1.8594 H   0  0  0  0  0  0  0  0  0  0  0  0
   -4.5690   -2.0252   -2.6494 H   0  0  0  0  0  0  0  0  0  0  0  0
   -3.6301   -0.5172   -2.6501 H   0  0  0  0  0  0  0  0  0  0  0  0
   -2.2121    0.8259   -1.1554 H   0  0  0  0  0  0  0  0  0  0  0  0
   -2.2876    1.4355    0.5234 H   0  0  0  0  0  0  0  0  0  0  0  0
    0.2242   -1.1526    1.2011 H   0  0  0  0  0  0  0  0  0  0  0  0
    5.3458   -0.8602    1.7238 H   0  0  0  0  0  0  0  0  0  0  0  0
    5.5580   -1.4205    0.0576 H   0  0  0  0  0  0  0  0  0  0  0  0
    6.6020    1.2325    1.2179 H   0  0  0  0  0  0  0  0  0  0  0  0
    7.5929   -0.1937    0.8297 H   0  0  0  0  0  0  0  0  0  0  0  0
    7.7458    1.1523   -1.1249 H   0  0  0  0  0  0  0  0  0  0  0  0
    3.7921    0.5318   -1.7613 H   0  0  0  0  0  0  0  0  0  0  0  0
    3.9333    1.9875   -0.7194 H   0  0  0  0  0  0  0  0  0  0  0  0
  1  2  1  0
  2  3  2  0
  3  4  1  0
  4  5  2  0
  5  6  1  0
  6  7  1  0
  6  8  2  0
  8  9  1  0
  9 10  1  0
 10 11  1  0
 11 12  2  0
 12 13  1  0
 13 14  1  0
 14 15  2  0
 14 16  1  0
 16 17  1  0
 17 18  1  0
 18 19  1  0
 19 20  1  0
 20 21  2  0
 20 22  1  0
 13 23  2  0
 23 24  1  0
  8  2  1  0
 24 11  1  0
 22 16  1  0
  1 25  1  0
  1 26  1  0
  1 27  1  0
  3 28  1  0
  4 29  1  0
  5 30  1  0
  7 31  1  0
  7 32  1  0
  7 33  1  0
 10 34  1  0
 10 35  1  0
 12 36  1  0
 17 37  1  0
 17 38  1  0
 18 39  1  0
 18 40  1  0
 19 41  1  0
 22 42  1  0
 22 43  1  0
M  END
$$$$
