
     RDKit          3D

 53 56  0  0  0  0  0  0  0  0999 V2000
   -5.8454   -3.0296   -0.9493 C   0  0  0  0  0  0  0  0  0  0  0  0
   -4.3821   -2.7412   -0.6480 C   0  0  0  0  0  0  0  0  0  0  0  0
   -4.0404   -1.2411   -0.6195 C   0  0  0  0  0  0  0  0  0  0  0  0
   -4.7670   -0.4283    0.4805 C   0  0  0  0  0  0  0  0  0  0  0  0
   -4.3353   -0.7344    1.8991 C   0  0  0  0  0  0  0  0  0  0  0  0
   -3.3114    0.0129    2.5002 C   0  0  0  0  0  0  0  0  0  0  0  0
   -2.8934   -0.2702    3.8010 C   0  0  0  0  0  0  0  0  0  0  0  0
   -3.4977   -1.3005    4.5175 C   0  0  0  0  0  0  0  0  0  0  0  0
   -4.5233   -2.0432    3.9358 C   0  0  0  0  0  0  0  0  0  0  0  0
   -4.9426   -1.7602    2.6345 C   0  0  0  0  0  0  0  0  0  0  0  0
   -2.5882   -1.0806   -0.5334 N   0  0  0  0  0  0  0  0  0  0  0  0
   -1.9505    0.0437   -1.0109 C   0  0  0  0  0  0  0  0  0  0  0  0
   -2.5153    0.9142   -1.6634 O   0  0  0  0  0  0  0  0  0  0  0  0
   -0.4957    0.1676   -0.7123 C   0  0  0  0  0  0  0  0  0  0  0  0
    0.0764   -0.3761    0.4412 C   0  0  0  0  0  0  0  0  0  0  0  0
    1.4477   -0.2296    0.6884 C   0  0  0  0  0  0  0  0  0  0  0  0
    2.2564    0.4768   -0.2247 C   0  0  0  0  0  0  0  0  0  0  0  0
    3.6150    0.6933   -0.1031 N   0  0  0  0  0  0  0  0  0  0  0  0
    4.0832    1.4024   -1.1090 C   0  0  0  0  0  0  0  0  0  0  0  0
    5.4076    1.7374   -1.2358 N   0  0  0  0  0  0  0  0  0  0  0  0
    5.7718    2.9987   -1.9097 C   0  0  0  0  0  0  0  0  0  0  0  0
    7.2843    3.0508   -2.1773 C   0  0  0  0  0  0  0  0  0  0  0  0
    8.0426    2.8582   -0.9752 O   0  0  0  0  0  0  0  0  0  0  0  0
    7.7383    1.5744   -0.4100 C   0  0  0  0  0  0  0  0  0  0  0  0
    6.2507    1.4555   -0.0538 C   0  0  0  0  0  0  0  0  0  0  0  0
    2.8745    1.8222   -2.2781 S   0  0  0  0  0  0  0  0  0  0  0  0
    1.6660    1.0235   -1.3596 C   0  0  0  0  0  0  0  0  0  0  0  0
    0.2929    0.8882   -1.6235 C   0  0  0  0  0  0  0  0  0  0  0  0
   -6.5024   -2.6784   -0.1494 H   0  0  0  0  0  0  0  0  0  0  0  0
   -6.1543   -2.5530   -1.8850 H   0  0  0  0  0  0  0  0  0  0  0  0
   -6.0003   -4.1084   -1.0534 H   0  0  0  0  0  0  0  0  0  0  0  0
   -3.7765   -3.2243   -1.4264 H   0  0  0  0  0  0  0  0  0  0  0  0
   -4.0957   -3.2251    0.2926 H   0  0  0  0  0  0  0  0  0  0  0  0
   -4.3501   -0.8166   -1.5840 H   0  0  0  0  0  0  0  0  0  0  0  0
   -5.8529   -0.5564    0.3985 H   0  0  0  0  0  0  0  0  0  0  0  0
   -4.5988    0.6422    0.2989 H   0  0  0  0  0  0  0  0  0  0  0  0
   -2.8381    0.8284    1.9562 H   0  0  0  0  0  0  0  0  0  0  0  0
   -2.1025    0.3192    4.2575 H   0  0  0  0  0  0  0  0  0  0  0  0
   -3.1766   -1.5185    5.5327 H   0  0  0  0  0  0  0  0  0  0  0  0
   -5.0019   -2.8407    4.4983 H   0  0  0  0  0  0  0  0  0  0  0  0
   -5.7506   -2.3455    2.2027 H   0  0  0  0  0  0  0  0  0  0  0  0
   -2.0919   -1.7301    0.0600 H   0  0  0  0  0  0  0  0  0  0  0  0
   -0.5242   -0.8960    1.1821 H   0  0  0  0  0  0  0  0  0  0  0  0
    1.8973   -0.6484    1.5838 H   0  0  0  0  0  0  0  0  0  0  0  0
    5.2636    3.1101   -2.8731 H   0  0  0  0  0  0  0  0  0  0  0  0
    5.4866    3.8407   -1.2664 H   0  0  0  0  0  0  0  0  0  0  0  0
    7.5541    4.0295   -2.5866 H   0  0  0  0  0  0  0  0  0  0  0  0
    7.5792    2.2909   -2.9112 H   0  0  0  0  0  0  0  0  0  0  0  0
    8.3467    1.4565    0.4923 H   0  0  0  0  0  0  0  0  0  0  0  0
    8.0376    0.7922   -1.1181 H   0  0  0  0  0  0  0  0  0  0  0  0
    6.0070    2.1757    0.7377 H   0  0  0  0  0  0  0  0  0  0  0  0
    6.0727    0.4436    0.3295 H   0  0  0  0  0  0  0  0  0  0  0  0
   -0.1470    1.3278   -2.5153 H   0  0  0  0  0  0  0  0  0  0  0  0
  1  2  1  0
  2  3  1  0
  3  4  1  0
  4  5  1  0
  5  6  2  0
  6  7  1  0
  7  8  2  0
  8  9  1  0
  9 10  2  0
  3 11  1  0
 11 12  1  0
 12 13  2  0
 12 14  1  0
 14 15  2  0
 15 16  1  0
 16 17  2  0
 17 18  1  0
 18 19  2  0
 19 20  1  0
 20 21  1  0
 21 22  1  0
 22 23  1  0
 23 24  1  0
 24 25  1  0
 19 26  1  0
 26 27  1  0
 27 28  2  0
 10  5  1  0
 28 14  1  0
 27 17  1  0
 25 20  1  0
  1 29  1  0
  1 30  1  0
  1 31  1  0
  2 32  1  0
  2 33  1  0
  3 34  1  0
  4 35  1  0
  4 36  1  0
  6 37  1  0
  7 38  1  0
  8 39  1  0
  9 40  1  0
 10 41  1  0
 11 42  1  0
 15 43  1  0
 16 44  1  0
 21 45  1  0
 21 46  1  0
 22 47  1  0
 22 48  1  0
 24 49  1  0
 24 50  1  0
 25 51  1  0
 25 52  1  0
 28 53  1  0
M  END
$$$$
