
     RDKit          3D

 52 55  0  0  0  0  0  0  0  0999 V2000
   -1.8161   -0.1149   -2.6916 O   0  0  0  0  0  0  0  0  0  0  0  0
   -0.9424   -0.1053   -1.8267 C   0  0  0  0  0  0  0  0  0  0  0  0
   -0.2466   -1.2591   -1.4794 N   0  0  0  0  0  0  0  0  0  0  0  0
   -0.7021   -2.5691   -1.9001 C   0  0  0  0  0  0  0  0  0  0  0  0
   -1.8639   -3.0844   -1.0344 C   0  0  0  0  0  0  0  0  0  0  0  0
   -1.3330   -4.3281   -0.3279 C   0  0  0  0  0  0  0  0  0  0  0  0
   -0.2925   -4.8733   -1.2906 C   0  0  0  0  0  0  0  0  0  0  0  0
    0.4115   -3.6152   -1.7765 C   0  0  0  0  0  0  0  0  0  0  0  0
   -0.3789    1.1898   -1.1767 C   0  0  0  0  0  0  0  0  0  0  0  0
   -1.2840    2.4186   -1.1670 C   0  0  0  0  0  0  0  0  0  0  0  0
   -0.7068    3.6980   -1.1845 C   0  0  0  0  0  0  0  0  0  0  0  0
   -1.5313    4.8129   -1.1572 C   0  0  0  0  0  0  0  0  0  0  0  0
   -2.8762    4.7500   -1.1079 N   0  0  0  0  0  0  0  0  0  0  0  0
   -3.4192    3.5137   -1.0817 C   0  0  0  0  0  0  0  0  0  0  0  0
   -2.6789    2.3411   -1.1089 C   0  0  0  0  0  0  0  0  0  0  0  0
    0.2286    0.9012    0.1503 N   0  0  0  0  0  0  0  0  0  0  0  0
   -0.6291    0.4319    1.1706 C   0  0  0  0  0  0  0  0  0  0  0  0
   -1.8525    0.4357    1.0366 O   0  0  0  0  0  0  0  0  0  0  0  0
   -0.0317   -0.2038    2.3374 C   0  0  0  0  0  0  0  0  0  0  0  0
   -0.5678   -0.4691    3.5847 C   0  0  0  0  0  0  0  0  0  0  0  0
    0.4217   -1.1662    4.3184 C   0  0  0  0  0  0  0  0  0  0  0  0
    1.4935   -1.3101    3.4711 C   0  0  0  0  0  0  0  0  0  0  0  0
    1.2244   -0.7496    2.2649 O   0  0  0  0  0  0  0  0  0  0  0  0
    1.5244    1.4573    0.4054 C   0  0  0  0  0  0  0  0  0  0  0  0
    2.5605    1.2987   -0.5263 C   0  0  0  0  0  0  0  0  0  0  0  0
    3.8169    1.8668   -0.3003 C   0  0  0  0  0  0  0  0  0  0  0  0
    4.0516    2.6061    0.8559 C   0  0  0  0  0  0  0  0  0  0  0  0
    3.0317    2.7749    1.7882 C   0  0  0  0  0  0  0  0  0  0  0  0
    1.7755    2.2052    1.5647 C   0  0  0  0  0  0  0  0  0  0  0  0
    0.3533   -1.2032   -0.6637 H   0  0  0  0  0  0  0  0  0  0  0  0
   -1.0358   -2.4990   -2.9424 H   0  0  0  0  0  0  0  0  0  0  0  0
   -2.2410   -2.3487   -0.3168 H   0  0  0  0  0  0  0  0  0  0  0  0
   -2.6997   -3.3657   -1.6860 H   0  0  0  0  0  0  0  0  0  0  0  0
   -2.1230   -5.0528   -0.1172 H   0  0  0  0  0  0  0  0  0  0  0  0
   -0.8621   -4.0479    0.6221 H   0  0  0  0  0  0  0  0  0  0  0  0
   -0.7795   -5.3864   -2.1300 H   0  0  0  0  0  0  0  0  0  0  0  0
    0.3945   -5.5762   -0.8091 H   0  0  0  0  0  0  0  0  0  0  0  0
    1.1666   -3.3084   -1.0404 H   0  0  0  0  0  0  0  0  0  0  0  0
    0.9283   -3.7745   -2.7289 H   0  0  0  0  0  0  0  0  0  0  0  0
    0.4235    1.4464   -1.8821 H   0  0  0  0  0  0  0  0  0  0  0  0
    0.3698    3.8332   -1.2166 H   0  0  0  0  0  0  0  0  0  0  0  0
   -1.1154    5.8165   -1.1730 H   0  0  0  0  0  0  0  0  0  0  0  0
   -4.5046    3.4842   -1.0325 H   0  0  0  0  0  0  0  0  0  0  0  0
   -3.1974    1.3869   -1.0716 H   0  0  0  0  0  0  0  0  0  0  0  0
   -1.5604   -0.1876    3.9115 H   0  0  0  0  0  0  0  0  0  0  0  0
    0.3573   -1.5303    5.3340 H   0  0  0  0  0  0  0  0  0  0  0  0
    2.4684   -1.7696    3.5671 H   0  0  0  0  0  0  0  0  0  0  0  0
    2.4242    0.7039   -1.4248 H   0  0  0  0  0  0  0  0  0  0  0  0
    4.6139    1.7283   -1.0261 H   0  0  0  0  0  0  0  0  0  0  0  0
    5.0286    3.0490    1.0312 H   0  0  0  0  0  0  0  0  0  0  0  0
    3.2094    3.3589    2.6879 H   0  0  0  0  0  0  0  0  0  0  0  0
    0.9934    2.3890    2.2970 H   0  0  0  0  0  0  0  0  0  0  0  0
  1  2  2  0
  2  3  1  0
  3  4  1  0
  4  5  1  0
  5  6  1  0
  6  7  1  0
  7  8  1  0
  2  9  1  0
  9 10  1  0
 10 11  2  0
 11 12  1  0
 12 13  2  0
 13 14  1  0
 14 15  2  0
  9 16  1  0
 16 17  1  0
 17 18  2  0
 17 19  1  0
 19 20  2  0
 20 21  1  0
 21 22  2  0
 22 23  1  0
 16 24  1  0
 24 25  2  0
 25 26  1  0
 26 27  2  0
 27 28  1  0
 28 29  2  0
  8  4  1  0
 15 10  1  0
 23 19  1  0
 29 24  1  0
  3 30  1  0
  4 31  1  0
  5 32  1  0
  5 33  1  0
  6 34  1  0
  6 35  1  0
  7 36  1  0
  7 37  1  0
  8 38  1  0
  8 39  1  0
  9 40  1  0
 11 41  1  0
 12 42  1  0
 14 43  1  0
 15 44  1  0
 20 45  1  0
 21 46  1  0
 22 47  1  0
 25 48  1  0
 26 49  1  0
 27 50  1  0
 28 51  1  0
 29 52  1  0
M  END
$$$$
