
     RDKit          3D

 62 64  0  0  0  0  0  0  0  0999 V2000
   -3.2095    1.3207   -2.7348 C   0  0  0  0  0  0  0  0  0  0  0  0
   -2.5473    1.0072   -1.4182 C   0  0  0  0  0  0  0  0  0  0  0  0
   -1.2871    1.6246   -1.2291 C   0  0  0  0  0  0  0  0  0  0  0  0
   -0.5210    1.3935   -0.0946 C   0  0  0  0  0  0  0  0  0  0  0  0
    0.6790    2.1129    0.0032 O   0  0  0  0  0  0  0  0  0  0  0  0
    1.4585    2.0320    1.1417 C   0  0  0  0  0  0  0  0  0  0  0  0
    2.4288    2.7681    1.2971 O   0  0  0  0  0  0  0  0  0  0  0  0
    1.1038    0.9962    2.1549 C   0  0  0  0  0  0  0  0  0  0  0  0
    2.1318    0.8820    3.2573 C   0  0  0  0  0  0  0  0  0  0  0  0
    3.3162    0.0800    2.7354 C   0  0  0  0  0  0  0  0  0  0  0  0
    3.3273   -1.1480    2.7498 O   0  0  0  0  0  0  0  0  0  0  0  0
    4.3199    0.8581    2.2046 N   0  0  0  0  0  0  0  0  0  0  0  0
    5.4900    0.3018    1.5488 C   0  0  0  0  0  0  0  0  0  0  0  0
    5.7852    1.0167    0.2284 C   0  0  0  0  0  0  0  0  0  0  0  0
    4.7939    0.6549   -0.8879 C   0  0  0  0  0  0  0  0  0  0  0  0
    4.9519   -0.7266   -1.3734 N   0  0  0  0  0  0  0  0  0  0  0  0
    6.0920   -0.8517   -2.2850 C   0  0  0  0  0  0  0  0  0  0  0  0
    3.7297   -1.1663   -2.0533 C   0  0  0  0  0  0  0  0  0  0  0  0
   -0.0228    0.2568    2.0494 C   0  0  0  0  0  0  0  0  0  0  0  0
   -0.3716   -0.8595    3.0000 C   0  0  0  0  0  0  0  0  0  0  0  0
   -0.9131    0.5194    0.9052 C   0  0  0  0  0  0  0  0  0  0  0  0
   -2.1788   -0.0640    0.7206 C   0  0  0  0  0  0  0  0  0  0  0  0
   -2.7708   -0.9020    1.6095 O   0  0  0  0  0  0  0  0  0  0  0  0
   -3.9589   -1.2690    1.1094 C   0  0  0  0  0  0  0  0  0  0  0  0
   -4.2057   -0.6900   -0.1244 C   0  0  0  0  0  0  0  0  0  0  0  0
   -5.4916   -0.9239   -0.9238 C   0  0  0  0  0  0  0  0  0  0  0  0
   -6.4102   -1.9816   -0.2402 C   0  0  0  0  0  0  0  0  0  0  0  0
   -5.1903   -1.4967   -2.3219 C   0  0  0  0  0  0  0  0  0  0  0  0
   -6.3303    0.3679   -0.9967 C   0  0  0  0  0  0  0  0  0  0  0  0
   -3.0222    0.1320   -0.3905 C   0  0  0  0  0  0  0  0  0  0  0  0
   -2.9626    2.3365   -3.0665 H   0  0  0  0  0  0  0  0  0  0  0  0
   -2.8564    0.6173   -3.4975 H   0  0  0  0  0  0  0  0  0  0  0  0
   -4.2914    1.2775   -2.6876 H   0  0  0  0  0  0  0  0  0  0  0  0
   -0.8983    2.3055   -1.9873 H   0  0  0  0  0  0  0  0  0  0  0  0
    2.4637    1.8729    3.5960 H   0  0  0  0  0  0  0  0  0  0  0  0
    1.7520    0.3954    4.1619 H   0  0  0  0  0  0  0  0  0  0  0  0
    4.1380    1.8536    2.0923 H   0  0  0  0  0  0  0  0  0  0  0  0
    6.3257    0.4643    2.2383 H   0  0  0  0  0  0  0  0  0  0  0  0
    5.3781   -0.7786    1.4090 H   0  0  0  0  0  0  0  0  0  0  0  0
    5.7493    2.1023    0.3862 H   0  0  0  0  0  0  0  0  0  0  0  0
    6.8118    0.7868   -0.0802 H   0  0  0  0  0  0  0  0  0  0  0  0
    4.8967    1.3670   -1.7167 H   0  0  0  0  0  0  0  0  0  0  0  0
    3.7820    0.7947   -0.4910 H   0  0  0  0  0  0  0  0  0  0  0  0
    7.0332   -0.6140   -1.7783 H   0  0  0  0  0  0  0  0  0  0  0  0
    6.1870   -1.8847   -2.6401 H   0  0  0  0  0  0  0  0  0  0  0  0
    5.9932   -0.1996   -3.1599 H   0  0  0  0  0  0  0  0  0  0  0  0
    3.4847   -0.5351   -2.9149 H   0  0  0  0  0  0  0  0  0  0  0  0
    2.8798   -1.1560   -1.3622 H   0  0  0  0  0  0  0  0  0  0  0  0
    3.8323   -2.1996   -2.4016 H   0  0  0  0  0  0  0  0  0  0  0  0
   -1.2251   -0.5828    3.6273 H   0  0  0  0  0  0  0  0  0  0  0  0
    0.4461   -1.1308    3.6697 H   0  0  0  0  0  0  0  0  0  0  0  0
   -0.6057   -1.7783    2.4527 H   0  0  0  0  0  0  0  0  0  0  0  0
   -4.5212   -1.9450    1.7411 H   0  0  0  0  0  0  0  0  0  0  0  0
   -7.3236   -2.1509   -0.8250 H   0  0  0  0  0  0  0  0  0  0  0  0
   -6.7247   -1.6593    0.7600 H   0  0  0  0  0  0  0  0  0  0  0  0
   -5.9031   -2.9505   -0.1362 H   0  0  0  0  0  0  0  0  0  0  0  0
   -6.1143   -1.6867   -2.8812 H   0  0  0  0  0  0  0  0  0  0  0  0
   -4.6523   -2.4484   -2.2455 H   0  0  0  0  0  0  0  0  0  0  0  0
   -4.5833   -0.8373   -2.9392 H   0  0  0  0  0  0  0  0  0  0  0  0
   -5.7594    1.2318   -1.3359 H   0  0  0  0  0  0  0  0  0  0  0  0
   -6.7230    0.6375   -0.0080 H   0  0  0  0  0  0  0  0  0  0  0  0
   -7.1863    0.2492   -1.6691 H   0  0  0  0  0  0  0  0  0  0  0  0
  1  2  1  0
  2  3  2  0
  3  4  1  0
  4  5  1  0
  5  6  1  0
  6  7  2  0
  6  8  1  0
  8  9  1  0
  9 10  1  0
 10 11  2  0
 10 12  1  0
 12 13  1  0
 13 14  1  0
 14 15  1  0
 15 16  1  0
 16 17  1  0
 16 18  1  0
  8 19  2  0
 19 20  1  0
 19 21  1  0
 21 22  1  0
 22 23  1  0
 23 24  1  0
 24 25  2  0
 25 26  1  0
 26 27  1  0
 26 28  1  0
 26 29  1  0
 25 30  1  0
 30  2  1  0
 21  4  2  0
 30 22  2  0
  1 31  1  0
  1 32  1  0
  1 33  1  0
  3 34  1  0
  9 35  1  0
  9 36  1  0
 12 37  1  0
 13 38  1  0
 13 39  1  0
 14 40  1  0
 14 41  1  0
 15 42  1  0
 15 43  1  0
 17 44  1  0
 17 45  1  0
 17 46  1  0
 18 47  1  0
 18 48  1  0
 18 49  1  0
 20 50  1  0
 20 51  1  0
 20 52  1  0
 24 53  1  0
 27 54  1  0
 27 55  1  0
 27 56  1  0
 28 57  1  0
 28 58  1  0
 28 59  1  0
 29 60  1  0
 29 61  1  0
 29 62  1  0
M  END
$$$$
