
     RDKit          3D

 47 49  0  0  0  0  0  0  0  0999 V2000
    5.9418   -0.6969    2.2707 C   0  0  0  0  0  0  0  0  0  0  0  0
    5.2075   -0.6335    0.9593 C   0  0  0  0  0  0  0  0  0  0  0  0
    3.8169   -0.8247    0.9467 C   0  0  0  0  0  0  0  0  0  0  0  0
    3.0881   -0.7803   -0.2434 C   0  0  0  0  0  0  0  0  0  0  0  0
    1.7445   -0.9858   -0.0934 O   0  0  0  0  0  0  0  0  0  0  0  0
    0.9445   -0.9516   -1.2758 C   0  0  0  0  0  0  0  0  0  0  0  0
   -0.4584   -1.1858   -0.8669 C   0  0  0  0  0  0  0  0  0  0  0  0
   -1.1434   -1.1613    0.3235 C   0  0  0  0  0  0  0  0  0  0  0  0
   -2.4902   -1.4415   -0.0246 C   0  0  0  0  0  0  0  0  0  0  0  0
   -3.6663   -1.5567    0.8462 C   0  0  0  0  0  0  0  0  0  0  0  0
   -4.4304   -2.5189    0.7420 O   0  0  0  0  0  0  0  0  0  0  0  0
   -3.8995   -0.5658    1.8192 N   0  0  0  0  0  0  0  0  0  0  0  0
   -5.0523   -0.7513    2.6843 C   0  0  0  0  0  0  0  0  0  0  0  0
   -3.3252    0.7843    1.7583 C   0  0  0  0  0  0  0  0  0  0  0  0
   -3.7109    1.5843    0.5330 C   0  0  0  0  0  0  0  0  0  0  0  0
   -5.0311    1.9689    0.3094 C   0  0  0  0  0  0  0  0  0  0  0  0
   -5.3380    2.6860   -0.8457 C   0  0  0  0  0  0  0  0  0  0  0  0
   -4.3263    2.9991   -1.7433 C   0  0  0  0  0  0  0  0  0  0  0  0
   -3.0396    2.5887   -1.4441 C   0  0  0  0  0  0  0  0  0  0  0  0
   -2.7097    1.9033   -0.3268 N   0  0  0  0  0  0  0  0  0  0  0  0
   -2.5875   -1.6838   -1.3441 N   0  0  0  0  0  0  0  0  0  0  0  0
   -1.3242   -1.4943   -1.8665 O   0  0  0  0  0  0  0  0  0  0  0  0
    3.7558   -0.5435   -1.4457 C   0  0  0  0  0  0  0  0  0  0  0  0
    5.1496   -0.3496   -1.4679 C   0  0  0  0  0  0  0  0  0  0  0  0
    5.8298   -0.0998   -2.7884 C   0  0  0  0  0  0  0  0  0  0  0  0
    5.8694   -0.3943   -0.2585 C   0  0  0  0  0  0  0  0  0  0  0  0
    7.5884   -0.1555   -0.2703 Cl  0  0  0  0  0  0  0  0  0  0  0  0
    5.2564   -0.8717    3.1070 H   0  0  0  0  0  0  0  0  0  0  0  0
    6.4581    0.2485    2.4667 H   0  0  0  0  0  0  0  0  0  0  0  0
    6.6649   -1.5179    2.2627 H   0  0  0  0  0  0  0  0  0  0  0  0
    3.2853   -1.0129    1.8782 H   0  0  0  0  0  0  0  0  0  0  0  0
    1.2593   -1.7408   -1.9691 H   0  0  0  0  0  0  0  0  0  0  0  0
    1.0156    0.0312   -1.7571 H   0  0  0  0  0  0  0  0  0  0  0  0
   -0.7288   -0.9649    1.3000 H   0  0  0  0  0  0  0  0  0  0  0  0
   -4.8774   -0.2535    3.6421 H   0  0  0  0  0  0  0  0  0  0  0  0
   -5.9377   -0.3297    2.2000 H   0  0  0  0  0  0  0  0  0  0  0  0
   -5.2313   -1.8126    2.8790 H   0  0  0  0  0  0  0  0  0  0  0  0
   -2.2371    0.7022    1.8167 H   0  0  0  0  0  0  0  0  0  0  0  0
   -3.6236    1.3425    2.6546 H   0  0  0  0  0  0  0  0  0  0  0  0
   -5.8163    1.7153    1.0132 H   0  0  0  0  0  0  0  0  0  0  0  0
   -6.3614    2.9886   -1.0472 H   0  0  0  0  0  0  0  0  0  0  0  0
   -4.5349    3.5461   -2.6557 H   0  0  0  0  0  0  0  0  0  0  0  0
   -2.2139    2.8063   -2.1149 H   0  0  0  0  0  0  0  0  0  0  0  0
    3.2168   -0.5085   -2.3888 H   0  0  0  0  0  0  0  0  0  0  0  0
    5.1151   -0.1093   -3.6175 H   0  0  0  0  0  0  0  0  0  0  0  0
    6.3159    0.8806   -2.7883 H   0  0  0  0  0  0  0  0  0  0  0  0
    6.5716   -0.8793   -2.9899 H   0  0  0  0  0  0  0  0  0  0  0  0
  1  2  1  0
  2  3  2  0
  3  4  1  0
  4  5  1  0
  5  6  1  0
  6  7  1  0
  7  8  2  0
  8  9  1  0
  9 10  1  0
 10 11  2  0
 10 12  1  0
 12 13  1  0
 12 14  1  0
 14 15  1  0
 15 16  2  0
 16 17  1  0
 17 18  2  0
 18 19  1  0
 19 20  2  0
  9 21  2  0
 21 22  1  0
  4 23  2  0
 23 24  1  0
 24 25  1  0
 24 26  2  0
 26 27  1  0
 26  2  1  0
 22  7  1  0
 20 15  1  0
  1 28  1  0
  1 29  1  0
  1 30  1  0
  3 31  1  0
  6 32  1  0
  6 33  1  0
  8 34  1  0
 13 35  1  0
 13 36  1  0
 13 37  1  0
 14 38  1  0
 14 39  1  0
 16 40  1  0
 17 41  1  0
 18 42  1  0
 19 43  1  0
 23 44  1  0
 25 45  1  0
 25 46  1  0
 25 47  1  0
M  END
$$$$
