
     RDKit          3D

 34 36  0  0  0  0  0  0  0  0999 V2000
    0.3044   -1.2448    1.8542 O   0  0  0  0  0  0  0  0  0  0  0  0
    0.3814   -1.2707    0.6323 C   0  0  0  0  0  0  0  0  0  0  0  0
    1.5894   -0.9086   -0.1587 C   0  0  0  0  0  0  0  0  0  0  0  0
    2.6752   -0.3968    0.4348 C   0  0  0  0  0  0  0  0  0  0  0  0
    3.9228    0.0361   -0.1938 C   0  0  0  0  0  0  0  0  0  0  0  0
    4.6595   -0.7704   -1.0552 C   0  0  0  0  0  0  0  0  0  0  0  0
    5.8587   -0.2823   -1.5694 C   0  0  0  0  0  0  0  0  0  0  0  0
    6.2931    0.9839   -1.1989 C   0  0  0  0  0  0  0  0  0  0  0  0
    5.5098    1.7094   -0.3184 C   0  0  0  0  0  0  0  0  0  0  0  0
    4.3442    1.2602    0.1973 N   0  0  0  0  0  0  0  0  0  0  0  0
    1.3221   -1.2112   -1.8373 S   0  0  0  0  0  0  0  0  0  0  0  0
   -0.3295   -1.7833   -1.5837 C   0  0  0  0  0  0  0  0  0  0  0  0
   -1.2948   -2.3538   -2.8192 S   0  0  0  0  0  0  0  0  0  0  0  0
   -0.6096   -1.6929   -0.2363 N   0  0  0  0  0  0  0  0  0  0  0  0
   -1.8692   -2.0535    0.3034 N   0  0  0  0  0  0  0  0  0  0  0  0
   -2.7461   -0.9308    0.4082 C   0  0  0  0  0  0  0  0  0  0  0  0
   -2.4308    0.2248   -0.2333 N   0  0  0  0  0  0  0  0  0  0  0  0
   -3.3009    1.2599   -0.1586 C   0  0  0  0  0  0  0  0  0  0  0  0
   -4.4986    1.2181    0.5374 C   0  0  0  0  0  0  0  0  0  0  0  0
   -5.4089    2.4067    0.5438 C   0  0  0  0  0  0  0  0  0  0  0  0
   -4.7379    3.5904    0.5196 F   0  0  0  0  0  0  0  0  0  0  0  0
   -6.2109    2.4556    1.6426 F   0  0  0  0  0  0  0  0  0  0  0  0
   -6.2423    2.4243   -0.5305 F   0  0  0  0  0  0  0  0  0  0  0  0
   -4.8252    0.0236    1.1850 C   0  0  0  0  0  0  0  0  0  0  0  0
   -3.9475   -1.0588    1.1214 C   0  0  0  0  0  0  0  0  0  0  0  0
   -4.3686   -2.5167    1.9438 Cl  0  0  0  0  0  0  0  0  0  0  0  0
    2.6568   -0.2110    1.5079 H   0  0  0  0  0  0  0  0  0  0  0  0
    4.3247   -1.7665   -1.3235 H   0  0  0  0  0  0  0  0  0  0  0  0
    6.4500   -0.8887   -2.2498 H   0  0  0  0  0  0  0  0  0  0  0  0
    7.2215    1.3931   -1.5812 H   0  0  0  0  0  0  0  0  0  0  0  0
    5.8076    2.7017    0.0086 H   0  0  0  0  0  0  0  0  0  0  0  0
   -1.7517   -2.4373    1.2459 H   0  0  0  0  0  0  0  0  0  0  0  0
   -2.9885    2.1529   -0.6984 H   0  0  0  0  0  0  0  0  0  0  0  0
   -5.7601   -0.0628    1.7357 H   0  0  0  0  0  0  0  0  0  0  0  0
  1  2  2  0
  2  3  1  0
  3  4  2  3
  4  5  1  0
  5  6  2  0
  6  7  1  0
  7  8  2  0
  8  9  1  0
  9 10  2  0
  3 11  1  0
 11 12  1  0
 12 13  2  0
 12 14  1  0
 14 15  1  0
 15 16  1  0
 16 17  2  0
 17 18  1  0
 18 19  2  0
 19 20  1  0
 20 21  1  0
 20 22  1  0
 20 23  1  0
 19 24  1  0
 24 25  2  0
 25 26  1  0
 14  2  1  0
 25 16  1  0
 10  5  1  0
  4 27  1  0
  6 28  1  0
  7 29  1  0
  8 30  1  0
  9 31  1  0
 15 32  1  0
 18 33  1  0
 24 34  1  0
M  END
$$$$
