
     RDKit          3D

 53 54  0  0  0  0  0  0  0  0999 V2000
   -0.7824    0.2592    0.5295 C   0  0  0  0  0  0  0  0  0  0  0  0
   -0.0846   -0.8884   -0.2275 C   0  0  0  0  0  0  0  0  0  0  0  0
    0.6869   -1.7613    0.7788 C   0  0  0  0  0  0  0  0  0  0  0  0
    0.8790   -0.3122   -1.3011 C   0  0  0  0  0  0  0  0  0  0  0  0
    1.8963    0.5813   -0.7774 N   0  0  0  0  0  0  0  0  0  0  0  0
    3.1854    0.1729   -0.5523 C   0  0  0  0  0  0  0  0  0  0  0  0
    3.6051   -0.9597   -0.7524 O   0  0  0  0  0  0  0  0  0  0  0  0
    4.0790    1.1962    0.0427 C   0  0  0  0  0  0  0  0  0  0  0  0
    4.0270    2.5017   -0.2650 C   0  0  0  0  0  0  0  0  0  0  0  0
    4.9349    3.5084    0.3029 C   0  0  0  0  0  0  0  0  0  0  0  0
    6.2936    3.2451    0.5373 C   0  0  0  0  0  0  0  0  0  0  0  0
    7.1295    4.2388    1.0531 C   0  0  0  0  0  0  0  0  0  0  0  0
    6.6109    5.4986    1.3246 C   0  0  0  0  0  0  0  0  0  0  0  0
    7.4126    6.4511    1.8179 F   0  0  0  0  0  0  0  0  0  0  0  0
    5.2731    5.7858    1.0857 C   0  0  0  0  0  0  0  0  0  0  0  0
    4.4367    4.7932    0.5690 C   0  0  0  0  0  0  0  0  0  0  0  0
   -1.1355   -1.7451   -0.9838 C   0  0  0  0  0  0  0  0  0  0  0  0
   -2.1512   -2.3253   -0.1267 N   0  0  0  0  0  0  0  0  0  0  0  0
   -2.2135   -3.6649    0.1455 C   0  0  0  0  0  0  0  0  0  0  0  0
   -1.4064   -4.4977   -0.2470 O   0  0  0  0  0  0  0  0  0  0  0  0
   -3.3153   -4.0768    1.0512 C   0  0  0  0  0  0  0  0  0  0  0  0
   -4.5913   -3.6582    1.0602 C   0  0  0  0  0  0  0  0  0  0  0  0
   -5.2255   -2.7070    0.1426 C   0  0  0  0  0  0  0  0  0  0  0  0
   -5.9257   -1.6126    0.6688 C   0  0  0  0  0  0  0  0  0  0  0  0
   -6.5451   -0.6977   -0.1853 C   0  0  0  0  0  0  0  0  0  0  0  0
   -6.4719   -0.8848   -1.5607 C   0  0  0  0  0  0  0  0  0  0  0  0
   -7.0628   -0.0039   -2.3780 F   0  0  0  0  0  0  0  0  0  0  0  0
   -5.7963   -1.9730   -2.0993 C   0  0  0  0  0  0  0  0  0  0  0  0
   -5.1779   -2.8896   -1.2469 C   0  0  0  0  0  0  0  0  0  0  0  0
   -1.4823   -0.1204    1.2818 H   0  0  0  0  0  0  0  0  0  0  0  0
   -1.3452    0.8997   -0.1587 H   0  0  0  0  0  0  0  0  0  0  0  0
   -0.0605    0.8898    1.0600 H   0  0  0  0  0  0  0  0  0  0  0  0
    1.2025   -2.5847    0.2723 H   0  0  0  0  0  0  0  0  0  0  0  0
    1.4369   -1.1793    1.3247 H   0  0  0  0  0  0  0  0  0  0  0  0
    0.0183   -2.1967    1.5294 H   0  0  0  0  0  0  0  0  0  0  0  0
    0.3128    0.2768   -2.0328 H   0  0  0  0  0  0  0  0  0  0  0  0
    1.3658   -1.1274   -1.8500 H   0  0  0  0  0  0  0  0  0  0  0  0
    1.6120    1.5017   -0.4740 H   0  0  0  0  0  0  0  0  0  0  0  0
    4.8274    0.7835    0.7111 H   0  0  0  0  0  0  0  0  0  0  0  0
    3.2953    2.8809   -0.9735 H   0  0  0  0  0  0  0  0  0  0  0  0
    6.7209    2.2707    0.3103 H   0  0  0  0  0  0  0  0  0  0  0  0
    8.1803    4.0385    1.2371 H   0  0  0  0  0  0  0  0  0  0  0  0
    4.8904    6.7785    1.2999 H   0  0  0  0  0  0  0  0  0  0  0  0
    3.3913    5.0315    0.3849 H   0  0  0  0  0  0  0  0  0  0  0  0
   -0.6381   -2.5419   -1.5494 H   0  0  0  0  0  0  0  0  0  0  0  0
   -1.6744   -1.1237   -1.7092 H   0  0  0  0  0  0  0  0  0  0  0  0
   -2.8545   -1.7155    0.2669 H   0  0  0  0  0  0  0  0  0  0  0  0
   -3.0090   -4.8520    1.7489 H   0  0  0  0  0  0  0  0  0  0  0  0
   -5.2622   -4.0767    1.8090 H   0  0  0  0  0  0  0  0  0  0  0  0
   -5.9897   -1.4610    1.7441 H   0  0  0  0  0  0  0  0  0  0  0  0
   -7.0856    0.1555    0.2124 H   0  0  0  0  0  0  0  0  0  0  0  0
   -5.7581   -2.1049   -3.1760 H   0  0  0  0  0  0  0  0  0  0  0  0
   -4.6589   -3.7451   -1.6756 H   0  0  0  0  0  0  0  0  0  0  0  0
  1  2  1  0
  2  3  1  0
  2  4  1  0
  4  5  1  0
  5  6  1  0
  6  7  2  0
  6  8  1  0
  8  9  2  3
  9 10  1  0
 10 11  2  0
 11 12  1  0
 12 13  2  0
 13 14  1  0
 13 15  1  0
 15 16  2  0
  2 17  1  0
 17 18  1  0
 18 19  1  0
 19 20  2  0
 19 21  1  0
 21 22  2  3
 22 23  1  0
 23 24  2  0
 24 25  1  0
 25 26  2  0
 26 27  1  0
 26 28  1  0
 28 29  2  0
 16 10  1  0
 29 23  1  0
  1 30  1  0
  1 31  1  0
  1 32  1  0
  3 33  1  0
  3 34  1  0
  3 35  1  0
  4 36  1  0
  4 37  1  0
  5 38  1  0
  8 39  1  0
  9 40  1  0
 11 41  1  0
 12 42  1  0
 15 43  1  0
 16 44  1  0
 17 45  1  0
 17 46  1  0
 18 47  1  0
 21 48  1  0
 22 49  1  0
 24 50  1  0
 25 51  1  0
 28 52  1  0
 29 53  1  0
M  END
$$$$
