
     RDKit          3D

 37 40  0  0  0  0  0  0  0  0999 V2000
    0.5882    0.2880   -0.8735 O   0  0  0  0  0  0  0  0  0  0  0  0
    1.6606    0.1918   -0.3164 C   0  0  0  0  0  0  0  0  0  0  0  0
    2.8024   -0.2777   -0.8945 O   0  0  0  0  0  0  0  0  0  0  0  0
    3.7778   -0.1538    0.0358 C   0  0  0  0  0  0  0  0  0  0  0  0
    5.0693   -0.5845   -0.4009 C   0  0  0  0  0  0  0  0  0  0  0  0
    5.5171   -1.1125   -1.5992 C   0  0  0  0  0  0  0  0  0  0  0  0
    6.9048   -1.3516   -1.4491 C   0  0  0  0  0  0  0  0  0  0  0  0
    7.2233   -0.9569   -0.1723 C   0  0  0  0  0  0  0  0  0  0  0  0
    6.1221   -0.4918    0.4698 O   0  0  0  0  0  0  0  0  0  0  0  0
    3.4565    0.3309    1.1897 N   0  0  0  0  0  0  0  0  0  0  0  0
    2.1044    0.5605    1.0668 C   0  0  0  0  0  0  0  0  0  0  0  0
    1.3925    1.0538    2.0887 C   0  0  0  0  0  0  0  0  0  0  0  0
   -0.0064    1.2862    2.1025 C   0  0  0  0  0  0  0  0  0  0  0  0
   -0.7239    2.1315    2.9408 C   0  0  0  0  0  0  0  0  0  0  0  0
   -2.0957    2.0161    2.6090 C   0  0  0  0  0  0  0  0  0  0  0  0
   -2.1709    1.0967    1.5867 C   0  0  0  0  0  0  0  0  0  0  0  0
   -3.2573    0.5256    0.7946 C   0  0  0  0  0  0  0  0  0  0  0  0
   -4.5952    0.7641    1.1391 C   0  0  0  0  0  0  0  0  0  0  0  0
   -5.6387    0.2257    0.3817 C   0  0  0  0  0  0  0  0  0  0  0  0
   -5.3593   -0.5618   -0.7337 C   0  0  0  0  0  0  0  0  0  0  0  0
   -4.0326   -0.8240   -1.1005 C   0  0  0  0  0  0  0  0  0  0  0  0
   -3.7130   -1.6563   -2.3168 C   0  0  0  0  0  0  0  0  0  0  0  0
   -3.4070   -0.8965   -3.4043 F   0  0  0  0  0  0  0  0  0  0  0  0
   -4.7487   -2.4553   -2.7047 F   0  0  0  0  0  0  0  0  0  0  0  0
   -2.6555   -2.4946   -2.1311 F   0  0  0  0  0  0  0  0  0  0  0  0
   -2.9935   -0.2688   -0.3331 C   0  0  0  0  0  0  0  0  0  0  0  0
   -0.9165    0.6482    1.2997 O   0  0  0  0  0  0  0  0  0  0  0  0
    4.9114   -1.3018   -2.4754 H   0  0  0  0  0  0  0  0  0  0  0  0
    7.5884   -1.7607   -2.1800 H   0  0  0  0  0  0  0  0  0  0  0  0
    8.1394   -0.9429    0.4023 H   0  0  0  0  0  0  0  0  0  0  0  0
    1.9319    1.2959    3.0012 H   0  0  0  0  0  0  0  0  0  0  0  0
   -0.2968    2.7670    3.7048 H   0  0  0  0  0  0  0  0  0  0  0  0
   -2.9221    2.5450    3.0610 H   0  0  0  0  0  0  0  0  0  0  0  0
   -4.8441    1.3720    2.0054 H   0  0  0  0  0  0  0  0  0  0  0  0
   -6.6704    0.4230    0.6632 H   0  0  0  0  0  0  0  0  0  0  0  0
   -6.1821   -0.9721   -1.3175 H   0  0  0  0  0  0  0  0  0  0  0  0
   -1.9606   -0.4583   -0.6299 H   0  0  0  0  0  0  0  0  0  0  0  0
  1  2  2  0
  2  3  1  0
  3  4  1  0
  4  5  1  0
  5  6  2  0
  6  7  1  0
  7  8  2  0
  8  9  1  0
  4 10  2  0
 10 11  1  0
 11 12  2  3
 12 13  1  0
 13 14  2  0
 14 15  1  0
 15 16  2  0
 16 17  1  0
 17 18  2  0
 18 19  1  0
 19 20  2  0
 20 21  1  0
 21 22  1  0
 22 23  1  0
 22 24  1  0
 22 25  1  0
 21 26  2  0
 16 27  1  0
 11  2  1  0
 27 13  1  0
  9  5  1  0
 26 17  1  0
  6 28  1  0
  7 29  1  0
  8 30  1  0
 12 31  1  0
 14 32  1  0
 15 33  1  0
 18 34  1  0
 19 35  1  0
 20 36  1  0
 26 37  1  0
M  END
$$$$
