
     RDKit          3D

 67 72  0  0  0  0  0  0  0  0999 V2000
   -3.7026    5.7259    0.2344 C   0  0  0  0  0  0  0  0  0  0  0  0
   -3.2997    4.7980    1.2324 O   0  0  0  0  0  0  0  0  0  0  0  0
   -2.6798    3.6588    0.8005 C   0  0  0  0  0  0  0  0  0  0  0  0
   -2.1790    2.8415    1.8121 C   0  0  0  0  0  0  0  0  0  0  0  0
   -1.5226    1.6421    1.5112 C   0  0  0  0  0  0  0  0  0  0  0  0
   -1.3532    1.2270    0.1857 C   0  0  0  0  0  0  0  0  0  0  0  0
   -0.6678   -0.0679   -0.2013 C   0  0  0  0  0  0  0  0  0  0  0  0
   -1.3872   -1.3996    0.1050 C   0  0  0  0  0  0  0  0  0  0  0  0
   -2.0395   -1.5175    1.4917 C   0  0  0  0  0  0  0  0  0  0  0  0
   -1.3697   -1.3818    2.5206 O   0  0  0  0  0  0  0  0  0  0  0  0
   -3.5401   -1.8751    1.5606 C   0  0  0  0  0  0  0  0  0  0  0  0
   -4.3824   -0.8633    0.7733 C   0  0  0  0  0  0  0  0  0  0  0  0
   -3.7466   -3.2917    1.0089 C   0  0  0  0  0  0  0  0  0  0  0  0
   -4.0099   -1.8503    3.0270 C   0  0  0  0  0  0  0  0  0  0  0  0
   -0.3053   -2.3897    0.0084 N   0  0  0  0  0  0  0  0  0  0  0  0
   -0.3081   -3.1385   -1.1510 N   0  0  0  0  0  0  0  0  0  0  0  0
    0.8193   -3.6482   -1.5497 C   0  0  0  0  0  0  0  0  0  0  0  0
    2.1146   -3.4452   -0.8976 C   0  0  0  0  0  0  0  0  0  0  0  0
    3.2471   -4.1366   -1.3296 C   0  0  0  0  0  0  0  0  0  0  0  0
    4.4659   -3.9217   -0.6844 C   0  0  0  0  0  0  0  0  0  0  0  0
    4.5421   -3.0266    0.3832 C   0  0  0  0  0  0  0  0  0  0  0  0
    3.4034   -2.3351    0.8035 C   0  0  0  0  0  0  0  0  0  0  0  0
    2.1778   -2.5352    0.1534 C   0  0  0  0  0  0  0  0  0  0  0  0
    0.9306   -1.7958    0.5505 C   0  0  0  0  0  0  0  0  0  0  0  0
    0.8341   -0.3006    0.1538 C   0  0  0  0  0  0  0  0  0  0  0  0
    1.6399    0.0299   -1.0738 N   0  0  0  0  0  0  0  0  0  0  0  0
    2.4399    0.9621   -0.6680 C   0  0  0  0  0  0  0  0  0  0  0  0
    3.4439    1.6581   -1.4899 C   0  0  0  0  0  0  0  0  0  0  0  0
    3.6211    1.2549   -2.8190 C   0  0  0  0  0  0  0  0  0  0  0  0
    4.5644    1.8937   -3.6248 C   0  0  0  0  0  0  0  0  0  0  0  0
    5.3319    2.9367   -3.1086 C   0  0  0  0  0  0  0  0  0  0  0  0
    5.1603    3.3413   -1.7849 C   0  0  0  0  0  0  0  0  0  0  0  0
    4.2188    2.7039   -0.9740 C   0  0  0  0  0  0  0  0  0  0  0  0
    2.3958    1.3426    0.6187 O   0  0  0  0  0  0  0  0  0  0  0  0
    1.4642    0.5600    1.2262 C   0  0  0  0  0  0  0  0  0  0  0  0
    1.2622    0.5553    2.4267 O   0  0  0  0  0  0  0  0  0  0  0  0
   -1.8653    2.0594   -0.8257 C   0  0  0  0  0  0  0  0  0  0  0  0
   -2.5225    3.2599   -0.5232 C   0  0  0  0  0  0  0  0  0  0  0  0
   -2.8451    6.0708   -0.3527 H   0  0  0  0  0  0  0  0  0  0  0  0
   -4.4796    5.3016   -0.4110 H   0  0  0  0  0  0  0  0  0  0  0  0
   -4.1301    6.5943    0.7454 H   0  0  0  0  0  0  0  0  0  0  0  0
   -2.2967    3.1397    2.8517 H   0  0  0  0  0  0  0  0  0  0  0  0
   -1.1562    1.0529    2.3505 H   0  0  0  0  0  0  0  0  0  0  0  0
   -0.6784   -0.0521   -1.3063 H   0  0  0  0  0  0  0  0  0  0  0  0
   -2.1359   -1.6106   -0.6660 H   0  0  0  0  0  0  0  0  0  0  0  0
   -4.1927   -0.9153   -0.3025 H   0  0  0  0  0  0  0  0  0  0  0  0
   -4.1780    0.1626    1.0944 H   0  0  0  0  0  0  0  0  0  0  0  0
   -5.4553   -1.0476    0.9136 H   0  0  0  0  0  0  0  0  0  0  0  0
   -4.7943   -3.6060    1.1014 H   0  0  0  0  0  0  0  0  0  0  0  0
   -3.4804   -3.3596   -0.0522 H   0  0  0  0  0  0  0  0  0  0  0  0
   -3.1244   -4.0168    1.5454 H   0  0  0  0  0  0  0  0  0  0  0  0
   -3.4613   -2.5812    3.6351 H   0  0  0  0  0  0  0  0  0  0  0  0
   -5.0786   -2.0896    3.1051 H   0  0  0  0  0  0  0  0  0  0  0  0
   -3.8568   -0.8628    3.4815 H   0  0  0  0  0  0  0  0  0  0  0  0
    0.8031   -4.2703   -2.4583 H   0  0  0  0  0  0  0  0  0  0  0  0
    3.1890   -4.8426   -2.1532 H   0  0  0  0  0  0  0  0  0  0  0  0
    5.3548   -4.4586   -1.0079 H   0  0  0  0  0  0  0  0  0  0  0  0
    5.4893   -2.8672    0.8925 H   0  0  0  0  0  0  0  0  0  0  0  0
    3.4797   -1.6489    1.6449 H   0  0  0  0  0  0  0  0  0  0  0  0
    0.8414   -1.9094    1.6389 H   0  0  0  0  0  0  0  0  0  0  0  0
    3.0280    0.4416   -3.2322 H   0  0  0  0  0  0  0  0  0  0  0  0
    4.6987    1.5762   -4.6550 H   0  0  0  0  0  0  0  0  0  0  0  0
    6.0640    3.4360   -3.7369 H   0  0  0  0  0  0  0  0  0  0  0  0
    5.7602    4.1557   -1.3820 H   0  0  0  0  0  0  0  0  0  0  0  0
    4.1037    3.0363    0.0548 H   0  0  0  0  0  0  0  0  0  0  0  0
   -1.7602    1.7844   -1.8752 H   0  0  0  0  0  0  0  0  0  0  0  0
   -2.9037    3.8561   -1.3459 H   0  0  0  0  0  0  0  0  0  0  0  0
  1  2  1  0
  2  3  1  0
  3  4  2  0
  4  5  1  0
  5  6  2  0
  6  7  1  0
  7  8  1  0
  8  9  1  0
  9 10  2  0
  9 11  1  0
 11 12  1  0
 11 13  1  0
 11 14  1  0
  8 15  1  0
 15 16  1  0
 16 17  2  0
 17 18  1  0
 18 19  2  0
 19 20  1  0
 20 21  2  0
 21 22  1  0
 22 23  2  0
 23 24  1  0
 24 25  1  0
 25 26  1  0
 26 27  2  0
 27 28  1  0
 28 29  2  0
 29 30  1  0
 30 31  2  0
 31 32  1  0
 32 33  2  0
 27 34  1  0
 34 35  1  0
 35 36  2  0
  6 37  1  0
 37 38  2  0
 38  3  1  0
 25  7  1  0
 33 28  1  0
 24 15  1  0
 35 25  1  0
 23 18  1  0
  1 39  1  0
  1 40  1  0
  1 41  1  0
  4 42  1  0
  5 43  1  0
  7 44  1  0
  8 45  1  0
 12 46  1  0
 12 47  1  0
 12 48  1  0
 13 49  1  0
 13 50  1  0
 13 51  1  0
 14 52  1  0
 14 53  1  0
 14 54  1  0
 17 55  1  0
 19 56  1  0
 20 57  1  0
 21 58  1  0
 22 59  1  0
 24 60  1  0
 29 61  1  0
 30 62  1  0
 31 63  1  0
 32 64  1  0
 33 65  1  0
 37 66  1  0
 38 67  1  0
M  END
$$$$
