
     RDKit          3D

 48 53  0  0  0  0  0  0  0  0999 V2000
    2.7209   -2.1217    1.0112 O   0  0  0  0  0  0  0  0  0  0  0  0
    3.1565   -1.0009    0.7650 C   0  0  0  0  0  0  0  0  0  0  0  0
    2.3779    0.1263    0.6549 N   0  0  0  0  0  0  0  0  0  0  0  0
    1.0493    0.0086    0.3628 N   0  0  0  0  0  0  0  0  0  0  0  0
    0.4856    0.7933   -0.6274 C   0  0  0  0  0  0  0  0  0  0  0  0
    1.2429    1.5406   -1.4284 O   0  0  0  0  0  0  0  0  0  0  0  0
   -0.8738    0.6194   -0.5275 C   0  0  0  0  0  0  0  0  0  0  0  0
   -1.1164   -0.2787    0.5834 C   0  0  0  0  0  0  0  0  0  0  0  0
    0.0942   -0.6524    1.1126 C   0  0  0  0  0  0  0  0  0  0  0  0
    0.3680   -1.4819    2.1167 O   0  0  0  0  0  0  0  0  0  0  0  0
   -2.5652   -0.5891    0.8754 C   0  0  0  0  0  0  0  0  0  0  0  0
   -3.1330    0.8322    1.0492 C   0  0  0  0  0  0  0  0  0  0  0  0
   -3.8304    1.2676    2.1698 C   0  0  0  0  0  0  0  0  0  0  0  0
   -4.2971    2.5837    2.2003 C   0  0  0  0  0  0  0  0  0  0  0  0
   -4.0711    3.4560    1.1235 C   0  0  0  0  0  0  0  0  0  0  0  0
   -3.3713    3.0343   -0.0097 C   0  0  0  0  0  0  0  0  0  0  0  0
   -2.8980    1.7279   -0.0542 C   0  0  0  0  0  0  0  0  0  0  0  0
   -2.1167    1.1223   -1.2317 C   0  0  0  0  0  0  0  0  0  0  0  0
   -2.7999   -0.2041   -1.6024 C   0  0  0  0  0  0  0  0  0  0  0  0
   -3.1881   -0.5593   -2.8892 C   0  0  0  0  0  0  0  0  0  0  0  0
   -3.8023   -1.7985   -3.0866 C   0  0  0  0  0  0  0  0  0  0  0  0
   -4.0275   -2.6735   -2.0118 C   0  0  0  0  0  0  0  0  0  0  0  0
   -3.6457   -2.3302   -0.7129 C   0  0  0  0  0  0  0  0  0  0  0  0
   -3.0341   -1.1005   -0.4995 C   0  0  0  0  0  0  0  0  0  0  0  0
    4.6237   -0.8034    0.5935 C   0  0  0  0  0  0  0  0  0  0  0  0
    5.3926   -1.8900    0.1533 C   0  0  0  0  0  0  0  0  0  0  0  0
    6.7724   -1.7526   -0.0206 C   0  0  0  0  0  0  0  0  0  0  0  0
    7.3856   -0.5318    0.2542 C   0  0  0  0  0  0  0  0  0  0  0  0
    9.0837   -0.3608    0.0415 Cl  0  0  0  0  0  0  0  0  0  0  0  0
    6.6324    0.5511    0.7071 C   0  0  0  0  0  0  0  0  0  0  0  0
    5.2510    0.4171    0.8812 C   0  0  0  0  0  0  0  0  0  0  0  0
    2.7634    0.9404    0.1912 H   0  0  0  0  0  0  0  0  0  0  0  0
    0.6420    1.9838   -2.0541 H   0  0  0  0  0  0  0  0  0  0  0  0
    1.2784   -1.8229    1.9674 H   0  0  0  0  0  0  0  0  0  0  0  0
   -2.7377   -1.2681    1.7120 H   0  0  0  0  0  0  0  0  0  0  0  0
   -4.0089    0.6026    3.0093 H   0  0  0  0  0  0  0  0  0  0  0  0
   -4.8435    2.9388    3.0711 H   0  0  0  0  0  0  0  0  0  0  0  0
   -4.4477    4.4751    1.1750 H   0  0  0  0  0  0  0  0  0  0  0  0
   -3.2060    3.7198   -0.8345 H   0  0  0  0  0  0  0  0  0  0  0  0
   -1.9300    1.8004   -2.0663 H   0  0  0  0  0  0  0  0  0  0  0  0
   -3.0211    0.1061   -3.7300 H   0  0  0  0  0  0  0  0  0  0  0  0
   -4.1107   -2.0928   -4.0872 H   0  0  0  0  0  0  0  0  0  0  0  0
   -4.5053   -3.6334   -2.1944 H   0  0  0  0  0  0  0  0  0  0  0  0
   -3.8220   -3.0163    0.1099 H   0  0  0  0  0  0  0  0  0  0  0  0
    4.9182   -2.8471   -0.0580 H   0  0  0  0  0  0  0  0  0  0  0  0
    7.3589   -2.6002   -0.3660 H   0  0  0  0  0  0  0  0  0  0  0  0
    7.1159    1.4981    0.9347 H   0  0  0  0  0  0  0  0  0  0  0  0
    4.6901    1.2645    1.2665 H   0  0  0  0  0  0  0  0  0  0  0  0
  1  2  2  0
  2  3  1  0
  3  4  1  0
  4  5  1  0
  5  6  1  0
  5  7  2  0
  7  8  1  0
  8  9  2  0
  9 10  1  0
  8 11  1  0
 11 12  1  0
 12 13  2  0
 13 14  1  0
 14 15  2  0
 15 16  1  0
 16 17  2  0
 17 18  1  0
 18 19  1  0
 19 20  2  0
 20 21  1  0
 21 22  2  0
 22 23  1  0
 23 24  2  0
  2 25  1  0
 25 26  2  0
 26 27  1  0
 27 28  2  0
 28 29  1  0
 28 30  1  0
 30 31  2  0
  9  4  1  0
 24 11  1  0
 31 25  1  0
 18  7  1  0
 24 19  1  0
 17 12  1  0
  3 32  1  0
  6 33  1  0
 10 34  1  0
 11 35  1  0
 13 36  1  0
 14 37  1  0
 15 38  1  0
 16 39  1  0
 18 40  1  0
 20 41  1  0
 21 42  1  0
 22 43  1  0
 23 44  1  0
 26 45  1  0
 27 46  1  0
 30 47  1  0
 31 48  1  0
M  END
$$$$
