
     RDKit          3D

 39 40  0  0  0  0  0  0  0  0999 V2000
    7.6751   -0.8712    0.2914 C   0  0  0  0  0  0  0  0  0  0  0  0
    6.7788   -0.3481   -0.6803 O   0  0  0  0  0  0  0  0  0  0  0  0
    5.4659   -0.2368   -0.3136 C   0  0  0  0  0  0  0  0  0  0  0  0
    4.9220   -0.6069    0.9162 C   0  0  0  0  0  0  0  0  0  0  0  0
    3.5540   -0.4393    1.1609 C   0  0  0  0  0  0  0  0  0  0  0  0
    2.7149    0.1037    0.1806 C   0  0  0  0  0  0  0  0  0  0  0  0
    1.2392    0.2654    0.4338 C   0  0  0  0  0  0  0  0  0  0  0  0
    0.4356   -0.9224   -0.0933 C   0  0  0  0  0  0  0  0  0  0  0  0
   -0.9589   -0.7695    0.2262 O   0  0  0  0  0  0  0  0  0  0  0  0
   -1.6722   -0.0016   -0.6330 C   0  0  0  0  0  0  0  0  0  0  0  0
   -1.2359    0.5686   -1.6193 O   0  0  0  0  0  0  0  0  0  0  0  0
   -3.0979    0.0723   -0.2131 C   0  0  0  0  0  0  0  0  0  0  0  0
   -3.5955   -0.6349    0.8872 C   0  0  0  0  0  0  0  0  0  0  0  0
   -4.9471   -0.5353    1.2417 C   0  0  0  0  0  0  0  0  0  0  0  0
   -5.8459    0.2357    0.4909 C   0  0  0  0  0  0  0  0  0  0  0  0
   -7.1487    0.3966    0.9909 N   0  0  0  0  0  0  0  0  0  0  0  0
   -5.3169    0.9815   -0.5812 C   0  0  0  0  0  0  0  0  0  0  0  0
   -6.1756    1.8641   -1.3713 N   0  0  0  0  0  4  0  0  0  0  0  0
   -7.3646    1.5376   -1.5154 O   0  0  0  0  0  0  0  0  0  0  0  0
   -5.6565    2.8754   -1.8650 O   0  0  0  0  0  1  0  0  0  0  0  0
   -3.9625    0.8907   -0.9472 C   0  0  0  0  0  0  0  0  0  0  0  0
    3.2640    0.4693   -1.0531 C   0  0  0  0  0  0  0  0  0  0  0  0
    4.6292    0.3000   -1.2942 C   0  0  0  0  0  0  0  0  0  0  0  0
    7.7129   -0.2315    1.1794 H   0  0  0  0  0  0  0  0  0  0  0  0
    7.4132   -1.9010    0.5559 H   0  0  0  0  0  0  0  0  0  0  0  0
    8.6760   -0.8858   -0.1507 H   0  0  0  0  0  0  0  0  0  0  0  0
    5.5324   -1.0294    1.7069 H   0  0  0  0  0  0  0  0  0  0  0  0
    3.1503   -0.7360    2.1266 H   0  0  0  0  0  0  0  0  0  0  0  0
    1.0506    0.3908    1.5079 H   0  0  0  0  0  0  0  0  0  0  0  0
    0.8883    1.2004   -0.0204 H   0  0  0  0  0  0  0  0  0  0  0  0
    0.7681   -1.8483    0.3899 H   0  0  0  0  0  0  0  0  0  0  0  0
    0.5720   -1.0682   -1.1724 H   0  0  0  0  0  0  0  0  0  0  0  0
   -2.9428   -1.2618    1.4915 H   0  0  0  0  0  0  0  0  0  0  0  0
   -5.2942   -1.0699    2.1245 H   0  0  0  0  0  0  0  0  0  0  0  0
   -7.8256    0.7011    0.2846 H   0  0  0  0  0  0  0  0  0  0  0  0
   -7.5023   -0.3930    1.5240 H   0  0  0  0  0  0  0  0  0  0  0  0
   -3.5786    1.4583   -1.7948 H   0  0  0  0  0  0  0  0  0  0  0  0
    2.6344    0.8891   -1.8353 H   0  0  0  0  0  0  0  0  0  0  0  0
    5.0448    0.5902   -2.2561 H   0  0  0  0  0  0  0  0  0  0  0  0
  1  2  1  0
  2  3  1  0
  3  4  2  0
  4  5  1  0
  5  6  2  0
  6  7  1  0
  7  8  1  0
  8  9  1  0
  9 10  1  0
 10 11  2  0
 10 12  1  0
 12 13  2  0
 13 14  1  0
 14 15  2  0
 15 16  1  0
 15 17  1  0
 17 18  1  0
 18 19  2  0
 18 20  1  0
 17 21  2  0
  6 22  1  0
 22 23  2  0
 23  3  1  0
 21 12  1  0
  1 24  1  0
  1 25  1  0
  1 26  1  0
  4 27  1  0
  5 28  1  0
  7 29  1  0
  7 30  1  0
  8 31  1  0
  8 32  1  0
 13 33  1  0
 14 34  1  0
 16 35  1  0
 16 36  1  0
 21 37  1  0
 22 38  1  0
 23 39  1  0
M  CHG  2  18   1  20  -1
M  END
$$$$
