
     RDKit          3D

 45 49  0  0  0  0  0  0  0  0999 V2000
    1.7256   -2.8689    1.1824 O   0  0  0  0  0  0  0  0  0  0  0  0
    0.7984   -2.0630    1.1818 C   0  0  0  0  0  0  0  0  0  0  0  0
   -0.5691   -2.3868    1.7204 C   0  0  0  0  0  0  0  0  0  0  0  0
   -1.6394   -1.6655    1.0516 N   0  0  0  0  0  0  0  0  0  0  0  0
   -2.3741   -0.6290    1.6097 C   0  0  0  0  0  0  0  0  0  0  0  0
   -2.1426   -0.1923    2.8388 O   0  0  0  0  0  0  0  0  0  0  0  0
   -3.2637   -0.2438    0.6514 C   0  0  0  0  0  0  0  0  0  0  0  0
   -3.0710   -1.0462   -0.4951 C   0  0  0  0  0  0  0  0  0  0  0  0
   -2.0617   -1.9264   -0.2453 C   0  0  0  0  0  0  0  0  0  0  0  0
   -1.4910   -2.8680   -0.9814 O   0  0  0  0  0  0  0  0  0  0  0  0
   -4.0534   -0.5879   -1.5255 C   0  0  0  0  0  0  0  0  0  0  0  0
   -3.6262    0.8274   -1.9936 C   0  0  0  0  0  0  0  0  0  0  0  0
   -3.8401    1.7161   -0.7241 C   0  0  0  0  0  0  0  0  0  0  0  0
   -4.3671    0.7161    0.3376 C   0  0  0  0  0  0  0  0  0  0  0  0
   -5.2427   -0.1899   -0.5900 C   0  0  0  0  0  0  0  0  0  0  0  0
    0.8836   -0.7295    0.7905 O   0  0  0  0  0  0  0  0  0  0  0  0
    2.1087   -0.3359    0.2416 C   0  0  0  0  0  0  0  0  0  0  0  0
    2.5495   -0.8620   -0.9688 C   0  0  0  0  0  0  0  0  0  0  0  0
    3.7499   -0.4042   -1.5126 C   0  0  0  0  0  0  0  0  0  0  0  0
    4.5013    0.5894   -0.8608 C   0  0  0  0  0  0  0  0  0  0  0  0
    5.7106    1.0595   -1.3971 C   0  0  0  0  0  0  0  0  0  0  0  0
    6.4447    2.0503   -0.7427 C   0  0  0  0  0  0  0  0  0  0  0  0
    5.9798    2.5844    0.4556 C   0  0  0  0  0  0  0  0  0  0  0  0
    4.7798    2.1289    1.0039 C   0  0  0  0  0  0  0  0  0  0  0  0
    4.0296    1.1319    0.3597 C   0  0  0  0  0  0  0  0  0  0  0  0
    2.8224    0.6637    0.8996 C   0  0  0  0  0  0  0  0  0  0  0  0
   -0.5934   -2.1644    2.7908 H   0  0  0  0  0  0  0  0  0  0  0  0
   -0.7704   -3.4543    1.5798 H   0  0  0  0  0  0  0  0  0  0  0  0
   -2.7682    0.5372    2.9977 H   0  0  0  0  0  0  0  0  0  0  0  0
   -1.9503   -2.8688   -1.8407 H   0  0  0  0  0  0  0  0  0  0  0  0
   -4.2884   -1.3022   -2.3142 H   0  0  0  0  0  0  0  0  0  0  0  0
   -2.5850    0.8614   -2.3323 H   0  0  0  0  0  0  0  0  0  0  0  0
   -4.2694    1.1812   -2.8072 H   0  0  0  0  0  0  0  0  0  0  0  0
   -4.5848    2.4917   -0.9349 H   0  0  0  0  0  0  0  0  0  0  0  0
   -2.9077    2.2022   -0.4171 H   0  0  0  0  0  0  0  0  0  0  0  0
   -4.8791    1.1536    1.1943 H   0  0  0  0  0  0  0  0  0  0  0  0
   -6.0396    0.3563   -1.1065 H   0  0  0  0  0  0  0  0  0  0  0  0
   -5.6666   -1.0512   -0.0585 H   0  0  0  0  0  0  0  0  0  0  0  0
    1.9732   -1.6247   -1.4837 H   0  0  0  0  0  0  0  0  0  0  0  0
    4.0963   -0.8286   -2.4520 H   0  0  0  0  0  0  0  0  0  0  0  0
    6.0909    0.6548   -2.3322 H   0  0  0  0  0  0  0  0  0  0  0  0
    7.3797    2.4035   -1.1694 H   0  0  0  0  0  0  0  0  0  0  0  0
    6.5513    3.3553    0.9658 H   0  0  0  0  0  0  0  0  0  0  0  0
    4.4340    2.5573    1.9420 H   0  0  0  0  0  0  0  0  0  0  0  0
    2.4356    1.0711    1.8294 H   0  0  0  0  0  0  0  0  0  0  0  0
  1  2  2  0
  2  3  1  0
  3  4  1  0
  4  5  1  0
  5  6  1  0
  5  7  2  0
  7  8  1  0
  8  9  2  0
  9 10  1  0
  8 11  1  0
 11 12  1  0
 12 13  1  0
 13 14  1  0
 14 15  1  0
  2 16  1  0
 16 17  1  0
 17 18  2  0
 18 19  1  0
 19 20  2  0
 20 21  1  0
 21 22  2  0
 22 23  1  0
 23 24  2  0
 24 25  1  0
 25 26  2  0
  9  4  1  0
 15 11  1  0
 26 17  1  0
 14  7  1  0
 25 20  1  0
  3 27  1  0
  3 28  1  0
  6 29  1  0
 10 30  1  0
 11 31  1  0
 12 32  1  0
 12 33  1  0
 13 34  1  0
 13 35  1  0
 14 36  1  0
 15 37  1  0
 15 38  1  0
 18 39  1  0
 19 40  1  0
 21 41  1  0
 22 42  1  0
 23 43  1  0
 24 44  1  0
 26 45  1  0
M  END
$$$$
