
     RDKit          3D

 43 44  0  0  0  0  0  0  0  0999 V2000
   -1.8562   -1.9681    2.5092 O   0  0  0  0  0  0  0  0  0  0  0  0
   -1.6405   -0.8137    2.1494 C   0  0  0  0  0  0  0  0  0  0  0  0
   -0.4079   -0.0431    2.6259 C   0  0  0  0  0  0  0  0  0  0  0  0
   -0.2573    1.2178    1.9598 O   0  0  0  0  0  0  0  0  0  0  0  0
    0.8782    1.9352    2.4406 C   0  0  0  0  0  0  0  0  0  0  0  0
    2.2295    1.5049    1.8545 C   0  0  0  0  0  0  0  0  0  0  0  0
    3.2809    1.7172    2.4526 O   0  0  0  0  0  0  0  0  0  0  0  0
    2.0916    0.9184    0.5997 N   0  0  0  0  0  0  0  0  0  0  0  0
    3.1119    0.6038   -0.2574 N   0  0  0  0  0  0  0  0  0  0  0  0
    4.2345    0.1972    0.2459 C   0  0  0  0  0  0  0  0  0  0  0  0
    5.3974   -0.1167   -0.6114 C   0  0  0  0  0  0  0  0  0  0  0  0
    5.3205    0.0076   -2.0040 C   0  0  0  0  0  0  0  0  0  0  0  0
    6.4342   -0.2961   -2.7889 C   0  0  0  0  0  0  0  0  0  0  0  0
    7.6101   -0.7186   -2.1773 C   0  0  0  0  0  0  0  0  0  0  0  0
    8.6777   -1.0091   -2.9318 F   0  0  0  0  0  0  0  0  0  0  0  0
    7.6958   -0.8437   -0.7940 C   0  0  0  0  0  0  0  0  0  0  0  0
    6.5850   -0.5416   -0.0037 C   0  0  0  0  0  0  0  0  0  0  0  0
   -2.4454   -0.0552    1.3144 N   0  0  0  0  0  0  0  0  0  0  0  0
   -3.5900   -0.5726    0.7950 N   0  0  0  0  0  0  0  0  0  0  0  0
   -4.2618    0.2217    0.0255 C   0  0  0  0  0  0  0  0  0  0  0  0
   -5.5252   -0.2031   -0.6102 C   0  0  0  0  0  0  0  0  0  0  0  0
   -6.2066    0.7024   -1.4319 C   0  0  0  0  0  0  0  0  0  0  0  0
   -7.4026    0.3159   -2.0403 C   0  0  0  0  0  0  0  0  0  0  0  0
   -7.9035   -0.9646   -1.8232 C   0  0  0  0  0  0  0  0  0  0  0  0
   -9.0509   -1.3296   -2.4093 F   0  0  0  0  0  0  0  0  0  0  0  0
   -7.2321   -1.8698   -1.0082 C   0  0  0  0  0  0  0  0  0  0  0  0
   -6.0362   -1.4895   -0.3972 C   0  0  0  0  0  0  0  0  0  0  0  0
   -0.5232    0.1230    3.7027 H   0  0  0  0  0  0  0  0  0  0  0  0
    0.4705   -0.6679    2.4336 H   0  0  0  0  0  0  0  0  0  0  0  0
    0.9276    1.8841    3.5344 H   0  0  0  0  0  0  0  0  0  0  0  0
    0.7370    2.9850    2.1617 H   0  0  0  0  0  0  0  0  0  0  0  0
    1.1884    1.0263    0.1435 H   0  0  0  0  0  0  0  0  0  0  0  0
    4.3812    0.0327    1.3267 H   0  0  0  0  0  0  0  0  0  0  0  0
    4.4005    0.3385   -2.4799 H   0  0  0  0  0  0  0  0  0  0  0  0
    6.3921   -0.2058   -3.8698 H   0  0  0  0  0  0  0  0  0  0  0  0
    8.6260   -1.1738   -0.3420 H   0  0  0  0  0  0  0  0  0  0  0  0
    6.6559   -0.6368    1.0769 H   0  0  0  0  0  0  0  0  0  0  0  0
   -2.1498    0.8921    1.0934 H   0  0  0  0  0  0  0  0  0  0  0  0
   -3.9194    1.2504   -0.1882 H   0  0  0  0  0  0  0  0  0  0  0  0
   -5.8204    1.7032   -1.6049 H   0  0  0  0  0  0  0  0  0  0  0  0
   -7.9482    1.0014   -2.6815 H   0  0  0  0  0  0  0  0  0  0  0  0
   -7.6412   -2.8633   -0.8530 H   0  0  0  0  0  0  0  0  0  0  0  0
   -5.5083   -2.1959    0.2413 H   0  0  0  0  0  0  0  0  0  0  0  0
  1  2  2  0
  2  3  1  0
  3  4  1  0
  4  5  1  0
  5  6  1  0
  6  7  2  0
  6  8  1  0
  8  9  1  0
  9 10  2  3
 10 11  1  0
 11 12  2  0
 12 13  1  0
 13 14  2  0
 14 15  1  0
 14 16  1  0
 16 17  2  0
  2 18  1  0
 18 19  1  0
 19 20  2  3
 20 21  1  0
 21 22  2  0
 22 23  1  0
 23 24  2  0
 24 25  1  0
 24 26  1  0
 26 27  2  0
 17 11  1  0
 27 21  1  0
  3 28  1  0
  3 29  1  0
  5 30  1  0
  5 31  1  0
  8 32  1  0
 10 33  1  0
 12 34  1  0
 13 35  1  0
 16 36  1  0
 17 37  1  0
 18 38  1  0
 20 39  1  0
 22 40  1  0
 23 41  1  0
 26 42  1  0
 27 43  1  0
M  END
$$$$
