
     RDKit          3D

 42 44  0  0  0  0  0  0  0  0999 V2000
    1.6396    4.4259   -0.1867 C   0  0  0  0  0  0  0  0  0  0  0  0
   -0.0134    3.9152    0.3532 S   0  0  0  0  0  0  0  0  0  0  0  0
    0.0972    2.1377    0.1179 C   0  0  0  0  0  0  0  0  0  0  0  0
    1.3433    1.6298    0.1495 N   0  0  0  0  0  0  0  0  0  0  0  0
    1.4564    0.3002    0.0463 C   0  0  0  0  0  0  0  0  0  0  0  0
    2.8099   -0.2881    0.0846 C   0  0  0  0  0  0  0  0  0  0  0  0
    3.9517    0.5038    0.3178 C   0  0  0  0  0  0  0  0  0  0  0  0
    5.2344   -0.0531    0.3539 C   0  0  0  0  0  0  0  0  0  0  0  0
    5.4064   -1.4194    0.1561 C   0  0  0  0  0  0  0  0  0  0  0  0
    4.2986   -2.2280   -0.0774 C   0  0  0  0  0  0  0  0  0  0  0  0
    3.0175   -1.6676   -0.1122 C   0  0  0  0  0  0  0  0  0  0  0  0
    0.4099   -0.5337   -0.0803 N   0  0  0  0  0  0  0  0  0  0  0  0
   -0.8425   -0.0305   -0.1375 C   0  0  0  0  0  0  0  0  0  0  0  0
   -1.8229   -0.9824   -0.3323 N   0  0  0  0  0  0  0  0  0  0  0  0
   -3.1136   -0.7130   -0.9789 C   0  0  0  0  0  0  0  0  0  0  0  0
   -3.7014   -2.0161   -1.5467 C   0  0  0  0  0  0  0  0  0  0  0  0
   -3.7966   -3.0331   -0.5363 O   0  0  0  0  0  0  0  0  0  0  0  0
   -2.4883   -3.3407   -0.0291 C   0  0  0  0  0  0  0  0  0  0  0  0
   -1.8305   -2.1114    0.6144 C   0  0  0  0  0  0  0  0  0  0  0  0
   -1.0312    1.3397   -0.0210 C   0  0  0  0  0  0  0  0  0  0  0  0
   -2.3621    1.9437    0.0951 C   0  0  0  0  0  0  0  0  0  0  0  0
   -2.9582    2.0238    1.4761 C   0  0  0  0  0  0  0  0  0  0  0  0
   -2.9398    2.3554   -0.9058 O   0  0  0  0  0  0  0  0  0  0  0  0
    1.8419    4.0713   -1.2013 H   0  0  0  0  0  0  0  0  0  0  0  0
    1.6896    5.5181   -0.1875 H   0  0  0  0  0  0  0  0  0  0  0  0
    2.4060    4.0497    0.4969 H   0  0  0  0  0  0  0  0  0  0  0  0
    3.8482    1.5759    0.4769 H   0  0  0  0  0  0  0  0  0  0  0  0
    6.0965    0.5834    0.5362 H   0  0  0  0  0  0  0  0  0  0  0  0
    6.4026   -1.8533    0.1826 H   0  0  0  0  0  0  0  0  0  0  0  0
    4.4268   -3.2958   -0.2351 H   0  0  0  0  0  0  0  0  0  0  0  0
    2.1687   -2.3237   -0.3012 H   0  0  0  0  0  0  0  0  0  0  0  0
   -3.0003   -0.0088   -1.8093 H   0  0  0  0  0  0  0  0  0  0  0  0
   -3.8143   -0.3068   -0.2416 H   0  0  0  0  0  0  0  0  0  0  0  0
   -3.0923   -2.3939   -2.3772 H   0  0  0  0  0  0  0  0  0  0  0  0
   -4.7102   -1.8321   -1.9300 H   0  0  0  0  0  0  0  0  0  0  0  0
   -1.8714   -3.7347   -0.8460 H   0  0  0  0  0  0  0  0  0  0  0  0
   -2.6000   -4.1345    0.7166 H   0  0  0  0  0  0  0  0  0  0  0  0
   -0.8254   -2.3936    0.9476 H   0  0  0  0  0  0  0  0  0  0  0  0
   -2.4050   -1.8126    1.5001 H   0  0  0  0  0  0  0  0  0  0  0  0
   -3.9123    1.4896    1.4890 H   0  0  0  0  0  0  0  0  0  0  0  0
   -3.1148    3.0729    1.7401 H   0  0  0  0  0  0  0  0  0  0  0  0
   -2.2987    1.5707    2.2224 H   0  0  0  0  0  0  0  0  0  0  0  0
  1  2  1  0
  2  3  1  0
  3  4  2  0
  4  5  1  0
  5  6  1  0
  6  7  2  0
  7  8  1  0
  8  9  2  0
  9 10  1  0
 10 11  2  0
  5 12  2  0
 12 13  1  0
 13 14  1  0
 14 15  1  0
 15 16  1  0
 16 17  1  0
 17 18  1  0
 18 19  1  0
 13 20  2  0
 20 21  1  0
 21 22  1  0
 21 23  2  0
 20  3  1  0
 11  6  1  0
 19 14  1  0
  1 24  1  0
  1 25  1  0
  1 26  1  0
  7 27  1  0
  8 28  1  0
  9 29  1  0
 10 30  1  0
 11 31  1  0
 15 32  1  0
 15 33  1  0
 16 34  1  0
 16 35  1  0
 18 36  1  0
 18 37  1  0
 19 38  1  0
 19 39  1  0
 22 40  1  0
 22 41  1  0
 22 42  1  0
M  END
$$$$
