
     RDKit          3D

 45 47  0  0  0  0  0  0  0  0999 V2000
    2.3504    0.9768    0.6179 O   0  0  0  0  0  0  0  0  0  0  0  0
    1.2718    0.4546    0.3715 C   0  0  0  0  0  0  0  0  0  0  0  0
    0.6060   -0.4733    1.1320 N   0  0  0  0  0  0  0  0  0  0  0  0
    1.1898   -1.0439    2.3209 C   0  0  0  0  0  0  0  0  0  0  0  0
    1.8743   -2.3002    1.9357 C   0  0  0  0  0  0  0  0  0  0  0  0
    3.1459   -2.5815    1.4796 C   0  0  0  0  0  0  0  0  0  0  0  0
    3.1889   -3.9816    1.2607 C   0  0  0  0  0  0  0  0  0  0  0  0
    1.9453   -4.4623    1.5965 C   0  0  0  0  0  0  0  0  0  0  0  0
    1.1384   -3.4486    2.0050 O   0  0  0  0  0  0  0  0  0  0  0  0
    0.5578    0.8214   -0.9228 C   0  0  0  0  0  0  0  0  0  0  0  0
    0.7300   -0.1813   -2.0079 C   0  0  0  0  0  0  0  0  0  0  0  0
   -0.3024   -0.6934   -2.6995 C   0  0  0  0  0  0  0  0  0  0  0  0
   -1.7685   -0.4036   -2.4939 C   0  0  0  0  0  0  0  0  0  0  0  0
   -2.3060   -0.9987   -1.2117 C   0  0  0  0  0  0  0  0  0  0  0  0
   -2.7656   -0.1639   -0.1809 C   0  0  0  0  0  0  0  0  0  0  0  0
   -3.2250   -0.7101    1.0181 C   0  0  0  0  0  0  0  0  0  0  0  0
   -3.2386   -2.0958    1.1965 C   0  0  0  0  0  0  0  0  0  0  0  0
   -2.7981   -2.9363    0.1744 C   0  0  0  0  0  0  0  0  0  0  0  0
   -2.3360   -2.3920   -1.0248 C   0  0  0  0  0  0  0  0  0  0  0  0
   -0.0831    1.9363   -1.1077 N   0  0  0  0  0  0  0  0  0  0  0  0
   -0.1683    2.7823   -0.0277 C   0  0  0  0  0  0  0  0  0  0  0  0
   -0.6788    2.4675    1.0395 O   0  0  0  0  0  0  0  0  0  0  0  0
    0.3595    4.0943   -0.3415 C   0  0  0  0  0  0  0  0  0  0  0  0
    0.9807    4.6106   -1.4667 C   0  0  0  0  0  0  0  0  0  0  0  0
    1.2709    5.9690   -1.1899 C   0  0  0  0  0  0  0  0  0  0  0  0
    0.8143    6.2063    0.0859 C   0  0  0  0  0  0  0  0  0  0  0  0
    0.9167    7.8760    0.9967 Br  0  0  0  0  0  0  0  0  0  0  0  0
    0.2682    5.0788    0.6097 O   0  0  0  0  0  0  0  0  0  0  0  0
   -0.2639   -0.8734    0.7958 H   0  0  0  0  0  0  0  0  0  0  0  0
    0.3809   -1.2372    3.0351 H   0  0  0  0  0  0  0  0  0  0  0  0
    1.8961   -0.3408    2.7756 H   0  0  0  0  0  0  0  0  0  0  0  0
    3.9365   -1.8586    1.3202 H   0  0  0  0  0  0  0  0  0  0  0  0
    4.0225   -4.5671    0.9003 H   0  0  0  0  0  0  0  0  0  0  0  0
    1.4963   -5.4475    1.5961 H   0  0  0  0  0  0  0  0  0  0  0  0
    1.7467   -0.5176   -2.1856 H   0  0  0  0  0  0  0  0  0  0  0  0
   -0.0811   -1.4300   -3.4685 H   0  0  0  0  0  0  0  0  0  0  0  0
   -1.9548    0.6748   -2.5358 H   0  0  0  0  0  0  0  0  0  0  0  0
   -2.3345   -0.8224   -3.3358 H   0  0  0  0  0  0  0  0  0  0  0  0
   -2.7548    0.9201   -0.2918 H   0  0  0  0  0  0  0  0  0  0  0  0
   -3.5678   -0.0491    1.8130 H   0  0  0  0  0  0  0  0  0  0  0  0
   -3.6031   -2.5226    2.1307 H   0  0  0  0  0  0  0  0  0  0  0  0
   -2.8102   -4.0162    0.3138 H   0  0  0  0  0  0  0  0  0  0  0  0
   -1.9915   -3.0652   -1.8102 H   0  0  0  0  0  0  0  0  0  0  0  0
    1.1938    4.0609   -2.3754 H   0  0  0  0  0  0  0  0  0  0  0  0
    1.7502    6.6842   -1.8429 H   0  0  0  0  0  0  0  0  0  0  0  0
  1  2  2  0
  2  3  1  0
  3  4  1  0
  4  5  1  0
  5  6  2  0
  6  7  1  0
  7  8  2  0
  8  9  1  0
  2 10  1  0
 10 11  1  0
 11 12  2  3
 12 13  1  0
 13 14  1  0
 14 15  2  0
 15 16  1  0
 16 17  2  0
 17 18  1  0
 18 19  2  0
 10 20  2  3
 20 21  1  0
 21 22  2  0
 21 23  1  0
 23 24  2  0
 24 25  1  0
 25 26  2  0
 26 27  1  0
 26 28  1  0
  9  5  1  0
 19 14  1  0
 28 23  1  0
  3 29  1  0
  4 30  1  0
  4 31  1  0
  6 32  1  0
  7 33  1  0
  8 34  1  0
 11 35  1  0
 12 36  1  0
 13 37  1  0
 13 38  1  0
 15 39  1  0
 16 40  1  0
 17 41  1  0
 18 42  1  0
 19 43  1  0
 24 44  1  0
 25 45  1  0
M  END
$$$$
