
     RDKit          3D

 39 42  0  0  0  0  0  0  0  0999 V2000
    8.5936   -0.0068   -1.7861 C   0  0  0  0  0  0  0  0  0  0  0  0
    7.2157    0.1960   -1.4701 O   0  0  0  0  0  0  0  0  0  0  0  0
    6.6762   -0.7864   -0.7053 C   0  0  0  0  0  0  0  0  0  0  0  0
    7.2650   -1.7739   -0.2937 O   0  0  0  0  0  0  0  0  0  0  0  0
    5.2424   -0.5053   -0.4208 C   0  0  0  0  0  0  0  0  0  0  0  0
    4.5900    0.6381   -0.8988 C   0  0  0  0  0  0  0  0  0  0  0  0
    3.2406    0.8543   -0.6026 C   0  0  0  0  0  0  0  0  0  0  0  0
    2.5246   -0.0648    0.1785 C   0  0  0  0  0  0  0  0  0  0  0  0
    1.0627    0.1632    0.4846 C   0  0  0  0  0  0  0  0  0  0  0  0
    0.0030   -0.5645   -0.8011 S   0  0  0  0  0  0  0  0  0  0  0  0
   -1.6037   -0.1739   -0.1388 C   0  0  0  0  0  0  0  0  0  0  0  0
   -1.6794    0.6103    0.9720 N   0  0  0  0  0  0  0  0  0  0  0  0
   -2.8570    0.9378    1.5114 N   0  0  0  0  0  0  0  0  0  0  0  0
   -3.9560    0.4472    0.8880 C   0  0  0  0  0  0  0  0  0  0  0  0
   -3.8118   -0.3423   -0.2376 C   0  0  0  0  0  0  0  0  0  0  0  0
   -2.6514   -0.6969   -0.8128 N   0  0  0  0  0  0  0  0  0  0  0  0
   -5.0598   -0.6980   -0.6611 N   0  0  0  0  0  0  0  0  0  0  0  0
   -6.0169   -0.1535    0.1704 C   0  0  0  0  0  0  0  0  0  0  0  0
   -7.4125   -0.2488    0.1251 C   0  0  0  0  0  0  0  0  0  0  0  0
   -8.1386    0.4191    1.1164 C   0  0  0  0  0  0  0  0  0  0  0  0
   -7.4952    1.1521    2.1119 C   0  0  0  0  0  0  0  0  0  0  0  0
   -6.0991    1.2391    2.1453 C   0  0  0  0  0  0  0  0  0  0  0  0
   -5.3432    0.5756    1.1585 C   0  0  0  0  0  0  0  0  0  0  0  0
    3.1797   -1.2121    0.6480 C   0  0  0  0  0  0  0  0  0  0  0  0
    4.5284   -1.4290    0.3531 C   0  0  0  0  0  0  0  0  0  0  0  0
    8.7237   -0.9294   -2.3604 H   0  0  0  0  0  0  0  0  0  0  0  0
    8.9271    0.8335   -2.4012 H   0  0  0  0  0  0  0  0  0  0  0  0
    9.1972   -0.0288   -0.8733 H   0  0  0  0  0  0  0  0  0  0  0  0
    5.1169    1.3695   -1.5066 H   0  0  0  0  0  0  0  0  0  0  0  0
    2.7494    1.7448   -0.9908 H   0  0  0  0  0  0  0  0  0  0  0  0
    0.8244   -0.2782    1.4594 H   0  0  0  0  0  0  0  0  0  0  0  0
    0.8744    1.2406    0.5595 H   0  0  0  0  0  0  0  0  0  0  0  0
   -5.2406   -1.2766   -1.4679 H   0  0  0  0  0  0  0  0  0  0  0  0
   -7.9215   -0.8177   -0.6468 H   0  0  0  0  0  0  0  0  0  0  0  0
   -9.2255    0.3651    1.1098 H   0  0  0  0  0  0  0  0  0  0  0  0
   -8.0825    1.6627    2.8718 H   0  0  0  0  0  0  0  0  0  0  0  0
   -5.6026    1.8121    2.9240 H   0  0  0  0  0  0  0  0  0  0  0  0
    2.6432   -1.9483    1.2437 H   0  0  0  0  0  0  0  0  0  0  0  0
    5.0191   -2.3258    0.7275 H   0  0  0  0  0  0  0  0  0  0  0  0
  1  2  1  0
  2  3  1  0
  3  4  2  0
  3  5  1  0
  5  6  2  0
  6  7  1  0
  7  8  2  0
  8  9  1  0
  9 10  1  0
 10 11  1  0
 11 12  2  0
 12 13  1  0
 13 14  2  0
 14 15  1  0
 15 16  2  0
 15 17  1  0
 17 18  1  0
 18 19  2  0
 19 20  1  0
 20 21  2  0
 21 22  1  0
 22 23  2  0
  8 24  1  0
 24 25  2  0
 25  5  1  0
 16 11  1  0
 23 18  1  0
 23 14  1  0
  1 26  1  0
  1 27  1  0
  1 28  1  0
  6 29  1  0
  7 30  1  0
  9 31  1  0
  9 32  1  0
 17 33  1  0
 19 34  1  0
 20 35  1  0
 21 36  1  0
 22 37  1  0
 24 38  1  0
 25 39  1  0
M  END
$$$$
