
     RDKit          3D

 52 55  0  0  0  0  0  0  0  0999 V2000
   -7.2608   -3.1050   -1.2585 C   0  0  0  0  0  0  0  0  0  0  0  0
   -6.1681   -3.8216   -0.6986 O   0  0  0  0  0  0  0  0  0  0  0  0
   -4.9191   -3.3041   -0.9043 C   0  0  0  0  0  0  0  0  0  0  0  0
   -4.6134   -2.1711   -1.6587 C   0  0  0  0  0  0  0  0  0  0  0  0
   -3.2845   -1.7491   -1.7886 C   0  0  0  0  0  0  0  0  0  0  0  0
   -2.2512   -2.4535   -1.1623 C   0  0  0  0  0  0  0  0  0  0  0  0
   -0.8657   -2.0137   -1.3377 C   0  0  0  0  0  0  0  0  0  0  0  0
   -0.0817   -1.4349   -0.4145 C   0  0  0  0  0  0  0  0  0  0  0  0
    1.5413   -0.9745   -0.7817 S   0  0  0  0  0  0  0  0  0  0  0  0
    1.7098   -0.1106    0.7348 C   0  0  0  0  0  0  0  0  0  0  0  0
    2.6933    0.7994    0.9156 C   0  0  0  0  0  0  0  0  0  0  0  0
    2.7760    1.7331    1.9816 C   0  0  0  0  0  0  0  0  0  0  0  0
    2.8562    2.5417    2.8106 N   0  0  0  0  0  0  0  0  0  0  0  0
    3.7578    0.9455   -0.1089 C   0  0  0  0  0  0  0  0  0  0  0  0
    4.7190    0.1864   -0.1327 O   0  0  0  0  0  0  0  0  0  0  0  0
    3.5683    1.9847   -0.9831 N   0  0  0  0  0  0  0  0  0  0  0  0
    4.5756    2.3221   -1.9632 C   0  0  0  0  0  0  0  0  0  0  0  0
    3.9629    3.2022   -2.9867 C   0  0  0  0  0  0  0  0  0  0  0  0
    3.8830    3.1438   -4.3626 C   0  0  0  0  0  0  0  0  0  0  0  0
    3.1570    4.2891   -4.7704 C   0  0  0  0  0  0  0  0  0  0  0  0
    2.8403    4.9728   -3.6205 C   0  0  0  0  0  0  0  0  0  0  0  0
    3.3219    4.3206   -2.5314 O   0  0  0  0  0  0  0  0  0  0  0  0
    0.6450   -0.4051    1.5930 N   0  0  0  0  0  0  0  0  0  0  0  0
    0.6269   -0.2190    3.0137 C   0  0  0  0  0  0  0  0  0  0  0  0
   -0.5322    0.2168    3.6696 C   0  0  0  0  0  0  0  0  0  0  0  0
   -0.5491    0.3810    5.0573 C   0  0  0  0  0  0  0  0  0  0  0  0
    0.5884    0.0982    5.8085 C   0  0  0  0  0  0  0  0  0  0  0  0
    1.7405   -0.3592    5.1751 C   0  0  0  0  0  0  0  0  0  0  0  0
    1.7588   -0.5236    3.7873 C   0  0  0  0  0  0  0  0  0  0  0  0
   -0.4261   -1.1074    1.0003 C   0  0  0  0  0  0  0  0  0  0  0  0
   -1.4718   -1.4497    1.5339 O   0  0  0  0  0  0  0  0  0  0  0  0
   -2.5577   -3.5926   -0.4145 C   0  0  0  0  0  0  0  0  0  0  0  0
   -3.8849   -4.0108   -0.2863 C   0  0  0  0  0  0  0  0  0  0  0  0
   -7.2063   -3.0958   -2.3523 H   0  0  0  0  0  0  0  0  0  0  0  0
   -8.1813   -3.6253   -0.9760 H   0  0  0  0  0  0  0  0  0  0  0  0
   -7.3168   -2.0880   -0.8557 H   0  0  0  0  0  0  0  0  0  0  0  0
   -5.3827   -1.5929   -2.1588 H   0  0  0  0  0  0  0  0  0  0  0  0
   -3.0676   -0.8633   -2.3812 H   0  0  0  0  0  0  0  0  0  0  0  0
   -0.4840   -2.1856   -2.3428 H   0  0  0  0  0  0  0  0  0  0  0  0
    2.8351    2.6696   -0.8375 H   0  0  0  0  0  0  0  0  0  0  0  0
    4.9726    1.4049   -2.4110 H   0  0  0  0  0  0  0  0  0  0  0  0
    5.3926    2.8378   -1.4479 H   0  0  0  0  0  0  0  0  0  0  0  0
    4.2980    2.3689   -4.9927 H   0  0  0  0  0  0  0  0  0  0  0  0
    2.8978    4.5823   -5.7782 H   0  0  0  0  0  0  0  0  0  0  0  0
    2.3061    5.8910   -3.4182 H   0  0  0  0  0  0  0  0  0  0  0  0
   -1.4359    0.4508    3.1112 H   0  0  0  0  0  0  0  0  0  0  0  0
   -1.4540    0.7283    5.5493 H   0  0  0  0  0  0  0  0  0  0  0  0
    0.5740    0.2267    6.8878 H   0  0  0  0  0  0  0  0  0  0  0  0
    2.6247   -0.5948    5.7622 H   0  0  0  0  0  0  0  0  0  0  0  0
    2.6610   -0.9251    3.3330 H   0  0  0  0  0  0  0  0  0  0  0  0
   -1.7742   -4.1570    0.0851 H   0  0  0  0  0  0  0  0  0  0  0  0
   -4.1145   -4.8922    0.3076 H   0  0  0  0  0  0  0  0  0  0  0  0
  1  2  1  0
  2  3  1  0
  3  4  2  0
  4  5  1  0
  5  6  2  0
  6  7  1  0
  7  8  2  3
  8  9  1  0
  9 10  1  0
 10 11  2  3
 11 12  1  0
 12 13  3  0
 11 14  1  0
 14 15  2  0
 14 16  1  0
 16 17  1  0
 17 18  1  0
 18 19  2  0
 19 20  1  0
 20 21  2  0
 21 22  1  0
 10 23  1  0
 23 24  1  0
 24 25  2  0
 25 26  1  0
 26 27  2  0
 27 28  1  0
 28 29  2  0
 23 30  1  0
 30 31  2  0
  6 32  1  0
 32 33  2  0
 33  3  1  0
 30  8  1  0
 22 18  1  0
 29 24  1  0
  1 34  1  0
  1 35  1  0
  1 36  1  0
  4 37  1  0
  5 38  1  0
  7 39  1  0
 16 40  1  0
 17 41  1  0
 17 42  1  0
 19 43  1  0
 20 44  1  0
 21 45  1  0
 25 46  1  0
 26 47  1  0
 27 48  1  0
 28 49  1  0
 29 50  1  0
 32 51  1  0
 33 52  1  0
M  END
$$$$
