
     RDKit          3D

 54 56  0  0  0  0  0  0  0  0999 V2000
   -4.0028   -3.0684    1.0989 C   0  0  0  0  0  0  0  0  0  0  0  0
   -4.1800   -1.7042    1.7385 C   0  0  0  0  0  0  0  0  0  0  0  0
   -2.9636   -0.9534    1.6322 O   0  0  0  0  0  0  0  0  0  0  0  0
   -2.8076   -0.2191    0.4917 C   0  0  0  0  0  0  0  0  0  0  0  0
   -3.6353   -0.1661   -0.4110 O   0  0  0  0  0  0  0  0  0  0  0  0
   -1.5211    0.4681    0.4553 C   0  0  0  0  0  0  0  0  0  0  0  0
   -1.3881    1.7742    0.0048 C   0  0  0  0  0  0  0  0  0  0  0  0
   -2.3280    2.6674   -0.4077 N   0  0  0  0  0  0  0  0  0  0  0  0
   -2.7546    2.4893   -1.6158 C   0  0  0  0  0  0  0  0  0  0  0  0
   -3.7044    3.2515   -2.2642 N   0  0  0  0  0  0  0  0  0  0  0  0
   -4.3559    2.7209   -3.4517 C   0  0  0  0  0  0  0  0  0  0  0  0
   -4.4781    4.2169   -1.4949 C   0  0  0  0  0  0  0  0  0  0  0  0
    0.2412    2.3033    0.1030 S   0  0  0  0  0  0  0  0  0  0  0  0
    0.7970    0.8050    0.7015 C   0  0  0  0  0  0  0  0  0  0  0  0
    2.2073    0.6030    0.9666 C   0  0  0  0  0  0  0  0  0  0  0  0
    3.1007    1.5256    0.7684 N   0  0  0  0  0  0  0  0  0  0  0  0
    4.3696    1.1141    1.0724 N   0  0  0  0  0  0  0  0  0  0  0  0
    5.2429    0.8360   -0.0198 C   0  0  0  0  0  0  0  0  0  0  0  0
    4.7860    0.6510   -1.3314 C   0  0  0  0  0  0  0  0  0  0  0  0
    5.6721    0.3103   -2.3577 C   0  0  0  0  0  0  0  0  0  0  0  0
    7.0247    0.1269   -2.0806 C   0  0  0  0  0  0  0  0  0  0  0  0
    7.4909    0.2773   -0.7769 C   0  0  0  0  0  0  0  0  0  0  0  0
    6.6036    0.6199    0.2472 C   0  0  0  0  0  0  0  0  0  0  0  0
   -0.2486   -0.0893    0.8624 C   0  0  0  0  0  0  0  0  0  0  0  0
   -0.0182   -1.4478    1.3356 C   0  0  0  0  0  0  0  0  0  0  0  0
    0.1014   -1.7037    2.7071 C   0  0  0  0  0  0  0  0  0  0  0  0
    0.3050   -3.0099    3.1577 C   0  0  0  0  0  0  0  0  0  0  0  0
    0.3867   -4.0550    2.2384 C   0  0  0  0  0  0  0  0  0  0  0  0
    0.6312   -5.6641    2.7954 Cl  0  0  0  0  0  0  0  0  0  0  0  0
    0.2677   -3.8069    0.8713 C   0  0  0  0  0  0  0  0  0  0  0  0
    0.0633   -2.5018    0.4177 C   0  0  0  0  0  0  0  0  0  0  0  0
   -3.7753   -2.9757    0.0322 H   0  0  0  0  0  0  0  0  0  0  0  0
   -4.9080   -3.6712    1.2131 H   0  0  0  0  0  0  0  0  0  0  0  0
   -3.1638   -3.6018    1.5578 H   0  0  0  0  0  0  0  0  0  0  0  0
   -4.3912   -1.8231    2.8063 H   0  0  0  0  0  0  0  0  0  0  0  0
   -5.0268   -1.1626    1.3017 H   0  0  0  0  0  0  0  0  0  0  0  0
   -2.3715    1.6688   -2.2545 H   0  0  0  0  0  0  0  0  0  0  0  0
   -5.1004    1.9675   -3.1741 H   0  0  0  0  0  0  0  0  0  0  0  0
   -4.8571    3.5157   -4.0142 H   0  0  0  0  0  0  0  0  0  0  0  0
   -3.6258    2.2583   -4.1246 H   0  0  0  0  0  0  0  0  0  0  0  0
   -5.0246    4.8984   -2.1554 H   0  0  0  0  0  0  0  0  0  0  0  0
   -3.8259    4.8331   -0.8670 H   0  0  0  0  0  0  0  0  0  0  0  0
   -5.2018    3.7030   -0.8538 H   0  0  0  0  0  0  0  0  0  0  0  0
    2.5164   -0.3879    1.3464 H   0  0  0  0  0  0  0  0  0  0  0  0
    4.8582    1.7714    1.6871 H   0  0  0  0  0  0  0  0  0  0  0  0
    3.7353    0.7881   -1.5711 H   0  0  0  0  0  0  0  0  0  0  0  0
    5.3020    0.1887   -3.3721 H   0  0  0  0  0  0  0  0  0  0  0  0
    7.7129   -0.1385   -2.8787 H   0  0  0  0  0  0  0  0  0  0  0  0
    8.5434    0.1228   -0.5541 H   0  0  0  0  0  0  0  0  0  0  0  0
    6.9829    0.7128    1.2614 H   0  0  0  0  0  0  0  0  0  0  0  0
    0.0246   -0.8941    3.4300 H   0  0  0  0  0  0  0  0  0  0  0  0
    0.3932   -3.2051    4.2233 H   0  0  0  0  0  0  0  0  0  0  0  0
    0.3301   -4.6230    0.1563 H   0  0  0  0  0  0  0  0  0  0  0  0
   -0.0320   -2.3167   -0.6503 H   0  0  0  0  0  0  0  0  0  0  0  0
  1  2  1  0
  2  3  1  0
  3  4  1  0
  4  5  2  0
  4  6  1  0
  6  7  2  0
  7  8  1  0
  8  9  2  3
  9 10  1  0
 10 11  1  0
 10 12  1  0
  7 13  1  0
 13 14  1  0
 14 15  1  0
 15 16  2  3
 16 17  1  0
 17 18  1  0
 18 19  2  0
 19 20  1  0
 20 21  2  0
 21 22  1  0
 22 23  2  0
 14 24  2  0
 24 25  1  0
 25 26  2  0
 26 27  1  0
 27 28  2  0
 28 29  1  0
 28 30  1  0
 30 31  2  0
 24  6  1  0
 31 25  1  0
 23 18  1  0
  1 32  1  0
  1 33  1  0
  1 34  1  0
  2 35  1  0
  2 36  1  0
  9 37  1  0
 11 38  1  0
 11 39  1  0
 11 40  1  0
 12 41  1  0
 12 42  1  0
 12 43  1  0
 15 44  1  0
 17 45  1  0
 19 46  1  0
 20 47  1  0
 21 48  1  0
 22 49  1  0
 23 50  1  0
 26 51  1  0
 27 52  1  0
 30 53  1  0
 31 54  1  0
M  END
$$$$
