
     RDKit          3D

 37 39  0  0  0  0  0  0  0  0999 V2000
    3.8780    1.0376    1.7741 N   0  0  0  0  0  0  0  0  0  0  0  0
    4.6161    0.7522    0.6709 C   0  0  0  0  0  0  0  0  0  0  0  0
    5.7527    1.2083    0.5744 O   0  0  0  0  0  0  0  0  0  0  0  0
    4.0057   -0.1288   -0.4108 C   0  0  0  0  0  0  0  0  0  0  0  0
    3.6185   -1.5205    0.0819 C   0  0  0  0  0  0  0  0  0  0  0  0
    2.2492   -1.5927    0.7494 C   0  0  0  0  0  0  0  0  0  0  0  0
    1.2209   -0.9318   -0.0606 N   0  0  0  0  0  0  0  0  0  0  0  0
   -0.0996   -1.1733    0.2445 C   0  0  0  0  0  0  0  0  0  0  0  0
   -1.0438   -0.2608    0.1353 N   0  0  0  0  0  0  0  0  0  0  0  0
   -2.2906   -0.7550    0.4944 C   0  0  0  0  0  0  0  0  0  0  0  0
   -3.4733    0.0990    0.4384 C   0  0  0  0  0  0  0  0  0  0  0  0
   -3.4447    1.2518   -0.3645 C   0  0  0  0  0  0  0  0  0  0  0  0
   -4.5545    2.0991   -0.4492 C   0  0  0  0  0  0  0  0  0  0  0  0
   -5.7106    1.8096    0.2719 C   0  0  0  0  0  0  0  0  0  0  0  0
   -5.7539    0.6751    1.0788 C   0  0  0  0  0  0  0  0  0  0  0  0
   -4.6438   -0.1672    1.1593 C   0  0  0  0  0  0  0  0  0  0  0  0
   -4.7348   -1.2351    1.9670 F   0  0  0  0  0  0  0  0  0  0  0  0
   -2.2871   -2.0839    0.8577 C   0  0  0  0  0  0  0  0  0  0  0  0
   -0.7013   -2.7142    0.7666 S   0  0  0  0  0  0  0  0  0  0  0  0
    1.5122    0.4447   -0.4813 C   0  0  0  0  0  0  0  0  0  0  0  0
    2.8672    0.5455   -1.1697 C   0  0  0  0  0  0  0  0  0  0  0  0
    4.2988    1.6796    2.4352 H   0  0  0  0  0  0  0  0  0  0  0  0
    2.8833    0.8914    1.8482 H   0  0  0  0  0  0  0  0  0  0  0  0
    4.8261   -0.2697   -1.1305 H   0  0  0  0  0  0  0  0  0  0  0  0
    4.3784   -1.9114    0.7693 H   0  0  0  0  0  0  0  0  0  0  0  0
    3.6071   -2.1948   -0.7854 H   0  0  0  0  0  0  0  0  0  0  0  0
    2.0311   -2.6578    0.8879 H   0  0  0  0  0  0  0  0  0  0  0  0
    2.2782   -1.1498    1.7508 H   0  0  0  0  0  0  0  0  0  0  0  0
   -2.5505    1.4952   -0.9366 H   0  0  0  0  0  0  0  0  0  0  0  0
   -4.5118    2.9844   -1.0793 H   0  0  0  0  0  0  0  0  0  0  0  0
   -6.5734    2.4678    0.2078 H   0  0  0  0  0  0  0  0  0  0  0  0
   -6.6450    0.4393    1.6525 H   0  0  0  0  0  0  0  0  0  0  0  0
   -3.1105   -2.7154    1.1573 H   0  0  0  0  0  0  0  0  0  0  0  0
    0.7626    0.7945   -1.2040 H   0  0  0  0  0  0  0  0  0  0  0  0
    1.4586    1.1234    0.3769 H   0  0  0  0  0  0  0  0  0  0  0  0
    2.7839    0.0636   -2.1533 H   0  0  0  0  0  0  0  0  0  0  0  0
    3.1008    1.6002   -1.3589 H   0  0  0  0  0  0  0  0  0  0  0  0
  1  2  1  0
  2  3  2  0
  2  4  1  0
  4  5  1  0
  5  6  1  0
  6  7  1  0
  7  8  1  0
  8  9  2  0
  9 10  1  0
 10 11  1  0
 11 12  2  0
 12 13  1  0
 13 14  2  0
 14 15  1  0
 15 16  2  0
 16 17  1  0
 10 18  2  0
 18 19  1  0
  7 20  1  0
 20 21  1  0
 21  4  1  0
 19  8  1  0
 16 11  1  0
  1 22  1  0
  1 23  1  0
  4 24  1  0
  5 25  1  0
  5 26  1  0
  6 27  1  0
  6 28  1  0
 12 29  1  0
 13 30  1  0
 14 31  1  0
 15 32  1  0
 18 33  1  0
 20 34  1  0
 20 35  1  0
 21 36  1  0
 21 37  1  0
M  END
$$$$
