
     RDKit          3D

 60 63  0  0  0  0  0  0  0  0999 V2000
   -3.1636   -0.4881   -4.1710 C   0  0  0  0  0  0  0  0  0  0  0  0
   -2.9228   -1.3550   -3.0723 O   0  0  0  0  0  0  0  0  0  0  0  0
   -2.4778   -0.7931   -1.9033 C   0  0  0  0  0  0  0  0  0  0  0  0
   -2.3670    0.5810   -1.6648 C   0  0  0  0  0  0  0  0  0  0  0  0
   -1.9090    1.0641   -0.4292 C   0  0  0  0  0  0  0  0  0  0  0  0
   -1.7980    2.3889   -0.1160 O   0  0  0  0  0  0  0  0  0  0  0  0
   -1.9894    3.3439   -1.1533 C   0  0  0  0  0  0  0  0  0  0  0  0
   -1.5392    0.1680    0.5885 C   0  0  0  0  0  0  0  0  0  0  0  0
   -1.0101    0.6134    1.9498 C   0  0  0  0  0  0  0  0  0  0  0  0
    0.1922    1.5759    2.0059 C   0  0  0  0  0  0  0  0  0  0  0  0
    1.1794    1.2795    0.8867 C   0  0  0  0  0  0  0  0  0  0  0  0
    1.3593    2.0612   -0.0402 O   0  0  0  0  0  0  0  0  0  0  0  0
    1.8229    0.0584    1.0584 N   0  0  0  0  0  0  0  0  0  0  0  0
    2.7648   -0.5582    0.1969 C   0  0  0  0  0  0  0  0  0  0  0  0
    3.2262    0.0503   -0.9756 C   0  0  0  0  0  0  0  0  0  0  0  0
    4.1570   -0.5869   -1.8025 C   0  0  0  0  0  0  0  0  0  0  0  0
    4.6487   -1.8504   -1.4756 C   0  0  0  0  0  0  0  0  0  0  0  0
    5.6331   -2.5297   -2.3802 C   0  0  0  0  0  0  0  0  0  0  0  0
    4.1876   -2.4717   -0.3093 C   0  0  0  0  0  0  0  0  0  0  0  0
    3.2519   -1.8411    0.5336 C   0  0  0  0  0  0  0  0  0  0  0  0
    2.7924   -2.5890    1.7595 C   0  0  0  0  0  0  0  0  0  0  0  0
   -0.2362    3.0321    2.1907 C   0  0  0  0  0  0  0  0  0  0  0  0
    0.7118    4.1418    1.7983 C   0  0  0  0  0  0  0  0  0  0  0  0
   -1.3476    3.3938    2.7639 N   0  0  0  0  0  0  0  0  0  0  0  0
   -2.2010    2.4268    3.1750 C   0  0  0  0  0  0  0  0  0  0  0  0
   -3.2256    2.5060    3.9969 N   0  0  0  0  0  0  0  0  0  0  0  0
   -3.6731    1.2184    4.0924 C   0  0  0  0  0  0  0  0  0  0  0  0
   -2.9773    0.3155    3.3956 N   0  0  0  0  0  0  0  0  0  0  0  0
   -2.0923    1.1205    2.7754 N   0  0  0  0  0  0  0  0  0  0  0  0
   -1.6659   -1.2139    0.3445 C   0  0  0  0  0  0  0  0  0  0  0  0
   -2.1464   -1.6878   -0.8790 C   0  0  0  0  0  0  0  0  0  0  0  0
   -2.2406   -3.0345   -1.1319 O   0  0  0  0  0  0  0  0  0  0  0  0
   -3.0209   -3.7253   -0.1569 C   0  0  0  0  0  0  0  0  0  0  0  0
   -2.2604    0.0701   -4.4433 H   0  0  0  0  0  0  0  0  0  0  0  0
   -3.9984    0.1876   -3.9618 H   0  0  0  0  0  0  0  0  0  0  0  0
   -3.4443   -1.1065   -5.0303 H   0  0  0  0  0  0  0  0  0  0  0  0
   -2.6508    1.2805   -2.4406 H   0  0  0  0  0  0  0  0  0  0  0  0
   -1.2859    3.1795   -1.9776 H   0  0  0  0  0  0  0  0  0  0  0  0
   -3.0259    3.3371   -1.5057 H   0  0  0  0  0  0  0  0  0  0  0  0
   -1.7879    4.3352   -0.7345 H   0  0  0  0  0  0  0  0  0  0  0  0
   -0.6775   -0.2948    2.4762 H   0  0  0  0  0  0  0  0  0  0  0  0
    0.7357    1.3760    2.9451 H   0  0  0  0  0  0  0  0  0  0  0  0
    1.6100   -0.4643    1.8956 H   0  0  0  0  0  0  0  0  0  0  0  0
    2.8830    1.0307   -1.2897 H   0  0  0  0  0  0  0  0  0  0  0  0
    4.4885   -0.0843   -2.7115 H   0  0  0  0  0  0  0  0  0  0  0  0
    6.5019   -1.8833   -2.5467 H   0  0  0  0  0  0  0  0  0  0  0  0
    5.9952   -3.4682   -1.9461 H   0  0  0  0  0  0  0  0  0  0  0  0
    5.1644   -2.7593   -3.3437 H   0  0  0  0  0  0  0  0  0  0  0  0
    4.5574   -3.4648   -0.0571 H   0  0  0  0  0  0  0  0  0  0  0  0
    1.7084   -2.7508    1.7202 H   0  0  0  0  0  0  0  0  0  0  0  0
    3.0491   -2.0329    2.6671 H   0  0  0  0  0  0  0  0  0  0  0  0
    3.2652   -3.5741    1.8368 H   0  0  0  0  0  0  0  0  0  0  0  0
    0.6128    4.3488    0.7307 H   0  0  0  0  0  0  0  0  0  0  0  0
    0.4741    5.0561    2.3498 H   0  0  0  0  0  0  0  0  0  0  0  0
    1.7415    3.8578    2.0302 H   0  0  0  0  0  0  0  0  0  0  0  0
   -4.5218    0.9311    4.6998 H   0  0  0  0  0  0  0  0  0  0  0  0
   -1.3805   -1.9298    1.1119 H   0  0  0  0  0  0  0  0  0  0  0  0
   -2.4143   -3.9552    0.7268 H   0  0  0  0  0  0  0  0  0  0  0  0
   -3.3434   -4.6732   -0.5992 H   0  0  0  0  0  0  0  0  0  0  0  0
   -3.9191   -3.1637    0.1278 H   0  0  0  0  0  0  0  0  0  0  0  0
  1  2  1  0
  2  3  1  0
  3  4  2  0
  4  5  1  0
  5  6  1  0
  6  7  1  0
  5  8  2  0
  8  9  1  0
  9 10  1  0
 10 11  1  0
 11 12  2  0
 11 13  1  0
 13 14  1  0
 14 15  2  0
 15 16  1  0
 16 17  2  0
 17 18  1  0
 17 19  1  0
 19 20  2  0
 20 21  1  0
 10 22  1  0
 22 23  1  0
 22 24  2  0
 24 25  1  0
 25 26  2  0
 26 27  1  0
 27 28  2  0
 28 29  1  0
  8 30  1  0
 30 31  2  0
 31 32  1  0
 32 33  1  0
 31  3  1  0
 29  9  1  0
 20 14  1  0
 29 25  1  0
  1 34  1  0
  1 35  1  0
  1 36  1  0
  4 37  1  0
  7 38  1  0
  7 39  1  0
  7 40  1  0
  9 41  1  0
 10 42  1  0
 13 43  1  0
 15 44  1  0
 16 45  1  0
 18 46  1  0
 18 47  1  0
 18 48  1  0
 19 49  1  0
 21 50  1  0
 21 51  1  0
 21 52  1  0
 23 53  1  0
 23 54  1  0
 23 55  1  0
 27 56  1  0
 30 57  1  0
 33 58  1  0
 33 59  1  0
 33 60  1  0
M  END
$$$$
