
     RDKit          3D

 43 46  0  0  0  0  0  0  0  0999 V2000
    7.6831    1.1793   -0.5002 C   0  0  0  0  0  0  0  0  0  0  0  0
    6.2985    0.9594    0.0352 C   0  0  0  0  0  0  0  0  0  0  0  0
    5.5172   -0.1042   -0.4340 C   0  0  0  0  0  0  0  0  0  0  0  0
    4.2168   -0.2949    0.0427 C   0  0  0  0  0  0  0  0  0  0  0  0
    3.6782    0.5926    0.9830 C   0  0  0  0  0  0  0  0  0  0  0  0
    2.2955    0.4330    1.5194 C   0  0  0  0  0  0  0  0  0  0  0  0
    2.0792    0.7792    2.6737 O   0  0  0  0  0  0  0  0  0  0  0  0
    1.3856   -0.0611    0.6192 N   0  0  0  0  0  0  0  0  0  0  0  0
    0.0492   -0.3256    0.8699 C   0  0  0  0  0  0  0  0  0  0  0  0
   -0.4866   -0.1938    2.0866 N   0  0  0  0  0  0  0  0  0  0  0  0
   -1.7968   -0.4881    2.2209 C   0  0  0  0  0  0  0  0  0  0  0  0
   -2.5811   -0.9088    1.1742 C   0  0  0  0  0  0  0  0  0  0  0  0
   -1.9522   -1.0149   -0.0486 C   0  0  0  0  0  0  0  0  0  0  0  0
   -0.6369   -0.7346   -0.2142 N   0  0  0  0  0  0  0  0  0  0  0  0
   -2.7056   -1.4722   -1.2689 C   0  0  0  0  0  0  0  0  0  0  0  0
   -4.2046   -1.1650   -1.1836 C   0  0  0  0  0  0  0  0  0  0  0  0
   -4.5316    0.2840   -1.3934 C   0  0  0  0  0  0  0  0  0  0  0  0
   -3.8183    1.4666   -1.3712 C   0  0  0  0  0  0  0  0  0  0  0  0
   -4.7447    2.5011   -1.6496 C   0  0  0  0  0  0  0  0  0  0  0  0
   -5.9607    1.8883   -1.8300 C   0  0  0  0  0  0  0  0  0  0  0  0
   -5.8404    0.5456   -1.6813 O   0  0  0  0  0  0  0  0  0  0  0  0
   -4.7855   -1.6854    0.1345 C   0  0  0  0  0  0  0  0  0  0  0  0
   -4.0062   -1.2252    1.3470 C   0  0  0  0  0  0  0  0  0  0  0  0
   -4.5090   -1.1754    2.4651 O   0  0  0  0  0  0  0  0  0  0  0  0
    4.4580    1.6537    1.4567 C   0  0  0  0  0  0  0  0  0  0  0  0
    5.7564    1.8417    0.9773 C   0  0  0  0  0  0  0  0  0  0  0  0
    7.6442    1.8251   -1.3827 H   0  0  0  0  0  0  0  0  0  0  0  0
    8.3238    1.6480    0.2541 H   0  0  0  0  0  0  0  0  0  0  0  0
    8.1504    0.2284   -0.7771 H   0  0  0  0  0  0  0  0  0  0  0  0
    5.9237   -0.7994   -1.1660 H   0  0  0  0  0  0  0  0  0  0  0  0
    3.6535   -1.1545   -0.3089 H   0  0  0  0  0  0  0  0  0  0  0  0
    1.6353   -0.1988   -0.3458 H   0  0  0  0  0  0  0  0  0  0  0  0
   -2.1959   -0.3691    3.2250 H   0  0  0  0  0  0  0  0  0  0  0  0
   -2.2691   -1.0163   -2.1664 H   0  0  0  0  0  0  0  0  0  0  0  0
   -2.5617   -2.5568   -1.3561 H   0  0  0  0  0  0  0  0  0  0  0  0
   -4.6938   -1.7102   -2.0033 H   0  0  0  0  0  0  0  0  0  0  0  0
   -2.7604    1.5852   -1.1792 H   0  0  0  0  0  0  0  0  0  0  0  0
   -4.5503    3.5627   -1.7114 H   0  0  0  0  0  0  0  0  0  0  0  0
   -6.9549    2.2470   -2.0578 H   0  0  0  0  0  0  0  0  0  0  0  0
   -5.8259   -1.3605    0.2535 H   0  0  0  0  0  0  0  0  0  0  0  0
   -4.7732   -2.7822    0.1414 H   0  0  0  0  0  0  0  0  0  0  0  0
    4.0536    2.3391    2.1995 H   0  0  0  0  0  0  0  0  0  0  0  0
    6.3432    2.6785    1.3506 H   0  0  0  0  0  0  0  0  0  0  0  0
  1  2  1  0
  2  3  2  0
  3  4  1  0
  4  5  2  0
  5  6  1  0
  6  7  2  0
  6  8  1  0
  8  9  1  0
  9 10  2  0
 10 11  1  0
 11 12  2  0
 12 13  1  0
 13 14  2  0
 13 15  1  0
 15 16  1  0
 16 17  1  0
 17 18  2  0
 18 19  1  0
 19 20  2  0
 20 21  1  0
 16 22  1  0
 22 23  1  0
 23 24  2  0
  5 25  1  0
 25 26  2  0
 26  2  1  0
 14  9  1  0
 21 17  1  0
 23 12  1  0
  1 27  1  0
  1 28  1  0
  1 29  1  0
  3 30  1  0
  4 31  1  0
  8 32  1  0
 11 33  1  0
 15 34  1  0
 15 35  1  0
 16 36  1  0
 18 37  1  0
 19 38  1  0
 20 39  1  0
 22 40  1  0
 22 41  1  0
 25 42  1  0
 26 43  1  0
M  END
$$$$
