
     RDKit          3D

 46 48  0  0  0  0  0  0  0  0999 V2000
   -1.6855   -1.0282   -1.8794 O   0  0  0  0  0  0  0  0  0  0  0  0
   -1.7864    0.1053   -1.4288 C   0  0  0  0  0  0  0  0  0  0  0  0
   -2.9403    0.8608   -1.4398 N   0  0  0  0  0  0  0  0  0  0  0  0
   -4.2185    0.2788   -1.8258 C   0  0  0  0  0  0  0  0  0  0  0  0
   -5.0812   -0.1587   -0.6327 C   0  0  0  0  0  0  0  0  0  0  0  0
   -5.5289    0.9743    0.2798 C   0  0  0  0  0  0  0  0  0  0  0  0
   -5.8092    0.2327    1.5639 C   0  0  0  0  0  0  0  0  0  0  0  0
   -4.7010   -0.7985    1.5790 C   0  0  0  0  0  0  0  0  0  0  0  0
   -4.3967   -1.1013    0.2112 O   0  0  0  0  0  0  0  0  0  0  0  0
   -0.6000    0.7470   -0.8080 C   0  0  0  0  0  0  0  0  0  0  0  0
   -0.3379    2.1098   -0.9694 C   0  0  0  0  0  0  0  0  0  0  0  0
    0.8024    2.6709   -0.3885 C   0  0  0  0  0  0  0  0  0  0  0  0
    1.6916    1.8803    0.3542 C   0  0  0  0  0  0  0  0  0  0  0  0
    3.2110    2.7777    1.0563 Br  0  0  0  0  0  0  0  0  0  0  0  0
    1.4294    0.5143    0.5086 C   0  0  0  0  0  0  0  0  0  0  0  0
    2.4921   -0.5517    1.4483 S   0  0  0  0  0  6  0  0  0  0  0  0
    2.6834    0.0554    2.7472 O   0  0  0  0  0  0  0  0  0  0  0  0
    1.9921   -1.9068    1.3425 O   0  0  0  0  0  0  0  0  0  0  0  0
    3.9620   -0.5027    0.5867 N   0  0  0  0  0  0  0  0  0  0  0  0
    3.9220   -1.1202   -0.7786 C   0  0  0  0  0  0  0  0  0  0  0  0
    5.2657   -0.8887   -1.4802 C   0  0  0  0  0  0  0  0  0  0  0  0
    6.3507   -1.4456   -0.7238 O   0  0  0  0  0  0  0  0  0  0  0  0
    6.4128   -0.8456    0.5792 C   0  0  0  0  0  0  0  0  0  0  0  0
    5.1132   -1.0714    1.3597 C   0  0  0  0  0  0  0  0  0  0  0  0
    0.2851   -0.0519   -0.0765 C   0  0  0  0  0  0  0  0  0  0  0  0
   -2.9593    1.7239   -0.9162 H   0  0  0  0  0  0  0  0  0  0  0  0
   -4.0297   -0.5860   -2.4709 H   0  0  0  0  0  0  0  0  0  0  0  0
   -4.7492    1.0346   -2.4141 H   0  0  0  0  0  0  0  0  0  0  0  0
   -5.9686   -0.6744   -1.0218 H   0  0  0  0  0  0  0  0  0  0  0  0
   -6.3989    1.5113   -0.1083 H   0  0  0  0  0  0  0  0  0  0  0  0
   -4.7267    1.7006    0.4500 H   0  0  0  0  0  0  0  0  0  0  0  0
   -5.8097    0.8720    2.4505 H   0  0  0  0  0  0  0  0  0  0  0  0
   -6.7837   -0.2658    1.4997 H   0  0  0  0  0  0  0  0  0  0  0  0
   -3.7927   -0.3969    2.0407 H   0  0  0  0  0  0  0  0  0  0  0  0
   -4.9855   -1.7135    2.1059 H   0  0  0  0  0  0  0  0  0  0  0  0
   -0.9924    2.7379   -1.5685 H   0  0  0  0  0  0  0  0  0  0  0  0
    0.9963    3.7329   -0.5314 H   0  0  0  0  0  0  0  0  0  0  0  0
    3.1271   -0.6689   -1.3787 H   0  0  0  0  0  0  0  0  0  0  0  0
    3.7382   -2.1968   -0.6854 H   0  0  0  0  0  0  0  0  0  0  0  0
    5.2618   -1.3750   -2.4607 H   0  0  0  0  0  0  0  0  0  0  0  0
    5.4513    0.1807   -1.6366 H   0  0  0  0  0  0  0  0  0  0  0  0
    7.2519   -1.3017    1.1137 H   0  0  0  0  0  0  0  0  0  0  0  0
    6.6270    0.2242    0.4686 H   0  0  0  0  0  0  0  0  0  0  0  0
    4.9505   -2.1451    1.5105 H   0  0  0  0  0  0  0  0  0  0  0  0
    5.1960   -0.5780    2.3329 H   0  0  0  0  0  0  0  0  0  0  0  0
    0.0685   -1.1149    0.0347 H   0  0  0  0  0  0  0  0  0  0  0  0
  1  2  2  0
  2  3  1  0
  3  4  1  0
  4  5  1  0
  5  6  1  0
  6  7  1  0
  7  8  1  0
  8  9  1  0
  2 10  1  0
 10 11  2  0
 11 12  1  0
 12 13  2  0
 13 14  1  0
 13 15  1  0
 15 16  1  0
 16 17  2  0
 16 18  2  0
 16 19  1  0
 19 20  1  0
 20 21  1  0
 21 22  1  0
 22 23  1  0
 23 24  1  0
 15 25  2  0
  9  5  1  0
 25 10  1  0
 24 19  1  0
  3 26  1  0
  4 27  1  0
  4 28  1  0
  5 29  1  0
  6 30  1  0
  6 31  1  0
  7 32  1  0
  7 33  1  0
  8 34  1  0
  8 35  1  0
 11 36  1  0
 12 37  1  0
 20 38  1  0
 20 39  1  0
 21 40  1  0
 21 41  1  0
 23 42  1  0
 23 43  1  0
 24 44  1  0
 24 45  1  0
 25 46  1  0
M  END
$$$$
