
     RDKit          3D

 42 45  0  0  0  0  0  0  0  0999 V2000
   -3.4531   -2.1093   -1.5551 O   0  0  0  0  0  0  0  0  0  0  0  0
   -3.1536   -1.0661   -0.9878 C   0  0  0  0  0  0  0  0  0  0  0  0
   -1.8588   -0.6473   -0.7810 N   0  0  0  0  0  0  0  0  0  0  0  0
   -0.7117   -1.4597   -1.1179 C   0  0  0  0  0  0  0  0  0  0  0  0
   -0.4616   -2.5448   -0.0436 C   0  0  0  0  0  0  0  0  0  0  0  0
    0.1781   -1.9599    1.2312 C   0  0  0  0  0  0  0  0  0  0  0  0
    1.5496   -1.3155    0.9464 C   0  0  0  0  0  0  0  0  0  0  0  0
    1.4880   -0.4797   -0.2873 C   0  0  0  0  0  0  0  0  0  0  0  0
    0.4621   -0.5466   -1.2146 C   0  0  0  0  0  0  0  0  0  0  0  0
    0.7716    0.4361   -2.1577 C   0  0  0  0  0  0  0  0  0  0  0  0
    1.8919    1.0870   -1.8574 N   0  0  0  0  0  0  0  0  0  0  0  0
    2.3648    0.5120   -0.7174 N   0  0  0  0  0  0  0  0  0  0  0  0
    3.6110    0.9392   -0.1735 C   0  0  0  0  0  0  0  0  0  0  0  0
    4.3576    0.1241    0.6902 C   0  0  0  0  0  0  0  0  0  0  0  0
    5.5880    0.5591    1.1997 C   0  0  0  0  0  0  0  0  0  0  0  0
    6.0910    1.8095    0.8517 C   0  0  0  0  0  0  0  0  0  0  0  0
    5.3648    2.6239   -0.0116 C   0  0  0  0  0  0  0  0  0  0  0  0
    4.1386    2.1915   -0.5209 C   0  0  0  0  0  0  0  0  0  0  0  0
    3.4798    3.0522   -1.3098 F   0  0  0  0  0  0  0  0  0  0  0  0
   -4.1932   -0.1368   -0.4391 C   0  0  0  0  0  0  0  0  0  0  0  0
   -5.5405   -0.4014   -0.6491 C   0  0  0  0  0  0  0  0  0  0  0  0
   -6.4713    0.4842   -0.1157 C   0  0  0  0  0  0  0  0  0  0  0  0
   -6.0270    1.5905    0.6026 C   0  0  0  0  0  0  0  0  0  0  0  0
   -4.6613    1.7730    0.7621 C   0  0  0  0  0  0  0  0  0  0  0  0
   -3.7274    0.9375    0.2610 N   0  0  0  0  0  0  0  0  0  0  0  0
   -1.7444    0.1911   -0.2151 H   0  0  0  0  0  0  0  0  0  0  0  0
   -0.9018   -1.9464   -2.0818 H   0  0  0  0  0  0  0  0  0  0  0  0
   -1.3955   -3.0569    0.2163 H   0  0  0  0  0  0  0  0  0  0  0  0
    0.2167   -3.3057   -0.4530 H   0  0  0  0  0  0  0  0  0  0  0  0
   -0.4965   -1.2103    1.6641 H   0  0  0  0  0  0  0  0  0  0  0  0
    0.2980   -2.7491    1.9821 H   0  0  0  0  0  0  0  0  0  0  0  0
    2.2790   -2.1201    0.8006 H   0  0  0  0  0  0  0  0  0  0  0  0
    1.8486   -0.7220    1.8163 H   0  0  0  0  0  0  0  0  0  0  0  0
    0.2181    0.7238   -3.0425 H   0  0  0  0  0  0  0  0  0  0  0  0
    4.0480   -0.8794    0.9523 H   0  0  0  0  0  0  0  0  0  0  0  0
    6.1611   -0.0897    1.8584 H   0  0  0  0  0  0  0  0  0  0  0  0
    7.0471    2.1451    1.2447 H   0  0  0  0  0  0  0  0  0  0  0  0
    5.7398    3.6030   -0.2954 H   0  0  0  0  0  0  0  0  0  0  0  0
   -5.8558   -1.2719   -1.2151 H   0  0  0  0  0  0  0  0  0  0  0  0
   -7.5349    0.3129   -0.2597 H   0  0  0  0  0  0  0  0  0  0  0  0
   -6.7314    2.2980    1.0287 H   0  0  0  0  0  0  0  0  0  0  0  0
   -4.2735    2.6246    1.3160 H   0  0  0  0  0  0  0  0  0  0  0  0
  1  2  2  0
  2  3  1  0
  3  4  1  0
  4  5  1  0
  5  6  1  0
  6  7  1  0
  7  8  1  0
  8  9  2  0
  9 10  1  0
 10 11  2  0
 11 12  1  0
 12 13  1  0
 13 14  2  0
 14 15  1  0
 15 16  2  0
 16 17  1  0
 17 18  2  0
 18 19  1  0
  2 20  1  0
 20 21  2  0
 21 22  1  0
 22 23  2  0
 23 24  1  0
 24 25  2  0
  9  4  1  0
 18 13  1  0
 25 20  1  0
 12  8  1  0
  3 26  1  0
  4 27  1  0
  5 28  1  0
  5 29  1  0
  6 30  1  0
  6 31  1  0
  7 32  1  0
  7 33  1  0
 10 34  1  0
 14 35  1  0
 15 36  1  0
 16 37  1  0
 17 38  1  0
 21 39  1  0
 22 40  1  0
 23 41  1  0
 24 42  1  0
M  END
$$$$
