
     RDKit          3D

 52 55  0  0  0  0  0  0  0  0999 V2000
    5.9104   -0.0642    1.2727 C   0  0  0  0  0  0  0  0  0  0  0  0
    6.2430    0.4942   -0.1021 C   0  0  0  0  0  0  0  0  0  0  0  0
    5.3808   -0.0115   -1.2816 C   0  0  0  0  0  0  0  0  0  0  0  0
    5.5765   -1.5076   -1.5716 C   0  0  0  0  0  0  0  0  0  0  0  0
    3.9579    0.4462   -1.2117 N   0  0  0  0  0  0  0  0  0  0  0  0
    3.0619   -0.3334   -0.4686 C   0  0  0  0  0  0  0  0  0  0  0  0
    3.3956   -1.3370    0.1613 O   0  0  0  0  0  0  0  0  0  0  0  0
    1.6352    0.1017   -0.4460 C   0  0  0  0  0  0  0  0  0  0  0  0
    0.7621   -0.7161    0.1789 C   0  0  0  0  0  0  0  0  0  0  0  0
   -0.6811   -0.5269    0.3446 C   0  0  0  0  0  0  0  0  0  0  0  0
   -1.1863   -0.0679    1.5609 C   0  0  0  0  0  0  0  0  0  0  0  0
   -2.5691    0.1048    1.7406 C   0  0  0  0  0  0  0  0  0  0  0  0
   -3.4738   -0.2146    0.7082 C   0  0  0  0  0  0  0  0  0  0  0  0
   -2.9514   -0.6919   -0.5110 C   0  0  0  0  0  0  0  0  0  0  0  0
   -1.5648   -0.8336   -0.6900 C   0  0  0  0  0  0  0  0  0  0  0  0
   -3.8723   -1.0202   -1.6585 C   0  0  0  0  0  0  0  0  0  0  0  0
   -5.2776   -1.3332   -1.1655 C   0  0  0  0  0  0  0  0  0  0  0  0
   -5.7524   -0.2255   -0.2386 C   0  0  0  0  0  0  0  0  0  0  0  0
   -4.8431   -0.0682    0.8887 N   0  0  0  0  0  0  0  0  0  0  0  0
   -5.3841    0.3271    2.1826 C   0  0  0  0  0  0  0  0  0  0  0  0
   -4.4396    1.2721    2.9083 C   0  0  0  0  0  0  0  0  0  0  0  0
   -3.0774    0.6124    3.0654 C   0  0  0  0  0  0  0  0  0  0  0  0
    1.2497    1.3750   -1.0745 C   0  0  0  0  0  0  0  0  0  0  0  0
    0.1204    1.8442   -1.1100 O   0  0  0  0  0  0  0  0  0  0  0  0
    2.2843    2.0484   -1.6522 N   0  0  0  0  0  0  0  0  0  0  0  0
    3.5930    1.6731   -1.7718 C   0  0  0  0  0  0  0  0  0  0  0  0
    4.5686    2.7660   -2.5956 S   0  0  0  0  0  0  0  0  0  0  0  0
    5.9596   -1.1560    1.2922 H   0  0  0  0  0  0  0  0  0  0  0  0
    4.9184    0.2545    1.6040 H   0  0  0  0  0  0  0  0  0  0  0  0
    6.6314    0.3102    2.0074 H   0  0  0  0  0  0  0  0  0  0  0  0
    7.2934    0.2600   -0.3176 H   0  0  0  0  0  0  0  0  0  0  0  0
    6.1795    1.5873   -0.0454 H   0  0  0  0  0  0  0  0  0  0  0  0
    5.8151    0.4573   -2.1711 H   0  0  0  0  0  0  0  0  0  0  0  0
    6.6107   -1.6950   -1.8827 H   0  0  0  0  0  0  0  0  0  0  0  0
    4.9198   -1.8333   -2.3854 H   0  0  0  0  0  0  0  0  0  0  0  0
    5.3924   -2.1493   -0.7074 H   0  0  0  0  0  0  0  0  0  0  0  0
    1.1103   -1.6405    0.6401 H   0  0  0  0  0  0  0  0  0  0  0  0
   -0.5067    0.1694    2.3760 H   0  0  0  0  0  0  0  0  0  0  0  0
   -1.1822   -1.1886   -1.6437 H   0  0  0  0  0  0  0  0  0  0  0  0
   -3.8954   -0.1637   -2.3432 H   0  0  0  0  0  0  0  0  0  0  0  0
   -3.4915   -1.8844   -2.2154 H   0  0  0  0  0  0  0  0  0  0  0  0
   -5.2792   -2.2907   -0.6283 H   0  0  0  0  0  0  0  0  0  0  0  0
   -5.9597   -1.4363   -2.0165 H   0  0  0  0  0  0  0  0  0  0  0  0
   -6.7596   -0.4725    0.1177 H   0  0  0  0  0  0  0  0  0  0  0  0
   -5.8262    0.7249   -0.7814 H   0  0  0  0  0  0  0  0  0  0  0  0
   -5.5625   -0.5712    2.7863 H   0  0  0  0  0  0  0  0  0  0  0  0
   -6.3526    0.8255    2.0556 H   0  0  0  0  0  0  0  0  0  0  0  0
   -4.8458    1.5342    3.8914 H   0  0  0  0  0  0  0  0  0  0  0  0
   -4.3391    2.2047    2.3378 H   0  0  0  0  0  0  0  0  0  0  0  0
   -3.1427   -0.2315    3.7630 H   0  0  0  0  0  0  0  0  0  0  0  0
   -2.3767    1.3428    3.4868 H   0  0  0  0  0  0  0  0  0  0  0  0
    2.0228    2.9289   -2.0787 H   0  0  0  0  0  0  0  0  0  0  0  0
  1  2  1  0
  2  3  1  0
  3  4  1  0
  3  5  1  0
  5  6  1  0
  6  7  2  0
  6  8  1  0
  8  9  2  3
  9 10  1  0
 10 11  2  0
 11 12  1  0
 12 13  2  0
 13 14  1  0
 14 15  2  0
 14 16  1  0
 16 17  1  0
 17 18  1  0
 18 19  1  0
 19 20  1  0
 20 21  1  0
 21 22  1  0
  8 23  1  0
 23 24  2  0
 23 25  1  0
 25 26  1  0
 26 27  2  0
 26  5  1  0
 15 10  1  0
 22 12  1  0
 19 13  1  0
  1 28  1  0
  1 29  1  0
  1 30  1  0
  2 31  1  0
  2 32  1  0
  3 33  1  0
  4 34  1  0
  4 35  1  0
  4 36  1  0
  9 37  1  0
 11 38  1  0
 15 39  1  0
 16 40  1  0
 16 41  1  0
 17 42  1  0
 17 43  1  0
 18 44  1  0
 18 45  1  0
 20 46  1  0
 20 47  1  0
 21 48  1  0
 21 49  1  0
 22 50  1  0
 22 51  1  0
 25 52  1  0
M  END
$$$$
