
     RDKit          3D

 40 42  0  0  0  0  0  0  0  0999 V2000
    0.7421   -4.3354    0.1032 C   0  0  0  0  0  0  0  0  0  0  0  0
    0.0880   -3.0661    0.1057 O   0  0  0  0  0  0  0  0  0  0  0  0
    0.9316   -1.9981    0.1601 C   0  0  0  0  0  0  0  0  0  0  0  0
    2.1563   -2.0938    0.2028 O   0  0  0  0  0  0  0  0  0  0  0  0
    0.2415   -0.7028    0.1453 C   0  0  0  0  0  0  0  0  0  0  0  0
    0.9490    0.4961    0.0952 C   0  0  0  0  0  0  0  0  0  0  0  0
    2.3325    0.6209    0.0803 N   0  0  0  0  0  0  0  0  0  0  0  0
    3.0909    1.7820    0.0316 C   0  0  0  0  0  0  0  0  0  0  0  0
    2.6348    2.9203   -0.0088 O   0  0  0  0  0  0  0  0  0  0  0  0
    4.5303    1.5320    0.0330 C   0  0  0  0  0  0  0  0  0  0  0  0
    5.3061    0.3824    0.0715 C   0  0  0  0  0  0  0  0  0  0  0  0
    6.6623    0.7948    0.0486 C   0  0  0  0  0  0  0  0  0  0  0  0
    6.6422    2.1661   -0.0023 C   0  0  0  0  0  0  0  0  0  0  0  0
    5.3658    2.6208   -0.0121 O   0  0  0  0  0  0  0  0  0  0  0  0
   -0.0654    1.8534    0.0406 S   0  0  0  0  0  0  0  0  0  0  0  0
   -1.4674    0.9026    0.0870 C   0  0  0  0  0  0  0  0  0  0  0  0
   -1.1841   -0.4478    0.1736 C   0  0  0  0  0  0  0  0  0  0  0  0
   -2.3104   -1.4389    0.2465 C   0  0  0  0  0  0  0  0  0  0  0  0
   -3.6188   -0.7605    0.6821 C   0  0  0  0  0  0  0  0  0  0  0  0
   -3.8677    0.4954   -0.0391 N   0  0  0  0  0  0  0  0  0  0  0  0
   -5.1766    0.7884   -0.4030 C   0  0  0  0  0  0  0  0  0  0  0  0
   -5.4381    2.1473   -1.0039 C   0  0  0  0  0  0  0  0  0  0  0  0
   -6.1015   -0.0128   -0.2665 O   0  0  0  0  0  0  0  0  0  0  0  0
   -2.8271    1.5300    0.0522 C   0  0  0  0  0  0  0  0  0  0  0  0
    1.3852   -4.4335   -0.7769 H   0  0  0  0  0  0  0  0  0  0  0  0
    1.3187   -4.4713    1.0235 H   0  0  0  0  0  0  0  0  0  0  0  0
   -0.0265   -5.1120    0.0585 H   0  0  0  0  0  0  0  0  0  0  0  0
    2.8286   -0.2648    0.1168 H   0  0  0  0  0  0  0  0  0  0  0  0
    4.9528   -0.6387    0.1113 H   0  0  0  0  0  0  0  0  0  0  0  0
    7.5442    0.1697    0.0670 H   0  0  0  0  0  0  0  0  0  0  0  0
    7.4087    2.9282   -0.0349 H   0  0  0  0  0  0  0  0  0  0  0  0
   -2.0851   -2.2402    0.9572 H   0  0  0  0  0  0  0  0  0  0  0  0
   -2.4430   -1.8870   -0.7458 H   0  0  0  0  0  0  0  0  0  0  0  0
   -4.4463   -1.4649    0.5468 H   0  0  0  0  0  0  0  0  0  0  0  0
   -3.5819   -0.5095    1.7501 H   0  0  0  0  0  0  0  0  0  0  0  0
   -5.1656    2.9363   -0.2984 H   0  0  0  0  0  0  0  0  0  0  0  0
   -4.8848    2.2574   -1.9401 H   0  0  0  0  0  0  0  0  0  0  0  0
   -6.5055    2.2450   -1.2252 H   0  0  0  0  0  0  0  0  0  0  0  0
   -2.9052    2.2112   -0.8003 H   0  0  0  0  0  0  0  0  0  0  0  0
   -3.0103    2.0980    0.9718 H   0  0  0  0  0  0  0  0  0  0  0  0
  1  2  1  0
  2  3  1  0
  3  4  2  0
  3  5  1  0
  5  6  2  0
  6  7  1  0
  7  8  1  0
  8  9  2  0
  8 10  1  0
 10 11  2  0
 11 12  1  0
 12 13  2  0
 13 14  1  0
  6 15  1  0
 15 16  1  0
 16 17  2  0
 17 18  1  0
 18 19  1  0
 19 20  1  0
 20 21  1  0
 21 22  1  0
 21 23  2  0
 20 24  1  0
 17  5  1  0
 14 10  1  0
 24 16  1  0
  1 25  1  0
  1 26  1  0
  1 27  1  0
  7 28  1  0
 11 29  1  0
 12 30  1  0
 13 31  1  0
 18 32  1  0
 18 33  1  0
 19 34  1  0
 19 35  1  0
 22 36  1  0
 22 37  1  0
 22 38  1  0
 24 39  1  0
 24 40  1  0
M  END
$$$$
