
     RDKit          3D

 46 48  0  0  0  0  0  0  0  0999 V2000
    7.9496   -1.4608   -0.8426 C   0  0  0  0  0  0  0  0  0  0  0  0
    7.5203   -0.2535   -1.4604 O   0  0  0  0  0  0  0  0  0  0  0  0
    6.0998   -0.1060   -1.4657 C   0  0  0  0  0  0  0  0  0  0  0  0
    5.5892    0.4787   -0.1440 C   0  0  0  0  0  0  0  0  0  0  0  0
    4.1389    0.6696   -0.1489 N   0  0  0  0  0  0  0  0  0  0  0  0
    3.3347   -0.4201    0.1365 C   0  0  0  0  0  0  0  0  0  0  0  0
    3.7274   -1.5495    0.3968 O   0  0  0  0  0  0  0  0  0  0  0  0
    1.9019   -0.0379    0.0599 C   0  0  0  0  0  0  0  0  0  0  0  0
    0.9231   -0.9124    0.3255 C   0  0  0  0  0  0  0  0  0  0  0  0
   -0.5128   -0.6137    0.2797 C   0  0  0  0  0  0  0  0  0  0  0  0
   -1.1633   -0.6092   -0.9557 C   0  0  0  0  0  0  0  0  0  0  0  0
   -2.5322   -0.3260   -1.0397 C   0  0  0  0  0  0  0  0  0  0  0  0
   -3.3034   -0.0368    0.0936 C   0  0  0  0  0  0  0  0  0  0  0  0
   -4.6468    0.2422    0.0063 N   0  0  0  0  0  0  0  0  0  0  0  0
   -5.4638    0.7138    1.1223 C   0  0  0  0  0  0  0  0  0  0  0  0
   -6.7520    1.1959    0.4594 C   0  0  0  0  0  0  0  0  0  0  0  0
   -6.8717    0.2936   -0.7558 C   0  0  0  0  0  0  0  0  0  0  0  0
   -5.4260    0.1594   -1.2267 C   0  0  0  0  0  0  0  0  0  0  0  0
   -2.6261   -0.0523    1.3249 C   0  0  0  0  0  0  0  0  0  0  0  0
   -1.2492   -0.3375    1.4401 C   0  0  0  0  0  0  0  0  0  0  0  0
   -0.6072   -0.3247    2.8006 C   0  0  0  0  0  0  0  0  0  0  0  0
    1.7535    1.6114   -0.3925 S   0  0  0  0  0  0  0  0  0  0  0  0
    3.4953    1.8395   -0.4938 C   0  0  0  0  0  0  0  0  0  0  0  0
    4.1739    3.2917   -0.9523 S   0  0  0  0  0  0  0  0  0  0  0  0
    7.5377   -2.3277   -1.3681 H   0  0  0  0  0  0  0  0  0  0  0  0
    9.0404   -1.5056   -0.9029 H   0  0  0  0  0  0  0  0  0  0  0  0
    7.6614   -1.4864    0.2116 H   0  0  0  0  0  0  0  0  0  0  0  0
    5.8559    0.5816   -2.2830 H   0  0  0  0  0  0  0  0  0  0  0  0
    5.6145   -1.0600   -1.7042 H   0  0  0  0  0  0  0  0  0  0  0  0
    6.1030    1.4221    0.0676 H   0  0  0  0  0  0  0  0  0  0  0  0
    5.8470   -0.1923    0.6834 H   0  0  0  0  0  0  0  0  0  0  0  0
    1.1640   -1.9342    0.6132 H   0  0  0  0  0  0  0  0  0  0  0  0
   -0.6156   -0.8220   -1.8707 H   0  0  0  0  0  0  0  0  0  0  0  0
   -2.9828   -0.3269   -2.0279 H   0  0  0  0  0  0  0  0  0  0  0  0
   -5.6721   -0.1130    1.8109 H   0  0  0  0  0  0  0  0  0  0  0  0
   -4.9948    1.5363    1.6730 H   0  0  0  0  0  0  0  0  0  0  0  0
   -7.6159    1.1308    1.1265 H   0  0  0  0  0  0  0  0  0  0  0  0
   -6.6426    2.2395    0.1400 H   0  0  0  0  0  0  0  0  0  0  0  0
   -7.5277    0.7032   -1.5288 H   0  0  0  0  0  0  0  0  0  0  0  0
   -7.2628   -0.6863   -0.4563 H   0  0  0  0  0  0  0  0  0  0  0  0
   -5.1623    0.9865   -1.8958 H   0  0  0  0  0  0  0  0  0  0  0  0
   -5.2868   -0.7919   -1.7512 H   0  0  0  0  0  0  0  0  0  0  0  0
   -3.1791    0.1544    2.2376 H   0  0  0  0  0  0  0  0  0  0  0  0
   -0.1289   -1.2876    3.0072 H   0  0  0  0  0  0  0  0  0  0  0  0
    0.1382    0.4748    2.8611 H   0  0  0  0  0  0  0  0  0  0  0  0
   -1.3438   -0.1511    3.5922 H   0  0  0  0  0  0  0  0  0  0  0  0
  1  2  1  0
  2  3  1  0
  3  4  1  0
  4  5  1  0
  5  6  1  0
  6  7  2  0
  6  8  1  0
  8  9  2  3
  9 10  1  0
 10 11  2  0
 11 12  1  0
 12 13  2  0
 13 14  1  0
 14 15  1  0
 15 16  1  0
 16 17  1  0
 17 18  1  0
 13 19  1  0
 19 20  2  0
 20 21  1  0
  8 22  1  0
 22 23  1  0
 23 24  2  0
 23  5  1  0
 20 10  1  0
 18 14  1  0
  1 25  1  0
  1 26  1  0
  1 27  1  0
  3 28  1  0
  3 29  1  0
  4 30  1  0
  4 31  1  0
  9 32  1  0
 11 33  1  0
 12 34  1  0
 15 35  1  0
 15 36  1  0
 16 37  1  0
 16 38  1  0
 17 39  1  0
 17 40  1  0
 18 41  1  0
 18 42  1  0
 19 43  1  0
 21 44  1  0
 21 45  1  0
 21 46  1  0
M  END
$$$$
