
     RDKit          3D

 51 54  0  0  0  0  0  0  0  0999 V2000
   -0.0895    1.8377   -0.3087 O   0  0  0  0  0  0  0  0  0  0  0  0
   -0.4435    0.7065    0.0351 C   0  0  0  0  0  0  0  0  0  0  0  0
    0.5764   -0.2674    0.4619 C   0  0  0  0  0  0  0  0  0  0  0  0
    1.9091    0.0469    0.8467 C   0  0  0  0  0  0  0  0  0  0  0  0
    2.4961   -1.1617    1.1264 C   0  0  0  0  0  0  0  0  0  0  0  0
    3.8324   -1.5987    1.5899 C   0  0  0  0  0  0  0  0  0  0  0  0
    4.7721   -0.5363    1.4045 O   0  0  0  0  0  0  0  0  0  0  0  0
    5.4778   -0.4907    0.2345 C   0  0  0  0  0  0  0  0  0  0  0  0
    5.1691   -1.1769   -0.9395 C   0  0  0  0  0  0  0  0  0  0  0  0
    5.9765   -1.0295   -2.0705 C   0  0  0  0  0  0  0  0  0  0  0  0
    7.0896   -0.1897   -2.0367 C   0  0  0  0  0  0  0  0  0  0  0  0
    7.4011    0.5253   -0.8721 C   0  0  0  0  0  0  0  0  0  0  0  0
    8.6102    1.4232   -0.8199 C   0  0  0  0  0  0  0  0  0  0  0  0
    8.4721    2.4607    0.0521 F   0  0  0  0  0  0  0  0  0  0  0  0
    9.7327    0.7564   -0.4329 F   0  0  0  0  0  0  0  0  0  0  0  0
    8.9080    1.9886   -2.0238 F   0  0  0  0  0  0  0  0  0  0  0  0
    6.5864    0.3612    0.2593 C   0  0  0  0  0  0  0  0  0  0  0  0
    1.5872   -2.1484    0.9150 O   0  0  0  0  0  0  0  0  0  0  0  0
    0.3975   -1.6000    0.4820 N   0  0  0  0  0  0  0  0  0  0  0  0
   -1.8026    0.3505    0.0211 N   0  0  0  0  0  0  0  0  0  0  0  0
   -2.3542   -0.8386    0.6735 C   0  0  0  0  0  0  0  0  0  0  0  0
   -3.8318   -0.6810    1.0168 C   0  0  0  0  0  0  0  0  0  0  0  0
   -4.6679   -0.3611   -0.2337 C   0  0  0  0  0  0  0  0  0  0  0  0
   -6.0454    0.1460    0.1596 C   0  0  0  0  0  0  0  0  0  0  0  0
   -6.2393    1.4182    0.7091 C   0  0  0  0  0  0  0  0  0  0  0  0
   -7.5241    1.8117    1.0567 C   0  0  0  0  0  0  0  0  0  0  0  0
   -8.6167    1.0361    0.9000 N   0  0  0  0  0  0  0  0  0  0  0  0
   -8.4135   -0.1892    0.3735 C   0  0  0  0  0  0  0  0  0  0  0  0
   -7.1685   -0.6728   -0.0044 C   0  0  0  0  0  0  0  0  0  0  0  0
   -3.9318    0.5798   -1.2093 C   0  0  0  0  0  0  0  0  0  0  0  0
   -2.7528    1.2957   -0.5591 C   0  0  0  0  0  0  0  0  0  0  0  0
    2.3631    1.0264    0.9071 H   0  0  0  0  0  0  0  0  0  0  0  0
    3.7811   -1.7888    2.6686 H   0  0  0  0  0  0  0  0  0  0  0  0
    4.1626   -2.5344    1.1244 H   0  0  0  0  0  0  0  0  0  0  0  0
    4.3002   -1.8233   -1.0182 H   0  0  0  0  0  0  0  0  0  0  0  0
    5.7325   -1.5689   -2.9829 H   0  0  0  0  0  0  0  0  0  0  0  0
    7.7099   -0.0875   -2.9263 H   0  0  0  0  0  0  0  0  0  0  0  0
    6.8165    0.9036    1.1762 H   0  0  0  0  0  0  0  0  0  0  0  0
   -2.2194   -1.6829   -0.0113 H   0  0  0  0  0  0  0  0  0  0  0  0
   -1.7997   -1.0394    1.5955 H   0  0  0  0  0  0  0  0  0  0  0  0
   -4.2051   -1.5986    1.4889 H   0  0  0  0  0  0  0  0  0  0  0  0
   -3.9342    0.1133    1.7685 H   0  0  0  0  0  0  0  0  0  0  0  0
   -4.8111   -1.3058   -0.7796 H   0  0  0  0  0  0  0  0  0  0  0  0
   -5.4134    2.1004    0.8734 H   0  0  0  0  0  0  0  0  0  0  0  0
   -7.7111    2.7924    1.4850 H   0  0  0  0  0  0  0  0  0  0  0  0
   -9.3068   -0.7967    0.2590 H   0  0  0  0  0  0  0  0  0  0  0  0
   -7.0865   -1.6730   -0.4173 H   0  0  0  0  0  0  0  0  0  0  0  0
   -3.5387   -0.0281   -2.0365 H   0  0  0  0  0  0  0  0  0  0  0  0
   -4.6101    1.3088   -1.6679 H   0  0  0  0  0  0  0  0  0  0  0  0
   -3.0882    1.9595    0.2447 H   0  0  0  0  0  0  0  0  0  0  0  0
   -2.2542    1.9207   -1.3070 H   0  0  0  0  0  0  0  0  0  0  0  0
  1  2  2  0
  2  3  1  0
  3  4  1  0
  4  5  2  0
  5  6  1  0
  6  7  1  0
  7  8  1  0
  8  9  2  0
  9 10  1  0
 10 11  2  0
 11 12  1  0
 12 13  1  0
 13 14  1  0
 13 15  1  0
 13 16  1  0
 12 17  2  0
  5 18  1  0
 18 19  1  0
  2 20  1  0
 20 21  1  0
 21 22  1  0
 22 23  1  0
 23 24  1  0
 24 25  2  0
 25 26  1  0
 26 27  2  0
 27 28  1  0
 28 29  2  0
 23 30  1  0
 30 31  1  0
 19  3  2  0
 31 20  1  0
 17  8  1  0
 29 24  1  0
  4 32  1  0
  6 33  1  0
  6 34  1  0
  9 35  1  0
 10 36  1  0
 11 37  1  0
 17 38  1  0
 21 39  1  0
 21 40  1  0
 22 41  1  0
 22 42  1  0
 23 43  1  0
 25 44  1  0
 26 45  1  0
 28 46  1  0
 29 47  1  0
 30 48  1  0
 30 49  1  0
 31 50  1  0
 31 51  1  0
M  END
$$$$
