
     RDKit          3D

 40 43  0  0  0  0  0  0  0  0999 V2000
   -3.2527    2.1599   -3.1562 O   0  0  0  0  0  0  0  0  0  0  0  0
   -3.8795    1.3870   -2.4514 C   0  0  0  0  0  0  0  0  0  0  0  0
   -5.2459    1.2086   -2.4465 N   0  0  0  0  0  0  0  0  0  0  0  0
   -5.4680    0.3341   -1.5252 C   0  0  0  0  0  0  0  0  0  0  0  0
   -6.7720   -0.2158   -1.1063 C   0  0  0  0  0  0  0  0  0  0  0  0
   -6.7965   -1.1355   -0.1268 C   0  0  0  0  0  0  0  0  0  0  0  0
   -5.5936   -1.6152    0.5340 C   0  0  0  0  0  0  0  0  0  0  0  0
   -4.3765   -1.1525    0.2030 C   0  0  0  0  0  0  0  0  0  0  0  0
   -4.2750   -0.1595   -0.8262 C   0  0  0  0  0  0  0  0  0  0  0  0
   -3.2814    0.5073   -1.4129 C   0  0  0  0  0  0  0  0  0  0  0  0
   -1.9035    0.3941   -1.1478 C   0  0  0  0  0  0  0  0  0  0  0  0
   -1.2328    0.7956    0.3898 S   0  0  0  0  0  0  0  0  0  0  0  0
    0.3138    0.3704   -0.1874 C   0  0  0  0  0  0  0  0  0  0  0  0
    1.5464    0.4915    0.5738 N   0  0  0  0  0  0  0  0  0  0  0  0
    1.6914   -0.7424    1.7212 S   0  0  0  0  0  6  0  0  0  0  0  0
    2.0046   -1.9654    1.0115 O   0  0  0  0  0  0  0  0  0  0  0  0
    0.5585   -0.6848    2.6229 O   0  0  0  0  0  0  0  0  0  0  0  0
    3.1387   -0.2259    2.6567 C   0  0  0  0  0  0  0  0  0  0  0  0
    4.2799    0.1178    1.7345 C   0  0  0  0  0  0  0  0  0  0  0  0
    4.5981    1.4589    1.4710 C   0  0  0  0  0  0  0  0  0  0  0  0
    5.6408    1.7817    0.6016 C   0  0  0  0  0  0  0  0  0  0  0  0
    6.3785    0.7705   -0.0096 C   0  0  0  0  0  0  0  0  0  0  0  0
    6.0766   -0.5646    0.2495 C   0  0  0  0  0  0  0  0  0  0  0  0
    5.0348   -0.8909    1.1186 C   0  0  0  0  0  0  0  0  0  0  0  0
    0.3999    0.0311   -1.4483 N   0  0  0  0  0  0  0  0  0  0  0  0
   -0.8624    0.0237   -1.9805 C   0  0  0  0  0  0  0  0  0  0  0  0
   -1.0717   -0.3484   -3.2506 O   0  0  0  0  0  0  0  0  0  0  0  0
   -7.6614    0.1438   -1.6069 H   0  0  0  0  0  0  0  0  0  0  0  0
   -7.7431   -1.5573    0.2003 H   0  0  0  0  0  0  0  0  0  0  0  0
   -5.7085   -2.3688    1.3086 H   0  0  0  0  0  0  0  0  0  0  0  0
   -3.4833   -1.5206    0.6967 H   0  0  0  0  0  0  0  0  0  0  0  0
    2.3116    0.4040   -0.1004 H   0  0  0  0  0  0  0  0  0  0  0  0
    2.8452    0.6319    3.2707 H   0  0  0  0  0  0  0  0  0  0  0  0
    3.4104   -1.0471    3.3277 H   0  0  0  0  0  0  0  0  0  0  0  0
    4.0359    2.2661    1.9377 H   0  0  0  0  0  0  0  0  0  0  0  0
    5.8799    2.8237    0.4016 H   0  0  0  0  0  0  0  0  0  0  0  0
    7.1915    1.0226   -0.6861 H   0  0  0  0  0  0  0  0  0  0  0  0
    6.6532   -1.3542   -0.2267 H   0  0  0  0  0  0  0  0  0  0  0  0
    4.8137   -1.9418    1.3027 H   0  0  0  0  0  0  0  0  0  0  0  0
   -0.1959   -0.5198   -3.6382 H   0  0  0  0  0  0  0  0  0  0  0  0
  1  2  2  0
  2  3  1  0
  3  4  2  0
  4  5  1  0
  5  6  2  0
  6  7  1  0
  7  8  2  0
  8  9  1  0
  9 10  2  0
 10 11  1  0
 11 12  1  0
 12 13  1  0
 13 14  1  0
 14 15  1  0
 15 16  2  0
 15 17  2  0
 15 18  1  0
 18 19  1  0
 19 20  2  0
 20 21  1  0
 21 22  2  0
 22 23  1  0
 23 24  2  0
 13 25  2  0
 25 26  1  0
 26 27  1  0
 10  2  1  0
 26 11  2  0
  9  4  1  0
 24 19  1  0
  5 28  1  0
  6 29  1  0
  7 30  1  0
  8 31  1  0
 14 32  1  0
 18 33  1  0
 18 34  1  0
 20 35  1  0
 21 36  1  0
 22 37  1  0
 23 38  1  0
 24 39  1  0
 27 40  1  0
M  END
$$$$
