
     RDKit          3D

 44 45  0  0  0  0  0  0  0  0999 V2000
    0.8985    1.1237   -4.1329 C   0  0  0  0  0  0  0  0  0  0  0  0
    1.9846    0.0802   -4.3455 C   0  0  0  0  0  0  0  0  0  0  0  0
    1.8494   -1.1351   -3.4231 C   0  0  0  0  0  0  0  0  0  0  0  0
    2.6255   -1.0401   -2.1035 C   0  0  0  0  0  0  0  0  0  0  0  0
    2.0635   -0.0401   -1.1775 N   0  0  0  0  0  0  0  0  0  0  0  0
    2.8500    1.2007   -1.0941 C   0  0  0  0  0  0  0  0  0  0  0  0
    1.0338   -0.3286   -0.2506 C   0  0  0  0  0  0  0  0  0  0  0  0
    0.5305    0.5868    0.6089 C   0  0  0  0  0  0  0  0  0  0  0  0
   -0.5118    0.2970    1.5802 C   0  0  0  0  0  0  0  0  0  0  0  0
   -1.2819    1.2739    2.0919 C   0  0  0  0  0  0  0  0  0  0  0  0
   -2.4520    1.0010    2.9285 C   0  0  0  0  0  0  0  0  0  0  0  0
   -3.0431    1.9385    3.7098 C   0  0  0  0  0  0  0  0  0  0  0  0
   -4.2068    1.6427    4.4781 C   0  0  0  0  0  0  0  0  0  0  0  0
   -5.1542    1.3894    5.0990 N   0  0  0  0  0  0  0  0  0  0  0  0
   -2.5350    3.2671    3.8135 C   0  0  0  0  0  0  0  0  0  0  0  0
   -2.1198    4.3484    3.8851 N   0  0  0  0  0  0  0  0  0  0  0  0
   -2.9674   -0.4247    2.7768 C   0  0  0  0  0  0  0  0  0  0  0  0
   -1.8334   -1.4382    2.9036 C   0  0  0  0  0  0  0  0  0  0  0  0
   -0.6806   -1.1660    1.9260 C   0  0  0  0  0  0  0  0  0  0  0  0
   -0.8111   -1.9374    0.6143 C   0  0  0  0  0  0  0  0  0  0  0  0
    0.4592   -1.7489   -0.2307 C   0  0  0  0  0  0  0  0  0  0  0  0
    0.9371    1.5617   -3.1341 H   0  0  0  0  0  0  0  0  0  0  0  0
   -0.0957    0.6872   -4.2750 H   0  0  0  0  0  0  0  0  0  0  0  0
    1.0141    1.9361   -4.8583 H   0  0  0  0  0  0  0  0  0  0  0  0
    1.9045   -0.2680   -5.3834 H   0  0  0  0  0  0  0  0  0  0  0  0
    2.9751    0.5379   -4.2471 H   0  0  0  0  0  0  0  0  0  0  0  0
    2.2554   -2.0004   -3.9629 H   0  0  0  0  0  0  0  0  0  0  0  0
    0.7916   -1.3552   -3.2473 H   0  0  0  0  0  0  0  0  0  0  0  0
    3.6796   -0.8219   -2.3192 H   0  0  0  0  0  0  0  0  0  0  0  0
    2.6450   -2.0262   -1.6267 H   0  0  0  0  0  0  0  0  0  0  0  0
    3.5495    1.3034   -1.9305 H   0  0  0  0  0  0  0  0  0  0  0  0
    2.2011    2.0810   -1.1250 H   0  0  0  0  0  0  0  0  0  0  0  0
    3.4324    1.2157   -0.1672 H   0  0  0  0  0  0  0  0  0  0  0  0
    0.8757    1.6151    0.5789 H   0  0  0  0  0  0  0  0  0  0  0  0
   -1.0689    2.3088    1.8266 H   0  0  0  0  0  0  0  0  0  0  0  0
   -3.4476   -0.5270    1.7939 H   0  0  0  0  0  0  0  0  0  0  0  0
   -3.7304   -0.6748    3.5208 H   0  0  0  0  0  0  0  0  0  0  0  0
   -1.4410   -1.3927    3.9297 H   0  0  0  0  0  0  0  0  0  0  0  0
   -2.2231   -2.4552    2.7726 H   0  0  0  0  0  0  0  0  0  0  0  0
    0.2365   -1.5121    2.4260 H   0  0  0  0  0  0  0  0  0  0  0  0
   -1.6870   -1.5917    0.0482 H   0  0  0  0  0  0  0  0  0  0  0  0
   -0.9580   -3.0078    0.8050 H   0  0  0  0  0  0  0  0  0  0  0  0
    1.2341   -2.4198    0.1618 H   0  0  0  0  0  0  0  0  0  0  0  0
    0.2221   -2.0844   -1.2444 H   0  0  0  0  0  0  0  0  0  0  0  0
  1  2  1  0
  2  3  1  0
  3  4  1  0
  4  5  1  0
  5  6  1  0
  5  7  1  0
  7  8  2  0
  8  9  1  0
  9 10  2  0
 10 11  1  0
 11 12  2  3
 12 13  1  0
 13 14  3  0
 12 15  1  0
 15 16  3  0
 11 17  1  0
 17 18  1  0
 18 19  1  0
 19 20  1  0
 20 21  1  0
 21  7  1  0
 19  9  1  0
  1 22  1  0
  1 23  1  0
  1 24  1  0
  2 25  1  0
  2 26  1  0
  3 27  1  0
  3 28  1  0
  4 29  1  0
  4 30  1  0
  6 31  1  0
  6 32  1  0
  6 33  1  0
  8 34  1  0
 10 35  1  0
 17 36  1  0
 17 37  1  0
 18 38  1  0
 18 39  1  0
 19 40  1  0
 20 41  1  0
 20 42  1  0
 21 43  1  0
 21 44  1  0
M  END
$$$$
