
     RDKit          3D

 45 47  0  0  0  0  0  0  0  0999 V2000
   -0.5985    1.7730   -3.1232 C   0  0  0  0  0  0  0  0  0  0  0  0
    0.3219    1.2112   -2.1039 C   0  0  0  0  0  0  0  0  0  0  0  0
    1.5684    1.6019   -1.9357 N   0  0  0  0  0  0  0  0  0  0  0  0
    2.0779    0.7196   -1.0184 C   0  0  0  0  0  0  0  0  0  0  0  0
    3.4766    0.7346   -0.5287 C   0  0  0  0  0  0  0  0  0  0  0  0
    4.2924    1.5785   -0.8846 O   0  0  0  0  0  0  0  0  0  0  0  0
    3.7177   -0.3040    0.3554 N   0  0  0  0  0  0  0  0  0  0  0  0
    4.9066   -0.6382    1.0343 C   0  0  0  0  0  0  0  0  0  0  0  0
    6.0934    0.0878    0.8984 C   0  0  0  0  0  0  0  0  0  0  0  0
    7.2434   -0.2943    1.5991 C   0  0  0  0  0  0  0  0  0  0  0  0
    7.2134   -1.4041    2.4397 C   0  0  0  0  0  0  0  0  0  0  0  0
    8.6313   -1.8656    3.2969 Cl  0  0  0  0  0  0  0  0  0  0  0  0
    6.0440   -2.1410    2.5907 C   0  0  0  0  0  0  0  0  0  0  0  0
    4.8981   -1.7575    1.8904 C   0  0  0  0  0  0  0  0  0  0  0  0
    3.4615   -2.7010    2.1092 Cl  0  0  0  0  0  0  0  0  0  0  0  0
    1.1851   -0.1916   -0.5943 N   0  0  0  0  0  0  0  0  0  0  0  0
    0.0547    0.1383   -1.2626 N   0  0  0  0  0  0  0  0  0  0  0  0
   -1.1719   -0.5228   -0.9784 C   0  0  0  0  0  0  0  0  0  0  0  0
   -2.3684    0.2132   -1.0234 C   0  0  0  0  0  0  0  0  0  0  0  0
   -3.5880   -0.3850   -0.6903 C   0  0  0  0  0  0  0  0  0  0  0  0
   -4.7068    0.3995   -0.7905 O   0  0  0  0  0  0  0  0  0  0  0  0
   -5.1962    0.8370    0.4913 C   0  0  0  0  0  0  0  0  0  0  0  0
   -6.7192    0.8690    0.4077 C   0  0  0  0  0  0  0  0  0  0  0  0
   -4.6571    2.2348    0.7856 C   0  0  0  0  0  0  0  0  0  0  0  0
   -3.6379   -1.7389   -0.3575 C   0  0  0  0  0  0  0  0  0  0  0  0
   -5.1255   -2.5487   -0.0360 Cl  0  0  0  0  0  0  0  0  0  0  0  0
   -2.4570   -2.4777   -0.3041 C   0  0  0  0  0  0  0  0  0  0  0  0
   -1.2240   -1.8793   -0.6043 C   0  0  0  0  0  0  0  0  0  0  0  0
    0.1375   -2.9505   -0.6036 Cl  0  0  0  0  0  0  0  0  0  0  0  0
   -1.2094    2.5727   -2.6949 H   0  0  0  0  0  0  0  0  0  0  0  0
   -1.2497    1.0068   -3.5536 H   0  0  0  0  0  0  0  0  0  0  0  0
   -0.0215    2.2063   -3.9472 H   0  0  0  0  0  0  0  0  0  0  0  0
    2.9106   -0.9068    0.5220 H   0  0  0  0  0  0  0  0  0  0  0  0
    6.1621    0.9591    0.2535 H   0  0  0  0  0  0  0  0  0  0  0  0
    8.1575    0.2829    1.4799 H   0  0  0  0  0  0  0  0  0  0  0  0
    6.0233   -3.0063    3.2472 H   0  0  0  0  0  0  0  0  0  0  0  0
   -2.3837    1.2734   -1.2579 H   0  0  0  0  0  0  0  0  0  0  0  0
   -4.9021    0.1563    1.3007 H   0  0  0  0  0  0  0  0  0  0  0  0
   -7.1619    1.2051    1.3503 H   0  0  0  0  0  0  0  0  0  0  0  0
   -7.1138   -0.1252    0.1742 H   0  0  0  0  0  0  0  0  0  0  0  0
   -7.0547    1.5352   -0.3950 H   0  0  0  0  0  0  0  0  0  0  0  0
   -3.5672    2.2173    0.8863 H   0  0  0  0  0  0  0  0  0  0  0  0
   -4.8877    2.9253   -0.0331 H   0  0  0  0  0  0  0  0  0  0  0  0
   -5.0778    2.6347    1.7133 H   0  0  0  0  0  0  0  0  0  0  0  0
   -2.4977   -3.5351   -0.0486 H   0  0  0  0  0  0  0  0  0  0  0  0
  1  2  1  0
  2  3  2  0
  3  4  1  0
  4  5  1  0
  5  6  2  0
  5  7  1  0
  7  8  1  0
  8  9  2  0
  9 10  1  0
 10 11  2  0
 11 12  1  0
 11 13  1  0
 13 14  2  0
 14 15  1  0
  4 16  2  0
 16 17  1  0
 17 18  1  0
 18 19  2  0
 19 20  1  0
 20 21  1  0
 21 22  1  0
 22 23  1  0
 22 24  1  0
 20 25  2  0
 25 26  1  0
 25 27  1  0
 27 28  2  0
 28 29  1  0
 17  2  1  0
 28 18  1  0
 14  8  1  0
  1 30  1  0
  1 31  1  0
  1 32  1  0
  7 33  1  0
  9 34  1  0
 10 35  1  0
 13 36  1  0
 19 37  1  0
 22 38  1  0
 23 39  1  0
 23 40  1  0
 23 41  1  0
 24 42  1  0
 24 43  1  0
 24 44  1  0
 27 45  1  0
M  END
$$$$
