
     RDKit          3D

 44 46  0  0  0  0  0  0  0  0999 V2000
    1.1118    3.0470    0.7051 C   0  0  0  0  0  0  0  0  0  0  0  0
    1.6538    1.7325    0.6443 O   0  0  0  0  0  0  0  0  0  0  0  0
    0.7629    0.7360    0.3240 C   0  0  0  0  0  0  0  0  0  0  0  0
   -0.5910    0.7754    0.6810 C   0  0  0  0  0  0  0  0  0  0  0  0
   -1.4528   -0.2669    0.3218 C   0  0  0  0  0  0  0  0  0  0  0  0
   -2.8769   -0.2630    0.6887 C   0  0  0  0  0  0  0  0  0  0  0  0
   -3.7702    0.7146    0.4297 C   0  0  0  0  0  0  0  0  0  0  0  0
   -3.4400    1.9194   -0.2601 C   0  0  0  0  0  0  0  0  0  0  0  0
   -3.1530    2.8861   -0.8363 N   0  0  0  0  0  0  0  0  0  0  0  0
   -5.1627    0.5407    0.8684 C   0  0  0  0  0  0  0  0  0  0  0  0
   -5.9765   -0.4489    0.3194 C   0  0  0  0  0  0  0  0  0  0  0  0
   -7.2884   -0.5635    0.7715 C   0  0  0  0  0  0  0  0  0  0  0  0
   -7.7475    0.3056    1.7538 C   0  0  0  0  0  0  0  0  0  0  0  0
   -6.8718    1.2583    2.2461 C   0  0  0  0  0  0  0  0  0  0  0  0
   -5.5940    1.3922    1.8274 N   0  0  0  0  0  0  0  0  0  0  0  0
   -0.9346   -1.3723   -0.3593 C   0  0  0  0  0  0  0  0  0  0  0  0
    0.4222   -1.4315   -0.6950 C   0  0  0  0  0  0  0  0  0  0  0  0
    1.2807   -0.3826   -0.3539 C   0  0  0  0  0  0  0  0  0  0  0  0
    2.6210   -0.3443   -0.6416 O   0  0  0  0  0  0  0  0  0  0  0  0
    3.1960   -1.4719   -1.2957 C   0  0  0  0  0  0  0  0  0  0  0  0
    4.6715   -1.2266   -1.5256 C   0  0  0  0  0  0  0  0  0  0  0  0
    5.1285    0.0156   -1.9931 C   0  0  0  0  0  0  0  0  0  0  0  0
    6.4872    0.2285   -2.2375 C   0  0  0  0  0  0  0  0  0  0  0  0
    7.3975   -0.8023   -2.0230 C   0  0  0  0  0  0  0  0  0  0  0  0
    9.0717   -0.5421   -2.3235 Cl  0  0  0  0  0  0  0  0  0  0  0  0
    6.9606   -2.0452   -1.5702 C   0  0  0  0  0  0  0  0  0  0  0  0
    5.6013   -2.2586   -1.3269 C   0  0  0  0  0  0  0  0  0  0  0  0
    1.9464    3.7535    0.6621 H   0  0  0  0  0  0  0  0  0  0  0  0
    0.5906    3.2064    1.6533 H   0  0  0  0  0  0  0  0  0  0  0  0
    0.4537    3.2561   -0.1452 H   0  0  0  0  0  0  0  0  0  0  0  0
   -0.9777    1.6113    1.2562 H   0  0  0  0  0  0  0  0  0  0  0  0
   -3.1970   -1.1609    1.2164 H   0  0  0  0  0  0  0  0  0  0  0  0
   -5.6067   -1.1172   -0.4519 H   0  0  0  0  0  0  0  0  0  0  0  0
   -7.9479   -1.3212    0.3579 H   0  0  0  0  0  0  0  0  0  0  0  0
   -8.7645    0.2450    2.1253 H   0  0  0  0  0  0  0  0  0  0  0  0
   -7.1835    1.9616    3.0140 H   0  0  0  0  0  0  0  0  0  0  0  0
   -1.5806   -2.2023   -0.6387 H   0  0  0  0  0  0  0  0  0  0  0  0
    0.7725   -2.3114   -1.2254 H   0  0  0  0  0  0  0  0  0  0  0  0
    3.0677   -2.3624   -0.6678 H   0  0  0  0  0  0  0  0  0  0  0  0
    2.7255   -1.6326   -2.2740 H   0  0  0  0  0  0  0  0  0  0  0  0
    4.4234    0.8286   -2.1585 H   0  0  0  0  0  0  0  0  0  0  0  0
    6.8246    1.1982   -2.5912 H   0  0  0  0  0  0  0  0  0  0  0  0
    7.6712   -2.8497   -1.4033 H   0  0  0  0  0  0  0  0  0  0  0  0
    5.2751   -3.2350   -0.9752 H   0  0  0  0  0  0  0  0  0  0  0  0
  1  2  1  0
  2  3  1  0
  3  4  2  0
  4  5  1  0
  5  6  1  0
  6  7  2  3
  7  8  1  0
  8  9  3  0
  7 10  1  0
 10 11  2  0
 11 12  1  0
 12 13  2  0
 13 14  1  0
 14 15  2  0
  5 16  2  0
 16 17  1  0
 17 18  2  0
 18 19  1  0
 19 20  1  0
 20 21  1  0
 21 22  2  0
 22 23  1  0
 23 24  2  0
 24 25  1  0
 24 26  1  0
 26 27  2  0
 18  3  1  0
 27 21  1  0
 15 10  1  0
  1 28  1  0
  1 29  1  0
  1 30  1  0
  4 31  1  0
  6 32  1  0
 11 33  1  0
 12 34  1  0
 13 35  1  0
 14 36  1  0
 16 37  1  0
 17 38  1  0
 20 39  1  0
 20 40  1  0
 22 41  1  0
 23 42  1  0
 26 43  1  0
 27 44  1  0
M  END
$$$$
