
     RDKit          3D

 40 42  0  0  0  0  0  0  0  0999 V2000
   -0.4156   -1.4590   -1.9389 C   0  0  0  0  0  0  0  0  0  0  0  0
   -1.7539   -1.0273   -1.3369 C   0  0  0  0  0  0  0  0  0  0  0  0
   -2.9030   -1.6996   -2.0914 C   0  0  0  0  0  0  0  0  0  0  0  0
   -1.8543   -1.3595    0.1644 C   0  0  0  0  0  0  0  0  0  0  0  0
   -0.9506   -0.5981    1.0041 N   0  0  0  0  0  0  0  0  0  0  0  0
    0.2169   -1.0210    1.5828 C   0  0  0  0  0  0  0  0  0  0  0  0
    0.8754   -2.6109    1.4377 S   0  0  0  0  0  0  0  0  0  0  0  0
    2.6555   -2.2359    1.5073 C   0  0  0  0  0  0  0  0  0  0  0  0
    3.1135   -1.5745    0.2142 C   0  0  0  0  0  0  0  0  0  0  0  0
    3.0087   -2.2017   -0.8458 O   0  0  0  0  0  0  0  0  0  0  0  0
    3.6772   -0.2257    0.2811 C   0  0  0  0  0  0  0  0  0  0  0  0
    3.7815    0.6674    1.3358 C   0  0  0  0  0  0  0  0  0  0  0  0
    4.3929    1.9026    0.9564 C   0  0  0  0  0  0  0  0  0  0  0  0
    4.7316    1.8988   -0.3697 C   0  0  0  0  0  0  0  0  0  0  0  0
    5.4840    3.1743   -1.2387 Cl  0  0  0  0  0  0  0  0  0  0  0  0
    4.3371    0.4602   -1.1588 S   0  0  0  0  0  0  0  0  0  0  0  0
    0.7642   -0.0426    2.2625 N   0  0  0  0  0  0  0  0  0  0  0  0
   -0.0541    1.0505    2.1466 N   0  0  0  0  0  0  0  0  0  0  0  0
   -1.0949    0.7124    1.4071 C   0  0  0  0  0  0  0  0  0  0  0  0
   -2.1720    1.6050    1.1020 C   0  0  0  0  0  0  0  0  0  0  0  0
   -2.2927    2.9392    1.4609 C   0  0  0  0  0  0  0  0  0  0  0  0
   -3.5207    3.4110    0.9395 C   0  0  0  0  0  0  0  0  0  0  0  0
   -4.0898    2.3417    0.2941 C   0  0  0  0  0  0  0  0  0  0  0  0
   -3.2882    1.2518    0.3850 O   0  0  0  0  0  0  0  0  0  0  0  0
    0.4158   -0.9104   -1.4863 H   0  0  0  0  0  0  0  0  0  0  0  0
   -0.3910   -1.2546   -3.0148 H   0  0  0  0  0  0  0  0  0  0  0  0
   -0.2408   -2.5307   -1.7969 H   0  0  0  0  0  0  0  0  0  0  0  0
   -1.8463    0.0553   -1.4837 H   0  0  0  0  0  0  0  0  0  0  0  0
   -3.8707   -1.3619   -1.7056 H   0  0  0  0  0  0  0  0  0  0  0  0
   -2.8594   -2.7897   -1.9931 H   0  0  0  0  0  0  0  0  0  0  0  0
   -2.8655   -1.4530   -3.1580 H   0  0  0  0  0  0  0  0  0  0  0  0
   -2.8674   -1.1745    0.5395 H   0  0  0  0  0  0  0  0  0  0  0  0
   -1.6788   -2.4277    0.3300 H   0  0  0  0  0  0  0  0  0  0  0  0
    3.2021   -3.1813    1.5980 H   0  0  0  0  0  0  0  0  0  0  0  0
    2.8938   -1.6552    2.3998 H   0  0  0  0  0  0  0  0  0  0  0  0
    3.4178    0.4802    2.3396 H   0  0  0  0  0  0  0  0  0  0  0  0
    4.5577    2.7403    1.6225 H   0  0  0  0  0  0  0  0  0  0  0  0
   -1.5653    3.4983    2.0352 H   0  0  0  0  0  0  0  0  0  0  0  0
   -3.9378    4.4047    1.0261 H   0  0  0  0  0  0  0  0  0  0  0  0
   -5.0128    2.2011   -0.2517 H   0  0  0  0  0  0  0  0  0  0  0  0
  1  2  1  0
  2  3  1  0
  2  4  1  0
  4  5  1  0
  5  6  1  0
  6  7  1  0
  7  8  1  0
  8  9  1  0
  9 10  2  0
  9 11  1  0
 11 12  2  0
 12 13  1  0
 13 14  2  0
 14 15  1  0
 14 16  1  0
  6 17  2  0
 17 18  1  0
 18 19  2  0
 19 20  1  0
 20 21  2  0
 21 22  1  0
 22 23  2  0
 23 24  1  0
 19  5  1  0
 24 20  1  0
 16 11  1  0
  1 25  1  0
  1 26  1  0
  1 27  1  0
  2 28  1  0
  3 29  1  0
  3 30  1  0
  3 31  1  0
  4 32  1  0
  4 33  1  0
  8 34  1  0
  8 35  1  0
 12 36  1  0
 13 37  1  0
 21 38  1  0
 22 39  1  0
 23 40  1  0
M  END
$$$$
