
     RDKit          3D

 48 50  0  0  0  0  0  0  0  0999 V2000
    8.9024   -0.0195   -0.1615 C   0  0  0  0  0  0  0  0  0  0  0  0
    7.4028    0.1118   -0.3580 C   0  0  0  0  0  0  0  0  0  0  0  0
    6.6583    0.1300    0.9724 C   0  0  0  0  0  0  0  0  0  0  0  0
    5.2512    0.3093    0.7452 O   0  0  0  0  0  0  0  0  0  0  0  0
    4.5413   -0.8256    0.5246 C   0  0  0  0  0  0  0  0  0  0  0  0
    4.9914   -1.9598    0.5011 O   0  0  0  0  0  0  0  0  0  0  0  0
    3.1040   -0.5066    0.3043 C   0  0  0  0  0  0  0  0  0  0  0  0
    2.2204   -1.5620    0.0530 C   0  0  0  0  0  0  0  0  0  0  0  0
    0.8578   -1.3161   -0.1613 C   0  0  0  0  0  0  0  0  0  0  0  0
    0.3587   -0.0134   -0.1282 C   0  0  0  0  0  0  0  0  0  0  0  0
   -0.9961    0.3205   -0.3292 N   0  0  0  0  0  0  0  0  0  0  0  0
   -2.0454   -0.5374   -0.6232 C   0  0  0  0  0  0  0  0  0  0  0  0
   -1.9626   -1.7491   -0.7842 O   0  0  0  0  0  0  0  0  0  0  0  0
   -3.3758    0.2086   -0.7342 C   0  0  0  0  0  0  0  0  0  0  0  0
   -3.8480    0.7222    0.6513 C   0  0  0  0  0  0  0  0  0  0  0  0
   -4.9265    1.7949    0.4261 C   0  0  0  0  0  0  0  0  0  0  0  0
   -6.1270    0.9740   -0.0642 C   0  0  0  0  0  0  0  0  0  0  0  0
   -5.5924   -0.4717   -0.0548 C   0  0  0  0  0  0  0  0  0  0  0  0
   -4.6861   -0.4465    1.1757 C   0  0  0  0  0  0  0  0  0  0  0  0
   -4.5536   -0.6959   -1.1784 C   0  0  0  0  0  0  0  0  0  0  0  0
   -5.0592   -0.3602   -2.5577 C   0  0  0  0  0  0  0  0  0  0  0  0
   -4.5166    0.3550   -3.3830 O   0  0  0  0  0  0  0  0  0  0  0  0
   -6.2179   -0.9812   -2.8503 O   0  0  0  0  0  0  0  0  0  0  0  0
    1.2448    1.0421    0.1250 C   0  0  0  0  0  0  0  0  0  0  0  0
    2.6073    0.8009    0.3394 C   0  0  0  0  0  0  0  0  0  0  0  0
    9.4127   -0.0278   -1.1298 H   0  0  0  0  0  0  0  0  0  0  0  0
    9.1493   -0.9495    0.3606 H   0  0  0  0  0  0  0  0  0  0  0  0
    9.2965    0.8181    0.4228 H   0  0  0  0  0  0  0  0  0  0  0  0
    7.0395   -0.7142   -0.9801 H   0  0  0  0  0  0  0  0  0  0  0  0
    7.1788    1.0292   -0.9153 H   0  0  0  0  0  0  0  0  0  0  0  0
    6.9912    0.9806    1.5773 H   0  0  0  0  0  0  0  0  0  0  0  0
    6.8514   -0.7750    1.5610 H   0  0  0  0  0  0  0  0  0  0  0  0
    2.5842   -2.5879    0.0209 H   0  0  0  0  0  0  0  0  0  0  0  0
    0.2160   -2.1712   -0.3507 H   0  0  0  0  0  0  0  0  0  0  0  0
   -1.2196    1.3067   -0.2789 H   0  0  0  0  0  0  0  0  0  0  0  0
   -3.2129    1.0479   -1.4218 H   0  0  0  0  0  0  0  0  0  0  0  0
   -3.0506    1.0446    1.3242 H   0  0  0  0  0  0  0  0  0  0  0  0
   -5.1751    2.3012    1.3657 H   0  0  0  0  0  0  0  0  0  0  0  0
   -4.6218    2.5555   -0.2996 H   0  0  0  0  0  0  0  0  0  0  0  0
   -6.4778    1.3032   -1.0462 H   0  0  0  0  0  0  0  0  0  0  0  0
   -6.9612    1.0787    0.6395 H   0  0  0  0  0  0  0  0  0  0  0  0
   -6.3833   -1.2250   -0.0327 H   0  0  0  0  0  0  0  0  0  0  0  0
   -5.2215   -0.2113    2.1019 H   0  0  0  0  0  0  0  0  0  0  0  0
   -4.1113   -1.3683    1.3120 H   0  0  0  0  0  0  0  0  0  0  0  0
   -4.2696   -1.7544   -1.2021 H   0  0  0  0  0  0  0  0  0  0  0  0
   -6.4057   -0.7194   -3.7759 H   0  0  0  0  0  0  0  0  0  0  0  0
    0.8914    2.0699    0.1583 H   0  0  0  0  0  0  0  0  0  0  0  0
    3.2662    1.6441    0.5316 H   0  0  0  0  0  0  0  0  0  0  0  0
  1  2  1  0
  2  3  1  0
  3  4  1  0
  4  5  1  0
  5  6  2  0
  5  7  1  0
  7  8  2  0
  8  9  1  0
  9 10  2  0
 10 11  1  0
 11 12  1  0
 12 13  2  0
 12 14  1  0
 14 15  1  0
 15 16  1  0
 16 17  1  0
 17 18  1  0
 18 19  1  0
 18 20  1  0
 20 21  1  0
 21 22  2  0
 21 23  1  0
 10 24  1  0
 24 25  2  0
 25  7  1  0
 20 14  1  0
 19 15  1  0
  1 26  1  0
  1 27  1  0
  1 28  1  0
  2 29  1  0
  2 30  1  0
  3 31  1  0
  3 32  1  0
  8 33  1  0
  9 34  1  0
 11 35  1  0
 14 36  1  0
 15 37  1  0
 16 38  1  0
 16 39  1  0
 17 40  1  0
 17 41  1  0
 18 42  1  0
 19 43  1  0
 19 44  1  0
 20 45  1  0
 23 46  1  0
 24 47  1  0
 25 48  1  0
M  END
$$$$
