
     RDKit          3D

 35 36  0  0  0  0  0  0  0  0999 V2000
    3.8434    2.8163   -0.5330 C   0  0  0  0  0  0  0  0  0  0  0  0
    3.7714    1.5174   -1.3164 C   0  0  0  0  0  0  0  0  0  0  0  0
    3.7104    0.3512   -0.4488 N   0  0  0  0  0  0  0  0  0  0  0  0
    4.8806   -0.2462   -0.1234 N   0  0  0  0  0  0  0  0  0  0  0  0
    4.5162   -1.2706    0.6433 C   0  0  0  0  0  0  0  0  0  0  0  0
    3.1274   -1.3311    0.7986 C   0  0  0  0  0  0  0  0  0  0  0  0
    2.2933   -2.6484    1.8404 Br  0  0  0  0  0  0  0  0  0  0  0  0
    2.5940   -0.2734    0.0828 C   0  0  0  0  0  0  0  0  0  0  0  0
    1.2283    0.1858   -0.1199 C   0  0  0  0  0  0  0  0  0  0  0  0
    0.9886    1.2871   -0.6025 O   0  0  0  0  0  0  0  0  0  0  0  0
    0.2558   -0.7194    0.2598 N   0  0  0  0  0  0  0  0  0  0  0  0
   -1.1471   -0.5799    0.1987 C   0  0  0  0  0  0  0  0  0  0  0  0
   -1.9110   -1.6675    0.6454 C   0  0  0  0  0  0  0  0  0  0  0  0
   -3.3120   -1.6212    0.6405 C   0  0  0  0  0  0  0  0  0  0  0  0
   -4.1134   -2.8040    1.0982 C   0  0  0  0  0  0  0  0  0  0  0  0
   -3.9527   -0.4785    0.1521 C   0  0  0  0  0  0  0  0  0  0  0  0
   -3.2082    0.6119   -0.3114 C   0  0  0  0  0  0  0  0  0  0  0  0
   -3.8998    1.8532   -0.7949 C   0  0  0  0  0  0  0  0  0  0  0  0
   -1.8059    0.5580   -0.2697 C   0  0  0  0  0  0  0  0  0  0  0  0
    2.9712    2.9454    0.1153 H   0  0  0  0  0  0  0  0  0  0  0  0
    3.8901    3.6693   -1.2169 H   0  0  0  0  0  0  0  0  0  0  0  0
    4.7344    2.8412    0.1035 H   0  0  0  0  0  0  0  0  0  0  0  0
    4.6656    1.4116   -1.9426 H   0  0  0  0  0  0  0  0  0  0  0  0
    2.9149    1.4962   -1.9955 H   0  0  0  0  0  0  0  0  0  0  0  0
    5.2808   -1.9192    1.0512 H   0  0  0  0  0  0  0  0  0  0  0  0
    0.5867   -1.6007    0.6284 H   0  0  0  0  0  0  0  0  0  0  0  0
   -1.4197   -2.5672    1.0092 H   0  0  0  0  0  0  0  0  0  0  0  0
   -4.2909   -3.4829    0.2585 H   0  0  0  0  0  0  0  0  0  0  0  0
   -3.5881   -3.3486    1.8898 H   0  0  0  0  0  0  0  0  0  0  0  0
   -5.0785   -2.4879    1.5080 H   0  0  0  0  0  0  0  0  0  0  0  0
   -5.0402   -0.4355    0.1324 H   0  0  0  0  0  0  0  0  0  0  0  0
   -3.3201    2.3393   -1.5866 H   0  0  0  0  0  0  0  0  0  0  0  0
   -4.0284    2.5561    0.0339 H   0  0  0  0  0  0  0  0  0  0  0  0
   -4.8837    1.6162   -1.2131 H   0  0  0  0  0  0  0  0  0  0  0  0
   -1.2533    1.4261   -0.6150 H   0  0  0  0  0  0  0  0  0  0  0  0
  1  2  1  0
  2  3  1  0
  3  4  1  0
  4  5  2  0
  5  6  1  0
  6  7  1  0
  6  8  2  0
  8  9  1  0
  9 10  2  0
  9 11  1  0
 11 12  1  0
 12 13  2  0
 13 14  1  0
 14 15  1  0
 14 16  2  0
 16 17  1  0
 17 18  1  0
 17 19  2  0
  8  3  1  0
 19 12  1  0
  1 20  1  0
  1 21  1  0
  1 22  1  0
  2 23  1  0
  2 24  1  0
  5 25  1  0
 11 26  1  0
 13 27  1  0
 15 28  1  0
 15 29  1  0
 15 30  1  0
 16 31  1  0
 18 32  1  0
 18 33  1  0
 18 34  1  0
 19 35  1  0
M  END
$$$$
