
     RDKit          3D

 55 57  0  0  0  0  0  0  0  0999 V2000
    1.5599    0.3358   -0.9007 O   0  0  0  0  0  0  0  0  0  0  0  0
    2.0158   -0.7874   -0.7132 C   0  0  0  0  0  0  0  0  0  0  0  0
    1.2325   -1.9208   -0.0344 C   0  0  0  0  0  0  0  0  0  0  0  0
   -0.0268   -1.5572    0.5189 O   0  0  0  0  0  0  0  0  0  0  0  0
    0.0518   -0.7297    1.5968 C   0  0  0  0  0  0  0  0  0  0  0  0
    1.1037   -0.4109    2.1441 O   0  0  0  0  0  0  0  0  0  0  0  0
   -1.3305   -0.3131    2.1289 C   0  0  0  0  0  0  0  0  0  0  0  0
   -1.3659    1.2101    2.3582 C   0  0  0  0  0  0  0  0  0  0  0  0
   -2.6253    1.6637    3.0643 C   0  0  0  0  0  0  0  0  0  0  0  0
   -2.7793    1.4686    4.4436 C   0  0  0  0  0  0  0  0  0  0  0  0
   -3.9556    1.8600    5.0846 C   0  0  0  0  0  0  0  0  0  0  0  0
   -4.9868    2.4484    4.3543 C   0  0  0  0  0  0  0  0  0  0  0  0
   -4.8415    2.6504    2.9832 C   0  0  0  0  0  0  0  0  0  0  0  0
   -3.6657    2.2621    2.3405 C   0  0  0  0  0  0  0  0  0  0  0  0
   -2.4925   -0.8375    1.3959 N   0  0  0  0  0  0  0  0  0  0  0  0
   -2.8293   -0.3875    0.1317 C   0  0  0  0  0  0  0  0  0  0  0  0
   -2.0911    0.3678   -0.4932 O   0  0  0  0  0  0  0  0  0  0  0  0
   -4.1232   -0.8547   -0.3539 C   0  0  0  0  0  0  0  0  0  0  0  0
   -4.9268   -1.8895    0.0961 C   0  0  0  0  0  0  0  0  0  0  0  0
   -6.1333   -2.0159   -0.6546 C   0  0  0  0  0  0  0  0  0  0  0  0
   -6.2139   -1.0800   -1.6593 C   0  0  0  0  0  0  0  0  0  0  0  0
   -4.8421   -0.0631   -1.6988 S   0  0  0  0  0  0  0  0  0  0  0  0
    3.2910   -1.1614   -1.1042 N   0  0  0  0  0  0  0  0  0  0  0  0
    4.1519   -0.2551   -1.8516 C   0  0  0  0  0  0  0  0  0  0  0  0
    5.6235   -0.6250   -1.6344 C   0  0  0  0  0  0  0  0  0  0  0  0
    6.5558    0.2665   -2.4503 C   0  0  0  0  0  0  0  0  0  0  0  0
    6.1952    0.2485   -3.9326 C   0  0  0  0  0  0  0  0  0  0  0  0
    4.7314    0.6141   -4.1592 C   0  0  0  0  0  0  0  0  0  0  0  0
    3.7951   -0.2744   -3.3442 C   0  0  0  0  0  0  0  0  0  0  0  0
    1.0339   -2.6779   -0.8014 H   0  0  0  0  0  0  0  0  0  0  0  0
    1.8560   -2.3943    0.7341 H   0  0  0  0  0  0  0  0  0  0  0  0
   -1.4000   -0.8182    3.1026 H   0  0  0  0  0  0  0  0  0  0  0  0
   -1.2521    1.7537    1.4127 H   0  0  0  0  0  0  0  0  0  0  0  0
   -0.5046    1.5207    2.9649 H   0  0  0  0  0  0  0  0  0  0  0  0
   -1.9810    1.0180    5.0293 H   0  0  0  0  0  0  0  0  0  0  0  0
   -4.0660    1.7117    6.1556 H   0  0  0  0  0  0  0  0  0  0  0  0
   -5.9009    2.7570    4.8545 H   0  0  0  0  0  0  0  0  0  0  0  0
   -5.6415    3.1155    2.4128 H   0  0  0  0  0  0  0  0  0  0  0  0
   -3.5646    2.4303    1.2692 H   0  0  0  0  0  0  0  0  0  0  0  0
   -3.2556   -1.1695    1.9672 H   0  0  0  0  0  0  0  0  0  0  0  0
   -4.6666   -2.5443    0.9181 H   0  0  0  0  0  0  0  0  0  0  0  0
   -6.8994   -2.7593   -0.4703 H   0  0  0  0  0  0  0  0  0  0  0  0
   -7.0095   -0.9454   -2.3794 H   0  0  0  0  0  0  0  0  0  0  0  0
    3.5353   -2.1426   -1.0838 H   0  0  0  0  0  0  0  0  0  0  0  0
    3.9852    0.7594   -1.4665 H   0  0  0  0  0  0  0  0  0  0  0  0
    5.8760   -0.5426   -0.5702 H   0  0  0  0  0  0  0  0  0  0  0  0
    5.7906   -1.6742   -1.9118 H   0  0  0  0  0  0  0  0  0  0  0  0
    6.4995    1.2950   -2.0731 H   0  0  0  0  0  0  0  0  0  0  0  0
    7.5917   -0.0656   -2.3189 H   0  0  0  0  0  0  0  0  0  0  0  0
    6.8388    0.9482   -4.4774 H   0  0  0  0  0  0  0  0  0  0  0  0
    6.3892   -0.7502   -4.3429 H   0  0  0  0  0  0  0  0  0  0  0  0
    4.5703    1.6633   -3.8824 H   0  0  0  0  0  0  0  0  0  0  0  0
    4.4900    0.5244   -5.2243 H   0  0  0  0  0  0  0  0  0  0  0  0
    3.8467   -1.3030   -3.7248 H   0  0  0  0  0  0  0  0  0  0  0  0
    2.7604    0.0574   -3.4919 H   0  0  0  0  0  0  0  0  0  0  0  0
  1  2  2  0
  2  3  1  0
  3  4  1  0
  4  5  1  0
  5  6  2  0
  5  7  1  0
  7  8  1  0
  8  9  1  0
  9 10  2  0
 10 11  1  0
 11 12  2  0
 12 13  1  0
 13 14  2  0
  7 15  1  0
 15 16  1  0
 16 17  2  0
 16 18  1  0
 18 19  2  0
 19 20  1  0
 20 21  2  0
 21 22  1  0
  2 23  1  0
 23 24  1  0
 24 25  1  0
 25 26  1  0
 26 27  1  0
 27 28  1  0
 28 29  1  0
 14  9  1  0
 22 18  1  0
 29 24  1  0
  3 30  1  0
  3 31  1  0
  7 32  1  0
  8 33  1  0
  8 34  1  0
 10 35  1  0
 11 36  1  0
 12 37  1  0
 13 38  1  0
 14 39  1  0
 15 40  1  0
 19 41  1  0
 20 42  1  0
 21 43  1  0
 23 44  1  0
 24 45  1  0
 25 46  1  0
 25 47  1  0
 26 48  1  0
 26 49  1  0
 27 50  1  0
 27 51  1  0
 28 52  1  0
 28 53  1  0
 29 54  1  0
 29 55  1  0
M  END
$$$$
