
     RDKit          3D

 51 54  0  0  0  0  0  0  0  0999 V2000
    3.4943    2.5807    4.5885 C   0  0  0  0  0  0  0  0  0  0  0  0
    2.7029    2.2997    3.3242 C   0  0  0  0  0  0  0  0  0  0  0  0
    1.6635    1.3711    3.6505 O   0  0  0  0  0  0  0  0  0  0  0  0
    0.7816    1.2614    2.6039 C   0  0  0  0  0  0  0  0  0  0  0  0
    0.9703    0.2092    1.7044 C   0  0  0  0  0  0  0  0  0  0  0  0
    0.0893    0.0266    0.6292 C   0  0  0  0  0  0  0  0  0  0  0  0
    0.3214   -1.1414   -0.3303 C   0  0  0  0  0  0  0  0  0  0  0  0
   -0.6240   -2.3003   -0.0013 C   0  0  0  0  0  0  0  0  0  0  0  0
    0.0591   -3.6586   -0.0172 C   0  0  0  0  0  0  0  0  0  0  0  0
    1.2679   -3.7924    0.1604 O   0  0  0  0  0  0  0  0  0  0  0  0
   -0.8448   -4.8654   -0.2389 C   0  0  0  0  0  0  0  0  0  0  0  0
   -2.2735   -4.5632    0.2209 C   0  0  0  0  0  0  0  0  0  0  0  0
   -2.8965   -3.3812   -0.5295 C   0  0  0  0  0  0  0  0  0  0  0  0
   -1.8227   -2.3858   -0.9266 C   0  0  0  0  0  0  0  0  0  0  0  0
   -1.9580   -1.7549   -2.0499 N   0  0  0  0  0  0  0  0  0  0  0  0
   -0.9294   -0.9883   -2.4781 C   0  0  0  0  0  0  0  0  0  0  0  0
   -0.7649   -0.3907   -3.6350 N   0  0  0  0  0  0  0  0  0  0  0  0
    0.4787    0.2215   -3.5461 C   0  0  0  0  0  0  0  0  0  0  0  0
    1.0730    1.0194   -4.6371 C   0  0  0  0  0  0  0  0  0  0  0  0
    2.1730    1.5640   -4.5794 O   0  0  0  0  0  0  0  0  0  0  0  0
    0.2527    1.0933   -5.7327 O   0  0  0  0  0  0  0  0  0  0  0  0
    0.7783    1.8733   -6.8039 C   0  0  0  0  0  0  0  0  0  0  0  0
    1.0861    0.0159   -2.3590 N   0  0  0  0  0  0  0  0  0  0  0  0
    0.1676   -0.7161   -1.7105 N   0  0  0  0  0  0  0  0  0  0  0  0
   -1.0010    0.9041    0.5083 C   0  0  0  0  0  0  0  0  0  0  0  0
   -1.1933    1.9476    1.4241 C   0  0  0  0  0  0  0  0  0  0  0  0
   -0.3055    2.1352    2.4840 C   0  0  0  0  0  0  0  0  0  0  0  0
   -0.4055    3.1148    3.4350 O   0  0  0  0  0  0  0  0  0  0  0  0
   -1.4707    4.0468    3.3037 C   0  0  0  0  0  0  0  0  0  0  0  0
    4.3337    3.2536    4.3826 H   0  0  0  0  0  0  0  0  0  0  0  0
    2.8528    3.0411    5.3471 H   0  0  0  0  0  0  0  0  0  0  0  0
    3.8812    1.6509    5.0184 H   0  0  0  0  0  0  0  0  0  0  0  0
    3.3638    1.8571    2.5678 H   0  0  0  0  0  0  0  0  0  0  0  0
    2.2968    3.2426    2.9358 H   0  0  0  0  0  0  0  0  0  0  0  0
    1.8166   -0.4582    1.8518 H   0  0  0  0  0  0  0  0  0  0  0  0
    1.3732   -1.4433   -0.2473 H   0  0  0  0  0  0  0  0  0  0  0  0
   -1.0078   -2.1939    1.0240 H   0  0  0  0  0  0  0  0  0  0  0  0
   -0.4454   -5.7084    0.3349 H   0  0  0  0  0  0  0  0  0  0  0  0
   -0.8231   -5.1220   -1.3036 H   0  0  0  0  0  0  0  0  0  0  0  0
   -2.9056   -5.4503    0.0989 H   0  0  0  0  0  0  0  0  0  0  0  0
   -2.2615   -4.3343    1.2945 H   0  0  0  0  0  0  0  0  0  0  0  0
   -3.3960   -3.7389   -1.4373 H   0  0  0  0  0  0  0  0  0  0  0  0
   -3.6432   -2.8774    0.0932 H   0  0  0  0  0  0  0  0  0  0  0  0
    0.9209    2.9116   -6.4870 H   0  0  0  0  0  0  0  0  0  0  0  0
    1.7180    1.4452   -7.1680 H   0  0  0  0  0  0  0  0  0  0  0  0
    0.0518    1.8586   -7.6219 H   0  0  0  0  0  0  0  0  0  0  0  0
   -1.7204    0.8022   -0.3030 H   0  0  0  0  0  0  0  0  0  0  0  0
   -2.0496    2.5963    1.2774 H   0  0  0  0  0  0  0  0  0  0  0  0
   -1.3873    4.7678    4.1227 H   0  0  0  0  0  0  0  0  0  0  0  0
   -1.3962    4.6031    2.3631 H   0  0  0  0  0  0  0  0  0  0  0  0
   -2.4426    3.5501    3.3948 H   0  0  0  0  0  0  0  0  0  0  0  0
  1  2  1  0
  2  3  1  0
  3  4  1  0
  4  5  2  0
  5  6  1  0
  6  7  1  0
  7  8  1  0
  8  9  1  0
  9 10  2  0
  9 11  1  0
 11 12  1  0
 12 13  1  0
 13 14  1  0
 14 15  2  0
 15 16  1  0
 16 17  2  0
 17 18  1  0
 18 19  1  0
 19 20  2  0
 19 21  1  0
 21 22  1  0
 18 23  2  0
 23 24  1  0
  6 25  2  0
 25 26  1  0
 26 27  2  0
 27 28  1  0
 28 29  1  0
 27  4  1  0
 24  7  1  0
 14  8  1  0
 24 16  1  0
  1 30  1  0
  1 31  1  0
  1 32  1  0
  2 33  1  0
  2 34  1  0
  5 35  1  0
  7 36  1  0
  8 37  1  0
 11 38  1  0
 11 39  1  0
 12 40  1  0
 12 41  1  0
 13 42  1  0
 13 43  1  0
 22 44  1  0
 22 45  1  0
 22 46  1  0
 25 47  1  0
 26 48  1  0
 29 49  1  0
 29 50  1  0
 29 51  1  0
M  END
$$$$
