
     RDKit          3D

 36 37  0  0  0  0  0  0  0  0999 V2000
    3.6122    0.6298   -2.5294 C   0  0  0  0  0  0  0  0  0  0  0  0
    2.7560    0.6283   -1.3714 N   0  0  0  0  0  0  0  0  0  0  0  0
    3.2758    0.7786   -0.1012 C   0  0  0  0  0  0  0  0  0  0  0  0
    4.4497    1.0636    0.1190 O   0  0  0  0  0  0  0  0  0  0  0  0
    2.2447    0.6462    1.0215 C   0  0  0  0  0  0  0  0  0  0  0  0
    1.0764   -0.1009    0.6597 O   0  0  0  0  0  0  0  0  0  0  0  0
    1.2049   -1.4481    0.7572 C   0  0  0  0  0  0  0  0  0  0  0  0
    2.2270   -2.0276    1.0871 O   0  0  0  0  0  0  0  0  0  0  0  0
   -0.0517   -2.1579    0.3626 C   0  0  0  0  0  0  0  0  0  0  0  0
    0.0870   -3.5482    0.1747 C   0  0  0  0  0  0  0  0  0  0  0  0
   -1.0003   -4.3339   -0.1984 C   0  0  0  0  0  0  0  0  0  0  0  0
   -2.2403   -3.7396   -0.3859 C   0  0  0  0  0  0  0  0  0  0  0  0
   -2.3970   -2.3626   -0.1986 C   0  0  0  0  0  0  0  0  0  0  0  0
   -1.3176   -1.5494    0.1782 C   0  0  0  0  0  0  0  0  0  0  0  0
   -1.4794   -0.1591    0.3782 N   0  0  0  0  0  0  0  0  0  0  0  0
   -2.6085    0.6294    0.2515 C   0  0  0  0  0  0  0  0  0  0  0  0
   -3.7249    0.2330   -0.0634 O   0  0  0  0  0  0  0  0  0  0  0  0
   -2.3390    2.0296    0.5322 C   0  0  0  0  0  0  0  0  0  0  0  0
   -3.1684    3.1351    0.5305 C   0  0  0  0  0  0  0  0  0  0  0  0
   -2.3661    4.2486    0.8759 C   0  0  0  0  0  0  0  0  0  0  0  0
   -1.0955    3.7606    1.0676 C   0  0  0  0  0  0  0  0  0  0  0  0
   -1.0638    2.4184    0.8628 O   0  0  0  0  0  0  0  0  0  0  0  0
    4.1094   -0.3414   -2.5975 H   0  0  0  0  0  0  0  0  0  0  0  0
    4.3644    1.4187   -2.4454 H   0  0  0  0  0  0  0  0  0  0  0  0
    2.9966    0.7938   -3.4167 H   0  0  0  0  0  0  0  0  0  0  0  0
    1.8257    0.2387   -1.4563 H   0  0  0  0  0  0  0  0  0  0  0  0
    1.9128    1.6572    1.2802 H   0  0  0  0  0  0  0  0  0  0  0  0
    2.7238    0.2184    1.9097 H   0  0  0  0  0  0  0  0  0  0  0  0
    1.0536   -4.0302    0.3196 H   0  0  0  0  0  0  0  0  0  0  0  0
   -0.8788   -5.4051   -0.3398 H   0  0  0  0  0  0  0  0  0  0  0  0
   -3.0969   -4.3444   -0.6759 H   0  0  0  0  0  0  0  0  0  0  0  0
   -3.3925   -1.9576   -0.3551 H   0  0  0  0  0  0  0  0  0  0  0  0
   -0.6443    0.3570    0.6490 H   0  0  0  0  0  0  0  0  0  0  0  0
   -4.2266    3.1241    0.3045 H   0  0  0  0  0  0  0  0  0  0  0  0
   -2.6755    5.2801    0.9730 H   0  0  0  0  0  0  0  0  0  0  0  0
   -0.1530    4.2168    1.3387 H   0  0  0  0  0  0  0  0  0  0  0  0
  1  2  1  0
  2  3  1  0
  3  4  2  0
  3  5  1  0
  5  6  1  0
  6  7  1  0
  7  8  2  0
  7  9  1  0
  9 10  2  0
 10 11  1  0
 11 12  2  0
 12 13  1  0
 13 14  2  0
 14 15  1  0
 15 16  1  0
 16 17  2  0
 16 18  1  0
 18 19  2  0
 19 20  1  0
 20 21  2  0
 21 22  1  0
 14  9  1  0
 22 18  1  0
  1 23  1  0
  1 24  1  0
  1 25  1  0
  2 26  1  0
  5 27  1  0
  5 28  1  0
 10 29  1  0
 11 30  1  0
 12 31  1  0
 13 32  1  0
 15 33  1  0
 19 34  1  0
 20 35  1  0
 21 36  1  0
M  END
$$$$
