
     RDKit          3D

 56 61  0  0  0  0  0  0  0  0999 V2000
    3.4219   -2.3865   -3.8362 C   0  0  0  0  0  0  0  0  0  0  0  0
    2.5490   -1.5704   -3.0660 O   0  0  0  0  0  0  0  0  0  0  0  0
    2.8074   -1.4771   -1.7265 C   0  0  0  0  0  0  0  0  0  0  0  0
    3.8706   -2.0750   -1.0528 C   0  0  0  0  0  0  0  0  0  0  0  0
    4.0165   -1.8962    0.3244 C   0  0  0  0  0  0  0  0  0  0  0  0
    3.1022   -1.1178    1.0348 C   0  0  0  0  0  0  0  0  0  0  0  0
    2.0230   -0.5020    0.3784 C   0  0  0  0  0  0  0  0  0  0  0  0
    1.0281    0.3472    1.1686 C   0  0  0  0  0  0  0  0  0  0  0  0
   -0.1918   -0.4999    1.2684 C   0  0  0  0  0  0  0  0  0  0  0  0
   -0.5122   -1.6976    1.9295 C   0  0  0  0  0  0  0  0  0  0  0  0
    0.3538   -2.5555    2.7739 C   0  0  0  0  0  0  0  0  0  0  0  0
   -1.7853   -2.0449    1.7187 N   0  0  0  0  0  0  0  0  0  0  0  0
   -2.3055   -1.0710    0.9068 N   0  0  0  0  0  0  0  0  0  0  0  0
   -3.6655   -1.1672    0.4733 C   0  0  0  0  0  0  0  0  0  0  0  0
   -4.2483   -0.2098   -0.3694 C   0  0  0  0  0  0  0  0  0  0  0  0
   -5.5833   -0.3375   -0.7747 C   0  0  0  0  0  0  0  0  0  0  0  0
   -6.3422   -1.4288   -0.3371 C   0  0  0  0  0  0  0  0  0  0  0  0
   -7.7410   -1.5626   -0.7614 N   0  0  0  0  0  4  0  0  0  0  0  0
   -8.3771   -2.5445   -0.3511 O   0  0  0  0  0  0  0  0  0  0  0  0
   -8.2066   -0.6866   -1.5044 O   0  0  0  0  0  1  0  0  0  0  0  0
   -5.7757   -2.3938    0.5020 C   0  0  0  0  0  0  0  0  0  0  0  0
   -4.4422   -2.2603    0.9029 C   0  0  0  0  0  0  0  0  0  0  0  0
   -1.3492   -0.0940    0.6455 C   0  0  0  0  0  0  0  0  0  0  0  0
   -1.5118    1.0445   -0.0734 N   0  0  0  0  0  0  0  0  0  0  0  0
   -0.4784    1.8494   -0.1022 C   0  0  0  0  0  0  0  0  0  0  0  0
   -0.7094    3.1476   -0.9132 C   0  0  0  0  0  0  0  0  0  0  0  0
   -1.7402    3.3486   -1.5405 O   0  0  0  0  0  0  0  0  0  0  0  0
    0.3092    4.0619   -0.8800 N   0  0  0  0  0  0  0  0  0  0  0  0
    1.5057    3.8710   -0.1843 C   0  0  0  0  0  0  0  0  0  0  0  0
    2.4453    4.9087   -0.2180 C   0  0  0  0  0  0  0  0  0  0  0  0
    3.6511    4.7769    0.4609 C   0  0  0  0  0  0  0  0  0  0  0  0
    3.9122    3.6121    1.1711 C   0  0  0  0  0  0  0  0  0  0  0  0
    2.9703    2.5757    1.2003 C   0  0  0  0  0  0  0  0  0  0  0  0
    1.7448    2.6704    0.5191 C   0  0  0  0  0  0  0  0  0  0  0  0
    0.7713    1.6505    0.5162 N   0  0  0  0  0  0  0  0  0  0  0  0
    1.8936   -0.6976   -1.0104 C   0  0  0  0  0  0  0  0  0  0  0  0
    4.4427   -1.9905   -3.8262 H   0  0  0  0  0  0  0  0  0  0  0  0
    3.3971   -3.4260   -3.4927 H   0  0  0  0  0  0  0  0  0  0  0  0
    3.0686   -2.3697   -4.8717 H   0  0  0  0  0  0  0  0  0  0  0  0
    4.6028   -2.6866   -1.5692 H   0  0  0  0  0  0  0  0  0  0  0  0
    4.8476   -2.3679    0.8435 H   0  0  0  0  0  0  0  0  0  0  0  0
    3.2409   -0.9980    2.1073 H   0  0  0  0  0  0  0  0  0  0  0  0
    1.3880    0.5187    2.1915 H   0  0  0  0  0  0  0  0  0  0  0  0
   -0.2404   -3.1691    3.4592 H   0  0  0  0  0  0  0  0  0  0  0  0
    1.0330   -1.9470    3.3792 H   0  0  0  0  0  0  0  0  0  0  0  0
    0.9509   -3.2255    2.1475 H   0  0  0  0  0  0  0  0  0  0  0  0
   -3.6974    0.6513   -0.7378 H   0  0  0  0  0  0  0  0  0  0  0  0
   -6.0071    0.4220   -1.4295 H   0  0  0  0  0  0  0  0  0  0  0  0
   -6.3490   -3.2497    0.8517 H   0  0  0  0  0  0  0  0  0  0  0  0
   -4.0191   -3.0231    1.5559 H   0  0  0  0  0  0  0  0  0  0  0  0
    0.1443    4.9127   -1.3997 H   0  0  0  0  0  0  0  0  0  0  0  0
    2.2462    5.8238   -0.7694 H   0  0  0  0  0  0  0  0  0  0  0  0
    4.3835    5.5798    0.4371 H   0  0  0  0  0  0  0  0  0  0  0  0
    4.8533    3.5033    1.7057 H   0  0  0  0  0  0  0  0  0  0  0  0
    3.2385    1.6975    1.7772 H   0  0  0  0  0  0  0  0  0  0  0  0
    1.0654   -0.2437   -1.5526 H   0  0  0  0  0  0  0  0  0  0  0  0
  1  2  1  0
  2  3  1  0
  3  4  2  0
  4  5  1  0
  5  6  2  0
  6  7  1  0
  7  8  1  0
  8  9  1  0
  9 10  1  0
 10 11  1  0
 10 12  2  0
 12 13  1  0
 13 14  1  0
 14 15  2  0
 15 16  1  0
 16 17  2  0
 17 18  1  0
 18 19  2  0
 18 20  1  0
 17 21  1  0
 21 22  2  0
 13 23  1  0
 23 24  1  0
 24 25  2  0
 25 26  1  0
 26 27  2  0
 26 28  1  0
 28 29  1  0
 29 30  2  0
 30 31  1  0
 31 32  2  0
 32 33  1  0
 33 34  2  0
 34 35  1  0
  7 36  2  0
 36  3  1  0
 35  8  1  0
 23  9  2  0
 35 25  1  0
 22 14  1  0
 34 29  1  0
  1 37  1  0
  1 38  1  0
  1 39  1  0
  4 40  1  0
  5 41  1  0
  6 42  1  0
  8 43  1  0
 11 44  1  0
 11 45  1  0
 11 46  1  0
 15 47  1  0
 16 48  1  0
 21 49  1  0
 22 50  1  0
 28 51  1  0
 30 52  1  0
 31 53  1  0
 32 54  1  0
 33 55  1  0
 36 56  1  0
M  CHG  2  18   1  20  -1
M  END
$$$$
