
     RDKit          3D

 52 55  0  0  0  0  0  0  0  0999 V2000
   -5.7449   -5.2825   -1.6130 C   0  0  0  0  0  0  0  0  0  0  0  0
   -5.9147   -4.1137   -0.8212 O   0  0  0  0  0  0  0  0  0  0  0  0
   -4.9573   -3.1437   -0.9386 C   0  0  0  0  0  0  0  0  0  0  0  0
   -5.1488   -2.0311   -0.1161 C   0  0  0  0  0  0  0  0  0  0  0  0
   -4.2483   -0.9626   -0.1378 C   0  0  0  0  0  0  0  0  0  0  0  0
   -3.1386   -1.0005   -0.9847 C   0  0  0  0  0  0  0  0  0  0  0  0
   -2.2037    0.1239   -1.0504 C   0  0  0  0  0  0  0  0  0  0  0  0
   -1.2595    0.4355   -0.1490 C   0  0  0  0  0  0  0  0  0  0  0  0
   -0.2307    1.8037   -0.3684 S   0  0  0  0  0  0  0  0  0  0  0  0
    0.7967    1.3285    0.9708 C   0  0  0  0  0  0  0  0  0  0  0  0
    2.0411    1.8380    1.1119 C   0  0  0  0  0  0  0  0  0  0  0  0
    3.0443    1.3554    1.9921 C   0  0  0  0  0  0  0  0  0  0  0  0
    3.9051    0.9645    2.6654 N   0  0  0  0  0  0  0  0  0  0  0  0
    2.4854    2.9466    0.2306 C   0  0  0  0  0  0  0  0  0  0  0  0
    2.2215    4.1118    0.5026 O   0  0  0  0  0  0  0  0  0  0  0  0
    3.2026    2.5483   -0.8685 N   0  0  0  0  0  0  0  0  0  0  0  0
    3.7839    3.5202   -1.7665 C   0  0  0  0  0  0  0  0  0  0  0  0
    4.1154    2.8385   -3.0397 C   0  0  0  0  0  0  0  0  0  0  0  0
    3.6947    3.0041   -4.3430 C   0  0  0  0  0  0  0  0  0  0  0  0
    4.3808    2.0312   -5.1105 C   0  0  0  0  0  0  0  0  0  0  0  0
    5.1739    1.3345   -4.2289 C   0  0  0  0  0  0  0  0  0  0  0  0
    5.0162    1.8128   -2.9678 O   0  0  0  0  0  0  0  0  0  0  0  0
    0.1962    0.3089    1.7172 N   0  0  0  0  0  0  0  0  0  0  0  0
    0.5202   -0.0567    3.0642 C   0  0  0  0  0  0  0  0  0  0  0  0
    0.7942    0.9308    4.0249 C   0  0  0  0  0  0  0  0  0  0  0  0
    1.0954    0.5798    5.3439 C   0  0  0  0  0  0  0  0  0  0  0  0
    1.1128   -0.7598    5.7228 C   0  0  0  0  0  0  0  0  0  0  0  0
    0.8190   -1.7486    4.7874 C   0  0  0  0  0  0  0  0  0  0  0  0
    0.5176   -1.3989    3.4683 C   0  0  0  0  0  0  0  0  0  0  0  0
   -0.9431   -0.2765    1.1238 C   0  0  0  0  0  0  0  0  0  0  0  0
   -1.6184   -1.1959    1.5648 O   0  0  0  0  0  0  0  0  0  0  0  0
   -2.9461   -2.1120   -1.8115 C   0  0  0  0  0  0  0  0  0  0  0  0
   -3.8504   -3.1809   -1.7870 C   0  0  0  0  0  0  0  0  0  0  0  0
   -5.7745   -5.0428   -2.6815 H   0  0  0  0  0  0  0  0  0  0  0  0
   -6.5807   -5.9558   -1.4010 H   0  0  0  0  0  0  0  0  0  0  0  0
   -4.8202   -5.8056   -1.3491 H   0  0  0  0  0  0  0  0  0  0  0  0
   -6.0054   -1.9970    0.5530 H   0  0  0  0  0  0  0  0  0  0  0  0
   -4.4194   -0.1120    0.5175 H   0  0  0  0  0  0  0  0  0  0  0  0
   -2.3216    0.7307   -1.9464 H   0  0  0  0  0  0  0  0  0  0  0  0
    3.5085    1.5883   -0.9799 H   0  0  0  0  0  0  0  0  0  0  0  0
    4.6860    3.9233   -1.2942 H   0  0  0  0  0  0  0  0  0  0  0  0
    3.0797    4.3437   -1.9253 H   0  0  0  0  0  0  0  0  0  0  0  0
    2.9824    3.7382   -4.6947 H   0  0  0  0  0  0  0  0  0  0  0  0
    4.3094    1.8602   -6.1754 H   0  0  0  0  0  0  0  0  0  0  0  0
    5.8705    0.5138   -4.3345 H   0  0  0  0  0  0  0  0  0  0  0  0
    0.7458    1.9884    3.7772 H   0  0  0  0  0  0  0  0  0  0  0  0
    1.3096    1.3537    6.0771 H   0  0  0  0  0  0  0  0  0  0  0  0
    1.3478   -1.0332    6.7484 H   0  0  0  0  0  0  0  0  0  0  0  0
    0.8217   -2.7952    5.0822 H   0  0  0  0  0  0  0  0  0  0  0  0
    0.2979   -2.1959    2.7609 H   0  0  0  0  0  0  0  0  0  0  0  0
   -2.0893   -2.1600   -2.4796 H   0  0  0  0  0  0  0  0  0  0  0  0
   -3.6606   -4.0239   -2.4426 H   0  0  0  0  0  0  0  0  0  0  0  0
  1  2  1  0
  2  3  1  0
  3  4  2  0
  4  5  1  0
  5  6  2  0
  6  7  1  0
  7  8  2  3
  8  9  1  0
  9 10  1  0
 10 11  2  3
 11 12  1  0
 12 13  3  0
 11 14  1  0
 14 15  2  0
 14 16  1  0
 16 17  1  0
 17 18  1  0
 18 19  2  0
 19 20  1  0
 20 21  2  0
 21 22  1  0
 10 23  1  0
 23 24  1  0
 24 25  2  0
 25 26  1  0
 26 27  2  0
 27 28  1  0
 28 29  2  0
 23 30  1  0
 30 31  2  0
  6 32  1  0
 32 33  2  0
 33  3  1  0
 30  8  1  0
 22 18  1  0
 29 24  1  0
  1 34  1  0
  1 35  1  0
  1 36  1  0
  4 37  1  0
  5 38  1  0
  7 39  1  0
 16 40  1  0
 17 41  1  0
 17 42  1  0
 19 43  1  0
 20 44  1  0
 21 45  1  0
 25 46  1  0
 26 47  1  0
 27 48  1  0
 28 49  1  0
 29 50  1  0
 32 51  1  0
 33 52  1  0
M  END
$$$$
