
     RDKit          3D

 56 59  0  0  0  0  0  0  0  0999 V2000
    1.6359    0.3923   -3.0453 C   0  0  0  0  0  0  0  0  0  0  0  0
    0.4304    0.9394   -2.5238 O   0  0  0  0  0  0  0  0  0  0  0  0
   -0.6993    0.1664   -2.5921 C   0  0  0  0  0  0  0  0  0  0  0  0
   -0.7632   -1.0937   -3.1952 C   0  0  0  0  0  0  0  0  0  0  0  0
   -1.9574   -1.8245   -3.1977 C   0  0  0  0  0  0  0  0  0  0  0  0
   -3.1048   -1.2994   -2.5993 C   0  0  0  0  0  0  0  0  0  0  0  0
   -4.3987   -2.0406   -2.5776 C   0  0  0  0  0  0  0  0  0  0  0  0
   -4.3981   -3.5140   -2.8902 C   0  0  0  0  0  0  0  0  0  0  0  0
   -5.4418   -1.4429   -2.3208 O   0  0  0  0  0  0  0  0  0  0  0  0
   -3.0492   -0.0336   -2.0060 C   0  0  0  0  0  0  0  0  0  0  0  0
   -1.8529    0.7076   -1.9917 C   0  0  0  0  0  0  0  0  0  0  0  0
   -1.8272    2.0455   -1.2907 C   0  0  0  0  0  0  0  0  0  0  0  0
   -1.7451    1.9431    0.5235 S   0  0  0  0  0  0  0  0  0  0  0  0
   -0.3365    0.9184    0.6915 C   0  0  0  0  0  0  0  0  0  0  0  0
   -0.5821   -0.3479    0.7858 N   0  0  0  0  0  0  0  0  0  0  0  0
    0.4872   -1.2369    0.8605 C   0  0  0  0  0  0  0  0  0  0  0  0
    0.2207   -2.6052    0.9487 C   0  0  0  0  0  0  0  0  0  0  0  0
    1.2692   -3.5330    0.9999 C   0  0  0  0  0  0  0  0  0  0  0  0
    0.9270   -4.9730    1.0794 C   0  0  0  0  0  0  0  0  0  0  0  0
   -0.1937   -5.4442    1.0380 O   0  0  0  0  0  0  0  0  0  0  0  0
    2.0115   -5.7574    1.2048 O   0  0  0  0  0  0  0  0  0  0  0  0
    2.5960   -3.0849    0.9635 C   0  0  0  0  0  0  0  0  0  0  0  0
    2.8664   -1.7183    0.8704 C   0  0  0  0  0  0  0  0  0  0  0  0
    1.8069   -0.8049    0.8170 C   0  0  0  0  0  0  0  0  0  0  0  0
    2.0484    0.6432    0.7011 C   0  0  0  0  0  0  0  0  0  0  0  0
    3.2095    1.0325    0.5872 O   0  0  0  0  0  0  0  0  0  0  0  0
    0.9312    1.4751    0.7020 N   0  0  0  0  0  0  0  0  0  0  0  0
    1.1982    2.9166    0.6977 C   0  0  0  0  0  0  0  0  0  0  0  0
    1.2698    3.4979    2.0963 C   0  0  0  0  0  0  0  0  0  0  0  0
    0.1995    4.2315    2.6282 C   0  0  0  0  0  0  0  0  0  0  0  0
    0.2671    4.7542    3.9215 C   0  0  0  0  0  0  0  0  0  0  0  0
    1.4057    4.5534    4.6980 C   0  0  0  0  0  0  0  0  0  0  0  0
    2.4787    3.8316    4.1817 C   0  0  0  0  0  0  0  0  0  0  0  0
    2.4121    3.3078    2.8894 C   0  0  0  0  0  0  0  0  0  0  0  0
    1.9072   -0.5341   -2.5285 H   0  0  0  0  0  0  0  0  0  0  0  0
    2.4352    1.1181   -2.8672 H   0  0  0  0  0  0  0  0  0  0  0  0
    1.5606    0.2367   -4.1263 H   0  0  0  0  0  0  0  0  0  0  0  0
    0.1020   -1.5427   -3.6724 H   0  0  0  0  0  0  0  0  0  0  0  0
   -1.9654   -2.7978   -3.6798 H   0  0  0  0  0  0  0  0  0  0  0  0
   -3.6020   -4.0246   -2.3417 H   0  0  0  0  0  0  0  0  0  0  0  0
   -4.2872   -3.6673   -3.9664 H   0  0  0  0  0  0  0  0  0  0  0  0
   -5.3496   -3.9485   -2.5685 H   0  0  0  0  0  0  0  0  0  0  0  0
   -3.9412    0.3738   -1.5298 H   0  0  0  0  0  0  0  0  0  0  0  0
   -1.0039    2.6703   -1.6512 H   0  0  0  0  0  0  0  0  0  0  0  0
   -2.7393    2.5963   -1.5502 H   0  0  0  0  0  0  0  0  0  0  0  0
   -0.8144   -2.9415    0.9738 H   0  0  0  0  0  0  0  0  0  0  0  0
    1.6412   -6.6638    1.2602 H   0  0  0  0  0  0  0  0  0  0  0  0
    3.4236   -3.7898    1.0038 H   0  0  0  0  0  0  0  0  0  0  0  0
    3.8966   -1.3695    0.8395 H   0  0  0  0  0  0  0  0  0  0  0  0
    0.4471    3.4515    0.1097 H   0  0  0  0  0  0  0  0  0  0  0  0
    2.1486    3.1215    0.1885 H   0  0  0  0  0  0  0  0  0  0  0  0
   -0.7002    4.4062    2.0429 H   0  0  0  0  0  0  0  0  0  0  0  0
   -0.5716    5.3173    4.3232 H   0  0  0  0  0  0  0  0  0  0  0  0
    1.4567    4.9595    5.7047 H   0  0  0  0  0  0  0  0  0  0  0  0
    3.3695    3.6751    4.7845 H   0  0  0  0  0  0  0  0  0  0  0  0
    3.2647    2.7514    2.5041 H   0  0  0  0  0  0  0  0  0  0  0  0
  1  2  1  0
  2  3  1  0
  3  4  2  0
  4  5  1  0
  5  6  2  0
  6  7  1  0
  7  8  1  0
  7  9  2  0
  6 10  1  0
 10 11  2  0
 11 12  1  0
 12 13  1  0
 13 14  1  0
 14 15  2  0
 15 16  1  0
 16 17  2  0
 17 18  1  0
 18 19  1  0
 19 20  2  0
 19 21  1  0
 18 22  2  0
 22 23  1  0
 23 24  2  0
 24 25  1  0
 25 26  2  0
 25 27  1  0
 27 28  1  0
 28 29  1  0
 29 30  2  0
 30 31  1  0
 31 32  2  0
 32 33  1  0
 33 34  2  0
 11  3  1  0
 27 14  1  0
 34 29  1  0
 24 16  1  0
  1 35  1  0
  1 36  1  0
  1 37  1  0
  4 38  1  0
  5 39  1  0
  8 40  1  0
  8 41  1  0
  8 42  1  0
 10 43  1  0
 12 44  1  0
 12 45  1  0
 17 46  1  0
 21 47  1  0
 22 48  1  0
 23 49  1  0
 28 50  1  0
 28 51  1  0
 30 52  1  0
 31 53  1  0
 32 54  1  0
 33 55  1  0
 34 56  1  0
M  END
$$$$
