
     RDKit          3D

 42 44  0  0  0  0  0  0  0  0999 V2000
   -1.7439    1.7708    4.6418 C   0  0  0  0  0  0  0  0  0  0  0  0
   -3.2625    1.7541    4.7073 C   0  0  0  0  0  0  0  0  0  0  0  0
   -3.9324    0.8766    3.6445 C   0  0  0  0  0  0  0  0  0  0  0  0
   -4.0042    1.4949    2.2416 C   0  0  0  0  0  0  0  0  0  0  0  0
   -2.7152    1.4948    1.4582 C   0  0  0  0  0  0  0  0  0  0  0  0
   -2.0567    0.2979    1.1556 C   0  0  0  0  0  0  0  0  0  0  0  0
   -0.8691    0.3062    0.4168 C   0  0  0  0  0  0  0  0  0  0  0  0
   -0.3130    1.5083   -0.0412 C   0  0  0  0  0  0  0  0  0  0  0  0
    0.9304    1.4772   -0.8078 C   0  0  0  0  0  0  0  0  0  0  0  0
    1.7820    2.5485   -0.9672 C   0  0  0  0  0  0  0  0  0  0  0  0
    3.1239    2.1004   -1.9260 S   0  0  0  0  0  0  0  0  0  0  0  0
    2.5038    0.4806   -2.0724 C   0  0  0  0  0  0  0  0  0  0  0  0
    3.2033   -0.5317   -2.8273 C   0  0  0  0  0  0  0  0  0  0  0  0
    4.4741   -0.2419   -3.4177 C   0  0  0  0  0  0  0  0  0  0  0  0
    5.5024    0.0435   -3.8771 N   0  0  0  0  0  0  0  0  0  0  0  0
    2.6017   -1.7363   -2.9371 C   0  0  0  0  0  0  0  0  0  0  0  0
    3.1237   -2.8636   -3.6348 C   0  0  0  0  0  0  0  0  0  0  0  0
    2.5428   -4.1199   -3.7842 C   0  0  0  0  0  0  0  0  0  0  0  0
    3.4193   -4.9218   -4.5532 C   0  0  0  0  0  0  0  0  0  0  0  0
    4.4956   -4.1243   -4.8402 C   0  0  0  0  0  0  0  0  0  0  0  0
    4.3283   -2.8960   -4.2970 O   0  0  0  0  0  0  0  0  0  0  0  0
    1.3575    0.3120   -1.4297 N   0  0  0  0  0  0  0  0  0  0  0  0
   -0.9855    2.7037    0.2450 C   0  0  0  0  0  0  0  0  0  0  0  0
   -2.1746    2.6961    0.9839 C   0  0  0  0  0  0  0  0  0  0  0  0
   -1.3812    2.3160    3.7681 H   0  0  0  0  0  0  0  0  0  0  0  0
   -1.3385    2.2726    5.5267 H   0  0  0  0  0  0  0  0  0  0  0  0
   -1.3370    0.7552    4.6152 H   0  0  0  0  0  0  0  0  0  0  0  0
   -3.6473    2.7788    4.6533 H   0  0  0  0  0  0  0  0  0  0  0  0
   -3.5484    1.3650    5.6926 H   0  0  0  0  0  0  0  0  0  0  0  0
   -3.4620   -0.1130    3.6220 H   0  0  0  0  0  0  0  0  0  0  0  0
   -4.9676    0.7133    3.9727 H   0  0  0  0  0  0  0  0  0  0  0  0
   -4.7398    0.9336    1.6500 H   0  0  0  0  0  0  0  0  0  0  0  0
   -4.4025    2.5145    2.3181 H   0  0  0  0  0  0  0  0  0  0  0  0
   -2.4624   -0.6548    1.4882 H   0  0  0  0  0  0  0  0  0  0  0  0
   -0.3777   -0.6406    0.2015 H   0  0  0  0  0  0  0  0  0  0  0  0
    1.7016    3.5521   -0.5763 H   0  0  0  0  0  0  0  0  0  0  0  0
    1.6329   -1.8914   -2.4644 H   0  0  0  0  0  0  0  0  0  0  0  0
    1.5858   -4.4195   -3.3782 H   0  0  0  0  0  0  0  0  0  0  0  0
    3.2827   -5.9495   -4.8585 H   0  0  0  0  0  0  0  0  0  0  0  0
    5.4150   -4.2702   -5.3905 H   0  0  0  0  0  0  0  0  0  0  0  0
   -0.6107    3.6598   -0.1096 H   0  0  0  0  0  0  0  0  0  0  0  0
   -2.6743    3.6410    1.1875 H   0  0  0  0  0  0  0  0  0  0  0  0
  1  2  1  0
  2  3  1  0
  3  4  1  0
  4  5  1  0
  5  6  2  0
  6  7  1  0
  7  8  2  0
  8  9  1  0
  9 10  2  0
 10 11  1  0
 11 12  1  0
 12 13  1  0
 13 14  1  0
 14 15  3  0
 13 16  2  3
 16 17  1  0
 17 18  2  0
 18 19  1  0
 19 20  2  0
 20 21  1  0
 12 22  2  0
  8 23  1  0
 23 24  2  0
 24  5  1  0
 22  9  1  0
 21 17  1  0
  1 25  1  0
  1 26  1  0
  1 27  1  0
  2 28  1  0
  2 29  1  0
  3 30  1  0
  3 31  1  0
  4 32  1  0
  4 33  1  0
  6 34  1  0
  7 35  1  0
 10 36  1  0
 16 37  1  0
 18 38  1  0
 19 39  1  0
 20 40  1  0
 23 41  1  0
 24 42  1  0
M  END
$$$$
