
     RDKit          3D

 51 55  0  0  0  0  0  0  0  0999 V2000
    0.9193    1.2574    1.1356 C   0  0  0  0  0  0  0  0  0  0  0  0
    1.5938   -0.0910    1.3432 C   0  0  0  0  0  0  0  0  0  0  0  0
    2.1366   -0.6028    0.0876 N   0  0  0  0  0  0  0  0  0  0  0  0
    1.5859   -1.6141   -0.7109 C   0  0  0  0  0  0  0  0  0  0  0  0
    0.3117   -2.0130   -0.8929 C   0  0  0  0  0  0  0  0  0  0  0  0
   -0.9066   -1.4546   -0.3090 C   0  0  0  0  0  0  0  0  0  0  0  0
   -1.3932   -2.0419    0.8580 C   0  0  0  0  0  0  0  0  0  0  0  0
   -2.5646   -1.5823    1.4278 C   0  0  0  0  0  0  0  0  0  0  0  0
   -3.2649   -0.5520    0.8128 C   0  0  0  0  0  0  0  0  0  0  0  0
   -4.4611   -0.0925    1.3861 C   0  0  0  0  0  0  0  0  0  0  0  0
   -5.1975    0.9358    0.7925 C   0  0  0  0  0  0  0  0  0  0  0  0
   -6.4935    1.3937    1.3989 C   0  0  0  0  0  0  0  0  0  0  0  0
   -4.7428    1.4846   -0.4044 C   0  0  0  0  0  0  0  0  0  0  0  0
   -3.5506    1.0368   -0.9863 C   0  0  0  0  0  0  0  0  0  0  0  0
   -2.7758    0.0212   -0.3934 C   0  0  0  0  0  0  0  0  0  0  0  0
   -1.5917   -0.4423   -0.9243 N   0  0  0  0  0  4  0  0  0  0  0  0
   -1.0316    0.1679   -2.1712 C   0  0  0  0  0  0  0  0  0  0  0  0
   -1.6046   -0.5313   -3.3893 C   0  0  0  0  0  0  0  0  0  0  0  0
    2.7683   -2.4619   -1.7386 S   0  0  0  0  0  0  0  0  0  0  0  0
    4.0465   -1.3940   -1.0987 C   0  0  0  0  0  0  0  0  0  0  0  0
    5.3663   -1.4834   -1.4955 C   0  0  0  0  0  0  0  0  0  0  0  0
    6.2903   -0.6165   -0.9324 C   0  0  0  0  0  0  0  0  0  0  0  0
    5.8587    0.3336    0.0180 C   0  0  0  0  0  0  0  0  0  0  0  0
    6.8882    1.4814    0.7931 S   0  0  0  0  0  0  0  0  0  0  0  0
    5.6008    2.1541    1.6660 C   0  0  0  0  0  0  0  0  0  0  0  0
    4.4103    1.5255    1.3868 C   0  0  0  0  0  0  0  0  0  0  0  0
    4.5196    0.4431    0.4361 C   0  0  0  0  0  0  0  0  0  0  0  0
    3.5654   -0.4619   -0.1306 C   0  0  0  0  0  0  0  0  0  0  0  0
    0.5949    1.6691    2.0964 H   0  0  0  0  0  0  0  0  0  0  0  0
    1.5857    1.9809    0.6574 H   0  0  0  0  0  0  0  0  0  0  0  0
    0.0382    1.1715    0.4970 H   0  0  0  0  0  0  0  0  0  0  0  0
    2.3582   -0.0286    2.1242 H   0  0  0  0  0  0  0  0  0  0  0  0
    0.8656   -0.7934    1.7597 H   0  0  0  0  0  0  0  0  0  0  0  0
    0.1010   -2.8334   -1.5804 H   0  0  0  0  0  0  0  0  0  0  0  0
   -0.8555   -2.8630    1.3316 H   0  0  0  0  0  0  0  0  0  0  0  0
   -2.9291   -2.0440    2.3455 H   0  0  0  0  0  0  0  0  0  0  0  0
   -4.8349   -0.5390    2.3089 H   0  0  0  0  0  0  0  0  0  0  0  0
   -7.3197    0.7859    1.0177 H   0  0  0  0  0  0  0  0  0  0  0  0
   -6.4643    1.3092    2.4903 H   0  0  0  0  0  0  0  0  0  0  0  0
   -6.6868    2.4447    1.1598 H   0  0  0  0  0  0  0  0  0  0  0  0
   -5.3185    2.2687   -0.8973 H   0  0  0  0  0  0  0  0  0  0  0  0
   -3.2764    1.5127   -1.9226 H   0  0  0  0  0  0  0  0  0  0  0  0
   -1.2446    1.2401   -2.1705 H   0  0  0  0  0  0  0  0  0  0  0  0
    0.0582    0.1054   -2.1599 H   0  0  0  0  0  0  0  0  0  0  0  0
   -1.3540   -1.5964   -3.3905 H   0  0  0  0  0  0  0  0  0  0  0  0
   -2.6950   -0.4503   -3.4245 H   0  0  0  0  0  0  0  0  0  0  0  0
   -1.2014   -0.0866   -4.3043 H   0  0  0  0  0  0  0  0  0  0  0  0
    5.6858   -2.2175   -2.2296 H   0  0  0  0  0  0  0  0  0  0  0  0
    7.3370   -0.6667   -1.2246 H   0  0  0  0  0  0  0  0  0  0  0  0
    5.7715    2.9805    2.3432 H   0  0  0  0  0  0  0  0  0  0  0  0
    3.5004    1.8508    1.8663 H   0  0  0  0  0  0  0  0  0  0  0  0
  1  2  1  0
  2  3  1  0
  3  4  1  0
  4  5  2  3
  5  6  1  0
  6  7  2  0
  7  8  1  0
  8  9  2  0
  9 10  1  0
 10 11  2  0
 11 12  1  0
 11 13  1  0
 13 14  2  0
 14 15  1  0
 15 16  2  0
 16 17  1  0
 17 18  1  0
  4 19  1  0
 19 20  1  0
 20 21  2  0
 21 22  1  0
 22 23  2  0
 23 24  1  0
 24 25  1  0
 25 26  2  0
 26 27  1  0
 27 28  2  0
 28  3  1  0
 16  6  1  0
 28 20  1  0
 15  9  1  0
 27 23  1  0
  1 29  1  0
  1 30  1  0
  1 31  1  0
  2 32  1  0
  2 33  1  0
  5 34  1  0
  7 35  1  0
  8 36  1  0
 10 37  1  0
 12 38  1  0
 12 39  1  0
 12 40  1  0
 13 41  1  0
 14 42  1  0
 17 43  1  0
 17 44  1  0
 18 45  1  0
 18 46  1  0
 18 47  1  0
 21 48  1  0
 22 49  1  0
 25 50  1  0
 26 51  1  0
M  CHG  1  16   1
M  END
$$$$
