
     RDKit          3D

 59 63  0  0  0  0  0  0  0  0999 V2000
   -4.1171   -2.5926    1.6441 C   0  0  0  0  0  0  0  0  0  0  0  0
   -4.2545   -1.5507    0.6865 O   0  0  0  0  0  0  0  0  0  0  0  0
   -3.9822   -1.8722   -0.6204 C   0  0  0  0  0  0  0  0  0  0  0  0
   -4.0049   -3.1797   -1.1207 C   0  0  0  0  0  0  0  0  0  0  0  0
   -3.7462   -3.4273   -2.4719 C   0  0  0  0  0  0  0  0  0  0  0  0
   -3.4698   -2.3730   -3.3369 C   0  0  0  0  0  0  0  0  0  0  0  0
   -3.4509   -1.0660   -2.8519 C   0  0  0  0  0  0  0  0  0  0  0  0
   -3.7083   -0.8012   -1.4955 C   0  0  0  0  0  0  0  0  0  0  0  0
   -3.6485    0.5881   -1.0175 C   0  0  0  0  0  0  0  0  0  0  0  0
   -4.9271    1.6465   -1.4286 S   0  0  0  0  0  0  0  0  0  0  0  0
   -4.2297    2.9644   -0.5745 C   0  0  0  0  0  0  0  0  0  0  0  0
   -4.7569    4.2661   -0.4542 C   0  0  0  0  0  0  0  0  0  0  0  0
   -4.0500    5.2198    0.2809 C   0  0  0  0  0  0  0  0  0  0  0  0
   -2.8448    4.8917    0.8836 C   0  0  0  0  0  0  0  0  0  0  0  0
   -2.3260    3.5994    0.7613 C   0  0  0  0  0  0  0  0  0  0  0  0
   -3.0202    2.6046    0.0237 C   0  0  0  0  0  0  0  0  0  0  0  0
   -2.6905    1.2222   -0.2425 C   0  0  0  0  0  0  0  0  0  0  0  0
   -1.5036    0.5216    0.2335 C   0  0  0  0  0  0  0  0  0  0  0  0
   -0.4557    0.2242   -0.6430 C   0  0  0  0  0  0  0  0  0  0  0  0
    0.6842   -0.4452   -0.1820 C   0  0  0  0  0  0  0  0  0  0  0  0
    0.7847   -0.8200    1.1581 C   0  0  0  0  0  0  0  0  0  0  0  0
    1.8316   -1.4751    1.7426 O   0  0  0  0  0  0  0  0  0  0  0  0
    2.9955   -1.7577    0.9595 C   0  0  0  0  0  0  0  0  0  0  0  0
    3.9374   -0.5413    0.9220 C   0  0  0  0  0  0  0  0  0  0  0  0
    5.2076   -0.8108    0.2295 N   0  0  0  0  0  0  0  0  0  0  0  0
    5.0678   -0.8822   -1.2416 C   0  0  0  0  0  0  0  0  0  0  0  0
    5.5556    0.3797   -1.9739 C   0  0  0  0  0  0  0  0  0  0  0  0
    6.9304    0.6907   -1.7122 O   0  0  0  0  0  0  0  0  0  0  0  0
    7.3682    0.2545   -0.4177 C   0  0  0  0  0  0  0  0  0  0  0  0
    6.2245    0.1978    0.6052 C   0  0  0  0  0  0  0  0  0  0  0  0
   -0.2648   -0.5187    2.0312 C   0  0  0  0  0  0  0  0  0  0  0  0
   -1.4023    0.1520    1.5766 C   0  0  0  0  0  0  0  0  0  0  0  0
   -4.9413   -3.3075    1.5637 H   0  0  0  0  0  0  0  0  0  0  0  0
   -3.1474   -3.0928    1.5558 H   0  0  0  0  0  0  0  0  0  0  0  0
   -4.1678   -2.1400    2.6391 H   0  0  0  0  0  0  0  0  0  0  0  0
   -4.2350   -4.0274   -0.4841 H   0  0  0  0  0  0  0  0  0  0  0  0
   -3.7685   -4.4468   -2.8491 H   0  0  0  0  0  0  0  0  0  0  0  0
   -3.2722   -2.5664   -4.3881 H   0  0  0  0  0  0  0  0  0  0  0  0
   -3.2320   -0.2488   -3.5357 H   0  0  0  0  0  0  0  0  0  0  0  0
   -5.7007    4.5251   -0.9260 H   0  0  0  0  0  0  0  0  0  0  0  0
   -4.4495    6.2264    0.3795 H   0  0  0  0  0  0  0  0  0  0  0  0
   -2.2986    5.6394    1.4535 H   0  0  0  0  0  0  0  0  0  0  0  0
   -1.3789    3.3566    1.2378 H   0  0  0  0  0  0  0  0  0  0  0  0
   -0.5219    0.5089   -1.6908 H   0  0  0  0  0  0  0  0  0  0  0  0
    1.4671   -0.6567   -0.9007 H   0  0  0  0  0  0  0  0  0  0  0  0
    2.7330   -2.1465   -0.0296 H   0  0  0  0  0  0  0  0  0  0  0  0
    3.5104   -2.5804    1.4709 H   0  0  0  0  0  0  0  0  0  0  0  0
    3.4337    0.3311    0.4881 H   0  0  0  0  0  0  0  0  0  0  0  0
    4.1400   -0.2710    1.9674 H   0  0  0  0  0  0  0  0  0  0  0  0
    4.0410   -1.1072   -1.5487 H   0  0  0  0  0  0  0  0  0  0  0  0
    5.6822   -1.7279   -1.5746 H   0  0  0  0  0  0  0  0  0  0  0  0
    4.9491    1.2489   -1.6930 H   0  0  0  0  0  0  0  0  0  0  0  0
    5.4513    0.2481   -3.0562 H   0  0  0  0  0  0  0  0  0  0  0  0
    8.1416    0.9513   -0.0807 H   0  0  0  0  0  0  0  0  0  0  0  0
    7.8414   -0.7278   -0.5285 H   0  0  0  0  0  0  0  0  0  0  0  0
    5.7689    1.1947    0.6666 H   0  0  0  0  0  0  0  0  0  0  0  0
    6.6286   -0.0528    1.5925 H   0  0  0  0  0  0  0  0  0  0  0  0
   -0.1960   -0.8107    3.0764 H   0  0  0  0  0  0  0  0  0  0  0  0
   -2.2121    0.3706    2.2686 H   0  0  0  0  0  0  0  0  0  0  0  0
  1  2  1  0
  2  3  1  0
  3  4  2  0
  4  5  1  0
  5  6  2  0
  6  7  1  0
  7  8  2  0
  8  9  1  0
  9 10  1  0
 10 11  1  0
 11 12  2  0
 12 13  1  0
 13 14  2  0
 14 15  1  0
 15 16  2  0
 16 17  1  0
 17 18  1  0
 18 19  2  0
 19 20  1  0
 20 21  2  0
 21 22  1  0
 22 23  1  0
 23 24  1  0
 24 25  1  0
 25 26  1  0
 26 27  1  0
 27 28  1  0
 28 29  1  0
 29 30  1  0
 21 31  1  0
 31 32  2  0
  8  3  1  0
 17  9  2  0
 32 18  1  0
 16 11  1  0
 30 25  1  0
  1 33  1  0
  1 34  1  0
  1 35  1  0
  4 36  1  0
  5 37  1  0
  6 38  1  0
  7 39  1  0
 12 40  1  0
 13 41  1  0
 14 42  1  0
 15 43  1  0
 19 44  1  0
 20 45  1  0
 23 46  1  0
 23 47  1  0
 24 48  1  0
 24 49  1  0
 26 50  1  0
 26 51  1  0
 27 52  1  0
 27 53  1  0
 29 54  1  0
 29 55  1  0
 30 56  1  0
 30 57  1  0
 31 58  1  0
 32 59  1  0
M  END
$$$$
