
     RDKit          3D

 77 83  0  0  0  0  0  0  0  0999 V2000
   -6.4062   -2.0539   -2.9856 C   0  0  0  0  0  0  0  0  0  0  0  0
   -6.4158   -0.9944   -1.8786 C   0  0  0  0  0  0  0  0  0  0  0  0
   -7.5356   -1.2357   -0.8600 C   0  0  0  0  0  0  0  0  0  0  0  0
   -6.6269    0.3850   -2.5227 C   0  0  0  0  0  0  0  0  0  0  0  0
   -5.1258   -0.8981   -1.2258 O   0  0  0  0  0  0  0  0  0  0  0  0
   -4.6029   -1.9495   -0.5436 C   0  0  0  0  0  0  0  0  0  0  0  0
   -5.1474   -3.0392   -0.4240 O   0  0  0  0  0  0  0  0  0  0  0  0
   -3.3775   -1.6408    0.0081 N   0  0  0  0  0  0  0  0  0  0  0  0
   -2.6786   -2.6296    0.8411 C   0  0  0  0  0  0  0  0  0  0  0  0
   -1.1298   -2.6034    0.6995 C   0  0  0  0  0  0  0  0  0  0  0  0
   -0.6312   -1.3117    0.2683 N   0  0  0  0  0  0  0  0  0  0  0  0
   -1.4834   -0.1674    0.6891 C   0  0  2  0  0  0  0  0  0  0  0  0
   -2.8191   -0.2726   -0.0467 C   0  0  0  0  0  0  0  0  0  0  0  0
   -0.5945    0.9606    0.3498 C   0  0  0  0  0  0  0  0  0  0  0  0
    0.7291    0.5184    0.2075 C   0  0  0  0  0  0  0  0  0  0  0  0
    1.5245    1.6005   -0.0575 C   0  0  0  0  0  0  0  0  0  0  0  0
    2.8275    1.6158   -0.3307 O   0  0  0  0  0  0  0  0  0  0  0  0
    0.6882    2.7341   -0.0611 N   0  0  0  0  0  0  0  0  0  0  0  0
    1.1079    4.0780   -0.2821 C   0  0  0  0  0  0  0  0  0  0  0  0
    0.3183    4.9418   -1.0531 C   0  0  0  0  0  0  0  0  0  0  0  0
    0.7334    6.2571   -1.2673 C   0  0  0  0  0  0  0  0  0  0  0  0
    1.9283    6.7132   -0.7101 C   0  0  0  0  0  0  0  0  0  0  0  0
    2.7144    5.8557    0.0591 C   0  0  0  0  0  0  0  0  0  0  0  0
    2.3095    4.5375    0.2736 C   0  0  0  0  0  0  0  0  0  0  0  0
   -0.6310    2.3184    0.2084 C   0  0  0  0  0  0  0  0  0  0  0  0
   -1.6707    3.1328    0.3769 O   0  0  0  0  0  0  0  0  0  0  0  0
    0.8002   -0.9564    0.3811 C   0  0  1  0  0  0  0  0  0  0  0  0
    1.4744   -1.3586    1.7152 C   0  0  0  0  0  0  0  0  0  0  0  0
    1.0690   -1.1351    2.8500 O   0  0  0  0  0  0  0  0  0  0  0  0
    2.6455   -2.0564    1.3721 N   0  0  0  0  0  0  0  0  0  0  0  0
    3.6028   -2.5249    2.3445 C   0  0  0  0  0  0  0  0  0  0  0  0
    4.7118   -1.5289    2.6007 C   0  0  0  0  0  0  0  0  0  0  0  0
    6.0162   -1.7657    2.1417 C   0  0  0  0  0  0  0  0  0  0  0  0
    7.0323   -0.8371    2.3806 C   0  0  0  0  0  0  0  0  0  0  0  0
    6.7565    0.3362    3.0810 C   0  0  0  0  0  0  0  0  0  0  0  0
    5.4656    0.5835    3.5429 C   0  0  0  0  0  0  0  0  0  0  0  0
    4.4487   -0.3426    3.3042 C   0  0  0  0  0  0  0  0  0  0  0  0
    2.7815   -2.1656   -0.0225 C   0  0  0  0  0  0  0  0  0  0  0  0
    3.7799   -2.7893   -0.7491 C   0  0  0  0  0  0  0  0  0  0  0  0
    3.6744   -2.7934   -2.1439 C   0  0  0  0  0  0  0  0  0  0  0  0
    2.5829   -2.1859   -2.7855 C   0  0  0  0  0  0  0  0  0  0  0  0
    1.5826   -1.5569   -2.0428 C   0  0  0  0  0  0  0  0  0  0  0  0
    1.6986   -1.5466   -0.6595 C   0  0  0  0  0  0  0  0  0  0  0  0
   -5.5446   -1.9143   -3.6494 H   0  0  0  0  0  0  0  0  0  0  0  0
   -6.3300   -3.0683   -2.5831 H   0  0  0  0  0  0  0  0  0  0  0  0
   -7.3206   -2.0098   -3.5875 H   0  0  0  0  0  0  0  0  0  0  0  0
   -8.5248   -1.1189   -1.3167 H   0  0  0  0  0  0  0  0  0  0  0  0
   -7.4524   -0.5341   -0.0207 H   0  0  0  0  0  0  0  0  0  0  0  0
   -7.4907   -2.2422   -0.4327 H   0  0  0  0  0  0  0  0  0  0  0  0
   -6.5988    1.1772   -1.7651 H   0  0  0  0  0  0  0  0  0  0  0  0
   -5.8235    0.6107   -3.2341 H   0  0  0  0  0  0  0  0  0  0  0  0
   -7.5837    0.4443   -3.0523 H   0  0  0  0  0  0  0  0  0  0  0  0
   -2.9483   -2.3920    1.8786 H   0  0  0  0  0  0  0  0  0  0  0  0
   -3.0496   -3.6398    0.6355 H   0  0  0  0  0  0  0  0  0  0  0  0
   -0.8358   -3.3524   -0.0445 H   0  0  0  0  0  0  0  0  0  0  0  0
   -0.7024   -2.9189    1.6577 H   0  0  0  0  0  0  0  0  0  0  0  0
   -1.6369   -0.1928    1.7770 H   0  0  0  0  0  0  0  0  0  0  0  0
   -2.7155   -0.0035   -1.1057 H   0  0  0  0  0  0  0  0  0  0  0  0
   -3.5502    0.4166    0.3927 H   0  0  0  0  0  0  0  0  0  0  0  0
    3.0399    2.4161   -0.8425 H   0  0  0  0  0  0  0  0  0  0  0  0
   -0.5962    4.5967   -1.5325 H   0  0  0  0  0  0  0  0  0  0  0  0
    0.1304    6.9267   -1.8769 H   0  0  0  0  0  0  0  0  0  0  0  0
    2.2476    7.7394   -0.8763 H   0  0  0  0  0  0  0  0  0  0  0  0
    3.6390    6.2200    0.5029 H   0  0  0  0  0  0  0  0  0  0  0  0
    2.9188    3.9004    0.9132 H   0  0  0  0  0  0  0  0  0  0  0  0
   -1.3421    4.0271    0.5801 H   0  0  0  0  0  0  0  0  0  0  0  0
    3.0833   -2.7122    3.2931 H   0  0  0  0  0  0  0  0  0  0  0  0
    4.0051   -3.4931    2.0236 H   0  0  0  0  0  0  0  0  0  0  0  0
    6.2529   -2.6744    1.5939 H   0  0  0  0  0  0  0  0  0  0  0  0
    8.0394   -1.0282    2.0190 H   0  0  0  0  0  0  0  0  0  0  0  0
    7.5470    1.0586    3.2669 H   0  0  0  0  0  0  0  0  0  0  0  0
    5.2462    1.4978    4.0887 H   0  0  0  0  0  0  0  0  0  0  0  0
    3.4445   -0.1328    3.6703 H   0  0  0  0  0  0  0  0  0  0  0  0
    4.6248   -3.2691   -0.2723 H   0  0  0  0  0  0  0  0  0  0  0  0
    4.4452   -3.2750   -2.7414 H   0  0  0  0  0  0  0  0  0  0  0  0
    2.5180   -2.2044   -3.8710 H   0  0  0  0  0  0  0  0  0  0  0  0
    0.7363   -1.0844   -2.5318 H   0  0  0  0  0  0  0  0  0  0  0  0
  1  2  1  0
  2  3  1  0
  2  4  1  0
  2  5  1  0
  5  6  1  0
  6  7  2  0
  6  8  1  0
  8  9  1  0
  9 10  1  0
 10 11  1  0
 11 12  1  0
 12 13  1  0
 12 14  1  0
 14 15  1  0
 15 16  2  0
 16 17  1  0
 16 18  1  0
 18 19  1  0
 19 20  2  0
 20 21  1  0
 21 22  2  0
 22 23  1  0
 23 24  2  0
 18 25  1  0
 25 26  1  0
 15 27  1  0
 27 28  1  0
 28 29  2  0
 28 30  1  0
 30 31  1  0
 31 32  1  0
 32 33  2  0
 33 34  1  0
 34 35  2  0
 35 36  1  0
 36 37  2  0
 30 38  1  0
 38 39  2  0
 39 40  1  0
 40 41  2  0
 41 42  1  0
 42 43  2  0
 13  8  1  0
 25 14  2  0
 43 27  1  0
 27 11  1  1
 37 32  1  0
 43 38  1  0
 24 19  1  0
  1 44  1  0
  1 45  1  0
  1 46  1  0
  3 47  1  0
  3 48  1  0
  3 49  1  0
  4 50  1  0
  4 51  1  0
  4 52  1  0
  9 53  1  0
  9 54  1  0
 10 55  1  0
 10 56  1  0
 12 57  1  1
 13 58  1  0
 13 59  1  0
 17 60  1  0
 20 61  1  0
 21 62  1  0
 22 63  1  0
 23 64  1  0
 24 65  1  0
 26 66  1  0
 31 67  1  0
 31 68  1  0
 33 69  1  0
 34 70  1  0
 35 71  1  0
 36 72  1  0
 37 73  1  0
 39 74  1  0
 40 75  1  0
 41 76  1  0
 42 77  1  0
M  END
$$$$
