
     RDKit          3D

 48 50  0  0  0  0  0  0  0  0999 V2000
    5.6138    0.4026    1.5541 C   0  0  0  0  0  0  0  0  0  0  0  0
    5.6639    0.8691    0.1049 C   0  0  0  0  0  0  0  0  0  0  0  0
    4.6799    0.1670   -0.7313 N   0  0  0  0  0  0  0  0  0  0  0  0
    5.2111   -0.8115   -1.6890 C   0  0  0  0  0  0  0  0  0  0  0  0
    5.4158   -2.1727   -1.0415 C   0  0  0  0  0  0  0  0  0  0  0  0
    3.3132    0.4082   -0.6213 C   0  0  0  0  0  0  0  0  0  0  0  0
    2.8026    1.5395    0.0398 C   0  0  0  0  0  0  0  0  0  0  0  0
    1.4266    1.7928    0.1509 C   0  0  0  0  0  0  0  0  0  0  0  0
    0.5039    0.9090   -0.3995 C   0  0  0  0  0  0  0  0  0  0  0  0
   -0.9303    1.1865   -0.3084 C   0  0  0  0  0  0  0  0  0  0  0  0
   -1.8125    0.6562    0.5632 C   0  0  0  0  0  0  0  0  0  0  0  0
   -1.4483   -0.3096    1.6222 C   0  0  0  0  0  0  0  0  0  0  0  0
   -0.3067   -0.6452    1.9092 O   0  0  0  0  0  0  0  0  0  0  0  0
   -2.5041   -0.8119    2.3225 N   0  0  0  0  0  0  0  0  0  0  0  0
   -3.7962   -0.3810    2.2973 C   0  0  0  0  0  0  0  0  0  0  0  0
   -4.5703   -0.7819    3.1640 O   0  0  0  0  0  0  0  0  0  0  0  0
   -4.1313    0.5191    1.3088 N   0  0  0  0  0  0  0  0  0  0  0  0
   -5.5313    0.9039    1.1885 C   0  0  0  0  0  0  0  0  0  0  0  0
   -6.1782    0.0697    0.1369 C   0  0  0  0  0  0  0  0  0  0  0  0
   -6.4075    0.2558   -1.2115 C   0  0  0  0  0  0  0  0  0  0  0  0
   -7.0635   -0.9117   -1.6700 C   0  0  0  0  0  0  0  0  0  0  0  0
   -7.1915   -1.7341   -0.5755 C   0  0  0  0  0  0  0  0  0  0  0  0
   -6.6549   -1.1481    0.5252 O   0  0  0  0  0  0  0  0  0  0  0  0
   -3.2307    1.0920    0.4255 C   0  0  0  0  0  0  0  0  0  0  0  0
   -3.5629    1.9226   -0.4210 O   0  0  0  0  0  0  0  0  0  0  0  0
    0.9719   -0.2218   -1.0620 C   0  0  0  0  0  0  0  0  0  0  0  0
    2.3510   -0.4607   -1.1662 C   0  0  0  0  0  0  0  0  0  0  0  0
    4.6518    0.6249    2.0239 H   0  0  0  0  0  0  0  0  0  0  0  0
    6.3927    0.9048    2.1367 H   0  0  0  0  0  0  0  0  0  0  0  0
    5.7792   -0.6766    1.6294 H   0  0  0  0  0  0  0  0  0  0  0  0
    5.5374    1.9551    0.0384 H   0  0  0  0  0  0  0  0  0  0  0  0
    6.6775    0.6803   -0.2702 H   0  0  0  0  0  0  0  0  0  0  0  0
    4.5722   -0.9001   -2.5752 H   0  0  0  0  0  0  0  0  0  0  0  0
    6.1744   -0.4596   -2.0799 H   0  0  0  0  0  0  0  0  0  0  0  0
    6.1718   -2.1226   -0.2518 H   0  0  0  0  0  0  0  0  0  0  0  0
    4.4920   -2.5546   -0.5966 H   0  0  0  0  0  0  0  0  0  0  0  0
    5.7603   -2.8966   -1.7868 H   0  0  0  0  0  0  0  0  0  0  0  0
    3.4683    2.2724    0.4834 H   0  0  0  0  0  0  0  0  0  0  0  0
    1.0957    2.6873    0.6724 H   0  0  0  0  0  0  0  0  0  0  0  0
   -1.2632    1.9038   -1.0589 H   0  0  0  0  0  0  0  0  0  0  0  0
   -2.2684   -1.4378    3.0798 H   0  0  0  0  0  0  0  0  0  0  0  0
   -5.6040    1.9643    0.9204 H   0  0  0  0  0  0  0  0  0  0  0  0
   -6.0564    0.7773    2.1416 H   0  0  0  0  0  0  0  0  0  0  0  0
   -6.1260    1.1268   -1.7891 H   0  0  0  0  0  0  0  0  0  0  0  0
   -7.4003   -1.1289   -2.6740 H   0  0  0  0  0  0  0  0  0  0  0  0
   -7.6162   -2.7164   -0.4210 H   0  0  0  0  0  0  0  0  0  0  0  0
    0.2794   -0.9351   -1.5012 H   0  0  0  0  0  0  0  0  0  0  0  0
    2.6483   -1.3722   -1.6757 H   0  0  0  0  0  0  0  0  0  0  0  0
  1  2  1  0
  2  3  1  0
  3  4  1  0
  4  5  1  0
  3  6  1  0
  6  7  2  0
  7  8  1  0
  8  9  2  0
  9 10  1  0
 10 11  2  3
 11 12  1  0
 12 13  2  0
 12 14  1  0
 14 15  1  0
 15 16  2  0
 15 17  1  0
 17 18  1  0
 18 19  1  0
 19 20  2  0
 20 21  1  0
 21 22  2  0
 22 23  1  0
 17 24  1  0
 24 25  2  0
  9 26  1  0
 26 27  2  0
 27  6  1  0
 24 11  1  0
 23 19  1  0
  1 28  1  0
  1 29  1  0
  1 30  1  0
  2 31  1  0
  2 32  1  0
  4 33  1  0
  4 34  1  0
  5 35  1  0
  5 36  1  0
  5 37  1  0
  7 38  1  0
  8 39  1  0
 10 40  1  0
 14 41  1  0
 18 42  1  0
 18 43  1  0
 20 44  1  0
 21 45  1  0
 22 46  1  0
 26 47  1  0
 27 48  1  0
M  END
$$$$
