
     RDKit          3D

 37 37  0  0  0  0  0  0  0  0999 V2000
    3.4353   -1.1613    1.4113 C   0  0  0  0  0  0  0  0  0  0  0  0
    3.7486   -0.9239   -0.0576 C   0  0  0  0  0  0  0  0  0  0  0  0
    3.7341    0.5540   -0.4561 C   0  0  0  0  0  0  0  0  0  0  0  0
    2.4081    1.2890   -0.2324 C   0  0  0  0  0  0  0  0  0  0  0  0
    1.2408    0.6808   -1.0131 C   0  0  0  0  0  0  0  0  0  0  0  0
   -0.0327    1.5319   -0.9653 C   0  0  0  0  0  0  0  0  0  0  0  0
   -0.6080    1.7936    0.4313 C   0  0  0  0  0  0  0  0  0  0  0  0
   -1.0101    0.5438    1.2217 C   0  0  0  0  0  0  0  0  0  0  0  0
   -2.1274   -0.1767    0.5866 N   0  0  0  0  0  0  0  0  0  0  0  0
   -1.9234   -1.3733   -0.0900 C   0  0  0  0  0  0  0  0  0  0  0  0
   -2.8902   -2.0798   -0.6887 C   0  0  0  0  0  0  0  0  0  0  0  0
   -4.2782   -1.5610   -0.6279 C   0  0  0  0  0  0  0  0  0  0  0  0
   -5.2366   -2.2146   -1.2004 N   0  0  0  0  0  0  0  0  0  0  0  0
   -4.4944   -0.2880    0.1091 C   0  0  0  0  0  0  0  0  0  0  0  0
   -3.4284    0.3084    0.6587 C   0  0  0  0  0  0  0  0  0  0  0  0
    3.5616   -2.2209    1.6556 H   0  0  0  0  0  0  0  0  0  0  0  0
    2.4036   -0.8879    1.6508 H   0  0  0  0  0  0  0  0  0  0  0  0
    4.1060   -0.5832    2.0547 H   0  0  0  0  0  0  0  0  0  0  0  0
    3.0481   -1.4936   -0.6780 H   0  0  0  0  0  0  0  0  0  0  0  0
    4.7462   -1.3271   -0.2702 H   0  0  0  0  0  0  0  0  0  0  0  0
    4.5187    1.0794    0.1027 H   0  0  0  0  0  0  0  0  0  0  0  0
    4.0085    0.6303   -1.5157 H   0  0  0  0  0  0  0  0  0  0  0  0
    2.5421    2.3328   -0.5426 H   0  0  0  0  0  0  0  0  0  0  0  0
    2.1790    1.3108    0.8383 H   0  0  0  0  0  0  0  0  0  0  0  0
    1.5332    0.5688   -2.0646 H   0  0  0  0  0  0  0  0  0  0  0  0
    1.0255   -0.3263   -0.6440 H   0  0  0  0  0  0  0  0  0  0  0  0
   -0.7965    1.0550   -1.5910 H   0  0  0  0  0  0  0  0  0  0  0  0
    0.1776    2.5015   -1.4346 H   0  0  0  0  0  0  0  0  0  0  0  0
   -1.4794    2.4513    0.3209 H   0  0  0  0  0  0  0  0  0  0  0  0
    0.1194    2.3616    1.0229 H   0  0  0  0  0  0  0  0  0  0  0  0
   -1.3154    0.8485    2.2313 H   0  0  0  0  0  0  0  0  0  0  0  0
   -0.1467   -0.1167    1.3633 H   0  0  0  0  0  0  0  0  0  0  0  0
   -0.8959   -1.7230   -0.1104 H   0  0  0  0  0  0  0  0  0  0  0  0
   -2.7141   -3.0086   -1.2127 H   0  0  0  0  0  0  0  0  0  0  0  0
   -6.1300   -1.7324   -1.0705 H   0  0  0  0  0  0  0  0  0  0  0  0
   -5.4921    0.1184    0.1836 H   0  0  0  0  0  0  0  0  0  0  0  0
   -3.5369    1.2385    1.2091 H   0  0  0  0  0  0  0  0  0  0  0  0
  1  2  1  0
  2  3  1  0
  3  4  1  0
  4  5  1  0
  5  6  1  0
  6  7  1  0
  7  8  1  0
  8  9  1  0
  9 10  1  0
 10 11  2  0
 11 12  1  0
 12 13  2  3
 12 14  1  0
 14 15  2  0
 15  9  1  0
  1 16  1  0
  1 17  1  0
  1 18  1  0
  2 19  1  0
  2 20  1  0
  3 21  1  0
  3 22  1  0
  4 23  1  0
  4 24  1  0
  5 25  1  0
  5 26  1  0
  6 27  1  0
  6 28  1  0
  7 29  1  0
  7 30  1  0
  8 31  1  0
  8 32  1  0
 10 33  1  0
 11 34  1  0
 13 35  1  0
 14 36  1  0
 15 37  1  0
M  END
$$$$
