
     RDKit          3D

 50 53  0  0  0  0  0  0  0  0999 V2000
   -6.5886    1.8377    1.8908 C   0  0  0  0  0  0  0  0  0  0  0  0
   -6.4201    1.0756    0.6417 C   0  0  0  0  0  0  0  0  0  0  0  0
   -5.6293    1.2191   -0.4715 C   0  0  0  0  0  0  0  0  0  0  0  0
   -5.9816    0.1308   -1.2936 C   0  0  0  0  0  0  0  0  0  0  0  0
   -5.4967   -0.2215   -2.5380 N   0  0  0  0  0  0  0  0  0  0  0  0
   -4.1250    0.3807   -3.2546 S   0  0  0  0  0  6  0  0  0  0  0  0
   -3.9665   -0.3200   -4.5112 O   0  0  0  0  0  0  0  0  0  0  0  0
   -4.1539    1.8263   -3.1965 O   0  0  0  0  0  0  0  0  0  0  0  0
   -2.8363   -0.1981   -2.1754 C   0  0  0  0  0  0  0  0  0  0  0  0
   -2.5525   -1.5639   -2.1232 C   0  0  0  0  0  0  0  0  0  0  0  0
   -1.5407   -2.0237   -1.2756 C   0  0  0  0  0  0  0  0  0  0  0  0
   -0.8048   -1.1293   -0.4842 C   0  0  0  0  0  0  0  0  0  0  0  0
    0.1938   -1.6801    0.3451 N   0  0  0  0  0  0  0  0  0  0  0  0
    1.0504   -1.0039    1.1999 C   0  0  0  0  0  0  0  0  0  0  0  0
    1.0705    0.2046    1.3999 O   0  0  0  0  0  0  0  0  0  0  0  0
    1.9777   -1.9555    1.9332 C   0  0  0  0  0  0  0  0  0  0  0  0
    3.1560   -1.2403    2.5897 C   0  0  0  0  0  0  0  0  0  0  0  0
    4.0438   -0.5489    1.6684 N   0  0  0  0  0  0  0  0  0  0  0  0
    4.6139    0.6650    1.9559 C   0  0  0  0  0  0  0  0  0  0  0  0
    4.4975    1.3594    2.9478 O   0  0  0  0  0  0  0  0  0  0  0  0
    5.4963    0.9880    0.8372 C   0  0  0  0  0  0  0  0  0  0  0  0
    6.2722    2.1059    0.6012 C   0  0  0  0  0  0  0  0  0  0  0  0
    7.0380    2.1164   -0.5690 C   0  0  0  0  0  0  0  0  0  0  0  0
    7.0142    1.0220   -1.4589 C   0  0  0  0  0  0  0  0  0  0  0  0
    6.2242   -0.1012   -1.1936 C   0  0  0  0  0  0  0  0  0  0  0  0
    5.4735   -0.0845   -0.0342 C   0  0  0  0  0  0  0  0  0  0  0  0
    4.5725   -1.0884    0.5272 C   0  0  0  0  0  0  0  0  0  0  0  0
    4.3882   -2.1865    0.0365 O   0  0  0  0  0  0  0  0  0  0  0  0
   -1.0919    0.2365   -0.5614 C   0  0  0  0  0  0  0  0  0  0  0  0
   -2.1012    0.7065   -1.4090 C   0  0  0  0  0  0  0  0  0  0  0  0
   -6.9304   -0.6188   -0.7268 N   0  0  0  0  0  0  0  0  0  0  0  0
   -7.2009   -0.0270    0.4942 O   0  0  0  0  0  0  0  0  0  0  0  0
   -7.6159    2.2035    1.9815 H   0  0  0  0  0  0  0  0  0  0  0  0
   -5.9162    2.7006    1.9181 H   0  0  0  0  0  0  0  0  0  0  0  0
   -6.3683    1.2071    2.7576 H   0  0  0  0  0  0  0  0  0  0  0  0
   -4.9179    2.0093   -0.6554 H   0  0  0  0  0  0  0  0  0  0  0  0
   -5.9203   -1.0267   -2.9905 H   0  0  0  0  0  0  0  0  0  0  0  0
   -3.1058   -2.2714   -2.7366 H   0  0  0  0  0  0  0  0  0  0  0  0
   -1.3346   -3.0912   -1.2466 H   0  0  0  0  0  0  0  0  0  0  0  0
    0.3142   -2.6842    0.2850 H   0  0  0  0  0  0  0  0  0  0  0  0
    1.3863   -2.4537    2.7109 H   0  0  0  0  0  0  0  0  0  0  0  0
    2.3261   -2.7314    1.2446 H   0  0  0  0  0  0  0  0  0  0  0  0
    2.7963   -0.5271    3.3405 H   0  0  0  0  0  0  0  0  0  0  0  0
    3.7681   -1.9823    3.1162 H   0  0  0  0  0  0  0  0  0  0  0  0
    6.2830    2.9383    1.2974 H   0  0  0  0  0  0  0  0  0  0  0  0
    7.6622    2.9789   -0.7968 H   0  0  0  0  0  0  0  0  0  0  0  0
    7.6206    1.0538   -2.3627 H   0  0  0  0  0  0  0  0  0  0  0  0
    6.1994   -0.9514   -1.8673 H   0  0  0  0  0  0  0  0  0  0  0  0
   -0.5430    0.9693    0.0227 H   0  0  0  0  0  0  0  0  0  0  0  0
   -2.2963    1.7755   -1.4605 H   0  0  0  0  0  0  0  0  0  0  0  0
  1  2  1  0
  2  3  2  0
  3  4  1  0
  4  5  1  0
  5  6  1  0
  6  7  2  0
  6  8  2  0
  6  9  1  0
  9 10  2  0
 10 11  1  0
 11 12  2  0
 12 13  1  0
 13 14  1  0
 14 15  2  0
 14 16  1  0
 16 17  1  0
 17 18  1  0
 18 19  1  0
 19 20  2  0
 19 21  1  0
 21 22  2  0
 22 23  1  0
 23 24  2  0
 24 25  1  0
 25 26  2  0
 26 27  1  0
 27 28  2  0
 12 29  1  0
 29 30  2  0
  4 31  2  0
 31 32  1  0
 32  2  1  0
 30  9  1  0
 27 18  1  0
 26 21  1  0
  1 33  1  0
  1 34  1  0
  1 35  1  0
  3 36  1  0
  5 37  1  0
 10 38  1  0
 11 39  1  0
 13 40  1  0
 16 41  1  0
 16 42  1  0
 17 43  1  0
 17 44  1  0
 22 45  1  0
 23 46  1  0
 24 47  1  0
 25 48  1  0
 29 49  1  0
 30 50  1  0
M  END
$$$$
