
     RDKit          3D

 42 44  0  0  0  0  0  0  0  0999 V2000
   -2.0244    0.8122   -2.6574 C   0  0  0  0  0  0  0  0  0  0  0  0
   -2.8787    0.9522   -1.4103 C   0  0  0  0  0  0  0  0  0  0  0  0
   -2.0661    0.6234   -0.2832 O   0  0  0  0  0  0  0  0  0  0  0  0
   -2.6862    0.5846    0.9477 C   0  0  0  0  0  0  0  0  0  0  0  0
   -4.0002    0.9996    1.1879 C   0  0  0  0  0  0  0  0  0  0  0  0
   -4.5343    0.9161    2.4733 C   0  0  0  0  0  0  0  0  0  0  0  0
   -3.7618    0.4149    3.5161 C   0  0  0  0  0  0  0  0  0  0  0  0
   -2.4458    0.0017    3.2851 C   0  0  0  0  0  0  0  0  0  0  0  0
   -1.8877    0.0952    2.0104 C   0  0  0  0  0  0  0  0  0  0  0  0
   -0.5695   -0.2913    1.6630 N   0  0  0  0  0  0  0  0  0  0  0  0
    0.5390   -0.6471    2.3803 C   0  0  0  0  0  0  0  0  0  0  0  0
    0.7852   -0.6551    4.0300 S   0  0  0  0  0  0  0  0  0  0  0  0
    1.6163   -1.0445    1.6301 N   0  0  0  0  0  0  0  0  0  0  0  0
    1.7773   -1.0807    0.1804 C   0  0  0  0  0  0  0  0  0  0  0  0
    3.0293   -1.8813   -0.2392 C   0  0  0  0  0  0  0  0  0  0  0  0
    3.8535   -0.8477   -1.0306 C   0  0  0  0  0  0  0  0  0  0  0  0
    3.1439   -0.5555   -2.3652 C   0  0  0  0  0  0  0  0  0  0  0  0
    1.9163    0.2599   -1.9319 C   0  0  0  0  0  0  0  0  0  0  0  0
    2.0675    0.3247   -0.4009 C   0  0  0  0  0  0  0  0  0  0  0  0
    3.5868    0.4366   -0.2479 C   0  0  0  0  0  0  0  0  0  0  0  0
   -1.1612    1.4855   -2.6123 H   0  0  0  0  0  0  0  0  0  0  0  0
   -2.6059    1.0408   -3.5558 H   0  0  0  0  0  0  0  0  0  0  0  0
   -1.6310   -0.2072   -2.7407 H   0  0  0  0  0  0  0  0  0  0  0  0
   -3.2306    1.9873   -1.3348 H   0  0  0  0  0  0  0  0  0  0  0  0
   -3.7309    0.2654   -1.4827 H   0  0  0  0  0  0  0  0  0  0  0  0
   -4.6316    1.3963    0.4015 H   0  0  0  0  0  0  0  0  0  0  0  0
   -5.5549    1.2397    2.6616 H   0  0  0  0  0  0  0  0  0  0  0  0
   -4.1795    0.3415    4.5177 H   0  0  0  0  0  0  0  0  0  0  0  0
   -1.9019   -0.4045    4.1278 H   0  0  0  0  0  0  0  0  0  0  0  0
   -0.4198   -0.1799    0.6683 H   0  0  0  0  0  0  0  0  0  0  0  0
    2.4365   -1.2331    2.1972 H   0  0  0  0  0  0  0  0  0  0  0  0
    0.8733   -1.5233   -0.2538 H   0  0  0  0  0  0  0  0  0  0  0  0
    2.7641   -2.7496   -0.8552 H   0  0  0  0  0  0  0  0  0  0  0  0
    3.5970   -2.2436    0.6270 H   0  0  0  0  0  0  0  0  0  0  0  0
    4.9041   -1.1214   -1.1453 H   0  0  0  0  0  0  0  0  0  0  0  0
    2.8640   -1.4682   -2.9025 H   0  0  0  0  0  0  0  0  0  0  0  0
    3.7826    0.0467   -3.0222 H   0  0  0  0  0  0  0  0  0  0  0  0
    0.9794   -0.2112   -2.2447 H   0  0  0  0  0  0  0  0  0  0  0  0
    1.9570    1.2644   -2.3699 H   0  0  0  0  0  0  0  0  0  0  0  0
    1.4989    1.1374    0.0573 H   0  0  0  0  0  0  0  0  0  0  0  0
    3.9271    0.3908    0.7915 H   0  0  0  0  0  0  0  0  0  0  0  0
    4.0029    1.3283   -0.7301 H   0  0  0  0  0  0  0  0  0  0  0  0
  1  2  1  0
  2  3  1  0
  3  4  1  0
  4  5  2  0
  5  6  1  0
  6  7  2  0
  7  8  1  0
  8  9  2  0
  9 10  1  0
 10 11  1  0
 11 12  2  0
 11 13  1  0
 13 14  1  0
 14 15  1  0
 15 16  1  0
 16 17  1  0
 17 18  1  0
 18 19  1  0
 19 20  1  0
  9  4  1  0
 19 14  1  0
 20 16  1  0
  1 21  1  0
  1 22  1  0
  1 23  1  0
  2 24  1  0
  2 25  1  0
  5 26  1  0
  6 27  1  0
  7 28  1  0
  8 29  1  0
 10 30  1  0
 13 31  1  0
 14 32  1  0
 15 33  1  0
 15 34  1  0
 16 35  1  0
 17 36  1  0
 17 37  1  0
 18 38  1  0
 18 39  1  0
 19 40  1  0
 20 41  1  0
 20 42  1  0
M  END
$$$$
