
     RDKit          3D

 42 44  0  0  0  0  0  0  0  0999 V2000
    1.9446   -5.0811    2.7993 N   0  0  0  0  0  0  0  0  0  0  0  0
    2.6501   -4.3603    2.2247 C   0  0  0  0  0  0  0  0  0  0  0  0
    3.5078   -3.4639    1.5206 C   0  0  0  0  0  0  0  0  0  0  0  0
    4.8893   -3.8127    1.4743 C   0  0  0  0  0  0  0  0  0  0  0  0
    6.0166   -4.0854    1.4300 N   0  0  0  0  0  0  0  0  0  0  0  0
    3.0393   -2.3420    0.9199 C   0  0  0  0  0  0  0  0  0  0  0  0
    1.6362   -1.9267    0.9766 C   0  0  0  0  0  0  0  0  0  0  0  0
    1.1144   -1.0171    0.1351 C   0  0  0  0  0  0  0  0  0  0  0  0
   -0.2301   -0.4986    0.3171 C   0  0  0  0  0  0  0  0  0  0  0  0
   -0.6442    0.6882   -0.1797 C   0  0  0  0  0  0  0  0  0  0  0  0
   -1.9670    1.1602   -0.0478 N   0  0  0  0  0  0  0  0  0  0  0  0
   -2.3254    2.5772   -0.2595 C   0  0  0  0  0  0  0  0  0  0  0  0
   -3.6441    2.9317    0.4215 C   0  0  0  0  0  0  0  0  0  0  0  0
   -4.8021    2.0925   -0.1061 C   0  0  0  0  0  0  0  0  0  0  0  0
   -4.3503    0.7080   -0.5575 C   0  0  0  0  0  0  0  0  0  0  0  0
   -3.1032    0.2432    0.1884 C   0  0  0  0  0  0  0  0  0  0  0  0
    0.3564    1.5758   -0.9267 C   0  0  0  0  0  0  0  0  0  0  0  0
    1.8161    1.0910   -0.9033 C   0  0  0  0  0  0  0  0  0  0  0  0
    1.8703   -0.4299   -1.0366 C   0  0  0  0  0  0  0  0  0  0  0  0
    3.2994   -0.9744   -1.1761 C   0  0  0  0  0  0  0  0  0  0  0  0
    3.9196   -1.3534    0.1658 C   0  0  0  0  0  0  0  0  0  0  0  0
    1.0102   -2.3310    1.7714 H   0  0  0  0  0  0  0  0  0  0  0  0
   -0.9042   -1.0997    0.9201 H   0  0  0  0  0  0  0  0  0  0  0  0
   -2.3832    2.7834   -1.3348 H   0  0  0  0  0  0  0  0  0  0  0  0
   -1.5575    3.2298    0.1695 H   0  0  0  0  0  0  0  0  0  0  0  0
   -3.5455    2.7671    1.5024 H   0  0  0  0  0  0  0  0  0  0  0  0
   -3.8676    3.9961    0.2872 H   0  0  0  0  0  0  0  0  0  0  0  0
   -5.2848    2.6024   -0.9484 H   0  0  0  0  0  0  0  0  0  0  0  0
   -5.5638    2.0038    0.6777 H   0  0  0  0  0  0  0  0  0  0  0  0
   -4.1351    0.7349   -1.6337 H   0  0  0  0  0  0  0  0  0  0  0  0
   -5.1666   -0.0101   -0.4198 H   0  0  0  0  0  0  0  0  0  0  0  0
   -2.8692   -0.7665   -0.1689 H   0  0  0  0  0  0  0  0  0  0  0  0
   -3.2979    0.1768    1.2654 H   0  0  0  0  0  0  0  0  0  0  0  0
    0.0270    1.6440   -1.9718 H   0  0  0  0  0  0  0  0  0  0  0  0
    0.3535    2.5924   -0.5205 H   0  0  0  0  0  0  0  0  0  0  0  0
    2.3669    1.5744   -1.7190 H   0  0  0  0  0  0  0  0  0  0  0  0
    2.2935    1.4100    0.0330 H   0  0  0  0  0  0  0  0  0  0  0  0
    1.3436   -0.7021   -1.9635 H   0  0  0  0  0  0  0  0  0  0  0  0
    3.9411   -0.2541   -1.6971 H   0  0  0  0  0  0  0  0  0  0  0  0
    3.2717   -1.8722   -1.8093 H   0  0  0  0  0  0  0  0  0  0  0  0
    4.9227   -1.7486   -0.0238 H   0  0  0  0  0  0  0  0  0  0  0  0
    4.0516   -0.4534    0.7808 H   0  0  0  0  0  0  0  0  0  0  0  0
  1  2  3  0
  2  3  1  0
  3  4  1  0
  4  5  3  0
  3  6  2  3
  6  7  1  0
  7  8  2  0
  8  9  1  0
  9 10  2  0
 10 11  1  0
 11 12  1  0
 12 13  1  0
 13 14  1  0
 14 15  1  0
 15 16  1  0
 10 17  1  0
 17 18  1  0
 18 19  1  0
 19 20  1  0
 20 21  1  0
 21  6  1  0
 19  8  1  0
 16 11  1  0
  7 22  1  0
  9 23  1  0
 12 24  1  0
 12 25  1  0
 13 26  1  0
 13 27  1  0
 14 28  1  0
 14 29  1  0
 15 30  1  0
 15 31  1  0
 16 32  1  0
 16 33  1  0
 17 34  1  0
 17 35  1  0
 18 36  1  0
 18 37  1  0
 19 38  1  0
 20 39  1  0
 20 40  1  0
 21 41  1  0
 21 42  1  0
M  END
$$$$
