
     RDKit          3D

 49 51  0  0  0  0  0  0  0  0999 V2000
   -9.9558    2.2868    2.2284 C   0  0  0  0  0  0  0  0  0  0  0  0
   -8.8910    1.7970    3.0329 O   0  0  0  0  0  0  0  0  0  0  0  0
   -7.6831    1.6190    2.4193 C   0  0  0  0  0  0  0  0  0  0  0  0
   -7.4015    1.8484    1.0752 C   0  0  0  0  0  0  0  0  0  0  0  0
   -6.1113    1.6203    0.5783 C   0  0  0  0  0  0  0  0  0  0  0  0
   -5.0845    1.1623    1.4148 C   0  0  0  0  0  0  0  0  0  0  0  0
   -3.8160    0.9620    0.8226 N   0  0  0  0  0  0  0  0  0  0  0  0
   -2.6568    0.5280    1.4457 C   0  0  0  0  0  0  0  0  0  0  0  0
   -2.5536    0.2525    2.6383 O   0  0  0  0  0  0  0  0  0  0  0  0
   -1.4535    0.4039    0.5444 C   0  0  0  0  0  0  0  0  0  0  0  0
   -1.5853    0.6349   -0.8508 C   0  0  0  0  0  0  0  0  0  0  0  0
   -1.7721    0.8567   -1.9745 N   0  0  0  0  0  0  0  0  0  0  0  0
   -0.2853    0.0503    1.1181 C   0  0  0  0  0  0  0  0  0  0  0  0
    0.9969   -0.1388    0.4275 C   0  0  0  0  0  0  0  0  0  0  0  0
    1.6448   -1.3749    0.5233 C   0  0  0  0  0  0  0  0  0  0  0  0
    2.8804   -1.5844   -0.1017 C   0  0  0  0  0  0  0  0  0  0  0  0
    3.4838   -0.5552   -0.8234 C   0  0  0  0  0  0  0  0  0  0  0  0
    4.6816   -0.6222   -1.4785 O   0  0  0  0  0  0  0  0  0  0  0  0
    5.3918   -1.8613   -1.4146 C   0  0  0  0  0  0  0  0  0  0  0  0
    6.6723   -1.7669   -2.2061 C   0  0  0  0  0  0  0  0  0  0  0  0
    6.7821   -0.9731   -3.3573 C   0  0  0  0  0  0  0  0  0  0  0  0
    7.9748   -0.9391   -4.0857 C   0  0  0  0  0  0  0  0  0  0  0  0
    9.0661   -1.7080   -3.6823 C   0  0  0  0  0  0  0  0  0  0  0  0
    8.9635   -2.5152   -2.5515 C   0  0  0  0  0  0  0  0  0  0  0  0
    7.7729   -2.5423   -1.8299 C   0  0  0  0  0  0  0  0  0  0  0  0
    7.6904   -3.3393   -0.7543 F   0  0  0  0  0  0  0  0  0  0  0  0
    2.8435    0.6828   -0.9081 C   0  0  0  0  0  0  0  0  0  0  0  0
    1.6117    0.8961   -0.2829 C   0  0  0  0  0  0  0  0  0  0  0  0
   -5.3727    0.9352    2.7591 C   0  0  0  0  0  0  0  0  0  0  0  0
   -6.6631    1.1621    3.2539 C   0  0  0  0  0  0  0  0  0  0  0  0
   -9.7274    3.2832    1.8365 H   0  0  0  0  0  0  0  0  0  0  0  0
  -10.1934    1.5882    1.4194 H   0  0  0  0  0  0  0  0  0  0  0  0
  -10.8428    2.3725    2.8639 H   0  0  0  0  0  0  0  0  0  0  0  0
   -8.1589    2.2036    0.3848 H   0  0  0  0  0  0  0  0  0  0  0  0
   -5.9272    1.8092   -0.4768 H   0  0  0  0  0  0  0  0  0  0  0  0
   -3.7869    1.1719   -0.1688 H   0  0  0  0  0  0  0  0  0  0  0  0
   -0.2388   -0.1465    2.1892 H   0  0  0  0  0  0  0  0  0  0  0  0
    1.1948   -2.1914    1.0850 H   0  0  0  0  0  0  0  0  0  0  0  0
    3.3413   -2.5608    0.0012 H   0  0  0  0  0  0  0  0  0  0  0  0
    4.7873   -2.6691   -1.8452 H   0  0  0  0  0  0  0  0  0  0  0  0
    5.6285   -2.0811   -0.3665 H   0  0  0  0  0  0  0  0  0  0  0  0
    5.9383   -0.3721   -3.6918 H   0  0  0  0  0  0  0  0  0  0  0  0
    8.0496   -0.3118   -4.9708 H   0  0  0  0  0  0  0  0  0  0  0  0
    9.9921   -1.6806   -4.2508 H   0  0  0  0  0  0  0  0  0  0  0  0
    9.8005   -3.1256   -2.2285 H   0  0  0  0  0  0  0  0  0  0  0  0
    3.3117    1.4937   -1.4621 H   0  0  0  0  0  0  0  0  0  0  0  0
    1.1535    1.8798   -0.3550 H   0  0  0  0  0  0  0  0  0  0  0  0
   -4.6238    0.5806    3.4596 H   0  0  0  0  0  0  0  0  0  0  0  0
   -6.8699    0.9790    4.3059 H   0  0  0  0  0  0  0  0  0  0  0  0
  1  2  1  0
  2  3  1  0
  3  4  2  0
  4  5  1  0
  5  6  2  0
  6  7  1  0
  7  8  1  0
  8  9  2  0
  8 10  1  0
 10 11  1  0
 11 12  3  0
 10 13  2  3
 13 14  1  0
 14 15  2  0
 15 16  1  0
 16 17  2  0
 17 18  1  0
 18 19  1  0
 19 20  1  0
 20 21  2  0
 21 22  1  0
 22 23  2  0
 23 24  1  0
 24 25  2  0
 25 26  1  0
 17 27  1  0
 27 28  2  0
  6 29  1  0
 29 30  2  0
 30  3  1  0
 28 14  1  0
 25 20  1  0
  1 31  1  0
  1 32  1  0
  1 33  1  0
  4 34  1  0
  5 35  1  0
  7 36  1  0
 13 37  1  0
 15 38  1  0
 16 39  1  0
 19 40  1  0
 19 41  1  0
 21 42  1  0
 22 43  1  0
 23 44  1  0
 24 45  1  0
 27 46  1  0
 28 47  1  0
 29 48  1  0
 30 49  1  0
M  END
$$$$
