
     RDKit          3D

 41 42  0  0  0  0  0  0  0  0999 V2000
   -1.7114    3.5134   -0.3261 O   0  0  0  0  0  0  0  0  0  0  0  0
   -0.7672    2.7249   -0.3535 C   0  0  0  0  0  0  0  0  0  0  0  0
    0.6827    3.2048   -0.4143 C   0  0  0  0  0  0  0  0  0  0  0  0
    1.6081    2.1261   -0.5195 O   0  0  0  0  0  0  0  0  0  0  0  0
    2.9049    2.6539   -0.5636 N   0  0  0  0  0  0  0  0  0  0  0  0
    3.8198    1.7481   -0.7460 C   0  0  0  0  0  0  0  0  0  0  0  0
    3.6718    0.2814   -0.8247 C   0  0  0  0  0  0  0  0  0  0  0  0
    4.4967   -0.4100   -1.7227 C   0  0  0  0  0  0  0  0  0  0  0  0
    4.4131   -1.8015   -1.8250 C   0  0  0  0  0  0  0  0  0  0  0  0
    3.5113   -2.5065   -1.0262 C   0  0  0  0  0  0  0  0  0  0  0  0
    2.7040   -1.8083   -0.1164 C   0  0  0  0  0  0  0  0  0  0  0  0
    1.7524   -2.5441    0.7216 N   0  0  0  0  0  4  0  0  0  0  0  0
    1.8803   -3.7755    0.7858 O   0  0  0  0  0  0  0  0  0  0  0  0
    0.8707   -1.8871    1.3041 O   0  0  0  0  0  1  0  0  0  0  0  0
    2.7889   -0.4158    0.0024 C   0  0  0  0  0  0  0  0  0  0  0  0
   -0.9286    1.3542   -0.3259 N   0  0  0  0  0  0  0  0  0  0  0  0
   -2.2252    0.7305   -0.1070 C   0  0  0  0  0  0  0  0  0  0  0  0
   -2.2358   -0.6887   -0.6883 C   0  0  0  0  0  0  0  0  0  0  0  0
   -3.5606   -1.3993   -0.4179 C   0  0  0  0  0  0  0  0  0  0  0  0
   -3.9102   -1.4013    1.0711 C   0  0  0  0  0  0  0  0  0  0  0  0
   -3.9036    0.0095    1.6501 C   0  0  0  0  0  0  0  0  0  0  0  0
   -2.5754    0.7160    1.3887 C   0  0  0  0  0  0  0  0  0  0  0  0
    0.8859    3.7687    0.5042 H   0  0  0  0  0  0  0  0  0  0  0  0
    0.7858    3.8597   -1.2871 H   0  0  0  0  0  0  0  0  0  0  0  0
    4.8499    2.1205   -0.8814 H   0  0  0  0  0  0  0  0  0  0  0  0
    5.2021    0.1292   -2.3552 H   0  0  0  0  0  0  0  0  0  0  0  0
    5.0501   -2.3350   -2.5298 H   0  0  0  0  0  0  0  0  0  0  0  0
    3.4517   -3.5894   -1.1223 H   0  0  0  0  0  0  0  0  0  0  0  0
    2.1971    0.1188    0.7412 H   0  0  0  0  0  0  0  0  0  0  0  0
   -0.0918    0.7998   -0.1636 H   0  0  0  0  0  0  0  0  0  0  0  0
   -2.9773    1.3329   -0.6348 H   0  0  0  0  0  0  0  0  0  0  0  0
   -2.0522   -0.6502   -1.7714 H   0  0  0  0  0  0  0  0  0  0  0  0
   -1.4153   -1.2787   -0.2567 H   0  0  0  0  0  0  0  0  0  0  0  0
   -3.5050   -2.4318   -0.7828 H   0  0  0  0  0  0  0  0  0  0  0  0
   -4.3617   -0.9018   -0.9810 H   0  0  0  0  0  0  0  0  0  0  0  0
   -4.8973   -1.8546    1.2205 H   0  0  0  0  0  0  0  0  0  0  0  0
   -3.1875   -2.0242    1.6147 H   0  0  0  0  0  0  0  0  0  0  0  0
   -4.0958   -0.0331    2.7286 H   0  0  0  0  0  0  0  0  0  0  0  0
   -4.7183    0.5918    1.2035 H   0  0  0  0  0  0  0  0  0  0  0  0
   -1.7784    0.2126    1.9513 H   0  0  0  0  0  0  0  0  0  0  0  0
   -2.6285    1.7404    1.7756 H   0  0  0  0  0  0  0  0  0  0  0  0
  1  2  2  0
  2  3  1  0
  3  4  1  0
  4  5  1  0
  5  6  2  3
  6  7  1  0
  7  8  2  0
  8  9  1  0
  9 10  2  0
 10 11  1  0
 11 12  1  0
 12 13  2  0
 12 14  1  0
 11 15  2  0
  2 16  1  0
 16 17  1  0
 17 18  1  0
 18 19  1  0
 19 20  1  0
 20 21  1  0
 21 22  1  0
 15  7  1  0
 22 17  1  0
  3 23  1  0
  3 24  1  0
  6 25  1  0
  8 26  1  0
  9 27  1  0
 10 28  1  0
 15 29  1  0
 16 30  1  0
 17 31  1  0
 18 32  1  0
 18 33  1  0
 19 34  1  0
 19 35  1  0
 20 36  1  0
 20 37  1  0
 21 38  1  0
 21 39  1  0
 22 40  1  0
 22 41  1  0
M  CHG  2  12   1  14  -1
M  END
$$$$
