
     RDKit          3D

 38 40  0  0  0  0  0  0  0  0999 V2000
   -3.5243   -2.6817   -2.6218 C   0  0  0  0  0  0  0  0  0  0  0  0
   -3.1578   -1.7525   -1.5025 C   0  0  0  0  0  0  0  0  0  0  0  0
   -3.2862   -2.1659   -0.1719 C   0  0  0  0  0  0  0  0  0  0  0  0
   -2.9132   -1.3168    0.8733 C   0  0  0  0  0  0  0  0  0  0  0  0
   -2.3828   -0.0440    0.6092 C   0  0  0  0  0  0  0  0  0  0  0  0
   -1.9940    0.8625    1.7535 C   0  0  0  0  0  0  0  0  0  0  0  0
   -0.5376    1.1877    1.6208 C   0  0  0  0  0  0  0  0  0  0  0  0
   -0.0033    2.5108    1.5452 C   0  0  0  0  0  0  0  0  0  0  0  0
    1.3684    2.4204    1.4823 C   0  0  0  0  0  0  0  0  0  0  0  0
    2.3029    3.3592    1.4037 O   0  0  0  0  0  0  0  0  0  0  0  0
    1.6982    1.0871    1.5101 N   0  0  0  0  0  0  0  0  0  0  0  0
    3.0552    0.5544    1.4705 C   0  0  0  0  0  0  0  0  0  0  0  0
    3.5138    0.2669    0.0845 C   0  0  0  0  0  0  0  0  0  0  0  0
    2.9862    0.4589   -1.1789 C   0  0  0  0  0  0  0  0  0  0  0  0
    3.9437   -0.0346   -2.0972 C   0  0  0  0  0  0  0  0  0  0  0  0
    4.9923   -0.5036   -1.3413 C   0  0  0  0  0  0  0  0  0  0  0  0
    4.7448   -0.3207   -0.0197 O   0  0  0  0  0  0  0  0  0  0  0  0
    0.5521    0.3293    1.6008 C   0  0  0  0  0  0  0  0  0  0  0  0
    0.6294   -0.9964    1.6360 O   0  0  0  0  0  0  0  0  0  0  0  0
   -2.2615    0.3668   -0.7268 C   0  0  0  0  0  0  0  0  0  0  0  0
   -2.6341   -0.4832   -1.7716 C   0  0  0  0  0  0  0  0  0  0  0  0
   -4.4160   -3.2654   -2.3661 H   0  0  0  0  0  0  0  0  0  0  0  0
   -2.6959   -3.3687   -2.8201 H   0  0  0  0  0  0  0  0  0  0  0  0
   -3.7481   -2.1260   -3.5398 H   0  0  0  0  0  0  0  0  0  0  0  0
   -3.6822   -3.1527    0.0588 H   0  0  0  0  0  0  0  0  0  0  0  0
   -3.0380   -1.6607    1.8984 H   0  0  0  0  0  0  0  0  0  0  0  0
   -2.6119    1.7676    1.7230 H   0  0  0  0  0  0  0  0  0  0  0  0
   -2.1697    0.3793    2.7218 H   0  0  0  0  0  0  0  0  0  0  0  0
   -0.5750    3.4294    1.5471 H   0  0  0  0  0  0  0  0  0  0  0  0
    1.8491    4.2202    1.3929 H   0  0  0  0  0  0  0  0  0  0  0  0
    3.7181    1.2836    1.9495 H   0  0  0  0  0  0  0  0  0  0  0  0
    3.0772   -0.3554    2.0807 H   0  0  0  0  0  0  0  0  0  0  0  0
    2.0258    0.9050   -1.4043 H   0  0  0  0  0  0  0  0  0  0  0  0
    3.8766   -0.0514   -3.1752 H   0  0  0  0  0  0  0  0  0  0  0  0
    5.9387   -0.9711   -1.5793 H   0  0  0  0  0  0  0  0  0  0  0  0
   -0.2674   -1.3441    1.4831 H   0  0  0  0  0  0  0  0  0  0  0  0
   -1.8624    1.3514   -0.9640 H   0  0  0  0  0  0  0  0  0  0  0  0
   -2.5112   -0.1455   -2.7982 H   0  0  0  0  0  0  0  0  0  0  0  0
  1  2  1  0
  2  3  2  0
  3  4  1  0
  4  5  2  0
  5  6  1  0
  6  7  1  0
  7  8  1  0
  8  9  2  0
  9 10  1  0
  9 11  1  0
 11 12  1  0
 12 13  1  0
 13 14  2  0
 14 15  1  0
 15 16  2  0
 16 17  1  0
 11 18  1  0
 18 19  1  0
  5 20  1  0
 20 21  2  0
 21  2  1  0
 18  7  2  0
 17 13  1  0
  1 22  1  0
  1 23  1  0
  1 24  1  0
  3 25  1  0
  4 26  1  0
  6 27  1  0
  6 28  1  0
  8 29  1  0
 10 30  1  0
 12 31  1  0
 12 32  1  0
 14 33  1  0
 15 34  1  0
 16 35  1  0
 19 36  1  0
 20 37  1  0
 21 38  1  0
M  END
$$$$
