
     RDKit          3D

 42 44  0  0  0  0  0  0  0  0999 V2000
   -2.4667    0.9818   -4.8940 C   0  0  0  0  0  0  0  0  0  0  0  0
   -3.5015    0.6893   -3.9663 O   0  0  0  0  0  0  0  0  0  0  0  0
   -3.1381    0.4222   -2.6721 C   0  0  0  0  0  0  0  0  0  0  0  0
   -1.8329    0.4746   -2.1752 C   0  0  0  0  0  0  0  0  0  0  0  0
   -1.5578    0.1829   -0.8269 C   0  0  0  0  0  0  0  0  0  0  0  0
   -0.1618    0.3078   -0.3665 C   0  0  0  0  0  0  0  0  0  0  0  0
    0.5300   -0.5123    0.4535 C   0  0  0  0  0  0  0  0  0  0  0  0
   -0.0329   -1.7074    0.9944 C   0  0  0  0  0  0  0  0  0  0  0  0
   -0.4929   -2.6436    1.5043 N   0  0  0  0  0  0  0  0  0  0  0  0
    1.8999   -0.1756    0.6955 C   0  0  0  0  0  0  0  0  0  0  0  0
    2.7790    0.2842   -0.1783 N   0  0  0  0  0  0  0  0  0  0  0  0
    3.9619    0.4248    0.4956 C   0  0  0  0  0  0  0  0  0  0  0  0
    5.2115    0.8482    0.0208 C   0  0  0  0  0  0  0  0  0  0  0  0
    6.2856    0.9131    0.9159 C   0  0  0  0  0  0  0  0  0  0  0  0
    6.1185    0.5590    2.2541 C   0  0  0  0  0  0  0  0  0  0  0  0
    4.8770    0.1370    2.7447 C   0  0  0  0  0  0  0  0  0  0  0  0
    3.8122    0.0870    1.8346 C   0  0  0  0  0  0  0  0  0  0  0  0
    2.4804   -0.2555    1.9531 N   0  0  0  0  0  0  0  0  0  0  0  0
    1.8377   -0.5800    3.2069 C   0  0  0  0  0  0  0  0  0  0  0  0
   -2.6147   -0.1408    0.0378 C   0  0  0  0  0  0  0  0  0  0  0  0
   -3.9208   -0.2193   -0.4461 C   0  0  0  0  0  0  0  0  0  0  0  0
   -5.0304   -0.5434    0.2927 O   0  0  0  0  0  0  0  0  0  0  0  0
   -4.7930   -1.1289    1.5684 C   0  0  0  0  0  0  0  0  0  0  0  0
   -4.1699    0.0745   -1.7938 C   0  0  0  0  0  0  0  0  0  0  0  0
   -5.4635    0.0139   -2.2545 O   0  0  0  0  0  0  0  0  0  0  0  0
   -1.9485    1.9093   -4.6269 H   0  0  0  0  0  0  0  0  0  0  0  0
   -1.7640    0.1455   -4.9795 H   0  0  0  0  0  0  0  0  0  0  0  0
   -2.9276    1.1291   -5.8748 H   0  0  0  0  0  0  0  0  0  0  0  0
   -1.0062    0.7457   -2.8253 H   0  0  0  0  0  0  0  0  0  0  0  0
    0.3550    1.1724   -0.7902 H   0  0  0  0  0  0  0  0  0  0  0  0
    5.3332    1.1188   -1.0227 H   0  0  0  0  0  0  0  0  0  0  0  0
    7.2588    1.2419    0.5594 H   0  0  0  0  0  0  0  0  0  0  0  0
    6.9697    0.6112    2.9313 H   0  0  0  0  0  0  0  0  0  0  0  0
    4.7600   -0.1375    3.7867 H   0  0  0  0  0  0  0  0  0  0  0  0
    2.3872   -0.1227    4.0324 H   0  0  0  0  0  0  0  0  0  0  0  0
    1.8339   -1.6662    3.3189 H   0  0  0  0  0  0  0  0  0  0  0  0
    0.8221   -0.1767    3.2135 H   0  0  0  0  0  0  0  0  0  0  0  0
   -2.4130   -0.3132    1.0893 H   0  0  0  0  0  0  0  0  0  0  0  0
   -4.3840   -0.3921    2.2678 H   0  0  0  0  0  0  0  0  0  0  0  0
   -4.1422   -2.0069    1.4930 H   0  0  0  0  0  0  0  0  0  0  0  0
   -5.7568   -1.4634    1.9643 H   0  0  0  0  0  0  0  0  0  0  0  0
   -5.9945   -0.2887   -1.4941 H   0  0  0  0  0  0  0  0  0  0  0  0
  1  2  1  0
  2  3  1  0
  3  4  2  0
  4  5  1  0
  5  6  1  0
  6  7  2  3
  7  8  1  0
  8  9  3  0
  7 10  1  0
 10 11  2  0
 11 12  1  0
 12 13  2  0
 13 14  1  0
 14 15  2  0
 15 16  1  0
 16 17  2  0
 17 18  1  0
 18 19  1  0
  5 20  2  0
 20 21  1  0
 21 22  1  0
 22 23  1  0
 21 24  2  0
 24 25  1  0
 24  3  1  0
 18 10  1  0
 17 12  1  0
  1 26  1  0
  1 27  1  0
  1 28  1  0
  4 29  1  0
  6 30  1  0
 13 31  1  0
 14 32  1  0
 15 33  1  0
 16 34  1  0
 19 35  1  0
 19 36  1  0
 19 37  1  0
 20 38  1  0
 23 39  1  0
 23 40  1  0
 23 41  1  0
 25 42  1  0
M  END
$$$$
