
     RDKit          3D

 31 33  0  0  0  0  0  0  0  0999 V2000
    5.4260    0.4970   -1.9058 O   0  0  0  0  0  0  0  0  0  0  0  0
    4.4137    0.8717   -1.3379 C   0  0  0  0  0  0  0  0  0  0  0  0
    3.8518    2.0631   -1.6560 O   0  0  0  0  0  0  0  0  0  0  0  0
    3.6962    0.1596   -0.2115 C   0  0  0  0  0  0  0  0  0  0  0  0
    2.2844    0.6361   -0.1146 N   0  0  0  0  0  0  0  0  0  0  0  0
    1.6275    0.4647    1.4303 S   0  0  0  0  0  6  0  0  0  0  0  0
    1.9818    1.6798    2.1301 O   0  0  0  0  0  0  0  0  0  0  0  0
    1.9831   -0.8387    1.9416 O   0  0  0  0  0  0  0  0  0  0  0  0
   -0.1131    0.4828    1.0969 C   0  0  0  0  0  0  0  0  0  0  0  0
   -0.8887    1.5587    1.6106 C   0  0  0  0  0  0  0  0  0  0  0  0
   -2.2722    1.6319    1.3809 C   0  0  0  0  0  0  0  0  0  0  0  0
   -2.8407    0.6211    0.6425 C   0  0  0  0  0  0  0  0  0  0  0  0
   -2.0836   -0.4130    0.1565 C   0  0  0  0  0  0  0  0  0  0  0  0
   -2.8880   -1.2807   -0.5381 C   0  0  0  0  0  0  0  0  0  0  0  0
   -2.3701   -2.4126   -1.1296 C   0  0  0  0  0  0  0  0  0  0  0  0
   -0.9934   -2.6367   -0.9897 C   0  0  0  0  0  0  0  0  0  0  0  0
   -0.1721   -1.7338   -0.2707 C   0  0  0  0  0  0  0  0  0  0  0  0
   -0.7117   -0.5642    0.3382 C   0  0  0  0  0  0  0  0  0  0  0  0
   -4.2633   -0.7389   -0.4802 C   0  0  0  0  0  0  0  0  0  0  0  0
   -5.2541   -1.2279   -0.9820 O   0  0  0  0  0  0  0  0  0  0  0  0
   -4.1645    0.4298    0.2597 N   0  0  0  0  0  0  0  0  0  0  0  0
    4.4274    2.4076   -2.3733 H   0  0  0  0  0  0  0  0  0  0  0  0
    4.2480    0.3803    0.7075 H   0  0  0  0  0  0  0  0  0  0  0  0
    3.6911   -0.9149   -0.4136 H   0  0  0  0  0  0  0  0  0  0  0  0
    2.2701    1.6323   -0.3707 H   0  0  0  0  0  0  0  0  0  0  0  0
   -0.4138    2.3451    2.1969 H   0  0  0  0  0  0  0  0  0  0  0  0
   -2.8606    2.4532    1.7746 H   0  0  0  0  0  0  0  0  0  0  0  0
   -3.0068   -3.0994   -1.6771 H   0  0  0  0  0  0  0  0  0  0  0  0
   -0.5454   -3.5218   -1.4383 H   0  0  0  0  0  0  0  0  0  0  0  0
    0.8899   -1.9586   -0.1882 H   0  0  0  0  0  0  0  0  0  0  0  0
   -4.9492    1.0262    0.4734 H   0  0  0  0  0  0  0  0  0  0  0  0
  1  2  2  0
  2  3  1  0
  2  4  1  0
  4  5  1  0
  5  6  1  0
  6  7  2  0
  6  8  2  0
  6  9  1  0
  9 10  2  0
 10 11  1  0
 11 12  2  0
 12 13  1  0
 13 14  2  0
 14 15  1  0
 15 16  2  0
 16 17  1  0
 17 18  2  0
 14 19  1  0
 19 20  2  0
 19 21  1  0
 18  9  1  0
 21 12  1  0
 18 13  1  0
  3 22  1  0
  4 23  1  0
  4 24  1  0
  5 25  1  0
 10 26  1  0
 11 27  1  0
 15 28  1  0
 16 29  1  0
 17 30  1  0
 21 31  1  0
M  END
$$$$
