
     RDKit          3D

 41 42  0  0  0  0  0  0  0  0999 V2000
   -6.5381   -0.8847   -0.0385 C   0  0  0  0  0  0  0  0  0  0  0  0
   -5.3215   -1.0173   -0.9353 C   0  0  0  0  0  0  0  0  0  0  0  0
   -4.1365   -0.6282   -0.2251 O   0  0  0  0  0  0  0  0  0  0  0  0
   -3.8438    0.7003   -0.2339 C   0  0  0  0  0  0  0  0  0  0  0  0
   -4.5115    1.5409   -0.8235 O   0  0  0  0  0  0  0  0  0  0  0  0
   -2.6998    0.9925    0.4879 N   0  0  0  0  0  0  0  0  0  0  0  0
   -2.1233    2.3354    0.3767 C   0  0  0  0  0  0  0  0  0  0  0  0
   -0.9468    2.3065   -0.6158 C   0  0  0  0  0  0  0  0  0  0  0  0
    0.0489    1.2695   -0.2356 N   0  0  0  0  0  0  0  0  0  0  0  0
    1.2337    1.5893    0.4686 C   0  0  0  0  0  0  0  0  0  0  0  0
    1.5351    3.0721    1.1881 S   0  0  0  0  0  0  0  0  0  0  0  0
    2.1405    0.5225    0.4428 N   0  0  0  0  0  0  0  0  0  0  0  0
    3.3635    0.3941    1.0970 C   0  0  0  0  0  0  0  0  0  0  0  0
    3.6698    0.9095    2.1641 O   0  0  0  0  0  0  0  0  0  0  0  0
    4.3365   -0.5381    0.4671 C   0  0  0  0  0  0  0  0  0  0  0  0
    3.9333   -1.7244   -0.1675 C   0  0  0  0  0  0  0  0  0  0  0  0
    4.8908   -2.5688   -0.7378 C   0  0  0  0  0  0  0  0  0  0  0  0
    6.2392   -2.2307   -0.6643 C   0  0  0  0  0  0  0  0  0  0  0  0
    7.1491   -3.0454   -1.2145 F   0  0  0  0  0  0  0  0  0  0  0  0
    6.6392   -1.0652   -0.0210 C   0  0  0  0  0  0  0  0  0  0  0  0
    7.9391   -0.7492    0.0512 F   0  0  0  0  0  0  0  0  0  0  0  0
    5.6978   -0.2169    0.5512 C   0  0  0  0  0  0  0  0  0  0  0  0
   -0.5631   -0.0766   -0.1023 C   0  0  0  0  0  0  0  0  0  0  0  0
   -1.7397   -0.0372    0.8953 C   0  0  0  0  0  0  0  0  0  0  0  0
   -6.6930    0.1559    0.2633 H   0  0  0  0  0  0  0  0  0  0  0  0
   -6.4037   -1.4660    0.8797 H   0  0  0  0  0  0  0  0  0  0  0  0
   -7.4377   -1.2371   -0.5509 H   0  0  0  0  0  0  0  0  0  0  0  0
   -5.4392   -0.4437   -1.8618 H   0  0  0  0  0  0  0  0  0  0  0  0
   -5.1904   -2.0656   -1.2229 H   0  0  0  0  0  0  0  0  0  0  0  0
   -2.8748    3.0610    0.0506 H   0  0  0  0  0  0  0  0  0  0  0  0
   -1.7829    2.6277    1.3762 H   0  0  0  0  0  0  0  0  0  0  0  0
   -0.4848    3.2928   -0.7052 H   0  0  0  0  0  0  0  0  0  0  0  0
   -1.3107    2.0325   -1.6140 H   0  0  0  0  0  0  0  0  0  0  0  0
    2.0478    0.0060   -0.4180 H   0  0  0  0  0  0  0  0  0  0  0  0
    2.8894   -2.0247   -0.1973 H   0  0  0  0  0  0  0  0  0  0  0  0
    4.5992   -3.4933   -1.2280 H   0  0  0  0  0  0  0  0  0  0  0  0
    6.0289    0.6864    1.0579 H   0  0  0  0  0  0  0  0  0  0  0  0
   -0.9158   -0.3688   -1.0983 H   0  0  0  0  0  0  0  0  0  0  0  0
    0.1613   -0.8222    0.2347 H   0  0  0  0  0  0  0  0  0  0  0  0
   -2.2074   -1.0231    0.9642 H   0  0  0  0  0  0  0  0  0  0  0  0
   -1.3786    0.2320    1.8950 H   0  0  0  0  0  0  0  0  0  0  0  0
  1  2  1  0
  2  3  1  0
  3  4  1  0
  4  5  2  0
  4  6  1  0
  6  7  1  0
  7  8  1  0
  8  9  1  0
  9 10  1  0
 10 11  2  0
 10 12  1  0
 12 13  1  0
 13 14  2  0
 13 15  1  0
 15 16  2  0
 16 17  1  0
 17 18  2  0
 18 19  1  0
 18 20  1  0
 20 21  1  0
 20 22  2  0
  9 23  1  0
 23 24  1  0
 24  6  1  0
 22 15  1  0
  1 25  1  0
  1 26  1  0
  1 27  1  0
  2 28  1  0
  2 29  1  0
  7 30  1  0
  7 31  1  0
  8 32  1  0
  8 33  1  0
 12 34  1  0
 16 35  1  0
 17 36  1  0
 22 37  1  0
 23 38  1  0
 23 39  1  0
 24 40  1  0
 24 41  1  0
M  END
$$$$
