
     RDKit          3D

 44 47  0  0  0  0  0  0  0  0999 V2000
   -7.5380   -1.0018   -1.9707 C   0  0  0  0  0  0  0  0  0  0  0  0
   -6.7676   -1.9926   -1.1115 C   0  0  0  0  0  0  0  0  0  0  0  0
   -5.5308   -1.3730   -0.5141 C   0  0  0  0  0  0  0  0  0  0  0  0
   -5.5832   -0.7279    0.7250 C   0  0  0  0  0  0  0  0  0  0  0  0
   -4.4349   -0.1417    1.2671 C   0  0  0  0  0  0  0  0  0  0  0  0
   -3.2146   -0.1843    0.5809 C   0  0  0  0  0  0  0  0  0  0  0  0
   -2.1076    0.4336    1.1999 N   0  0  0  0  0  0  0  0  0  0  0  0
   -0.8013    0.5093    0.7246 C   0  0  0  0  0  0  0  0  0  0  0  0
   -0.3943    0.0450   -0.3365 O   0  0  0  0  0  0  0  0  0  0  0  0
    0.1015    1.2906    1.6891 C   0  0  0  0  0  0  0  0  0  0  0  0
    1.4958    1.2304    1.2837 N   0  0  0  0  0  0  0  0  0  0  0  0
    1.9737    2.2942    0.5176 N   0  0  0  0  0  0  0  0  0  0  0  0
    3.1895    2.2273    0.0610 C   0  0  0  0  0  0  0  0  0  0  0  0
    4.0106    1.1414    0.3329 N   0  0  0  0  0  0  0  0  0  0  0  0
    3.5778    0.0924    1.0956 C   0  0  0  0  0  0  0  0  0  0  0  0
    4.6063   -0.8180    1.1991 C   0  0  0  0  0  0  0  0  0  0  0  0
    5.7107   -0.2994    0.4700 C   0  0  0  0  0  0  0  0  0  0  0  0
    7.0139   -0.7696    0.2172 C   0  0  0  0  0  0  0  0  0  0  0  0
    7.8844    0.0000   -0.5611 C   0  0  0  0  0  0  0  0  0  0  0  0
    7.4739    1.2220   -1.0860 C   0  0  0  0  0  0  0  0  0  0  0  0
    6.1854    1.7115   -0.8505 C   0  0  0  0  0  0  0  0  0  0  0  0
    5.3175    0.9320   -0.0674 C   0  0  0  0  0  0  0  0  0  0  0  0
    2.2417    0.0894    1.6231 C   0  0  0  0  0  0  0  0  0  0  0  0
    1.7969   -0.8177    2.3224 O   0  0  0  0  0  0  0  0  0  0  0  0
   -3.1650   -0.8220   -0.6581 C   0  0  0  0  0  0  0  0  0  0  0  0
   -4.3135   -1.4096   -1.2022 C   0  0  0  0  0  0  0  0  0  0  0  0
   -7.8609   -0.1347   -1.3847 H   0  0  0  0  0  0  0  0  0  0  0  0
   -8.4295   -1.4783   -2.3906 H   0  0  0  0  0  0  0  0  0  0  0  0
   -6.9254   -0.6362   -2.8018 H   0  0  0  0  0  0  0  0  0  0  0  0
   -6.4889   -2.8665   -1.7128 H   0  0  0  0  0  0  0  0  0  0  0  0
   -7.4148   -2.3700   -0.3104 H   0  0  0  0  0  0  0  0  0  0  0  0
   -6.5186   -0.6773    1.2776 H   0  0  0  0  0  0  0  0  0  0  0  0
   -4.5143    0.3476    2.2341 H   0  0  0  0  0  0  0  0  0  0  0  0
   -2.2905    0.8502    2.1039 H   0  0  0  0  0  0  0  0  0  0  0  0
   -0.2213    2.3374    1.7092 H   0  0  0  0  0  0  0  0  0  0  0  0
   -0.0017    0.8696    2.6953 H   0  0  0  0  0  0  0  0  0  0  0  0
    3.5870    3.0494   -0.5535 H   0  0  0  0  0  0  0  0  0  0  0  0
    4.5626   -1.7556    1.7396 H   0  0  0  0  0  0  0  0  0  0  0  0
    7.3424   -1.7231    0.6215 H   0  0  0  0  0  0  0  0  0  0  0  0
    8.8906   -0.3628   -0.7578 H   0  0  0  0  0  0  0  0  0  0  0  0
    8.1658    1.8047   -1.6905 H   0  0  0  0  0  0  0  0  0  0  0  0
    5.8803    2.6653   -1.2694 H   0  0  0  0  0  0  0  0  0  0  0  0
   -2.2473   -0.8835   -1.2340 H   0  0  0  0  0  0  0  0  0  0  0  0
   -4.2443   -1.8974   -2.1723 H   0  0  0  0  0  0  0  0  0  0  0  0
  1  2  1  0
  2  3  1  0
  3  4  2  0
  4  5  1  0
  5  6  2  0
  6  7  1  0
  7  8  1  0
  8  9  2  0
  8 10  1  0
 10 11  1  0
 11 12  1  0
 12 13  2  0
 13 14  1  0
 14 15  1  0
 15 16  2  0
 16 17  1  0
 17 18  2  0
 18 19  1  0
 19 20  2  0
 20 21  1  0
 21 22  2  0
 15 23  1  0
 23 24  2  0
  6 25  1  0
 25 26  2  0
 26  3  1  0
 23 11  1  0
 22 14  1  0
 22 17  1  0
  1 27  1  0
  1 28  1  0
  1 29  1  0
  2 30  1  0
  2 31  1  0
  4 32  1  0
  5 33  1  0
  7 34  1  0
 10 35  1  0
 10 36  1  0
 13 37  1  0
 16 38  1  0
 18 39  1  0
 19 40  1  0
 20 41  1  0
 21 42  1  0
 25 43  1  0
 26 44  1  0
M  END
$$$$
