
     RDKit          3D

 46 48  0  0  0  0  0  0  0  0999 V2000
    3.6462   -2.8022   -2.5615 C   0  0  0  0  0  0  0  0  0  0  0  0
    3.9013   -2.8807   -1.0681 C   0  0  0  0  0  0  0  0  0  0  0  0
    2.8498   -2.2188   -0.3517 O   0  0  0  0  0  0  0  0  0  0  0  0
    2.9936   -0.8687   -0.1737 C   0  0  0  0  0  0  0  0  0  0  0  0
    3.9656   -0.2360   -0.5775 O   0  0  0  0  0  0  0  0  0  0  0  0
    1.8067   -0.2690    0.5992 C   0  0  0  0  0  0  0  0  0  0  0  0
    2.1352   -0.5855    2.0793 C   0  0  0  0  0  0  0  0  0  0  0  0
    3.3206   -0.0637    2.4770 F   0  0  0  0  0  0  0  0  0  0  0  0
    2.1755   -1.9137    2.3432 F   0  0  0  0  0  0  0  0  0  0  0  0
    1.1881   -0.0595    2.9057 F   0  0  0  0  0  0  0  0  0  0  0  0
    1.7779    1.1839    0.3487 N   0  0  0  0  0  0  0  0  0  0  0  0
    0.6232    1.7215    0.4828 C   0  0  0  0  0  0  0  0  0  0  0  0
    0.4033    3.1806    0.4204 C   0  0  0  0  0  0  0  0  0  0  0  0
    1.4516    4.0296    0.0549 C   0  0  0  0  0  0  0  0  0  0  0  0
    1.2362    5.4052   -0.0021 C   0  0  0  0  0  0  0  0  0  0  0  0
   -0.0246    5.8874    0.3103 C   0  0  0  0  0  0  0  0  0  0  0  0
   -1.0609    5.0985    0.6703 N   0  0  0  0  0  0  0  0  0  0  0  0
   -0.8221    3.7639    0.7205 C   0  0  0  0  0  0  0  0  0  0  0  0
   -0.5293    1.0569    0.6639 O   0  0  0  0  0  0  0  0  0  0  0  0
   -0.5129   -0.2443    0.3005 C   0  0  0  0  0  0  0  0  0  0  0  0
   -1.7712   -0.7635    0.0842 N   0  0  0  0  0  0  0  0  0  0  0  0
   -1.9353   -2.1929   -0.2047 C   0  0  0  0  0  0  0  0  0  0  0  0
   -3.2610   -2.7067    0.3478 C   0  0  0  0  0  0  0  0  0  0  0  0
   -4.4559   -1.9675   -0.2486 C   0  0  0  0  0  0  0  0  0  0  0  0
   -4.1018   -0.5538   -0.7011 C   0  0  0  0  0  0  0  0  0  0  0  0
   -2.9847    0.0547    0.1408 C   0  0  0  0  0  0  0  0  0  0  0  0
    0.5652   -0.9224    0.1574 N   0  0  0  0  0  0  0  0  0  0  0  0
    2.6627   -3.2172   -2.8056 H   0  0  0  0  0  0  0  0  0  0  0  0
    4.4101   -3.3554   -3.1150 H   0  0  0  0  0  0  0  0  0  0  0  0
    3.6478   -1.7636   -2.9068 H   0  0  0  0  0  0  0  0  0  0  0  0
    3.8949   -3.9280   -0.7488 H   0  0  0  0  0  0  0  0  0  0  0  0
    4.8832   -2.4713   -0.8049 H   0  0  0  0  0  0  0  0  0  0  0  0
    2.4334    3.6278   -0.1873 H   0  0  0  0  0  0  0  0  0  0  0  0
    2.0347    6.0832   -0.2837 H   0  0  0  0  0  0  0  0  0  0  0  0
   -0.2404    6.9520    0.2797 H   0  0  0  0  0  0  0  0  0  0  0  0
   -1.6814    3.1746    1.0258 H   0  0  0  0  0  0  0  0  0  0  0  0
   -1.1308   -2.7800    0.2538 H   0  0  0  0  0  0  0  0  0  0  0  0
   -1.8813   -2.3534   -1.2879 H   0  0  0  0  0  0  0  0  0  0  0  0
   -3.2689   -2.5750    1.4378 H   0  0  0  0  0  0  0  0  0  0  0  0
   -3.3605   -3.7821    0.1624 H   0  0  0  0  0  0  0  0  0  0  0  0
   -5.2605   -1.9334    0.4958 H   0  0  0  0  0  0  0  0  0  0  0  0
   -4.8533   -2.5253   -1.1050 H   0  0  0  0  0  0  0  0  0  0  0  0
   -3.7819   -0.5852   -1.7509 H   0  0  0  0  0  0  0  0  0  0  0  0
   -4.9943    0.0810   -0.6659 H   0  0  0  0  0  0  0  0  0  0  0  0
   -2.7886    1.0617   -0.2450 H   0  0  0  0  0  0  0  0  0  0  0  0
   -3.3052    0.1564    1.1843 H   0  0  0  0  0  0  0  0  0  0  0  0
  1  2  1  0
  2  3  1  0
  3  4  1  0
  4  5  2  0
  4  6  1  0
  6  7  1  0
  7  8  1  0
  7  9  1  0
  7 10  1  0
  6 11  1  0
 11 12  2  0
 12 13  1  0
 13 14  2  0
 14 15  1  0
 15 16  2  0
 16 17  1  0
 17 18  2  0
 12 19  1  0
 19 20  1  0
 20 21  1  0
 21 22  1  0
 22 23  1  0
 23 24  1  0
 24 25  1  0
 25 26  1  0
 20 27  2  0
 27  6  1  0
 18 13  1  0
 26 21  1  0
  1 28  1  0
  1 29  1  0
  1 30  1  0
  2 31  1  0
  2 32  1  0
 14 33  1  0
 15 34  1  0
 16 35  1  0
 18 36  1  0
 22 37  1  0
 22 38  1  0
 23 39  1  0
 23 40  1  0
 24 41  1  0
 24 42  1  0
 25 43  1  0
 25 44  1  0
 26 45  1  0
 26 46  1  0
M  END
$$$$
