
     RDKit          3D

 46 49  0  0  0  0  0  0  0  0999 V2000
   -3.6690   -1.4379    1.9683 C   0  0  0  0  0  0  0  0  0  0  0  0
   -2.4764   -1.3928    1.0240 C   0  0  0  0  0  0  0  0  0  0  0  0
   -2.5910   -0.4045   -0.1605 C   0  0  0  0  0  0  0  0  0  0  0  0
   -3.6693   -0.8234   -1.1832 C   0  0  0  0  0  0  0  0  0  0  0  0
   -4.6369    0.2913   -1.5542 C   0  0  0  0  0  0  0  0  0  0  0  0
   -5.1386    0.9576   -0.2884 C   0  0  0  0  0  0  0  0  0  0  0  0
   -3.9957    1.6163    0.4712 C   0  0  0  0  0  0  0  0  0  0  0  0
   -2.6812    1.0051    0.2747 N   0  0  0  0  0  0  0  0  0  0  0  0
   -1.5955    1.7285    0.8110 C   0  0  0  0  0  0  0  0  0  0  0  0
   -1.7846    2.7426    1.4842 O   0  0  0  0  0  0  0  0  0  0  0  0
   -0.2491    1.2486    0.5651 C   0  0  0  0  0  0  0  0  0  0  0  0
    0.6732    0.8034    1.4909 C   0  0  0  0  0  0  0  0  0  0  0  0
    1.9178    0.4697    0.8798 C   0  0  0  0  0  0  0  0  0  0  0  0
    3.1224   -0.0554    1.4879 C   0  0  0  0  0  0  0  0  0  0  0  0
    3.1713   -0.3008    2.6922 O   0  0  0  0  0  0  0  0  0  0  0  0
    4.1836   -0.2553    0.5870 N   0  0  0  0  0  0  0  0  0  0  0  0
    5.3831   -0.7531    1.0854 C   0  0  0  0  0  0  0  0  0  0  0  0
    6.4401   -0.9771    0.2988 C   0  0  0  0  0  0  0  0  0  0  0  0
    6.3597   -0.7034   -1.1083 C   0  0  0  0  0  0  0  0  0  0  0  0
    5.2355   -0.2222   -1.6605 C   0  0  0  0  0  0  0  0  0  0  0  0
    5.1028    0.0807   -3.1205 C   0  0  0  0  0  0  0  0  0  0  0  0
    4.0372    0.0344   -0.7834 C   0  0  0  0  0  0  0  0  0  0  0  0
    2.9470    0.5009   -1.3253 N   0  0  0  0  0  0  0  0  0  0  0  0
    1.9197    0.7103   -0.4718 C   0  0  0  0  0  0  0  0  0  0  0  0
    0.4315    1.3522   -1.0046 S   0  0  0  0  0  0  0  0  0  0  0  0
   -3.5001   -2.1961    2.7404 H   0  0  0  0  0  0  0  0  0  0  0  0
   -4.5932   -1.7008    1.4476 H   0  0  0  0  0  0  0  0  0  0  0  0
   -3.8120   -0.4818    2.4780 H   0  0  0  0  0  0  0  0  0  0  0  0
   -1.5874   -1.1543    1.6184 H   0  0  0  0  0  0  0  0  0  0  0  0
   -2.3129   -2.4016    0.6240 H   0  0  0  0  0  0  0  0  0  0  0  0
   -1.6432   -0.5111   -0.6957 H   0  0  0  0  0  0  0  0  0  0  0  0
   -4.2400   -1.6835   -0.8134 H   0  0  0  0  0  0  0  0  0  0  0  0
   -3.1788   -1.1807   -2.0980 H   0  0  0  0  0  0  0  0  0  0  0  0
   -4.1401    1.0259   -2.1994 H   0  0  0  0  0  0  0  0  0  0  0  0
   -5.4764   -0.1224   -2.1238 H   0  0  0  0  0  0  0  0  0  0  0  0
   -5.9057    1.7044   -0.5226 H   0  0  0  0  0  0  0  0  0  0  0  0
   -5.6238    0.2100    0.3503 H   0  0  0  0  0  0  0  0  0  0  0  0
   -3.9175    2.6635    0.1509 H   0  0  0  0  0  0  0  0  0  0  0  0
   -4.2183    1.6377    1.5444 H   0  0  0  0  0  0  0  0  0  0  0  0
    0.4639    0.7150    2.5513 H   0  0  0  0  0  0  0  0  0  0  0  0
    5.4306   -0.9556    2.1530 H   0  0  0  0  0  0  0  0  0  0  0  0
    7.3694   -1.3651    0.7040 H   0  0  0  0  0  0  0  0  0  0  0  0
    7.2434   -0.8993   -1.7089 H   0  0  0  0  0  0  0  0  0  0  0  0
    4.8726    1.1399   -3.2750 H   0  0  0  0  0  0  0  0  0  0  0  0
    4.3052   -0.5213   -3.5680 H   0  0  0  0  0  0  0  0  0  0  0  0
    6.0268   -0.1386   -3.6663 H   0  0  0  0  0  0  0  0  0  0  0  0
  1  2  1  0
  2  3  1  0
  3  4  1  0
  4  5  1  0
  5  6  1  0
  6  7  1  0
  7  8  1  0
  8  9  1  0
  9 10  2  0
  9 11  1  0
 11 12  2  0
 12 13  1  0
 13 14  1  0
 14 15  2  0
 14 16  1  0
 16 17  1  0
 17 18  2  0
 18 19  1  0
 19 20  2  0
 20 21  1  0
 20 22  1  0
 22 23  2  0
 23 24  1  0
 24 25  1  0
  8  3  1  0
 25 11  1  0
 24 13  2  0
 22 16  1  0
  1 26  1  0
  1 27  1  0
  1 28  1  0
  2 29  1  0
  2 30  1  0
  3 31  1  0
  4 32  1  0
  4 33  1  0
  5 34  1  0
  5 35  1  0
  6 36  1  0
  6 37  1  0
  7 38  1  0
  7 39  1  0
 12 40  1  0
 17 41  1  0
 18 42  1  0
 19 43  1  0
 21 44  1  0
 21 45  1  0
 21 46  1  0
M  END
$$$$
