
     RDKit          3D

 35 37  0  0  0  0  0  0  0  0999 V2000
   -2.0218   -2.5204   -0.4455 C   0  0  0  0  0  0  0  0  0  0  0  0
   -1.2105   -1.2817   -0.2628 C   0  0  0  0  0  0  0  0  0  0  0  0
    0.0917   -1.3050   -0.1287 N   0  0  0  0  0  0  0  0  0  0  0  0
    0.4802    0.0284   -0.0363 N   0  0  0  0  0  0  0  0  0  0  0  0
    1.8029    0.3714    0.0991 C   0  0  0  0  0  0  0  0  0  0  0  0
    2.3520    1.5624    0.1985 N   0  0  0  0  0  0  0  0  0  0  0  0
    3.7026    1.3414    0.3140 C   0  0  0  0  0  0  0  0  0  0  0  0
    4.7538    2.2595    0.4481 C   0  0  0  0  0  0  0  0  0  0  0  0
    6.0630    1.7711    0.5489 C   0  0  0  0  0  0  0  0  0  0  0  0
    6.3194    0.3975    0.5169 C   0  0  0  0  0  0  0  0  0  0  0  0
    5.2830   -0.5343    0.3837 C   0  0  0  0  0  0  0  0  0  0  0  0
    3.9896   -0.0185    0.2854 C   0  0  0  0  0  0  0  0  0  0  0  0
    2.7631   -0.6089    0.1483 N   0  0  0  0  0  0  0  0  0  0  0  0
   -0.5566    0.9634   -0.1085 C   0  0  0  0  0  0  0  0  0  0  0  0
   -0.5828    2.1796   -0.0779 O   0  0  0  0  0  0  0  0  0  0  0  0
   -1.7487    0.0860   -0.2277 C   0  0  0  0  0  0  0  0  0  0  0  0
   -2.9926    0.5711   -0.2969 C   0  0  0  0  0  0  0  0  0  0  0  0
   -4.2256   -0.0780   -0.3434 N   0  0  0  0  0  0  0  0  0  0  0  0
   -4.6758   -0.8330    0.8380 C   0  0  0  0  0  0  0  0  0  0  0  0
   -5.3447    0.6083   -1.0112 C   0  0  0  0  0  0  0  0  0  0  0  0
   -2.8963   -2.3335   -1.0713 H   0  0  0  0  0  0  0  0  0  0  0  0
   -2.3337   -2.8998    0.5305 H   0  0  0  0  0  0  0  0  0  0  0  0
   -1.4119   -3.2855   -0.9355 H   0  0  0  0  0  0  0  0  0  0  0  0
    4.5457    3.3233    0.4718 H   0  0  0  0  0  0  0  0  0  0  0  0
    6.8874    2.4724    0.6531 H   0  0  0  0  0  0  0  0  0  0  0  0
    7.3459    0.0450    0.5970 H   0  0  0  0  0  0  0  0  0  0  0  0
    5.4823   -1.5999    0.3586 H   0  0  0  0  0  0  0  0  0  0  0  0
    2.5559   -1.5939    0.0881 H   0  0  0  0  0  0  0  0  0  0  0  0
   -3.1113    1.6563   -0.3438 H   0  0  0  0  0  0  0  0  0  0  0  0
   -5.3819   -1.6144    0.5382 H   0  0  0  0  0  0  0  0  0  0  0  0
   -5.1719   -0.1660    1.5519 H   0  0  0  0  0  0  0  0  0  0  0  0
   -3.8431   -1.3155    1.3574 H   0  0  0  0  0  0  0  0  0  0  0  0
   -6.1709   -0.0882   -1.1892 H   0  0  0  0  0  0  0  0  0  0  0  0
   -5.7105    1.4405   -0.3999 H   0  0  0  0  0  0  0  0  0  0  0  0
   -5.0277    0.9990   -1.9845 H   0  0  0  0  0  0  0  0  0  0  0  0
  1  2  1  0
  2  3  2  0
  3  4  1  0
  4  5  1  0
  5  6  2  0
  6  7  1  0
  7  8  2  0
  8  9  1  0
  9 10  2  0
 10 11  1  0
 11 12  2  0
 12 13  1  0
  4 14  1  0
 14 15  2  0
 14 16  1  0
 16 17  2  3
 17 18  1  0
 18 19  1  0
 18 20  1  0
 16  2  1  0
 13  5  1  0
 12  7  1  0
  1 21  1  0
  1 22  1  0
  1 23  1  0
  8 24  1  0
  9 25  1  0
 10 26  1  0
 11 27  1  0
 13 28  1  0
 17 29  1  0
 19 30  1  0
 19 31  1  0
 19 32  1  0
 20 33  1  0
 20 34  1  0
 20 35  1  0
M  END
$$$$
