
     RDKit          3D

 53 56  0  0  0  0  0  0  0  0999 V2000
    6.1078    1.3911   -1.5081 C   0  0  0  0  0  0  0  0  0  0  0  0
    4.6903    1.4742   -1.5929 O   0  0  0  0  0  0  0  0  0  0  0  0
    4.1032    1.8759   -0.3509 C   0  0  0  0  0  0  0  0  0  0  0  0
    2.5795    1.8459   -0.4647 C   0  0  0  0  0  0  0  0  0  0  0  0
    2.0138    0.5315   -0.1668 N   0  0  0  0  0  0  0  0  0  0  0  0
    1.7579   -0.4531   -1.0967 C   0  0  0  0  0  0  0  0  0  0  0  0
    2.0772   -0.3443   -2.5465 C   0  0  0  0  0  0  0  0  0  0  0  0
    1.2012   -1.5171   -0.4236 C   0  0  0  0  0  0  0  0  0  0  0  0
    1.0734   -1.1732    0.9509 C   0  0  0  0  0  0  0  0  0  0  0  0
    0.4843   -2.0570    1.9689 C   0  0  0  0  0  0  0  0  0  0  0  0
    0.6768   -3.2753    1.8997 O   0  0  0  0  0  0  0  0  0  0  0  0
   -0.3300   -1.4988    3.1249 C   0  0  0  0  0  0  0  0  0  0  0  0
   -1.5843   -0.2721    2.6263 S   0  0  0  0  0  0  0  0  0  0  0  0
   -2.4807   -1.2135    1.4267 C   0  0  0  0  0  0  0  0  0  0  0  0
   -2.5942   -2.5446    1.5969 N   0  0  0  0  0  0  0  0  0  0  0  0
   -3.2646   -3.2600    0.6750 C   0  0  0  0  0  0  0  0  0  0  0  0
   -3.3336   -4.7405    0.8960 C   0  0  0  0  0  0  0  0  0  0  0  0
   -3.8776   -2.7718   -0.4131 N   0  0  0  0  0  0  0  0  0  0  0  0
   -3.7475   -1.4419   -0.5428 C   0  0  0  0  0  0  0  0  0  0  0  0
   -4.4500   -0.6302   -1.8911 S   0  0  0  0  0  0  0  0  0  0  0  0
   -3.8591    0.8319   -1.3415 C   0  0  0  0  0  0  0  0  0  0  0  0
   -3.1488    0.7461   -0.1726 C   0  0  0  0  0  0  0  0  0  0  0  0
   -3.0685   -0.5857    0.3250 C   0  0  0  0  0  0  0  0  0  0  0  0
   -2.6428    2.0833    0.2335 C   0  0  0  0  0  0  0  0  0  0  0  0
   -3.4486    3.0478   -0.6934 C   0  0  0  0  0  0  0  0  0  0  0  0
   -3.9580    2.2012   -1.8999 C   0  0  0  0  0  0  0  0  0  0  0  0
    1.6378    0.0924    1.0963 C   0  0  0  0  0  0  0  0  0  0  0  0
    1.8755    0.9080    2.3233 C   0  0  0  0  0  0  0  0  0  0  0  0
    6.5343    2.3713   -1.2644 H   0  0  0  0  0  0  0  0  0  0  0  0
    6.4030    0.6497   -0.7556 H   0  0  0  0  0  0  0  0  0  0  0  0
    6.4934    1.0756   -2.4826 H   0  0  0  0  0  0  0  0  0  0  0  0
    4.4226    2.9051   -0.1464 H   0  0  0  0  0  0  0  0  0  0  0  0
    4.4584    1.2278    0.4596 H   0  0  0  0  0  0  0  0  0  0  0  0
    2.1281    2.5537    0.2392 H   0  0  0  0  0  0  0  0  0  0  0  0
    2.2506    2.1363   -1.4676 H   0  0  0  0  0  0  0  0  0  0  0  0
    1.6217   -1.1702   -3.1041 H   0  0  0  0  0  0  0  0  0  0  0  0
    1.6959    0.5863   -2.9774 H   0  0  0  0  0  0  0  0  0  0  0  0
    3.1589   -0.3949   -2.7047 H   0  0  0  0  0  0  0  0  0  0  0  0
    0.8930   -2.4540   -0.8732 H   0  0  0  0  0  0  0  0  0  0  0  0
    0.3446   -1.0516    3.8590 H   0  0  0  0  0  0  0  0  0  0  0  0
   -0.8371   -2.3285    3.6317 H   0  0  0  0  0  0  0  0  0  0  0  0
   -3.9372   -4.9572    1.7825 H   0  0  0  0  0  0  0  0  0  0  0  0
   -3.7840   -5.2458    0.0356 H   0  0  0  0  0  0  0  0  0  0  0  0
   -2.3268   -5.1435    1.0443 H   0  0  0  0  0  0  0  0  0  0  0  0
   -1.5708    2.1647    0.0265 H   0  0  0  0  0  0  0  0  0  0  0  0
   -2.8306    2.3122    1.2844 H   0  0  0  0  0  0  0  0  0  0  0  0
   -4.3145    3.4347   -0.1386 H   0  0  0  0  0  0  0  0  0  0  0  0
   -2.8518    3.9087   -1.0134 H   0  0  0  0  0  0  0  0  0  0  0  0
   -3.2942    2.3228   -2.7650 H   0  0  0  0  0  0  0  0  0  0  0  0
   -4.9810    2.4825   -2.1768 H   0  0  0  0  0  0  0  0  0  0  0  0
    1.0571    1.6168    2.4783 H   0  0  0  0  0  0  0  0  0  0  0  0
    2.8106    1.4723    2.2595 H   0  0  0  0  0  0  0  0  0  0  0  0
    1.9650    0.2747    3.2095 H   0  0  0  0  0  0  0  0  0  0  0  0
  1  2  1  0
  2  3  1  0
  3  4  1  0
  4  5  1  0
  5  6  1  0
  6  7  1  0
  6  8  2  0
  8  9  1  0
  9 10  1  0
 10 11  2  0
 10 12  1  0
 12 13  1  0
 13 14  1  0
 14 15  2  0
 15 16  1  0
 16 17  1  0
 16 18  2  0
 18 19  1  0
 19 20  1  0
 20 21  1  0
 21 22  2  0
 22 23  1  0
 22 24  1  0
 24 25  1  0
 25 26  1  0
  9 27  2  0
 27 28  1  0
 27  5  1  0
 23 14  1  0
 23 19  2  0
 26 21  1  0
  1 29  1  0
  1 30  1  0
  1 31  1  0
  3 32  1  0
  3 33  1  0
  4 34  1  0
  4 35  1  0
  7 36  1  0
  7 37  1  0
  7 38  1  0
  8 39  1  0
 12 40  1  0
 12 41  1  0
 17 42  1  0
 17 43  1  0
 17 44  1  0
 24 45  1  0
 24 46  1  0
 25 47  1  0
 25 48  1  0
 26 49  1  0
 26 50  1  0
 28 51  1  0
 28 52  1  0
 28 53  1  0
M  END
$$$$
