
     RDKit          3D

 23 24  0  0  0  0  0  0  0  0999 V2000
   -4.9624    0.3353    0.5553 C   0  0  0  0  0  0  0  0  0  0  0  0
   -4.1436    1.8178   -0.0709 S   0  0  0  0  0  0  0  0  0  0  0  0
   -2.5121    1.2220   -0.2959 C   0  0  0  0  0  0  0  0  0  0  0  0
   -2.1670   -0.0036    0.0225 N   0  0  0  0  0  0  0  0  0  0  0  0
   -0.8278   -0.2014   -0.2615 C   0  0  0  0  0  0  0  0  0  0  0  0
   -0.1104   -1.3992   -0.0588 C   0  0  0  0  0  0  0  0  0  0  0  0
    1.2478   -1.4631   -0.3868 C   0  0  0  0  0  0  0  0  0  0  0  0
    1.8902   -0.3392   -0.9060 C   0  0  0  0  0  0  0  0  0  0  0  0
    3.6131   -0.4485   -1.3256 S   0  0  0  0  0  6  0  0  0  0  0  0
    4.3417   -0.1322    0.1577 N   0  0  0  0  0  0  0  0  0  0  0  0
    3.9055   -1.8141   -1.6874 O   0  0  0  0  0  0  0  0  0  0  0  0
    3.9481    0.6727   -2.1723 O   0  0  0  0  0  0  0  0  0  0  0  0
    1.2046    0.8614   -1.1322 C   0  0  0  0  0  0  0  0  0  0  0  0
   -0.1588    0.9030   -0.7955 C   0  0  0  0  0  0  0  0  0  0  0  0
   -1.2713    2.2096   -0.9401 S   0  0  0  0  0  0  0  0  0  0  0  0
   -6.0167    0.5591    0.7390 H   0  0  0  0  0  0  0  0  0  0  0  0
   -4.5108    0.0118    1.4974 H   0  0  0  0  0  0  0  0  0  0  0  0
   -4.9057   -0.4766   -0.1752 H   0  0  0  0  0  0  0  0  0  0  0  0
   -0.6233   -2.2673    0.3457 H   0  0  0  0  0  0  0  0  0  0  0  0
    1.7902   -2.3961   -0.2396 H   0  0  0  0  0  0  0  0  0  0  0  0
    4.8788    0.7341    0.0868 H   0  0  0  0  0  0  0  0  0  0  0  0
    3.6910   -0.1167    0.9416 H   0  0  0  0  0  0  0  0  0  0  0  0
    1.6989    1.7312   -1.5568 H   0  0  0  0  0  0  0  0  0  0  0  0
  1  2  1  0
  2  3  1  0
  3  4  2  0
  4  5  1  0
  5  6  2  0
  6  7  1  0
  7  8  2  0
  8  9  1  0
  9 10  1  0
  9 11  2  0
  9 12  2  0
  8 13  1  0
 13 14  2  0
 14 15  1  0
 15  3  1  0
 14  5  1  0
  1 16  1  0
  1 17  1  0
  1 18  1  0
  6 19  1  0
  7 20  1  0
 10 21  1  0
 10 22  1  0
 13 23  1  0
M  END
$$$$
