
     RDKit          3D

 60 62  0  0  0  0  0  0  0  0999 V2000
   -4.6818   -4.5441    2.4054 C   0  0  0  0  0  0  0  0  0  0  0  0
   -4.4973   -4.6948    0.9582 N   0  0  0  0  0  0  0  0  0  0  0  0
   -5.6255   -5.4463    0.3980 C   0  0  0  0  0  0  0  0  0  0  0  0
   -4.3761   -3.3929    0.2803 C   0  0  0  0  0  0  0  0  0  0  0  0
   -3.0763   -2.6585    0.6286 C   0  0  0  0  0  0  0  0  0  0  0  0
   -2.9256   -1.3911   -0.2209 C   0  0  0  0  0  0  0  0  0  0  0  0
   -1.7372   -0.6108    0.1538 N   0  0  0  0  0  0  0  0  0  0  0  0
   -1.9350    0.3601    1.1487 C   0  0  0  0  0  0  0  0  0  0  0  0
   -3.0127    0.4235    1.7581 O   0  0  0  0  0  0  0  0  0  0  0  0
   -0.8302    1.3972    1.4405 C   0  0  0  0  0  0  0  0  0  0  0  0
   -1.2882    2.5625    2.1257 O   0  0  0  0  0  0  0  0  0  0  0  0
   -1.9472    3.5189    1.4020 C   0  0  0  0  0  0  0  0  0  0  0  0
   -2.2171    3.4845    0.0326 C   0  0  0  0  0  0  0  0  0  0  0  0
   -2.9038    4.5412   -0.5759 C   0  0  0  0  0  0  0  0  0  0  0  0
   -3.3237    5.6349    0.1790 C   0  0  0  0  0  0  0  0  0  0  0  0
   -3.0586    5.6746    1.5453 C   0  0  0  0  0  0  0  0  0  0  0  0
   -2.3733    4.6198    2.1513 C   0  0  0  0  0  0  0  0  0  0  0  0
   -0.4450   -0.9130   -0.2819 C   0  0  0  0  0  0  0  0  0  0  0  0
    0.6779   -0.4606    0.2285 N   0  0  0  0  0  0  0  0  0  0  0  0
    1.7777   -0.9696   -0.4491 C   0  0  0  0  0  0  0  0  0  0  0  0
    3.1450   -0.5897    0.0153 C   0  0  0  0  0  0  0  0  0  0  0  0
    3.9829    0.1138   -1.0459 C   0  0  0  0  0  0  0  0  0  0  0  0
    3.5249    0.4795   -2.1238 O   0  0  0  0  0  0  0  0  0  0  0  0
    5.3017    0.2689   -0.6287 N   0  0  0  0  0  0  0  0  0  0  0  0
    6.3567    0.8940   -1.3263 C   0  0  0  0  0  0  0  0  0  0  0  0
    7.6248    0.8591   -0.7283 C   0  0  0  0  0  0  0  0  0  0  0  0
    8.7270    1.4547   -1.3521 C   0  0  0  0  0  0  0  0  0  0  0  0
    8.5643    2.0955   -2.5774 C   0  0  0  0  0  0  0  0  0  0  0  0
    9.9151    2.8343   -3.3435 Cl  0  0  0  0  0  0  0  0  0  0  0  0
    7.3089    2.1462   -3.1784 C   0  0  0  0  0  0  0  0  0  0  0  0
    6.2084    1.5442   -2.5547 C   0  0  0  0  0  0  0  0  0  0  0  0
    1.4598   -1.8392   -1.4729 C   0  0  0  0  0  0  0  0  0  0  0  0
   -0.2362   -2.0033   -1.5937 S   0  0  0  0  0  0  0  0  0  0  0  0
   -3.8018   -4.0935    2.8747 H   0  0  0  0  0  0  0  0  0  0  0  0
   -5.5588   -3.9328    2.6491 H   0  0  0  0  0  0  0  0  0  0  0  0
   -4.8052   -5.5241    2.8802 H   0  0  0  0  0  0  0  0  0  0  0  0
   -6.5802   -4.9261    0.5398 H   0  0  0  0  0  0  0  0  0  0  0  0
   -5.6983   -6.4364    0.8618 H   0  0  0  0  0  0  0  0  0  0  0  0
   -5.4810   -5.6171   -0.6751 H   0  0  0  0  0  0  0  0  0  0  0  0
   -4.3777   -3.5611   -0.8050 H   0  0  0  0  0  0  0  0  0  0  0  0
   -5.2406   -2.7540    0.5028 H   0  0  0  0  0  0  0  0  0  0  0  0
   -2.2195   -3.3221    0.4631 H   0  0  0  0  0  0  0  0  0  0  0  0
   -3.0615   -2.3837    1.6891 H   0  0  0  0  0  0  0  0  0  0  0  0
   -2.9009   -1.6268   -1.2897 H   0  0  0  0  0  0  0  0  0  0  0  0
   -3.8181   -0.7642   -0.0929 H   0  0  0  0  0  0  0  0  0  0  0  0
   -0.2895    1.6946    0.5372 H   0  0  0  0  0  0  0  0  0  0  0  0
   -0.1198    0.9188    2.1233 H   0  0  0  0  0  0  0  0  0  0  0  0
   -1.9134    2.6550   -0.5958 H   0  0  0  0  0  0  0  0  0  0  0  0
   -3.1122    4.5073   -1.6426 H   0  0  0  0  0  0  0  0  0  0  0  0
   -3.8589    6.4530   -0.2958 H   0  0  0  0  0  0  0  0  0  0  0  0
   -3.3855    6.5224    2.1410 H   0  0  0  0  0  0  0  0  0  0  0  0
   -2.1729    4.6522    3.2195 H   0  0  0  0  0  0  0  0  0  0  0  0
    3.6706   -1.4971    0.3364 H   0  0  0  0  0  0  0  0  0  0  0  0
    3.0699    0.0794    0.8810 H   0  0  0  0  0  0  0  0  0  0  0  0
    5.5452   -0.1230    0.2728 H   0  0  0  0  0  0  0  0  0  0  0  0
    7.7787    0.3664    0.2301 H   0  0  0  0  0  0  0  0  0  0  0  0
    9.7022    1.4183   -0.8760 H   0  0  0  0  0  0  0  0  0  0  0  0
    7.1726    2.6529   -4.1313 H   0  0  0  0  0  0  0  0  0  0  0  0
    5.2463    1.6141   -3.0537 H   0  0  0  0  0  0  0  0  0  0  0  0
    2.1265   -2.3659   -2.1418 H   0  0  0  0  0  0  0  0  0  0  0  0
  1  2  1  0
  2  3  1  0
  2  4  1  0
  4  5  1  0
  5  6  1  0
  6  7  1  0
  7  8  1  0
  8  9  2  0
  8 10  1  0
 10 11  1  0
 11 12  1  0
 12 13  2  0
 13 14  1  0
 14 15  2  0
 15 16  1  0
 16 17  2  0
  7 18  1  0
 18 19  2  0
 19 20  1  0
 20 21  1  0
 21 22  1  0
 22 23  2  0
 22 24  1  0
 24 25  1  0
 25 26  2  0
 26 27  1  0
 27 28  2  0
 28 29  1  0
 28 30  1  0
 30 31  2  0
 20 32  2  0
 32 33  1  0
 17 12  1  0
 33 18  1  0
 31 25  1  0
  1 34  1  0
  1 35  1  0
  1 36  1  0
  3 37  1  0
  3 38  1  0
  3 39  1  0
  4 40  1  0
  4 41  1  0
  5 42  1  0
  5 43  1  0
  6 44  1  0
  6 45  1  0
 10 46  1  0
 10 47  1  0
 13 48  1  0
 14 49  1  0
 15 50  1  0
 16 51  1  0
 17 52  1  0
 21 53  1  0
 21 54  1  0
 24 55  1  0
 26 56  1  0
 27 57  1  0
 30 58  1  0
 31 59  1  0
 32 60  1  0
M  END
$$$$
