
     RDKit          3D

 55 58  0  0  0  0  0  0  0  0999 V2000
    4.2759   -3.8960    2.9334 N   0  0  0  0  0  0  0  0  0  0  0  0
    2.9590   -3.6618    2.6466 C   0  0  0  0  0  0  0  0  0  0  0  0
    2.0676   -4.2387    3.2646 O   0  0  0  0  0  0  0  0  0  0  0  0
    2.7201   -2.6963    1.5610 C   0  0  0  0  0  0  0  0  0  0  0  0
    3.7667   -2.1413    0.9278 N   0  0  0  0  0  0  0  0  0  0  0  0
    3.2093   -1.1290   -0.2572 S   0  0  0  0  0  0  0  0  0  0  0  0
    1.5484   -1.3765    0.0408 C   0  0  0  0  0  0  0  0  0  0  0  0
    0.5258   -0.7467   -0.7744 C   0  0  0  0  0  0  0  0  0  0  0  0
   -0.4484   -1.3929   -1.1736 O   0  0  0  0  0  0  0  0  0  0  0  0
    0.6926    0.6090   -1.1171 N   0  0  0  0  0  0  0  0  0  0  0  0
    1.1285    1.5724   -0.1442 C   0  0  0  0  0  0  0  0  0  0  0  0
    1.8491    2.7071   -0.5389 C   0  0  0  0  0  0  0  0  0  0  0  0
    2.2813    3.6437    0.4050 C   0  0  0  0  0  0  0  0  0  0  0  0
    1.9945    3.4606    1.7547 C   0  0  0  0  0  0  0  0  0  0  0  0
    1.2731    2.3431    2.1617 C   0  0  0  0  0  0  0  0  0  0  0  0
    0.8413    1.4053    1.2195 C   0  0  0  0  0  0  0  0  0  0  0  0
   -0.0179    1.1496   -2.3048 C   0  0  0  0  0  0  0  0  0  0  0  0
   -1.5053    1.4612   -2.0214 C   0  0  0  0  0  0  0  0  0  0  0  0
   -1.9430    2.6127   -2.0806 O   0  0  0  0  0  0  0  0  0  0  0  0
   -2.3108    0.3903   -1.6952 N   0  0  0  0  0  0  0  0  0  0  0  0
   -3.5860    0.5747   -1.0461 C   0  0  0  0  0  0  0  0  0  0  0  0
   -3.3988    0.5648    0.4511 C   0  0  0  0  0  0  0  0  0  0  0  0
   -3.1145    1.7577    1.1333 C   0  0  0  0  0  0  0  0  0  0  0  0
   -2.8750    1.7454    2.5069 C   0  0  0  0  0  0  0  0  0  0  0  0
   -2.9125    0.5420    3.1975 C   0  0  0  0  0  0  0  0  0  0  0  0
   -2.6731    0.5324    4.5143 F   0  0  0  0  0  0  0  0  0  0  0  0
   -3.1849   -0.6513    2.5406 C   0  0  0  0  0  0  0  0  0  0  0  0
   -3.4244   -0.6423    1.1662 C   0  0  0  0  0  0  0  0  0  0  0  0
    0.1749    0.2868   -3.5176 C   0  0  0  0  0  0  0  0  0  0  0  0
   -0.6588   -0.2171   -4.4984 C   0  0  0  0  0  0  0  0  0  0  0  0
    0.1589   -0.9550   -5.3875 C   0  0  0  0  0  0  0  0  0  0  0  0
    1.4411   -0.8513   -4.9051 C   0  0  0  0  0  0  0  0  0  0  0  0
    1.4653   -0.0943   -3.7799 O   0  0  0  0  0  0  0  0  0  0  0  0
    1.4232   -2.2945    1.0642 C   0  0  0  0  0  0  0  0  0  0  0  0
    0.2308   -2.7414    1.5384 N   0  0  0  0  0  0  0  0  0  0  0  0
    4.9921   -3.4157    2.4020 H   0  0  0  0  0  0  0  0  0  0  0  0
    4.5193   -4.5550    3.6575 H   0  0  0  0  0  0  0  0  0  0  0  0
    2.1326    2.8646   -1.5761 H   0  0  0  0  0  0  0  0  0  0  0  0
    2.8528    4.5108    0.0846 H   0  0  0  0  0  0  0  0  0  0  0  0
    2.3383    4.1882    2.4866 H   0  0  0  0  0  0  0  0  0  0  0  0
    1.0382    2.1977    3.2129 H   0  0  0  0  0  0  0  0  0  0  0  0
    0.2464    0.5680    1.5790 H   0  0  0  0  0  0  0  0  0  0  0  0
    0.4287    2.1118   -2.5813 H   0  0  0  0  0  0  0  0  0  0  0  0
   -1.8424   -0.5011   -1.5321 H   0  0  0  0  0  0  0  0  0  0  0  0
   -4.0570    1.5066   -1.3717 H   0  0  0  0  0  0  0  0  0  0  0  0
   -4.2384   -0.2502   -1.3525 H   0  0  0  0  0  0  0  0  0  0  0  0
   -3.0624    2.6995    0.5895 H   0  0  0  0  0  0  0  0  0  0  0  0
   -2.6507    2.6644    3.0365 H   0  0  0  0  0  0  0  0  0  0  0  0
   -3.2021   -1.5805    3.1007 H   0  0  0  0  0  0  0  0  0  0  0  0
   -3.6212   -1.5808    0.6535 H   0  0  0  0  0  0  0  0  0  0  0  0
   -1.7290   -0.0742   -4.5663 H   0  0  0  0  0  0  0  0  0  0  0  0
   -0.1478   -1.4949   -6.2727 H   0  0  0  0  0  0  0  0  0  0  0  0
    2.3979   -1.2338   -5.2323 H   0  0  0  0  0  0  0  0  0  0  0  0
   -0.5931   -2.7229    0.9397 H   0  0  0  0  0  0  0  0  0  0  0  0
    0.2239   -3.5349    2.1856 H   0  0  0  0  0  0  0  0  0  0  0  0
  1  2  1  0
  2  3  2  0
  2  4  1  0
  4  5  2  0
  5  6  1  0
  6  7  1  0
  7  8  1  0
  8  9  2  0
  8 10  1  0
 10 11  1  0
 11 12  2  0
 12 13  1  0
 13 14  2  0
 14 15  1  0
 15 16  2  0
 10 17  1  0
 17 18  1  0
 18 19  2  0
 18 20  1  0
 20 21  1  0
 21 22  1  0
 22 23  2  0
 23 24  1  0
 24 25  2  0
 25 26  1  0
 25 27  1  0
 27 28  2  0
 17 29  1  0
 29 30  2  0
 30 31  1  0
 31 32  2  0
 32 33  1  0
  7 34  2  0
 34 35  1  0
 34  4  1  0
 16 11  1  0
 28 22  1  0
 33 29  1  0
  1 36  1  0
  1 37  1  0
 12 38  1  0
 13 39  1  0
 14 40  1  0
 15 41  1  0
 16 42  1  0
 17 43  1  0
 20 44  1  0
 21 45  1  0
 21 46  1  0
 23 47  1  0
 24 48  1  0
 27 49  1  0
 28 50  1  0
 30 51  1  0
 31 52  1  0
 32 53  1  0
 35 54  1  0
 35 55  1  0
M  END
$$$$
