
     RDKit          3D

 59 63  0  0  0  0  0  0  0  0999 V2000
   -2.3886    0.2985    4.6919 C   0  0  0  0  0  0  0  0  0  0  0  0
   -2.6523    0.8165    3.2844 C   0  0  0  0  0  0  0  0  0  0  0  0
   -1.8619   -0.0017    2.2405 C   0  0  0  0  0  0  0  0  0  0  0  0
   -2.1983    0.4994    0.8852 N   0  0  0  0  0  0  0  0  0  0  0  0
   -1.4756   -0.1949   -0.1070 C   0  0  0  0  0  0  0  0  0  0  0  0
   -1.4453   -1.5448   -0.0787 N   0  0  0  0  0  0  0  0  0  0  0  0
   -0.7692   -2.1851   -1.0513 C   0  0  0  0  0  0  0  0  0  0  0  0
   -0.7046   -3.5730   -1.0419 C   0  0  0  0  0  0  0  0  0  0  0  0
   -0.0126   -4.2759   -2.0294 C   0  0  0  0  0  0  0  0  0  0  0  0
    0.6243   -3.5790   -3.0468 C   0  0  0  0  0  0  0  0  0  0  0  0
    0.5627   -2.1851   -3.0676 C   0  0  0  0  0  0  0  0  0  0  0  0
   -0.1212   -1.4771   -2.0863 C   0  0  0  0  0  0  0  0  0  0  0  0
   -0.1510   -0.1333   -2.1317 N   0  0  0  0  0  0  0  0  0  0  0  0
   -0.8192    0.5104   -1.1247 C   0  0  0  0  0  0  0  0  0  0  0  0
   -0.7915    2.0254   -1.1283 C   0  0  0  0  0  0  0  0  0  0  0  0
   -1.5119    2.5820   -2.2791 C   0  0  0  0  0  0  0  0  0  0  0  0
   -2.1085    3.0236   -3.1727 N   0  0  0  0  0  0  0  0  0  0  0  0
    0.6393    2.5488   -1.0843 C   0  0  0  0  0  0  0  0  0  0  0  0
    1.0242    3.2925   -0.1811 O   0  0  0  0  0  0  0  0  0  0  0  0
    1.4723    2.1356   -2.1065 N   0  0  0  0  0  0  0  0  0  0  0  0
    2.9069    2.2837   -2.0155 C   0  0  0  0  0  0  0  0  0  0  0  0
    3.5100    1.0251   -1.4392 C   0  0  0  0  0  0  0  0  0  0  0  0
    3.8775   -0.0440   -2.2906 C   0  0  0  0  0  0  0  0  0  0  0  0
    4.3678   -1.2444   -1.7679 C   0  0  0  0  0  0  0  0  0  0  0  0
    4.4733   -1.3501   -0.3987 C   0  0  0  0  0  0  0  0  0  0  0  0
    4.1159   -0.3188    0.4380 C   0  0  0  0  0  0  0  0  0  0  0  0
    3.6306    0.8765   -0.0471 C   0  0  0  0  0  0  0  0  0  0  0  0
    4.2898   -0.6302    1.7506 O   0  0  0  0  0  0  0  0  0  0  0  0
    4.7924   -1.9780    1.6426 C   0  0  0  0  0  0  0  0  0  0  0  0
    4.9176   -2.4401    0.2809 O   0  0  0  0  0  0  0  0  0  0  0  0
   -3.6541    0.3413    0.6433 C   0  0  0  0  0  0  0  0  0  0  0  0
   -4.4527    1.1156    1.7160 C   0  0  0  0  0  0  0  0  0  0  0  0
   -4.3697    2.6301    1.5324 C   0  0  0  0  0  0  0  0  0  0  0  0
   -4.0722    0.7294    3.0511 O   0  0  0  0  0  0  0  0  0  0  0  0
   -2.9559    0.8811    5.4252 H   0  0  0  0  0  0  0  0  0  0  0  0
   -1.3260    0.3590    4.9449 H   0  0  0  0  0  0  0  0  0  0  0  0
   -2.7160   -0.7417    4.7959 H   0  0  0  0  0  0  0  0  0  0  0  0
   -2.3530    1.8699    3.2427 H   0  0  0  0  0  0  0  0  0  0  0  0
   -2.1240   -1.0640    2.3394 H   0  0  0  0  0  0  0  0  0  0  0  0
   -0.7862    0.1113    2.4255 H   0  0  0  0  0  0  0  0  0  0  0  0
   -1.2036   -4.1185   -0.2440 H   0  0  0  0  0  0  0  0  0  0  0  0
    0.0265   -5.3618   -1.9994 H   0  0  0  0  0  0  0  0  0  0  0  0
    1.1678   -4.1135   -3.8221 H   0  0  0  0  0  0  0  0  0  0  0  0
    1.0617   -1.6400   -3.8638 H   0  0  0  0  0  0  0  0  0  0  0  0
   -1.2696    2.4226   -0.2253 H   0  0  0  0  0  0  0  0  0  0  0  0
    1.1461    1.3294   -2.6386 H   0  0  0  0  0  0  0  0  0  0  0  0
    3.2852    2.4548   -3.0283 H   0  0  0  0  0  0  0  0  0  0  0  0
    3.1743    3.1562   -1.4102 H   0  0  0  0  0  0  0  0  0  0  0  0
    3.7707    0.0571   -3.3695 H   0  0  0  0  0  0  0  0  0  0  0  0
    4.6486   -2.0677   -2.4140 H   0  0  0  0  0  0  0  0  0  0  0  0
    3.3377    1.6707    0.6330 H   0  0  0  0  0  0  0  0  0  0  0  0
    4.1102   -2.6489    2.1779 H   0  0  0  0  0  0  0  0  0  0  0  0
    5.7773   -2.0245    2.1198 H   0  0  0  0  0  0  0  0  0  0  0  0
   -3.9215    0.7089   -0.3553 H   0  0  0  0  0  0  0  0  0  0  0  0
   -3.9317   -0.7202    0.7014 H   0  0  0  0  0  0  0  0  0  0  0  0
   -5.5078    0.8355    1.6144 H   0  0  0  0  0  0  0  0  0  0  0  0
   -3.3389    2.9956    1.5695 H   0  0  0  0  0  0  0  0  0  0  0  0
   -4.7972    2.9289    0.5692 H   0  0  0  0  0  0  0  0  0  0  0  0
   -4.9185    3.1408    2.3313 H   0  0  0  0  0  0  0  0  0  0  0  0
  1  2  1  0
  2  3  1  0
  3  4  1  0
  4  5  1  0
  5  6  2  0
  6  7  1  0
  7  8  2  0
  8  9  1  0
  9 10  2  0
 10 11  1  0
 11 12  2  0
 12 13  1  0
 13 14  2  0
 14 15  1  0
 15 16  1  0
 16 17  3  0
 15 18  1  0
 18 19  2  0
 18 20  1  0
 20 21  1  0
 21 22  1  0
 22 23  2  0
 23 24  1  0
 24 25  2  0
 25 26  1  0
 26 27  2  0
 26 28  1  0
 28 29  1  0
 29 30  1  0
  4 31  1  0
 31 32  1  0
 32 33  1  0
 32 34  1  0
 34  2  1  0
 14  5  1  0
 27 22  1  0
 12  7  1  0
 30 25  1  0
  1 35  1  0
  1 36  1  0
  1 37  1  0
  2 38  1  0
  3 39  1  0
  3 40  1  0
  8 41  1  0
  9 42  1  0
 10 43  1  0
 11 44  1  0
 15 45  1  0
 20 46  1  0
 21 47  1  0
 21 48  1  0
 23 49  1  0
 24 50  1  0
 27 51  1  0
 29 52  1  0
 29 53  1  0
 31 54  1  0
 31 55  1  0
 32 56  1  0
 33 57  1  0
 33 58  1  0
 33 59  1  0
M  END
$$$$
