
     RDKit          3D

 53 56  0  0  0  0  0  0  0  0999 V2000
    7.2573   -1.4384    1.6198 C   0  0  0  0  0  0  0  0  0  0  0  0
    5.8936   -1.5827    1.9937 O   0  0  0  0  0  0  0  0  0  0  0  0
    5.0717   -0.4989    1.5493 C   0  0  0  0  0  0  0  0  0  0  0  0
    4.6433   -0.6837    0.0954 C   0  0  0  0  0  0  0  0  0  0  0  0
    3.7052    0.3407   -0.3469 N   0  0  0  0  0  0  0  0  0  0  0  0
    4.0728    1.5375   -0.9200 C   0  0  0  0  0  0  0  0  0  0  0  0
    5.4818    1.9616   -1.1408 C   0  0  0  0  0  0  0  0  0  0  0  0
    2.9131    2.2114   -1.2317 C   0  0  0  0  0  0  0  0  0  0  0  0
    1.7968    1.4004   -0.8765 C   0  0  0  0  0  0  0  0  0  0  0  0
    0.3983    1.7914   -1.1209 C   0  0  0  0  0  0  0  0  0  0  0  0
    0.1116    2.9849   -1.2610 O   0  0  0  0  0  0  0  0  0  0  0  0
   -0.6774    0.7373   -1.2816 C   0  0  0  0  0  0  0  0  0  0  0  0
   -1.8497    0.8202    0.1079 S   0  0  0  0  0  0  0  0  0  0  0  0
   -2.9881   -0.4346   -0.3958 C   0  0  0  0  0  0  0  0  0  0  0  0
   -2.5423   -1.4604   -1.1523 N   0  0  0  0  0  0  0  0  0  0  0  0
   -3.4090   -2.4260   -1.5095 C   0  0  0  0  0  0  0  0  0  0  0  0
   -2.8729   -3.5380   -2.3595 C   0  0  0  0  0  0  0  0  0  0  0  0
   -4.7106   -2.4712   -1.2042 N   0  0  0  0  0  0  0  0  0  0  0  0
   -5.1161   -1.4375   -0.4478 C   0  0  0  0  0  0  0  0  0  0  0  0
   -6.7586   -1.3299    0.0591 S   0  0  0  0  0  0  0  0  0  0  0  0
   -6.4336    0.0952    0.8655 C   0  0  0  0  0  0  0  0  0  0  0  0
   -5.1312    0.5068    0.7773 C   0  0  0  0  0  0  0  0  0  0  0  0
   -4.3272   -0.3797    0.0046 C   0  0  0  0  0  0  0  0  0  0  0  0
   -4.9328    1.7825    1.5163 C   0  0  0  0  0  0  0  0  0  0  0  0
   -6.2446    1.8933    2.3559 C   0  0  0  0  0  0  0  0  0  0  0  0
   -7.3068    0.9937    1.6560 C   0  0  0  0  0  0  0  0  0  0  0  0
    2.3213    0.2535   -0.2793 C   0  0  0  0  0  0  0  0  0  0  0  0
    1.6345   -0.9092    0.3627 C   0  0  0  0  0  0  0  0  0  0  0  0
    7.8130   -2.2914    2.0199 H   0  0  0  0  0  0  0  0  0  0  0  0
    7.6753   -0.5213    2.0454 H   0  0  0  0  0  0  0  0  0  0  0  0
    7.3668   -1.4336    0.5319 H   0  0  0  0  0  0  0  0  0  0  0  0
    5.5816    0.4585    1.7087 H   0  0  0  0  0  0  0  0  0  0  0  0
    4.1887   -0.4907    2.1975 H   0  0  0  0  0  0  0  0  0  0  0  0
    5.5075   -0.6634   -0.5770 H   0  0  0  0  0  0  0  0  0  0  0  0
    4.1857   -1.6677   -0.0588 H   0  0  0  0  0  0  0  0  0  0  0  0
    5.9551    1.3445   -1.9122 H   0  0  0  0  0  0  0  0  0  0  0  0
    5.5246    3.0025   -1.4776 H   0  0  0  0  0  0  0  0  0  0  0  0
    6.0676    1.8881   -0.2204 H   0  0  0  0  0  0  0  0  0  0  0  0
    2.8588    3.1874   -1.7006 H   0  0  0  0  0  0  0  0  0  0  0  0
   -1.2061    0.9510   -2.2176 H   0  0  0  0  0  0  0  0  0  0  0  0
   -0.2410   -0.2573   -1.3831 H   0  0  0  0  0  0  0  0  0  0  0  0
   -1.8062   -3.6909   -2.1671 H   0  0  0  0  0  0  0  0  0  0  0  0
   -3.0097   -3.2931   -3.4172 H   0  0  0  0  0  0  0  0  0  0  0  0
   -3.3961   -4.4752   -2.1434 H   0  0  0  0  0  0  0  0  0  0  0  0
   -4.8549    2.6215    0.8164 H   0  0  0  0  0  0  0  0  0  0  0  0
   -4.0573    1.7680    2.1713 H   0  0  0  0  0  0  0  0  0  0  0  0
   -6.0547    1.5022    3.3643 H   0  0  0  0  0  0  0  0  0  0  0  0
   -6.5826    2.9279    2.4650 H   0  0  0  0  0  0  0  0  0  0  0  0
   -7.9473    1.5925    0.9998 H   0  0  0  0  0  0  0  0  0  0  0  0
   -7.9218    0.4644    2.3891 H   0  0  0  0  0  0  0  0  0  0  0  0
    0.7146   -0.5949    0.8614 H   0  0  0  0  0  0  0  0  0  0  0  0
    2.2471   -1.3816    1.1351 H   0  0  0  0  0  0  0  0  0  0  0  0
    1.3908   -1.6678   -0.3875 H   0  0  0  0  0  0  0  0  0  0  0  0
  1  2  1  0
  2  3  1  0
  3  4  1  0
  4  5  1  0
  5  6  1  0
  6  7  1  0
  6  8  2  0
  8  9  1  0
  9 10  1  0
 10 11  2  0
 10 12  1  0
 12 13  1  0
 13 14  1  0
 14 15  2  0
 15 16  1  0
 16 17  1  0
 16 18  2  0
 18 19  1  0
 19 20  1  0
 20 21  1  0
 21 22  2  0
 22 23  1  0
 22 24  1  0
 24 25  1  0
 25 26  1  0
  9 27  2  0
 27 28  1  0
 27  5  1  0
 23 14  1  0
 23 19  2  0
 26 21  1  0
  1 29  1  0
  1 30  1  0
  1 31  1  0
  3 32  1  0
  3 33  1  0
  4 34  1  0
  4 35  1  0
  7 36  1  0
  7 37  1  0
  7 38  1  0
  8 39  1  0
 12 40  1  0
 12 41  1  0
 17 42  1  0
 17 43  1  0
 17 44  1  0
 24 45  1  0
 24 46  1  0
 25 47  1  0
 25 48  1  0
 26 49  1  0
 26 50  1  0
 28 51  1  0
 28 52  1  0
 28 53  1  0
M  END
$$$$
