
     RDKit          3D

 53 56  0  0  0  0  0  0  0  0999 V2000
    6.5702    1.8336    0.7292 C   0  0  0  0  0  0  0  0  0  0  0  0
    5.6300    0.8377    0.1194 C   0  0  0  0  0  0  0  0  0  0  0  0
    4.2636    1.0135    0.2204 C   0  0  0  0  0  0  0  0  0  0  0  0
    3.4331    0.0587   -0.3707 C   0  0  0  0  0  0  0  0  0  0  0  0
    1.9687    0.2555   -0.2380 C   0  0  0  0  0  0  0  0  0  0  0  0
    1.2837    0.3279   -1.2475 O   0  0  0  0  0  0  0  0  0  0  0  0
    1.5359    0.3065    1.0744 N   0  0  0  0  0  0  0  0  0  0  0  0
    0.2259    0.5596    1.5288 C   0  0  0  0  0  0  0  0  0  0  0  0
   -0.0202    0.3868    2.8935 C   0  0  0  0  0  0  0  0  0  0  0  0
   -1.2925    0.6142    3.4252 C   0  0  0  0  0  0  0  0  0  0  0  0
   -2.3550    1.0231    2.6065 C   0  0  0  0  0  0  0  0  0  0  0  0
   -3.6943    1.2683    3.2438 C   0  0  0  0  0  0  0  0  0  0  0  0
   -2.0953    1.2206    1.2372 C   0  0  0  0  0  0  0  0  0  0  0  0
   -3.3627    1.7974    0.1183 S   0  0  0  0  0  6  0  0  0  0  0  0
   -4.1141    2.8385    0.7876 O   0  0  0  0  0  0  0  0  0  0  0  0
   -2.7747    2.0441   -1.1812 O   0  0  0  0  0  0  0  0  0  0  0  0
   -4.3732    0.4292   -0.0468 N   0  0  0  0  0  0  0  0  0  0  0  0
   -3.6987   -0.7949   -0.5958 C   0  0  0  0  0  0  0  0  0  0  0  0
   -4.7427   -1.7927   -1.1085 C   0  0  0  0  0  0  0  0  0  0  0  0
   -5.5268   -1.2826   -2.1957 O   0  0  0  0  0  0  0  0  0  0  0  0
   -5.6585    0.1462   -2.1755 C   0  0  0  0  0  0  0  0  0  0  0  0
   -5.6648    0.7220   -0.7569 C   0  0  0  0  0  0  0  0  0  0  0  0
   -0.8141    0.9884    0.7049 C   0  0  0  0  0  0  0  0  0  0  0  0
    3.9696   -1.0453   -1.0685 C   0  0  0  0  0  0  0  0  0  0  0  0
    3.2047   -2.0546   -1.7076 C   0  0  0  0  0  0  0  0  0  0  0  0
    3.8218   -3.1164   -2.3660 C   0  0  0  0  0  0  0  0  0  0  0  0
    5.2068   -3.1898   -2.3926 C   0  0  0  0  0  0  0  0  0  0  0  0
    5.9642   -2.1996   -1.7625 C   0  0  0  0  0  0  0  0  0  0  0  0
    5.3745   -1.1296   -1.1027 C   0  0  0  0  0  0  0  0  0  0  0  0
    6.1763   -0.2210   -0.5181 N   0  0  0  0  0  0  0  0  0  0  0  0
    7.6116    1.5570    0.5331 H   0  0  0  0  0  0  0  0  0  0  0  0
    6.3959    2.8280    0.3057 H   0  0  0  0  0  0  0  0  0  0  0  0
    6.4255    1.8730    1.8143 H   0  0  0  0  0  0  0  0  0  0  0  0
    3.8526    1.8812    0.7270 H   0  0  0  0  0  0  0  0  0  0  0  0
    2.2151    0.0600    1.7860 H   0  0  0  0  0  0  0  0  0  0  0  0
    0.7706    0.0644    3.5664 H   0  0  0  0  0  0  0  0  0  0  0  0
   -1.4476    0.4656    4.4924 H   0  0  0  0  0  0  0  0  0  0  0  0
   -3.8649    2.3420    3.3690 H   0  0  0  0  0  0  0  0  0  0  0  0
   -4.5045    0.8248    2.6581 H   0  0  0  0  0  0  0  0  0  0  0  0
   -3.7477    0.8050    4.2357 H   0  0  0  0  0  0  0  0  0  0  0  0
   -3.0277   -0.5229   -1.4179 H   0  0  0  0  0  0  0  0  0  0  0  0
   -3.1152   -1.2644    0.2024 H   0  0  0  0  0  0  0  0  0  0  0  0
   -4.2520   -2.7056   -1.4595 H   0  0  0  0  0  0  0  0  0  0  0  0
   -5.4311   -2.0781   -0.3042 H   0  0  0  0  0  0  0  0  0  0  0  0
   -6.5945    0.3932   -2.6864 H   0  0  0  0  0  0  0  0  0  0  0  0
   -4.8399    0.5707   -2.7684 H   0  0  0  0  0  0  0  0  0  0  0  0
   -6.4664    0.2629   -0.1649 H   0  0  0  0  0  0  0  0  0  0  0  0
   -5.8678    1.7965   -0.7941 H   0  0  0  0  0  0  0  0  0  0  0  0
   -0.6449    1.1617   -0.3549 H   0  0  0  0  0  0  0  0  0  0  0  0
    2.1166   -2.0113   -1.7077 H   0  0  0  0  0  0  0  0  0  0  0  0
    3.2212   -3.8763   -2.8598 H   0  0  0  0  0  0  0  0  0  0  0  0
    5.7037   -4.0098   -2.9042 H   0  0  0  0  0  0  0  0  0  0  0  0
    7.0501   -2.2632   -1.7899 H   0  0  0  0  0  0  0  0  0  0  0  0
  1  2  1  0
  2  3  2  0
  3  4  1  0
  4  5  1  0
  5  6  2  0
  5  7  1  0
  7  8  1  0
  8  9  2  0
  9 10  1  0
 10 11  2  0
 11 12  1  0
 11 13  1  0
 13 14  1  0
 14 15  2  0
 14 16  2  0
 14 17  1  0
 17 18  1  0
 18 19  1  0
 19 20  1  0
 20 21  1  0
 21 22  1  0
 13 23  2  0
  4 24  2  0
 24 25  1  0
 25 26  2  0
 26 27  1  0
 27 28  2  0
 28 29  1  0
 29 30  2  0
 30  2  1  0
 23  8  1  0
 29 24  1  0
 22 17  1  0
  1 31  1  0
  1 32  1  0
  1 33  1  0
  3 34  1  0
  7 35  1  0
  9 36  1  0
 10 37  1  0
 12 38  1  0
 12 39  1  0
 12 40  1  0
 18 41  1  0
 18 42  1  0
 19 43  1  0
 19 44  1  0
 21 45  1  0
 21 46  1  0
 22 47  1  0
 22 48  1  0
 23 49  1  0
 25 50  1  0
 26 51  1  0
 27 52  1  0
 28 53  1  0
M  END
$$$$
