
     RDKit          3D

 60 63  0  0  0  0  0  0  0  0999 V2000
   -6.9270    2.0636   -0.3901 C   0  0  0  0  0  0  0  0  0  0  0  0
   -6.2981    0.8311   -0.7149 O   0  0  0  0  0  0  0  0  0  0  0  0
   -4.9445    0.7495   -0.5270 C   0  0  0  0  0  0  0  0  0  0  0  0
   -4.1747    1.6955    0.1475 C   0  0  0  0  0  0  0  0  0  0  0  0
   -2.7861    1.5309    0.2595 C   0  0  0  0  0  0  0  0  0  0  0  0
   -2.0464    2.4585    0.9519 O   0  0  0  0  0  0  0  0  0  0  0  0
   -2.0451    3.7275    0.2947 C   0  0  0  0  0  0  0  0  0  0  0  0
   -2.1316    0.4029   -0.2652 C   0  0  0  0  0  0  0  0  0  0  0  0
   -0.6191    0.2509   -0.1250 C   0  0  0  0  0  0  0  0  0  0  0  0
   -0.1704   -1.1356    0.3567 C   0  0  0  0  0  0  0  0  0  0  0  0
    1.0243   -1.0123    1.2952 C   0  0  0  0  0  0  0  0  0  0  0  0
    0.8418   -1.1519    2.5026 O   0  0  0  0  0  0  0  0  0  0  0  0
    2.2265   -0.7164    0.6829 N   0  0  0  0  0  0  0  0  0  0  0  0
    3.5001   -0.5634    1.2876 C   0  0  0  0  0  0  0  0  0  0  0  0
    3.7146   -0.7601    2.6555 C   0  0  0  0  0  0  0  0  0  0  0  0
    4.9869   -0.6161    3.2175 C   0  0  0  0  0  0  0  0  0  0  0  0
    6.0718   -0.2469    2.4268 C   0  0  0  0  0  0  0  0  0  0  0  0
    7.4445   -0.1103    3.0152 C   0  0  0  0  0  0  0  0  0  0  0  0
    5.8702   -0.0469    1.0563 C   0  0  0  0  0  0  0  0  0  0  0  0
    4.5987   -0.2091    0.4729 C   0  0  0  0  0  0  0  0  0  0  0  0
    4.4695    0.0271   -1.0113 C   0  0  0  0  0  0  0  0  0  0  0  0
    0.1131   -2.0896   -0.7915 C   0  0  0  0  0  0  0  0  0  0  0  0
    0.0444   -3.5688   -0.5009 C   0  0  0  0  0  0  0  0  0  0  0  0
    0.4485   -1.7138   -1.9882 N   0  0  0  0  0  0  0  0  0  0  0  0
    0.5265   -0.3854   -2.2428 C   0  0  0  0  0  0  0  0  0  0  0  0
    1.1129    0.2405   -3.2391 N   0  0  0  0  0  0  0  0  0  0  0  0
    0.9503    1.5623   -2.9366 C   0  0  0  0  0  0  0  0  0  0  0  0
    0.3254    1.8136   -1.7832 N   0  0  0  0  0  0  0  0  0  0  0  0
    0.0175    0.5646   -1.3933 N   0  0  0  0  0  0  0  0  0  0  0  0
   -2.9144   -0.5419   -0.9498 C   0  0  0  0  0  0  0  0  0  0  0  0
   -4.3014   -0.3815   -1.0501 C   0  0  0  0  0  0  0  0  0  0  0  0
   -4.9857   -1.3457   -1.7513 O   0  0  0  0  0  0  0  0  0  0  0  0
   -5.6799   -2.2160   -0.8574 C   0  0  0  0  0  0  0  0  0  0  0  0
   -7.9759    1.9955   -0.6947 H   0  0  0  0  0  0  0  0  0  0  0  0
   -6.9045    2.2413    0.6903 H   0  0  0  0  0  0  0  0  0  0  0  0
   -6.4739    2.8967   -0.9388 H   0  0  0  0  0  0  0  0  0  0  0  0
   -4.6290    2.5649    0.6098 H   0  0  0  0  0  0  0  0  0  0  0  0
   -2.9333    4.2997    0.5770 H   0  0  0  0  0  0  0  0  0  0  0  0
   -1.9824    3.6303   -0.7969 H   0  0  0  0  0  0  0  0  0  0  0  0
   -1.1632    4.2801    0.6356 H   0  0  0  0  0  0  0  0  0  0  0  0
   -0.2406    0.9960    0.5848 H   0  0  0  0  0  0  0  0  0  0  0  0
   -0.9698   -1.5914    0.9584 H   0  0  0  0  0  0  0  0  0  0  0  0
    2.2325   -0.6125   -0.3216 H   0  0  0  0  0  0  0  0  0  0  0  0
    2.9131   -1.0514    3.3268 H   0  0  0  0  0  0  0  0  0  0  0  0
    5.1181   -0.8028    4.2831 H   0  0  0  0  0  0  0  0  0  0  0  0
    8.0524   -0.9827    2.7526 H   0  0  0  0  0  0  0  0  0  0  0  0
    7.4044   -0.0319    4.1070 H   0  0  0  0  0  0  0  0  0  0  0  0
    7.9342    0.7945    2.6395 H   0  0  0  0  0  0  0  0  0  0  0  0
    6.7197    0.2349    0.4354 H   0  0  0  0  0  0  0  0  0  0  0  0
    4.0460   -0.8535   -1.5078 H   0  0  0  0  0  0  0  0  0  0  0  0
    5.4422    0.2190   -1.4781 H   0  0  0  0  0  0  0  0  0  0  0  0
    3.8367    0.8985   -1.2002 H   0  0  0  0  0  0  0  0  0  0  0  0
    0.2878   -4.1472   -1.3967 H   0  0  0  0  0  0  0  0  0  0  0  0
    0.7627   -3.8166    0.2874 H   0  0  0  0  0  0  0  0  0  0  0  0
   -0.9673   -3.8274   -0.1707 H   0  0  0  0  0  0  0  0  0  0  0  0
    1.3163    2.3641   -3.5640 H   0  0  0  0  0  0  0  0  0  0  0  0
   -2.4750   -1.4156   -1.4274 H   0  0  0  0  0  0  0  0  0  0  0  0
   -4.9694   -2.8180   -0.2828 H   0  0  0  0  0  0  0  0  0  0  0  0
   -6.2980   -2.8948   -1.4557 H   0  0  0  0  0  0  0  0  0  0  0  0
   -6.3467   -1.6764   -0.1769 H   0  0  0  0  0  0  0  0  0  0  0  0
  1  2  1  0
  2  3  1  0
  3  4  2  0
  4  5  1  0
  5  6  1  0
  6  7  1  0
  5  8  2  0
  8  9  1  0
  9 10  1  0
 10 11  1  0
 11 12  2  0
 11 13  1  0
 13 14  1  0
 14 15  2  0
 15 16  1  0
 16 17  2  0
 17 18  1  0
 17 19  1  0
 19 20  2  0
 20 21  1  0
 10 22  1  0
 22 23  1  0
 22 24  2  0
 24 25  1  0
 25 26  2  0
 26 27  1  0
 27 28  2  0
 28 29  1  0
  8 30  1  0
 30 31  2  0
 31 32  1  0
 32 33  1  0
 31  3  1  0
 29  9  1  0
 20 14  1  0
 29 25  1  0
  1 34  1  0
  1 35  1  0
  1 36  1  0
  4 37  1  0
  7 38  1  0
  7 39  1  0
  7 40  1  0
  9 41  1  0
 10 42  1  0
 13 43  1  0
 15 44  1  0
 16 45  1  0
 18 46  1  0
 18 47  1  0
 18 48  1  0
 19 49  1  0
 21 50  1  0
 21 51  1  0
 21 52  1  0
 23 53  1  0
 23 54  1  0
 23 55  1  0
 27 56  1  0
 30 57  1  0
 33 58  1  0
 33 59  1  0
 33 60  1  0
M  END
$$$$
