
     RDKit          3D

 30 31  0  0  0  0  0  0  0  0999 V2000
    0.1977    1.1838   -2.7028 C   0  0  0  0  0  0  0  0  0  0  0  0
    0.4713    0.6663   -1.4038 O   0  0  0  0  0  0  0  0  0  0  0  0
   -0.5863    0.4443   -0.5568 C   0  0  0  0  0  0  0  0  0  0  0  0
   -1.9224    0.6867   -0.9192 C   0  0  0  0  0  0  0  0  0  0  0  0
   -2.9757    0.4387   -0.0294 C   0  0  0  0  0  0  0  0  0  0  0  0
   -4.6448    0.7869   -0.5575 S   0  0  0  0  0  0  0  0  0  0  0  0
   -5.4571   -0.7796   -0.1378 C   0  0  0  0  0  0  0  0  0  0  0  0
   -2.6904   -0.0333    1.2487 C   0  0  0  0  0  0  0  0  0  0  0  0
   -1.3682   -0.2805    1.6230 C   0  0  0  0  0  0  0  0  0  0  0  0
   -0.3007   -0.0516    0.7336 C   0  0  0  0  0  0  0  0  0  0  0  0
    1.0803   -0.3621    1.2595 C   0  0  0  0  0  0  0  0  0  0  0  0
    1.1721   -0.8299    2.3907 O   0  0  0  0  0  0  0  0  0  0  0  0
    2.1279   -0.0899    0.4157 N   0  0  0  0  0  0  0  0  0  0  0  0
    3.4660   -0.2730    0.6430 C   0  0  0  0  0  0  0  0  0  0  0  0
    4.3548    0.0343   -0.2755 N   0  0  0  0  0  0  0  0  0  0  0  0
    5.6227   -0.2415    0.1985 C   0  0  0  0  0  0  0  0  0  0  0  0
    5.6789   -0.7562    1.4748 C   0  0  0  0  0  0  0  0  0  0  0  0
    4.0907   -0.8984    2.1001 S   0  0  0  0  0  0  0  0  0  0  0  0
    1.1542    1.3004   -3.2214 H   0  0  0  0  0  0  0  0  0  0  0  0
   -0.2706    2.1716   -2.6430 H   0  0  0  0  0  0  0  0  0  0  0  0
   -0.4126    0.4853   -3.2843 H   0  0  0  0  0  0  0  0  0  0  0  0
   -2.1752    1.0709   -1.9032 H   0  0  0  0  0  0  0  0  0  0  0  0
   -5.5145   -0.9123    0.9454 H   0  0  0  0  0  0  0  0  0  0  0  0
   -6.4756   -0.7687   -0.5353 H   0  0  0  0  0  0  0  0  0  0  0  0
   -4.9207   -1.6224   -0.5826 H   0  0  0  0  0  0  0  0  0  0  0  0
   -3.4809   -0.2026    1.9751 H   0  0  0  0  0  0  0  0  0  0  0  0
   -1.1737   -0.6515    2.6291 H   0  0  0  0  0  0  0  0  0  0  0  0
    1.9279    0.2903   -0.5014 H   0  0  0  0  0  0  0  0  0  0  0  0
    6.4797   -0.0464   -0.4343 H   0  0  0  0  0  0  0  0  0  0  0  0
    6.5452   -1.0456    2.0511 H   0  0  0  0  0  0  0  0  0  0  0  0
  1  2  1  0
  2  3  1  0
  3  4  2  0
  4  5  1  0
  5  6  1  0
  6  7  1  0
  5  8  2  0
  8  9  1  0
  9 10  2  0
 10 11  1  0
 11 12  2  0
 11 13  1  0
 13 14  1  0
 14 15  2  0
 15 16  1  0
 16 17  2  0
 17 18  1  0
 10  3  1  0
 18 14  1  0
  1 19  1  0
  1 20  1  0
  1 21  1  0
  4 22  1  0
  7 23  1  0
  7 24  1  0
  7 25  1  0
  8 26  1  0
  9 27  1  0
 13 28  1  0
 16 29  1  0
 17 30  1  0
M  END
$$$$
