
     RDKit          3D

 40 42  0  0  0  0  0  0  0  0999 V2000
    6.6153   -0.1929   -2.8983 N   0  0  0  0  0  0  0  0  0  0  0  0
    5.4555   -0.1502   -2.9073 C   0  0  0  0  0  0  0  0  0  0  0  0
    4.0301   -0.1011   -2.9005 C   0  0  0  0  0  0  0  0  0  0  0  0
    3.3991    0.0607   -4.1696 C   0  0  0  0  0  0  0  0  0  0  0  0
    2.8734    0.1905   -5.1964 N   0  0  0  0  0  0  0  0  0  0  0  0
    3.3226   -0.2121   -1.7468 C   0  0  0  0  0  0  0  0  0  0  0  0
    1.8554   -0.1957   -1.7044 C   0  0  0  0  0  0  0  0  0  0  0  0
    1.1377   -0.1727   -0.5649 C   0  0  0  0  0  0  0  0  0  0  0  0
   -0.3176   -0.1702   -0.5985 C   0  0  0  0  0  0  0  0  0  0  0  0
   -1.1120   -0.0035    0.4803 C   0  0  0  0  0  0  0  0  0  0  0  0
   -2.5187   -0.0439    0.4094 N   0  0  0  0  0  0  0  0  0  0  0  0
   -3.2517    0.6312   -0.6963 C   0  0  0  0  0  0  0  0  0  0  0  0
   -4.6169   -0.0310   -0.9294 C   0  0  0  0  0  0  0  0  0  0  0  0
   -5.4114   -0.0366    0.2656 O   0  0  0  0  0  0  0  0  0  0  0  0
   -4.7278   -0.7625    1.2969 C   0  0  0  0  0  0  0  0  0  0  0  0
   -3.3662   -0.1328    1.6262 C   0  0  0  0  0  0  0  0  0  0  0  0
   -0.4733    0.2319    1.8433 C   0  0  0  0  0  0  0  0  0  0  0  0
    0.9740    0.7220    1.7667 C   0  0  0  0  0  0  0  0  0  0  0  0
    1.7868   -0.1417    0.8012 C   0  0  0  0  0  0  0  0  0  0  0  0
    3.2343    0.3558    0.7200 C   0  0  0  0  0  0  0  0  0  0  0  0
    3.9908   -0.3774   -0.3868 C   0  0  0  0  0  0  0  0  0  0  0  0
    1.3164   -0.1980   -2.6515 H   0  0  0  0  0  0  0  0  0  0  0  0
   -0.7713   -0.3492   -1.5690 H   0  0  0  0  0  0  0  0  0  0  0  0
   -2.6930    0.6096   -1.6363 H   0  0  0  0  0  0  0  0  0  0  0  0
   -3.3945    1.6828   -0.4180 H   0  0  0  0  0  0  0  0  0  0  0  0
   -5.1721    0.5239   -1.6922 H   0  0  0  0  0  0  0  0  0  0  0  0
   -4.4987   -1.0614   -1.2857 H   0  0  0  0  0  0  0  0  0  0  0  0
   -4.6119   -1.8067    0.9819 H   0  0  0  0  0  0  0  0  0  0  0  0
   -5.3650   -0.7524    2.1868 H   0  0  0  0  0  0  0  0  0  0  0  0
   -3.5120    0.8772    2.0280 H   0  0  0  0  0  0  0  0  0  0  0  0
   -2.8858   -0.7480    2.3945 H   0  0  0  0  0  0  0  0  0  0  0  0
   -1.0430    0.9829    2.4036 H   0  0  0  0  0  0  0  0  0  0  0  0
   -0.5099   -0.7036    2.4154 H   0  0  0  0  0  0  0  0  0  0  0  0
    1.4195    0.6983    2.7684 H   0  0  0  0  0  0  0  0  0  0  0  0
    0.9851    1.7709    1.4399 H   0  0  0  0  0  0  0  0  0  0  0  0
    1.7982   -1.1720    1.1860 H   0  0  0  0  0  0  0  0  0  0  0  0
    3.7379    0.1921    1.6805 H   0  0  0  0  0  0  0  0  0  0  0  0
    3.2608    1.4369    0.5275 H   0  0  0  0  0  0  0  0  0  0  0  0
    5.0201   -0.0032   -0.3879 H   0  0  0  0  0  0  0  0  0  0  0  0
    4.0400   -1.4480   -0.1481 H   0  0  0  0  0  0  0  0  0  0  0  0
  1  2  3  0
  2  3  1  0
  3  4  1  0
  4  5  3  0
  3  6  2  3
  6  7  1  0
  7  8  2  0
  8  9  1  0
  9 10  2  0
 10 11  1  0
 11 12  1  0
 12 13  1  0
 13 14  1  0
 14 15  1  0
 15 16  1  0
 10 17  1  0
 17 18  1  0
 18 19  1  0
 19 20  1  0
 20 21  1  0
 21  6  1  0
 19  8  1  0
 16 11  1  0
  7 22  1  0
  9 23  1  0
 12 24  1  0
 12 25  1  0
 13 26  1  0
 13 27  1  0
 15 28  1  0
 15 29  1  0
 16 30  1  0
 16 31  1  0
 17 32  1  0
 17 33  1  0
 18 34  1  0
 18 35  1  0
 19 36  1  0
 20 37  1  0
 20 38  1  0
 21 39  1  0
 21 40  1  0
M  END
$$$$
