
     RDKit          3D

 41 44  0  0  0  0  0  0  0  0999 V2000
    1.7351    3.1173   -0.9134 O   0  0  0  0  0  0  0  0  0  0  0  0
    1.4450    1.9224   -0.9044 C   0  0  0  0  0  0  0  0  0  0  0  0
    2.4391    0.9078   -0.6375 C   0  0  0  0  0  0  0  0  0  0  0  0
    2.7867    0.4952    0.9767 S   0  0  0  0  0  0  0  0  0  0  0  0
    3.9756   -0.6575    0.5045 C   0  0  0  0  0  0  0  0  0  0  0  0
    4.7436   -1.4730    1.3594 C   0  0  0  0  0  0  0  0  0  0  0  0
    5.6719   -2.3545    0.8027 C   0  0  0  0  0  0  0  0  0  0  0  0
    5.8378   -2.4261   -0.5723 C   0  0  0  0  0  0  0  0  0  0  0  0
    5.0747   -1.6147   -1.4173 C   0  0  0  0  0  0  0  0  0  0  0  0
    4.1195   -0.7084   -0.8862 C   0  0  0  0  0  0  0  0  0  0  0  0
    3.2254    0.2181   -1.5305 C   0  0  0  0  0  0  0  0  0  0  0  0
    3.1579    0.4056   -3.2373 Cl  0  0  0  0  0  0  0  0  0  0  0  0
    0.1447    1.4842   -1.1517 N   0  0  0  0  0  0  0  0  0  0  0  0
   -0.9143    2.4696   -1.3992 C   0  0  0  0  0  0  0  0  0  0  0  0
   -2.2205    2.1333   -0.6497 C   0  0  0  0  0  0  0  0  0  0  0  0
   -2.6345    0.7154   -0.8206 N   0  0  0  0  0  0  0  0  0  0  0  0
   -3.4503    0.1811    0.1839 C   0  0  0  0  0  0  0  0  0  0  0  0
   -3.3182   -1.1420    0.6410 C   0  0  0  0  0  0  0  0  0  0  0  0
   -4.1462   -1.6722    1.6428 C   0  0  0  0  0  0  0  0  0  0  0  0
   -5.1419   -0.8930    2.2195 C   0  0  0  0  0  0  0  0  0  0  0  0
   -5.3079    0.4174    1.7928 C   0  0  0  0  0  0  0  0  0  0  0  0
   -4.4780    0.9361    0.7957 C   0  0  0  0  0  0  0  0  0  0  0  0
   -4.7095    2.2043    0.4169 F   0  0  0  0  0  0  0  0  0  0  0  0
   -1.7246   -0.1145   -1.6252 C   0  0  0  0  0  0  0  0  0  0  0  0
   -0.2707    0.0719   -1.1613 C   0  0  0  0  0  0  0  0  0  0  0  0
    4.6199   -1.4160    2.4376 H   0  0  0  0  0  0  0  0  0  0  0  0
    6.2711   -2.9862    1.4546 H   0  0  0  0  0  0  0  0  0  0  0  0
    6.5661   -3.1129   -0.9973 H   0  0  0  0  0  0  0  0  0  0  0  0
    5.2219   -1.6820   -2.4932 H   0  0  0  0  0  0  0  0  0  0  0  0
   -1.0929    2.4734   -2.4814 H   0  0  0  0  0  0  0  0  0  0  0  0
   -0.5875    3.4780   -1.1256 H   0  0  0  0  0  0  0  0  0  0  0  0
   -3.0092    2.7986   -1.0175 H   0  0  0  0  0  0  0  0  0  0  0  0
   -2.0529    2.3440    0.4149 H   0  0  0  0  0  0  0  0  0  0  0  0
   -2.5478   -1.7994    0.2523 H   0  0  0  0  0  0  0  0  0  0  0  0
   -4.0040   -2.6994    1.9709 H   0  0  0  0  0  0  0  0  0  0  0  0
   -5.7835   -1.3040    2.9939 H   0  0  0  0  0  0  0  0  0  0  0  0
   -6.0811    1.0473    2.2209 H   0  0  0  0  0  0  0  0  0  0  0  0
   -1.9971   -1.1737   -1.6413 H   0  0  0  0  0  0  0  0  0  0  0  0
   -1.8110    0.2119   -2.6701 H   0  0  0  0  0  0  0  0  0  0  0  0
    0.3987   -0.4923   -1.8176 H   0  0  0  0  0  0  0  0  0  0  0  0
   -0.1510   -0.3112   -0.1416 H   0  0  0  0  0  0  0  0  0  0  0  0
  1  2  2  0
  2  3  1  0
  3  4  1  0
  4  5  1  0
  5  6  2  0
  6  7  1  0
  7  8  2  0
  8  9  1  0
  9 10  2  0
 10 11  1  0
 11 12  1  0
  2 13  1  0
 13 14  1  0
 14 15  1  0
 15 16  1  0
 16 17  1  0
 17 18  2  0
 18 19  1  0
 19 20  2  0
 20 21  1  0
 21 22  2  0
 22 23  1  0
 16 24  1  0
 24 25  1  0
 11  3  2  0
 25 13  1  0
 10  5  1  0
 22 17  1  0
  6 26  1  0
  7 27  1  0
  8 28  1  0
  9 29  1  0
 14 30  1  0
 14 31  1  0
 15 32  1  0
 15 33  1  0
 18 34  1  0
 19 35  1  0
 20 36  1  0
 21 37  1  0
 24 38  1  0
 24 39  1  0
 25 40  1  0
 25 41  1  0
M  END
$$$$
