
     RDKit          3D

 40 42  0  0  0  0  0  0  0  0999 V2000
    1.7635   -3.3983    0.3880 C   0  0  0  0  0  0  0  0  0  0  0  0
    2.1471   -2.3903   -0.6509 C   0  0  0  0  0  0  0  0  0  0  0  0
    2.1801   -2.6094   -1.8535 O   0  0  0  0  0  0  0  0  0  0  0  0
    2.4311   -1.1978   -0.0653 O   0  0  0  0  0  0  0  0  0  0  0  0
    2.8469   -0.1479   -0.9573 C   0  0  0  0  0  0  0  0  0  0  0  0
    1.6798    0.4863   -1.7315 C   0  0  0  0  0  0  0  0  0  0  0  0
    0.6988    1.1149   -0.8272 N   0  0  0  0  0  0  0  0  0  0  0  0
    1.0086    2.3347   -0.2319 C   0  0  0  0  0  0  0  0  0  0  0  0
    2.0793    3.0126   -0.5193 N   0  0  0  0  0  0  0  0  0  0  0  0
    2.3640    4.2037    0.0878 C   0  0  0  0  0  0  0  0  0  0  0  0
    3.4968    4.6736    0.0951 O   0  0  0  0  0  0  0  0  0  0  0  0
    1.3705    4.8894    0.7221 N   0  0  0  0  0  0  0  0  0  0  0  0
    0.3809    4.2372    1.3900 C   0  0  0  0  0  0  0  0  0  0  0  0
   -0.1564    4.6664    2.3970 O   0  0  0  0  0  0  0  0  0  0  0  0
    0.0606    2.8898    0.8024 C   0  0  0  0  0  0  0  0  0  0  0  0
   -1.0031    2.2522    1.1819 N   0  0  0  0  0  0  0  0  0  0  0  0
   -1.2776    1.0041    0.5933 C   0  0  0  0  0  0  0  0  0  0  0  0
   -2.4268    0.3430    1.0452 C   0  0  0  0  0  0  0  0  0  0  0  0
   -2.8141   -0.8970    0.5253 C   0  0  0  0  0  0  0  0  0  0  0  0
   -4.0576   -1.5614    1.0470 C   0  0  0  0  0  0  0  0  0  0  0  0
   -2.0324   -1.4778   -0.4838 C   0  0  0  0  0  0  0  0  0  0  0  0
   -2.4034   -2.8030   -1.0952 C   0  0  0  0  0  0  0  0  0  0  0  0
   -0.8777   -0.8086   -0.9382 C   0  0  0  0  0  0  0  0  0  0  0  0
   -0.4618    0.4256   -0.4083 C   0  0  0  0  0  0  0  0  0  0  0  0
    1.5360   -4.3510   -0.0986 H   0  0  0  0  0  0  0  0  0  0  0  0
    2.5946   -3.5508    1.0810 H   0  0  0  0  0  0  0  0  0  0  0  0
    0.8731   -3.0593    0.9233 H   0  0  0  0  0  0  0  0  0  0  0  0
    3.6035   -0.5305   -1.6534 H   0  0  0  0  0  0  0  0  0  0  0  0
    3.3499    0.6012   -0.3372 H   0  0  0  0  0  0  0  0  0  0  0  0
    1.2215   -0.2343   -2.4115 H   0  0  0  0  0  0  0  0  0  0  0  0
    2.0905    1.2556   -2.3987 H   0  0  0  0  0  0  0  0  0  0  0  0
    1.7008    5.7217    1.1889 H   0  0  0  0  0  0  0  0  0  0  0  0
   -3.0239    0.8213    1.8200 H   0  0  0  0  0  0  0  0  0  0  0  0
   -4.5182   -0.9783    1.8517 H   0  0  0  0  0  0  0  0  0  0  0  0
   -4.7976   -1.6635    0.2470 H   0  0  0  0  0  0  0  0  0  0  0  0
   -3.8201   -2.5494    1.4538 H   0  0  0  0  0  0  0  0  0  0  0  0
   -2.4059   -3.5860   -0.3303 H   0  0  0  0  0  0  0  0  0  0  0  0
   -3.3918   -2.7430   -1.5616 H   0  0  0  0  0  0  0  0  0  0  0  0
   -1.6912   -3.1040   -1.8708 H   0  0  0  0  0  0  0  0  0  0  0  0
   -0.3183   -1.2915   -1.7328 H   0  0  0  0  0  0  0  0  0  0  0  0
  1  2  1  0
  2  3  2  0
  2  4  1  0
  4  5  1  0
  5  6  1  0
  6  7  1  0
  7  8  1  0
  8  9  2  0
  9 10  1  0
 10 11  2  0
 10 12  1  0
 12 13  1  0
 13 14  2  0
 13 15  1  0
 15 16  2  0
 16 17  1  0
 17 18  2  0
 18 19  1  0
 19 20  1  0
 19 21  2  0
 21 22  1  0
 21 23  1  0
 23 24  2  0
 24  7  1  0
 15  8  1  0
 24 17  1  0
  1 25  1  0
  1 26  1  0
  1 27  1  0
  5 28  1  0
  5 29  1  0
  6 30  1  0
  6 31  1  0
 12 32  1  0
 18 33  1  0
 20 34  1  0
 20 35  1  0
 20 36  1  0
 22 37  1  0
 22 38  1  0
 22 39  1  0
 23 40  1  0
M  END
$$$$
