
     RDKit          3D

123129  0  0  0  0  0  0  0  0999 V2000
    5.7560    1.4940   -2.9556 C   0  0  0  0  0  0  0  0  0  0  0  0
    4.9086    2.1041   -1.8407 C   0  0  0  0  0  0  0  0  0  0  0  0
    3.8129    1.2069   -1.6069 O   0  0  0  0  0  0  0  0  0  0  0  0
    3.7485    0.6322   -0.3074 C   0  0  0  0  0  0  0  0  0  0  0  0
    2.8821   -0.5157   -0.3425 O   0  0  0  0  0  0  0  0  0  0  0  0
    1.4895   -0.1722   -0.4567 C   0  0  0  0  0  0  0  0  0  0  0  0
    0.8740   -0.3284    0.9377 C   0  0  0  0  0  0  0  0  0  0  0  0
   -0.6434   -0.1193    0.9535 C   0  0  0  0  0  0  0  0  0  0  0  0
   -1.4203   -1.0202   -0.0664 C   0  0  0  0  0  0  0  0  0  0  0  0
   -1.3333   -2.4642    0.5011 C   0  0  0  0  0  0  0  0  0  0  0  0
   -0.7549   -0.8471   -1.4769 C   0  0  0  0  0  0  0  0  0  0  0  0
   -1.5529   -1.5721   -2.5811 C   0  0  0  0  0  0  0  0  0  0  0  0
   -3.0325   -1.1508   -2.6244 C   0  0  0  0  0  0  0  0  0  0  0  0
   -3.8196   -1.3312   -1.2785 C   0  0  0  0  0  0  0  0  0  0  0  0
   -3.9265   -2.8658   -1.0568 C   0  0  0  0  0  0  0  0  0  0  0  0
   -2.9590   -0.5959   -0.1619 C   0  0  0  0  0  0  0  0  0  0  0  0
   -3.1226    0.9007   -0.4028 C   0  0  0  0  0  0  0  0  0  0  0  0
   -4.3191    1.4586   -0.5996 C   0  0  0  0  0  0  0  0  0  0  0  0
   -5.5131    0.6491   -0.5679 C   0  0  0  0  0  0  0  0  0  0  0  0
   -6.6077    1.0431    0.1354 C   0  0  0  0  0  0  0  0  0  0  0  0
   -6.6520    2.3146    0.9893 C   0  0  0  0  0  0  0  0  0  0  0  0
   -6.8836    2.0057    2.4917 C   0  0  0  0  0  0  0  0  0  0  0  0
   -7.1385    3.3249    3.2467 C   0  0  0  0  0  0  0  0  0  0  0  0
   -5.6321    1.3393    3.1031 C   0  0  0  0  0  0  0  0  0  0  0  0
   -8.1130    1.0887    2.6688 C   0  0  0  0  0  0  0  0  0  0  0  0
   -8.1039   -0.1334    1.7486 C   0  0  0  0  0  0  0  0  0  0  0  0
   -7.9044    0.2072    0.2395 C   0  0  0  0  0  0  0  0  0  0  0  0
   -9.1558    0.9907   -0.2648 C   0  0  0  0  0  0  0  0  0  0  0  0
   -9.0121    1.3841   -1.6301 O   0  0  0  0  0  0  0  0  0  0  0  0
   -7.8280   -1.1046   -0.6008 C   0  0  0  0  0  0  0  0  0  0  0  0
   -8.7032   -2.1223   -0.0806 O   0  0  0  0  0  0  0  0  0  0  0  0
   -6.4090   -1.6688   -0.6799 C   0  0  0  0  0  0  0  0  0  0  0  0
   -5.3717   -0.6939   -1.3223 C   0  0  0  0  0  0  0  0  0  0  0  0
   -5.8018   -0.4327   -2.7944 C   0  0  0  0  0  0  0  0  0  0  0  0
    0.8101   -1.0845   -1.5328 C   0  0  0  0  0  0  0  0  0  0  0  0
    1.2276   -2.5627   -1.3493 C   0  0  0  0  0  0  0  0  0  0  0  0
    1.3814   -0.6689   -2.9208 C   0  0  0  0  0  0  0  0  0  0  0  0
    0.9638    0.6370   -3.2949 O   0  0  0  0  0  0  0  0  0  0  0  0
    5.1224    0.0947    0.1194 C   0  0  0  0  0  0  0  0  0  0  0  0
    5.0357   -0.6244    1.3652 O   0  0  0  0  0  0  0  0  0  0  0  0
    6.1434    1.2328    0.2404 C   0  0  0  0  0  0  0  0  0  0  0  0
    7.4248    0.7648   -0.2140 O   0  0  0  0  0  0  0  0  0  0  0  0
    8.2500    0.2346    0.8339 C   0  0  0  0  0  0  0  0  0  0  0  0
    9.5064    0.9111    0.7647 O   0  0  0  0  0  0  0  0  0  0  0  0
   10.3688    0.5958    1.8780 C   0  0  0  0  0  0  0  0  0  0  0  0
   10.1211    1.5849    3.0332 C   0  0  0  0  0  0  0  0  0  0  0  0
   10.2326    2.9447    2.5971 O   0  0  0  0  0  0  0  0  0  0  0  0
   10.2888   -0.8885    2.3016 C   0  0  0  0  0  0  0  0  0  0  0  0
    9.3657   -1.0862    3.3843 O   0  0  0  0  0  0  0  0  0  0  0  0
    9.8288   -1.7421    1.1176 C   0  0  0  0  0  0  0  0  0  0  0  0
    9.7346   -3.1146    1.5416 O   0  0  0  0  0  0  0  0  0  0  0  0
    8.4632   -1.2800    0.5880 C   0  0  0  0  0  0  0  0  0  0  0  0
    8.4253   -1.6051   -0.8210 O   0  0  0  0  0  0  0  0  0  0  0  0
    5.7440    2.4596   -0.5978 C   0  0  0  0  0  0  0  0  0  0  0  0
    4.9580    3.3353    0.2289 O   0  0  0  0  0  0  0  0  0  0  0  0
    5.1506    1.4003   -3.8622 H   0  0  0  0  0  0  0  0  0  0  0  0
    6.6256    2.1193   -3.1891 H   0  0  0  0  0  0  0  0  0  0  0  0
    6.0909    0.4812   -2.6993 H   0  0  0  0  0  0  0  0  0  0  0  0
    4.4583    3.0294   -2.2293 H   0  0  0  0  0  0  0  0  0  0  0  0
    3.3593    1.3472    0.4249 H   0  0  0  0  0  0  0  0  0  0  0  0
    1.3769    0.8771   -0.7610 H   0  0  0  0  0  0  0  0  0  0  0  0
    1.1489   -1.2980    1.3681 H   0  0  0  0  0  0  0  0  0  0  0  0
    1.3344    0.4034    1.6147 H   0  0  0  0  0  0  0  0  0  0  0  0
   -1.0258   -0.2953    1.9672 H   0  0  0  0  0  0  0  0  0  0  0  0
   -0.7989    0.9413    0.7505 H   0  0  0  0  0  0  0  0  0  0  0  0
   -0.4554   -2.6293    1.1330 H   0  0  0  0  0  0  0  0  0  0  0  0
   -1.2757   -3.2299   -0.2739 H   0  0  0  0  0  0  0  0  0  0  0  0
   -2.1810   -2.6866    1.1552 H   0  0  0  0  0  0  0  0  0  0  0  0
   -0.8667    0.2209   -1.7177 H   0  0  0  0  0  0  0  0  0  0  0  0
   -1.4716   -2.6575   -2.4757 H   0  0  0  0  0  0  0  0  0  0  0  0
   -1.1305   -1.3403   -3.5656 H   0  0  0  0  0  0  0  0  0  0  0  0
   -3.0592   -0.1062   -2.9518 H   0  0  0  0  0  0  0  0  0  0  0  0
   -3.5162   -1.7332   -3.4198 H   0  0  0  0  0  0  0  0  0  0  0  0
   -3.0017   -3.4054   -1.2326 H   0  0  0  0  0  0  0  0  0  0  0  0
   -4.2509   -3.1053   -0.0416 H   0  0  0  0  0  0  0  0  0  0  0  0
   -4.6190   -3.3184   -1.7704 H   0  0  0  0  0  0  0  0  0  0  0  0
   -3.4064   -0.8058    0.8200 H   0  0  0  0  0  0  0  0  0  0  0  0
   -2.2655    1.5605   -0.4699 H   0  0  0  0  0  0  0  0  0  0  0  0
   -4.4083    2.5250   -0.7714 H   0  0  0  0  0  0  0  0  0  0  0  0
   -5.7396    2.9143    0.8993 H   0  0  0  0  0  0  0  0  0  0  0  0
   -7.4464    2.9690    0.6081 H   0  0  0  0  0  0  0  0  0  0  0  0
   -7.2423    3.1491    4.3216 H   0  0  0  0  0  0  0  0  0  0  0  0
   -6.3135    4.0280    3.0987 H   0  0  0  0  0  0  0  0  0  0  0  0
   -8.0546    3.8132    2.9010 H   0  0  0  0  0  0  0  0  0  0  0  0
   -4.7748    2.0205    3.0795 H   0  0  0  0  0  0  0  0  0  0  0  0
   -5.3432    0.4345    2.5642 H   0  0  0  0  0  0  0  0  0  0  0  0
   -5.8064    1.0581    4.1480 H   0  0  0  0  0  0  0  0  0  0  0  0
   -9.0314    1.6626    2.4865 H   0  0  0  0  0  0  0  0  0  0  0  0
   -8.1811    0.7465    3.7105 H   0  0  0  0  0  0  0  0  0  0  0  0
   -7.3138   -0.8193    2.0800 H   0  0  0  0  0  0  0  0  0  0  0  0
   -9.0524   -0.6660    1.8950 H   0  0  0  0  0  0  0  0  0  0  0  0
   -9.3529    1.8944    0.3164 H   0  0  0  0  0  0  0  0  0  0  0  0
  -10.0497    0.3585   -0.1947 H   0  0  0  0  0  0  0  0  0  0  0  0
   -9.8791    1.7094   -1.9222 H   0  0  0  0  0  0  0  0  0  0  0  0
   -8.1916   -0.9313   -1.6165 H   0  0  0  0  0  0  0  0  0  0  0  0
   -8.2409   -2.5669    0.6509 H   0  0  0  0  0  0  0  0  0  0  0  0
   -6.0850   -1.9481    0.3316 H   0  0  0  0  0  0  0  0  0  0  0  0
   -6.4776   -2.6009   -1.2515 H   0  0  0  0  0  0  0  0  0  0  0  0
   -6.7948    0.0194   -2.8730 H   0  0  0  0  0  0  0  0  0  0  0  0
   -5.1378    0.2714   -3.3070 H   0  0  0  0  0  0  0  0  0  0  0  0
   -5.8228   -1.3642   -3.3666 H   0  0  0  0  0  0  0  0  0  0  0  0
    2.2849   -2.7116   -1.6033 H   0  0  0  0  0  0  0  0  0  0  0  0
    1.1181   -2.9063   -0.3210 H   0  0  0  0  0  0  0  0  0  0  0  0
    0.6538   -3.2321   -1.9949 H   0  0  0  0  0  0  0  0  0  0  0  0
    1.0606   -1.3588   -3.7051 H   0  0  0  0  0  0  0  0  0  0  0  0
    2.4777   -0.6859   -2.9143 H   0  0  0  0  0  0  0  0  0  0  0  0
    1.6164    0.9638   -3.9381 H   0  0  0  0  0  0  0  0  0  0  0  0
    5.4680   -0.6435   -0.6183 H   0  0  0  0  0  0  0  0  0  0  0  0
    4.1965   -1.1189    1.2968 H   0  0  0  0  0  0  0  0  0  0  0  0
    6.2207    1.5583    1.2873 H   0  0  0  0  0  0  0  0  0  0  0  0
    7.8097    0.4033    1.8277 H   0  0  0  0  0  0  0  0  0  0  0  0
   11.3757    0.7811    1.4778 H   0  0  0  0  0  0  0  0  0  0  0  0
   10.8479    1.4230    3.8355 H   0  0  0  0  0  0  0  0  0  0  0  0
    9.1147    1.4769    3.4442 H   0  0  0  0  0  0  0  0  0  0  0  0
   10.7705    2.9543    1.7825 H   0  0  0  0  0  0  0  0  0  0  0  0
   11.2643   -1.2311    2.6725 H   0  0  0  0  0  0  0  0  0  0  0  0
    9.2384   -2.0563    3.4298 H   0  0  0  0  0  0  0  0  0  0  0  0
   10.5887   -1.7085    0.3218 H   0  0  0  0  0  0  0  0  0  0  0  0
    9.4920   -3.6156    0.7384 H   0  0  0  0  0  0  0  0  0  0  0  0
    7.6393   -1.8426    1.0414 H   0  0  0  0  0  0  0  0  0  0  0  0
    7.9223   -0.8731   -1.2308 H   0  0  0  0  0  0  0  0  0  0  0  0
    6.6322    3.0279   -0.8997 H   0  0  0  0  0  0  0  0  0  0  0  0
    5.5729    3.8052    0.8225 H   0  0  0  0  0  0  0  0  0  0  0  0
  1  2  1  0
  2  3  1  0
  3  4  1  0
  4  5  1  0
  5  6  1  0
  6  7  1  0
  7  8  1  0
  8  9  1  0
  9 10  1  0
  9 11  1  0
 11 12  1  0
 12 13  1  0
 13 14  1  0
 14 15  1  0
 14 16  1  0
 16 17  1  0
 17 18  2  0
 18 19  1  0
 19 20  2  0
 20 21  1  0
 21 22  1  0
 22 23  1  0
 22 24  1  0
 22 25  1  0
 25 26  1  0
 26 27  1  0
 27 28  1  0
 28 29  1  0
 27 30  1  0
 30 31  1  0
 30 32  1  0
 32 33  1  0
 33 34  1  0
 11 35  1  0
 35 36  1  0
 35 37  1  0
 37 38  1  0
  4 39  1  0
 39 40  1  0
 39 41  1  0
 41 42  1  0
 42 43  1  0
 43 44  1  0
 44 45  1  0
 45 46  1  0
 46 47  1  0
 45 48  1  0
 48 49  1  0
 48 50  1  0
 50 51  1  0
 50 52  1  0
 52 53  1  0
 41 54  1  0
 54 55  1  0
 54  2  1  0
 35  6  1  0
 52 43  1  0
 16  9  1  0
 33 19  1  0
 33 14  1  0
 27 20  1  0
  1 56  1  0
  1 57  1  0
  1 58  1  0
  2 59  1  0
  4 60  1  0
  6 61  1  0
  7 62  1  0
  7 63  1  0
  8 64  1  0
  8 65  1  0
 10 66  1  0
 10 67  1  0
 10 68  1  0
 11 69  1  0
 12 70  1  0
 12 71  1  0
 13 72  1  0
 13 73  1  0
 15 74  1  0
 15 75  1  0
 15 76  1  0
 16 77  1  0
 17 78  1  0
 18 79  1  0
 21 80  1  0
 21 81  1  0
 23 82  1  0
 23 83  1  0
 23 84  1  0
 24 85  1  0
 24 86  1  0
 24 87  1  0
 25 88  1  0
 25 89  1  0
 26 90  1  0
 26 91  1  0
 28 92  1  0
 28 93  1  0
 29 94  1  0
 30 95  1  0
 31 96  1  0
 32 97  1  0
 32 98  1  0
 34 99  1  0
 34100  1  0
 34101  1  0
 36102  1  0
 36103  1  0
 36104  1  0
 37105  1  0
 37106  1  0
 38107  1  0
 39108  1  0
 40109  1  0
 41110  1  0
 43111  1  0
 45112  1  0
 46113  1  0
 46114  1  0
 47115  1  0
 48116  1  0
 49117  1  0
 50118  1  0
 51119  1  0
 52120  1  0
 53121  1  0
 54122  1  0
 55123  1  0
M  END
$$$$
