
     RDKit          3D

 70 73  0  0  0  0  0  0  0  0999 V2000
    1.7788    1.9541   -2.1602 C   0  0  0  0  0  0  0  0  0  0  0  0
    0.6441    1.1655   -1.8038 O   0  0  0  0  0  0  0  0  0  0  0  0
   -0.3392    1.8183   -1.1081 C   0  0  0  0  0  0  0  0  0  0  0  0
   -0.7137    3.1325   -1.4392 C   0  0  0  0  0  0  0  0  0  0  0  0
   -1.7546    3.7819   -0.7668 C   0  0  0  0  0  0  0  0  0  0  0  0
   -2.1679    5.0641   -1.0298 O   0  0  0  0  0  0  0  0  0  0  0  0
   -1.4724    5.7946   -2.0324 C   0  0  0  0  0  0  0  0  0  0  0  0
   -2.4474    3.0962    0.2404 C   0  0  0  0  0  0  0  0  0  0  0  0
   -3.5640    3.6927    0.9704 C   0  0  0  0  0  0  0  0  0  0  0  0
   -4.2119    3.0014    1.9134 C   0  0  0  0  0  0  0  0  0  0  0  0
   -3.8381    1.6272    2.2673 C   0  0  0  0  0  0  0  0  0  0  0  0
   -4.4375    1.0125    3.1435 O   0  0  0  0  0  0  0  0  0  0  0  0
   -2.7749    1.0803    1.5647 O   0  0  0  0  0  0  0  0  0  0  0  0
   -2.0712    1.7827    0.5502 C   0  0  0  0  0  0  0  0  0  0  0  0
   -1.0166    1.1077   -0.1021 C   0  0  0  0  0  0  0  0  0  0  0  0
   -0.7018   -0.3441    0.2794 C   0  0  0  0  0  0  0  0  0  0  0  0
    0.7903   -0.7648    0.3715 C   0  0  0  0  0  0  0  0  0  0  0  0
    1.5685    0.0804    1.3949 C   0  0  0  0  0  0  0  0  0  0  0  0
    2.9923   -0.2871    1.4931 N   0  0  0  0  0  0  0  0  0  0  0  0
    3.1806   -1.6761    1.9496 C   0  0  0  0  0  0  0  0  0  0  0  0
    4.4870   -1.9193    2.7186 C   0  0  0  0  0  0  0  0  0  0  0  0
    5.6187   -1.0547    2.1821 C   0  0  0  0  0  0  0  0  0  0  0  0
    5.2425    0.4378    2.2081 C   0  0  0  0  0  0  0  0  0  0  0  0
    5.9744    1.1767    3.3310 C   0  0  0  0  0  0  0  0  0  0  0  0
    3.7221    0.6602    2.3402 C   0  0  0  0  0  0  0  0  0  0  0  0
   -1.5167   -1.3322   -0.5546 C   0  0  0  0  0  0  0  0  0  0  0  0
   -1.1968   -1.6288   -1.8822 C   0  0  0  0  0  0  0  0  0  0  0  0
   -1.9825   -2.5188   -2.6328 C   0  0  0  0  0  0  0  0  0  0  0  0
   -3.1076   -3.1627   -2.0924 C   0  0  0  0  0  0  0  0  0  0  0  0
   -3.9156   -4.0387   -2.8341 N   0  0  0  0  0  0  0  0  0  0  0  0
   -4.4116   -5.2189   -2.1232 C   0  0  0  0  0  0  0  0  0  0  0  0
   -3.6087   -4.2531   -4.2472 C   0  0  0  0  0  0  0  0  0  0  0  0
   -3.4177   -2.8447   -0.7592 C   0  0  0  0  0  0  0  0  0  0  0  0
   -2.6445   -1.9512   -0.0037 C   0  0  0  0  0  0  0  0  0  0  0  0
    2.6089    1.2707   -2.3610 H   0  0  0  0  0  0  0  0  0  0  0  0
    2.0846    2.6230   -1.3480 H   0  0  0  0  0  0  0  0  0  0  0  0
    1.5800    2.5190   -3.0778 H   0  0  0  0  0  0  0  0  0  0  0  0
   -0.1996    3.6287   -2.2534 H   0  0  0  0  0  0  0  0  0  0  0  0
   -1.9044    6.8004   -2.0745 H   0  0  0  0  0  0  0  0  0  0  0  0
   -0.4098    5.9013   -1.7825 H   0  0  0  0  0  0  0  0  0  0  0  0
   -1.6060    5.3321   -3.0167 H   0  0  0  0  0  0  0  0  0  0  0  0
   -3.8660    4.7059    0.7278 H   0  0  0  0  0  0  0  0  0  0  0  0
   -5.0459    3.4230    2.4594 H   0  0  0  0  0  0  0  0  0  0  0  0
   -1.0413   -0.4720    1.3176 H   0  0  0  0  0  0  0  0  0  0  0  0
    1.2943   -0.7361   -0.5998 H   0  0  0  0  0  0  0  0  0  0  0  0
    0.8184   -1.8188    0.6795 H   0  0  0  0  0  0  0  0  0  0  0  0
    1.0876    0.0056    2.3791 H   0  0  0  0  0  0  0  0  0  0  0  0
    1.5073    1.1314    1.0917 H   0  0  0  0  0  0  0  0  0  0  0  0
    2.3572   -2.0001    2.6003 H   0  0  0  0  0  0  0  0  0  0  0  0
    3.1690   -2.3263    1.0657 H   0  0  0  0  0  0  0  0  0  0  0  0
    4.7592   -2.9795    2.6561 H   0  0  0  0  0  0  0  0  0  0  0  0
    4.3344   -1.6937    3.7821 H   0  0  0  0  0  0  0  0  0  0  0  0
    5.8218   -1.3513    1.1441 H   0  0  0  0  0  0  0  0  0  0  0  0
    6.5396   -1.2471    2.7448 H   0  0  0  0  0  0  0  0  0  0  0  0
    5.5772    0.8784    1.2580 H   0  0  0  0  0  0  0  0  0  0  0  0
    5.7110    0.7682    4.3131 H   0  0  0  0  0  0  0  0  0  0  0  0
    5.7191    2.2422    3.3268 H   0  0  0  0  0  0  0  0  0  0  0  0
    7.0600    1.0930    3.2088 H   0  0  0  0  0  0  0  0  0  0  0  0
    3.5116    1.6922    2.0298 H   0  0  0  0  0  0  0  0  0  0  0  0
    3.3959    0.5732    3.3858 H   0  0  0  0  0  0  0  0  0  0  0  0
   -0.3358   -1.1671   -2.3602 H   0  0  0  0  0  0  0  0  0  0  0  0
   -1.6747   -2.6946   -3.6599 H   0  0  0  0  0  0  0  0  0  0  0  0
   -3.5819   -5.8057   -1.7106 H   0  0  0  0  0  0  0  0  0  0  0  0
   -4.9729   -5.8728   -2.7998 H   0  0  0  0  0  0  0  0  0  0  0  0
   -5.1072   -4.9542   -1.3182 H   0  0  0  0  0  0  0  0  0  0  0  0
   -4.3985   -4.8441   -4.7243 H   0  0  0  0  0  0  0  0  0  0  0  0
   -3.5650   -3.3043   -4.7945 H   0  0  0  0  0  0  0  0  0  0  0  0
   -2.6623   -4.7933   -4.3710 H   0  0  0  0  0  0  0  0  0  0  0  0
   -4.2997   -3.2638   -0.2815 H   0  0  0  0  0  0  0  0  0  0  0  0
   -2.9527   -1.7349    1.0171 H   0  0  0  0  0  0  0  0  0  0  0  0
  1  2  1  0
  2  3  1  0
  3  4  2  0
  4  5  1  0
  5  6  1  0
  6  7  1  0
  5  8  2  0
  8  9  1  0
  9 10  2  0
 10 11  1  0
 11 12  2  0
 11 13  1  0
 13 14  1  0
 14 15  2  0
 15 16  1  0
 16 17  1  0
 17 18  1  0
 18 19  1  0
 19 20  1  0
 20 21  1  0
 21 22  1  0
 22 23  1  0
 23 24  1  0
 23 25  1  0
 16 26  1  0
 26 27  2  0
 27 28  1  0
 28 29  2  0
 29 30  1  0
 30 31  1  0
 30 32  1  0
 29 33  1  0
 33 34  2  0
 15  3  1  0
 25 19  1  0
 34 26  1  0
 14  8  1  0
  1 35  1  0
  1 36  1  0
  1 37  1  0
  4 38  1  0
  7 39  1  0
  7 40  1  0
  7 41  1  0
  9 42  1  0
 10 43  1  0
 16 44  1  0
 17 45  1  0
 17 46  1  0
 18 47  1  0
 18 48  1  0
 20 49  1  0
 20 50  1  0
 21 51  1  0
 21 52  1  0
 22 53  1  0
 22 54  1  0
 23 55  1  0
 24 56  1  0
 24 57  1  0
 24 58  1  0
 25 59  1  0
 25 60  1  0
 27 61  1  0
 28 62  1  0
 31 63  1  0
 31 64  1  0
 31 65  1  0
 32 66  1  0
 32 67  1  0
 32 68  1  0
 33 69  1  0
 34 70  1  0
M  END
$$$$
