
     RDKit          3D

 38 39  0  0  0  0  0  0  0  0999 V2000
   -5.5688   -1.2380    1.9759 C   0  0  0  0  0  0  0  0  0  0  0  0
   -5.1522   -0.3711    0.9309 O   0  0  0  0  0  0  0  0  0  0  0  0
   -3.8399    0.0322    0.9193 C   0  0  0  0  0  0  0  0  0  0  0  0
   -2.8897   -0.3447    1.8759 C   0  0  0  0  0  0  0  0  0  0  0  0
   -1.5748    0.1159    1.7834 C   0  0  0  0  0  0  0  0  0  0  0  0
   -1.2067    0.9553    0.7309 C   0  0  0  0  0  0  0  0  0  0  0  0
    0.2015    1.4358    0.6219 C   0  0  0  0  0  0  0  0  0  0  0  0
    0.8252    1.8695    1.6760 N   0  0  0  0  0  0  0  0  0  0  0  0
    0.7940    1.3937   -0.6276 N   0  0  0  0  0  0  0  0  0  0  0  0
    2.1984    1.4872   -0.5480 O   0  0  0  0  0  0  0  0  0  0  0  0
    2.7985    0.2500   -0.5847 C   0  0  0  0  0  0  0  0  0  0  0  0
    2.1928   -0.7869   -0.8345 O   0  0  0  0  0  0  0  0  0  0  0  0
    4.2646    0.4068   -0.2522 C   0  0  0  0  0  0  0  0  0  0  0  0
    5.0264   -0.8549   -0.5280 C   0  0  0  0  0  0  0  0  0  0  0  0
    5.2519   -1.9220    0.3199 C   0  0  0  0  0  0  0  0  0  0  0  0
    6.0298   -2.9459   -0.2937 C   0  0  0  0  0  0  0  0  0  0  0  0
    6.3758   -2.6254   -1.5869 C   0  0  0  0  0  0  0  0  0  0  0  0
    5.7663   -1.0988   -2.0552 S   0  0  0  0  0  0  0  0  0  0  0  0
   -2.1444    1.3376   -0.2342 C   0  0  0  0  0  0  0  0  0  0  0  0
   -3.4641    0.8827   -0.1434 C   0  0  0  0  0  0  0  0  0  0  0  0
   -4.4570    1.2047   -1.0357 O   0  0  0  0  0  0  0  0  0  0  0  0
   -4.1370    2.1025   -2.0889 C   0  0  0  0  0  0  0  0  0  0  0  0
   -5.4647   -0.7565    2.9537 H   0  0  0  0  0  0  0  0  0  0  0  0
   -6.6303   -1.4573    1.8254 H   0  0  0  0  0  0  0  0  0  0  0  0
   -5.0254   -2.1880    1.9416 H   0  0  0  0  0  0  0  0  0  0  0  0
   -3.1402   -1.0012    2.7028 H   0  0  0  0  0  0  0  0  0  0  0  0
   -0.8416   -0.2037    2.5202 H   0  0  0  0  0  0  0  0  0  0  0  0
    0.2119    1.8677    2.4965 H   0  0  0  0  0  0  0  0  0  0  0  0
    0.5036    0.5973   -1.2002 H   0  0  0  0  0  0  0  0  0  0  0  0
    4.3469    0.6641    0.8099 H   0  0  0  0  0  0  0  0  0  0  0  0
    4.6756    1.2361   -0.8395 H   0  0  0  0  0  0  0  0  0  0  0  0
    4.8703   -1.9720    1.3330 H   0  0  0  0  0  0  0  0  0  0  0  0
    6.3182   -3.8718    0.1884 H   0  0  0  0  0  0  0  0  0  0  0  0
    6.9572   -3.2150   -2.2824 H   0  0  0  0  0  0  0  0  0  0  0  0
   -1.8291    2.0014   -1.0320 H   0  0  0  0  0  0  0  0  0  0  0  0
   -3.8204    3.0749   -1.6975 H   0  0  0  0  0  0  0  0  0  0  0  0
   -5.0440    2.2617   -2.6800 H   0  0  0  0  0  0  0  0  0  0  0  0
   -3.3782    1.6761   -2.7532 H   0  0  0  0  0  0  0  0  0  0  0  0
  1  2  1  0
  2  3  1  0
  3  4  2  0
  4  5  1  0
  5  6  2  0
  6  7  1  0
  7  8  2  3
  7  9  1  0
  9 10  1  0
 10 11  1  0
 11 12  2  0
 11 13  1  0
 13 14  1  0
 14 15  2  0
 15 16  1  0
 16 17  2  0
 17 18  1  0
  6 19  1  0
 19 20  2  0
 20 21  1  0
 21 22  1  0
 20  3  1  0
 18 14  1  0
  1 23  1  0
  1 24  1  0
  1 25  1  0
  4 26  1  0
  5 27  1  0
  8 28  1  0
  9 29  1  0
 13 30  1  0
 13 31  1  0
 15 32  1  0
 16 33  1  0
 17 34  1  0
 19 35  1  0
 22 36  1  0
 22 37  1  0
 22 38  1  0
M  END
$$$$
