
     RDKit          3D

 45 47  0  0  0  0  0  0  0  0999 V2000
    5.5949    4.7568   -2.9549 C   0  0  0  0  0  0  0  0  0  0  0  0
    5.0054    3.4591   -2.4593 C   0  0  0  0  0  0  0  0  0  0  0  0
    5.4438    2.3829   -2.8476 O   0  0  0  0  0  0  0  0  0  0  0  0
    3.9400    3.6622   -1.6010 N   0  0  0  0  0  0  0  0  0  0  0  0
    3.1641    2.6760   -0.9556 C   0  0  0  0  0  0  0  0  0  0  0  0
    2.0472    3.1164   -0.2308 C   0  0  0  0  0  0  0  0  0  0  0  0
    1.2107    2.2035    0.4174 C   0  0  0  0  0  0  0  0  0  0  0  0
    1.4951    0.8392    0.3431 C   0  0  0  0  0  0  0  0  0  0  0  0
    0.3992   -0.3168    1.1443 S   0  0  0  0  0  6  0  0  0  0  0  0
    1.0625   -1.6041    1.1578 O   0  0  0  0  0  0  0  0  0  0  0  0
   -0.0109    0.3155    2.3766 O   0  0  0  0  0  0  0  0  0  0  0  0
   -0.8429   -0.3934    0.0348 N   0  0  0  0  0  0  0  0  0  0  0  0
   -0.5705   -1.0414   -1.2499 C   0  0  0  0  0  0  0  0  0  0  0  0
   -1.9615   -1.0096   -1.8866 C   0  0  0  0  0  0  0  0  0  0  0  0
   -2.9289   -0.5899   -0.8410 N   0  0  0  0  0  0  0  0  0  0  0  0
   -2.2230   -0.2732    0.1989 C   0  0  0  0  0  0  0  0  0  0  0  0
   -2.9483    0.2879    1.6508 S   0  0  0  0  0  0  0  0  0  0  0  0
   -4.2883   -0.9213    1.8153 C   0  0  0  0  0  0  0  0  0  0  0  0
   -3.7967   -2.3425    1.9653 C   0  0  0  0  0  0  0  0  0  0  0  0
   -3.1803   -2.7650    3.1555 C   0  0  0  0  0  0  0  0  0  0  0  0
   -2.7166   -4.0760    3.2827 C   0  0  0  0  0  0  0  0  0  0  0  0
   -2.8694   -4.9639    2.2249 C   0  0  0  0  0  0  0  0  0  0  0  0
   -2.4386   -6.2257    2.3524 F   0  0  0  0  0  0  0  0  0  0  0  0
   -3.4718   -4.5654    1.0390 C   0  0  0  0  0  0  0  0  0  0  0  0
   -3.9365   -3.2575    0.9093 C   0  0  0  0  0  0  0  0  0  0  0  0
    2.6225    0.3866   -0.3423 C   0  0  0  0  0  0  0  0  0  0  0  0
    3.4490    1.3081   -0.9961 C   0  0  0  0  0  0  0  0  0  0  0  0
    6.6306    4.5882   -3.2674 H   0  0  0  0  0  0  0  0  0  0  0  0
    5.5986    5.5119   -2.1647 H   0  0  0  0  0  0  0  0  0  0  0  0
    5.0119    5.1203   -3.8064 H   0  0  0  0  0  0  0  0  0  0  0  0
    3.6469    4.6217   -1.4602 H   0  0  0  0  0  0  0  0  0  0  0  0
    1.8059    4.1750   -0.1674 H   0  0  0  0  0  0  0  0  0  0  0  0
    0.3445    2.5599    0.9723 H   0  0  0  0  0  0  0  0  0  0  0  0
   -0.2483   -2.0767   -1.1105 H   0  0  0  0  0  0  0  0  0  0  0  0
    0.1535   -0.4963   -1.8591 H   0  0  0  0  0  0  0  0  0  0  0  0
   -2.0005   -0.2953   -2.7162 H   0  0  0  0  0  0  0  0  0  0  0  0
   -2.2337   -1.9966   -2.2750 H   0  0  0  0  0  0  0  0  0  0  0  0
   -4.9718   -0.8241    0.9663 H   0  0  0  0  0  0  0  0  0  0  0  0
   -4.8748   -0.6587    2.7049 H   0  0  0  0  0  0  0  0  0  0  0  0
   -3.0568   -2.0724    3.9851 H   0  0  0  0  0  0  0  0  0  0  0  0
   -2.2465   -4.4140    4.2001 H   0  0  0  0  0  0  0  0  0  0  0  0
   -3.5845   -5.2762    0.2262 H   0  0  0  0  0  0  0  0  0  0  0  0
   -4.4075   -2.9536   -0.0227 H   0  0  0  0  0  0  0  0  0  0  0  0
    2.8661   -0.6729   -0.3835 H   0  0  0  0  0  0  0  0  0  0  0  0
    4.3160    0.9233   -1.5251 H   0  0  0  0  0  0  0  0  0  0  0  0
  1  2  1  0
  2  3  2  0
  2  4  1  0
  4  5  1  0
  5  6  2  0
  6  7  1  0
  7  8  2  0
  8  9  1  0
  9 10  2  0
  9 11  2  0
  9 12  1  0
 12 13  1  0
 13 14  1  0
 14 15  1  0
 15 16  2  0
 16 17  1  0
 17 18  1  0
 18 19  1  0
 19 20  2  0
 20 21  1  0
 21 22  2  0
 22 23  1  0
 22 24  1  0
 24 25  2  0
  8 26  1  0
 26 27  2  0
 27  5  1  0
 16 12  1  0
 25 19  1  0
  1 28  1  0
  1 29  1  0
  1 30  1  0
  4 31  1  0
  6 32  1  0
  7 33  1  0
 13 34  1  0
 13 35  1  0
 14 36  1  0
 14 37  1  0
 18 38  1  0
 18 39  1  0
 20 40  1  0
 21 41  1  0
 24 42  1  0
 25 43  1  0
 26 44  1  0
 27 45  1  0
M  END
$$$$
