
     RDKit          3D

 53 54  0  0  0  0  0  0  0  0999 V2000
    0.5306    4.8225    0.5142 C   0  0  0  0  0  0  0  0  0  0  0  0
   -0.6574    4.3718   -0.7758 S   0  0  0  0  0  0  0  0  0  0  0  0
   -0.3510    2.5758   -0.8553 C   0  0  0  0  0  0  0  0  0  0  0  0
   -0.9941    1.8390    0.3203 C   0  0  0  0  0  0  0  0  0  0  0  0
   -0.8204    0.3189    0.2156 C   0  0  0  0  0  0  0  0  0  0  0  0
   -1.6448   -0.3517    1.2288 N   0  0  0  0  0  0  0  0  0  0  0  0
   -2.0620   -1.6578    1.0162 C   0  0  0  0  0  0  0  0  0  0  0  0
   -1.9012   -2.2290   -0.0578 O   0  0  0  0  0  0  0  0  0  0  0  0
   -2.7333   -2.2866    2.2415 C   0  0  0  0  0  0  0  0  0  0  0  0
   -3.1401   -3.6194    1.9751 O   0  0  0  0  0  0  0  0  0  0  0  0
   -3.7572   -4.2987    2.9881 C   0  0  0  0  0  0  0  0  0  0  0  0
   -4.0262   -3.8069    4.2663 C   0  0  0  0  0  0  0  0  0  0  0  0
   -4.6675   -4.6171    5.2092 C   0  0  0  0  0  0  0  0  0  0  0  0
   -5.0417   -5.9187    4.8794 C   0  0  0  0  0  0  0  0  0  0  0  0
   -4.7759   -6.4137    3.6054 C   0  0  0  0  0  0  0  0  0  0  0  0
   -4.1358   -5.6046    2.6653 C   0  0  0  0  0  0  0  0  0  0  0  0
    0.6388   -0.0667    0.4846 C   0  0  0  0  0  0  0  0  0  0  0  0
    1.1013   -0.2697    1.6023 O   0  0  0  0  0  0  0  0  0  0  0  0
    1.3464   -0.0849   -0.6750 O   0  0  0  0  0  0  0  0  0  0  0  0
    2.7601   -0.3037   -0.5293 C   0  0  0  0  0  0  0  0  0  0  0  0
    3.4501    0.1872   -1.7996 C   0  0  0  0  0  0  0  0  0  0  0  0
    3.3151    1.6127   -1.8499 O   0  0  0  0  0  0  0  0  0  0  0  0
    3.7190    2.2347   -2.9976 C   0  0  0  0  0  0  0  0  0  0  0  0
    3.3474    3.5790   -3.0958 C   0  0  0  0  0  0  0  0  0  0  0  0
    3.6982    4.3347   -4.2165 C   0  0  0  0  0  0  0  0  0  0  0  0
    4.4302    3.7422   -5.2414 C   0  0  0  0  0  0  0  0  0  0  0  0
    4.9110    4.7568   -6.7615 Br  0  0  0  0  0  0  0  0  0  0  0  0
    4.8124    2.4050   -5.1518 C   0  0  0  0  0  0  0  0  0  0  0  0
    4.4577    1.6506   -4.0279 C   0  0  0  0  0  0  0  0  0  0  0  0
    1.5375    4.4996    0.2370 H   0  0  0  0  0  0  0  0  0  0  0  0
    0.2501    4.3793    1.4724 H   0  0  0  0  0  0  0  0  0  0  0  0
    0.5362    5.9099    0.6284 H   0  0  0  0  0  0  0  0  0  0  0  0
    0.7287    2.4133   -0.8984 H   0  0  0  0  0  0  0  0  0  0  0  0
   -0.7763    2.2134   -1.7971 H   0  0  0  0  0  0  0  0  0  0  0  0
   -0.5697    2.1900    1.2692 H   0  0  0  0  0  0  0  0  0  0  0  0
   -2.0675    2.0696    0.3499 H   0  0  0  0  0  0  0  0  0  0  0  0
   -1.1183   -0.0449   -0.7742 H   0  0  0  0  0  0  0  0  0  0  0  0
   -1.4516   -0.0960    2.1910 H   0  0  0  0  0  0  0  0  0  0  0  0
   -3.6034   -1.6669    2.4896 H   0  0  0  0  0  0  0  0  0  0  0  0
   -2.0012   -2.2720    3.0580 H   0  0  0  0  0  0  0  0  0  0  0  0
   -3.7529   -2.8011    4.5649 H   0  0  0  0  0  0  0  0  0  0  0  0
   -4.8755   -4.2308    6.2039 H   0  0  0  0  0  0  0  0  0  0  0  0
   -5.5400   -6.5459    5.6139 H   0  0  0  0  0  0  0  0  0  0  0  0
   -5.0650   -7.4272    3.3409 H   0  0  0  0  0  0  0  0  0  0  0  0
   -3.9295   -5.9935    1.6707 H   0  0  0  0  0  0  0  0  0  0  0  0
    2.9328   -1.3763   -0.3958 H   0  0  0  0  0  0  0  0  0  0  0  0
    3.1438    0.2512    0.3347 H   0  0  0  0  0  0  0  0  0  0  0  0
    2.9665   -0.2651   -2.6738 H   0  0  0  0  0  0  0  0  0  0  0  0
    4.5116   -0.0809   -1.7615 H   0  0  0  0  0  0  0  0  0  0  0  0
    2.7732    4.0411   -2.2964 H   0  0  0  0  0  0  0  0  0  0  0  0
    3.3949    5.3764   -4.2773 H   0  0  0  0  0  0  0  0  0  0  0  0
    5.3870    1.9400   -5.9488 H   0  0  0  0  0  0  0  0  0  0  0  0
    4.7789    0.6152   -3.9871 H   0  0  0  0  0  0  0  0  0  0  0  0
  1  2  1  0
  2  3  1  0
  3  4  1  0
  4  5  1  0
  5  6  1  0
  6  7  1  0
  7  8  2  0
  7  9  1  0
  9 10  1  0
 10 11  1  0
 11 12  2  0
 12 13  1  0
 13 14  2  0
 14 15  1  0
 15 16  2  0
  5 17  1  0
 17 18  2  0
 17 19  1  0
 19 20  1  0
 20 21  1  0
 21 22  1  0
 22 23  1  0
 23 24  2  0
 24 25  1  0
 25 26  2  0
 26 27  1  0
 26 28  1  0
 28 29  2  0
 16 11  1  0
 29 23  1  0
  1 30  1  0
  1 31  1  0
  1 32  1  0
  3 33  1  0
  3 34  1  0
  4 35  1  0
  4 36  1  0
  5 37  1  0
  6 38  1  0
  9 39  1  0
  9 40  1  0
 12 41  1  0
 13 42  1  0
 14 43  1  0
 15 44  1  0
 16 45  1  0
 20 46  1  0
 20 47  1  0
 21 48  1  0
 21 49  1  0
 24 50  1  0
 25 51  1  0
 28 52  1  0
 29 53  1  0
M  END
$$$$
