
     RDKit          3D

 49 52  0  0  0  0  0  0  0  0999 V2000
    7.1643    0.3132   -2.6559 C   0  0  0  0  0  0  0  0  0  0  0  0
    5.8537   -0.1090   -2.0609 C   0  0  0  0  0  0  0  0  0  0  0  0
    4.9494   -0.8731   -2.8078 C   0  0  0  0  0  0  0  0  0  0  0  0
    3.7425   -1.2938   -2.2433 C   0  0  0  0  0  0  0  0  0  0  0  0
    3.4284   -0.9624   -0.9220 C   0  0  0  0  0  0  0  0  0  0  0  0
    2.1686   -1.3983   -0.3181 C   0  0  0  0  0  0  0  0  0  0  0  0
    0.9769   -0.8668   -0.6276 C   0  0  0  0  0  0  0  0  0  0  0  0
    0.6879    0.2505   -1.6094 C   0  0  0  0  0  0  0  0  0  0  0  0
   -0.8282    0.5099   -1.5144 C   0  0  0  0  0  0  0  0  0  0  0  0
   -1.2943   -0.5037   -0.5244 C   0  0  0  0  0  0  0  0  0  0  0  0
   -0.2893   -1.2427   -0.0618 C   0  0  0  0  0  0  0  0  0  0  0  0
   -0.3841   -2.2233    0.9131 O   0  0  0  0  0  0  0  0  0  0  0  0
   -1.6280   -2.5059    1.3676 C   0  0  0  0  0  0  0  0  0  0  0  0
   -1.7261   -3.1820    2.4656 N   0  0  0  0  0  0  0  0  0  0  0  0
   -2.8535   -2.0882    0.5844 C   0  0  0  0  0  0  0  0  0  0  0  0
   -3.1160   -3.1239   -0.4304 C   0  0  0  0  0  0  0  0  0  0  0  0
   -3.3356   -3.9111   -1.2552 N   0  0  0  0  0  0  0  0  0  0  0  0
   -2.7041   -0.7070   -0.0887 C   0  0  0  0  0  0  0  0  0  0  0  0
   -3.2017    0.4231    0.8040 C   0  0  0  0  0  0  0  0  0  0  0  0
   -4.3338    1.1596    0.4228 C   0  0  0  0  0  0  0  0  0  0  0  0
   -4.8194    2.1936    1.2275 C   0  0  0  0  0  0  0  0  0  0  0  0
   -4.1914    2.5074    2.4361 C   0  0  0  0  0  0  0  0  0  0  0  0
   -4.6932    3.6384    3.2838 C   0  0  0  0  0  0  0  0  0  0  0  0
   -3.0538    1.7883    2.8142 C   0  0  0  0  0  0  0  0  0  0  0  0
   -2.5662    0.7539    2.0108 C   0  0  0  0  0  0  0  0  0  0  0  0
    4.3373   -0.2160   -0.1673 C   0  0  0  0  0  0  0  0  0  0  0  0
    5.5441    0.2050   -0.7323 C   0  0  0  0  0  0  0  0  0  0  0  0
    7.9224   -0.4548   -2.4743 H   0  0  0  0  0  0  0  0  0  0  0  0
    7.0706    0.4701   -3.7357 H   0  0  0  0  0  0  0  0  0  0  0  0
    7.5052    1.2578   -2.2193 H   0  0  0  0  0  0  0  0  0  0  0  0
    5.1791   -1.1479   -3.8349 H   0  0  0  0  0  0  0  0  0  0  0  0
    3.0533   -1.8869   -2.8398 H   0  0  0  0  0  0  0  0  0  0  0  0
    2.2578   -2.1869    0.4247 H   0  0  0  0  0  0  0  0  0  0  0  0
    1.2453    1.1589   -1.3544 H   0  0  0  0  0  0  0  0  0  0  0  0
    0.9512   -0.0459   -2.6311 H   0  0  0  0  0  0  0  0  0  0  0  0
   -1.0278    1.5292   -1.1675 H   0  0  0  0  0  0  0  0  0  0  0  0
   -1.3105    0.3691   -2.4872 H   0  0  0  0  0  0  0  0  0  0  0  0
   -0.7704   -3.3703    2.7949 H   0  0  0  0  0  0  0  0  0  0  0  0
   -3.7076   -2.0750    1.2751 H   0  0  0  0  0  0  0  0  0  0  0  0
   -3.3218   -0.7001   -0.9990 H   0  0  0  0  0  0  0  0  0  0  0  0
   -4.8522    0.9396   -0.5086 H   0  0  0  0  0  0  0  0  0  0  0  0
   -5.6950    2.7525    0.9037 H   0  0  0  0  0  0  0  0  0  0  0  0
   -4.4861    3.4542    4.3433 H   0  0  0  0  0  0  0  0  0  0  0  0
   -5.7774    3.7528    3.1806 H   0  0  0  0  0  0  0  0  0  0  0  0
   -4.2086    4.5731    2.9856 H   0  0  0  0  0  0  0  0  0  0  0  0
   -2.5369    2.0284    3.7411 H   0  0  0  0  0  0  0  0  0  0  0  0
   -1.6784    0.2210    2.3436 H   0  0  0  0  0  0  0  0  0  0  0  0
    4.1125    0.0447    0.8641 H   0  0  0  0  0  0  0  0  0  0  0  0
    6.2410    0.7807   -0.1274 H   0  0  0  0  0  0  0  0  0  0  0  0
  1  2  1  0
  2  3  2  0
  3  4  1  0
  4  5  2  0
  5  6  1  0
  6  7  2  3
  7  8  1  0
  8  9  1  0
  9 10  1  0
 10 11  2  0
 11 12  1  0
 12 13  1  0
 13 14  2  3
 13 15  1  0
 15 16  1  0
 16 17  3  0
 15 18  1  0
 18 19  1  0
 19 20  2  0
 20 21  1  0
 21 22  2  0
 22 23  1  0
 22 24  1  0
 24 25  2  0
  5 26  1  0
 26 27  2  0
 27  2  1  0
 11  7  1  0
 25 19  1  0
 18 10  1  0
  1 28  1  0
  1 29  1  0
  1 30  1  0
  3 31  1  0
  4 32  1  0
  6 33  1  0
  8 34  1  0
  8 35  1  0
  9 36  1  0
  9 37  1  0
 14 38  1  0
 15 39  1  0
 18 40  1  0
 20 41  1  0
 21 42  1  0
 23 43  1  0
 23 44  1  0
 23 45  1  0
 24 46  1  0
 25 47  1  0
 26 48  1  0
 27 49  1  0
M  END
$$$$
