
     RDKit          3D

 44 46  0  0  0  0  0  0  0  0999 V2000
    4.2019   -2.2422   -0.6072 C   0  0  0  0  0  0  0  0  0  0  0  0
    3.3370   -1.1036   -0.5881 O   0  0  0  0  0  0  0  0  0  0  0  0
    2.1649   -1.2798   -1.2621 C   0  0  0  0  0  0  0  0  0  0  0  0
    1.8569   -2.2946   -1.8697 O   0  0  0  0  0  0  0  0  0  0  0  0
    1.3213   -0.0272   -1.1789 C   0  0  0  0  0  0  0  0  0  0  0  0
    0.1793   -0.0668   -2.1750 C   0  0  0  0  0  0  0  0  0  0  0  0
    0.4984    0.2736   -3.6110 C   0  0  0  0  0  0  0  0  0  0  0  0
   -1.0454   -0.3842   -1.8827 N   0  0  0  0  0  0  0  0  0  0  0  0
   -1.3644   -0.7250   -0.5911 C   0  0  0  0  0  0  0  0  0  0  0  0
   -0.5503   -0.4699    0.4384 C   0  0  0  0  0  0  0  0  0  0  0  0
   -0.9524   -0.8790    1.7964 C   0  0  0  0  0  0  0  0  0  0  0  0
   -0.1482   -0.7954    2.7233 O   0  0  0  0  0  0  0  0  0  0  0  0
   -2.2372   -1.3562    1.9380 N   0  0  0  0  0  0  0  0  0  0  0  0
   -2.6688   -1.7077    3.2778 C   0  0  0  0  0  0  0  0  0  0  0  0
   -3.0709   -1.6605    0.8713 C   0  0  0  0  0  0  0  0  0  0  0  0
   -4.1646   -2.2048    1.0369 O   0  0  0  0  0  0  0  0  0  0  0  0
   -2.5920   -1.3225   -0.3893 N   0  0  0  0  0  0  0  0  0  0  0  0
   -3.4345   -1.6061   -1.5484 C   0  0  0  0  0  0  0  0  0  0  0  0
    0.7963    0.1708    0.2525 C   0  0  0  0  0  0  0  0  0  0  0  0
    0.7786    1.6507    0.6440 C   0  0  0  0  0  0  0  0  0  0  0  0
    1.5584    2.0847    1.7300 C   0  0  0  0  0  0  0  0  0  0  0  0
    1.5673    3.4282    2.1123 C   0  0  0  0  0  0  0  0  0  0  0  0
    0.7934    4.3510    1.4150 C   0  0  0  0  0  0  0  0  0  0  0  0
    0.8046    6.0058    1.8836 Cl  0  0  0  0  0  0  0  0  0  0  0  0
    0.0070    3.9407    0.3418 C   0  0  0  0  0  0  0  0  0  0  0  0
   -0.0036    2.5967   -0.0412 C   0  0  0  0  0  0  0  0  0  0  0  0
    3.7397   -3.0762   -0.0698 H   0  0  0  0  0  0  0  0  0  0  0  0
    4.4438   -2.5281   -1.6363 H   0  0  0  0  0  0  0  0  0  0  0  0
    5.1295   -1.9709   -0.0963 H   0  0  0  0  0  0  0  0  0  0  0  0
    1.9772    0.8020   -1.4787 H   0  0  0  0  0  0  0  0  0  0  0  0
    1.2572   -0.4142   -3.9927 H   0  0  0  0  0  0  0  0  0  0  0  0
   -0.3967    0.1985   -4.2340 H   0  0  0  0  0  0  0  0  0  0  0  0
    0.8828    1.2958   -3.6610 H   0  0  0  0  0  0  0  0  0  0  0  0
   -2.3711   -0.9213    3.9787 H   0  0  0  0  0  0  0  0  0  0  0  0
   -3.7519   -1.8412    3.3413 H   0  0  0  0  0  0  0  0  0  0  0  0
   -2.1739   -2.6381    3.5700 H   0  0  0  0  0  0  0  0  0  0  0  0
   -4.3680   -2.1023   -1.2700 H   0  0  0  0  0  0  0  0  0  0  0  0
   -3.6882   -0.6663   -2.0502 H   0  0  0  0  0  0  0  0  0  0  0  0
   -2.8945   -2.2655   -2.2363 H   0  0  0  0  0  0  0  0  0  0  0  0
    1.4957   -0.3333    0.9328 H   0  0  0  0  0  0  0  0  0  0  0  0
    2.1584    1.3754    2.2990 H   0  0  0  0  0  0  0  0  0  0  0  0
    2.1741    3.7438    2.9572 H   0  0  0  0  0  0  0  0  0  0  0  0
   -0.6056    4.6592   -0.1970 H   0  0  0  0  0  0  0  0  0  0  0  0
   -0.6417    2.3058   -0.8732 H   0  0  0  0  0  0  0  0  0  0  0  0
  1  2  1  0
  2  3  1  0
  3  4  2  0
  3  5  1  0
  5  6  1  0
  6  7  1  0
  6  8  2  0
  8  9  1  0
  9 10  2  0
 10 11  1  0
 11 12  2  0
 11 13  1  0
 13 14  1  0
 13 15  1  0
 15 16  2  0
 15 17  1  0
 17 18  1  0
 10 19  1  0
 19 20  1  0
 20 21  2  0
 21 22  1  0
 22 23  2  0
 23 24  1  0
 23 25  1  0
 25 26  2  0
 19  5  1  0
 26 20  1  0
 17  9  1  0
  1 27  1  0
  1 28  1  0
  1 29  1  0
  5 30  1  0
  7 31  1  0
  7 32  1  0
  7 33  1  0
 14 34  1  0
 14 35  1  0
 14 36  1  0
 18 37  1  0
 18 38  1  0
 18 39  1  0
 19 40  1  0
 21 41  1  0
 22 42  1  0
 25 43  1  0
 26 44  1  0
M  END
$$$$
