
     RDKit          3D

142147  0  0  0  0  0  0  0  0999 V2000
   -6.0317   -3.7395   -0.0205 C   0  0  0  0  0  0  0  0  0  0  0  0
   -5.0650   -2.8483    0.2570 C   0  0  0  0  0  0  0  0  0  0  0  0
   -4.3660   -1.8866   -0.6995 C   0  0  0  0  0  0  0  0  0  0  0  0
   -4.8642   -1.9430   -2.1546 C   0  0  0  0  0  0  0  0  0  0  0  0
   -2.8516   -2.2556   -0.6329 C   0  0  0  0  0  0  0  0  0  0  0  0
   -1.9033   -1.3553   -1.4631 C   0  0  0  0  0  0  0  0  0  0  0  0
   -0.3476   -1.6167   -1.2559 C   0  0  0  0  0  0  0  0  0  0  0  0
   -0.1753   -3.1396   -1.5377 C   0  0  0  0  0  0  0  0  0  0  0  0
    0.4171   -0.7187   -2.3161 C   0  0  0  0  0  0  0  0  0  0  0  0
    1.2156   -1.4635   -3.3886 C   0  0  0  0  0  0  0  0  0  0  0  0
    1.2797    0.3945   -1.6975 C   0  0  0  0  0  0  0  0  0  0  0  0
    2.2561   -0.0209   -0.5891 C   0  0  0  0  0  0  0  0  0  0  0  0
    3.4495   -0.4390   -1.2842 O   0  0  0  0  0  0  0  0  0  0  0  0
    4.6732    0.0236   -0.7102 C   0  0  0  0  0  0  0  0  0  0  0  0
    5.5668   -1.0883   -0.6190 O   0  0  0  0  0  0  0  0  0  0  0  0
    6.9539   -0.7773   -0.4264 C   0  0  0  0  0  0  0  0  0  0  0  0
    7.7253   -1.1800   -1.6807 C   0  0  0  0  0  0  0  0  0  0  0  0
    7.1952    0.6815    0.0231 C   0  0  0  0  0  0  0  0  0  0  0  0
    8.6006    0.8998    0.1601 O   0  0  0  0  0  0  0  0  0  0  0  0
    8.9566    1.9912    1.0137 C   0  0  0  0  0  0  0  0  0  0  0  0
    9.9451    1.5331    1.9474 O   0  0  0  0  0  0  0  0  0  0  0  0
   11.1832    1.1746    1.3103 C   0  0  0  0  0  0  0  0  0  0  0  0
   12.1022    0.5498    2.3671 C   0  0  0  0  0  0  0  0  0  0  0  0
   11.4974   -0.5643    3.0434 O   0  0  0  0  0  0  0  0  0  0  0  0
   11.3632   -1.7050    2.3214 C   0  0  0  0  0  0  0  0  0  0  0  0
   10.7510   -2.7827    3.1748 C   0  0  0  0  0  0  0  0  0  0  0  0
   11.7200   -1.8739    1.1581 O   0  0  0  0  0  0  0  0  0  0  0  0
   11.8167    2.3849    0.5894 C   0  0  0  0  0  0  0  0  0  0  0  0
   13.0556    2.8071    1.1790 O   0  0  0  0  0  0  0  0  0  0  0  0
   10.8773    3.5923    0.5142 C   0  0  0  0  0  0  0  0  0  0  0  0
   10.8873    4.2910    1.7714 O   0  0  0  0  0  0  0  0  0  0  0  0
    9.4538    3.1838    0.1471 C   0  0  0  0  0  0  0  0  0  0  0  0
    8.6005    4.3308    0.2940 O   0  0  0  0  0  0  0  0  0  0  0  0
    6.5617    1.6749   -0.9741 C   0  0  0  0  0  0  0  0  0  0  0  0
    6.3192    2.9257   -0.2878 O   0  0  0  0  0  0  0  0  0  0  0  0
    5.2639    1.1407   -1.5956 C   0  0  0  0  0  0  0  0  0  0  0  0
    4.3589    2.2485   -1.7656 O   0  0  0  0  0  0  0  0  0  0  0  0
    1.7030   -1.1165    0.4155 C   0  0  0  0  0  0  0  0  0  0  0  0
    2.3931   -2.4812    0.1863 C   0  0  0  0  0  0  0  0  0  0  0  0
    2.0200   -0.6895    1.8890 C   0  0  0  0  0  0  0  0  0  0  0  0
    3.3556   -1.0161    2.5189 C   0  0  0  0  0  0  0  0  0  0  0  0
    1.1100   -0.0971    2.6848 C   0  0  0  0  0  0  0  0  0  0  0  0
   -0.2899    0.2116    2.3170 C   0  0  0  0  0  0  0  0  0  0  0  0
   -0.6308   -0.0573    0.8566 C   0  0  0  0  0  0  0  0  0  0  0  0
    0.1173   -1.2795    0.2385 C   0  0  0  0  0  0  0  0  0  0  0  0
   -4.4924   -0.5676   -0.1393 O   0  0  0  0  0  0  0  0  0  0  0  0
   -5.8148    0.0000   -0.1600 C   0  0  0  0  0  0  0  0  0  0  0  0
   -5.9247    0.9001   -1.2638 O   0  0  0  0  0  0  0  0  0  0  0  0
   -7.2509    1.4476   -1.4189 C   0  0  0  0  0  0  0  0  0  0  0  0
   -7.0771    2.8025   -2.0994 C   0  0  0  0  0  0  0  0  0  0  0  0
   -8.0357    1.5866   -0.0878 C   0  0  0  0  0  0  0  0  0  0  0  0
   -8.7134    0.3343    0.2038 O   0  0  0  0  0  0  0  0  0  0  0  0
  -10.0671    0.3101   -0.2867 C   0  0  0  0  0  0  0  0  0  0  0  0
  -10.8789    1.0676    0.6086 O   0  0  0  0  0  0  0  0  0  0  0  0
  -12.2553    1.0601    0.2301 C   0  0  0  0  0  0  0  0  0  0  0  0
  -13.0238    1.9683    1.1847 C   0  0  0  0  0  0  0  0  0  0  0  0
  -12.8211   -0.3775    0.2600 C   0  0  0  0  0  0  0  0  0  0  0  0
  -14.1736   -0.3891   -0.2099 O   0  0  0  0  0  0  0  0  0  0  0  0
  -11.9896   -1.2932   -0.6479 C   0  0  0  0  0  0  0  0  0  0  0  0
  -12.2096   -0.9296   -2.0235 O   0  0  0  0  0  0  0  0  0  0  0  0
  -10.5099   -1.1762   -0.3201 C   0  0  0  0  0  0  0  0  0  0  0  0
  -10.2553   -1.7883    0.9606 O   0  0  0  0  0  0  0  0  0  0  0  0
   -7.0642    1.8501    1.0697 C   0  0  0  0  0  0  0  0  0  0  0  0
   -7.8006    1.9392    2.3040 O   0  0  0  0  0  0  0  0  0  0  0  0
   -5.9754    0.7728    1.1718 C   0  0  0  0  0  0  0  0  0  0  0  0
   -4.7323    1.4198    1.5220 O   0  0  0  0  0  0  0  0  0  0  0  0
   -6.4235   -4.3795    0.7669 H   0  0  0  0  0  0  0  0  0  0  0  0
   -6.4544   -3.8697   -1.0108 H   0  0  0  0  0  0  0  0  0  0  0  0
   -4.7053   -2.8097    1.2852 H   0  0  0  0  0  0  0  0  0  0  0  0
   -5.9486   -1.7968   -2.2210 H   0  0  0  0  0  0  0  0  0  0  0  0
   -4.6265   -2.9017   -2.6259 H   0  0  0  0  0  0  0  0  0  0  0  0
   -4.4152   -1.1385   -2.7551 H   0  0  0  0  0  0  0  0  0  0  0  0
   -2.5247   -2.2242    0.4170 H   0  0  0  0  0  0  0  0  0  0  0  0
   -2.7346   -3.2970   -0.9590 H   0  0  0  0  0  0  0  0  0  0  0  0
   -2.1323   -0.2991   -1.2908 H   0  0  0  0  0  0  0  0  0  0  0  0
   -2.1345   -1.5261   -2.5234 H   0  0  0  0  0  0  0  0  0  0  0  0
   -0.7427   -3.4450   -2.4238 H   0  0  0  0  0  0  0  0  0  0  0  0
   -0.5447   -3.7467   -0.6949 H   0  0  0  0  0  0  0  0  0  0  0  0
    0.8460   -3.4540   -1.7176 H   0  0  0  0  0  0  0  0  0  0  0  0
   -0.3491   -0.1770   -2.8951 H   0  0  0  0  0  0  0  0  0  0  0  0
    2.0669   -2.0189   -2.9783 H   0  0  0  0  0  0  0  0  0  0  0  0
    0.5797   -2.1654   -3.9446 H   0  0  0  0  0  0  0  0  0  0  0  0
    1.6142   -0.7643   -4.1294 H   0  0  0  0  0  0  0  0  0  0  0  0
    0.6168    1.1781   -1.3177 H   0  0  0  0  0  0  0  0  0  0  0  0
    1.8350    0.8991   -2.4973 H   0  0  0  0  0  0  0  0  0  0  0  0
    2.4707    0.9088   -0.0392 H   0  0  0  0  0  0  0  0  0  0  0  0
    4.4997    0.4269    0.2920 H   0  0  0  0  0  0  0  0  0  0  0  0
    7.3191   -1.4362    0.3760 H   0  0  0  0  0  0  0  0  0  0  0  0
    8.8052   -0.9764   -1.5834 H   0  0  0  0  0  0  0  0  0  0  0  0
    7.3569   -0.6542   -2.5756 H   0  0  0  0  0  0  0  0  0  0  0  0
    7.5983   -2.2507   -1.8781 H   0  0  0  0  0  0  0  0  0  0  0  0
    6.7218    0.7997    1.0084 H   0  0  0  0  0  0  0  0  0  0  0  0
    8.1017    2.2953    1.6289 H   0  0  0  0  0  0  0  0  0  0  0  0
   10.9394    0.4124    0.5627 H   0  0  0  0  0  0  0  0  0  0  0  0
   13.0607    0.2345    1.9382 H   0  0  0  0  0  0  0  0  0  0  0  0
   12.3223    1.2806    3.1547 H   0  0  0  0  0  0  0  0  0  0  0  0
    9.9206   -2.3721    3.7534 H   0  0  0  0  0  0  0  0  0  0  0  0
   10.3576   -3.5769    2.5246 H   0  0  0  0  0  0  0  0  0  0  0  0
   11.5099   -3.2037    3.8398 H   0  0  0  0  0  0  0  0  0  0  0  0
   12.0667    2.0543   -0.4342 H   0  0  0  0  0  0  0  0  0  0  0  0
   12.8122    3.4724    1.8635 H   0  0  0  0  0  0  0  0  0  0  0  0
   11.2585    4.3171   -0.2127 H   0  0  0  0  0  0  0  0  0  0  0  0
   10.1887    4.9673    1.6804 H   0  0  0  0  0  0  0  0  0  0  0  0
    9.4167    2.9069   -0.9129 H   0  0  0  0  0  0  0  0  0  0  0  0
    7.6849    3.9946    0.2179 H   0  0  0  0  0  0  0  0  0  0  0  0
    7.2673    1.9246   -1.7742 H   0  0  0  0  0  0  0  0  0  0  0  0
    5.4678    3.2431   -0.6662 H   0  0  0  0  0  0  0  0  0  0  0  0
    5.4790    0.7264   -2.5860 H   0  0  0  0  0  0  0  0  0  0  0  0
    3.7772    2.0005   -2.5082 H   0  0  0  0  0  0  0  0  0  0  0  0
    3.4431   -2.4812    0.4960 H   0  0  0  0  0  0  0  0  0  0  0  0
    1.8918   -3.2835    0.7310 H   0  0  0  0  0  0  0  0  0  0  0  0
    2.4383   -2.7474   -0.8712 H   0  0  0  0  0  0  0  0  0  0  0  0
    4.1958   -0.8022    1.8614 H   0  0  0  0  0  0  0  0  0  0  0  0
    3.4035   -2.0797    2.7915 H   0  0  0  0  0  0  0  0  0  0  0  0
    3.5278   -0.4432    3.4335 H   0  0  0  0  0  0  0  0  0  0  0  0
    1.3780    0.1555    3.7094 H   0  0  0  0  0  0  0  0  0  0  0  0
   -0.9514   -0.3974    2.9535 H   0  0  0  0  0  0  0  0  0  0  0  0
   -0.5078    1.2619    2.5517 H   0  0  0  0  0  0  0  0  0  0  0  0
   -1.7122   -0.2043    0.8300 H   0  0  0  0  0  0  0  0  0  0  0  0
   -0.4496    0.8542    0.2890 H   0  0  0  0  0  0  0  0  0  0  0  0
   -0.1817   -2.1347    0.8619 H   0  0  0  0  0  0  0  0  0  0  0  0
   -6.5807   -0.7767   -0.2401 H   0  0  0  0  0  0  0  0  0  0  0  0
   -7.7946    0.7765   -2.0976 H   0  0  0  0  0  0  0  0  0  0  0  0
   -6.5461    2.6881   -3.0502 H   0  0  0  0  0  0  0  0  0  0  0  0
   -6.4719    3.4718   -1.4883 H   0  0  0  0  0  0  0  0  0  0  0  0
   -8.0442    3.2708   -2.2937 H   0  0  0  0  0  0  0  0  0  0  0  0
   -8.7806    2.3897   -0.1307 H   0  0  0  0  0  0  0  0  0  0  0  0
  -10.1071    0.7402   -1.2932 H   0  0  0  0  0  0  0  0  0  0  0  0
  -12.3502    1.4866   -0.7735 H   0  0  0  0  0  0  0  0  0  0  0  0
  -14.0819    2.0361    0.9205 H   0  0  0  0  0  0  0  0  0  0  0  0
  -12.5994    2.9824    1.1558 H   0  0  0  0  0  0  0  0  0  0  0  0
  -12.9355    1.6242    2.2184 H   0  0  0  0  0  0  0  0  0  0  0  0
  -12.8011   -0.7517    1.2917 H   0  0  0  0  0  0  0  0  0  0  0  0
  -14.5926   -1.1921    0.1466 H   0  0  0  0  0  0  0  0  0  0  0  0
  -12.3369   -2.3244   -0.5458 H   0  0  0  0  0  0  0  0  0  0  0  0
  -13.1524   -0.6785   -2.0666 H   0  0  0  0  0  0  0  0  0  0  0  0
   -9.8954   -1.7075   -1.0565 H   0  0  0  0  0  0  0  0  0  0  0  0
   -9.3613   -1.4926    1.2065 H   0  0  0  0  0  0  0  0  0  0  0  0
   -6.5984    2.8347    0.9314 H   0  0  0  0  0  0  0  0  0  0  0  0
   -8.6019    1.3907    2.2051 H   0  0  0  0  0  0  0  0  0  0  0  0
   -6.1760    0.0609    1.9762 H   0  0  0  0  0  0  0  0  0  0  0  0
   -4.0475    0.8990    1.0545 H   0  0  0  0  0  0  0  0  0  0  0  0
  1  2  2  0
  2  3  1  0
  3  4  1  0
  3  5  1  0
  5  6  1  0
  6  7  1  0
  7  8  1  0
  7  9  1  0
  9 10  1  0
  9 11  1  0
 11 12  1  0
 12 13  1  0
 13 14  1  0
 14 15  1  0
 15 16  1  0
 16 17  1  0
 16 18  1  0
 18 19  1  0
 19 20  1  0
 20 21  1  0
 21 22  1  0
 22 23  1  0
 23 24  1  0
 24 25  1  0
 25 26  1  0
 25 27  2  0
 22 28  1  0
 28 29  1  0
 28 30  1  0
 30 31  1  0
 30 32  1  0
 32 33  1  0
 18 34  1  0
 34 35  1  0
 34 36  1  0
 36 37  1  0
 12 38  1  0
 38 39  1  0
 38 40  1  0
 40 41  1  0
 40 42  2  0
 42 43  1  0
 43 44  1  0
 44 45  1  0
  3 46  1  0
 46 47  1  0
 47 48  1  0
 48 49  1  0
 49 50  1  0
 49 51  1  0
 51 52  1  0
 52 53  1  0
 53 54  1  0
 54 55  1  0
 55 56  1  0
 55 57  1  0
 57 58  1  0
 57 59  1  0
 59 60  1  0
 59 61  1  0
 61 62  1  0
 51 63  1  0
 63 64  1  0
 63 65  1  0
 65 66  1  0
 45  7  1  0
 65 47  1  0
 36 14  1  0
 45 38  1  0
 61 53  1  0
 32 20  1  0
  1 67  1  0
  1 68  1  0
  2 69  1  0
  4 70  1  0
  4 71  1  0
  4 72  1  0
  5 73  1  0
  5 74  1  0
  6 75  1  0
  6 76  1  0
  8 77  1  0
  8 78  1  0
  8 79  1  0
  9 80  1  0
 10 81  1  0
 10 82  1  0
 10 83  1  0
 11 84  1  0
 11 85  1  0
 12 86  1  0
 14 87  1  0
 16 88  1  0
 17 89  1  0
 17 90  1  0
 17 91  1  0
 18 92  1  0
 20 93  1  0
 22 94  1  0
 23 95  1  0
 23 96  1  0
 26 97  1  0
 26 98  1  0
 26 99  1  0
 28100  1  0
 29101  1  0
 30102  1  0
 31103  1  0
 32104  1  0
 33105  1  0
 34106  1  0
 35107  1  0
 36108  1  0
 37109  1  0
 39110  1  0
 39111  1  0
 39112  1  0
 41113  1  0
 41114  1  0
 41115  1  0
 42116  1  0
 43117  1  0
 43118  1  0
 44119  1  0
 44120  1  0
 45121  1  0
 47122  1  0
 49123  1  0
 50124  1  0
 50125  1  0
 50126  1  0
 51127  1  0
 53128  1  0
 55129  1  0
 56130  1  0
 56131  1  0
 56132  1  0
 57133  1  0
 58134  1  0
 59135  1  0
 60136  1  0
 61137  1  0
 62138  1  0
 63139  1  0
 64140  1  0
 65141  1  0
 66142  1  0
M  END
$$$$
