
     RDKit          3D

 45 48  0  0  0  0  0  0  0  0999 V2000
    5.2873   -0.8288   -1.6407 O   0  0  0  0  0  0  0  0  0  0  0  0
    4.2660   -0.2651   -1.2651 C   0  0  0  0  0  0  0  0  0  0  0  0
    2.9968   -0.8120   -1.2100 N   0  0  0  0  0  0  0  0  0  0  0  0
    2.5718   -2.1019   -1.6324 C   0  0  0  0  0  0  0  0  0  0  0  0
    3.4507   -3.0044   -2.2477 C   0  0  0  0  0  0  0  0  0  0  0  0
    3.0208   -4.2699   -2.6551 C   0  0  0  0  0  0  0  0  0  0  0  0
    1.7024   -4.6557   -2.4578 C   0  0  0  0  0  0  0  0  0  0  0  0
    0.8089   -3.7721   -1.8547 C   0  0  0  0  0  0  0  0  0  0  0  0
    1.2197   -2.4891   -1.4369 C   0  0  0  0  0  0  0  0  0  0  0  0
    0.2452   -1.5860   -0.8231 C   0  0  0  0  0  0  0  0  0  0  0  0
    0.3932   -0.3443   -0.3988 N   0  0  0  0  0  0  0  0  0  0  0  0
   -0.8331    0.0535    0.0849 N   0  0  0  0  0  0  0  0  0  0  0  0
   -1.6510   -0.9686   -0.0679 C   0  0  0  0  0  0  0  0  0  0  0  0
   -3.3255   -0.9865    0.3826 S   0  0  0  0  0  0  0  0  0  0  0  0
   -3.4966    0.6909    1.0541 C   0  0  0  0  0  0  0  0  0  0  0  0
   -4.9050    0.9478    1.5341 C   0  0  0  0  0  0  0  0  0  0  0  0
   -5.8804    1.4371    0.6507 C   0  0  0  0  0  0  0  0  0  0  0  0
   -7.1873    1.6596    1.0905 C   0  0  0  0  0  0  0  0  0  0  0  0
   -7.5274    1.3918    2.4143 C   0  0  0  0  0  0  0  0  0  0  0  0
   -9.1376    1.6657    2.9549 Cl  0  0  0  0  0  0  0  0  0  0  0  0
   -6.5722    0.9011    3.3027 C   0  0  0  0  0  0  0  0  0  0  0  0
   -5.2654    0.6770    2.8633 C   0  0  0  0  0  0  0  0  0  0  0  0
   -1.0319   -2.0475   -0.6412 O   0  0  0  0  0  0  0  0  0  0  0  0
    4.3756    1.1442   -0.7775 C   0  0  0  0  0  0  0  0  0  0  0  0
    5.5969    1.5647   -0.2334 C   0  0  0  0  0  0  0  0  0  0  0  0
    5.7500    2.8722    0.2314 C   0  0  0  0  0  0  0  0  0  0  0  0
    4.6872    3.7700    0.1456 C   0  0  0  0  0  0  0  0  0  0  0  0
    3.4740    3.3656   -0.4111 C   0  0  0  0  0  0  0  0  0  0  0  0
    3.3167    2.0581   -0.8779 C   0  0  0  0  0  0  0  0  0  0  0  0
    2.2831   -0.2499   -0.7537 H   0  0  0  0  0  0  0  0  0  0  0  0
    4.4915   -2.7533   -2.4299 H   0  0  0  0  0  0  0  0  0  0  0  0
    3.7254   -4.9504   -3.1278 H   0  0  0  0  0  0  0  0  0  0  0  0
    1.3692   -5.6411   -2.7737 H   0  0  0  0  0  0  0  0  0  0  0  0
   -0.2206   -4.0992   -1.7172 H   0  0  0  0  0  0  0  0  0  0  0  0
   -3.2349    1.4272    0.2854 H   0  0  0  0  0  0  0  0  0  0  0  0
   -2.7949    0.8320    1.8853 H   0  0  0  0  0  0  0  0  0  0  0  0
   -5.6287    1.6451   -0.3872 H   0  0  0  0  0  0  0  0  0  0  0  0
   -7.9335    2.0385    0.3964 H   0  0  0  0  0  0  0  0  0  0  0  0
   -6.8385    0.6883    4.3352 H   0  0  0  0  0  0  0  0  0  0  0  0
   -4.5306    0.2870    3.5652 H   0  0  0  0  0  0  0  0  0  0  0  0
    6.4327    0.8707   -0.1685 H   0  0  0  0  0  0  0  0  0  0  0  0
    6.6994    3.1902    0.6535 H   0  0  0  0  0  0  0  0  0  0  0  0
    4.8079    4.7898    0.5042 H   0  0  0  0  0  0  0  0  0  0  0  0
    2.6518    4.0733   -0.4912 H   0  0  0  0  0  0  0  0  0  0  0  0
    2.3708    1.7846   -1.3373 H   0  0  0  0  0  0  0  0  0  0  0  0
  1  2  2  0
  2  3  1  0
  3  4  1  0
  4  5  2  0
  5  6  1  0
  6  7  2  0
  7  8  1  0
  8  9  2  0
  9 10  1  0
 10 11  2  0
 11 12  1  0
 12 13  2  0
 13 14  1  0
 14 15  1  0
 15 16  1  0
 16 17  2  0
 17 18  1  0
 18 19  2  0
 19 20  1  0
 19 21  1  0
 21 22  2  0
 13 23  1  0
  2 24  1  0
 24 25  2  0
 25 26  1  0
 26 27  2  0
 27 28  1  0
 28 29  2  0
  9  4  1  0
 23 10  1  0
 29 24  1  0
 22 16  1  0
  3 30  1  0
  5 31  1  0
  6 32  1  0
  7 33  1  0
  8 34  1  0
 15 35  1  0
 15 36  1  0
 17 37  1  0
 18 38  1  0
 21 39  1  0
 22 40  1  0
 25 41  1  0
 26 42  1  0
 27 43  1  0
 28 44  1  0
 29 45  1  0
M  END
$$$$
