
     RDKit          3D

 62 64  0  0  0  0  0  0  0  0999 V2000
    4.5357   -2.2584   -1.8008 C   0  0  0  0  0  0  0  0  0  0  0  0
    5.1648   -1.9339   -0.4725 C   0  0  0  0  0  0  0  0  0  0  0  0
    5.6887   -3.0253    0.2482 C   0  0  0  0  0  0  0  0  0  0  0  0
    6.1894   -2.8673    1.5353 C   0  0  0  0  0  0  0  0  0  0  0  0
    6.1695   -1.6127    2.1301 C   0  0  0  0  0  0  0  0  0  0  0  0
    5.6837   -0.4953    1.4307 C   0  0  0  0  0  0  0  0  0  0  0  0
    5.7116    0.8384    2.1347 C   0  0  0  0  0  0  0  0  0  0  0  0
    5.2146   -0.6439    0.0995 C   0  0  0  0  0  0  0  0  0  0  0  0
    4.7664    0.5276   -0.5588 N   0  0  0  0  0  0  0  0  0  0  0  0
    4.9156    0.8467   -1.8978 C   0  0  0  0  0  0  0  0  0  0  0  0
    5.5180    0.1886   -2.7409 O   0  0  0  0  0  0  0  0  0  0  0  0
    4.3080    2.2082   -2.2643 C   0  0  0  0  0  0  0  0  0  0  0  0
    2.9077    2.3267   -2.0028 O   0  0  0  0  0  0  0  0  0  0  0  0
    2.5753    2.6485   -0.7259 C   0  0  0  0  0  0  0  0  0  0  0  0
    3.3790    2.7926    0.1872 O   0  0  0  0  0  0  0  0  0  0  0  0
    1.0849    2.7395   -0.5689 C   0  0  0  0  0  0  0  0  0  0  0  0
    0.5045    1.3463   -0.3687 C   0  0  0  0  0  0  0  0  0  0  0  0
   -0.9924    1.3911   -0.1887 C   0  0  0  0  0  0  0  0  0  0  0  0
   -1.5495    1.4799    1.0953 C   0  0  0  0  0  0  0  0  0  0  0  0
   -2.9337    1.5467    1.2625 C   0  0  0  0  0  0  0  0  0  0  0  0
   -3.7661    1.5140    0.1405 C   0  0  0  0  0  0  0  0  0  0  0  0
   -5.5319    1.6332    0.3479 S   0  0  0  0  0  6  0  0  0  0  0  0
   -5.7755    2.2654    1.6280 O   0  0  0  0  0  0  0  0  0  0  0  0
   -6.0736    2.1928   -0.8730 O   0  0  0  0  0  0  0  0  0  0  0  0
   -6.0240    0.0041    0.4543 N   0  0  0  0  0  0  0  0  0  0  0  0
   -5.9024   -0.8060   -0.7820 C   0  0  0  0  0  0  0  0  0  0  0  0
   -6.7794   -2.0502   -0.6602 C   0  0  0  0  0  0  0  0  0  0  0  0
   -6.4261   -2.8582    0.5854 C   0  0  0  0  0  0  0  0  0  0  0  0
   -6.4772   -1.9783    1.8316 C   0  0  0  0  0  0  0  0  0  0  0  0
   -5.6053   -0.7350    1.6700 C   0  0  0  0  0  0  0  0  0  0  0  0
   -3.2238    1.4557   -1.1461 C   0  0  0  0  0  0  0  0  0  0  0  0
   -1.8392    1.3876   -1.3071 C   0  0  0  0  0  0  0  0  0  0  0  0
    5.2887   -2.2599   -2.5938 H   0  0  0  0  0  0  0  0  0  0  0  0
    4.0765   -3.2539   -1.7741 H   0  0  0  0  0  0  0  0  0  0  0  0
    3.7227   -1.5685   -2.0453 H   0  0  0  0  0  0  0  0  0  0  0  0
    5.6844   -4.0210   -0.1929 H   0  0  0  0  0  0  0  0  0  0  0  0
    6.5789   -3.7243    2.0780 H   0  0  0  0  0  0  0  0  0  0  0  0
    6.5486   -1.5069    3.1445 H   0  0  0  0  0  0  0  0  0  0  0  0
    6.1863    0.7670    3.1195 H   0  0  0  0  0  0  0  0  0  0  0  0
    4.6916    1.2051    2.2886 H   0  0  0  0  0  0  0  0  0  0  0  0
    6.2852    1.5673    1.5528 H   0  0  0  0  0  0  0  0  0  0  0  0
    4.5822    1.3316    0.0390 H   0  0  0  0  0  0  0  0  0  0  0  0
    4.8781    3.0073   -1.7745 H   0  0  0  0  0  0  0  0  0  0  0  0
    4.4360    2.3488   -3.3434 H   0  0  0  0  0  0  0  0  0  0  0  0
    0.8706    3.3895    0.2880 H   0  0  0  0  0  0  0  0  0  0  0  0
    0.6606    3.2396   -1.4479 H   0  0  0  0  0  0  0  0  0  0  0  0
    0.9675    0.8620    0.5015 H   0  0  0  0  0  0  0  0  0  0  0  0
    0.7484    0.7009   -1.2228 H   0  0  0  0  0  0  0  0  0  0  0  0
   -0.9072    1.5065    1.9740 H   0  0  0  0  0  0  0  0  0  0  0  0
   -3.3523    1.6311    2.2632 H   0  0  0  0  0  0  0  0  0  0  0  0
   -4.8580   -1.0974   -0.9401 H   0  0  0  0  0  0  0  0  0  0  0  0
   -6.2368   -0.2337   -1.6528 H   0  0  0  0  0  0  0  0  0  0  0  0
   -6.6631   -2.6755   -1.5525 H   0  0  0  0  0  0  0  0  0  0  0  0
   -7.8342   -1.7513   -0.6098 H   0  0  0  0  0  0  0  0  0  0  0  0
   -5.4201   -3.2816    0.4756 H   0  0  0  0  0  0  0  0  0  0  0  0
   -7.1202   -3.6990    0.6936 H   0  0  0  0  0  0  0  0  0  0  0  0
   -6.1465   -2.5521    2.7046 H   0  0  0  0  0  0  0  0  0  0  0  0
   -7.5156   -1.6758    2.0173 H   0  0  0  0  0  0  0  0  0  0  0  0
   -4.5511   -1.0237    1.5910 H   0  0  0  0  0  0  0  0  0  0  0  0
   -5.7263   -0.1120    2.5618 H   0  0  0  0  0  0  0  0  0  0  0  0
   -3.8684    1.4699   -2.0225 H   0  0  0  0  0  0  0  0  0  0  0  0
   -1.4237    1.3411   -2.3123 H   0  0  0  0  0  0  0  0  0  0  0  0
  1  2  1  0
  2  3  2  0
  3  4  1  0
  4  5  2  0
  5  6  1  0
  6  7  1  0
  6  8  2  0
  8  9  1  0
  9 10  1  0
 10 11  2  0
 10 12  1  0
 12 13  1  0
 13 14  1  0
 14 15  2  0
 14 16  1  0
 16 17  1  0
 17 18  1  0
 18 19  2  0
 19 20  1  0
 20 21  2  0
 21 22  1  0
 22 23  2  0
 22 24  2  0
 22 25  1  0
 25 26  1  0
 26 27  1  0
 27 28  1  0
 28 29  1  0
 29 30  1  0
 21 31  1  0
 31 32  2  0
  8  2  1  0
 32 18  1  0
 30 25  1  0
  1 33  1  0
  1 34  1  0
  1 35  1  0
  3 36  1  0
  4 37  1  0
  5 38  1  0
  7 39  1  0
  7 40  1  0
  7 41  1  0
  9 42  1  0
 12 43  1  0
 12 44  1  0
 16 45  1  0
 16 46  1  0
 17 47  1  0
 17 48  1  0
 19 49  1  0
 20 50  1  0
 26 51  1  0
 26 52  1  0
 27 53  1  0
 27 54  1  0
 28 55  1  0
 28 56  1  0
 29 57  1  0
 29 58  1  0
 30 59  1  0
 30 60  1  0
 31 61  1  0
 32 62  1  0
M  END
$$$$
