
     RDKit          3D

 68 71  0  0  0  0  0  0  0  0999 V2000
    6.9260    1.6529   -6.7684 C   0  0  0  0  0  0  0  0  0  0  0  0
    6.7806    0.3783   -6.1529 O   0  0  0  0  0  0  0  0  0  0  0  0
    5.6768    0.1939   -5.3676 C   0  0  0  0  0  0  0  0  0  0  0  0
    5.6030   -1.0560   -4.7481 C   0  0  0  0  0  0  0  0  0  0  0  0
    4.5299   -1.3776   -3.9131 C   0  0  0  0  0  0  0  0  0  0  0  0
    3.5170   -0.4434   -3.6846 C   0  0  0  0  0  0  0  0  0  0  0  0
    2.3954   -0.7948   -2.8072 C   0  0  0  0  0  0  0  0  0  0  0  0
    2.1269   -0.2221   -1.6162 C   0  0  0  0  0  0  0  0  0  0  0  0
    2.9326    0.8121   -1.0658 C   0  0  0  0  0  0  0  0  0  0  0  0
    3.5526    1.6642   -0.5797 N   0  0  0  0  0  0  0  0  0  0  0  0
    0.9265   -0.7311   -0.8626 C   0  0  0  0  0  0  0  0  0  0  0  0
    0.1973   -1.5811   -1.3676 O   0  0  0  0  0  0  0  0  0  0  0  0
    0.7345   -0.1652    0.3771 N   0  0  0  0  0  0  0  0  0  0  0  0
   -0.2815   -0.4346    1.3214 C   0  0  0  0  0  0  0  0  0  0  0  0
   -1.2750   -1.3991    1.1678 C   0  0  0  0  0  0  0  0  0  0  0  0
   -2.2329   -1.5531    2.1751 C   0  0  0  0  0  0  0  0  0  0  0  0
   -3.4926   -2.7966    2.0220 S   0  0  0  0  0  6  0  0  0  0  0  0
   -3.6932   -3.3623    3.3404 O   0  0  0  0  0  0  0  0  0  0  0  0
   -3.1848   -3.6428    0.8894 O   0  0  0  0  0  0  0  0  0  0  0  0
   -4.8837   -1.8816    1.6199 N   0  0  0  0  0  0  0  0  0  0  0  0
   -6.1639   -2.6397    1.7603 C   0  0  0  0  0  0  0  0  0  0  0  0
   -6.7876   -2.9516    0.4066 C   0  0  0  0  0  0  0  0  0  0  0  0
   -7.1064   -1.6782   -0.3736 C   0  0  0  0  0  0  0  0  0  0  0  0
   -6.1416   -0.5419   -0.0430 C   0  0  0  0  0  0  0  0  0  0  0  0
   -4.7754   -1.0780    0.3673 C   0  0  0  0  0  0  0  0  0  0  0  0
   -2.2006   -0.7700    3.3337 C   0  0  0  0  0  0  0  0  0  0  0  0
   -1.2013    0.1898    3.4892 C   0  0  0  0  0  0  0  0  0  0  0  0
   -0.2332    0.3668    2.4917 C   0  0  0  0  0  0  0  0  0  0  0  0
    0.8139    1.3168    2.6071 N   0  0  0  0  0  0  0  0  0  0  0  0
    1.8146    0.9157    3.6159 C   0  0  0  0  0  0  0  0  0  0  0  0
    2.8681    2.0113    3.7435 C   0  0  0  0  0  0  0  0  0  0  0  0
    2.2530    3.3316    4.2136 C   0  0  0  0  0  0  0  0  0  0  0  0
    0.7469    3.4079    3.9633 C   0  0  0  0  0  0  0  0  0  0  0  0
    0.3498    2.7182    2.6606 C   0  0  0  0  0  0  0  0  0  0  0  0
    3.5819    0.8035   -4.3157 C   0  0  0  0  0  0  0  0  0  0  0  0
    4.6586    1.1221   -5.1516 C   0  0  0  0  0  0  0  0  0  0  0  0
    7.8692    1.6509   -7.3226 H   0  0  0  0  0  0  0  0  0  0  0  0
    6.9825    2.4517   -6.0216 H   0  0  0  0  0  0  0  0  0  0  0  0
    6.1195    1.8358   -7.4856 H   0  0  0  0  0  0  0  0  0  0  0  0
    6.3912   -1.7865   -4.9165 H   0  0  0  0  0  0  0  0  0  0  0  0
    4.5005   -2.3588   -3.4442 H   0  0  0  0  0  0  0  0  0  0  0  0
    1.7721   -1.6037   -3.1870 H   0  0  0  0  0  0  0  0  0  0  0  0
    1.3553    0.5662    0.7268 H   0  0  0  0  0  0  0  0  0  0  0  0
   -1.3174   -2.0355    0.2900 H   0  0  0  0  0  0  0  0  0  0  0  0
   -6.8473   -2.0329    2.3671 H   0  0  0  0  0  0  0  0  0  0  0  0
   -6.0150   -3.5751    2.3107 H   0  0  0  0  0  0  0  0  0  0  0  0
   -6.0970   -3.5713   -0.1801 H   0  0  0  0  0  0  0  0  0  0  0  0
   -7.7019   -3.5416    0.5358 H   0  0  0  0  0  0  0  0  0  0  0  0
   -7.0726   -1.9018   -1.4477 H   0  0  0  0  0  0  0  0  0  0  0  0
   -8.1307   -1.3495   -0.1589 H   0  0  0  0  0  0  0  0  0  0  0  0
   -6.5584    0.0585    0.7767 H   0  0  0  0  0  0  0  0  0  0  0  0
   -6.0473    0.1269   -0.9068 H   0  0  0  0  0  0  0  0  0  0  0  0
   -4.3513   -1.6773   -0.4458 H   0  0  0  0  0  0  0  0  0  0  0  0
   -4.1119   -0.2268    0.5514 H   0  0  0  0  0  0  0  0  0  0  0  0
   -2.9449   -0.9109    4.1148 H   0  0  0  0  0  0  0  0  0  0  0  0
   -1.1776    0.7911    4.3936 H   0  0  0  0  0  0  0  0  0  0  0  0
    2.3030   -0.0151    3.3000 H   0  0  0  0  0  0  0  0  0  0  0  0
    1.3528    0.7335    4.5954 H   0  0  0  0  0  0  0  0  0  0  0  0
    3.3486    2.1664    2.7678 H   0  0  0  0  0  0  0  0  0  0  0  0
    3.6587    1.7019    4.4380 H   0  0  0  0  0  0  0  0  0  0  0  0
    2.4417    3.4716    5.2852 H   0  0  0  0  0  0  0  0  0  0  0  0
    2.7597    4.1600    3.7039 H   0  0  0  0  0  0  0  0  0  0  0  0
    0.2187    2.9362    4.8019 H   0  0  0  0  0  0  0  0  0  0  0  0
    0.4286    4.4566    3.9468 H   0  0  0  0  0  0  0  0  0  0  0  0
    0.8081    3.2502    1.8183 H   0  0  0  0  0  0  0  0  0  0  0  0
   -0.7344    2.8023    2.5182 H   0  0  0  0  0  0  0  0  0  0  0  0
    2.7963    1.5414   -4.1694 H   0  0  0  0  0  0  0  0  0  0  0  0
    4.6690    2.1013   -5.6181 H   0  0  0  0  0  0  0  0  0  0  0  0
  1  2  1  0
  2  3  1  0
  3  4  2  0
  4  5  1  0
  5  6  2  0
  6  7  1  0
  7  8  2  3
  8  9  1  0
  9 10  3  0
  8 11  1  0
 11 12  2  0
 11 13  1  0
 13 14  1  0
 14 15  2  0
 15 16  1  0
 16 17  1  0
 17 18  2  0
 17 19  2  0
 17 20  1  0
 20 21  1  0
 21 22  1  0
 22 23  1  0
 23 24  1  0
 24 25  1  0
 16 26  2  0
 26 27  1  0
 27 28  2  0
 28 29  1  0
 29 30  1  0
 30 31  1  0
 31 32  1  0
 32 33  1  0
 33 34  1  0
  6 35  1  0
 35 36  2  0
 36  3  1  0
 28 14  1  0
 34 29  1  0
 25 20  1  0
  1 37  1  0
  1 38  1  0
  1 39  1  0
  4 40  1  0
  5 41  1  0
  7 42  1  0
 13 43  1  0
 15 44  1  0
 21 45  1  0
 21 46  1  0
 22 47  1  0
 22 48  1  0
 23 49  1  0
 23 50  1  0
 24 51  1  0
 24 52  1  0
 25 53  1  0
 25 54  1  0
 26 55  1  0
 27 56  1  0
 30 57  1  0
 30 58  1  0
 31 59  1  0
 31 60  1  0
 32 61  1  0
 32 62  1  0
 33 63  1  0
 33 64  1  0
 34 65  1  0
 34 66  1  0
 35 67  1  0
 36 68  1  0
M  END
$$$$
