
     RDKit          3D

 74 78  0  0  0  0  0  0  0  0999 V2000
    0.5794   -4.3096    2.9992 C   0  0  0  0  0  0  0  0  0  0  0  0
    0.4604   -2.8911    3.5397 C   0  0  0  0  0  0  0  0  0  0  0  0
   -0.7871   -2.1955    3.0647 C   0  0  0  0  0  0  0  0  0  0  0  0
   -2.0796   -2.3195    3.8431 C   0  0  0  0  0  0  0  0  0  0  0  0
   -2.0891   -3.1564    5.1045 C   0  0  0  0  0  0  0  0  0  0  0  0
   -3.2050   -1.7455    3.5272 N   0  0  0  0  0  0  0  0  0  0  0  0
   -3.2054   -0.9666    2.4117 C   0  0  0  0  0  0  0  0  0  0  0  0
   -4.2081   -0.2423    1.8134 C   0  0  0  0  0  0  0  0  0  0  0  0
   -3.6251    0.3876    0.6877 C   0  0  0  0  0  0  0  0  0  0  0  0
   -4.2606    1.2778   -0.2963 C   0  0  0  0  0  0  0  0  0  0  0  0
   -5.6219    1.6129   -0.2028 C   0  0  0  0  0  0  0  0  0  0  0  0
   -6.2114    2.4605   -1.1433 C   0  0  0  0  0  0  0  0  0  0  0  0
   -7.5208    2.8580   -1.1587 O   0  0  0  0  0  0  0  0  0  0  0  0
   -8.3747    2.3185   -0.1583 C   0  0  0  0  0  0  0  0  0  0  0  0
   -5.4347    2.9782   -2.1815 C   0  0  0  0  0  0  0  0  0  0  0  0
   -4.0819    2.6579   -2.2974 C   0  0  0  0  0  0  0  0  0  0  0  0
   -3.4434    3.2324   -3.3625 O   0  0  0  0  0  0  0  0  0  0  0  0
   -2.0665    2.9172   -3.5331 C   0  0  0  0  0  0  0  0  0  0  0  0
   -3.5017    1.8093   -1.3554 C   0  0  0  0  0  0  0  0  0  0  0  0
   -2.3246    0.0743    0.5963 N   0  0  0  0  0  0  0  0  0  0  0  0
   -2.0670   -0.7662    1.6384 N   0  0  0  0  0  0  0  0  0  0  0  0
   -0.8351   -1.3936    1.9742 C   0  0  0  0  0  0  0  0  0  0  0  0
    0.2962   -1.1647    1.1553 N   0  0  0  0  0  0  0  0  0  0  0  0
    0.8915    0.2008    1.1408 C   0  0  0  0  0  0  0  0  0  0  0  0
    1.0581    0.7715   -0.2851 C   0  0  0  0  0  0  0  0  0  0  0  0
    1.8410   -0.0727   -1.2180 N   0  0  0  0  0  0  0  0  0  0  0  0
    3.2656    0.3105   -1.2373 C   0  0  0  0  0  0  0  0  0  0  0  0
    4.0829   -0.4154   -2.3393 C   0  0  0  0  0  0  0  0  0  0  0  0
    5.4931   -0.0321   -2.4904 N   0  0  0  0  0  0  0  0  0  0  0  0
    6.3461   -0.4504   -1.3668 C   0  0  0  0  0  0  0  0  0  0  0  0
    7.7055    0.2639   -1.4134 C   0  0  0  0  0  0  0  0  0  0  0  0
    7.5906    1.6854   -1.2546 O   0  0  0  0  0  0  0  0  0  0  0  0
    6.3432    2.2107   -1.7292 C   0  0  0  0  0  0  0  0  0  0  0  0
    5.7144    1.3764   -2.8580 C   0  0  0  0  0  0  0  0  0  0  0  0
    1.6586   -1.5094   -0.9002 C   0  0  0  0  0  0  0  0  0  0  0  0
    0.3335   -1.8273   -0.1750 C   0  0  0  0  0  0  0  0  0  0  0  0
   -0.2755   -4.9290    3.2862 H   0  0  0  0  0  0  0  0  0  0  0  0
    1.4860   -4.7843    3.3899 H   0  0  0  0  0  0  0  0  0  0  0  0
    0.6457   -4.3141    1.9064 H   0  0  0  0  0  0  0  0  0  0  0  0
    1.3522   -2.3275    3.2388 H   0  0  0  0  0  0  0  0  0  0  0  0
    0.5001   -2.9085    4.6338 H   0  0  0  0  0  0  0  0  0  0  0  0
   -1.7402   -4.1693    4.8956 H   0  0  0  0  0  0  0  0  0  0  0  0
   -3.1046   -3.2239    5.5081 H   0  0  0  0  0  0  0  0  0  0  0  0
   -1.4513   -2.6899    5.8604 H   0  0  0  0  0  0  0  0  0  0  0  0
   -5.2261   -0.1872    2.1673 H   0  0  0  0  0  0  0  0  0  0  0  0
   -6.2134    1.2075    0.6094 H   0  0  0  0  0  0  0  0  0  0  0  0
   -9.3794    2.7179   -0.3253 H   0  0  0  0  0  0  0  0  0  0  0  0
   -8.4329    1.2278   -0.2346 H   0  0  0  0  0  0  0  0  0  0  0  0
   -8.0551    2.6288    0.8416 H   0  0  0  0  0  0  0  0  0  0  0  0
   -5.8917    3.6397   -2.9139 H   0  0  0  0  0  0  0  0  0  0  0  0
   -1.7125    3.4418   -4.4258 H   0  0  0  0  0  0  0  0  0  0  0  0
   -1.9235    1.8441   -3.6995 H   0  0  0  0  0  0  0  0  0  0  0  0
   -1.4727    3.2695   -2.6829 H   0  0  0  0  0  0  0  0  0  0  0  0
   -2.4511    1.5434   -1.4232 H   0  0  0  0  0  0  0  0  0  0  0  0
    1.8729    0.1402    1.6263 H   0  0  0  0  0  0  0  0  0  0  0  0
    0.2893    0.8972    1.7373 H   0  0  0  0  0  0  0  0  0  0  0  0
    1.4739    1.7849   -0.2279 H   0  0  0  0  0  0  0  0  0  0  0  0
    0.0622    0.8968   -0.7278 H   0  0  0  0  0  0  0  0  0  0  0  0
    3.7122    0.1385   -0.2513 H   0  0  0  0  0  0  0  0  0  0  0  0
    3.3254    1.3878   -1.4317 H   0  0  0  0  0  0  0  0  0  0  0  0
    4.0486   -1.4988   -2.1718 H   0  0  0  0  0  0  0  0  0  0  0  0
    3.5850   -0.2575   -3.3051 H   0  0  0  0  0  0  0  0  0  0  0  0
    6.4997   -1.5343   -1.4135 H   0  0  0  0  0  0  0  0  0  0  0  0
    5.8752   -0.2162   -0.4056 H   0  0  0  0  0  0  0  0  0  0  0  0
    8.3523   -0.1034   -0.6097 H   0  0  0  0  0  0  0  0  0  0  0  0
    8.2202    0.0651   -2.3611 H   0  0  0  0  0  0  0  0  0  0  0  0
    6.5303    3.2317   -2.0777 H   0  0  0  0  0  0  0  0  0  0  0  0
    5.6611    2.2814   -0.8742 H   0  0  0  0  0  0  0  0  0  0  0  0
    6.4111    1.3740   -3.7059 H   0  0  0  0  0  0  0  0  0  0  0  0
    4.7980    1.8568   -3.2188 H   0  0  0  0  0  0  0  0  0  0  0  0
    2.4765   -1.8687   -0.2609 H   0  0  0  0  0  0  0  0  0  0  0  0
    1.6969   -2.0809   -1.8343 H   0  0  0  0  0  0  0  0  0  0  0  0
   -0.5175   -1.5150   -0.7923 H   0  0  0  0  0  0  0  0  0  0  0  0
    0.2565   -2.9119   -0.0381 H   0  0  0  0  0  0  0  0  0  0  0  0
  1  2  1  0
  2  3  1  0
  3  4  1  0
  4  5  1  0
  4  6  2  0
  6  7  1  0
  7  8  2  0
  8  9  1  0
  9 10  1  0
 10 11  2  0
 11 12  1  0
 12 13  1  0
 13 14  1  0
 12 15  2  0
 15 16  1  0
 16 17  1  0
 17 18  1  0
 16 19  2  0
  9 20  2  0
 20 21  1  0
 21 22  1  0
 22 23  1  0
 23 24  1  0
 24 25  1  0
 25 26  1  0
 26 27  1  0
 27 28  1  0
 28 29  1  0
 29 30  1  0
 30 31  1  0
 31 32  1  0
 32 33  1  0
 33 34  1  0
 26 35  1  0
 35 36  1  0
 22  3  2  0
 36 23  1  0
 21  7  1  0
 34 29  1  0
 19 10  1  0
  1 37  1  0
  1 38  1  0
  1 39  1  0
  2 40  1  0
  2 41  1  0
  5 42  1  0
  5 43  1  0
  5 44  1  0
  8 45  1  0
 11 46  1  0
 14 47  1  0
 14 48  1  0
 14 49  1  0
 15 50  1  0
 18 51  1  0
 18 52  1  0
 18 53  1  0
 19 54  1  0
 24 55  1  0
 24 56  1  0
 25 57  1  0
 25 58  1  0
 27 59  1  0
 27 60  1  0
 28 61  1  0
 28 62  1  0
 30 63  1  0
 30 64  1  0
 31 65  1  0
 31 66  1  0
 33 67  1  0
 33 68  1  0
 34 69  1  0
 34 70  1  0
 35 71  1  0
 35 72  1  0
 36 73  1  0
 36 74  1  0
M  END
$$$$
