
     RDKit          3D

 52 56  0  0  0  0  0  0  0  0999 V2000
   -0.4762    0.9062   -3.3264 C   0  0  0  0  0  0  0  0  0  0  0  0
   -1.1920   -0.0373   -2.3682 C   0  0  0  0  0  0  0  0  0  0  0  0
   -0.5958   -0.0228   -0.9557 C   0  0  0  0  0  0  0  0  0  0  0  0
   -0.5896    1.3281   -0.2861 C   0  0  0  0  0  0  0  0  0  0  0  0
    0.3152    2.1109   -0.5544 O   0  0  0  0  0  0  0  0  0  0  0  0
   -1.6639    1.7113    0.6650 C   0  0  0  0  0  0  0  0  0  0  0  0
   -2.9361    1.1286    0.6275 C   0  0  0  0  0  0  0  0  0  0  0  0
   -3.9111    1.5212    1.5504 C   0  0  0  0  0  0  0  0  0  0  0  0
   -3.6178    2.4974    2.5030 C   0  0  0  0  0  0  0  0  0  0  0  0
   -4.8230    2.9788    3.6321 Cl  0  0  0  0  0  0  0  0  0  0  0  0
   -2.3554    3.0860    2.5430 C   0  0  0  0  0  0  0  0  0  0  0  0
   -1.3795    2.6959    1.6217 C   0  0  0  0  0  0  0  0  0  0  0  0
   -0.7687   -1.2552   -0.0721 C   0  0  0  0  0  0  0  0  0  0  0  0
   -1.4014   -2.5335   -0.5258 C   0  0  0  0  0  0  0  0  0  0  0  0
   -2.6687   -2.9346   -0.0787 C   0  0  0  0  0  0  0  0  0  0  0  0
   -3.2234   -4.1551   -0.4780 C   0  0  0  0  0  0  0  0  0  0  0  0
   -2.5164   -5.0015   -1.3301 C   0  0  0  0  0  0  0  0  0  0  0  0
   -1.2569   -4.6264   -1.7875 C   0  0  0  0  0  0  0  0  0  0  0  0
   -0.7211   -3.4042   -1.3822 C   0  0  0  0  0  0  0  0  0  0  0  0
    0.5354   -3.0605   -1.9305 O   0  0  0  0  0  0  0  0  0  0  0  0
    1.1491   -1.8195   -1.7279 C   0  0  0  0  0  0  0  0  0  0  0  0
    2.0834   -1.4408   -2.4235 O   0  0  0  0  0  0  0  0  0  0  0  0
    0.6142   -0.9564   -0.6362 C   0  0  0  0  0  0  0  0  0  0  0  0
    1.6386   -0.6265    0.4177 C   0  0  0  0  0  0  0  0  0  0  0  0
    1.7573   -1.3985    1.3593 O   0  0  0  0  0  0  0  0  0  0  0  0
    2.3415    0.5360    0.2041 N   0  0  0  0  0  0  0  0  0  0  0  0
    3.3806    1.0733    0.9893 C   0  0  0  0  0  0  0  0  0  0  0  0
    3.8451    2.3486    0.6422 C   0  0  0  0  0  0  0  0  0  0  0  0
    4.8783    2.9527    1.3638 C   0  0  0  0  0  0  0  0  0  0  0  0
    5.4589    2.2851    2.4389 C   0  0  0  0  0  0  0  0  0  0  0  0
    5.0048    1.0158    2.7903 C   0  0  0  0  0  0  0  0  0  0  0  0
    3.9696    0.4110    2.0679 C   0  0  0  0  0  0  0  0  0  0  0  0
   -0.8805    0.7944   -4.3379 H   0  0  0  0  0  0  0  0  0  0  0  0
   -0.6120    1.9517   -3.0325 H   0  0  0  0  0  0  0  0  0  0  0  0
    0.5974    0.7011   -3.3598 H   0  0  0  0  0  0  0  0  0  0  0  0
   -1.1791   -1.0382   -2.8100 H   0  0  0  0  0  0  0  0  0  0  0  0
   -2.2481    0.2530   -2.3097 H   0  0  0  0  0  0  0  0  0  0  0  0
   -3.1966    0.3802   -0.1144 H   0  0  0  0  0  0  0  0  0  0  0  0
   -4.8996    1.0685    1.5173 H   0  0  0  0  0  0  0  0  0  0  0  0
   -2.1247    3.8479    3.2840 H   0  0  0  0  0  0  0  0  0  0  0  0
   -0.3941    3.1596    1.6596 H   0  0  0  0  0  0  0  0  0  0  0  0
   -0.8768   -1.0732    0.9985 H   0  0  0  0  0  0  0  0  0  0  0  0
   -3.2301   -2.3016    0.6052 H   0  0  0  0  0  0  0  0  0  0  0  0
   -4.2055   -4.4502   -0.1143 H   0  0  0  0  0  0  0  0  0  0  0  0
   -2.9464   -5.9523   -1.6357 H   0  0  0  0  0  0  0  0  0  0  0  0
   -0.6999   -5.2759   -2.4566 H   0  0  0  0  0  0  0  0  0  0  0  0
    2.0101    1.1338   -0.5528 H   0  0  0  0  0  0  0  0  0  0  0  0
    3.4051    2.8893   -0.1929 H   0  0  0  0  0  0  0  0  0  0  0  0
    5.2287    3.9423    1.0834 H   0  0  0  0  0  0  0  0  0  0  0  0
    6.2661    2.7498    3.0002 H   0  0  0  0  0  0  0  0  0  0  0  0
    5.4575    0.4885    3.6265 H   0  0  0  0  0  0  0  0  0  0  0  0
    3.6534   -0.5830    2.3678 H   0  0  0  0  0  0  0  0  0  0  0  0
  1  2  1  0
  2  3  1  0
  3  4  1  0
  4  5  2  0
  4  6  1  0
  6  7  2  0
  7  8  1  0
  8  9  2  0
  9 10  1  0
  9 11  1  0
 11 12  2  0
  3 13  1  0
 13 14  1  0
 14 15  2  0
 15 16  1  0
 16 17  2  0
 17 18  1  0
 18 19  2  0
 19 20  1  0
 20 21  1  0
 21 22  2  0
 21 23  1  0
 23 24  1  0
 24 25  2  0
 24 26  1  0
 26 27  1  0
 27 28  2  0
 28 29  1  0
 29 30  2  0
 30 31  1  0
 31 32  2  0
 23  3  1  0
 32 27  1  0
 12  6  1  0
 23 13  1  0
 19 14  1  0
  1 33  1  0
  1 34  1  0
  1 35  1  0
  2 36  1  0
  2 37  1  0
  7 38  1  0
  8 39  1  0
 11 40  1  0
 12 41  1  0
 13 42  1  0
 15 43  1  0
 16 44  1  0
 17 45  1  0
 18 46  1  0
 26 47  1  0
 28 48  1  0
 29 49  1  0
 30 50  1  0
 31 51  1  0
 32 52  1  0
M  END
$$$$
