
     RDKit          3D

 39 41  0  0  0  0  0  0  0  0999 V2000
   -5.8583    3.4161   -0.1427 C   0  0  0  0  0  0  0  0  0  0  0  0
   -6.0756    1.9287   -0.3574 C   0  0  0  0  0  0  0  0  0  0  0  0
   -5.1994    1.1634    0.4675 O   0  0  0  0  0  0  0  0  0  0  0  0
   -3.9590    0.8313   -0.0042 C   0  0  0  0  0  0  0  0  0  0  0  0
   -3.3892    1.2683   -1.1970 C   0  0  0  0  0  0  0  0  0  0  0  0
   -2.0981    0.8610   -1.5646 C   0  0  0  0  0  0  0  0  0  0  0  0
   -1.3633    0.0043   -0.7227 C   0  0  0  0  0  0  0  0  0  0  0  0
   -0.0845   -0.4713   -0.9575 N   0  0  0  0  0  0  0  0  0  0  0  0
    0.2918   -1.2342    0.0401 C   0  0  0  0  0  0  0  0  0  0  0  0
    1.5332   -1.8182    0.0421 N   0  0  0  0  0  0  0  0  0  0  0  0
    2.0752   -2.6192    1.0190 C   0  0  0  0  0  0  0  0  0  0  0  0
    1.5551   -2.9635    2.0747 O   0  0  0  0  0  0  0  0  0  0  0  0
    3.4840   -3.0750    0.6975 C   0  0  0  0  0  0  0  0  0  0  0  0
    4.5070   -2.0669    1.2003 C   0  0  0  0  0  0  0  0  0  0  0  0
    4.5625   -0.8721    0.3729 N   0  0  0  0  0  0  0  0  0  0  0  0
    5.1554   -0.7948   -0.8600 C   0  0  0  0  0  0  0  0  0  0  0  0
    4.9514    0.4773   -1.3477 C   0  0  0  0  0  0  0  0  0  0  0  0
    4.2218    1.1918   -0.3682 C   0  0  0  0  0  0  0  0  0  0  0  0
    4.0023    0.3364    0.6881 C   0  0  0  0  0  0  0  0  0  0  0  0
   -0.8388   -1.4461    1.2930 S   0  0  0  0  0  0  0  0  0  0  0  0
   -1.9479   -0.4211    0.4697 C   0  0  0  0  0  0  0  0  0  0  0  0
   -3.2394   -0.0186    0.8451 C   0  0  0  0  0  0  0  0  0  0  0  0
   -5.9569    3.6682    0.9185 H   0  0  0  0  0  0  0  0  0  0  0  0
   -6.5889    3.9976   -0.7123 H   0  0  0  0  0  0  0  0  0  0  0  0
   -4.8535    3.7240   -0.4500 H   0  0  0  0  0  0  0  0  0  0  0  0
   -7.0944    1.6804   -0.0371 H   0  0  0  0  0  0  0  0  0  0  0  0
   -6.0154    1.6429   -1.4137 H   0  0  0  0  0  0  0  0  0  0  0  0
   -3.9112    1.9387   -1.8711 H   0  0  0  0  0  0  0  0  0  0  0  0
   -1.6542    1.2066   -2.4937 H   0  0  0  0  0  0  0  0  0  0  0  0
    2.0908   -1.5466   -0.7593 H   0  0  0  0  0  0  0  0  0  0  0  0
    3.5818   -3.2581   -0.3797 H   0  0  0  0  0  0  0  0  0  0  0  0
    3.6379   -4.0399    1.1956 H   0  0  0  0  0  0  0  0  0  0  0  0
    5.5114   -2.5039    1.1843 H   0  0  0  0  0  0  0  0  0  0  0  0
    4.2940   -1.7550    2.2293 H   0  0  0  0  0  0  0  0  0  0  0  0
    5.6723   -1.6415   -1.2935 H   0  0  0  0  0  0  0  0  0  0  0  0
    5.2963    0.8524   -2.3031 H   0  0  0  0  0  0  0  0  0  0  0  0
    3.8936    2.2214   -0.4245 H   0  0  0  0  0  0  0  0  0  0  0  0
    3.4855    0.4945    1.6273 H   0  0  0  0  0  0  0  0  0  0  0  0
   -3.6754   -0.3592    1.7797 H   0  0  0  0  0  0  0  0  0  0  0  0
  1  2  1  0
  2  3  1  0
  3  4  1  0
  4  5  2  0
  5  6  1  0
  6  7  2  0
  7  8  1  0
  8  9  2  0
  9 10  1  0
 10 11  1  0
 11 12  2  0
 11 13  1  0
 13 14  1  0
 14 15  1  0
 15 16  1  0
 16 17  2  0
 17 18  1  0
 18 19  2  0
  9 20  1  0
 20 21  1  0
 21 22  2  0
 22  4  1  0
 21  7  1  0
 19 15  1  0
  1 23  1  0
  1 24  1  0
  1 25  1  0
  2 26  1  0
  2 27  1  0
  5 28  1  0
  6 29  1  0
 10 30  1  0
 13 31  1  0
 13 32  1  0
 14 33  1  0
 14 34  1  0
 16 35  1  0
 17 36  1  0
 18 37  1  0
 19 38  1  0
 22 39  1  0
M  END
$$$$
