
     RDKit          3D

 49 52  0  0  0  0  0  0  0  0999 V2000
    3.8446    2.9402   -0.4506 O   0  0  0  0  0  0  0  0  0  0  0  0
    3.3150    1.9030   -0.8515 C   0  0  0  0  0  0  0  0  0  0  0  0
    2.0941    2.0113   -1.7565 C   0  0  0  0  0  0  0  0  0  0  0  0
    1.1200    0.4939   -1.9747 S   0  0  0  0  0  0  0  0  0  0  0  0
    0.3201    0.4191   -0.4471 C   0  0  0  0  0  0  0  0  0  0  0  0
    0.9213    0.3112    0.7110 N   0  0  0  0  0  0  0  0  0  0  0  0
   -0.0513    0.2973    1.6780 N   0  0  0  0  0  0  0  0  0  0  0  0
   -1.2286    0.4311    1.0943 C   0  0  0  0  0  0  0  0  0  0  0  0
   -2.5049    0.5009    1.7928 C   0  0  0  0  0  0  0  0  0  0  0  0
   -2.9197   -0.5673    2.5883 C   0  0  0  0  0  0  0  0  0  0  0  0
   -4.1399   -0.4714    3.2321 C   0  0  0  0  0  0  0  0  0  0  0  0
   -4.9517    0.6026    3.1395 N   0  0  0  0  0  0  0  0  0  0  0  0
   -4.5124    1.6387    2.3961 C   0  0  0  0  0  0  0  0  0  0  0  0
   -3.3094    1.6377    1.7126 C   0  0  0  0  0  0  0  0  0  0  0  0
   -1.0379    0.4481   -0.2734 N   0  0  0  0  0  0  0  0  0  0  0  0
   -2.0567    0.5008   -1.2991 C   0  0  0  0  0  0  0  0  0  0  0  0
   -2.3057   -0.8294   -2.0270 C   0  0  0  0  0  0  0  0  0  0  0  0
   -2.8643   -1.9502   -1.1590 C   0  0  0  0  0  0  0  0  0  0  0  0
   -4.3578   -1.7581   -1.2836 C   0  0  0  0  0  0  0  0  0  0  0  0
   -4.4947   -1.3285   -2.7287 C   0  0  0  0  0  0  0  0  0  0  0  0
   -3.3092   -0.5769   -3.0414 O   0  0  0  0  0  0  0  0  0  0  0  0
    3.7830    0.6271   -0.6223 N   0  0  0  0  0  0  0  0  0  0  0  0
    4.8867    0.2150    0.1616 C   0  0  0  0  0  0  0  0  0  0  0  0
    5.7078    1.1077    0.8580 C   0  0  0  0  0  0  0  0  0  0  0  0
    6.7812    0.6387    1.6257 C   0  0  0  0  0  0  0  0  0  0  0  0
    7.0531   -0.7255    1.7034 C   0  0  0  0  0  0  0  0  0  0  0  0
    6.2448   -1.6305    1.0178 C   0  0  0  0  0  0  0  0  0  0  0  0
    5.1681   -1.1631    0.2542 C   0  0  0  0  0  0  0  0  0  0  0  0
    4.2009   -2.3342   -0.5884 Cl  0  0  0  0  0  0  0  0  0  0  0  0
    1.4417    2.7983   -1.3675 H   0  0  0  0  0  0  0  0  0  0  0  0
    2.4520    2.3229   -2.7413 H   0  0  0  0  0  0  0  0  0  0  0  0
   -2.3049   -1.4538    2.7081 H   0  0  0  0  0  0  0  0  0  0  0  0
   -4.5070   -1.2785    3.8590 H   0  0  0  0  0  0  0  0  0  0  0  0
   -5.1737    2.4998    2.3661 H   0  0  0  0  0  0  0  0  0  0  0  0
   -3.0064    2.5117    1.1466 H   0  0  0  0  0  0  0  0  0  0  0  0
   -1.7629    1.2777   -2.0186 H   0  0  0  0  0  0  0  0  0  0  0  0
   -2.9926    0.8709   -0.8665 H   0  0  0  0  0  0  0  0  0  0  0  0
   -1.3918   -1.1628   -2.5292 H   0  0  0  0  0  0  0  0  0  0  0  0
   -2.5016   -1.9554   -0.1270 H   0  0  0  0  0  0  0  0  0  0  0  0
   -2.5928   -2.9203   -1.6020 H   0  0  0  0  0  0  0  0  0  0  0  0
   -4.9353   -2.6602   -1.0530 H   0  0  0  0  0  0  0  0  0  0  0  0
   -4.6918   -0.9530   -0.6142 H   0  0  0  0  0  0  0  0  0  0  0  0
   -5.3813   -0.7082   -2.9091 H   0  0  0  0  0  0  0  0  0  0  0  0
   -4.5302   -2.1987   -3.3989 H   0  0  0  0  0  0  0  0  0  0  0  0
    3.2125   -0.1312   -0.9867 H   0  0  0  0  0  0  0  0  0  0  0  0
    5.5306    2.1805    0.8369 H   0  0  0  0  0  0  0  0  0  0  0  0
    7.3973    1.3509    2.1684 H   0  0  0  0  0  0  0  0  0  0  0  0
    7.8886   -1.0842    2.3000 H   0  0  0  0  0  0  0  0  0  0  0  0
    6.4531   -2.6956    1.0818 H   0  0  0  0  0  0  0  0  0  0  0  0
  1  2  2  0
  2  3  1  0
  3  4  1  0
  4  5  1  0
  5  6  2  0
  6  7  1  0
  7  8  2  0
  8  9  1  0
  9 10  2  0
 10 11  1  0
 11 12  2  0
 12 13  1  0
 13 14  2  0
  8 15  1  0
 15 16  1  0
 16 17  1  0
 17 18  1  0
 18 19  1  0
 19 20  1  0
 20 21  1  0
  2 22  1  0
 22 23  1  0
 23 24  2  0
 24 25  1  0
 25 26  2  0
 26 27  1  0
 27 28  2  0
 28 29  1  0
 15  5  1  0
 21 17  1  0
 28 23  1  0
 14  9  1  0
  3 30  1  0
  3 31  1  0
 10 32  1  0
 11 33  1  0
 13 34  1  0
 14 35  1  0
 16 36  1  0
 16 37  1  0
 17 38  1  0
 18 39  1  0
 18 40  1  0
 19 41  1  0
 19 42  1  0
 20 43  1  0
 20 44  1  0
 22 45  1  0
 24 46  1  0
 25 47  1  0
 26 48  1  0
 27 49  1  0
M  END
$$$$
