
     RDKit          3D

 44 46  0  0  0  0  0  0  0  0999 V2000
    7.7121    0.6370   -2.2029 C   0  0  0  0  0  0  0  0  0  0  0  0
    6.4011    0.1464   -1.6620 C   0  0  0  0  0  0  0  0  0  0  0  0
    6.1885    0.0766   -0.2799 C   0  0  0  0  0  0  0  0  0  0  0  0
    4.9581   -0.3498    0.2292 C   0  0  0  0  0  0  0  0  0  0  0  0
    3.9204   -0.7027   -0.6423 C   0  0  0  0  0  0  0  0  0  0  0  0
    2.5913   -1.1603   -0.1563 C   0  0  0  0  0  0  0  0  0  0  0  0
    1.6529   -1.4281   -0.8928 O   0  0  0  0  0  0  0  0  0  0  0  0
    2.5662   -1.2266    1.1962 O   0  0  0  0  0  0  0  0  0  0  0  0
    1.3420   -1.6903    1.7671 C   0  0  0  0  0  0  0  0  0  0  0  0
    0.2501   -0.6200    1.8428 C   0  0  0  0  0  0  0  0  0  0  0  0
   -0.0804   -0.0886    2.8998 O   0  0  0  0  0  0  0  0  0  0  0  0
   -0.3490   -0.3259    0.6386 N   0  0  0  0  0  0  0  0  0  0  0  0
   -1.3536    0.7106    0.4957 C   0  0  0  0  0  0  0  0  0  0  0  0
   -2.7945    0.1896    0.5535 C   0  0  0  0  0  0  0  0  0  0  0  0
   -3.2161   -0.2054    1.9674 C   0  0  0  0  0  0  0  0  0  0  0  0
   -4.5466   -0.7454    1.9673 O   0  0  0  0  0  0  0  0  0  0  0  0
   -5.4027    0.0248    1.2254 C   0  0  0  0  0  0  0  0  0  0  0  0
   -6.7660   -0.2008    1.4065 C   0  0  0  0  0  0  0  0  0  0  0  0
   -7.6975    0.5613    0.6993 C   0  0  0  0  0  0  0  0  0  0  0  0
   -7.2639    1.5459   -0.1898 C   0  0  0  0  0  0  0  0  0  0  0  0
   -5.8981    1.7621   -0.3810 C   0  0  0  0  0  0  0  0  0  0  0  0
   -4.9685    0.9914    0.3151 C   0  0  0  0  0  0  0  0  0  0  0  0
   -3.6460    1.2437    0.0616 O   0  0  0  0  0  0  0  0  0  0  0  0
    4.1263   -0.6187   -2.0251 C   0  0  0  0  0  0  0  0  0  0  0  0
    5.3572   -0.1921   -2.5307 C   0  0  0  0  0  0  0  0  0  0  0  0
    7.6996    1.7286   -2.2803 H   0  0  0  0  0  0  0  0  0  0  0  0
    7.9101    0.2146   -3.1936 H   0  0  0  0  0  0  0  0  0  0  0  0
    8.5388    0.3363   -1.5507 H   0  0  0  0  0  0  0  0  0  0  0  0
    6.9817    0.3549    0.4114 H   0  0  0  0  0  0  0  0  0  0  0  0
    4.8260   -0.3951    1.3074 H   0  0  0  0  0  0  0  0  0  0  0  0
    1.5631   -2.0155    2.7897 H   0  0  0  0  0  0  0  0  0  0  0  0
    0.9641   -2.5724    1.2355 H   0  0  0  0  0  0  0  0  0  0  0  0
    0.0471   -0.7431   -0.2063 H   0  0  0  0  0  0  0  0  0  0  0  0
   -1.1734    1.1843   -0.4766 H   0  0  0  0  0  0  0  0  0  0  0  0
   -1.1964    1.4898    1.2510 H   0  0  0  0  0  0  0  0  0  0  0  0
   -2.9024   -0.6659   -0.1279 H   0  0  0  0  0  0  0  0  0  0  0  0
   -2.5646   -0.9864    2.3690 H   0  0  0  0  0  0  0  0  0  0  0  0
   -3.1907    0.6497    2.6548 H   0  0  0  0  0  0  0  0  0  0  0  0
   -7.1014   -0.9612    2.1061 H   0  0  0  0  0  0  0  0  0  0  0  0
   -8.7609    0.3903    0.8458 H   0  0  0  0  0  0  0  0  0  0  0  0
   -7.9893    2.1426   -0.7367 H   0  0  0  0  0  0  0  0  0  0  0  0
   -5.5595    2.5229   -1.0785 H   0  0  0  0  0  0  0  0  0  0  0  0
    3.3295   -0.8824   -2.7179 H   0  0  0  0  0  0  0  0  0  0  0  0
    5.4953   -0.1264   -3.6081 H   0  0  0  0  0  0  0  0  0  0  0  0
  1  2  1  0
  2  3  2  0
  3  4  1  0
  4  5  2  0
  5  6  1  0
  6  7  2  0
  6  8  1  0
  8  9  1  0
  9 10  1  0
 10 11  2  0
 10 12  1  0
 12 13  1  0
 13 14  1  0
 14 15  1  0
 15 16  1  0
 16 17  1  0
 17 18  2  0
 18 19  1  0
 19 20  2  0
 20 21  1  0
 21 22  2  0
 22 23  1  0
  5 24  1  0
 24 25  2  0
 25  2  1  0
 23 14  1  0
 22 17  1  0
  1 26  1  0
  1 27  1  0
  1 28  1  0
  3 29  1  0
  4 30  1  0
  9 31  1  0
  9 32  1  0
 12 33  1  0
 13 34  1  0
 13 35  1  0
 14 36  1  0
 15 37  1  0
 15 38  1  0
 18 39  1  0
 19 40  1  0
 20 41  1  0
 21 42  1  0
 24 43  1  0
 25 44  1  0
M  END
$$$$
