
     RDKit          3D

 62 65  0  0  0  0  0  0  0  0999 V2000
   -1.6868   -0.4359   -1.7041 O   0  0  0  0  0  0  0  0  0  0  0  0
   -1.6173   -0.3908   -0.4812 C   0  0  0  0  0  0  0  0  0  0  0  0
   -2.6972   -0.0812    0.3233 N   0  0  0  0  0  0  0  0  0  0  0  0
   -4.0283    0.0551   -0.2458 C   0  0  0  0  0  0  0  0  0  0  0  0
   -4.9693    0.8048    0.7003 C   0  0  0  0  0  0  0  0  0  0  0  0
   -6.3979    0.8443    0.2096 C   0  0  0  0  0  0  0  0  0  0  0  0
   -7.3586    0.0941    0.7801 C   0  0  0  0  0  0  0  0  0  0  0  0
   -8.8037    0.1399    0.3757 C   0  0  0  0  0  0  0  0  0  0  0  0
   -9.1464    1.3544   -0.4863 C   0  0  0  0  0  0  0  0  0  0  0  0
   -8.0834    1.5805   -1.5540 C   0  0  0  0  0  0  0  0  0  0  0  0
   -6.7024    1.7941   -0.9274 C   0  0  0  0  0  0  0  0  0  0  0  0
   -0.3347   -0.6762    0.3047 C   0  0  0  0  0  0  0  0  0  0  0  0
    0.1621    0.5771    1.0529 C   0  0  0  0  0  0  0  0  0  0  0  0
    1.3572    1.2321    0.3635 C   0  0  0  0  0  0  0  0  0  0  0  0
    2.5624    0.2791    0.2308 C   0  0  0  0  0  0  0  0  0  0  0  0
    3.5219    0.4329    1.4270 C   0  0  0  0  0  0  0  0  0  0  0  0
    4.7158   -0.3849    1.2677 N   0  0  0  0  0  0  0  0  0  0  0  0
    5.8059   -0.1481    0.4429 C   0  0  0  0  0  0  0  0  0  0  0  0
    5.9863    1.1058   -0.0780 N   0  0  0  0  0  0  0  0  0  0  0  0
    7.0097    1.4969   -0.8977 C   0  0  0  0  0  0  0  0  0  0  0  0
    7.0353    3.0961   -1.4026 S   0  0  0  0  0  0  0  0  0  0  0  0
    7.9469    0.5727   -1.2603 N   0  0  0  0  0  0  0  0  0  0  0  0
    7.8168   -0.6254   -0.7888 C   0  0  0  0  0  0  0  0  0  0  0  0
    8.8279   -1.6512   -1.1751 C   0  0  0  0  0  0  0  0  0  0  0  0
    8.7464   -2.9053   -0.7130 C   0  0  0  0  0  0  0  0  0  0  0  0
    7.6941   -3.3249    0.1801 C   0  0  0  0  0  0  0  0  0  0  0  0
    6.7371   -2.4746    0.5807 C   0  0  0  0  0  0  0  0  0  0  0  0
    6.7207   -1.0928    0.1262 C   0  0  0  0  0  0  0  0  0  0  0  0
    2.1219   -1.1875    0.0520 C   0  0  0  0  0  0  0  0  0  0  0  0
    0.7482   -1.2885   -0.5983 C   0  0  0  0  0  0  0  0  0  0  0  0
   -2.6336   -0.3388    1.2998 H   0  0  0  0  0  0  0  0  0  0  0  0
   -3.9491    0.5700   -1.2102 H   0  0  0  0  0  0  0  0  0  0  0  0
   -4.3979   -0.9589   -0.4401 H   0  0  0  0  0  0  0  0  0  0  0  0
   -4.9283    0.3338    1.6919 H   0  0  0  0  0  0  0  0  0  0  0  0
   -4.6089    1.8304    0.8515 H   0  0  0  0  0  0  0  0  0  0  0  0
   -7.1124   -0.5898    1.5892 H   0  0  0  0  0  0  0  0  0  0  0  0
   -9.4321    0.1518    1.2744 H   0  0  0  0  0  0  0  0  0  0  0  0
   -9.0403   -0.7815   -0.1708 H   0  0  0  0  0  0  0  0  0  0  0  0
   -9.2222    2.2465    0.1484 H   0  0  0  0  0  0  0  0  0  0  0  0
  -10.1261    1.2094   -0.9545 H   0  0  0  0  0  0  0  0  0  0  0  0
   -8.0508    0.7110   -2.2231 H   0  0  0  0  0  0  0  0  0  0  0  0
   -8.3466    2.4458   -2.1721 H   0  0  0  0  0  0  0  0  0  0  0  0
   -5.9523    1.6925   -1.7195 H   0  0  0  0  0  0  0  0  0  0  0  0
   -6.6321    2.8211   -0.5472 H   0  0  0  0  0  0  0  0  0  0  0  0
   -0.6034   -1.4307    1.0585 H   0  0  0  0  0  0  0  0  0  0  0  0
   -0.6342    1.3214    1.1676 H   0  0  0  0  0  0  0  0  0  0  0  0
    0.4590    0.2896    2.0693 H   0  0  0  0  0  0  0  0  0  0  0  0
    1.0471    1.5551   -0.6395 H   0  0  0  0  0  0  0  0  0  0  0  0
    1.6422    2.1454    0.8985 H   0  0  0  0  0  0  0  0  0  0  0  0
    3.1036    0.5814   -0.6770 H   0  0  0  0  0  0  0  0  0  0  0  0
    3.7990    1.4832    1.5712 H   0  0  0  0  0  0  0  0  0  0  0  0
    3.0173    0.1250    2.3522 H   0  0  0  0  0  0  0  0  0  0  0  0
    4.5610   -1.3638    1.4789 H   0  0  0  0  0  0  0  0  0  0  0  0
    5.3318    1.8321    0.1652 H   0  0  0  0  0  0  0  0  0  0  0  0
    9.6205   -1.3319   -1.8419 H   0  0  0  0  0  0  0  0  0  0  0  0
    9.4901   -3.6431   -1.0038 H   0  0  0  0  0  0  0  0  0  0  0  0
    7.7018   -4.3546    0.5262 H   0  0  0  0  0  0  0  0  0  0  0  0
    5.9713   -2.8275    1.2624 H   0  0  0  0  0  0  0  0  0  0  0  0
    2.8605   -1.7176   -0.5605 H   0  0  0  0  0  0  0  0  0  0  0  0
    2.0928   -1.7039    1.0194 H   0  0  0  0  0  0  0  0  0  0  0  0
    0.5035   -2.3397   -0.7916 H   0  0  0  0  0  0  0  0  0  0  0  0
    0.7785   -0.7956   -1.5778 H   0  0  0  0  0  0  0  0  0  0  0  0
  1  2  2  0
  2  3  1  0
  3  4  1  0
  4  5  1  0
  5  6  1  0
  6  7  2  0
  7  8  1  0
  8  9  1  0
  9 10  1  0
 10 11  1  0
  2 12  1  0
 12 13  1  0
 13 14  1  0
 14 15  1  0
 15 16  1  0
 16 17  1  0
 17 18  1  0
 18 19  1  0
 19 20  1  0
 20 21  2  0
 20 22  1  0
 22 23  2  0
 23 24  1  0
 24 25  2  0
 25 26  1  0
 26 27  2  0
 27 28  1  0
 15 29  1  0
 29 30  1  0
 11  6  1  0
 30 12  1  0
 28 18  2  0
 28 23  1  0
  3 31  1  0
  4 32  1  0
  4 33  1  0
  5 34  1  0
  5 35  1  0
  7 36  1  0
  8 37  1  0
  8 38  1  0
  9 39  1  0
  9 40  1  0
 10 41  1  0
 10 42  1  0
 11 43  1  0
 11 44  1  0
 12 45  1  0
 13 46  1  0
 13 47  1  0
 14 48  1  0
 14 49  1  0
 15 50  1  0
 16 51  1  0
 16 52  1  0
 17 53  1  0
 19 54  1  0
 24 55  1  0
 25 56  1  0
 26 57  1  0
 27 58  1  0
 29 59  1  0
 29 60  1  0
 30 61  1  0
 30 62  1  0
M  END
$$$$
