
     RDKit          3D

 66 68  0  0  0  0  0  0  0  0999 V2000
   -2.7746   -5.2889    2.0513 C   0  0  0  0  0  0  0  0  0  0  0  0
   -2.2897   -4.4196    0.8950 C   0  0  0  0  0  0  0  0  0  0  0  0
   -2.3479   -2.9772    1.1919 N   0  0  0  0  0  0  0  0  0  0  0  0
   -3.7319   -2.4983    1.3507 C   0  0  0  0  0  0  0  0  0  0  0  0
   -3.9715   -2.0879    2.7976 C   0  0  0  0  0  0  0  0  0  0  0  0
   -1.6191   -2.2180    0.1554 C   0  0  0  0  0  0  0  0  0  0  0  0
   -1.2713   -0.7929    0.6254 C   0  0  0  0  0  0  0  0  0  0  0  0
   -0.5284    0.0203   -0.4678 C   0  0  0  0  0  0  0  0  0  0  0  0
    0.8628   -0.4663   -0.8678 C   0  0  0  0  0  0  0  0  0  0  0  0
    1.3256   -0.2135   -2.1642 C   0  0  0  0  0  0  0  0  0  0  0  0
    2.6001   -0.6315   -2.5767 C   0  0  0  0  0  0  0  0  0  0  0  0
    3.4846   -1.3035   -1.7181 C   0  0  0  0  0  0  0  0  0  0  0  0
    4.7523   -1.7308   -2.1368 N   0  0  0  0  0  0  0  0  0  0  0  0
    5.7205   -2.1473   -1.1234 C   0  0  0  0  0  0  0  0  0  0  0  0
    5.3231   -1.1526   -3.3517 C   0  0  0  0  0  0  0  0  0  0  0  0
    2.9968   -1.5561   -0.4251 C   0  0  0  0  0  0  0  0  0  0  0  0
    1.7222   -1.1439   -0.0025 C   0  0  0  0  0  0  0  0  0  0  0  0
   -0.5405    1.5238   -0.1517 C   0  0  0  0  0  0  0  0  0  0  0  0
   -1.1799    2.4364   -1.0171 C   0  0  0  0  0  0  0  0  0  0  0  0
   -1.7821    1.8995   -2.1276 O   0  0  0  0  0  0  0  0  0  0  0  0
   -2.2735    2.7890   -3.1221 C   0  0  0  0  0  0  0  0  0  0  0  0
   -1.1925    3.8084   -0.7162 C   0  0  0  0  0  0  0  0  0  0  0  0
   -0.5626    4.3056    0.4317 C   0  0  0  0  0  0  0  0  0  0  0  0
   -0.5349    5.6312    0.7886 O   0  0  0  0  0  0  0  0  0  0  0  0
   -1.2048    6.5621   -0.0502 C   0  0  0  0  0  0  0  0  0  0  0  0
    0.0931    3.4159    1.2953 C   0  0  0  0  0  0  0  0  0  0  0  0
    0.7823    3.8618    2.5057 C   0  0  0  0  0  0  0  0  0  0  0  0
    1.4053    2.9856    3.2971 C   0  0  0  0  0  0  0  0  0  0  0  0
    1.4276    1.5480    3.0015 C   0  0  0  0  0  0  0  0  0  0  0  0
    2.0116    0.7610    3.7365 O   0  0  0  0  0  0  0  0  0  0  0  0
    0.7503    1.1462    1.8626 O   0  0  0  0  0  0  0  0  0  0  0  0
    0.0912    2.0492    0.9925 C   0  0  0  0  0  0  0  0  0  0  0  0
   -3.8446   -5.1636    2.2405 H   0  0  0  0  0  0  0  0  0  0  0  0
   -2.2293   -5.0582    2.9725 H   0  0  0  0  0  0  0  0  0  0  0  0
   -2.6045   -6.3452    1.8188 H   0  0  0  0  0  0  0  0  0  0  0  0
   -2.8562   -4.6572   -0.0141 H   0  0  0  0  0  0  0  0  0  0  0  0
   -1.2481   -4.7089    0.7063 H   0  0  0  0  0  0  0  0  0  0  0  0
   -4.4689   -3.2560    1.0575 H   0  0  0  0  0  0  0  0  0  0  0  0
   -3.9465   -1.6348    0.7089 H   0  0  0  0  0  0  0  0  0  0  0  0
   -3.2920   -1.2837    3.1000 H   0  0  0  0  0  0  0  0  0  0  0  0
   -3.8327   -2.9288    3.4842 H   0  0  0  0  0  0  0  0  0  0  0  0
   -4.9968   -1.7227    2.9186 H   0  0  0  0  0  0  0  0  0  0  0  0
   -0.6786   -2.7323   -0.0711 H   0  0  0  0  0  0  0  0  0  0  0  0
   -2.1954   -2.1905   -0.7780 H   0  0  0  0  0  0  0  0  0  0  0  0
   -0.6935   -0.8529    1.5541 H   0  0  0  0  0  0  0  0  0  0  0  0
   -2.1949   -0.2573    0.8793 H   0  0  0  0  0  0  0  0  0  0  0  0
   -1.1424   -0.1434   -1.3637 H   0  0  0  0  0  0  0  0  0  0  0  0
    0.6933    0.3141   -2.8759 H   0  0  0  0  0  0  0  0  0  0  0  0
    2.8757   -0.4111   -3.6026 H   0  0  0  0  0  0  0  0  0  0  0  0
    5.3656   -3.0248   -0.5720 H   0  0  0  0  0  0  0  0  0  0  0  0
    6.6698   -2.4467   -1.5823 H   0  0  0  0  0  0  0  0  0  0  0  0
    5.9351   -1.3320   -0.4231 H   0  0  0  0  0  0  0  0  0  0  0  0
    6.3208   -1.5589   -3.5537 H   0  0  0  0  0  0  0  0  0  0  0  0
    5.4218   -0.0649   -3.2630 H   0  0  0  0  0  0  0  0  0  0  0  0
    4.7176   -1.3979   -4.2309 H   0  0  0  0  0  0  0  0  0  0  0  0
    3.5985   -2.0857    0.3075 H   0  0  0  0  0  0  0  0  0  0  0  0
    1.4302   -1.3658    1.0212 H   0  0  0  0  0  0  0  0  0  0  0  0
   -2.6217    2.1858   -3.9659 H   0  0  0  0  0  0  0  0  0  0  0  0
   -3.1287    3.3610   -2.7479 H   0  0  0  0  0  0  0  0  0  0  0  0
   -1.4825    3.4505   -3.4909 H   0  0  0  0  0  0  0  0  0  0  0  0
   -1.7029    4.4931   -1.3809 H   0  0  0  0  0  0  0  0  0  0  0  0
   -0.7538    6.5890   -1.0473 H   0  0  0  0  0  0  0  0  0  0  0  0
   -1.0888    7.5554    0.3942 H   0  0  0  0  0  0  0  0  0  0  0  0
   -2.2766    6.3456   -0.1037 H   0  0  0  0  0  0  0  0  0  0  0  0
    0.7826    4.9194    2.7478 H   0  0  0  0  0  0  0  0  0  0  0  0
    1.9242    3.2939    4.1957 H   0  0  0  0  0  0  0  0  0  0  0  0
  1  2  1  0
  2  3  1  0
  3  4  1  0
  4  5  1  0
  3  6  1  0
  6  7  1  0
  7  8  1  0
  8  9  1  0
  9 10  2  0
 10 11  1  0
 11 12  2  0
 12 13  1  0
 13 14  1  0
 13 15  1  0
 12 16  1  0
 16 17  2  0
  8 18  1  0
 18 19  2  0
 19 20  1  0
 20 21  1  0
 19 22  1  0
 22 23  2  0
 23 24  1  0
 24 25  1  0
 23 26  1  0
 26 27  1  0
 27 28  2  0
 28 29  1  0
 29 30  2  0
 29 31  1  0
 31 32  1  0
 17  9  1  0
 32 18  1  0
 32 26  2  0
  1 33  1  0
  1 34  1  0
  1 35  1  0
  2 36  1  0
  2 37  1  0
  4 38  1  0
  4 39  1  0
  5 40  1  0
  5 41  1  0
  5 42  1  0
  6 43  1  0
  6 44  1  0
  7 45  1  0
  7 46  1  0
  8 47  1  0
 10 48  1  0
 11 49  1  0
 14 50  1  0
 14 51  1  0
 14 52  1  0
 15 53  1  0
 15 54  1  0
 15 55  1  0
 16 56  1  0
 17 57  1  0
 21 58  1  0
 21 59  1  0
 21 60  1  0
 22 61  1  0
 25 62  1  0
 25 63  1  0
 25 64  1  0
 27 65  1  0
 28 66  1  0
M  END
$$$$
