
     RDKit          3D

 52 55  0  0  0  0  0  0  0  0999 V2000
    6.5116   -2.2329    5.2451 N   0  0  0  0  0  0  0  0  0  0  0  0
    6.9206   -0.7018    4.6894 S   0  0  0  0  0  6  0  0  0  0  0  0
    6.7767    0.1832    5.8215 O   0  0  0  0  0  0  0  0  0  0  0  0
    8.1715   -0.8606    3.9846 O   0  0  0  0  0  0  0  0  0  0  0  0
    5.6298   -0.3780    3.5258 C   0  0  0  0  0  0  0  0  0  0  0  0
    4.4384    0.2050    3.9632 C   0  0  0  0  0  0  0  0  0  0  0  0
    3.4298    0.4836    3.0397 C   0  0  0  0  0  0  0  0  0  0  0  0
    3.6115    0.1945    1.6790 C   0  0  0  0  0  0  0  0  0  0  0  0
    2.5081    0.4832    0.6911 C   0  0  0  0  0  0  0  0  0  0  0  0
    1.5206   -0.6812    0.5887 C   0  0  0  0  0  0  0  0  0  0  0  0
    0.4669   -0.4205   -0.3735 N   0  0  0  0  0  0  0  0  0  0  0  0
   -0.6061    0.3863   -0.0646 C   0  0  0  0  0  0  0  0  0  0  0  0
   -0.7718    0.9321    1.0180 O   0  0  0  0  0  0  0  0  0  0  0  0
   -1.6292    0.5135   -1.1247 C   0  0  0  0  0  0  0  0  0  0  0  0
   -2.9255    0.1369   -0.7698 C   0  0  0  0  0  0  0  0  0  0  0  0
   -3.9151    0.1758   -1.7360 C   0  0  0  0  0  0  0  0  0  0  0  0
   -5.3184   -0.2150   -1.4766 C   0  0  0  0  0  0  0  0  0  0  0  0
   -5.6664   -1.1724   -0.5048 C   0  0  0  0  0  0  0  0  0  0  0  0
   -7.0009   -1.5245   -0.2723 C   0  0  0  0  0  0  0  0  0  0  0  0
   -8.0195   -0.9293   -1.0098 C   0  0  0  0  0  0  0  0  0  0  0  0
   -7.7053    0.0138   -1.9824 C   0  0  0  0  0  0  0  0  0  0  0  0
   -6.3710    0.3630   -2.2123 C   0  0  0  0  0  0  0  0  0  0  0  0
   -3.6425    0.5842   -3.0013 N   0  0  0  0  0  0  0  0  0  0  0  0
   -2.4018    0.9795   -3.3323 C   0  0  0  0  0  0  0  0  0  0  0  0
   -2.1756    1.4122   -4.6322 C   0  0  0  0  0  0  0  0  0  0  0  0
   -0.9232    1.8614   -5.0567 C   0  0  0  0  0  0  0  0  0  0  0  0
    0.1354    1.8894   -4.1612 C   0  0  0  0  0  0  0  0  0  0  0  0
   -0.0642    1.4561   -2.8520 C   0  0  0  0  0  0  0  0  0  0  0  0
   -1.3302    0.9786   -2.4227 C   0  0  0  0  0  0  0  0  0  0  0  0
    4.8160   -0.3841    1.2537 C   0  0  0  0  0  0  0  0  0  0  0  0
    5.8281   -0.6656    2.1732 C   0  0  0  0  0  0  0  0  0  0  0  0
    6.3026   -2.1923    6.2429 H   0  0  0  0  0  0  0  0  0  0  0  0
    7.2496   -2.8949    5.0049 H   0  0  0  0  0  0  0  0  0  0  0  0
    4.2883    0.4450    5.0134 H   0  0  0  0  0  0  0  0  0  0  0  0
    2.4997    0.9333    3.3850 H   0  0  0  0  0  0  0  0  0  0  0  0
    1.9899    1.4051    0.9841 H   0  0  0  0  0  0  0  0  0  0  0  0
    2.9411    0.6943   -0.2954 H   0  0  0  0  0  0  0  0  0  0  0  0
    1.0596   -0.8844    1.5625 H   0  0  0  0  0  0  0  0  0  0  0  0
    2.0315   -1.5949    0.2650 H   0  0  0  0  0  0  0  0  0  0  0  0
    0.4895   -0.9028   -1.2641 H   0  0  0  0  0  0  0  0  0  0  0  0
   -3.1377   -0.1711    0.2490 H   0  0  0  0  0  0  0  0  0  0  0  0
   -4.8999   -1.6753    0.0801 H   0  0  0  0  0  0  0  0  0  0  0  0
   -7.2415   -2.2680    0.4835 H   0  0  0  0  0  0  0  0  0  0  0  0
   -9.0557   -1.2030   -0.8302 H   0  0  0  0  0  0  0  0  0  0  0  0
   -8.4944    0.4806   -2.5660 H   0  0  0  0  0  0  0  0  0  0  0  0
   -6.1505    1.1043   -2.9795 H   0  0  0  0  0  0  0  0  0  0  0  0
   -3.0049    1.4066   -5.3369 H   0  0  0  0  0  0  0  0  0  0  0  0
   -0.7863    2.1986   -6.0810 H   0  0  0  0  0  0  0  0  0  0  0  0
    1.1096    2.2556   -4.4755 H   0  0  0  0  0  0  0  0  0  0  0  0
    0.7736    1.5147   -2.1604 H   0  0  0  0  0  0  0  0  0  0  0  0
    4.9761   -0.6135    0.2022 H   0  0  0  0  0  0  0  0  0  0  0  0
    6.7619   -1.1043    1.8290 H   0  0  0  0  0  0  0  0  0  0  0  0
  1  2  1  0
  2  3  2  0
  2  4  2  0
  2  5  1  0
  5  6  2  0
  6  7  1  0
  7  8  2  0
  8  9  1  0
  9 10  1  0
 10 11  1  0
 11 12  1  0
 12 13  2  0
 12 14  1  0
 14 15  2  0
 15 16  1  0
 16 17  1  0
 17 18  2  0
 18 19  1  0
 19 20  2  0
 20 21  1  0
 21 22  2  0
 16 23  2  0
 23 24  1  0
 24 25  2  0
 25 26  1  0
 26 27  2  0
 27 28  1  0
 28 29  2  0
  8 30  1  0
 30 31  2  0
 31  5  1  0
 29 14  1  0
 22 17  1  0
 29 24  1  0
  1 32  1  0
  1 33  1  0
  6 34  1  0
  7 35  1  0
  9 36  1  0
  9 37  1  0
 10 38  1  0
 10 39  1  0
 11 40  1  0
 15 41  1  0
 18 42  1  0
 19 43  1  0
 20 44  1  0
 21 45  1  0
 22 46  1  0
 25 47  1  0
 26 48  1  0
 27 49  1  0
 28 50  1  0
 30 51  1  0
 31 52  1  0
M  END
$$$$
