
     RDKit          3D

 80 86  0  0  0  0  0  0  0  0999 V2000
   -5.4663   -0.6826    0.8426 C   0  0  0  0  0  0  0  0  0  0  0  0
   -4.1127   -0.1122    1.1494 C   0  0  0  0  0  0  0  0  0  0  0  0
   -3.8276    0.4073    2.4372 C   0  0  0  0  0  0  0  0  0  0  0  0
   -4.9987    0.4246    3.7159 Cl  0  0  0  0  0  0  0  0  0  0  0  0
   -2.5740    0.9527    2.7589 C   0  0  0  0  0  0  0  0  0  0  0  0
   -1.5596    0.9926    1.8145 C   0  0  0  0  0  0  0  0  0  0  0  0
   -1.8170    0.4794    0.5481 C   0  0  0  0  0  0  0  0  0  0  0  0
   -3.0778   -0.0563    0.2020 C   0  0  0  0  0  0  0  0  0  0  0  0
   -3.0354   -0.4348   -1.1654 N   0  0  0  0  0  0  0  0  0  0  0  0
   -4.0787   -1.0397   -1.9646 C   0  0  0  0  0  0  0  0  0  0  0  0
   -4.2106   -2.5403   -1.8115 C   0  0  0  0  0  0  0  0  0  0  0  0
   -3.0902   -3.3772   -1.6949 C   0  0  0  0  0  0  0  0  0  0  0  0
   -3.2410   -4.7617   -1.5909 C   0  0  0  0  0  0  0  0  0  0  0  0
   -4.5118   -5.3309   -1.6192 C   0  0  0  0  0  0  0  0  0  0  0  0
   -5.6327   -4.5174   -1.7627 C   0  0  0  0  0  0  0  0  0  0  0  0
   -5.4831   -3.1331   -1.8683 C   0  0  0  0  0  0  0  0  0  0  0  0
   -1.7775   -0.1635   -1.7468 C   0  0  0  0  0  0  0  0  0  0  0  0
   -1.4687   -0.3660   -2.9140 O   0  0  0  0  0  0  0  0  0  0  0  0
   -0.8852    0.4126   -0.6340 C   0  0  1  0  0  0  0  0  0  0  0  0
   -0.4085    1.7902   -0.8964 C   0  0  0  0  0  0  0  0  0  0  0  0
    0.9839    1.8503   -0.8564 C   0  0  0  0  0  0  0  0  0  0  0  0
    1.3806    3.1382   -1.1005 C   0  0  0  0  0  0  0  0  0  0  0  0
    2.6085    3.6344   -1.2292 O   0  0  0  0  0  0  0  0  0  0  0  0
    0.2139    3.9175   -1.2748 N   0  0  0  0  0  0  0  0  0  0  0  0
    0.1638    5.3321   -1.5348 C   0  0  0  0  0  0  0  0  0  0  0  0
   -0.9459    5.9081   -2.1710 C   0  0  0  0  0  0  0  0  0  0  0  0
   -0.9940    7.2838   -2.4213 C   0  0  0  0  0  0  0  0  0  0  0  0
    0.0634    8.1028   -2.0385 C   0  0  0  0  0  0  0  0  0  0  0  0
    1.1710    7.5465   -1.4068 C   0  0  0  0  0  0  0  0  0  0  0  0
    1.2229    6.1707   -1.1570 C   0  0  0  0  0  0  0  0  0  0  0  0
   -0.8951    3.0501   -1.1423 C   0  0  0  0  0  0  0  0  0  0  0  0
   -2.1554    3.4766   -1.1928 O   0  0  0  0  0  0  0  0  0  0  0  0
    1.5830    0.5219   -0.6073 C   0  0  1  0  0  0  0  0  0  0  0  0
    2.4864    0.4517    0.6362 C   0  0  0  0  0  0  0  0  0  0  0  0
    2.8657   -0.9266    0.9529 N   0  0  0  0  0  0  0  0  0  0  0  0
    4.1189   -1.1937    1.4629 C   0  0  0  0  0  0  0  0  0  0  0  0
    4.9425   -0.3241    1.7140 O   0  0  0  0  0  0  0  0  0  0  0  0
    4.3185   -2.5238    1.6423 O   0  0  0  0  0  0  0  0  0  0  0  0
    5.5715   -3.0283    2.1713 C   0  0  0  0  0  0  0  0  0  0  0  0
    5.8223   -2.5194    3.5951 C   0  0  0  0  0  0  0  0  0  0  0  0
    6.7408   -2.7104    1.2333 C   0  0  0  0  0  0  0  0  0  0  0  0
    5.3846   -4.5525    2.2223 C   0  0  0  0  0  0  0  0  0  0  0  0
    1.8897   -1.9764    0.6431 C   0  0  0  0  0  0  0  0  0  0  0  0
    0.4606   -1.4188    0.4925 C   0  0  0  0  0  0  0  0  0  0  0  0
    0.3812   -0.3713   -0.5221 N   0  0  0  0  0  0  0  0  0  0  0  0
   -6.1494   -0.6906    1.6947 H   0  0  0  0  0  0  0  0  0  0  0  0
   -5.9632   -0.0922    0.0685 H   0  0  0  0  0  0  0  0  0  0  0  0
   -5.3719   -1.7263    0.5408 H   0  0  0  0  0  0  0  0  0  0  0  0
   -2.3894    1.3516    3.7546 H   0  0  0  0  0  0  0  0  0  0  0  0
   -0.5928    1.4210    2.0643 H   0  0  0  0  0  0  0  0  0  0  0  0
   -5.0220   -0.5270   -1.7631 H   0  0  0  0  0  0  0  0  0  0  0  0
   -3.8697   -0.8486   -3.0251 H   0  0  0  0  0  0  0  0  0  0  0  0
   -2.0848   -2.9631   -1.6992 H   0  0  0  0  0  0  0  0  0  0  0  0
   -2.3634   -5.3966   -1.4997 H   0  0  0  0  0  0  0  0  0  0  0  0
   -4.6270   -6.4088   -1.5430 H   0  0  0  0  0  0  0  0  0  0  0  0
   -6.6241   -4.9619   -1.7997 H   0  0  0  0  0  0  0  0  0  0  0  0
   -6.3720   -2.5179   -1.9932 H   0  0  0  0  0  0  0  0  0  0  0  0
    3.2456    2.8998   -1.2085 H   0  0  0  0  0  0  0  0  0  0  0  0
   -1.7790    5.3069   -2.5215 H   0  0  0  0  0  0  0  0  0  0  0  0
   -1.8587    7.7104   -2.9228 H   0  0  0  0  0  0  0  0  0  0  0  0
    0.0249    9.1708   -2.2335 H   0  0  0  0  0  0  0  0  0  0  0  0
    1.9984    8.1815   -1.1007 H   0  0  0  0  0  0  0  0  0  0  0  0
    2.0937    5.7908   -0.6320 H   0  0  0  0  0  0  0  0  0  0  0  0
   -2.7454    2.7247   -1.0161 H   0  0  0  0  0  0  0  0  0  0  0  0
    2.1591    0.2082   -1.4871 H   0  0  0  0  0  0  0  0  0  0  0  0
    1.9693    0.8482    1.5194 H   0  0  0  0  0  0  0  0  0  0  0  0
    3.3803    1.0685    0.4905 H   0  0  0  0  0  0  0  0  0  0  0  0
    6.6766   -3.0282    4.0548 H   0  0  0  0  0  0  0  0  0  0  0  0
    6.0325   -1.4457    3.6158 H   0  0  0  0  0  0  0  0  0  0  0  0
    4.9406   -2.6794    4.2261 H   0  0  0  0  0  0  0  0  0  0  0  0
    6.9682   -1.6404    1.2105 H   0  0  0  0  0  0  0  0  0  0  0  0
    7.6530   -3.2321    1.5428 H   0  0  0  0  0  0  0  0  0  0  0  0
    6.5040   -3.0029    0.2041 H   0  0  0  0  0  0  0  0  0  0  0  0
    4.5308   -4.8191    2.8562 H   0  0  0  0  0  0  0  0  0  0  0  0
    5.1656   -4.9524    1.2253 H   0  0  0  0  0  0  0  0  0  0  0  0
    6.2747   -5.0589    2.6101 H   0  0  0  0  0  0  0  0  0  0  0  0
    1.9086   -2.7352    1.4331 H   0  0  0  0  0  0  0  0  0  0  0  0
    2.2138   -2.4567   -0.2880 H   0  0  0  0  0  0  0  0  0  0  0  0
    0.1663   -1.0441    1.4779 H   0  0  0  0  0  0  0  0  0  0  0  0
   -0.2192   -2.2376    0.2324 H   0  0  0  0  0  0  0  0  0  0  0  0
  1  2  1  0
  2  3  2  0
  3  4  1  0
  3  5  1  0
  5  6  2  0
  6  7  1  0
  7  8  2  0
  8  9  1  0
  9 10  1  0
 10 11  1  0
 11 12  2  0
 12 13  1  0
 13 14  2  0
 14 15  1  0
 15 16  2  0
  9 17  1  0
 17 18  2  0
 17 19  1  0
 19 20  1  0
 20 21  1  0
 21 22  2  0
 22 23  1  0
 22 24  1  0
 24 25  1  0
 25 26  2  0
 26 27  1  0
 27 28  2  0
 28 29  1  0
 29 30  2  0
 24 31  1  0
 31 32  1  0
 21 33  1  0
 33 34  1  0
 34 35  1  0
 35 36  1  0
 36 37  2  0
 36 38  1  0
 38 39  1  0
 39 40  1  0
 39 41  1  0
 39 42  1  0
 35 43  1  0
 43 44  1  0
 44 45  1  0
  8  2  1  0
 16 11  1  0
 19 45  1  1
 19  7  1  0
 31 20  2  0
 45 33  1  0
 30 25  1  0
  1 46  1  0
  1 47  1  0
  1 48  1  0
  5 49  1  0
  6 50  1  0
 10 51  1  0
 10 52  1  0
 12 53  1  0
 13 54  1  0
 14 55  1  0
 15 56  1  0
 16 57  1  0
 23 58  1  0
 26 59  1  0
 27 60  1  0
 28 61  1  0
 29 62  1  0
 30 63  1  0
 32 64  1  0
 33 65  1  6
 34 66  1  0
 34 67  1  0
 40 68  1  0
 40 69  1  0
 40 70  1  0
 41 71  1  0
 41 72  1  0
 41 73  1  0
 42 74  1  0
 42 75  1  0
 42 76  1  0
 43 77  1  0
 43 78  1  0
 44 79  1  0
 44 80  1  0
M  END
$$$$
