
     RDKit          3D

 54 57  0  0  0  0  0  0  0  0999 V2000
    8.1659    3.5089    1.1890 C   0  0  0  0  0  0  0  0  0  0  0  0
    6.9962    3.3106    1.9730 O   0  0  0  0  0  0  0  0  0  0  0  0
    6.0412    2.4803    1.4566 C   0  0  0  0  0  0  0  0  0  0  0  0
    4.9206    2.3012    2.2668 C   0  0  0  0  0  0  0  0  0  0  0  0
    3.8649    1.4759    1.8596 C   0  0  0  0  0  0  0  0  0  0  0  0
    3.8962    0.8083    0.6234 C   0  0  0  0  0  0  0  0  0  0  0  0
    2.7920   -0.0632    0.1669 C   0  0  0  0  0  0  0  0  0  0  0  0
    1.4721    0.1335    0.5326 C   0  0  0  0  0  0  0  0  0  0  0  0
    0.5048   -0.7420    0.0378 C   0  0  0  0  0  0  0  0  0  0  0  0
   -0.8922   -0.4420    0.4159 C   0  0  0  0  0  0  0  0  0  0  0  0
   -1.2018   -0.3453    1.5957 O   0  0  0  0  0  0  0  0  0  0  0  0
   -1.7560   -0.2298   -0.6356 N   0  0  0  0  0  0  0  0  0  0  0  0
   -3.1578    0.0776   -0.4127 C   0  0  0  0  0  0  0  0  0  0  0  0
   -3.9887   -1.1891   -0.1468 C   0  0  0  0  0  0  0  0  0  0  0  0
   -5.4200   -1.0587    0.1348 N   0  0  0  0  0  0  0  0  0  0  0  0
   -6.2181   -0.3602   -0.8809 C   0  0  0  0  0  0  0  0  0  0  0  0
   -6.3742    1.1544   -0.6631 C   0  0  0  0  0  0  0  0  0  0  0  0
   -6.8320    1.4519    0.6592 O   0  0  0  0  0  0  0  0  0  0  0  0
   -5.9180    0.9343    1.6328 C   0  0  0  0  0  0  0  0  0  0  0  0
   -5.7461   -0.5858    1.4897 C   0  0  0  0  0  0  0  0  0  0  0  0
    0.8552   -1.8357   -0.7810 C   0  0  0  0  0  0  0  0  0  0  0  0
   -0.0460   -2.8206   -1.2629 C   0  0  0  0  0  0  0  0  0  0  0  0
    0.3945   -3.8612   -2.0780 C   0  0  0  0  0  0  0  0  0  0  0  0
    1.7372   -3.9395   -2.4165 C   0  0  0  0  0  0  0  0  0  0  0  0
    2.6304   -2.9839   -1.9272 C   0  0  0  0  0  0  0  0  0  0  0  0
    2.2179   -1.9398   -1.1099 C   0  0  0  0  0  0  0  0  0  0  0  0
    3.1457   -1.0753   -0.6650 N   0  0  0  0  0  0  0  0  0  0  0  0
    5.0407    0.9965   -0.1738 C   0  0  0  0  0  0  0  0  0  0  0  0
    6.0991    1.8217    0.2321 C   0  0  0  0  0  0  0  0  0  0  0  0
    8.7051    2.5679    1.0386 H   0  0  0  0  0  0  0  0  0  0  0  0
    7.9239    3.9839    0.2325 H   0  0  0  0  0  0  0  0  0  0  0  0
    8.8261    4.1863    1.7391 H   0  0  0  0  0  0  0  0  0  0  0  0
    4.8687    2.8030    3.2303 H   0  0  0  0  0  0  0  0  0  0  0  0
    3.0258    1.3519    2.5406 H   0  0  0  0  0  0  0  0  0  0  0  0
    1.1761    0.9613    1.1691 H   0  0  0  0  0  0  0  0  0  0  0  0
   -1.4128   -0.2892   -1.5870 H   0  0  0  0  0  0  0  0  0  0  0  0
   -3.2202    0.7707    0.4298 H   0  0  0  0  0  0  0  0  0  0  0  0
   -3.5066    0.5881   -1.3149 H   0  0  0  0  0  0  0  0  0  0  0  0
   -3.5232   -1.7637    0.6649 H   0  0  0  0  0  0  0  0  0  0  0  0
   -3.8863   -1.8424   -1.0244 H   0  0  0  0  0  0  0  0  0  0  0  0
   -5.8389   -0.5617   -1.8896 H   0  0  0  0  0  0  0  0  0  0  0  0
   -7.2225   -0.8018   -0.8441 H   0  0  0  0  0  0  0  0  0  0  0  0
   -5.4401    1.6945   -0.8460 H   0  0  0  0  0  0  0  0  0  0  0  0
   -7.1181    1.5482   -1.3635 H   0  0  0  0  0  0  0  0  0  0  0  0
   -4.9653    1.4653    1.5493 H   0  0  0  0  0  0  0  0  0  0  0  0
   -6.3299    1.1633    2.6212 H   0  0  0  0  0  0  0  0  0  0  0  0
   -5.0236   -0.9549    2.2268 H   0  0  0  0  0  0  0  0  0  0  0  0
   -6.7055   -1.0497    1.7543 H   0  0  0  0  0  0  0  0  0  0  0  0
   -1.0984   -2.7967   -0.9875 H   0  0  0  0  0  0  0  0  0  0  0  0
   -0.3061   -4.6111   -2.4371 H   0  0  0  0  0  0  0  0  0  0  0  0
    2.0987   -4.7472   -3.0479 H   0  0  0  0  0  0  0  0  0  0  0  0
    3.6851   -3.0619   -2.1840 H   0  0  0  0  0  0  0  0  0  0  0  0
    5.1151    0.4916   -1.1365 H   0  0  0  0  0  0  0  0  0  0  0  0
    6.9490    1.9212   -0.4345 H   0  0  0  0  0  0  0  0  0  0  0  0
  1  2  1  0
  2  3  1  0
  3  4  2  0
  4  5  1  0
  5  6  2  0
  6  7  1  0
  7  8  2  0
  8  9  1  0
  9 10  1  0
 10 11  2  0
 10 12  1  0
 12 13  1  0
 13 14  1  0
 14 15  1  0
 15 16  1  0
 16 17  1  0
 17 18  1  0
 18 19  1  0
 19 20  1  0
  9 21  2  0
 21 22  1  0
 22 23  2  0
 23 24  1  0
 24 25  2  0
 25 26  1  0
 26 27  2  0
  6 28  1  0
 28 29  2  0
 29  3  1  0
 27  7  1  0
 20 15  1  0
 26 21  1  0
  1 30  1  0
  1 31  1  0
  1 32  1  0
  4 33  1  0
  5 34  1  0
  8 35  1  0
 12 36  1  0
 13 37  1  0
 13 38  1  0
 14 39  1  0
 14 40  1  0
 16 41  1  0
 16 42  1  0
 17 43  1  0
 17 44  1  0
 19 45  1  0
 19 46  1  0
 20 47  1  0
 20 48  1  0
 22 49  1  0
 23 50  1  0
 24 51  1  0
 25 52  1  0
 28 53  1  0
 29 54  1  0
M  END
$$$$
