
     RDKit          3D

 58 62  0  0  0  0  0  0  0  0999 V2000
   -7.1380    2.7128    0.9603 C   0  0  0  0  0  0  0  0  0  0  0  0
   -6.5476    2.6867   -0.3342 O   0  0  0  0  0  0  0  0  0  0  0  0
   -5.2782    2.1884   -0.4250 C   0  0  0  0  0  0  0  0  0  0  0  0
   -4.5027    1.7194    0.6378 C   0  0  0  0  0  0  0  0  0  0  0  0
   -3.2156    1.2243    0.4048 C   0  0  0  0  0  0  0  0  0  0  0  0
   -2.7017    1.1821   -0.8989 C   0  0  0  0  0  0  0  0  0  0  0  0
   -1.3314    0.6632   -1.1692 C   0  0  0  0  0  0  0  0  0  0  0  0
   -0.6147    1.2549   -2.0579 N   0  0  0  0  0  0  0  0  0  0  0  0
    0.7452    0.7763   -2.2857 C   0  0  0  0  0  0  0  0  0  0  0  0
    1.6428    1.1267   -1.1007 C   0  0  0  0  0  0  0  0  0  0  0  0
    2.5457    1.9651   -1.2286 O   0  0  0  0  0  0  0  0  0  0  0  0
    1.4883    0.3946    0.0814 N   0  0  0  0  0  0  0  0  0  0  0  0
    2.5093    0.6005    1.1165 C   0  0  0  0  0  0  0  0  0  0  0  0
    3.7753   -0.2212    0.8663 C   0  0  0  0  0  0  0  0  0  0  0  0
    4.1583   -1.0963    1.6413 O   0  0  0  0  0  0  0  0  0  0  0  0
    4.4739    0.1447   -0.2652 N   0  0  0  0  0  0  0  0  0  0  0  0
    5.7962   -0.3617   -0.5387 C   0  0  0  0  0  0  0  0  0  0  0  0
    6.7821    0.4663    0.1986 C   0  0  0  0  0  0  0  0  0  0  0  0
    7.3705    0.3483    1.4414 C   0  0  0  0  0  0  0  0  0  0  0  0
    8.2001    1.4772    1.6041 C   0  0  0  0  0  0  0  0  0  0  0  0
    8.0716    2.2098    0.4485 C   0  0  0  0  0  0  0  0  0  0  0  0
    7.2160    1.6026   -0.4139 O   0  0  0  0  0  0  0  0  0  0  0  0
    0.4149   -0.4934    0.2073 C   0  0  0  0  0  0  0  0  0  0  0  0
    0.6000   -1.8232    1.2620 S   0  0  0  0  0  0  0  0  0  0  0  0
   -0.8954   -2.4754    0.8165 C   0  0  0  0  0  0  0  0  0  0  0  0
   -1.5675   -1.6887   -0.0982 C   0  0  0  0  0  0  0  0  0  0  0  0
   -0.8395   -0.4716   -0.3869 C   0  0  0  0  0  0  0  0  0  0  0  0
   -2.9023   -2.1089   -0.6565 C   0  0  0  0  0  0  0  0  0  0  0  0
   -3.1983   -3.5904   -0.3914 C   0  0  0  0  0  0  0  0  0  0  0  0
   -2.8635   -3.9881    1.0514 C   0  0  0  0  0  0  0  0  0  0  0  0
   -1.3752   -3.7868    1.3606 C   0  0  0  0  0  0  0  0  0  0  0  0
   -3.4663    1.6792   -1.9593 C   0  0  0  0  0  0  0  0  0  0  0  0
   -4.7503    2.1737   -1.7190 C   0  0  0  0  0  0  0  0  0  0  0  0
   -8.1547    3.1063    0.8563 H   0  0  0  0  0  0  0  0  0  0  0  0
   -6.5858    3.3823    1.6310 H   0  0  0  0  0  0  0  0  0  0  0  0
   -7.2134    1.7032    1.3826 H   0  0  0  0  0  0  0  0  0  0  0  0
   -4.8659    1.7299    1.6608 H   0  0  0  0  0  0  0  0  0  0  0  0
   -2.6216    0.8834    1.2523 H   0  0  0  0  0  0  0  0  0  0  0  0
    1.1451    1.2906   -3.1665 H   0  0  0  0  0  0  0  0  0  0  0  0
    0.7930   -0.2933   -2.5154 H   0  0  0  0  0  0  0  0  0  0  0  0
    2.7961    1.6596    1.1473 H   0  0  0  0  0  0  0  0  0  0  0  0
    2.1064    0.3710    2.1085 H   0  0  0  0  0  0  0  0  0  0  0  0
    4.2002    1.0110   -0.7274 H   0  0  0  0  0  0  0  0  0  0  0  0
    5.9611   -0.2909   -1.6190 H   0  0  0  0  0  0  0  0  0  0  0  0
    5.8646   -1.4136   -0.2413 H   0  0  0  0  0  0  0  0  0  0  0  0
    7.1932   -0.4493    2.1453 H   0  0  0  0  0  0  0  0  0  0  0  0
    8.8102    1.7308    2.4568 H   0  0  0  0  0  0  0  0  0  0  0  0
    8.4949    3.1404    0.1062 H   0  0  0  0  0  0  0  0  0  0  0  0
   -2.9285   -1.9322   -1.7409 H   0  0  0  0  0  0  0  0  0  0  0  0
   -3.6963   -1.5042   -0.2043 H   0  0  0  0  0  0  0  0  0  0  0  0
   -2.6106   -4.2111   -1.0783 H   0  0  0  0  0  0  0  0  0  0  0  0
   -4.2529   -3.7924   -0.6024 H   0  0  0  0  0  0  0  0  0  0  0  0
   -3.4675   -3.3821    1.7387 H   0  0  0  0  0  0  0  0  0  0  0  0
   -3.1362   -5.0354    1.2257 H   0  0  0  0  0  0  0  0  0  0  0  0
   -1.2222   -3.8392    2.4431 H   0  0  0  0  0  0  0  0  0  0  0  0
   -0.7976   -4.5983    0.9045 H   0  0  0  0  0  0  0  0  0  0  0  0
   -3.0694    1.6851   -2.9706 H   0  0  0  0  0  0  0  0  0  0  0  0
   -5.3441    2.5575   -2.5459 H   0  0  0  0  0  0  0  0  0  0  0  0
  1  2  1  0
  2  3  1  0
  3  4  2  0
  4  5  1  0
  5  6  2  0
  6  7  1  0
  7  8  2  0
  8  9  1  0
  9 10  1  0
 10 11  2  0
 10 12  1  0
 12 13  1  0
 13 14  1  0
 14 15  2  0
 14 16  1  0
 16 17  1  0
 17 18  1  0
 18 19  2  0
 19 20  1  0
 20 21  2  0
 21 22  1  0
 12 23  1  0
 23 24  1  0
 24 25  1  0
 25 26  2  0
 26 27  1  0
 26 28  1  0
 28 29  1  0
 29 30  1  0
 30 31  1  0
  6 32  1  0
 32 33  2  0
 33  3  1  0
 27  7  1  0
 22 18  1  0
 27 23  2  0
 31 25  1  0
  1 34  1  0
  1 35  1  0
  1 36  1  0
  4 37  1  0
  5 38  1  0
  9 39  1  0
  9 40  1  0
 13 41  1  0
 13 42  1  0
 16 43  1  0
 17 44  1  0
 17 45  1  0
 19 46  1  0
 20 47  1  0
 21 48  1  0
 28 49  1  0
 28 50  1  0
 29 51  1  0
 29 52  1  0
 30 53  1  0
 30 54  1  0
 31 55  1  0
 31 56  1  0
 32 57  1  0
 33 58  1  0
M  END
$$$$
