
     RDKit          3D

 55 57  0  0  0  0  0  0  0  0999 V2000
    1.1106    0.9899   -1.1166 O   0  0  0  0  0  0  0  0  0  0  0  0
    1.3534   -0.2136   -1.0664 C   0  0  0  0  0  0  0  0  0  0  0  0
    0.2582   -1.2736   -0.9250 C   0  0  0  0  0  0  0  0  0  0  0  0
   -0.9727   -0.7157   -0.4725 O   0  0  0  0  0  0  0  0  0  0  0  0
   -0.9969   -0.4224    0.8624 C   0  0  0  0  0  0  0  0  0  0  0  0
   -0.0847   -0.6941    1.6350 O   0  0  0  0  0  0  0  0  0  0  0  0
   -2.2725    0.3543    1.2489 C   0  0  0  0  0  0  0  0  0  0  0  0
   -2.8391   -0.1265    2.5983 C   0  0  0  0  0  0  0  0  0  0  0  0
   -2.3810    0.7324    3.7575 C   0  0  0  0  0  0  0  0  0  0  0  0
   -1.2326    0.3993    4.4863 C   0  0  0  0  0  0  0  0  0  0  0  0
   -0.8052    1.2076    5.5409 C   0  0  0  0  0  0  0  0  0  0  0  0
   -1.5202    2.3556    5.8763 C   0  0  0  0  0  0  0  0  0  0  0  0
   -2.6631    2.6978    5.1565 C   0  0  0  0  0  0  0  0  0  0  0  0
   -3.0914    1.8918    4.1007 C   0  0  0  0  0  0  0  0  0  0  0  0
   -3.2757    0.3689    0.1745 N   0  0  0  0  0  0  0  0  0  0  0  0
   -3.9908   -0.7565   -0.1832 C   0  0  0  0  0  0  0  0  0  0  0  0
   -3.9268   -1.7901    0.4789 O   0  0  0  0  0  0  0  0  0  0  0  0
   -4.7941   -0.6448   -1.3940 C   0  0  0  0  0  0  0  0  0  0  0  0
   -5.5947   -1.6295   -1.9456 C   0  0  0  0  0  0  0  0  0  0  0  0
   -6.2498   -1.2044   -3.1371 C   0  0  0  0  0  0  0  0  0  0  0  0
   -5.9295    0.0939   -3.4621 C   0  0  0  0  0  0  0  0  0  0  0  0
   -4.8474    0.7881   -2.3356 S   0  0  0  0  0  0  0  0  0  0  0  0
    2.6297   -0.7369   -1.1487 N   0  0  0  0  0  0  0  0  0  0  0  0
    3.7960    0.1108   -1.3701 C   0  0  0  0  0  0  0  0  0  0  0  0
    3.9636    0.4393   -2.8656 C   0  0  0  0  0  0  0  0  0  0  0  0
    4.9142   -0.5320   -3.5568 C   0  0  0  0  0  0  0  0  0  0  0  0
    6.3147   -0.4916   -2.9415 C   0  0  0  0  0  0  0  0  0  0  0  0
    6.3201   -0.1061   -1.4612 C   0  0  0  0  0  0  0  0  0  0  0  0
    5.0434   -0.5519   -0.7608 C   0  0  0  0  0  0  0  0  0  0  0  0
    0.5845   -2.0915   -0.2719 H   0  0  0  0  0  0  0  0  0  0  0  0
    0.0791   -1.6963   -1.9193 H   0  0  0  0  0  0  0  0  0  0  0  0
   -1.9580    1.4038    1.3210 H   0  0  0  0  0  0  0  0  0  0  0  0
   -2.5696   -1.1726    2.7932 H   0  0  0  0  0  0  0  0  0  0  0  0
   -3.9371   -0.1008    2.5908 H   0  0  0  0  0  0  0  0  0  0  0  0
   -0.6579   -0.4902    4.2347 H   0  0  0  0  0  0  0  0  0  0  0  0
    0.0888    0.9407    6.0983 H   0  0  0  0  0  0  0  0  0  0  0  0
   -1.1856    2.9834    6.6976 H   0  0  0  0  0  0  0  0  0  0  0  0
   -3.2211    3.5930    5.4175 H   0  0  0  0  0  0  0  0  0  0  0  0
   -3.9854    2.1729    3.5484 H   0  0  0  0  0  0  0  0  0  0  0  0
   -3.1941    1.0921   -0.5297 H   0  0  0  0  0  0  0  0  0  0  0  0
   -5.7013   -2.6143   -1.5037 H   0  0  0  0  0  0  0  0  0  0  0  0
   -6.9210   -1.8198   -3.7238 H   0  0  0  0  0  0  0  0  0  0  0  0
   -6.2791    0.6703   -4.3080 H   0  0  0  0  0  0  0  0  0  0  0  0
    2.7386   -1.7381   -1.2471 H   0  0  0  0  0  0  0  0  0  0  0  0
    3.6119    1.0574   -0.8458 H   0  0  0  0  0  0  0  0  0  0  0  0
    4.3742    1.4529   -2.9635 H   0  0  0  0  0  0  0  0  0  0  0  0
    2.9966    0.4453   -3.3818 H   0  0  0  0  0  0  0  0  0  0  0  0
    4.5105   -1.5493   -3.4789 H   0  0  0  0  0  0  0  0  0  0  0  0
    4.9780   -0.3037   -4.6268 H   0  0  0  0  0  0  0  0  0  0  0  0
    6.9422    0.2201   -3.4916 H   0  0  0  0  0  0  0  0  0  0  0  0
    6.7832   -1.4747   -3.0715 H   0  0  0  0  0  0  0  0  0  0  0  0
    6.4217    0.9825   -1.3674 H   0  0  0  0  0  0  0  0  0  0  0  0
    7.1966   -0.5441   -0.9704 H   0  0  0  0  0  0  0  0  0  0  0  0
    5.0963   -0.3130    0.3082 H   0  0  0  0  0  0  0  0  0  0  0  0
    4.9722   -1.6459   -0.8234 H   0  0  0  0  0  0  0  0  0  0  0  0
  1  2  2  0
  2  3  1  0
  3  4  1  0
  4  5  1  0
  5  6  2  0
  5  7  1  0
  7  8  1  0
  8  9  1  0
  9 10  2  0
 10 11  1  0
 11 12  2  0
 12 13  1  0
 13 14  2  0
  7 15  1  0
 15 16  1  0
 16 17  2  0
 16 18  1  0
 18 19  2  0
 19 20  1  0
 20 21  2  0
 21 22  1  0
  2 23  1  0
 23 24  1  0
 24 25  1  0
 25 26  1  0
 26 27  1  0
 27 28  1  0
 28 29  1  0
 14  9  1  0
 22 18  1  0
 29 24  1  0
  3 30  1  0
  3 31  1  0
  7 32  1  0
  8 33  1  0
  8 34  1  0
 10 35  1  0
 11 36  1  0
 12 37  1  0
 13 38  1  0
 14 39  1  0
 15 40  1  0
 19 41  1  0
 20 42  1  0
 21 43  1  0
 23 44  1  0
 24 45  1  0
 25 46  1  0
 25 47  1  0
 26 48  1  0
 26 49  1  0
 27 50  1  0
 27 51  1  0
 28 52  1  0
 28 53  1  0
 29 54  1  0
 29 55  1  0
M  END
$$$$
