
     RDKit          3D

 50 51  0  0  0  0  0  0  0  0999 V2000
    9.6499    0.1344    0.4042 C   0  0  0  0  0  0  0  0  0  0  0  0
    8.2721    0.4976    0.3232 O   0  0  0  0  0  0  0  0  0  0  0  0
    7.4489   -0.3043    1.0452 C   0  0  0  0  0  0  0  0  0  0  0  0
    7.8007   -1.2565    1.7219 O   0  0  0  0  0  0  0  0  0  0  0  0
    6.0305    0.1208    0.8919 C   0  0  0  0  0  0  0  0  0  0  0  0
    5.6606    1.2722    0.1835 C   0  0  0  0  0  0  0  0  0  0  0  0
    4.3106    1.6243    0.0631 C   0  0  0  0  0  0  0  0  0  0  0  0
    3.3143    0.8368    0.6546 C   0  0  0  0  0  0  0  0  0  0  0  0
    1.8563    1.1945    0.5047 C   0  0  0  0  0  0  0  0  0  0  0  0
    1.2529    0.4033   -0.5440 N   0  0  0  0  0  0  0  0  0  0  0  0
    0.4118   -0.6526   -0.2702 C   0  0  0  0  0  0  0  0  0  0  0  0
    0.0580   -0.9564    0.8673 O   0  0  0  0  0  0  0  0  0  0  0  0
   -0.0266   -1.4414   -1.5070 C   0  0  0  0  0  0  0  0  0  0  0  0
   -1.3066   -2.0448   -1.3398 O   0  0  0  0  0  0  0  0  0  0  0  0
   -2.3479   -1.1693   -1.4647 C   0  0  0  0  0  0  0  0  0  0  0  0
   -2.2336    0.0020   -1.7933 O   0  0  0  0  0  0  0  0  0  0  0  0
   -3.6437   -1.8789   -1.1409 C   0  0  0  0  0  0  0  0  0  0  0  0
   -4.8888   -1.0863   -1.5460 C   0  0  0  0  0  0  0  0  0  0  0  0
   -5.2175    0.0827   -0.6092 C   0  0  0  0  0  0  0  0  0  0  0  0
   -6.4596    0.8606   -1.0547 C   0  0  0  0  0  0  0  0  0  0  0  0
   -6.7955    1.6961    0.1746 C   0  0  0  0  0  0  0  0  0  0  0  0
   -6.4549    0.8030    1.3666 C   0  0  0  0  0  0  0  0  0  0  0  0
   -5.5788   -0.3281    0.8201 C   0  0  0  0  0  0  0  0  0  0  0  0
    3.6895   -0.3165    1.3582 C   0  0  0  0  0  0  0  0  0  0  0  0
    5.0368   -0.6714    1.4793 C   0  0  0  0  0  0  0  0  0  0  0  0
   10.0015    0.1781    1.4402 H   0  0  0  0  0  0  0  0  0  0  0  0
   10.2252    0.8538   -0.1845 H   0  0  0  0  0  0  0  0  0  0  0  0
    9.8065   -0.8615   -0.0195 H   0  0  0  0  0  0  0  0  0  0  0  0
    6.4102    1.9082   -0.2790 H   0  0  0  0  0  0  0  0  0  0  0  0
    4.0439    2.5218   -0.4946 H   0  0  0  0  0  0  0  0  0  0  0  0
    1.7440    2.2478    0.2248 H   0  0  0  0  0  0  0  0  0  0  0  0
    1.3331    1.0559    1.4570 H   0  0  0  0  0  0  0  0  0  0  0  0
    1.5206    0.6016   -1.4992 H   0  0  0  0  0  0  0  0  0  0  0  0
    0.0017   -0.8232   -2.4111 H   0  0  0  0  0  0  0  0  0  0  0  0
    0.6976   -2.2485   -1.6467 H   0  0  0  0  0  0  0  0  0  0  0  0
   -3.6543   -2.1198   -0.0729 H   0  0  0  0  0  0  0  0  0  0  0  0
   -3.6462   -2.8192   -1.7041 H   0  0  0  0  0  0  0  0  0  0  0  0
   -4.7660   -0.7073   -2.5685 H   0  0  0  0  0  0  0  0  0  0  0  0
   -5.7443   -1.7741   -1.5707 H   0  0  0  0  0  0  0  0  0  0  0  0
   -4.3682    0.7770   -0.5698 H   0  0  0  0  0  0  0  0  0  0  0  0
   -6.2667    1.4836   -1.9335 H   0  0  0  0  0  0  0  0  0  0  0  0
   -7.2900    0.1820   -1.2924 H   0  0  0  0  0  0  0  0  0  0  0  0
   -6.1618    2.5903    0.1991 H   0  0  0  0  0  0  0  0  0  0  0  0
   -7.8405    2.0258    0.1851 H   0  0  0  0  0  0  0  0  0  0  0  0
   -7.3611    0.3969    1.8235 H   0  0  0  0  0  0  0  0  0  0  0  0
   -5.9258    1.3740    2.1381 H   0  0  0  0  0  0  0  0  0  0  0  0
   -4.6877   -0.4784    1.4371 H   0  0  0  0  0  0  0  0  0  0  0  0
   -6.1437   -1.2690    0.8298 H   0  0  0  0  0  0  0  0  0  0  0  0
    2.9278   -0.9480    1.8170 H   0  0  0  0  0  0  0  0  0  0  0  0
    5.3048   -1.5695    2.0311 H   0  0  0  0  0  0  0  0  0  0  0  0
  1  2  1  0
  2  3  1  0
  3  4  2  0
  3  5  1  0
  5  6  2  0
  6  7  1  0
  7  8  2  0
  8  9  1  0
  9 10  1  0
 10 11  1  0
 11 12  2  0
 11 13  1  0
 13 14  1  0
 14 15  1  0
 15 16  2  0
 15 17  1  0
 17 18  1  0
 18 19  1  0
 19 20  1  0
 20 21  1  0
 21 22  1  0
 22 23  1  0
  8 24  1  0
 24 25  2  0
 25  5  1  0
 23 19  1  0
  1 26  1  0
  1 27  1  0
  1 28  1  0
  6 29  1  0
  7 30  1  0
  9 31  1  0
  9 32  1  0
 10 33  1  0
 13 34  1  0
 13 35  1  0
 17 36  1  0
 17 37  1  0
 18 38  1  0
 18 39  1  0
 19 40  1  0
 20 41  1  0
 20 42  1  0
 21 43  1  0
 21 44  1  0
 22 45  1  0
 22 46  1  0
 23 47  1  0
 23 48  1  0
 24 49  1  0
 25 50  1  0
M  END
$$$$
