
     RDKit          3D

 55 58  0  0  0  0  0  0  0  0999 V2000
    3.5125   -4.4541    5.3085 N   0  0  0  0  0  0  0  0  0  0  0  0
    2.3932   -3.6877    5.1194 C   0  0  0  0  0  0  0  0  0  0  0  0
    1.6653   -3.3934    6.0651 O   0  0  0  0  0  0  0  0  0  0  0  0
    2.1477   -3.2773    3.7264 C   0  0  0  0  0  0  0  0  0  0  0  0
    2.9517   -3.7331    2.7505 N   0  0  0  0  0  0  0  0  0  0  0  0
    2.4177   -3.1558    1.2956 S   0  0  0  0  0  0  0  0  0  0  0  0
    1.1201   -2.2329    1.9119 C   0  0  0  0  0  0  0  0  0  0  0  0
    0.2069   -1.5024    1.0467 C   0  0  0  0  0  0  0  0  0  0  0  0
   -1.0070   -1.5254    1.2663 O   0  0  0  0  0  0  0  0  0  0  0  0
    0.7301   -0.8407   -0.0864 N   0  0  0  0  0  0  0  0  0  0  0  0
    1.9740   -0.1185   -0.0087 C   0  0  0  0  0  0  0  0  0  0  0  0
    2.8362   -0.0452   -1.1079 C   0  0  0  0  0  0  0  0  0  0  0  0
    4.0490    0.6462   -1.0222 C   0  0  0  0  0  0  0  0  0  0  0  0
    4.4132    1.2784    0.1629 C   0  0  0  0  0  0  0  0  0  0  0  0
    3.5637    1.2238    1.2626 C   0  0  0  0  0  0  0  0  0  0  0  0
    2.3543    0.5297    1.1784 C   0  0  0  0  0  0  0  0  0  0  0  0
   -0.2768   -0.3676   -1.0670 C   0  0  0  0  0  0  0  0  0  0  0  0
   -0.6573    1.1341   -0.9249 C   0  0  0  0  0  0  0  0  0  0  0  0
   -0.4168    1.7898    0.0916 O   0  0  0  0  0  0  0  0  0  0  0  0
   -1.4062    1.6698   -1.9566 N   0  0  0  0  0  0  0  0  0  0  0  0
   -1.9009    3.0251   -1.9329 C   0  0  0  0  0  0  0  0  0  0  0  0
   -3.3608    3.0510   -1.5571 C   0  0  0  0  0  0  0  0  0  0  0  0
   -3.7397    3.0161   -0.2051 C   0  0  0  0  0  0  0  0  0  0  0  0
   -5.0887    3.0230    0.1519 C   0  0  0  0  0  0  0  0  0  0  0  0
   -6.0592    3.0578   -0.8419 C   0  0  0  0  0  0  0  0  0  0  0  0
   -7.3549    3.0678   -0.4995 F   0  0  0  0  0  0  0  0  0  0  0  0
   -5.7065    3.0800   -2.1865 C   0  0  0  0  0  0  0  0  0  0  0  0
   -4.3574    3.0736   -2.5460 C   0  0  0  0  0  0  0  0  0  0  0  0
    0.0683   -0.8125   -2.4620 C   0  0  0  0  0  0  0  0  0  0  0  0
    0.0735   -2.0604   -3.0591 C   0  0  0  0  0  0  0  0  0  0  0  0
    0.4788   -1.8664   -4.4012 C   0  0  0  0  0  0  0  0  0  0  0  0
    0.6921   -0.5170   -4.5455 C   0  0  0  0  0  0  0  0  0  0  0  0
    0.4439    0.1298   -3.3786 O   0  0  0  0  0  0  0  0  0  0  0  0
    1.0756   -2.4154    3.2807 C   0  0  0  0  0  0  0  0  0  0  0  0
    0.1483   -1.8421    4.0887 N   0  0  0  0  0  0  0  0  0  0  0  0
    3.7315   -4.7940    6.2320 H   0  0  0  0  0  0  0  0  0  0  0  0
    4.0898   -4.6981    4.5118 H   0  0  0  0  0  0  0  0  0  0  0  0
    2.6159   -0.5584   -2.0369 H   0  0  0  0  0  0  0  0  0  0  0  0
    4.7132    0.6816   -1.8827 H   0  0  0  0  0  0  0  0  0  0  0  0
    5.3541    1.8181    0.2270 H   0  0  0  0  0  0  0  0  0  0  0  0
    3.8329    1.7296    2.1865 H   0  0  0  0  0  0  0  0  0  0  0  0
    1.6957    0.5480    2.0445 H   0  0  0  0  0  0  0  0  0  0  0  0
   -1.2270   -0.8813   -0.8612 H   0  0  0  0  0  0  0  0  0  0  0  0
   -1.5343    1.1308   -2.8056 H   0  0  0  0  0  0  0  0  0  0  0  0
   -1.7559    3.4437   -2.9360 H   0  0  0  0  0  0  0  0  0  0  0  0
   -1.3175    3.6444   -1.2411 H   0  0  0  0  0  0  0  0  0  0  0  0
   -2.9787    2.9764    0.5745 H   0  0  0  0  0  0  0  0  0  0  0  0
   -5.3854    2.9994    1.1959 H   0  0  0  0  0  0  0  0  0  0  0  0
   -6.4840    3.1020   -2.9435 H   0  0  0  0  0  0  0  0  0  0  0  0
   -4.0891    3.0855   -3.6003 H   0  0  0  0  0  0  0  0  0  0  0  0
   -0.1812   -2.9956   -2.5780 H   0  0  0  0  0  0  0  0  0  0  0  0
    0.6029   -2.6173   -5.1693 H   0  0  0  0  0  0  0  0  0  0  0  0
    1.0089    0.1074   -5.3698 H   0  0  0  0  0  0  0  0  0  0  0  0
   -0.7388   -1.5140    3.7037 H   0  0  0  0  0  0  0  0  0  0  0  0
    0.0633   -2.1564    5.0593 H   0  0  0  0  0  0  0  0  0  0  0  0
  1  2  1  0
  2  3  2  0
  2  4  1  0
  4  5  2  0
  5  6  1  0
  6  7  1  0
  7  8  1  0
  8  9  2  0
  8 10  1  0
 10 11  1  0
 11 12  2  0
 12 13  1  0
 13 14  2  0
 14 15  1  0
 15 16  2  0
 10 17  1  0
 17 18  1  0
 18 19  2  0
 18 20  1  0
 20 21  1  0
 21 22  1  0
 22 23  2  0
 23 24  1  0
 24 25  2  0
 25 26  1  0
 25 27  1  0
 27 28  2  0
 17 29  1  0
 29 30  2  0
 30 31  1  0
 31 32  2  0
 32 33  1  0
  7 34  2  0
 34 35  1  0
 34  4  1  0
 16 11  1  0
 28 22  1  0
 33 29  1  0
  1 36  1  0
  1 37  1  0
 12 38  1  0
 13 39  1  0
 14 40  1  0
 15 41  1  0
 16 42  1  0
 17 43  1  0
 20 44  1  0
 21 45  1  0
 21 46  1  0
 23 47  1  0
 24 48  1  0
 27 49  1  0
 28 50  1  0
 30 51  1  0
 31 52  1  0
 32 53  1  0
 35 54  1  0
 35 55  1  0
M  END
$$$$
