
     RDKit          3D

 34 35  0  0  0  0  0  0  0  0999 V2000
   -0.6444    1.8257   -2.1610 C   0  0  0  0  0  0  0  0  0  0  0  0
   -0.6243    0.5462   -1.4580 N   0  0  0  0  0  0  0  0  0  0  0  0
    0.4511   -0.3436   -1.4968 C   0  0  0  0  0  0  0  0  0  0  0  0
    0.4302   -1.4011   -0.8598 O   0  0  0  0  0  0  0  0  0  0  0  0
    1.6763   -0.0078   -2.3387 C   0  0  0  0  0  0  0  0  0  0  0  0
    2.6761    1.3015   -1.5720 S   0  0  0  0  0  0  0  0  0  0  0  0
    2.9406    0.5200   -0.0051 C   0  0  0  0  0  0  0  0  0  0  0  0
    3.7358   -0.5610    0.0218 N   0  0  0  0  0  0  0  0  0  0  0  0
    3.8776   -1.1582    1.2192 C   0  0  0  0  0  0  0  0  0  0  0  0
    3.2700   -0.7106    2.3682 C   0  0  0  0  0  0  0  0  0  0  0  0
    2.4870    0.4102    2.2268 C   0  0  0  0  0  0  0  0  0  0  0  0
    2.3008    1.0450    1.0543 N   0  0  0  0  0  0  0  0  0  0  0  0
   -1.7002    0.3437   -0.4742 C   0  0  0  0  0  0  0  0  0  0  0  0
   -2.5138   -0.9471   -0.6646 C   0  0  0  0  0  0  0  0  0  0  0  0
   -3.4990   -0.9925    0.4977 C   0  0  0  0  0  0  0  0  0  0  0  0
   -2.6491   -0.2475    1.8836 S   0  0  0  0  0  6  0  0  0  0  0  0
   -3.4228    0.8961    2.3247 O   0  0  0  0  0  0  0  0  0  0  0  0
   -2.2261   -1.2855    2.7999 O   0  0  0  0  0  0  0  0  0  0  0  0
   -1.2338    0.3496    0.9823 C   0  0  0  0  0  0  0  0  0  0  0  0
    0.0479    1.8569   -3.0016 H   0  0  0  0  0  0  0  0  0  0  0  0
   -1.6510    1.9987   -2.5546 H   0  0  0  0  0  0  0  0  0  0  0  0
   -0.3898    2.6174   -1.4504 H   0  0  0  0  0  0  0  0  0  0  0  0
    2.2856   -0.9129   -2.4424 H   0  0  0  0  0  0  0  0  0  0  0  0
    1.3790    0.2751   -3.3518 H   0  0  0  0  0  0  0  0  0  0  0  0
    4.5140   -2.0384    1.2266 H   0  0  0  0  0  0  0  0  0  0  0  0
    3.3968   -1.2089    3.3190 H   0  0  0  0  0  0  0  0  0  0  0  0
    1.9655    0.8401    3.0773 H   0  0  0  0  0  0  0  0  0  0  0  0
   -2.4068    1.1774   -0.5979 H   0  0  0  0  0  0  0  0  0  0  0  0
   -3.0335   -0.9625   -1.6282 H   0  0  0  0  0  0  0  0  0  0  0  0
   -1.8812   -1.8390   -0.6267 H   0  0  0  0  0  0  0  0  0  0  0  0
   -3.7980   -2.0117    0.7513 H   0  0  0  0  0  0  0  0  0  0  0  0
   -4.3842   -0.3863    0.2844 H   0  0  0  0  0  0  0  0  0  0  0  0
   -0.9670    1.3496    1.3321 H   0  0  0  0  0  0  0  0  0  0  0  0
   -0.4093   -0.3384    1.1788 H   0  0  0  0  0  0  0  0  0  0  0  0
  1  2  1  0
  2  3  1  0
  3  4  2  0
  3  5  1  0
  5  6  1  0
  6  7  1  0
  7  8  2  0
  8  9  1  0
  9 10  2  0
 10 11  1  0
 11 12  2  0
  2 13  1  0
 13 14  1  0
 14 15  1  0
 15 16  1  0
 16 17  2  0
 16 18  2  0
 16 19  1  0
 12  7  1  0
 19 13  1  0
  1 20  1  0
  1 21  1  0
  1 22  1  0
  5 23  1  0
  5 24  1  0
  9 25  1  0
 10 26  1  0
 11 27  1  0
 13 28  1  0
 14 29  1  0
 14 30  1  0
 15 31  1  0
 15 32  1  0
 19 33  1  0
 19 34  1  0
M  END
$$$$
