
     RDKit          3D

 67 69  0  0  0  0  0  0  0  0999 V2000
    0.2080    2.2875   -2.1042 C   0  0  0  0  0  0  0  0  0  0  0  0
   -0.3500    1.1950   -1.2015 C   0  0  0  0  0  0  0  0  0  0  0  0
   -1.8062    1.1387   -1.3163 N   0  0  0  0  0  0  0  0  0  0  0  0
   -2.4570   -0.0695   -1.1575 C   0  0  0  0  0  0  0  0  0  0  0  0
   -1.8719   -1.1462   -1.1091 O   0  0  0  0  0  0  0  0  0  0  0  0
   -3.9383   -0.0086   -1.0056 C   0  0  0  0  0  0  0  0  0  0  0  0
   -4.6947    1.0608   -1.4914 C   0  0  0  0  0  0  0  0  0  0  0  0
   -6.0867    1.0758   -1.3267 C   0  0  0  0  0  0  0  0  0  0  0  0
   -6.7595    0.0246   -0.6809 C   0  0  0  0  0  0  0  0  0  0  0  0
   -8.2858    0.0125   -0.4807 C   0  0  0  0  0  0  0  0  0  0  0  0
   -8.6117   -0.0706    1.0264 C   0  0  0  0  0  0  0  0  0  0  0  0
   -8.9984    1.2681   -1.0321 C   0  0  0  0  0  0  0  0  0  0  0  0
   -8.8934   -1.2110   -1.2000 C   0  0  0  0  0  0  0  0  0  0  0  0
   -5.9785   -1.0510   -0.2143 C   0  0  0  0  0  0  0  0  0  0  0  0
   -4.5893   -1.0711   -0.3767 C   0  0  0  0  0  0  0  0  0  0  0  0
   -0.0059    1.5239    0.2702 C   0  0  0  0  0  0  0  0  0  0  0  0
   -0.7863    2.2023    0.9488 O   0  0  0  0  0  0  0  0  0  0  0  0
    1.2274    1.1176    0.7578 N   0  0  0  0  0  0  0  0  0  0  0  0
    1.5994    1.4619    2.1252 C   0  0  0  0  0  0  0  0  0  0  0  0
    3.1186    1.6895    2.2932 C   0  0  0  0  0  0  0  0  0  0  0  0
    3.9988    0.8445    1.4550 N   0  0  0  0  0  0  0  0  0  0  0  0
    5.2309    0.4990    2.1684 C   0  0  0  0  0  0  0  0  0  0  0  0
    6.2838   -0.0284    1.2381 C   0  0  0  0  0  0  0  0  0  0  0  0
    6.8973   -1.2133    1.3931 C   0  0  0  0  0  0  0  0  0  0  0  0
    7.9350   -1.7330    0.4915 C   0  0  0  0  0  0  0  0  0  0  0  0
    7.9037   -1.5155   -0.8922 C   0  0  0  0  0  0  0  0  0  0  0  0
    8.8925   -2.0540   -1.7201 C   0  0  0  0  0  0  0  0  0  0  0  0
    9.9171   -2.8241   -1.1745 C   0  0  0  0  0  0  0  0  0  0  0  0
    9.9510   -3.0609    0.1978 C   0  0  0  0  0  0  0  0  0  0  0  0
    8.9619   -2.5229    1.0253 C   0  0  0  0  0  0  0  0  0  0  0  0
    3.2782   -0.3325    0.9482 C   0  0  0  0  0  0  0  0  0  0  0  0
    2.0505    0.0894    0.1145 C   0  0  0  0  0  0  0  0  0  0  0  0
   -0.1917    3.2714   -1.8323 H   0  0  0  0  0  0  0  0  0  0  0  0
   -0.0574    2.0995   -3.1501 H   0  0  0  0  0  0  0  0  0  0  0  0
    1.2989    2.3441   -2.0327 H   0  0  0  0  0  0  0  0  0  0  0  0
    0.0623    0.2281   -1.4968 H   0  0  0  0  0  0  0  0  0  0  0  0
   -2.2819    1.9473   -0.9302 H   0  0  0  0  0  0  0  0  0  0  0  0
   -4.2252    1.8844   -2.0220 H   0  0  0  0  0  0  0  0  0  0  0  0
   -6.6252    1.9320   -1.7244 H   0  0  0  0  0  0  0  0  0  0  0  0
   -8.1646    0.7678    1.5733 H   0  0  0  0  0  0  0  0  0  0  0  0
   -9.6940   -0.0421    1.1990 H   0  0  0  0  0  0  0  0  0  0  0  0
   -8.2403   -0.9955    1.4808 H   0  0  0  0  0  0  0  0  0  0  0  0
   -8.8488    1.3752   -2.1129 H   0  0  0  0  0  0  0  0  0  0  0  0
  -10.0804    1.2152   -0.8613 H   0  0  0  0  0  0  0  0  0  0  0  0
   -8.6393    2.1822   -0.5449 H   0  0  0  0  0  0  0  0  0  0  0  0
   -8.6588   -1.1954   -2.2709 H   0  0  0  0  0  0  0  0  0  0  0  0
   -8.5194   -2.1578   -0.7956 H   0  0  0  0  0  0  0  0  0  0  0  0
   -9.9847   -1.2276   -1.0978 H   0  0  0  0  0  0  0  0  0  0  0  0
   -6.4439   -1.8979    0.2863 H   0  0  0  0  0  0  0  0  0  0  0  0
   -4.0181   -1.9195   -0.0052 H   0  0  0  0  0  0  0  0  0  0  0  0
    1.2757    0.6261    2.7580 H   0  0  0  0  0  0  0  0  0  0  0  0
    1.0587    2.3520    2.4644 H   0  0  0  0  0  0  0  0  0  0  0  0
    3.3464    1.5755    3.3610 H   0  0  0  0  0  0  0  0  0  0  0  0
    3.3434    2.7318    2.0358 H   0  0  0  0  0  0  0  0  0  0  0  0
    5.6507    1.4041    2.6268 H   0  0  0  0  0  0  0  0  0  0  0  0
    5.0259   -0.2050    2.9851 H   0  0  0  0  0  0  0  0  0  0  0  0
    6.5508    0.6302    0.4152 H   0  0  0  0  0  0  0  0  0  0  0  0
    6.6445   -1.8500    2.2378 H   0  0  0  0  0  0  0  0  0  0  0  0
    7.1043   -0.9326   -1.3431 H   0  0  0  0  0  0  0  0  0  0  0  0
    8.8581   -1.8750   -2.7915 H   0  0  0  0  0  0  0  0  0  0  0  0
   10.6856   -3.2429   -1.8188 H   0  0  0  0  0  0  0  0  0  0  0  0
   10.7466   -3.6651    0.6257 H   0  0  0  0  0  0  0  0  0  0  0  0
    9.0067   -2.7193    2.0940 H   0  0  0  0  0  0  0  0  0  0  0  0
    3.9188   -0.9455    0.3042 H   0  0  0  0  0  0  0  0  0  0  0  0
    2.9567   -0.9697    1.7827 H   0  0  0  0  0  0  0  0  0  0  0  0
    2.3760    0.4852   -0.8540 H   0  0  0  0  0  0  0  0  0  0  0  0
    1.4235   -0.7897   -0.0718 H   0  0  0  0  0  0  0  0  0  0  0  0
  1  2  1  0
  2  3  1  0
  3  4  1  0
  4  5  2  0
  4  6  1  0
  6  7  2  0
  7  8  1  0
  8  9  2  0
  9 10  1  0
 10 11  1  0
 10 12  1  0
 10 13  1  0
  9 14  1  0
 14 15  2  0
  2 16  1  0
 16 17  2  0
 16 18  1  0
 18 19  1  0
 19 20  1  0
 20 21  1  0
 21 22  1  0
 22 23  1  0
 23 24  2  3
 24 25  1  0
 25 26  2  0
 26 27  1  0
 27 28  2  0
 28 29  1  0
 29 30  2  0
 21 31  1  0
 31 32  1  0
 15  6  1  0
 32 18  1  0
 30 25  1  0
  1 33  1  0
  1 34  1  0
  1 35  1  0
  2 36  1  0
  3 37  1  0
  7 38  1  0
  8 39  1  0
 11 40  1  0
 11 41  1  0
 11 42  1  0
 12 43  1  0
 12 44  1  0
 12 45  1  0
 13 46  1  0
 13 47  1  0
 13 48  1  0
 14 49  1  0
 15 50  1  0
 19 51  1  0
 19 52  1  0
 20 53  1  0
 20 54  1  0
 22 55  1  0
 22 56  1  0
 23 57  1  0
 24 58  1  0
 26 59  1  0
 27 60  1  0
 28 61  1  0
 29 62  1  0
 30 63  1  0
 31 64  1  0
 31 65  1  0
 32 66  1  0
 32 67  1  0
M  END
$$$$
