
     RDKit          3D

 52 55  0  0  0  0  0  0  0  0999 V2000
    6.6736   -0.4374    5.8911 N   0  0  0  0  0  0  0  0  0  0  0  0
    6.8223   -1.3214    4.4717 S   0  0  0  0  0  6  0  0  0  0  0  0
    6.8462   -2.7094    4.8713 O   0  0  0  0  0  0  0  0  0  0  0  0
    7.9031   -0.7107    3.7335 O   0  0  0  0  0  0  0  0  0  0  0  0
    5.2909   -0.9735    3.6600 C   0  0  0  0  0  0  0  0  0  0  0  0
    5.1924    0.1390    2.8214 C   0  0  0  0  0  0  0  0  0  0  0  0
    3.9906    0.3974    2.1606 C   0  0  0  0  0  0  0  0  0  0  0  0
    2.8885   -0.4542    2.3291 C   0  0  0  0  0  0  0  0  0  0  0  0
    1.6006   -0.1783    1.5924 C   0  0  0  0  0  0  0  0  0  0  0  0
    1.6270   -0.7499    0.1728 C   0  0  0  0  0  0  0  0  0  0  0  0
    0.3828   -0.5182   -0.5373 N   0  0  0  0  0  0  0  0  0  0  0  0
    0.0876    0.7148   -1.0809 C   0  0  0  0  0  0  0  0  0  0  0  0
    0.8001    1.7027   -0.9675 O   0  0  0  0  0  0  0  0  0  0  0  0
   -1.1865    0.7771   -1.8351 C   0  0  0  0  0  0  0  0  0  0  0  0
   -2.3441    0.3539   -1.1773 C   0  0  0  0  0  0  0  0  0  0  0  0
   -3.5477    0.3974   -1.8597 C   0  0  0  0  0  0  0  0  0  0  0  0
   -4.8289   -0.0272   -1.2583 C   0  0  0  0  0  0  0  0  0  0  0  0
   -5.1085    0.1462    0.1104 C   0  0  0  0  0  0  0  0  0  0  0  0
   -6.3246   -0.2698    0.6633 C   0  0  0  0  0  0  0  0  0  0  0  0
   -7.2908   -0.8652   -0.1420 C   0  0  0  0  0  0  0  0  0  0  0  0
   -7.0454   -1.0392   -1.5002 C   0  0  0  0  0  0  0  0  0  0  0  0
   -5.8296   -0.6217   -2.0499 C   0  0  0  0  0  0  0  0  0  0  0  0
   -3.6129    0.8244   -3.1443 N   0  0  0  0  0  0  0  0  0  0  0  0
   -2.5018    1.2482   -3.7711 C   0  0  0  0  0  0  0  0  0  0  0  0
   -2.6171    1.6927   -5.0818 C   0  0  0  0  0  0  0  0  0  0  0  0
   -1.5146    2.1430   -5.8111 C   0  0  0  0  0  0  0  0  0  0  0  0
   -0.2594    2.1510   -5.2216 C   0  0  0  0  0  0  0  0  0  0  0  0
   -0.1170    1.7089   -3.9078 C   0  0  0  0  0  0  0  0  0  0  0  0
   -1.2346    1.2542   -3.1618 C   0  0  0  0  0  0  0  0  0  0  0  0
    3.0078   -1.5767    3.1611 C   0  0  0  0  0  0  0  0  0  0  0  0
    4.2072   -1.8396    3.8253 C   0  0  0  0  0  0  0  0  0  0  0  0
    7.3921    0.2861    5.9249 H   0  0  0  0  0  0  0  0  0  0  0  0
    6.6825   -1.0669    6.6937 H   0  0  0  0  0  0  0  0  0  0  0  0
    6.0405    0.8046    2.6767 H   0  0  0  0  0  0  0  0  0  0  0  0
    3.9163    1.2670    1.5087 H   0  0  0  0  0  0  0  0  0  0  0  0
    1.4209    0.9040    1.5725 H   0  0  0  0  0  0  0  0  0  0  0  0
    0.7560   -0.6033    2.1502 H   0  0  0  0  0  0  0  0  0  0  0  0
    1.7845   -1.8341    0.1969 H   0  0  0  0  0  0  0  0  0  0  0  0
    2.4447   -0.3079   -0.4090 H   0  0  0  0  0  0  0  0  0  0  0  0
   -0.1914   -1.3177   -0.7746 H   0  0  0  0  0  0  0  0  0  0  0  0
   -2.2947    0.0021   -0.1526 H   0  0  0  0  0  0  0  0  0  0  0  0
   -4.3892    0.6312    0.7665 H   0  0  0  0  0  0  0  0  0  0  0  0
   -6.5190   -0.1193    1.7223 H   0  0  0  0  0  0  0  0  0  0  0  0
   -8.2373   -1.1848    0.2859 H   0  0  0  0  0  0  0  0  0  0  0  0
   -7.7989   -1.4947   -2.1374 H   0  0  0  0  0  0  0  0  0  0  0  0
   -5.6614   -0.7633   -3.1168 H   0  0  0  0  0  0  0  0  0  0  0  0
   -3.5989    1.6903   -5.5508 H   0  0  0  0  0  0  0  0  0  0  0  0
   -1.6432    2.4867   -6.8341 H   0  0  0  0  0  0  0  0  0  0  0  0
    0.6069    2.5025   -5.7763 H   0  0  0  0  0  0  0  0  0  0  0  0
    0.8768    1.7292   -3.4634 H   0  0  0  0  0  0  0  0  0  0  0  0
    2.1673   -2.2544    3.2959 H   0  0  0  0  0  0  0  0  0  0  0  0
    4.2883   -2.7160    4.4643 H   0  0  0  0  0  0  0  0  0  0  0  0
  1  2  1  0
  2  3  2  0
  2  4  2  0
  2  5  1  0
  5  6  2  0
  6  7  1  0
  7  8  2  0
  8  9  1  0
  9 10  1  0
 10 11  1  0
 11 12  1  0
 12 13  2  0
 12 14  1  0
 14 15  2  0
 15 16  1  0
 16 17  1  0
 17 18  2  0
 18 19  1  0
 19 20  2  0
 20 21  1  0
 21 22  2  0
 16 23  2  0
 23 24  1  0
 24 25  2  0
 25 26  1  0
 26 27  2  0
 27 28  1  0
 28 29  2  0
  8 30  1  0
 30 31  2  0
 31  5  1  0
 29 14  1  0
 22 17  1  0
 29 24  1  0
  1 32  1  0
  1 33  1  0
  6 34  1  0
  7 35  1  0
  9 36  1  0
  9 37  1  0
 10 38  1  0
 10 39  1  0
 11 40  1  0
 15 41  1  0
 18 42  1  0
 19 43  1  0
 20 44  1  0
 21 45  1  0
 22 46  1  0
 25 47  1  0
 26 48  1  0
 27 49  1  0
 28 50  1  0
 30 51  1  0
 31 52  1  0
M  END
$$$$
