
     RDKit          3D

 46 48  0  0  0  0  0  0  0  0999 V2000
    6.7160   -0.1250    2.0958 C   0  0  0  0  0  0  0  0  0  0  0  0
    5.9279    1.0935    1.6490 C   0  0  0  0  0  0  0  0  0  0  0  0
    5.2207    0.8072    0.4298 O   0  0  0  0  0  0  0  0  0  0  0  0
    4.0046    0.2249    0.5686 C   0  0  0  0  0  0  0  0  0  0  0  0
    3.4827   -0.0837    1.6307 O   0  0  0  0  0  0  0  0  0  0  0  0
    3.3654   -0.0226   -0.7602 C   0  0  0  0  0  0  0  0  0  0  0  0
    3.9850    0.4462   -1.9335 C   0  0  0  0  0  0  0  0  0  0  0  0
    3.4067    0.2226   -3.1824 C   0  0  0  0  0  0  0  0  0  0  0  0
    2.2031   -0.4660   -3.2695 C   0  0  0  0  0  0  0  0  0  0  0  0
    1.5757   -0.9365   -2.1114 C   0  0  0  0  0  0  0  0  0  0  0  0
    2.1405   -0.7304   -0.8462 C   0  0  0  0  0  0  0  0  0  0  0  0
    1.5209   -1.2021    0.3386 N   0  0  0  0  0  0  0  0  0  0  0  0
    0.3842   -1.9892    0.4710 C   0  0  0  0  0  0  0  0  0  0  0  0
   -0.2690   -2.4627   -0.4557 O   0  0  0  0  0  0  0  0  0  0  0  0
    0.0520   -2.2369    1.9437 C   0  0  0  0  0  0  0  0  0  0  0  0
   -1.5481   -3.0674    2.1854 S   0  0  0  0  0  0  0  0  0  0  0  0
   -2.6151   -1.8293    1.4894 C   0  0  0  0  0  0  0  0  0  0  0  0
   -3.6433   -2.1889    0.6388 C   0  0  0  0  0  0  0  0  0  0  0  0
   -4.4641   -1.1912    0.1106 C   0  0  0  0  0  0  0  0  0  0  0  0
   -4.2378    0.1368    0.4545 C   0  0  0  0  0  0  0  0  0  0  0  0
   -5.0354    1.2695   -0.0454 C   0  0  0  0  0  0  0  0  0  0  0  0
   -5.7894    1.2207   -1.2299 C   0  0  0  0  0  0  0  0  0  0  0  0
   -6.5240    2.3301   -1.6552 C   0  0  0  0  0  0  0  0  0  0  0  0
   -6.4914    3.4780   -0.8830 C   0  0  0  0  0  0  0  0  0  0  0  0
   -5.7855    3.5843    0.2592 N   0  0  0  0  0  0  0  0  0  0  0  0
   -5.0779    2.4882    0.6428 C   0  0  0  0  0  0  0  0  0  0  0  0
   -3.2293    0.4444    1.3056 N   0  0  0  0  0  0  0  0  0  0  0  0
   -2.4137   -0.5398    1.8248 N   0  0  0  0  0  0  0  0  0  0  0  0
    6.0541   -0.9731    2.2861 H   0  0  0  0  0  0  0  0  0  0  0  0
    7.2823    0.0897    3.0063 H   0  0  0  0  0  0  0  0  0  0  0  0
    7.4120   -0.4378    1.3119 H   0  0  0  0  0  0  0  0  0  0  0  0
    6.6149    1.9194    1.4374 H   0  0  0  0  0  0  0  0  0  0  0  0
    5.2425    1.4375    2.4313 H   0  0  0  0  0  0  0  0  0  0  0  0
    4.9270    0.9883   -1.8935 H   0  0  0  0  0  0  0  0  0  0  0  0
    3.8922    0.5887   -4.0853 H   0  0  0  0  0  0  0  0  0  0  0  0
    1.7422   -0.6398   -4.2408 H   0  0  0  0  0  0  0  0  0  0  0  0
    0.6302   -1.4563   -2.2375 H   0  0  0  0  0  0  0  0  0  0  0  0
    1.9931   -0.9308    1.2045 H   0  0  0  0  0  0  0  0  0  0  0  0
    0.8301   -2.8835    2.3612 H   0  0  0  0  0  0  0  0  0  0  0  0
    0.0657   -1.2905    2.4930 H   0  0  0  0  0  0  0  0  0  0  0  0
   -3.7990   -3.2293    0.3662 H   0  0  0  0  0  0  0  0  0  0  0  0
   -5.2668   -1.4797   -0.5629 H   0  0  0  0  0  0  0  0  0  0  0  0
   -5.8077    0.3276   -1.8502 H   0  0  0  0  0  0  0  0  0  0  0  0
   -7.1052    2.2977   -2.5703 H   0  0  0  0  0  0  0  0  0  0  0  0
   -7.0449    4.3667   -1.1714 H   0  0  0  0  0  0  0  0  0  0  0  0
   -4.5241    2.6303    1.5704 H   0  0  0  0  0  0  0  0  0  0  0  0
  1  2  1  0
  2  3  1  0
  3  4  1  0
  4  5  2  0
  4  6  1  0
  6  7  2  0
  7  8  1  0
  8  9  2  0
  9 10  1  0
 10 11  2  0
 11 12  1  0
 12 13  1  0
 13 14  2  0
 13 15  1  0
 15 16  1  0
 16 17  1  0
 17 18  2  0
 18 19  1  0
 19 20  2  0
 20 21  1  0
 21 22  2  0
 22 23  1  0
 23 24  2  0
 24 25  1  0
 25 26  2  0
 20 27  1  0
 27 28  2  0
 11  6  1  0
 28 17  1  0
 26 21  1  0
  1 29  1  0
  1 30  1  0
  1 31  1  0
  2 32  1  0
  2 33  1  0
  7 34  1  0
  8 35  1  0
  9 36  1  0
 10 37  1  0
 12 38  1  0
 15 39  1  0
 15 40  1  0
 18 41  1  0
 19 42  1  0
 22 43  1  0
 23 44  1  0
 24 45  1  0
 26 46  1  0
M  END
$$$$
