
     RDKit          3D

 54 58  0  0  0  0  0  0  0  0999 V2000
    5.5186   -1.9267    2.4942 C   0  0  0  0  0  0  0  0  0  0  0  0
    4.4987   -1.0288    1.8119 C   0  0  0  0  0  0  0  0  0  0  0  0
    3.6351   -1.7848    0.8124 C   0  0  0  0  0  0  0  0  0  0  0  0
    3.7555   -2.9998    0.6545 O   0  0  0  0  0  0  0  0  0  0  0  0
    2.7074   -1.0308    0.0784 N   0  0  0  0  0  0  0  0  0  0  0  0
    2.2628    0.2888    0.5139 C   0  0  0  0  0  0  0  0  0  0  0  0
    1.7086    1.1285   -0.6256 C   0  0  0  0  0  0  0  0  0  0  0  0
    0.6206    0.4259   -1.4654 C   0  0  0  0  0  0  0  0  0  0  0  0
    1.1585   -0.9648   -1.8815 C   0  0  0  0  0  0  0  0  0  0  0  0
    1.8110   -1.7932   -0.7864 C   0  0  0  0  0  0  0  0  0  0  0  0
    0.5696    1.1199   -2.7555 O   0  0  0  0  0  0  0  0  0  0  0  0
   -0.1634    2.2626   -2.8528 C   0  0  0  0  0  0  0  0  0  0  0  0
    0.0344    3.0269   -4.0026 C   0  0  0  0  0  0  0  0  0  0  0  0
   -0.6614    4.2263   -4.1757 C   0  0  0  0  0  0  0  0  0  0  0  0
   -1.5572    4.6565   -3.1969 C   0  0  0  0  0  0  0  0  0  0  0  0
   -2.4056    6.1372   -3.4090 Cl  0  0  0  0  0  0  0  0  0  0  0  0
   -1.7700    3.8942   -2.0519 C   0  0  0  0  0  0  0  0  0  0  0  0
   -1.0751    2.6906   -1.8972 C   0  0  0  0  0  0  0  0  0  0  0  0
   -1.2846    1.8501   -0.7140 C   0  0  0  0  0  0  0  0  0  0  0  0
   -1.7966    2.3375    0.2911 O   0  0  0  0  0  0  0  0  0  0  0  0
   -0.8003    0.4022   -0.8207 C   0  0  0  0  0  0  0  0  0  0  0  0
   -0.9871   -0.2999    0.5140 C   0  0  0  0  0  0  0  0  0  0  0  0
   -2.3621   -0.8398    0.2979 C   0  0  0  0  0  0  0  0  0  0  0  0
   -3.1955   -1.3553    1.4092 C   0  0  0  0  0  0  0  0  0  0  0  0
   -2.6948   -1.4673    2.7117 C   0  0  0  0  0  0  0  0  0  0  0  0
   -3.5107   -1.9617    3.7352 C   0  0  0  0  0  0  0  0  0  0  0  0
   -4.8223   -2.3446    3.4579 C   0  0  0  0  0  0  0  0  0  0  0  0
   -5.8198   -2.9519    4.7205 Cl  0  0  0  0  0  0  0  0  0  0  0  0
   -5.3278   -2.2394    2.1645 C   0  0  0  0  0  0  0  0  0  0  0  0
   -4.5147   -1.7461    1.1404 C   0  0  0  0  0  0  0  0  0  0  0  0
   -2.7451   -0.8518   -0.9389 N   0  0  0  0  0  0  0  0  0  0  0  0
   -1.7081   -0.2803   -1.7070 O   0  0  0  0  0  0  0  0  0  0  0  0
    6.1231   -1.3482    3.1996 H   0  0  0  0  0  0  0  0  0  0  0  0
    6.1918   -2.3844    1.7619 H   0  0  0  0  0  0  0  0  0  0  0  0
    5.0257   -2.7329    3.0477 H   0  0  0  0  0  0  0  0  0  0  0  0
    3.8516   -0.5894    2.5782 H   0  0  0  0  0  0  0  0  0  0  0  0
    5.0304   -0.2300    1.2841 H   0  0  0  0  0  0  0  0  0  0  0  0
    3.0945    0.8397    0.9614 H   0  0  0  0  0  0  0  0  0  0  0  0
    1.5258    0.1462    1.3093 H   0  0  0  0  0  0  0  0  0  0  0  0
    2.5431    1.3955   -1.2904 H   0  0  0  0  0  0  0  0  0  0  0  0
    1.3486    2.0849   -0.2293 H   0  0  0  0  0  0  0  0  0  0  0  0
    0.3786   -1.5548   -2.3779 H   0  0  0  0  0  0  0  0  0  0  0  0
    1.9212   -0.8136   -2.6610 H   0  0  0  0  0  0  0  0  0  0  0  0
    1.0717   -2.2928   -0.1559 H   0  0  0  0  0  0  0  0  0  0  0  0
    2.3782   -2.6020   -1.2643 H   0  0  0  0  0  0  0  0  0  0  0  0
    0.7351    2.6926   -4.7643 H   0  0  0  0  0  0  0  0  0  0  0  0
   -0.4995    4.8182   -5.0733 H   0  0  0  0  0  0  0  0  0  0  0  0
   -2.4753    4.2235   -1.2926 H   0  0  0  0  0  0  0  0  0  0  0  0
   -0.3382   -1.1570    0.6672 H   0  0  0  0  0  0  0  0  0  0  0  0
   -0.9214    0.3578    1.3834 H   0  0  0  0  0  0  0  0  0  0  0  0
   -1.6765   -1.1825    2.9579 H   0  0  0  0  0  0  0  0  0  0  0  0
   -3.1177   -2.0465    4.7454 H   0  0  0  0  0  0  0  0  0  0  0  0
   -6.3496   -2.5375    1.9441 H   0  0  0  0  0  0  0  0  0  0  0  0
   -4.9198   -1.6671    0.1328 H   0  0  0  0  0  0  0  0  0  0  0  0
  1  2  1  0
  2  3  1  0
  3  4  2  0
  3  5  1  0
  5  6  1  0
  6  7  1  0
  7  8  1  0
  8  9  1  0
  9 10  1  0
  8 11  1  0
 11 12  1  0
 12 13  2  0
 13 14  1  0
 14 15  2  0
 15 16  1  0
 15 17  1  0
 17 18  2  0
 18 19  1  0
 19 20  2  0
 19 21  1  0
 21 22  1  0
 22 23  1  0
 23 24  1  0
 24 25  2  0
 25 26  1  0
 26 27  2  0
 27 28  1  0
 27 29  1  0
 29 30  2  0
 23 31  2  0
 31 32  1  0
 10  5  1  0
 18 12  1  0
 32 21  1  0
 21  8  1  0
 30 24  1  0
  1 33  1  0
  1 34  1  0
  1 35  1  0
  2 36  1  0
  2 37  1  0
  6 38  1  0
  6 39  1  0
  7 40  1  0
  7 41  1  0
  9 42  1  0
  9 43  1  0
 10 44  1  0
 10 45  1  0
 13 46  1  0
 14 47  1  0
 17 48  1  0
 22 49  1  0
 22 50  1  0
 25 51  1  0
 26 52  1  0
 29 53  1  0
 30 54  1  0
M  END
$$$$
