
     RDKit          3D

 42 44  0  0  0  0  0  0  0  0999 V2000
   -5.6684    1.4558   -1.7422 C   0  0  0  0  0  0  0  0  0  0  0  0
   -4.4450    0.9672   -1.0242 C   0  0  0  0  0  0  0  0  0  0  0  0
   -3.4366    1.8572   -0.6383 C   0  0  0  0  0  0  0  0  0  0  0  0
   -2.2738    1.4027    0.0046 C   0  0  0  0  0  0  0  0  0  0  0  0
   -1.2226    2.4040    0.4092 C   0  0  0  0  0  0  0  0  0  0  0  0
   -2.1256    0.0225    0.2659 C   0  0  0  0  0  0  0  0  0  0  0  0
   -0.9306   -0.4656    0.9368 C   0  0  0  0  0  0  0  0  0  0  0  0
   -0.8478   -0.6305    2.3046 C   0  0  0  0  0  0  0  0  0  0  0  0
    0.7065   -1.2337    2.7062 S   0  0  0  0  0  0  0  0  0  0  0  0
    1.1333   -1.2120    1.0555 C   0  0  0  0  0  0  0  0  0  0  0  0
    2.3660   -1.5865    0.5936 N   0  0  0  0  0  0  0  0  0  0  0  0
    3.3919   -2.1324    1.3141 C   0  0  0  0  0  0  0  0  0  0  0  0
    3.4061   -2.4716    2.4888 O   0  0  0  0  0  0  0  0  0  0  0  0
    4.5858   -2.4387    0.4823 C   0  0  0  0  0  0  0  0  0  0  0  0
    5.2369   -1.6219   -0.3574 C   0  0  0  0  0  0  0  0  0  0  0  0
    4.9401   -0.2434   -0.5515 C   0  0  0  0  0  0  0  0  0  0  0  0
    4.6144    0.7473    0.3608 C   0  0  0  0  0  0  0  0  0  0  0  0
    4.4078    2.0201   -0.2480 C   0  0  0  0  0  0  0  0  0  0  0  0
    4.5956    1.9741   -1.6094 C   0  0  0  0  0  0  0  0  0  0  0  0
    5.0055    0.4050   -2.1474 S   0  0  0  0  0  0  0  0  0  0  0  0
    0.2104   -0.7876    0.2265 N   0  0  0  0  0  0  0  0  0  0  0  0
   -3.1242   -0.8884   -0.1451 C   0  0  0  0  0  0  0  0  0  0  0  0
   -2.9961   -2.3696    0.0892 C   0  0  0  0  0  0  0  0  0  0  0  0
   -4.2772   -0.4001   -0.7809 C   0  0  0  0  0  0  0  0  0  0  0  0
   -5.8065    2.5335   -1.6063 H   0  0  0  0  0  0  0  0  0  0  0  0
   -5.5796    1.2498   -2.8138 H   0  0  0  0  0  0  0  0  0  0  0  0
   -6.5649    0.9596   -1.3549 H   0  0  0  0  0  0  0  0  0  0  0  0
   -3.5558    2.9203   -0.8444 H   0  0  0  0  0  0  0  0  0  0  0  0
   -1.4521    3.4043    0.0228 H   0  0  0  0  0  0  0  0  0  0  0  0
   -0.2434    2.1207    0.0067 H   0  0  0  0  0  0  0  0  0  0  0  0
   -1.1649    2.4760    1.5003 H   0  0  0  0  0  0  0  0  0  0  0  0
   -1.5982   -0.4402    3.0583 H   0  0  0  0  0  0  0  0  0  0  0  0
    2.4720   -1.4407   -0.4002 H   0  0  0  0  0  0  0  0  0  0  0  0
    4.9446   -3.4560    0.6198 H   0  0  0  0  0  0  0  0  0  0  0  0
    6.0718   -2.0324   -0.9230 H   0  0  0  0  0  0  0  0  0  0  0  0
    4.5270    0.5789    1.4294 H   0  0  0  0  0  0  0  0  0  0  0  0
    4.1413    2.9215    0.2882 H   0  0  0  0  0  0  0  0  0  0  0  0
    4.5095    2.7880   -2.3171 H   0  0  0  0  0  0  0  0  0  0  0  0
   -3.7738   -2.9294   -0.4416 H   0  0  0  0  0  0  0  0  0  0  0  0
   -3.0954   -2.5927    1.1573 H   0  0  0  0  0  0  0  0  0  0  0  0
   -2.0320   -2.7395   -0.2750 H   0  0  0  0  0  0  0  0  0  0  0  0
   -5.0519   -1.0956   -1.0999 H   0  0  0  0  0  0  0  0  0  0  0  0
  1  2  1  0
  2  3  2  0
  3  4  1  0
  4  5  1  0
  4  6  2  0
  6  7  1  0
  7  8  2  0
  8  9  1  0
  9 10  1  0
 10 11  1  0
 11 12  1  0
 12 13  2  0
 12 14  1  0
 14 15  2  3
 15 16  1  0
 16 17  2  0
 17 18  1  0
 18 19  2  0
 19 20  1  0
 10 21  2  0
  6 22  1  0
 22 23  1  0
 22 24  2  0
 24  2  1  0
 21  7  1  0
 20 16  1  0
  1 25  1  0
  1 26  1  0
  1 27  1  0
  3 28  1  0
  5 29  1  0
  5 30  1  0
  5 31  1  0
  8 32  1  0
 11 33  1  0
 14 34  1  0
 15 35  1  0
 17 36  1  0
 18 37  1  0
 19 38  1  0
 23 39  1  0
 23 40  1  0
 23 41  1  0
 24 42  1  0
M  END
$$$$
