
     RDKit          3D

 58 61  0  0  0  0  0  0  0  0999 V2000
    1.6647   -2.1422   -0.7694 O   0  0  0  0  0  0  0  0  0  0  0  0
    1.7435   -1.4294    0.2282 C   0  0  0  0  0  0  0  0  0  0  0  0
    2.9896   -0.6789    0.6541 C   0  0  0  0  0  0  0  0  0  0  0  0
    4.1382   -0.8594   -0.3390 C   0  0  0  0  0  0  0  0  0  0  0  0
    5.3779   -0.0183    0.0141 C   0  0  0  0  0  0  0  0  0  0  0  0
    6.4413   -0.1326   -1.0849 C   0  0  0  0  0  0  0  0  0  0  0  0
    7.6235    0.8076   -0.8356 C   0  0  0  0  0  0  0  0  0  0  0  0
    7.8794    1.0897    0.6450 C   0  0  0  0  0  0  0  0  0  0  0  0
    7.4646   -0.0830    1.5207 C   0  0  0  0  0  0  0  0  0  0  0  0
    5.9739   -0.4064    1.3818 C   0  0  0  0  0  0  0  0  0  0  0  0
    0.6808   -1.2429    1.0965 N   0  0  0  0  0  0  0  0  0  0  0  0
   -0.5897   -1.6624    0.6228 N   0  0  0  0  0  0  0  0  0  0  0  0
   -1.5676   -0.6827    0.6091 C   0  0  0  0  0  0  0  0  0  0  0  0
   -1.4079    0.4161    1.1281 O   0  0  0  0  0  0  0  0  0  0  0  0
   -2.6996   -1.1130   -0.0366 N   0  0  0  0  0  0  0  0  0  0  0  0
   -3.9318   -0.3249   -0.1472 C   0  0  0  0  0  0  0  0  0  0  0  0
   -4.5574   -0.0450    1.2412 C   0  0  0  0  0  0  0  0  0  0  0  0
   -5.8774    0.7318    1.0929 C   0  0  0  0  0  0  0  0  0  0  0  0
   -6.8664   -0.1009    0.2617 C   0  0  0  0  0  0  0  0  0  0  0  0
   -6.2804   -0.3750   -1.1324 C   0  0  0  0  0  0  0  0  0  0  0  0
   -6.0118    0.9604   -1.8429 C   0  0  0  0  0  0  0  0  0  0  0  0
   -5.0169    1.7979   -1.0248 C   0  0  0  0  0  0  0  0  0  0  0  0
   -5.6040    2.0630    0.3720 C   0  0  0  0  0  0  0  0  0  0  0  0
   -3.6960    1.0214   -0.8789 C   0  0  0  0  0  0  0  0  0  0  0  0
   -4.9564   -1.1408   -0.9814 C   0  0  0  0  0  0  0  0  0  0  0  0
    2.7364    0.3842    0.7395 H   0  0  0  0  0  0  0  0  0  0  0  0
    3.2785   -1.0456    1.6451 H   0  0  0  0  0  0  0  0  0  0  0  0
    4.4106   -1.9209   -0.3970 H   0  0  0  0  0  0  0  0  0  0  0  0
    3.7899   -0.5779   -1.3410 H   0  0  0  0  0  0  0  0  0  0  0  0
    5.0640    1.0339    0.0644 H   0  0  0  0  0  0  0  0  0  0  0  0
    6.8073   -1.1664   -1.1297 H   0  0  0  0  0  0  0  0  0  0  0  0
    6.0116    0.0846   -2.0693 H   0  0  0  0  0  0  0  0  0  0  0  0
    8.5206    0.3716   -1.2913 H   0  0  0  0  0  0  0  0  0  0  0  0
    7.4535    1.7613   -1.3496 H   0  0  0  0  0  0  0  0  0  0  0  0
    8.9392    1.3230    0.7971 H   0  0  0  0  0  0  0  0  0  0  0  0
    7.3171    1.9817    0.9484 H   0  0  0  0  0  0  0  0  0  0  0  0
    8.0529   -0.9656    1.2394 H   0  0  0  0  0  0  0  0  0  0  0  0
    7.6991    0.1245    2.5707 H   0  0  0  0  0  0  0  0  0  0  0  0
    5.4185    0.1216    2.1677 H   0  0  0  0  0  0  0  0  0  0  0  0
    5.8358   -1.4774    1.5772 H   0  0  0  0  0  0  0  0  0  0  0  0
    0.6464   -0.3878    1.6541 H   0  0  0  0  0  0  0  0  0  0  0  0
   -0.5254   -2.2240   -0.2262 H   0  0  0  0  0  0  0  0  0  0  0  0
   -2.8153   -2.1168   -0.0087 H   0  0  0  0  0  0  0  0  0  0  0  0
   -3.8697    0.5327    1.8705 H   0  0  0  0  0  0  0  0  0  0  0  0
   -4.7375   -0.9895    1.7711 H   0  0  0  0  0  0  0  0  0  0  0  0
   -6.3025    0.9286    2.0835 H   0  0  0  0  0  0  0  0  0  0  0  0
   -7.8201    0.4328    0.1692 H   0  0  0  0  0  0  0  0  0  0  0  0
   -7.0799   -1.0483    0.7718 H   0  0  0  0  0  0  0  0  0  0  0  0
   -6.9879   -0.9705   -1.7202 H   0  0  0  0  0  0  0  0  0  0  0  0
   -5.6109    0.7771   -2.8473 H   0  0  0  0  0  0  0  0  0  0  0  0
   -6.9510    1.5125   -1.9708 H   0  0  0  0  0  0  0  0  0  0  0  0
   -4.8301    2.7501   -1.5340 H   0  0  0  0  0  0  0  0  0  0  0  0
   -4.9081    2.6725    0.9617 H   0  0  0  0  0  0  0  0  0  0  0  0
   -6.5340    2.6377    0.2830 H   0  0  0  0  0  0  0  0  0  0  0  0
   -2.9782    1.6460   -0.3353 H   0  0  0  0  0  0  0  0  0  0  0  0
   -3.2570    0.8407   -1.8688 H   0  0  0  0  0  0  0  0  0  0  0  0
   -4.5417   -1.3654   -1.9731 H   0  0  0  0  0  0  0  0  0  0  0  0
   -5.1462   -2.1110   -0.5031 H   0  0  0  0  0  0  0  0  0  0  0  0
  1  2  2  0
  2  3  1  0
  3  4  1  0
  4  5  1  0
  5  6  1  0
  6  7  1  0
  7  8  1  0
  8  9  1  0
  9 10  1  0
  2 11  1  0
 11 12  1  0
 12 13  1  0
 13 14  2  0
 13 15  1  0
 15 16  1  0
 16 17  1  0
 17 18  1  0
 18 19  1  0
 19 20  1  0
 20 21  1  0
 21 22  1  0
 22 23  1  0
 22 24  1  0
 20 25  1  0
 10  5  1  0
 24 16  1  0
 25 16  1  0
 23 18  1  0
  3 26  1  0
  3 27  1  0
  4 28  1  0
  4 29  1  0
  5 30  1  0
  6 31  1  0
  6 32  1  0
  7 33  1  0
  7 34  1  0
  8 35  1  0
  8 36  1  0
  9 37  1  0
  9 38  1  0
 10 39  1  0
 10 40  1  0
 11 41  1  0
 12 42  1  0
 15 43  1  0
 17 44  1  0
 17 45  1  0
 18 46  1  0
 19 47  1  0
 19 48  1  0
 20 49  1  0
 21 50  1  0
 21 51  1  0
 22 52  1  0
 23 53  1  0
 23 54  1  0
 24 55  1  0
 24 56  1  0
 25 57  1  0
 25 58  1  0
M  END
$$$$
