
     RDKit          3D

 47 50  0  0  0  0  0  0  0  0999 V2000
    7.4465   -1.3138    0.6852 C   0  0  0  0  0  0  0  0  0  0  0  0
    6.5760   -0.2966    0.7366 C   0  0  0  0  0  0  0  0  0  0  0  0
    6.0197    0.4099   -0.4697 C   0  0  0  0  0  0  0  0  0  0  0  0
    4.6320    0.0097   -0.6533 N   0  0  0  0  0  0  0  0  0  0  0  0
    4.3784   -1.0459   -1.5062 C   0  0  0  0  0  0  0  0  0  0  0  0
    5.2391   -1.6346   -2.1585 O   0  0  0  0  0  0  0  0  0  0  0  0
    3.0791   -1.4349   -1.6346 N   0  0  0  0  0  0  0  0  0  0  0  0
    1.9721   -0.8441   -1.1007 C   0  0  0  0  0  0  0  0  0  0  0  0
    0.8572   -1.2417   -1.4125 O   0  0  0  0  0  0  0  0  0  0  0  0
    2.2524    0.2740   -0.1742 C   0  0  0  0  0  0  0  0  0  0  0  0
    1.3007    0.9451    0.5065 C   0  0  0  0  0  0  0  0  0  0  0  0
   -0.1441    0.7062    0.4844 C   0  0  0  0  0  0  0  0  0  0  0  0
   -0.7102   -0.2996    1.2674 C   0  0  0  0  0  0  0  0  0  0  0  0
   -2.0978   -0.5200    1.2521 C   0  0  0  0  0  0  0  0  0  0  0  0
   -2.9471    0.2928    0.4743 C   0  0  0  0  0  0  0  0  0  0  0  0
   -2.3637    1.3158   -0.3005 C   0  0  0  0  0  0  0  0  0  0  0  0
   -0.9716    1.5078   -0.3019 C   0  0  0  0  0  0  0  0  0  0  0  0
   -3.2230    2.1966   -1.1721 C   0  0  0  0  0  0  0  0  0  0  0  0
   -4.6593    2.2360   -0.6708 C   0  0  0  0  0  0  0  0  0  0  0  0
   -5.1676    0.8175   -0.4661 C   0  0  0  0  0  0  0  0  0  0  0  0
   -4.3218    0.0951    0.4751 N   0  0  0  0  0  0  0  0  0  0  0  0
   -4.9289   -0.8995    1.3504 C   0  0  0  0  0  0  0  0  0  0  0  0
   -4.0098   -2.0949    1.5469 C   0  0  0  0  0  0  0  0  0  0  0  0
   -2.6724   -1.6254    2.1004 C   0  0  0  0  0  0  0  0  0  0  0  0
    3.6602    0.7133    0.0416 C   0  0  0  0  0  0  0  0  0  0  0  0
    3.9262    1.6496    0.7962 O   0  0  0  0  0  0  0  0  0  0  0  0
    7.7970   -1.7164   -0.2618 H   0  0  0  0  0  0  0  0  0  0  0  0
    7.8205   -1.7744    1.5953 H   0  0  0  0  0  0  0  0  0  0  0  0
    6.2537    0.0760    1.7076 H   0  0  0  0  0  0  0  0  0  0  0  0
    6.0879    1.4934   -0.3173 H   0  0  0  0  0  0  0  0  0  0  0  0
    6.6057    0.1779   -1.3664 H   0  0  0  0  0  0  0  0  0  0  0  0
    2.9062   -2.1889   -2.2844 H   0  0  0  0  0  0  0  0  0  0  0  0
    1.5744    1.7679    1.1671 H   0  0  0  0  0  0  0  0  0  0  0  0
   -0.0754   -0.9288    1.8863 H   0  0  0  0  0  0  0  0  0  0  0  0
   -0.5406    2.2932   -0.9184 H   0  0  0  0  0  0  0  0  0  0  0  0
   -3.1925    1.8084   -2.1979 H   0  0  0  0  0  0  0  0  0  0  0  0
   -2.8254    3.2184   -1.1883 H   0  0  0  0  0  0  0  0  0  0  0  0
   -4.7077    2.7865    0.2782 H   0  0  0  0  0  0  0  0  0  0  0  0
   -5.2932    2.7682   -1.3888 H   0  0  0  0  0  0  0  0  0  0  0  0
   -6.1976    0.8636   -0.0926 H   0  0  0  0  0  0  0  0  0  0  0  0
   -5.1940    0.2769   -1.4205 H   0  0  0  0  0  0  0  0  0  0  0  0
   -5.1599   -0.4336    2.3164 H   0  0  0  0  0  0  0  0  0  0  0  0
   -5.8783   -1.2506    0.9285 H   0  0  0  0  0  0  0  0  0  0  0  0
   -4.4671   -2.8174    2.2320 H   0  0  0  0  0  0  0  0  0  0  0  0
   -3.8581   -2.6064    0.5871 H   0  0  0  0  0  0  0  0  0  0  0  0
   -2.7946   -1.2543    3.1254 H   0  0  0  0  0  0  0  0  0  0  0  0
   -1.9833   -2.4778    2.1318 H   0  0  0  0  0  0  0  0  0  0  0  0
  1  2  2  0
  2  3  1  0
  3  4  1  0
  4  5  1  0
  5  6  2  0
  5  7  1  0
  7  8  1  0
  8  9  2  0
  8 10  1  0
 10 11  2  3
 11 12  1  0
 12 13  2  0
 13 14  1  0
 14 15  2  0
 15 16  1  0
 16 17  2  0
 16 18  1  0
 18 19  1  0
 19 20  1  0
 20 21  1  0
 21 22  1  0
 22 23  1  0
 23 24  1  0
 10 25  1  0
 25 26  2  0
 25  4  1  0
 17 12  1  0
 24 14  1  0
 21 15  1  0
  1 27  1  0
  1 28  1  0
  2 29  1  0
  3 30  1  0
  3 31  1  0
  7 32  1  0
 11 33  1  0
 13 34  1  0
 17 35  1  0
 18 36  1  0
 18 37  1  0
 19 38  1  0
 19 39  1  0
 20 40  1  0
 20 41  1  0
 22 42  1  0
 22 43  1  0
 23 44  1  0
 23 45  1  0
 24 46  1  0
 24 47  1  0
M  END
$$$$
