
     RDKit          3D

 40 42  0  0  0  0  0  0  0  0999 V2000
    2.3751   -3.5393    0.7488 C   0  0  0  0  0  0  0  0  0  0  0  0
    1.8718   -2.2355    0.4454 O   0  0  0  0  0  0  0  0  0  0  0  0
    0.5027   -2.1750    0.3803 C   0  0  0  0  0  0  0  0  0  0  0  0
   -0.2202   -3.1469    0.5651 O   0  0  0  0  0  0  0  0  0  0  0  0
   -0.0099   -0.8331    0.0700 C   0  0  0  0  0  0  0  0  0  0  0  0
    0.7715    0.3074   -0.1073 C   0  0  0  0  0  0  0  0  0  0  0  0
    2.1575    0.3835   -0.0420 N   0  0  0  0  0  0  0  0  0  0  0  0
    2.9677    1.5005   -0.2039 C   0  0  0  0  0  0  0  0  0  0  0  0
    2.5668    2.6363   -0.4355 O   0  0  0  0  0  0  0  0  0  0  0  0
    4.3926    1.2065   -0.0690 C   0  0  0  0  0  0  0  0  0  0  0  0
    5.1207    0.0444    0.1407 C   0  0  0  0  0  0  0  0  0  0  0  0
    6.4896    0.4114    0.1783 C   0  0  0  0  0  0  0  0  0  0  0  0
    6.5241    1.7706   -0.0083 C   0  0  0  0  0  0  0  0  0  0  0  0
    5.2695    2.2591   -0.1594 O   0  0  0  0  0  0  0  0  0  0  0  0
   -0.1622    1.6917   -0.4251 S   0  0  0  0  0  0  0  0  0  0  0  0
   -1.6178    0.8340   -0.3314 C   0  0  0  0  0  0  0  0  0  0  0  0
   -1.4147   -0.5090   -0.0871 C   0  0  0  0  0  0  0  0  0  0  0  0
   -2.5921   -1.4357    0.0221 C   0  0  0  0  0  0  0  0  0  0  0  0
   -3.8405   -0.8194   -0.6284 C   0  0  0  0  0  0  0  0  0  0  0  0
   -4.0425    0.5860   -0.2442 N   0  0  0  0  0  0  0  0  0  0  0  0
   -5.3477    1.0245   -0.0522 C   0  0  0  0  0  0  0  0  0  0  0  0
   -5.5505    2.4996    0.1919 C   0  0  0  0  0  0  0  0  0  0  0  0
   -6.3159    0.2640   -0.0619 O   0  0  0  0  0  0  0  0  0  0  0  0
   -2.9372    1.5167   -0.5178 C   0  0  0  0  0  0  0  0  0  0  0  0
    2.0050   -3.8786    1.7212 H   0  0  0  0  0  0  0  0  0  0  0  0
    3.4658   -3.4760    0.7979 H   0  0  0  0  0  0  0  0  0  0  0  0
    2.1060   -4.2463   -0.0418 H   0  0  0  0  0  0  0  0  0  0  0  0
    2.6130   -0.4984    0.1561 H   0  0  0  0  0  0  0  0  0  0  0  0
    4.7299   -0.9566    0.2506 H   0  0  0  0  0  0  0  0  0  0  0  0
    7.3456   -0.2335    0.3220 H   0  0  0  0  0  0  0  0  0  0  0  0
    7.3188    2.5027   -0.0578 H   0  0  0  0  0  0  0  0  0  0  0  0
   -2.7871   -1.6240    1.0848 H   0  0  0  0  0  0  0  0  0  0  0  0
   -2.3852   -2.3954   -0.4617 H   0  0  0  0  0  0  0  0  0  0  0  0
   -3.7491   -0.8371   -1.7223 H   0  0  0  0  0  0  0  0  0  0  0  0
   -4.7134   -1.4280   -0.3694 H   0  0  0  0  0  0  0  0  0  0  0  0
   -5.0387    2.8035    1.1087 H   0  0  0  0  0  0  0  0  0  0  0  0
   -6.6191    2.7015    0.3156 H   0  0  0  0  0  0  0  0  0  0  0  0
   -5.1933    3.0812   -0.6617 H   0  0  0  0  0  0  0  0  0  0  0  0
   -3.0094    2.3828    0.1467 H   0  0  0  0  0  0  0  0  0  0  0  0
   -3.0473    1.8601   -1.5529 H   0  0  0  0  0  0  0  0  0  0  0  0
  1  2  1  0
  2  3  1  0
  3  4  2  0
  3  5  1  0
  5  6  2  0
  6  7  1  0
  7  8  1  0
  8  9  2  0
  8 10  1  0
 10 11  2  0
 11 12  1  0
 12 13  2  0
 13 14  1  0
  6 15  1  0
 15 16  1  0
 16 17  2  0
 17 18  1  0
 18 19  1  0
 19 20  1  0
 20 21  1  0
 21 22  1  0
 21 23  2  0
 20 24  1  0
 17  5  1  0
 14 10  1  0
 24 16  1  0
  1 25  1  0
  1 26  1  0
  1 27  1  0
  7 28  1  0
 11 29  1  0
 12 30  1  0
 13 31  1  0
 18 32  1  0
 18 33  1  0
 19 34  1  0
 19 35  1  0
 22 36  1  0
 22 37  1  0
 22 38  1  0
 24 39  1  0
 24 40  1  0
M  END
$$$$
