
     RDKit          3D

 47 49  0  0  0  0  0  0  0  0999 V2000
    3.7439    0.5417   -2.0922 C   0  0  0  0  0  0  0  0  0  0  0  0
    3.8640   -0.2849   -0.8399 C   0  0  0  0  0  0  0  0  0  0  0  0
    3.2620    0.1837    0.3426 C   0  0  0  0  0  0  0  0  0  0  0  0
    3.3392   -0.5531    1.5239 C   0  0  0  0  0  0  0  0  0  0  0  0
    2.7742   -0.2133    2.7231 O   0  0  0  0  0  0  0  0  0  0  0  0
    2.3709    1.1462    2.9215 C   0  0  0  0  0  0  0  0  0  0  0  0
    0.9736    1.3192    2.4650 C   0  0  0  0  0  0  0  0  0  0  0  0
   -0.1210    0.4988    2.3452 C   0  0  0  0  0  0  0  0  0  0  0  0
   -1.1463    1.3233    1.7985 C   0  0  0  0  0  0  0  0  0  0  0  0
   -2.5215    0.8817    1.4928 C   0  0  0  0  0  0  0  0  0  0  0  0
   -2.9211   -0.1877    1.9652 O   0  0  0  0  0  0  0  0  0  0  0  0
   -3.3641    1.6679    0.6900 N   0  0  0  0  0  0  0  0  0  0  0  0
   -2.9036    2.8036   -0.0981 C   0  0  0  0  0  0  0  0  0  0  0  0
   -4.6400    1.0739    0.2922 C   0  0  0  0  0  0  0  0  0  0  0  0
   -4.5865    0.2369   -0.9785 C   0  0  0  0  0  0  0  0  0  0  0  0
   -5.7258   -0.4670   -1.3701 C   0  0  0  0  0  0  0  0  0  0  0  0
   -5.6911   -1.2144   -2.5443 C   0  0  0  0  0  0  0  0  0  0  0  0
   -4.5215   -1.2494   -3.2950 C   0  0  0  0  0  0  0  0  0  0  0  0
   -3.4302   -0.5302   -2.8371 C   0  0  0  0  0  0  0  0  0  0  0  0
   -3.4407    0.2167   -1.7115 N   0  0  0  0  0  0  0  0  0  0  0  0
   -0.6856    2.5776    1.6452 N   0  0  0  0  0  0  0  0  0  0  0  0
    0.6326    2.5670    2.0505 O   0  0  0  0  0  0  0  0  0  0  0  0
    4.0152   -1.7751    1.5232 C   0  0  0  0  0  0  0  0  0  0  0  0
    4.6378   -2.2662    0.3637 C   0  0  0  0  0  0  0  0  0  0  0  0
    5.3488   -3.5907    0.4266 C   0  0  0  0  0  0  0  0  0  0  0  0
    4.5470   -1.5166   -0.8228 C   0  0  0  0  0  0  0  0  0  0  0  0
    5.2732   -2.1167   -2.2806 Cl  0  0  0  0  0  0  0  0  0  0  0  0
    3.1751    0.0006   -2.8576 H   0  0  0  0  0  0  0  0  0  0  0  0
    4.7360    0.7956   -2.4801 H   0  0  0  0  0  0  0  0  0  0  0  0
    3.2217    1.4865   -1.9021 H   0  0  0  0  0  0  0  0  0  0  0  0
    2.7183    1.1233    0.3043 H   0  0  0  0  0  0  0  0  0  0  0  0
    2.4127    1.3353    3.9998 H   0  0  0  0  0  0  0  0  0  0  0  0
    3.0681    1.8522    2.4516 H   0  0  0  0  0  0  0  0  0  0  0  0
   -0.1848   -0.5521    2.5914 H   0  0  0  0  0  0  0  0  0  0  0  0
   -3.6843    3.1364   -0.7903 H   0  0  0  0  0  0  0  0  0  0  0  0
   -2.0142    2.5274   -0.6725 H   0  0  0  0  0  0  0  0  0  0  0  0
   -2.6804    3.6371    0.5742 H   0  0  0  0  0  0  0  0  0  0  0  0
   -5.0178    0.4442    1.1061 H   0  0  0  0  0  0  0  0  0  0  0  0
   -5.3625    1.8885    0.1564 H   0  0  0  0  0  0  0  0  0  0  0  0
   -6.6276   -0.4493   -0.7646 H   0  0  0  0  0  0  0  0  0  0  0  0
   -6.5645   -1.7788   -2.8584 H   0  0  0  0  0  0  0  0  0  0  0  0
   -4.4556   -1.8338   -4.2060 H   0  0  0  0  0  0  0  0  0  0  0  0
   -2.4847   -0.5435   -3.3746 H   0  0  0  0  0  0  0  0  0  0  0  0
    4.0577   -2.3497    2.4465 H   0  0  0  0  0  0  0  0  0  0  0  0
    5.4771   -3.9195    1.4631 H   0  0  0  0  0  0  0  0  0  0  0  0
    4.7741   -4.3572   -0.1023 H   0  0  0  0  0  0  0  0  0  0  0  0
    6.3522   -3.5161   -0.0050 H   0  0  0  0  0  0  0  0  0  0  0  0
  1  2  1  0
  2  3  2  0
  3  4  1  0
  4  5  1  0
  5  6  1  0
  6  7  1  0
  7  8  2  0
  8  9  1  0
  9 10  1  0
 10 11  2  0
 10 12  1  0
 12 13  1  0
 12 14  1  0
 14 15  1  0
 15 16  2  0
 16 17  1  0
 17 18  2  0
 18 19  1  0
 19 20  2  0
  9 21  2  0
 21 22  1  0
  4 23  2  0
 23 24  1  0
 24 25  1  0
 24 26  2  0
 26 27  1  0
 26  2  1  0
 22  7  1  0
 20 15  1  0
  1 28  1  0
  1 29  1  0
  1 30  1  0
  3 31  1  0
  6 32  1  0
  6 33  1  0
  8 34  1  0
 13 35  1  0
 13 36  1  0
 13 37  1  0
 14 38  1  0
 14 39  1  0
 16 40  1  0
 17 41  1  0
 18 42  1  0
 19 43  1  0
 23 44  1  0
 25 45  1  0
 25 46  1  0
 25 47  1  0
M  END
$$$$
