
     RDKit          3D

 42 44  0  0  0  0  0  0  0  0999 V2000
   -3.9456    3.4999    4.4442 C   0  0  0  0  0  0  0  0  0  0  0  0
   -4.1712    2.3364    3.4874 C   0  0  0  0  0  0  0  0  0  0  0  0
   -3.5870    1.0140    3.9965 C   0  0  0  0  0  0  0  0  0  0  0  0
   -2.0570    0.9647    4.0667 C   0  0  0  0  0  0  0  0  0  0  0  0
   -1.3970    0.9720    2.7109 C   0  0  0  0  0  0  0  0  0  0  0  0
   -1.3978   -0.1842    1.9221 C   0  0  0  0  0  0  0  0  0  0  0  0
   -0.8077   -0.1807    0.6557 C   0  0  0  0  0  0  0  0  0  0  0  0
   -0.2193    0.9839    0.1474 C   0  0  0  0  0  0  0  0  0  0  0  0
    0.3614    0.9628   -1.1876 C   0  0  0  0  0  0  0  0  0  0  0  0
    0.2483    1.9973   -2.0995 C   0  0  0  0  0  0  0  0  0  0  0  0
    1.0006    1.5561   -3.5693 S   0  0  0  0  0  0  0  0  0  0  0  0
    1.4316    0.0091   -2.9032 C   0  0  0  0  0  0  0  0  0  0  0  0
    2.1559   -0.9511   -3.6845 C   0  0  0  0  0  0  0  0  0  0  0  0
    1.8145   -1.1436   -5.0611 C   0  0  0  0  0  0  0  0  0  0  0  0
    1.5073   -1.3208   -6.1693 N   0  0  0  0  0  0  0  0  0  0  0  0
    3.1183   -1.6532   -3.0478 C   0  0  0  0  0  0  0  0  0  0  0  0
    3.9381   -2.6590   -3.6360 C   0  0  0  0  0  0  0  0  0  0  0  0
    3.6619   -3.6559   -4.5674 C   0  0  0  0  0  0  0  0  0  0  0  0
    4.8534   -4.3938   -4.7860 C   0  0  0  0  0  0  0  0  0  0  0  0
    5.7968   -3.8318   -3.9684 C   0  0  0  0  0  0  0  0  0  0  0  0
    5.2646   -2.8067   -3.2653 O   0  0  0  0  0  0  0  0  0  0  0  0
    1.0425   -0.1508   -1.6514 N   0  0  0  0  0  0  0  0  0  0  0  0
   -0.2101    2.1394    0.9372 C   0  0  0  0  0  0  0  0  0  0  0  0
   -0.7917    2.1305    2.2104 C   0  0  0  0  0  0  0  0  0  0  0  0
   -2.8853    3.7391    4.5440 H   0  0  0  0  0  0  0  0  0  0  0  0
   -4.3436    3.2702    5.4358 H   0  0  0  0  0  0  0  0  0  0  0  0
   -4.4545    4.3958    4.0763 H   0  0  0  0  0  0  0  0  0  0  0  0
   -5.2520    2.2082    3.3521 H   0  0  0  0  0  0  0  0  0  0  0  0
   -3.7641    2.5863    2.5012 H   0  0  0  0  0  0  0  0  0  0  0  0
   -3.9529    0.2035    3.3533 H   0  0  0  0  0  0  0  0  0  0  0  0
   -3.9879    0.8145    4.9983 H   0  0  0  0  0  0  0  0  0  0  0  0
   -1.6699    1.7822    4.6840 H   0  0  0  0  0  0  0  0  0  0  0  0
   -1.7573    0.0440    4.5828 H   0  0  0  0  0  0  0  0  0  0  0  0
   -1.8612   -1.0969    2.2873 H   0  0  0  0  0  0  0  0  0  0  0  0
   -0.8207   -1.0906    0.0614 H   0  0  0  0  0  0  0  0  0  0  0  0
   -0.2482    2.9541   -1.9906 H   0  0  0  0  0  0  0  0  0  0  0  0
    3.3523   -1.4241   -2.0065 H   0  0  0  0  0  0  0  0  0  0  0  0
    2.7048   -3.8432   -5.0344 H   0  0  0  0  0  0  0  0  0  0  0  0
    4.9993   -5.2342   -5.4486 H   0  0  0  0  0  0  0  0  0  0  0  0
    6.8424   -4.0409   -3.7686 H   0  0  0  0  0  0  0  0  0  0  0  0
    0.2592    3.0531    0.5812 H   0  0  0  0  0  0  0  0  0  0  0  0
   -0.7711    3.0378    2.8091 H   0  0  0  0  0  0  0  0  0  0  0  0
  1  2  1  0
  2  3  1  0
  3  4  1  0
  4  5  1  0
  5  6  2  0
  6  7  1  0
  7  8  2  0
  8  9  1  0
  9 10  2  0
 10 11  1  0
 11 12  1  0
 12 13  1  0
 13 14  1  0
 14 15  3  0
 13 16  2  3
 16 17  1  0
 17 18  2  0
 18 19  1  0
 19 20  2  0
 20 21  1  0
 12 22  2  0
  8 23  1  0
 23 24  2  0
 24  5  1  0
 22  9  1  0
 21 17  1  0
  1 25  1  0
  1 26  1  0
  1 27  1  0
  2 28  1  0
  2 29  1  0
  3 30  1  0
  3 31  1  0
  4 32  1  0
  4 33  1  0
  6 34  1  0
  7 35  1  0
 10 36  1  0
 16 37  1  0
 18 38  1  0
 19 39  1  0
 20 40  1  0
 23 41  1  0
 24 42  1  0
M  END
$$$$
