
     RDKit          3D

 48 51  0  0  0  0  0  0  0  0999 V2000
   -7.5494   -2.5006   -0.3120 C   0  0  0  0  0  0  0  0  0  0  0  0
   -6.4320   -1.4972   -0.3199 C   0  0  0  0  0  0  0  0  0  0  0  0
   -6.6934   -0.1861   -0.6993 C   0  0  0  0  0  0  0  0  0  0  0  0
   -5.6631    0.7702   -0.7093 C   0  0  0  0  0  0  0  0  0  0  0  0
   -5.9911    2.1802   -1.1141 C   0  0  0  0  0  0  0  0  0  0  0  0
   -4.3621    0.3268   -0.3384 C   0  0  0  0  0  0  0  0  0  0  0  0
   -3.0732    0.9700   -0.2404 C   0  0  0  0  0  0  0  0  0  0  0  0
   -2.8467    2.2731   -0.5386 N   0  0  0  0  0  0  0  0  0  0  0  0
   -2.0650    0.1275    0.2002 C   0  0  0  0  0  0  0  0  0  0  0  0
   -0.6551    0.4492    0.3998 C   0  0  0  0  0  0  0  0  0  0  0  0
   -0.1697    1.5441    0.1046 O   0  0  0  0  0  0  0  0  0  0  0  0
    0.1263   -0.5619    0.9556 N   0  0  0  0  0  0  0  0  0  0  0  0
    1.5358   -0.4712    0.8104 N   0  0  0  0  0  0  0  0  0  0  0  0
    2.1924    0.2738    1.8696 C   0  0  0  0  0  0  0  0  0  0  0  0
    3.5914    0.6975    1.4234 C   0  0  0  0  0  0  0  0  0  0  0  0
    4.1238    1.6864    1.9278 O   0  0  0  0  0  0  0  0  0  0  0  0
    4.2249   -0.2000    0.5420 N   0  0  0  0  0  0  0  0  0  0  0  0
    5.5460    0.0700    0.0368 C   0  0  0  0  0  0  0  0  0  0  0  0
    5.9390    1.3875   -0.2489 C   0  0  0  0  0  0  0  0  0  0  0  0
    7.2077    1.6732   -0.7693 C   0  0  0  0  0  0  0  0  0  0  0  0
    8.1128    0.6458   -1.0174 C   0  0  0  0  0  0  0  0  0  0  0  0
    7.7485   -0.6677   -0.7424 C   0  0  0  0  0  0  0  0  0  0  0  0
    6.4825   -0.9463   -0.2241 C   0  0  0  0  0  0  0  0  0  0  0  0
    6.2119   -2.2283    0.0676 F   0  0  0  0  0  0  0  0  0  0  0  0
    3.6849   -1.5630    0.4321 C   0  0  0  0  0  0  0  0  0  0  0  0
    2.1655   -1.5939    0.2940 C   0  0  0  0  0  0  0  0  0  0  0  0
    1.5467   -2.5667   -0.1350 O   0  0  0  0  0  0  0  0  0  0  0  0
   -2.6672   -1.4484    0.4856 S   0  0  0  0  0  0  0  0  0  0  0  0
   -4.2439   -1.0109    0.0280 C   0  0  0  0  0  0  0  0  0  0  0  0
   -5.2192   -1.9404    0.0545 N   0  0  0  0  0  0  0  0  0  0  0  0
   -7.1880   -3.4850    0.0027 H   0  0  0  0  0  0  0  0  0  0  0  0
   -8.3337   -2.1872    0.3841 H   0  0  0  0  0  0  0  0  0  0  0  0
   -7.9758   -2.5993   -1.3152 H   0  0  0  0  0  0  0  0  0  0  0  0
   -7.7041    0.0966   -0.9837 H   0  0  0  0  0  0  0  0  0  0  0  0
   -7.0712    2.3316   -1.2135 H   0  0  0  0  0  0  0  0  0  0  0  0
   -5.6338    2.8860   -0.3580 H   0  0  0  0  0  0  0  0  0  0  0  0
   -5.5289    2.4099   -2.0789 H   0  0  0  0  0  0  0  0  0  0  0  0
   -1.8805    2.6134   -0.5795 H   0  0  0  0  0  0  0  0  0  0  0  0
   -3.4592    2.7945   -1.1554 H   0  0  0  0  0  0  0  0  0  0  0  0
   -0.2450   -1.5111    0.8896 H   0  0  0  0  0  0  0  0  0  0  0  0
    2.2831   -0.3599    2.7584 H   0  0  0  0  0  0  0  0  0  0  0  0
    1.6140    1.1735    2.1010 H   0  0  0  0  0  0  0  0  0  0  0  0
    5.2575    2.2215   -0.0953 H   0  0  0  0  0  0  0  0  0  0  0  0
    7.4819    2.7044   -0.9812 H   0  0  0  0  0  0  0  0  0  0  0  0
    9.0978    0.8695   -1.4187 H   0  0  0  0  0  0  0  0  0  0  0  0
    8.4446   -1.4822   -0.9179 H   0  0  0  0  0  0  0  0  0  0  0  0
    3.9688   -2.1311    1.3239 H   0  0  0  0  0  0  0  0  0  0  0  0
    4.0636   -2.0377   -0.4787 H   0  0  0  0  0  0  0  0  0  0  0  0
  1  2  1  0
  2  3  2  0
  3  4  1  0
  4  5  1  0
  4  6  2  0
  6  7  1  0
  7  8  1  0
  7  9  2  0
  9 10  1  0
 10 11  2  0
 10 12  1  0
 12 13  1  0
 13 14  1  0
 14 15  1  0
 15 16  2  0
 15 17  1  0
 17 18  1  0
 18 19  2  0
 19 20  1  0
 20 21  2  0
 21 22  1  0
 22 23  2  0
 23 24  1  0
 17 25  1  0
 25 26  1  0
 26 27  2  0
  9 28  1  0
 28 29  1  0
 29 30  2  0
 30  2  1  0
 29  6  1  0
 26 13  1  0
 23 18  1  0
  1 31  1  0
  1 32  1  0
  1 33  1  0
  3 34  1  0
  5 35  1  0
  5 36  1  0
  5 37  1  0
  8 38  1  0
  8 39  1  0
 12 40  1  0
 14 41  1  0
 14 42  1  0
 19 43  1  0
 20 44  1  0
 21 45  1  0
 22 46  1  0
 25 47  1  0
 25 48  1  0
M  END
$$$$
