
     RDKit          3D

 61 65  0  0  0  0  0  0  0  0999 V2000
   -8.1132   -0.1245    2.8993 C   0  0  0  0  0  0  0  0  0  0  0  0
   -7.2982   -0.3620    1.6607 C   0  0  0  0  0  0  0  0  0  0  0  0
   -7.6063    0.2766    0.4553 C   0  0  0  0  0  0  0  0  0  0  0  0
   -6.8207    0.0651   -0.6816 C   0  0  0  0  0  0  0  0  0  0  0  0
   -5.7192   -0.7982   -0.6337 C   0  0  0  0  0  0  0  0  0  0  0  0
   -4.8680   -1.0206   -1.8589 C   0  0  0  0  0  0  0  0  0  0  0  0
   -3.8743    0.0249   -2.0272 N   0  0  0  0  0  0  0  0  0  0  0  0
   -4.0212    0.9722   -2.9848 N   0  0  0  0  0  0  0  0  0  0  0  0
   -2.9345    1.7469   -2.9555 N   0  0  0  0  0  0  0  0  0  0  0  0
   -2.1105    1.2585   -1.9874 C   0  0  0  0  0  0  0  0  0  0  0  0
   -0.8119    1.6911   -1.5392 C   0  0  0  0  0  0  0  0  0  0  0  0
   -0.1558    2.6114   -2.0076 O   0  0  0  0  0  0  0  0  0  0  0  0
   -0.3351    0.9117   -0.4969 N   0  0  0  0  0  0  0  0  0  0  0  0
   -0.9992   -0.1957    0.0222 C   0  0  0  0  0  0  0  0  0  0  0  0
   -0.2791   -0.9678    1.1226 C   0  0  0  0  0  0  0  0  0  0  0  0
    0.7898   -1.8778    0.5176 C   0  0  0  0  0  0  0  0  0  0  0  0
    1.9899   -1.1213   -0.0529 C   0  0  0  0  0  0  0  0  0  0  0  0
    2.1923    0.2059    0.6358 N   0  0  0  0  0  0  0  0  0  0  0  0
    3.8258    0.8018    0.4520 S   0  0  0  0  0  6  0  0  0  0  0  0
    4.6658   -0.2818    0.9239 O   0  0  0  0  0  0  0  0  0  0  0  0
    3.8488    2.0915    1.1101 O   0  0  0  0  0  0  0  0  0  0  0  0
    3.9902    1.0674   -1.2528 C   0  0  0  0  0  0  0  0  0  0  0  0
    5.1396    0.9095   -1.9359 C   0  0  0  0  0  0  0  0  0  0  0  0
    6.4330    0.4834   -1.3959 C   0  0  0  0  0  0  0  0  0  0  0  0
    6.9513   -0.7592   -1.7682 C   0  0  0  0  0  0  0  0  0  0  0  0
    8.1607   -1.2068   -1.2303 C   0  0  0  0  0  0  0  0  0  0  0  0
    8.8607   -0.4067   -0.3177 C   0  0  0  0  0  0  0  0  0  0  0  0
    8.3633    0.8436    0.0351 C   0  0  0  0  0  0  0  0  0  0  0  0
    7.1556    1.2954   -0.5055 C   0  0  0  0  0  0  0  0  0  0  0  0
    1.8115    0.1466    2.0757 C   0  0  0  0  0  0  0  0  0  0  0  0
    0.3000   -0.0503    2.2024 C   0  0  0  0  0  0  0  0  0  0  0  0
   -2.1565   -0.6230   -0.4066 N   0  0  0  0  0  0  0  0  0  0  0  0
   -2.6704    0.1553   -1.3920 C   0  0  0  0  0  0  0  0  0  0  0  0
   -5.4168   -1.4419    0.5799 C   0  0  0  0  0  0  0  0  0  0  0  0
   -6.1985   -1.2239    1.7136 C   0  0  0  0  0  0  0  0  0  0  0  0
   -7.4846    0.3137    3.6794 H   0  0  0  0  0  0  0  0  0  0  0  0
   -8.9421    0.5685    2.7117 H   0  0  0  0  0  0  0  0  0  0  0  0
   -8.5344   -1.0707    3.2644 H   0  0  0  0  0  0  0  0  0  0  0  0
   -8.4555    0.9524    0.3930 H   0  0  0  0  0  0  0  0  0  0  0  0
   -7.0730    0.5804   -1.6023 H   0  0  0  0  0  0  0  0  0  0  0  0
   -4.3410   -1.9832   -1.8002 H   0  0  0  0  0  0  0  0  0  0  0  0
   -5.4956   -1.0541   -2.7623 H   0  0  0  0  0  0  0  0  0  0  0  0
    0.5852    1.1629   -0.1384 H   0  0  0  0  0  0  0  0  0  0  0  0
   -1.0367   -1.5984    1.6005 H   0  0  0  0  0  0  0  0  0  0  0  0
    0.3616   -2.5133   -0.2656 H   0  0  0  0  0  0  0  0  0  0  0  0
    1.1455   -2.5594    1.3011 H   0  0  0  0  0  0  0  0  0  0  0  0
    2.8765   -1.7656    0.0198 H   0  0  0  0  0  0  0  0  0  0  0  0
    1.8161   -0.9175   -1.1188 H   0  0  0  0  0  0  0  0  0  0  0  0
    3.0966    1.4074   -1.7619 H   0  0  0  0  0  0  0  0  0  0  0  0
    5.1432    1.0993   -3.0087 H   0  0  0  0  0  0  0  0  0  0  0  0
    6.4083   -1.3995   -2.4677 H   0  0  0  0  0  0  0  0  0  0  0  0
    8.5453   -2.1841   -1.5006 H   0  0  0  0  0  0  0  0  0  0  0  0
    9.7948   -0.7611    0.1119 H   0  0  0  0  0  0  0  0  0  0  0  0
    8.9002    1.4669    0.7481 H   0  0  0  0  0  0  0  0  0  0  0  0
    6.7852    2.2772   -0.2195 H   0  0  0  0  0  0  0  0  0  0  0  0
    2.3452   -0.6755    2.5632 H   0  0  0  0  0  0  0  0  0  0  0  0
    2.0774    1.0765    2.5879 H   0  0  0  0  0  0  0  0  0  0  0  0
    0.0997   -0.4863    3.1898 H   0  0  0  0  0  0  0  0  0  0  0  0
   -0.2067    0.9241    2.2015 H   0  0  0  0  0  0  0  0  0  0  0  0
   -4.5572   -2.1060    0.6514 H   0  0  0  0  0  0  0  0  0  0  0  0
   -5.9427   -1.7193    2.6468 H   0  0  0  0  0  0  0  0  0  0  0  0
  1  2  1  0
  2  3  2  0
  3  4  1  0
  4  5  2  0
  5  6  1  0
  6  7  1  0
  7  8  1  0
  8  9  2  0
  9 10  1  0
 10 11  1  0
 11 12  2  0
 11 13  1  0
 13 14  1  0
 14 15  1  0
 15 16  1  0
 16 17  1  0
 17 18  1  0
 18 19  1  0
 19 20  2  0
 19 21  2  0
 19 22  1  0
 22 23  2  3
 23 24  1  0
 24 25  2  0
 25 26  1  0
 26 27  2  0
 27 28  1  0
 28 29  2  0
 18 30  1  0
 30 31  1  0
 14 32  2  0
 32 33  1  0
  5 34  1  0
 34 35  2  0
 35  2  1  0
 33  7  1  0
 33 10  2  0
 31 15  1  0
 29 24  1  0
  1 36  1  0
  1 37  1  0
  1 38  1  0
  3 39  1  0
  4 40  1  0
  6 41  1  0
  6 42  1  0
 13 43  1  0
 15 44  1  0
 16 45  1  0
 16 46  1  0
 17 47  1  0
 17 48  1  0
 22 49  1  0
 23 50  1  0
 25 51  1  0
 26 52  1  0
 27 53  1  0
 28 54  1  0
 29 55  1  0
 30 56  1  0
 30 57  1  0
 31 58  1  0
 31 59  1  0
 34 60  1  0
 35 61  1  0
M  END
$$$$
