
     RDKit          3D

 68 73  0  0  0  0  0  0  0  0999 V2000
   -4.3308    4.9454   -1.6155 C   0  0  0  0  0  0  0  0  0  0  0  0
   -3.4515    3.8358   -1.4852 O   0  0  0  0  0  0  0  0  0  0  0  0
   -3.1983    3.3848   -0.2184 C   0  0  0  0  0  0  0  0  0  0  0  0
   -3.7096    3.9432    0.9690 C   0  0  0  0  0  0  0  0  0  0  0  0
   -3.3823    3.4028    2.2191 C   0  0  0  0  0  0  0  0  0  0  0  0
   -2.5484    2.3065    2.2410 C   0  0  0  0  0  0  0  0  0  0  0  0
   -2.0374    1.7320    1.0755 C   0  0  0  0  0  0  0  0  0  0  0  0
   -2.3514    2.2708   -0.1626 C   0  0  0  0  0  0  0  0  0  0  0  0
   -1.1797    0.5633    1.4517 C   0  0  1  0  0  0  0  0  0  0  0  0
   -1.2463    0.5689    3.0055 C   0  0  0  0  0  0  0  0  0  0  0  0
   -0.6771   -0.1655    3.7986 O   0  0  0  0  0  0  0  0  0  0  0  0
   -2.0925    1.6241    3.3612 N   0  0  0  0  0  0  0  0  0  0  0  0
   -1.7333   -0.6804    0.8475 C   0  0  0  0  0  0  0  0  0  0  0  0
   -0.6821   -1.4964    0.3984 C   0  0  0  0  0  0  0  0  0  0  0  0
   -1.2043   -2.6402   -0.1399 C   0  0  0  0  0  0  0  0  0  0  0  0
   -0.5815   -3.7202   -0.6051 O   0  0  0  0  0  0  0  0  0  0  0  0
   -2.6139   -2.5389   -0.0616 N   0  0  0  0  0  0  0  0  0  0  0  0
   -3.5631   -3.5169   -0.5246 C   0  0  0  0  0  0  0  0  0  0  0  0
   -3.2234   -4.4246   -1.5387 C   0  0  0  0  0  0  0  0  0  0  0  0
   -4.1469   -5.3746   -1.9883 C   0  0  0  0  0  0  0  0  0  0  0  0
   -5.4203   -5.4326   -1.4303 C   0  0  0  0  0  0  0  0  0  0  0  0
   -5.7717   -4.5397   -0.4229 C   0  0  0  0  0  0  0  0  0  0  0  0
   -4.8509   -3.5873    0.0272 C   0  0  0  0  0  0  0  0  0  0  0  0
   -2.9206   -1.3024    0.5560 C   0  0  0  0  0  0  0  0  0  0  0  0
   -4.1688   -0.8702    0.7243 O   0  0  0  0  0  0  0  0  0  0  0  0
    0.6165   -0.8666    0.7209 C   0  0  1  0  0  0  0  0  0  0  0  0
    1.7426   -0.9162   -0.3047 C   0  0  0  0  0  0  0  0  0  0  0  0
    2.8564   -0.0433    0.1053 N   0  0  0  0  0  0  0  0  0  0  0  0
    4.1151   -0.3270   -0.3971 C   0  0  0  0  0  0  0  0  0  0  0  0
    4.3850   -1.3642   -0.9890 O   0  0  0  0  0  0  0  0  0  0  0  0
    5.0005    0.6719   -0.1520 O   0  0  0  0  0  0  0  0  0  0  0  0
    6.3801    0.5751   -0.5893 C   0  0  0  0  0  0  0  0  0  0  0  0
    6.4782    0.4962   -2.1167 C   0  0  0  0  0  0  0  0  0  0  0  0
    7.0262    1.8895   -0.1247 C   0  0  0  0  0  0  0  0  0  0  0  0
    7.1011   -0.5919    0.0941 C   0  0  0  0  0  0  0  0  0  0  0  0
    2.4979    1.3066    0.5824 C   0  0  0  0  0  0  0  0  0  0  0  0
    1.2441    1.3416    1.4951 C   0  0  0  0  0  0  0  0  0  0  0  0
    0.1846    0.5580    0.8829 N   0  0  0  0  0  0  0  0  0  0  0  0
   -5.3265    4.7082   -1.2264 H   0  0  0  0  0  0  0  0  0  0  0  0
   -4.4342    5.1667   -2.6821 H   0  0  0  0  0  0  0  0  0  0  0  0
   -3.9172    5.8351   -1.1295 H   0  0  0  0  0  0  0  0  0  0  0  0
   -4.3654    4.8084    0.9482 H   0  0  0  0  0  0  0  0  0  0  0  0
   -3.7740    3.8410    3.1304 H   0  0  0  0  0  0  0  0  0  0  0  0
   -1.9515    1.8349   -1.0744 H   0  0  0  0  0  0  0  0  0  0  0  0
   -2.3034    1.8505    4.3220 H   0  0  0  0  0  0  0  0  0  0  0  0
    0.3740   -3.6141   -0.4599 H   0  0  0  0  0  0  0  0  0  0  0  0
   -2.2549   -4.3967   -2.0285 H   0  0  0  0  0  0  0  0  0  0  0  0
   -3.8676   -6.0649   -2.7799 H   0  0  0  0  0  0  0  0  0  0  0  0
   -6.1361   -6.1718   -1.7790 H   0  0  0  0  0  0  0  0  0  0  0  0
   -6.7619   -4.5849    0.0229 H   0  0  0  0  0  0  0  0  0  0  0  0
   -5.1598   -2.9370    0.8397 H   0  0  0  0  0  0  0  0  0  0  0  0
   -4.1347    0.0618    1.0013 H   0  0  0  0  0  0  0  0  0  0  0  0
    0.9708   -1.2661    1.6822 H   0  0  0  0  0  0  0  0  0  0  0  0
    2.0989   -1.9453   -0.4254 H   0  0  0  0  0  0  0  0  0  0  0  0
    1.4054   -0.5750   -1.2921 H   0  0  0  0  0  0  0  0  0  0  0  0
    6.0985   -0.4542   -2.5032 H   0  0  0  0  0  0  0  0  0  0  0  0
    7.5153    0.5948   -2.4548 H   0  0  0  0  0  0  0  0  0  0  0  0
    5.8818    1.2868   -2.5858 H   0  0  0  0  0  0  0  0  0  0  0  0
    6.5141    2.7526   -0.5659 H   0  0  0  0  0  0  0  0  0  0  0  0
    8.0860    1.9404   -0.3957 H   0  0  0  0  0  0  0  0  0  0  0  0
    6.9409    2.0027    0.9624 H   0  0  0  0  0  0  0  0  0  0  0  0
    6.9425   -0.5654    1.1780 H   0  0  0  0  0  0  0  0  0  0  0  0
    6.7317   -1.5613   -0.2533 H   0  0  0  0  0  0  0  0  0  0  0  0
    8.1786   -0.5637   -0.1011 H   0  0  0  0  0  0  0  0  0  0  0  0
    2.3211    1.9159   -0.3130 H   0  0  0  0  0  0  0  0  0  0  0  0
    3.3422    1.7503    1.1204 H   0  0  0  0  0  0  0  0  0  0  0  0
    1.5077    0.9477    2.4840 H   0  0  0  0  0  0  0  0  0  0  0  0
    0.9359    2.3850    1.6239 H   0  0  0  0  0  0  0  0  0  0  0  0
  1  2  1  0
  2  3  1  0
  3  4  2  0
  4  5  1  0
  5  6  2  0
  6  7  1  0
  7  8  2  0
  7  9  1  0
  9 10  1  0
 10 11  2  0
 10 12  1  0
  9 13  1  0
 13 14  1  0
 14 15  2  0
 15 16  1  0
 15 17  1  0
 17 18  1  0
 18 19  2  0
 19 20  1  0
 20 21  2  0
 21 22  1  0
 22 23  2  0
 17 24  1  0
 24 25  1  0
 14 26  1  0
 26 27  1  0
 27 28  1  0
 28 29  1  0
 29 30  2  0
 29 31  1  0
 31 32  1  0
 32 33  1  0
 32 34  1  0
 32 35  1  0
 28 36  1  0
 36 37  1  0
 37 38  1  0
  8  3  1  0
  9 38  1  1
 12  6  1  0
 24 13  2  0
 38 26  1  0
 23 18  1  0
  1 39  1  0
  1 40  1  0
  1 41  1  0
  4 42  1  0
  5 43  1  0
  8 44  1  0
 12 45  1  0
 16 46  1  0
 19 47  1  0
 20 48  1  0
 21 49  1  0
 22 50  1  0
 23 51  1  0
 25 52  1  0
 26 53  1  1
 27 54  1  0
 27 55  1  0
 33 56  1  0
 33 57  1  0
 33 58  1  0
 34 59  1  0
 34 60  1  0
 34 61  1  0
 35 62  1  0
 35 63  1  0
 35 64  1  0
 36 65  1  0
 36 66  1  0
 37 67  1  0
 37 68  1  0
M  END
$$$$
