
     RDKit          3D

 47 50  0  0  0  0  0  0  0  0999 V2000
    7.4688   -1.3022    0.6562 C   0  0  0  0  0  0  0  0  0  0  0  0
    6.5895   -0.2931    0.7227 C   0  0  0  0  0  0  0  0  0  0  0  0
    6.0163    0.4167   -0.4735 C   0  0  0  0  0  0  0  0  0  0  0  0
    4.6299    0.0083   -0.6456 N   0  0  0  0  0  0  0  0  0  0  0  0
    4.3760   -1.0491   -1.4957 C   0  0  0  0  0  0  0  0  0  0  0  0
    5.2336   -1.6266   -2.1623 O   0  0  0  0  0  0  0  0  0  0  0  0
    3.0795   -1.4520   -1.6058 N   0  0  0  0  0  0  0  0  0  0  0  0
    1.9720   -0.8544   -1.0824 C   0  0  0  0  0  0  0  0  0  0  0  0
    0.8577   -1.2464   -1.4031 O   0  0  0  0  0  0  0  0  0  0  0  0
    2.2516    0.2656   -0.1578 C   0  0  0  0  0  0  0  0  0  0  0  0
    1.2990    0.9402    0.5183 C   0  0  0  0  0  0  0  0  0  0  0  0
   -0.1460    0.7027    0.4924 C   0  0  0  0  0  0  0  0  0  0  0  0
   -0.7158   -0.3026    1.2738 C   0  0  0  0  0  0  0  0  0  0  0  0
   -2.1036   -0.5214    1.2543 C   0  0  0  0  0  0  0  0  0  0  0  0
   -2.9493    0.2918    0.4729 C   0  0  0  0  0  0  0  0  0  0  0  0
   -2.3622    1.3144   -0.2999 C   0  0  0  0  0  0  0  0  0  0  0  0
   -0.9700    1.5054   -0.2965 C   0  0  0  0  0  0  0  0  0  0  0  0
   -3.2177    2.1956   -1.1743 C   0  0  0  0  0  0  0  0  0  0  0  0
   -4.6552    2.2378   -0.6766 C   0  0  0  0  0  0  0  0  0  0  0  0
   -5.1667    0.8203   -0.4738 C   0  0  0  0  0  0  0  0  0  0  0  0
   -4.3241    0.0948    0.4682 N   0  0  0  0  0  0  0  0  0  0  0  0
   -4.9357   -0.8972    1.3433 C   0  0  0  0  0  0  0  0  0  0  0  0
   -4.0188   -2.0932    1.5459 C   0  0  0  0  0  0  0  0  0  0  0  0
   -2.6825   -1.6243    2.1027 C   0  0  0  0  0  0  0  0  0  0  0  0
    3.6593    0.7047    0.0586 C   0  0  0  0  0  0  0  0  0  0  0  0
    3.9261    1.6352    0.8204 O   0  0  0  0  0  0  0  0  0  0  0  0
    7.8548   -1.7660    1.5594 H   0  0  0  0  0  0  0  0  0  0  0  0
    7.8146   -1.6953   -0.2967 H   0  0  0  0  0  0  0  0  0  0  0  0
    6.2723    0.0697    1.6990 H   0  0  0  0  0  0  0  0  0  0  0  0
    6.0787    1.4996   -0.3155 H   0  0  0  0  0  0  0  0  0  0  0  0
    6.5949    0.1939   -1.3776 H   0  0  0  0  0  0  0  0  0  0  0  0
    2.9061   -2.2028   -2.2599 H   0  0  0  0  0  0  0  0  0  0  0  0
    1.5719    1.7663    1.1757 H   0  0  0  0  0  0  0  0  0  0  0  0
   -0.0837   -0.9324    1.8951 H   0  0  0  0  0  0  0  0  0  0  0  0
   -0.5362    2.2905   -0.9115 H   0  0  0  0  0  0  0  0  0  0  0  0
   -3.1854    1.8066   -2.1993 H   0  0  0  0  0  0  0  0  0  0  0  0
   -2.8183    3.2163   -1.1905 H   0  0  0  0  0  0  0  0  0  0  0  0
   -4.7050    2.7882    0.2723 H   0  0  0  0  0  0  0  0  0  0  0  0
   -5.2864    2.7713   -1.3961 H   0  0  0  0  0  0  0  0  0  0  0  0
   -6.1974    0.8683   -0.1024 H   0  0  0  0  0  0  0  0  0  0  0  0
   -5.1924    0.2808   -1.4289 H   0  0  0  0  0  0  0  0  0  0  0  0
   -5.8838   -1.2480    0.9183 H   0  0  0  0  0  0  0  0  0  0  0  0
   -5.1699   -0.4290    2.3073 H   0  0  0  0  0  0  0  0  0  0  0  0
   -3.8644   -2.6076    0.5882 H   0  0  0  0  0  0  0  0  0  0  0  0
   -4.4794   -2.8130    2.2314 H   0  0  0  0  0  0  0  0  0  0  0  0
   -1.9949   -2.4776    2.1387 H   0  0  0  0  0  0  0  0  0  0  0  0
   -2.8080   -1.2506    3.1263 H   0  0  0  0  0  0  0  0  0  0  0  0
  1  2  2  0
  2  3  1  0
  3  4  1  0
  4  5  1  0
  5  6  2  0
  5  7  1  0
  7  8  1  0
  8  9  2  0
  8 10  1  0
 10 11  2  3
 11 12  1  0
 12 13  2  0
 13 14  1  0
 14 15  2  0
 15 16  1  0
 16 17  2  0
 16 18  1  0
 18 19  1  0
 19 20  1  0
 20 21  1  0
 21 22  1  0
 22 23  1  0
 23 24  1  0
 10 25  1  0
 25 26  2  0
 25  4  1  0
 17 12  1  0
 24 14  1  0
 21 15  1  0
  1 27  1  0
  1 28  1  0
  2 29  1  0
  3 30  1  0
  3 31  1  0
  7 32  1  0
 11 33  1  0
 13 34  1  0
 17 35  1  0
 18 36  1  0
 18 37  1  0
 19 38  1  0
 19 39  1  0
 20 40  1  0
 20 41  1  0
 22 42  1  0
 22 43  1  0
 23 44  1  0
 23 45  1  0
 24 46  1  0
 24 47  1  0
M  END
$$$$
