
     RDKit          3D

 47 49  0  0  0  0  0  0  0  0999 V2000
    5.8210   -2.0803   -0.6657 C   0  0  0  0  0  0  0  0  0  0  0  0
    4.9956   -1.2901    0.3437 C   0  0  0  0  0  0  0  0  0  0  0  0
    3.9510   -2.1031    0.9827 N   0  0  0  0  0  0  0  0  0  0  0  0
    3.3501   -1.3925    2.1349 C   0  0  0  0  0  0  0  0  0  0  0  0
    2.4472   -0.1901    1.7751 C   0  0  0  0  0  0  0  0  0  0  0  0
    1.3821   -0.5632    0.8084 N   0  0  0  0  0  0  0  0  0  0  0  0
    0.1777    0.1673    0.7159 C   0  0  0  0  0  0  0  0  0  0  0  0
   -0.9001   -0.2660    0.0276 C   0  0  0  0  0  0  0  0  0  0  0  0
   -2.1708    0.4394   -0.0582 C   0  0  0  0  0  0  0  0  0  0  0  0
   -3.1380    0.0212   -0.8971 C   0  0  0  0  0  0  0  0  0  0  0  0
   -4.4455    0.6757   -1.0276 C   0  0  0  0  0  0  0  0  0  0  0  0
   -5.3487    0.3385   -1.9840 C   0  0  0  0  0  0  0  0  0  0  0  0
   -6.6206    0.9786   -2.0648 C   0  0  0  0  0  0  0  0  0  0  0  0
   -7.6537    1.5047   -2.1163 N   0  0  0  0  0  0  0  0  0  0  0  0
   -5.0869   -0.6688   -2.9601 C   0  0  0  0  0  0  0  0  0  0  0  0
   -4.8626   -1.4888   -3.7506 N   0  0  0  0  0  0  0  0  0  0  0  0
   -4.7108    1.7595    0.0107 C   0  0  0  0  0  0  0  0  0  0  0  0
   -3.4545    2.5707    0.3246 C   0  0  0  0  0  0  0  0  0  0  0  0
   -2.3351    1.6529    0.8295 C   0  0  0  0  0  0  0  0  0  0  0  0
   -1.0173    2.4201    0.9389 C   0  0  0  0  0  0  0  0  0  0  0  0
    0.1003    1.5047    1.4434 C   0  0  0  0  0  0  0  0  0  0  0  0
    1.9226   -1.3069   -0.3622 C   0  0  0  0  0  0  0  0  0  0  0  0
    2.8473   -2.4690    0.0671 C   0  0  0  0  0  0  0  0  0  0  0  0
    6.2416   -2.9846   -0.2132 H   0  0  0  0  0  0  0  0  0  0  0  0
    6.6538   -1.4659   -1.0223 H   0  0  0  0  0  0  0  0  0  0  0  0
    5.2329   -2.3706   -1.5416 H   0  0  0  0  0  0  0  0  0  0  0  0
    4.5914   -0.3942   -0.1397 H   0  0  0  0  0  0  0  0  0  0  0  0
    5.6935   -0.9407    1.1155 H   0  0  0  0  0  0  0  0  0  0  0  0
    2.7507   -2.1184    2.7018 H   0  0  0  0  0  0  0  0  0  0  0  0
    4.1368   -1.0644    2.8253 H   0  0  0  0  0  0  0  0  0  0  0  0
    2.0030    0.1696    2.7107 H   0  0  0  0  0  0  0  0  0  0  0  0
    3.0478    0.6267    1.3563 H   0  0  0  0  0  0  0  0  0  0  0  0
   -0.8572   -1.2228   -0.4837 H   0  0  0  0  0  0  0  0  0  0  0  0
   -2.9379   -0.8504   -1.5199 H   0  0  0  0  0  0  0  0  0  0  0  0
   -5.0775    1.2822    0.9294 H   0  0  0  0  0  0  0  0  0  0  0  0
   -5.4877    2.4597   -0.3139 H   0  0  0  0  0  0  0  0  0  0  0  0
   -3.6852    3.3270    1.0841 H   0  0  0  0  0  0  0  0  0  0  0  0
   -3.1332    3.1128   -0.5750 H   0  0  0  0  0  0  0  0  0  0  0  0
   -2.6114    1.2961    1.8322 H   0  0  0  0  0  0  0  0  0  0  0  0
   -1.1258    3.2719    1.6206 H   0  0  0  0  0  0  0  0  0  0  0  0
   -0.7349    2.8317   -0.0399 H   0  0  0  0  0  0  0  0  0  0  0  0
   -0.0467    1.3121    2.5139 H   0  0  0  0  0  0  0  0  0  0  0  0
    1.0441    2.0517    1.3333 H   0  0  0  0  0  0  0  0  0  0  0  0
    2.4642   -0.6039   -1.0075 H   0  0  0  0  0  0  0  0  0  0  0  0
    1.1222   -1.7395   -0.9703 H   0  0  0  0  0  0  0  0  0  0  0  0
    2.2321   -3.2229    0.5783 H   0  0  0  0  0  0  0  0  0  0  0  0
    3.2327   -2.9779   -0.8235 H   0  0  0  0  0  0  0  0  0  0  0  0
  1  2  1  0
  2  3  1  0
  3  4  1  0
  4  5  1  0
  5  6  1  0
  6  7  1  0
  7  8  2  0
  8  9  1  0
  9 10  2  0
 10 11  1  0
 11 12  2  3
 12 13  1  0
 13 14  3  0
 12 15  1  0
 15 16  3  0
 11 17  1  0
 17 18  1  0
 18 19  1  0
 19 20  1  0
 20 21  1  0
  6 22  1  0
 22 23  1  0
 23  3  1  0
 21  7  1  0
 19  9  1  0
  1 24  1  0
  1 25  1  0
  1 26  1  0
  2 27  1  0
  2 28  1  0
  4 29  1  0
  4 30  1  0
  5 31  1  0
  5 32  1  0
  8 33  1  0
 10 34  1  0
 17 35  1  0
 17 36  1  0
 18 37  1  0
 18 38  1  0
 19 39  1  0
 20 40  1  0
 20 41  1  0
 21 42  1  0
 21 43  1  0
 22 44  1  0
 22 45  1  0
 23 46  1  0
 23 47  1  0
M  END
$$$$
