
     RDKit          3D

 50 51  0  0  0  0  0  0  0  0999 V2000
    8.2845   -0.0076    2.7675 C   0  0  0  0  0  0  0  0  0  0  0  0
    8.4207    0.3696    1.3004 C   0  0  0  0  0  0  0  0  0  0  0  0
    7.1417    0.1422    0.4910 C   0  0  0  0  0  0  0  0  0  0  0  0
    6.7615   -1.3371    0.3645 C   0  0  0  0  0  0  0  0  0  0  0  0
    5.5508   -1.5491   -0.5457 C   0  0  0  0  0  0  0  0  0  0  0  0
    4.2267   -1.1364    0.0854 C   0  0  0  0  0  0  0  0  0  0  0  0
    4.1354   -0.8070    1.2615 O   0  0  0  0  0  0  0  0  0  0  0  0
    3.1883   -1.2104   -0.8315 N   0  0  0  0  0  0  0  0  0  0  0  0
    1.8266   -0.9169   -0.6134 C   0  0  0  0  0  0  0  0  0  0  0  0
    1.3016   -0.5043    0.6124 C   0  0  0  0  0  0  0  0  0  0  0  0
   -0.0659   -0.2333    0.7457 C   0  0  0  0  0  0  0  0  0  0  0  0
   -0.9240   -0.3601   -0.3506 C   0  0  0  0  0  0  0  0  0  0  0  0
   -2.3729   -0.0629   -0.1637 C   0  0  0  0  0  0  0  0  0  0  0  0
   -2.8793   -0.2394    0.9397 O   0  0  0  0  0  0  0  0  0  0  0  0
   -3.0180    0.4359   -1.2924 N   0  0  0  0  0  0  0  0  0  0  0  0
   -4.3071    0.9062   -1.3186 N   0  0  0  0  0  0  0  0  0  0  0  0
   -5.1876    0.2994   -0.5867 C   0  0  0  0  0  0  0  0  0  0  0  0
   -6.5865    0.7708   -0.5114 C   0  0  0  0  0  0  0  0  0  0  0  0
   -7.0082    1.8921   -1.2359 C   0  0  0  0  0  0  0  0  0  0  0  0
   -8.3357    2.3212   -1.1504 C   0  0  0  0  0  0  0  0  0  0  0  0
   -9.2364    1.6216   -0.3349 C   0  0  0  0  0  0  0  0  0  0  0  0
  -10.6328    2.0680   -0.2431 N   0  0  0  0  0  4  0  0  0  0  0  0
  -11.3982    1.4189    0.4839 O   0  0  0  0  0  0  0  0  0  0  0  0
  -10.9637    3.0653   -0.8998 O   0  0  0  0  0  1  0  0  0  0  0  0
   -8.8164    0.4991    0.3939 C   0  0  0  0  0  0  0  0  0  0  0  0
   -7.4869    0.0753    0.3035 C   0  0  0  0  0  0  0  0  0  0  0  0
   -0.4078   -0.7877   -1.5786 C   0  0  0  0  0  0  0  0  0  0  0  0
    0.9596   -1.0603   -1.7055 C   0  0  0  0  0  0  0  0  0  0  0  0
    7.4409    0.5136    3.2308 H   0  0  0  0  0  0  0  0  0  0  0  0
    9.1934    0.2686    3.3118 H   0  0  0  0  0  0  0  0  0  0  0  0
    8.1383   -1.0842    2.8935 H   0  0  0  0  0  0  0  0  0  0  0  0
    9.2505   -0.1908    0.8544 H   0  0  0  0  0  0  0  0  0  0  0  0
    8.6862    1.4317    1.2379 H   0  0  0  0  0  0  0  0  0  0  0  0
    7.2950    0.5579   -0.5127 H   0  0  0  0  0  0  0  0  0  0  0  0
    6.3205    0.7096    0.9435 H   0  0  0  0  0  0  0  0  0  0  0  0
    7.6123   -1.8852   -0.0586 H   0  0  0  0  0  0  0  0  0  0  0  0
    6.5628   -1.7673    1.3522 H   0  0  0  0  0  0  0  0  0  0  0  0
    5.6875   -1.0056   -1.4878 H   0  0  0  0  0  0  0  0  0  0  0  0
    5.4734   -2.6175   -0.7822 H   0  0  0  0  0  0  0  0  0  0  0  0
    3.4346   -1.5091   -1.7667 H   0  0  0  0  0  0  0  0  0  0  0  0
    1.9260   -0.3861    1.4930 H   0  0  0  0  0  0  0  0  0  0  0  0
   -0.4547    0.0807    1.7132 H   0  0  0  0  0  0  0  0  0  0  0  0
   -2.4366    0.8462   -2.0169 H   0  0  0  0  0  0  0  0  0  0  0  0
   -4.9574   -0.6105   -0.0063 H   0  0  0  0  0  0  0  0  0  0  0  0
   -6.3070    2.4359   -1.8660 H   0  0  0  0  0  0  0  0  0  0  0  0
   -8.6469    3.1951   -1.7195 H   0  0  0  0  0  0  0  0  0  0  0  0
   -9.5053   -0.0502    1.0331 H   0  0  0  0  0  0  0  0  0  0  0  0
   -7.1627   -0.7923    0.8747 H   0  0  0  0  0  0  0  0  0  0  0  0
   -1.0546   -0.9420   -2.4383 H   0  0  0  0  0  0  0  0  0  0  0  0
    1.3335   -1.3949   -2.6703 H   0  0  0  0  0  0  0  0  0  0  0  0
  1  2  1  0
  2  3  1  0
  3  4  1  0
  4  5  1  0
  5  6  1  0
  6  7  2  0
  6  8  1  0
  8  9  1  0
  9 10  2  0
 10 11  1  0
 11 12  2  0
 12 13  1  0
 13 14  2  0
 13 15  1  0
 15 16  1  0
 16 17  2  3
 17 18  1  0
 18 19  2  0
 19 20  1  0
 20 21  2  0
 21 22  1  0
 22 23  2  0
 22 24  1  0
 21 25  1  0
 25 26  2  0
 12 27  1  0
 27 28  2  0
 28  9  1  0
 26 18  1  0
  1 29  1  0
  1 30  1  0
  1 31  1  0
  2 32  1  0
  2 33  1  0
  3 34  1  0
  3 35  1  0
  4 36  1  0
  4 37  1  0
  5 38  1  0
  5 39  1  0
  8 40  1  0
 10 41  1  0
 11 42  1  0
 15 43  1  0
 17 44  1  0
 19 45  1  0
 20 46  1  0
 25 47  1  0
 26 48  1  0
 27 49  1  0
 28 50  1  0
M  CHG  2  22   1  24  -1
M  END
$$$$
