
     RDKit          3D

 43 45  0  0  0  0  0  0  0  0999 V2000
   -2.2527   -1.2481    1.7152 N   0  0  0  0  0  0  0  0  0  0  0  0
   -0.9626   -1.2452    1.3485 C   0  0  0  0  0  0  0  0  0  0  0  0
   -0.1977   -2.2818    1.5331 N   0  0  0  0  0  0  0  0  0  0  0  0
    1.1113   -1.8870    0.9465 C   0  0  0  0  0  0  0  0  0  0  0  0
    1.0078   -0.3916    0.5788 C   0  0  0  0  0  0  0  0  0  0  0  0
    1.4739   -0.0920   -0.8507 C   0  0  0  0  0  0  0  0  0  0  0  0
    2.9661   -0.2468   -1.0294 C   0  0  0  0  0  0  0  0  0  0  0  0
    3.4902   -1.3609   -1.6995 C   0  0  0  0  0  0  0  0  0  0  0  0
    4.8694   -1.5083   -1.8528 C   0  0  0  0  0  0  0  0  0  0  0  0
    5.7273   -0.5440   -1.3393 C   0  0  0  0  0  0  0  0  0  0  0  0
    7.0669   -0.7287   -1.5123 O   0  0  0  0  0  0  0  0  0  0  0  0
    5.2287    0.5702   -0.6732 C   0  0  0  0  0  0  0  0  0  0  0  0
    3.8482    0.7178   -0.5190 C   0  0  0  0  0  0  0  0  0  0  0  0
   -0.4277   -0.1506    0.7458 N   0  0  0  0  0  0  0  0  0  0  0  0
   -0.9091    1.2216    0.8271 C   0  0  0  0  0  0  0  0  0  0  0  0
   -1.7412    1.6151   -0.4012 C   0  0  0  0  0  0  0  0  0  0  0  0
   -3.1963    1.2225   -0.3182 C   0  0  0  0  0  0  0  0  0  0  0  0
   -4.1073    2.0069    0.4075 C   0  0  0  0  0  0  0  0  0  0  0  0
   -5.4534    1.6405    0.4903 C   0  0  0  0  0  0  0  0  0  0  0  0
   -5.9008    0.4871   -0.1507 C   0  0  0  0  0  0  0  0  0  0  0  0
   -4.9996   -0.2911   -0.8676 C   0  0  0  0  0  0  0  0  0  0  0  0
   -5.4325   -1.3998   -1.4824 F   0  0  0  0  0  0  0  0  0  0  0  0
   -3.6576    0.0639   -0.9565 C   0  0  0  0  0  0  0  0  0  0  0  0
   -2.6502   -0.3824    2.0420 H   0  0  0  0  0  0  0  0  0  0  0  0
   -2.4826   -2.0441    2.2979 H   0  0  0  0  0  0  0  0  0  0  0  0
    1.9093   -2.0524    1.6780 H   0  0  0  0  0  0  0  0  0  0  0  0
    1.3063   -2.5243    0.0776 H   0  0  0  0  0  0  0  0  0  0  0  0
    1.5690    0.1993    1.3142 H   0  0  0  0  0  0  0  0  0  0  0  0
    1.2095    0.9370   -1.1266 H   0  0  0  0  0  0  0  0  0  0  0  0
    0.9377   -0.7271   -1.5684 H   0  0  0  0  0  0  0  0  0  0  0  0
    2.8302   -2.1242   -2.1066 H   0  0  0  0  0  0  0  0  0  0  0  0
    5.2726   -2.3735   -2.3716 H   0  0  0  0  0  0  0  0  0  0  0  0
    7.5382    0.0160   -1.1050 H   0  0  0  0  0  0  0  0  0  0  0  0
    5.8928    1.3287   -0.2713 H   0  0  0  0  0  0  0  0  0  0  0  0
    3.4653    1.5939   -0.0002 H   0  0  0  0  0  0  0  0  0  0  0  0
   -1.4571    1.3948    1.7606 H   0  0  0  0  0  0  0  0  0  0  0  0
   -0.0446    1.8967    0.8680 H   0  0  0  0  0  0  0  0  0  0  0  0
   -1.7008    2.7065   -0.5163 H   0  0  0  0  0  0  0  0  0  0  0  0
   -1.2982    1.2068   -1.3182 H   0  0  0  0  0  0  0  0  0  0  0  0
   -3.7755    2.9140    0.9087 H   0  0  0  0  0  0  0  0  0  0  0  0
   -6.1527    2.2559    1.0507 H   0  0  0  0  0  0  0  0  0  0  0  0
   -6.9426    0.1887   -0.0978 H   0  0  0  0  0  0  0  0  0  0  0  0
   -2.9779   -0.5799   -1.5080 H   0  0  0  0  0  0  0  0  0  0  0  0
  1  2  1  0
  2  3  2  0
  3  4  1  0
  4  5  1  0
  5  6  1  0
  6  7  1  0
  7  8  2  0
  8  9  1  0
  9 10  2  0
 10 11  1  0
 10 12  1  0
 12 13  2  0
  5 14  1  0
 14 15  1  0
 15 16  1  0
 16 17  1  0
 17 18  2  0
 18 19  1  0
 19 20  2  0
 20 21  1  0
 21 22  1  0
 21 23  2  0
 14  2  1  0
 23 17  1  0
 13  7  1  0
  1 24  1  0
  1 25  1  0
  4 26  1  0
  4 27  1  0
  5 28  1  0
  6 29  1  0
  6 30  1  0
  8 31  1  0
  9 32  1  0
 11 33  1  0
 12 34  1  0
 13 35  1  0
 15 36  1  0
 15 37  1  0
 16 38  1  0
 16 39  1  0
 18 40  1  0
 19 41  1  0
 20 42  1  0
 23 43  1  0
M  END
$$$$
