
     RDKit          3D

 47 50  0  0  0  0  0  0  0  0999 V2000
   -5.6323    1.5638    1.0011 C   0  0  0  0  0  0  0  0  0  0  0  0
   -4.4386    0.7289    1.0084 N   0  0  0  0  0  0  0  0  0  0  0  0
   -3.8158    0.6615    2.3329 C   0  0  0  0  0  0  0  0  0  0  0  0
   -2.5910   -0.2930    2.3685 C   0  0  0  0  0  0  0  0  0  0  0  0
   -1.8996   -0.4848    1.0760 N   0  0  0  0  0  0  0  0  0  0  0  0
   -0.5196   -0.9364    1.2815 C   0  0  0  0  0  0  0  0  0  0  0  0
    0.1095   -1.4811    0.0201 C   0  0  0  0  0  0  0  0  0  0  0  0
   -0.4048   -2.6396   -0.5664 C   0  0  0  0  0  0  0  0  0  0  0  0
    0.1609   -3.1525   -1.7365 C   0  0  0  0  0  0  0  0  0  0  0  0
   -0.5501   -4.5963   -2.3814 Cl  0  0  0  0  0  0  0  0  0  0  0  0
    1.2581   -2.5130   -2.3669 C   0  0  0  0  0  0  0  0  0  0  0  0
    1.8693   -2.9710   -3.5563 C   0  0  0  0  0  0  0  0  0  0  0  0
    2.9348   -2.2809   -4.1208 C   0  0  0  0  0  0  0  0  0  0  0  0
    3.3685   -1.1393   -3.4848 C   0  0  0  0  0  0  0  0  0  0  0  0
    2.8175   -0.6625   -2.3498 N   0  0  0  0  0  0  0  0  0  0  0  0
    1.7860   -1.3380   -1.7916 C   0  0  0  0  0  0  0  0  0  0  0  0
    1.2052   -0.8681   -0.6048 C   0  0  0  0  0  0  0  0  0  0  0  0
    1.7093    0.3253   -0.0534 O   0  0  0  0  0  0  0  0  0  0  0  0
    2.9125    0.1420    0.6231 C   0  0  0  0  0  0  0  0  0  0  0  0
    3.3860   -0.9494    0.9289 O   0  0  0  0  0  0  0  0  0  0  0  0
    3.5090    1.4192    0.9849 C   0  0  0  0  0  0  0  0  0  0  0  0
    4.7034    1.6041    1.6609 C   0  0  0  0  0  0  0  0  0  0  0  0
    5.0142    2.9790    1.8673 C   0  0  0  0  0  0  0  0  0  0  0  0
    4.0473    3.8061    1.3436 C   0  0  0  0  0  0  0  0  0  0  0  0
    2.7784    2.9254    0.6120 S   0  0  0  0  0  0  0  0  0  0  0  0
   -1.9913    0.7408    0.2692 C   0  0  0  0  0  0  0  0  0  0  0  0
   -3.4598    1.1707   -0.0031 C   0  0  0  0  0  0  0  0  0  0  0  0
   -6.0958    1.5638    0.0084 H   0  0  0  0  0  0  0  0  0  0  0  0
   -6.3803    1.1712    1.6986 H   0  0  0  0  0  0  0  0  0  0  0  0
   -5.4140    2.6009    1.2804 H   0  0  0  0  0  0  0  0  0  0  0  0
   -4.5420    0.3144    3.0781 H   0  0  0  0  0  0  0  0  0  0  0  0
   -3.4915    1.6649    2.6412 H   0  0  0  0  0  0  0  0  0  0  0  0
   -1.8996    0.0922    3.1297 H   0  0  0  0  0  0  0  0  0  0  0  0
   -2.9274   -1.2801    2.7088 H   0  0  0  0  0  0  0  0  0  0  0  0
    0.0873   -0.1375    1.7243 H   0  0  0  0  0  0  0  0  0  0  0  0
   -0.5047   -1.7570    2.0125 H   0  0  0  0  0  0  0  0  0  0  0  0
   -1.2609   -3.1352   -0.1108 H   0  0  0  0  0  0  0  0  0  0  0  0
    1.5174   -3.8717   -4.0540 H   0  0  0  0  0  0  0  0  0  0  0  0
    3.4090   -2.6270   -5.0320 H   0  0  0  0  0  0  0  0  0  0  0  0
    4.1961   -0.5563   -3.8787 H   0  0  0  0  0  0  0  0  0  0  0  0
    5.3264    0.7788    1.9889 H   0  0  0  0  0  0  0  0  0  0  0  0
    5.9019    3.3411    2.3719 H   0  0  0  0  0  0  0  0  0  0  0  0
    4.0241    4.8874    1.3533 H   0  0  0  0  0  0  0  0  0  0  0  0
   -1.4722    1.5604    0.7848 H   0  0  0  0  0  0  0  0  0  0  0  0
   -1.5007    0.6113   -0.7023 H   0  0  0  0  0  0  0  0  0  0  0  0
   -3.7737    0.7537   -0.9678 H   0  0  0  0  0  0  0  0  0  0  0  0
   -3.4665    2.2638   -0.1067 H   0  0  0  0  0  0  0  0  0  0  0  0
  1  2  1  0
  2  3  1  0
  3  4  1  0
  4  5  1  0
  5  6  1  0
  6  7  1  0
  7  8  2  0
  8  9  1  0
  9 10  1  0
  9 11  2  0
 11 12  1  0
 12 13  2  0
 13 14  1  0
 14 15  2  0
 15 16  1  0
 16 17  2  0
 17 18  1  0
 18 19  1  0
 19 20  2  0
 19 21  1  0
 21 22  2  0
 22 23  1  0
 23 24  2  0
 24 25  1  0
  5 26  1  0
 26 27  1  0
 27  2  1  0
 17  7  1  0
 25 21  1  0
 16 11  1  0
  1 28  1  0
  1 29  1  0
  1 30  1  0
  3 31  1  0
  3 32  1  0
  4 33  1  0
  4 34  1  0
  6 35  1  0
  6 36  1  0
  8 37  1  0
 12 38  1  0
 13 39  1  0
 14 40  1  0
 22 41  1  0
 23 42  1  0
 24 43  1  0
 26 44  1  0
 26 45  1  0
 27 46  1  0
 27 47  1  0
M  END
$$$$
