
     RDKit          3D

 47 49  0  0  0  0  0  0  0  0999 V2000
    5.3427    3.4136   -3.1276 C   0  0  0  0  0  0  0  0  0  0  0  0
    6.0295    2.1699   -3.1734 O   0  0  0  0  0  0  0  0  0  0  0  0
    5.4423    1.1102   -2.5377 C   0  0  0  0  0  0  0  0  0  0  0  0
    6.1946   -0.0643   -2.5520 C   0  0  0  0  0  0  0  0  0  0  0  0
    5.7062   -1.2219   -1.9503 C   0  0  0  0  0  0  0  0  0  0  0  0
    4.4607   -1.2099   -1.3201 C   0  0  0  0  0  0  0  0  0  0  0  0
    3.7048   -0.0378   -1.2738 C   0  0  0  0  0  0  0  0  0  0  0  0
    2.4184    0.0393   -0.6923 N   0  0  0  0  0  0  0  0  0  0  0  0
    1.8276   -0.7181    0.3124 C   0  0  0  0  0  0  0  0  0  0  0  0
    2.6766   -1.5671    1.4932 S   0  0  0  0  0  0  0  0  0  0  0  0
    0.4146   -0.6429    0.2792 N   0  0  0  0  0  0  0  0  0  0  0  0
   -0.3184   -0.1692   -0.9085 C   0  0  0  0  0  0  0  0  0  0  0  0
   -1.6769   -0.8414   -1.1017 C   0  0  0  0  0  0  0  0  0  0  0  0
   -2.5070   -0.6627    0.1368 C   0  0  0  0  0  0  0  0  0  0  0  0
   -3.8907   -0.4567    0.0708 C   0  0  0  0  0  0  0  0  0  0  0  0
   -4.6405   -0.3029    1.2420 C   0  0  0  0  0  0  0  0  0  0  0  0
   -5.9964   -0.0868    1.2725 O   0  0  0  0  0  0  0  0  0  0  0  0
   -6.6886   -0.0546    0.0333 C   0  0  0  0  0  0  0  0  0  0  0  0
   -3.9968   -0.3686    2.4942 C   0  0  0  0  0  0  0  0  0  0  0  0
   -4.8034   -0.2117    3.5947 O   0  0  0  0  0  0  0  0  0  0  0  0
   -4.1906   -0.2528    4.8750 C   0  0  0  0  0  0  0  0  0  0  0  0
   -2.6162   -0.5943    2.5517 C   0  0  0  0  0  0  0  0  0  0  0  0
   -1.8625   -0.7358    1.3770 C   0  0  0  0  0  0  0  0  0  0  0  0
   -0.3865   -1.0519    1.4511 C   0  0  0  0  0  0  0  0  0  0  0  0
    4.1942    1.1159   -1.9082 C   0  0  0  0  0  0  0  0  0  0  0  0
    5.2097    3.7548   -2.0956 H   0  0  0  0  0  0  0  0  0  0  0  0
    5.9581    4.1549   -3.6466 H   0  0  0  0  0  0  0  0  0  0  0  0
    4.3831    3.3526   -3.6512 H   0  0  0  0  0  0  0  0  0  0  0  0
    7.1653   -0.0789   -3.0415 H   0  0  0  0  0  0  0  0  0  0  0  0
    6.2907   -2.1378   -1.9786 H   0  0  0  0  0  0  0  0  0  0  0  0
    4.0921   -2.1417   -0.9040 H   0  0  0  0  0  0  0  0  0  0  0  0
    1.9205    0.8993   -0.8778 H   0  0  0  0  0  0  0  0  0  0  0  0
    0.2813   -0.3352   -1.8098 H   0  0  0  0  0  0  0  0  0  0  0  0
   -0.4441    0.9143   -0.7866 H   0  0  0  0  0  0  0  0  0  0  0  0
   -2.1762   -0.3980   -1.9706 H   0  0  0  0  0  0  0  0  0  0  0  0
   -1.5518   -1.9139   -1.2929 H   0  0  0  0  0  0  0  0  0  0  0  0
   -4.3605   -0.4173   -0.9062 H   0  0  0  0  0  0  0  0  0  0  0  0
   -6.3443    0.7774   -0.5896 H   0  0  0  0  0  0  0  0  0  0  0  0
   -6.5993   -1.0094   -0.4951 H   0  0  0  0  0  0  0  0  0  0  0  0
   -7.7495    0.1082    0.2468 H   0  0  0  0  0  0  0  0  0  0  0  0
   -4.9718   -0.0948    5.6249 H   0  0  0  0  0  0  0  0  0  0  0  0
   -3.7409   -1.2327    5.0660 H   0  0  0  0  0  0  0  0  0  0  0  0
   -3.4551    0.5504    4.9879 H   0  0  0  0  0  0  0  0  0  0  0  0
   -2.1011   -0.6720    3.5041 H   0  0  0  0  0  0  0  0  0  0  0  0
   -0.2780   -2.1369    1.5688 H   0  0  0  0  0  0  0  0  0  0  0  0
    0.0409   -0.5589    2.3324 H   0  0  0  0  0  0  0  0  0  0  0  0
    3.5936    2.0180   -1.8902 H   0  0  0  0  0  0  0  0  0  0  0  0
  1  2  1  0
  2  3  1  0
  3  4  2  0
  4  5  1  0
  5  6  2  0
  6  7  1  0
  7  8  1  0
  8  9  1  0
  9 10  2  0
  9 11  1  0
 11 12  1  0
 12 13  1  0
 13 14  1  0
 14 15  2  0
 15 16  1  0
 16 17  1  0
 17 18  1  0
 16 19  2  0
 19 20  1  0
 20 21  1  0
 19 22  1  0
 22 23  2  0
 23 24  1  0
  7 25  2  0
 25  3  1  0
 24 11  1  0
 23 14  1  0
  1 26  1  0
  1 27  1  0
  1 28  1  0
  4 29  1  0
  5 30  1  0
  6 31  1  0
  8 32  1  0
 12 33  1  0
 12 34  1  0
 13 35  1  0
 13 36  1  0
 15 37  1  0
 18 38  1  0
 18 39  1  0
 18 40  1  0
 21 41  1  0
 21 42  1  0
 21 43  1  0
 22 44  1  0
 24 45  1  0
 24 46  1  0
 25 47  1  0
M  END
$$$$
