
     RDKit          3D

 55 58  0  0  0  0  0  0  0  0999 V2000
    5.9915   -3.0902    2.4630 N   0  0  0  0  0  0  0  0  0  0  0  0
    5.0170   -2.1996    2.8277 C   0  0  0  0  0  0  0  0  0  0  0  0
    5.0594   -1.6290    3.9146 O   0  0  0  0  0  0  0  0  0  0  0  0
    3.9578   -1.9906    1.8261 C   0  0  0  0  0  0  0  0  0  0  0  0
    4.0445   -2.6055    0.6347 N   0  0  0  0  0  0  0  0  0  0  0  0
    2.7507   -2.1636   -0.2980 S   0  0  0  0  0  0  0  0  0  0  0  0
    1.9938   -1.1817    0.8743 C   0  0  0  0  0  0  0  0  0  0  0  0
    0.7743   -0.4605    0.5729 C   0  0  0  0  0  0  0  0  0  0  0  0
    0.7653    0.7730    0.6392 O   0  0  0  0  0  0  0  0  0  0  0  0
   -0.3477   -1.1723    0.1037 N   0  0  0  0  0  0  0  0  0  0  0  0
   -0.5491   -2.5715    0.3266 C   0  0  0  0  0  0  0  0  0  0  0  0
   -0.2279   -3.1640    1.5546 C   0  0  0  0  0  0  0  0  0  0  0  0
   -0.4309   -4.5307    1.7591 C   0  0  0  0  0  0  0  0  0  0  0  0
   -0.9642   -5.3181    0.7424 C   0  0  0  0  0  0  0  0  0  0  0  0
   -1.3019   -4.7391   -0.4785 C   0  0  0  0  0  0  0  0  0  0  0  0
   -1.0999   -3.3727   -0.6844 C   0  0  0  0  0  0  0  0  0  0  0  0
   -1.5125   -0.4261   -0.4368 C   0  0  0  0  0  0  0  0  0  0  0  0
   -1.2173    0.2227   -1.8076 C   0  0  0  0  0  0  0  0  0  0  0  0
   -1.9058   -0.0293   -2.7990 O   0  0  0  0  0  0  0  0  0  0  0  0
   -0.1675    1.1151   -1.8549 N   0  0  0  0  0  0  0  0  0  0  0  0
    0.0996    1.9297   -3.0154 C   0  0  0  0  0  0  0  0  0  0  0  0
   -0.6757    3.2210   -2.9495 C   0  0  0  0  0  0  0  0  0  0  0  0
   -1.9283    3.3278   -3.5761 C   0  0  0  0  0  0  0  0  0  0  0  0
   -2.6651    4.5090   -3.4853 C   0  0  0  0  0  0  0  0  0  0  0  0
   -2.1557    5.5794   -2.7616 C   0  0  0  0  0  0  0  0  0  0  0  0
   -2.8660    6.7111   -2.6700 F   0  0  0  0  0  0  0  0  0  0  0  0
   -0.9225    5.4919   -2.1247 C   0  0  0  0  0  0  0  0  0  0  0  0
   -0.1819    4.3126   -2.2152 C   0  0  0  0  0  0  0  0  0  0  0  0
   -2.0799    0.5591    0.5456 C   0  0  0  0  0  0  0  0  0  0  0  0
   -2.5019    1.8736    0.4682 C   0  0  0  0  0  0  0  0  0  0  0  0
   -2.9584    2.2313    1.7596 C   0  0  0  0  0  0  0  0  0  0  0  0
   -2.8030    1.1147    2.5433 C   0  0  0  0  0  0  0  0  0  0  0  0
   -2.2802    0.0946    1.8183 O   0  0  0  0  0  0  0  0  0  0  0  0
    2.7990   -1.1406    1.9931 C   0  0  0  0  0  0  0  0  0  0  0  0
    2.5158   -0.4157    3.1046 N   0  0  0  0  0  0  0  0  0  0  0  0
    6.7767   -3.2469    3.0764 H   0  0  0  0  0  0  0  0  0  0  0  0
    5.9632   -3.5057    1.5395 H   0  0  0  0  0  0  0  0  0  0  0  0
    0.1454   -2.5710    2.3862 H   0  0  0  0  0  0  0  0  0  0  0  0
   -0.1801   -4.9765    2.7183 H   0  0  0  0  0  0  0  0  0  0  0  0
   -1.1213   -6.3815    0.9032 H   0  0  0  0  0  0  0  0  0  0  0  0
   -1.7174   -5.3527   -1.2742 H   0  0  0  0  0  0  0  0  0  0  0  0
   -1.3473   -2.9572   -1.6590 H   0  0  0  0  0  0  0  0  0  0  0  0
   -2.3332   -1.1313   -0.6246 H   0  0  0  0  0  0  0  0  0  0  0  0
    0.2245    1.4224   -0.9646 H   0  0  0  0  0  0  0  0  0  0  0  0
   -0.1408    1.3781   -3.9301 H   0  0  0  0  0  0  0  0  0  0  0  0
    1.1750    2.1378   -3.0332 H   0  0  0  0  0  0  0  0  0  0  0  0
   -2.3387    2.4821   -4.1282 H   0  0  0  0  0  0  0  0  0  0  0  0
   -3.6332    4.5966   -3.9686 H   0  0  0  0  0  0  0  0  0  0  0  0
   -0.5490    6.3397   -1.5597 H   0  0  0  0  0  0  0  0  0  0  0  0
    0.7791    4.2458   -1.7060 H   0  0  0  0  0  0  0  0  0  0  0  0
   -2.4826    2.5040   -0.4117 H   0  0  0  0  0  0  0  0  0  0  0  0
   -3.3563    3.1846    2.0775 H   0  0  0  0  0  0  0  0  0  0  0  0
   -3.0095    0.8935    3.5811 H   0  0  0  0  0  0  0  0  0  0  0  0
    3.2322   -0.3140    3.8295 H   0  0  0  0  0  0  0  0  0  0  0  0
    1.8881    0.3867    3.0619 H   0  0  0  0  0  0  0  0  0  0  0  0
  1  2  1  0
  2  3  2  0
  2  4  1  0
  4  5  2  0
  5  6  1  0
  6  7  1  0
  7  8  1  0
  8  9  2  0
  8 10  1  0
 10 11  1  0
 11 12  2  0
 12 13  1  0
 13 14  2  0
 14 15  1  0
 15 16  2  0
 10 17  1  0
 17 18  1  0
 18 19  2  0
 18 20  1  0
 20 21  1  0
 21 22  1  0
 22 23  2  0
 23 24  1  0
 24 25  2  0
 25 26  1  0
 25 27  1  0
 27 28  2  0
 17 29  1  0
 29 30  2  0
 30 31  1  0
 31 32  2  0
 32 33  1  0
  7 34  2  0
 34 35  1  0
 34  4  1  0
 16 11  1  0
 28 22  1  0
 33 29  1  0
  1 36  1  0
  1 37  1  0
 12 38  1  0
 13 39  1  0
 14 40  1  0
 15 41  1  0
 16 42  1  0
 17 43  1  0
 20 44  1  0
 21 45  1  0
 21 46  1  0
 23 47  1  0
 24 48  1  0
 27 49  1  0
 28 50  1  0
 30 51  1  0
 31 52  1  0
 32 53  1  0
 35 54  1  0
 35 55  1  0
M  END
$$$$
