
     RDKit          3D

 42 44  0  0  0  0  0  0  0  0999 V2000
    4.5579   -1.3224    1.7550 C   0  0  0  0  0  0  0  0  0  0  0  0
    3.3988   -0.3393    1.7964 C   0  0  0  0  0  0  0  0  0  0  0  0
    2.4392   -0.5553    0.6240 C   0  0  0  0  0  0  0  0  0  0  0  0
    1.2686    0.4307    0.6771 C   0  0  0  0  0  0  0  0  0  0  0  0
    0.3243    0.3973   -0.5547 C   0  0  0  0  0  0  0  0  0  0  0  0
   -0.4291   -0.9142   -0.6606 C   0  0  0  0  0  0  0  0  0  0  0  0
   -1.7106   -1.0272   -0.2621 C   0  0  0  0  0  0  0  0  0  0  0  0
   -2.4955   -2.3060   -0.2815 C   0  0  0  0  0  0  0  0  0  0  0  0
   -1.5804   -3.5225   -0.3335 C   0  0  0  0  0  0  0  0  0  0  0  0
   -0.5550   -3.3787   -1.4449 C   0  0  0  0  0  0  0  0  0  0  0  0
    0.2130   -2.0775   -1.3390 C   0  0  0  0  0  0  0  0  0  0  0  0
    1.3161   -1.9595   -1.8693 O   0  0  0  0  0  0  0  0  0  0  0  0
   -2.4313    0.0644    0.2075 O   0  0  0  0  0  0  0  0  0  0  0  0
   -1.9387    1.3396   -0.0440 C   0  0  0  0  0  0  0  0  0  0  0  0
   -0.6632    1.5424   -0.4221 C   0  0  0  0  0  0  0  0  0  0  0  0
   -0.1997    2.9293   -0.7123 C   0  0  0  0  0  0  0  0  0  0  0  0
    0.9478    3.1350   -1.1020 O   0  0  0  0  0  0  0  0  0  0  0  0
   -1.1516    4.0766   -0.4492 C   0  0  0  0  0  0  0  0  0  0  0  0
   -2.5934    3.6672   -0.7004 C   0  0  0  0  0  0  0  0  0  0  0  0
   -2.9611    2.4278    0.1071 C   0  0  0  0  0  0  0  0  0  0  0  0
    4.1988   -2.3550    1.8117 H   0  0  0  0  0  0  0  0  0  0  0  0
    5.2314   -1.1502    2.6003 H   0  0  0  0  0  0  0  0  0  0  0  0
    5.1353   -1.2093    0.8318 H   0  0  0  0  0  0  0  0  0  0  0  0
    3.7943    0.6828    1.7717 H   0  0  0  0  0  0  0  0  0  0  0  0
    2.8608   -0.4566    2.7443 H   0  0  0  0  0  0  0  0  0  0  0  0
    2.0667   -1.5842    0.6635 H   0  0  0  0  0  0  0  0  0  0  0  0
    2.9843   -0.4299   -0.3188 H   0  0  0  0  0  0  0  0  0  0  0  0
    1.6857    1.4401    0.7869 H   0  0  0  0  0  0  0  0  0  0  0  0
    0.6910    0.2421    1.5931 H   0  0  0  0  0  0  0  0  0  0  0  0
    0.9035    0.5486   -1.4745 H   0  0  0  0  0  0  0  0  0  0  0  0
   -3.1685   -2.2993   -1.1471 H   0  0  0  0  0  0  0  0  0  0  0  0
   -3.1208   -2.3737    0.6165 H   0  0  0  0  0  0  0  0  0  0  0  0
   -2.1735   -4.4315   -0.4832 H   0  0  0  0  0  0  0  0  0  0  0  0
   -1.0637   -3.6317    0.6292 H   0  0  0  0  0  0  0  0  0  0  0  0
    0.1581   -4.2081   -1.3868 H   0  0  0  0  0  0  0  0  0  0  0  0
   -1.0409   -3.4065   -2.4265 H   0  0  0  0  0  0  0  0  0  0  0  0
   -1.0112    4.4077    0.5856 H   0  0  0  0  0  0  0  0  0  0  0  0
   -0.8908    4.9060   -1.1156 H   0  0  0  0  0  0  0  0  0  0  0  0
   -3.2687    4.4920   -0.4469 H   0  0  0  0  0  0  0  0  0  0  0  0
   -2.7314    3.4572   -1.7693 H   0  0  0  0  0  0  0  0  0  0  0  0
   -3.0542    2.6821    1.1696 H   0  0  0  0  0  0  0  0  0  0  0  0
   -3.9420    2.0698   -0.2272 H   0  0  0  0  0  0  0  0  0  0  0  0
  1  2  1  0
  2  3  1  0
  3  4  1  0
  4  5  1  0
  5  6  1  0
  6  7  2  0
  7  8  1  0
  8  9  1  0
  9 10  1  0
 10 11  1  0
 11 12  2  0
  7 13  1  0
 13 14  1  0
 14 15  2  0
 15 16  1  0
 16 17  2  0
 16 18  1  0
 18 19  1  0
 19 20  1  0
 15  5  1  0
 11  6  1  0
 20 14  1  0
  1 21  1  0
  1 22  1  0
  1 23  1  0
  2 24  1  0
  2 25  1  0
  3 26  1  0
  3 27  1  0
  4 28  1  0
  4 29  1  0
  5 30  1  0
  8 31  1  0
  8 32  1  0
  9 33  1  0
  9 34  1  0
 10 35  1  0
 10 36  1  0
 18 37  1  0
 18 38  1  0
 19 39  1  0
 19 40  1  0
 20 41  1  0
 20 42  1  0
M  END
$$$$
