
     RDKit          3D

 43 45  0  0  0  0  0  0  0  0999 V2000
   -5.5556   -0.8254    0.9225 C   0  0  0  0  0  0  0  0  0  0  0  0
   -4.8814   -1.4002   -0.2406 N   0  0  0  0  0  0  0  0  0  0  0  0
   -4.4490   -0.3514   -1.1942 C   0  0  0  0  0  0  0  0  0  0  0  0
   -3.2470    0.5066   -0.7262 C   0  0  0  0  0  0  0  0  0  0  0  0
   -2.1156   -0.3689   -0.3579 N   0  0  0  0  0  0  0  0  0  0  0  0
   -0.8564    0.2030   -0.1633 C   0  0  0  0  0  0  0  0  0  0  0  0
    0.2108   -0.4181   -0.8403 C   0  0  0  0  0  0  0  0  0  0  0  0
    1.5279    0.0521   -0.7511 C   0  0  0  0  0  0  0  0  0  0  0  0
    1.8213    1.1610    0.0454 C   0  0  0  0  0  0  0  0  0  0  0  0
    3.1963    1.7088    0.1571 C   0  0  0  0  0  0  0  0  0  0  0  0
    3.3411    2.9185    0.3096 O   0  0  0  0  0  0  0  0  0  0  0  0
    4.3966    0.8390    0.0903 C   0  0  0  0  0  0  0  0  0  0  0  0
    5.5495    1.3423   -0.5255 C   0  0  0  0  0  0  0  0  0  0  0  0
    6.7047    0.5605   -0.5965 C   0  0  0  0  0  0  0  0  0  0  0  0
    6.7084   -0.7174   -0.0392 C   0  0  0  0  0  0  0  0  0  0  0  0
    8.2709   -1.7767   -0.1331 Br  0  0  0  0  0  0  0  0  0  0  0  0
    5.5713   -1.2180    0.5954 C   0  0  0  0  0  0  0  0  0  0  0  0
    4.4142   -0.4372    0.6671 C   0  0  0  0  0  0  0  0  0  0  0  0
    0.7902    1.8105    0.7256 C   0  0  0  0  0  0  0  0  0  0  0  0
   -0.5217    1.3203    0.6202 C   0  0  0  0  0  0  0  0  0  0  0  0
   -1.5140    2.0020    1.4163 N   0  0  0  0  0  4  0  0  0  0  0  0
   -1.8624    1.4589    2.4738 O   0  0  0  0  0  0  0  0  0  0  0  0
   -1.9216    3.0926    0.9938 O   0  0  0  0  0  1  0  0  0  0  0  0
   -2.4722   -1.4032    0.6385 C   0  0  0  0  0  0  0  0  0  0  0  0
   -3.7061   -2.2079    0.1581 C   0  0  0  0  0  0  0  0  0  0  0  0
   -6.4408   -0.2612    0.6086 H   0  0  0  0  0  0  0  0  0  0  0  0
   -5.9138   -1.6218    1.5844 H   0  0  0  0  0  0  0  0  0  0  0  0
   -4.9178   -0.1580    1.5106 H   0  0  0  0  0  0  0  0  0  0  0  0
   -4.1750   -0.8495   -2.1338 H   0  0  0  0  0  0  0  0  0  0  0  0
   -5.2941    0.3030   -1.4406 H   0  0  0  0  0  0  0  0  0  0  0  0
   -2.9517    1.1745   -1.5442 H   0  0  0  0  0  0  0  0  0  0  0  0
   -3.5660    1.1239    0.1181 H   0  0  0  0  0  0  0  0  0  0  0  0
    0.0027   -1.2793   -1.4756 H   0  0  0  0  0  0  0  0  0  0  0  0
    2.3000   -0.4488   -1.3304 H   0  0  0  0  0  0  0  0  0  0  0  0
    5.5503    2.3453   -0.9491 H   0  0  0  0  0  0  0  0  0  0  0  0
    7.5929    0.9594   -1.0802 H   0  0  0  0  0  0  0  0  0  0  0  0
    5.5802   -2.2082    1.0448 H   0  0  0  0  0  0  0  0  0  0  0  0
    3.5470   -0.8301    1.1917 H   0  0  0  0  0  0  0  0  0  0  0  0
    1.0072    2.6854    1.3372 H   0  0  0  0  0  0  0  0  0  0  0  0
   -2.6823   -0.9427    1.6103 H   0  0  0  0  0  0  0  0  0  0  0  0
   -1.6396   -2.1042    0.7776 H   0  0  0  0  0  0  0  0  0  0  0  0
   -3.4071   -2.8046   -0.7141 H   0  0  0  0  0  0  0  0  0  0  0  0
   -3.9925   -2.9348    0.9281 H   0  0  0  0  0  0  0  0  0  0  0  0
  1  2  1  0
  2  3  1  0
  3  4  1  0
  4  5  1  0
  5  6  1  0
  6  7  2  0
  7  8  1  0
  8  9  2  0
  9 10  1  0
 10 11  2  0
 10 12  1  0
 12 13  2  0
 13 14  1  0
 14 15  2  0
 15 16  1  0
 15 17  1  0
 17 18  2  0
  9 19  1  0
 19 20  2  0
 20 21  1  0
 21 22  2  0
 21 23  1  0
  5 24  1  0
 24 25  1  0
 25  2  1  0
 20  6  1  0
 18 12  1  0
  1 26  1  0
  1 27  1  0
  1 28  1  0
  3 29  1  0
  3 30  1  0
  4 31  1  0
  4 32  1  0
  7 33  1  0
  8 34  1  0
 13 35  1  0
 14 36  1  0
 17 37  1  0
 18 38  1  0
 19 39  1  0
 24 40  1  0
 24 41  1  0
 25 42  1  0
 25 43  1  0
M  CHG  2  21   1  23  -1
M  END
$$$$
