
     RDKit          3D

 42 44  0  0  0  0  0  0  0  0999 V2000
   -4.8584    2.1976   -0.0123 C   0  0  0  0  0  0  0  0  0  0  0  0
   -4.7238    0.7061   -0.3691 C   0  0  0  0  0  0  0  0  0  0  0  0
   -5.2778    0.4946   -1.7867 C   0  0  0  0  0  0  0  0  0  0  0  0
   -5.5408   -0.1109    0.6439 C   0  0  0  0  0  0  0  0  0  0  0  0
   -3.3042    0.3501   -0.3039 N   0  0  0  0  0  0  0  0  0  0  0  0
   -2.7691   -0.9005   -0.5579 C   0  0  0  0  0  0  0  0  0  0  0  0
   -3.4352   -1.8797   -0.8778 O   0  0  0  0  0  0  0  0  0  0  0  0
   -1.2978   -0.9246   -0.3992 C   0  0  0  0  0  0  0  0  0  0  0  0
   -0.5904    0.2043   -0.0384 N   0  0  0  0  0  0  0  0  0  0  0  0
    0.6565   -0.2040    0.0018 C   0  0  0  0  0  0  0  0  0  0  0  0
    1.7763    0.5091    0.3092 N   0  0  0  0  0  0  0  0  0  0  0  0
    2.9107   -0.1300    0.2906 C   0  0  0  0  0  0  0  0  0  0  0  0
    4.1631    0.6075    0.6272 C   0  0  0  0  0  0  0  0  0  0  0  0
    5.2290   -0.0063    1.2974 C   0  0  0  0  0  0  0  0  0  0  0  0
    6.3821    0.7250    1.5942 C   0  0  0  0  0  0  0  0  0  0  0  0
    6.4722    2.0687    1.2326 C   0  0  0  0  0  0  0  0  0  0  0  0
    5.4076    2.6890    0.5812 C   0  0  0  0  0  0  0  0  0  0  0  0
    4.2533    1.9629    0.2831 C   0  0  0  0  0  0  0  0  0  0  0  0
    3.0576   -1.5760   -0.0768 C   0  0  0  0  0  0  0  0  0  0  0  0
    1.9221   -2.2374   -0.3737 C   0  0  0  0  0  0  0  0  0  0  0  0
    1.8726   -3.6645   -0.7638 C   0  0  0  0  0  0  0  0  0  0  0  0
    1.3777   -3.8501   -2.0109 F   0  0  0  0  0  0  0  0  0  0  0  0
    1.1432   -4.4164    0.0951 F   0  0  0  0  0  0  0  0  0  0  0  0
    3.1203   -4.2140   -0.7719 F   0  0  0  0  0  0  0  0  0  0  0  0
    0.7113   -1.5621   -0.3324 N   0  0  0  0  0  0  0  0  0  0  0  0
   -0.5351   -2.0127   -0.5854 N   0  0  0  0  0  0  0  0  0  0  0  0
   -5.9035    2.5250   -0.0441 H   0  0  0  0  0  0  0  0  0  0  0  0
   -4.2883    2.8231   -0.7093 H   0  0  0  0  0  0  0  0  0  0  0  0
   -4.4731    2.3990    0.9941 H   0  0  0  0  0  0  0  0  0  0  0  0
   -5.2643   -0.5605   -2.0783 H   0  0  0  0  0  0  0  0  0  0  0  0
   -4.6852    1.0451   -2.5265 H   0  0  0  0  0  0  0  0  0  0  0  0
   -6.3151    0.8400   -1.8617 H   0  0  0  0  0  0  0  0  0  0  0  0
   -5.5324   -1.1801    0.4092 H   0  0  0  0  0  0  0  0  0  0  0  0
   -5.1385    0.0038    1.6571 H   0  0  0  0  0  0  0  0  0  0  0  0
   -6.5882    0.2113    0.6591 H   0  0  0  0  0  0  0  0  0  0  0  0
   -2.6242    1.0617   -0.0455 H   0  0  0  0  0  0  0  0  0  0  0  0
    5.1767   -1.0412    1.6226 H   0  0  0  0  0  0  0  0  0  0  0  0
    7.2087    0.2498    2.1176 H   0  0  0  0  0  0  0  0  0  0  0  0
    7.3694    2.6366    1.4681 H   0  0  0  0  0  0  0  0  0  0  0  0
    5.4730    3.7398    0.3091 H   0  0  0  0  0  0  0  0  0  0  0  0
    3.4268    2.4611   -0.2201 H   0  0  0  0  0  0  0  0  0  0  0  0
    4.0353   -2.0397   -0.1243 H   0  0  0  0  0  0  0  0  0  0  0  0
  1  2  1  0
  2  3  1  0
  2  4  1  0
  2  5  1  0
  5  6  1  0
  6  7  2  0
  6  8  1  0
  8  9  1  0
  9 10  2  0
 10 11  1  0
 11 12  2  0
 12 13  1  0
 13 14  2  0
 14 15  1  0
 15 16  2  0
 16 17  1  0
 17 18  2  0
 12 19  1  0
 19 20  2  0
 20 21  1  0
 21 22  1  0
 21 23  1  0
 21 24  1  0
 20 25  1  0
 25 26  1  0
 26  8  2  0
 25 10  1  0
 18 13  1  0
  1 27  1  0
  1 28  1  0
  1 29  1  0
  3 30  1  0
  3 31  1  0
  3 32  1  0
  4 33  1  0
  4 34  1  0
  4 35  1  0
  5 36  1  0
 14 37  1  0
 15 38  1  0
 16 39  1  0
 17 40  1  0
 18 41  1  0
 19 42  1  0
M  END
$$$$
