
     RDKit          3D

 60 64  0  0  0  0  0  0  0  0999 V2000
   -0.5152   -0.0675   -1.0536 O   0  0  0  0  0  0  0  0  0  0  0  0
   -1.4777    0.4479   -0.4855 C   0  0  0  0  0  0  0  0  0  0  0  0
   -1.5580    1.9517   -0.2616 C   0  0  0  0  0  0  0  0  0  0  0  0
   -0.4837    2.7530   -1.0103 C   0  0  0  0  0  0  0  0  0  0  0  0
    0.8905    2.4350   -0.6232 N   0  0  0  0  0  0  0  0  0  0  0  0
    1.2850    2.7513    0.6653 C   0  0  0  0  0  0  0  0  0  0  0  0
    0.5869    3.3816    1.4578 O   0  0  0  0  0  0  0  0  0  0  0  0
    2.6176    2.2926    1.0816 C   0  0  0  0  0  0  0  0  0  0  0  0
    3.0320    2.5114    2.4058 C   0  0  0  0  0  0  0  0  0  0  0  0
    4.2781    2.0636    2.8303 C   0  0  0  0  0  0  0  0  0  0  0  0
    5.1057    1.4009    1.9323 C   0  0  0  0  0  0  0  0  0  0  0  0
    4.6880    1.1876    0.6126 C   0  0  0  0  0  0  0  0  0  0  0  0
    3.4325    1.6285    0.1653 C   0  0  0  0  0  0  0  0  0  0  0  0
    2.9810    1.4545   -1.1732 N   0  0  0  0  0  0  0  0  0  0  0  0
    3.7625    0.6869   -2.1493 C   0  0  0  0  0  0  0  0  0  0  0  0
    3.5230   -0.8087   -2.0340 C   0  0  0  0  0  0  0  0  0  0  0  0
    4.5475   -1.6764   -1.6221 C   0  0  0  0  0  0  0  0  0  0  0  0
    4.3099   -3.0456   -1.4630 C   0  0  0  0  0  0  0  0  0  0  0  0
    3.0447   -3.5721   -1.7184 C   0  0  0  0  0  0  0  0  0  0  0  0
    2.0268   -2.7180   -2.1532 C   0  0  0  0  0  0  0  0  0  0  0  0
    0.6992   -3.2652   -2.4225 N   0  0  0  0  0  4  0  0  0  0  0  0
    0.3367   -4.2390   -1.7442 O   0  0  0  0  0  0  0  0  0  0  0  0
    0.0283   -2.7441   -3.3247 O   0  0  0  0  0  1  0  0  0  0  0  0
    2.2585   -1.3497   -2.3245 C   0  0  0  0  0  0  0  0  0  0  0  0
    1.7395    1.9265   -1.5989 C   0  0  0  0  0  0  0  0  0  0  0  0
    1.4193    1.8993   -2.7906 O   0  0  0  0  0  0  0  0  0  0  0  0
   -2.5217   -0.3192    0.0262 N   0  0  0  0  0  0  0  0  0  0  0  0
   -2.5576   -1.7437   -0.3020 C   0  0  0  0  0  0  0  0  0  0  0  0
   -3.0404   -2.5766    0.8813 C   0  0  0  0  0  0  0  0  0  0  0  0
   -4.3405   -2.0487    1.4282 C   0  0  0  0  0  0  0  0  0  0  0  0
   -5.1970   -2.8951    2.1451 C   0  0  0  0  0  0  0  0  0  0  0  0
   -6.3900   -2.4060    2.6753 C   0  0  0  0  0  0  0  0  0  0  0  0
   -6.7315   -1.0673    2.5022 C   0  0  0  0  0  0  0  0  0  0  0  0
   -5.8775   -0.2144    1.8026 C   0  0  0  0  0  0  0  0  0  0  0  0
   -4.6721   -0.6924    1.2647 C   0  0  0  0  0  0  0  0  0  0  0  0
   -3.7720    0.2618    0.5144 C   0  0  0  0  0  0  0  0  0  0  0  0
   -1.4958    2.1335    0.8158 H   0  0  0  0  0  0  0  0  0  0  0  0
   -2.5325    2.3078   -0.6134 H   0  0  0  0  0  0  0  0  0  0  0  0
   -0.6417    3.8197   -0.8072 H   0  0  0  0  0  0  0  0  0  0  0  0
   -0.6305    2.6131   -2.0866 H   0  0  0  0  0  0  0  0  0  0  0  0
    2.3792    3.0268    3.1079 H   0  0  0  0  0  0  0  0  0  0  0  0
    4.5993    2.2301    3.8553 H   0  0  0  0  0  0  0  0  0  0  0  0
    6.0832    1.0489    2.2550 H   0  0  0  0  0  0  0  0  0  0  0  0
    5.3853    0.6763   -0.0401 H   0  0  0  0  0  0  0  0  0  0  0  0
    3.5013    0.9867   -3.1720 H   0  0  0  0  0  0  0  0  0  0  0  0
    4.8255    0.9357   -2.0596 H   0  0  0  0  0  0  0  0  0  0  0  0
    5.5440   -1.2935   -1.4117 H   0  0  0  0  0  0  0  0  0  0  0  0
    5.1129   -3.7005   -1.1311 H   0  0  0  0  0  0  0  0  0  0  0  0
    2.8658   -4.6359   -1.5822 H   0  0  0  0  0  0  0  0  0  0  0  0
    1.4498   -0.7024   -2.6606 H   0  0  0  0  0  0  0  0  0  0  0  0
   -3.2278   -1.8604   -1.1631 H   0  0  0  0  0  0  0  0  0  0  0  0
   -1.5703   -2.1013   -0.6096 H   0  0  0  0  0  0  0  0  0  0  0  0
   -3.1561   -3.6184    0.5610 H   0  0  0  0  0  0  0  0  0  0  0  0
   -2.2950   -2.5493    1.6853 H   0  0  0  0  0  0  0  0  0  0  0  0
   -4.9380   -3.9414    2.2918 H   0  0  0  0  0  0  0  0  0  0  0  0
   -7.0521   -3.0695    3.2253 H   0  0  0  0  0  0  0  0  0  0  0  0
   -7.6618   -0.6865    2.9155 H   0  0  0  0  0  0  0  0  0  0  0  0
   -6.1570    0.8300    1.6810 H   0  0  0  0  0  0  0  0  0  0  0  0
   -4.3102    0.6410   -0.3626 H   0  0  0  0  0  0  0  0  0  0  0  0
   -3.5361    1.1066    1.1694 H   0  0  0  0  0  0  0  0  0  0  0  0
  1  2  2  0
  2  3  1  0
  3  4  1  0
  4  5  1  0
  5  6  1  0
  6  7  2  0
  6  8  1  0
  8  9  2  0
  9 10  1  0
 10 11  2  0
 11 12  1  0
 12 13  2  0
 13 14  1  0
 14 15  1  0
 15 16  1  0
 16 17  2  0
 17 18  1  0
 18 19  2  0
 19 20  1  0
 20 21  1  0
 21 22  2  0
 21 23  1  0
 20 24  2  0
 14 25  1  0
 25 26  2  0
  2 27  1  0
 27 28  1  0
 28 29  1  0
 29 30  1  0
 30 31  2  0
 31 32  1  0
 32 33  2  0
 33 34  1  0
 34 35  2  0
 35 36  1  0
 25  5  1  0
 36 27  1  0
 13  8  1  0
 24 16  1  0
 35 30  1  0
  3 37  1  0
  3 38  1  0
  4 39  1  0
  4 40  1  0
  9 41  1  0
 10 42  1  0
 11 43  1  0
 12 44  1  0
 15 45  1  0
 15 46  1  0
 17 47  1  0
 18 48  1  0
 19 49  1  0
 24 50  1  0
 28 51  1  0
 28 52  1  0
 29 53  1  0
 29 54  1  0
 31 55  1  0
 32 56  1  0
 33 57  1  0
 34 58  1  0
 36 59  1  0
 36 60  1  0
M  CHG  2  21   1  23  -1
M  END
$$$$
