
     RDKit          3D

 35 36  0  0  0  0  0  0  0  0999 V2000
   -6.4937    0.8132    2.2372 C   0  0  0  0  0  0  0  0  0  0  0  0
   -5.2887    0.5899    1.3413 C   0  0  0  0  0  0  0  0  0  0  0  0
   -4.1410    0.4398    2.1764 O   0  0  0  0  0  0  0  0  0  0  0  0
   -2.9354    0.2522    1.5634 C   0  0  0  0  0  0  0  0  0  0  0  0
   -1.8490    0.1556    2.4295 C   0  0  0  0  0  0  0  0  0  0  0  0
   -0.5489   -0.0383    1.9447 C   0  0  0  0  0  0  0  0  0  0  0  0
   -0.2947   -0.1427    0.5732 C   0  0  0  0  0  0  0  0  0  0  0  0
    1.0195   -0.3414    0.0755 N   0  0  0  0  0  0  0  0  0  0  0  0
    2.2161   -0.3959    0.7753 C   0  0  0  0  0  0  0  0  0  0  0  0
    2.3501   -0.2771    1.9898 O   0  0  0  0  0  0  0  0  0  0  0  0
    3.4140   -0.6656   -0.1204 C   0  0  0  0  0  0  0  0  0  0  0  0
    3.7130    0.7674   -1.1876 S   0  0  0  0  0  0  0  0  0  0  0  0
    5.0864    0.2134   -2.1003 C   0  0  0  0  0  0  0  0  0  0  0  0
    5.7443    1.0253   -2.9831 N   0  0  0  0  0  0  0  0  0  0  0  0
    6.6891    0.2497   -3.4580 C   0  0  0  0  0  0  0  0  0  0  0  0
    6.5958   -0.9768   -2.8838 N   0  0  0  0  0  0  0  0  0  0  0  0
    5.5745   -1.0288   -2.0130 N   0  0  0  0  0  0  0  0  0  0  0  0
   -1.4058   -0.0445   -0.2978 C   0  0  0  0  0  0  0  0  0  0  0  0
   -1.2504   -0.1363   -1.7586 N   0  0  0  0  0  4  0  0  0  0  0  0
   -0.1829   -0.5836   -2.2065 O   0  0  0  0  0  0  0  0  0  0  0  0
   -2.1978    0.2350   -2.4661 O   0  0  0  0  0  1  0  0  0  0  0  0
   -2.7152    0.1506    0.1946 C   0  0  0  0  0  0  0  0  0  0  0  0
   -7.4040    0.9342    1.6434 H   0  0  0  0  0  0  0  0  0  0  0  0
   -6.3538    1.7058    2.8560 H   0  0  0  0  0  0  0  0  0  0  0  0
   -6.6272   -0.0313    2.9214 H   0  0  0  0  0  0  0  0  0  0  0  0
   -5.4469   -0.3180    0.7479 H   0  0  0  0  0  0  0  0  0  0  0  0
   -5.1679    1.4561    0.6805 H   0  0  0  0  0  0  0  0  0  0  0  0
   -2.0085    0.2328    3.5039 H   0  0  0  0  0  0  0  0  0  0  0  0
    0.2436   -0.1053    2.6844 H   0  0  0  0  0  0  0  0  0  0  0  0
    1.1047   -0.4239   -0.9399 H   0  0  0  0  0  0  0  0  0  0  0  0
    4.2866   -0.8543    0.5138 H   0  0  0  0  0  0  0  0  0  0  0  0
    3.2108   -1.5640   -0.7133 H   0  0  0  0  0  0  0  0  0  0  0  0
    7.4386    0.5128   -4.1907 H   0  0  0  0  0  0  0  0  0  0  0  0
    7.1706   -1.7991   -3.0309 H   0  0  0  0  0  0  0  0  0  0  0  0
   -3.5458    0.2182   -0.5017 H   0  0  0  0  0  0  0  0  0  0  0  0
  1  2  1  0
  2  3  1  0
  3  4  1  0
  4  5  2  0
  5  6  1  0
  6  7  2  0
  7  8  1  0
  8  9  1  0
  9 10  2  0
  9 11  1  0
 11 12  1  0
 12 13  1  0
 13 14  1  0
 14 15  2  0
 15 16  1  0
 16 17  1  0
  7 18  1  0
 18 19  1  0
 19 20  2  0
 19 21  1  0
 18 22  2  0
 22  4  1  0
 17 13  2  0
  1 23  1  0
  1 24  1  0
  1 25  1  0
  2 26  1  0
  2 27  1  0
  5 28  1  0
  6 29  1  0
  8 30  1  0
 11 31  1  0
 11 32  1  0
 15 33  1  0
 16 34  1  0
 22 35  1  0
M  CHG  2  19   1  21  -1
M  END
$$$$
