
     RDKit          3D

 38 40  0  0  0  0  0  0  0  0999 V2000
    3.5847    0.3048   -3.1351 N   0  0  0  0  0  0  0  0  0  0  0  0
    3.2578    0.2096   -2.0249 C   0  0  0  0  0  0  0  0  0  0  0  0
    2.8843    0.0325   -0.6655 C   0  0  0  0  0  0  0  0  0  0  0  0
    3.7124   -0.3316    0.3326 C   0  0  0  0  0  0  0  0  0  0  0  0
    5.0907   -0.6789    0.1885 C   0  0  0  0  0  0  0  0  0  0  0  0
    5.8073   -1.2399   -0.8594 C   0  0  0  0  0  0  0  0  0  0  0  0
    7.1932   -1.4235   -0.5620 C   0  0  0  0  0  0  0  0  0  0  0  0
    7.4838   -1.0130    0.7105 C   0  0  0  0  0  0  0  0  0  0  0  0
    9.2322   -1.1060    1.4755 Br  0  0  0  0  0  0  0  0  0  0  0  0
    6.1386   -0.4243    1.5454 S   0  0  0  0  0  0  0  0  0  0  0  0
    1.4815    0.3843   -0.3081 C   0  0  0  0  0  0  0  0  0  0  0  0
    0.9505    1.4009   -0.7384 O   0  0  0  0  0  0  0  0  0  0  0  0
    0.8341   -0.5329    0.4923 N   0  0  0  0  0  0  0  0  0  0  0  0
   -0.5602   -0.3534    0.8646 C   0  0  0  0  0  0  0  0  0  0  0  0
   -1.5216   -0.7626   -0.2548 C   0  0  0  0  0  0  0  0  0  0  0  0
   -2.9528   -0.6035    0.1462 C   0  0  0  0  0  0  0  0  0  0  0  0
   -3.8070   -1.6016    0.5727 C   0  0  0  0  0  0  0  0  0  0  0  0
   -5.0261   -1.0380    0.8404 N   0  0  0  0  0  0  0  0  0  0  0  0
   -4.9883    0.3157    0.6020 C   0  0  0  0  0  0  0  0  0  0  0  0
   -5.9890    1.2851    0.7398 C   0  0  0  0  0  0  0  0  0  0  0  0
   -5.6611    2.6050    0.4159 C   0  0  0  0  0  0  0  0  0  0  0  0
   -4.3839    2.9387   -0.0283 C   0  0  0  0  0  0  0  0  0  0  0  0
   -3.3954    1.9568   -0.1606 C   0  0  0  0  0  0  0  0  0  0  0  0
   -3.7003    0.6180    0.1608 C   0  0  0  0  0  0  0  0  0  0  0  0
    3.3269   -0.3269    1.3523 H   0  0  0  0  0  0  0  0  0  0  0  0
    5.3766   -1.5209   -1.8136 H   0  0  0  0  0  0  0  0  0  0  0  0
    7.9188   -1.8372   -1.2518 H   0  0  0  0  0  0  0  0  0  0  0  0
    1.2641   -1.4254    0.6992 H   0  0  0  0  0  0  0  0  0  0  0  0
   -0.7312   -0.9603    1.7608 H   0  0  0  0  0  0  0  0  0  0  0  0
   -0.7127    0.6965    1.1410 H   0  0  0  0  0  0  0  0  0  0  0  0
   -1.3283   -0.1698   -1.1574 H   0  0  0  0  0  0  0  0  0  0  0  0
   -1.3308   -1.8067   -0.5350 H   0  0  0  0  0  0  0  0  0  0  0  0
   -3.6538   -2.6645    0.7039 H   0  0  0  0  0  0  0  0  0  0  0  0
   -5.8420   -1.5379    1.1645 H   0  0  0  0  0  0  0  0  0  0  0  0
   -6.9856    1.0288    1.0833 H   0  0  0  0  0  0  0  0  0  0  0  0
   -6.4157    3.3824    0.5107 H   0  0  0  0  0  0  0  0  0  0  0  0
   -4.1491    3.9707   -0.2772 H   0  0  0  0  0  0  0  0  0  0  0  0
   -2.4025    2.2287   -0.5101 H   0  0  0  0  0  0  0  0  0  0  0  0
  1  2  3  0
  2  3  1  0
  3  4  2  3
  4  5  1  0
  5  6  2  0
  6  7  1  0
  7  8  2  0
  8  9  1  0
  8 10  1  0
  3 11  1  0
 11 12  2  0
 11 13  1  0
 13 14  1  0
 14 15  1  0
 15 16  1  0
 16 17  2  0
 17 18  1  0
 18 19  1  0
 19 20  2  0
 20 21  1  0
 21 22  2  0
 22 23  1  0
 23 24  2  0
 10  5  1  0
 24 16  1  0
 24 19  1  0
  4 25  1  0
  6 26  1  0
  7 27  1  0
 13 28  1  0
 14 29  1  0
 14 30  1  0
 15 31  1  0
 15 32  1  0
 17 33  1  0
 18 34  1  0
 20 35  1  0
 21 36  1  0
 22 37  1  0
 23 38  1  0
M  END
$$$$
