
     RDKit          3D

 66 68  0  0  0  0  0  0  0  0999 V2000
   -1.5415   -5.4897    2.0818 C   0  0  0  0  0  0  0  0  0  0  0  0
   -1.4336   -4.1624    2.8112 C   0  0  0  0  0  0  0  0  0  0  0  0
   -1.3160   -2.9905    1.8447 C   0  0  0  0  0  0  0  0  0  0  0  0
   -1.2415   -1.7989    2.6089 O   0  0  0  0  0  0  0  0  0  0  0  0
   -0.8730   -0.3483    1.9687 P   0  0  0  0  0  5  0  0  0  0  0  0
   -1.5001    0.7249    2.8298 O   0  0  0  0  0  0  0  0  0  0  0  0
    0.9007   -0.2430    1.8517 C   0  0  0  0  0  0  0  0  0  0  0  0
    1.4852    0.9668    1.4687 C   0  0  0  0  0  0  0  0  0  0  0  0
    2.8756    1.0890    1.3326 C   0  0  0  0  0  0  0  0  0  0  0  0
    3.7518    0.0224    1.5919 C   0  0  0  0  0  0  0  0  0  0  0  0
    5.1388    0.1458    1.4265 N   0  0  0  0  0  0  0  0  0  0  0  0
    6.0052   -0.9425    1.8783 C   0  0  0  0  0  0  0  0  0  0  0  0
    5.7238    1.4842    1.5204 C   0  0  0  0  0  0  0  0  0  0  0  0
    3.1429   -1.1808    1.9863 C   0  0  0  0  0  0  0  0  0  0  0  0
    1.7523   -1.3107    2.1284 C   0  0  0  0  0  0  0  0  0  0  0  0
   -1.6121   -0.3369    0.2399 C   0  0  0  0  0  0  0  0  0  0  0  0
   -0.8767   -1.3236   -0.5786 N   0  0  0  0  0  0  0  0  0  0  0  0
   -1.3805   -1.8469   -1.7669 C   0  0  0  0  0  0  0  0  0  0  0  0
   -2.7198   -1.7590   -2.1587 C   0  0  0  0  0  0  0  0  0  0  0  0
   -3.1706   -2.3601   -3.3408 C   0  0  0  0  0  0  0  0  0  0  0  0
   -2.2918   -3.0866   -4.1380 C   0  0  0  0  0  0  0  0  0  0  0  0
   -0.9643   -3.2198   -3.7471 C   0  0  0  0  0  0  0  0  0  0  0  0
   -0.5201   -2.6143   -2.5679 C   0  0  0  0  0  0  0  0  0  0  0  0
   -1.6433    1.0497   -0.3937 C   0  0  0  0  0  0  0  0  0  0  0  0
   -2.6119    1.9651    0.0317 C   0  0  0  0  0  0  0  0  0  0  0  0
   -2.6693    3.2635   -0.4984 C   0  0  0  0  0  0  0  0  0  0  0  0
   -1.7569    3.7188   -1.4615 C   0  0  0  0  0  0  0  0  0  0  0  0
   -1.8074    5.0090   -2.0093 N   0  0  0  0  0  0  0  0  0  0  0  0
   -0.5226    5.6408   -2.3164 C   0  0  0  0  0  0  0  0  0  0  0  0
   -2.8574    5.9257   -1.5651 C   0  0  0  0  0  0  0  0  0  0  0  0
   -0.7990    2.7837   -1.8849 C   0  0  0  0  0  0  0  0  0  0  0  0
   -0.7327    1.4828   -1.3616 C   0  0  0  0  0  0  0  0  0  0  0  0
   -2.4092   -5.5018    1.4152 H   0  0  0  0  0  0  0  0  0  0  0  0
   -0.6455   -5.6814    1.4842 H   0  0  0  0  0  0  0  0  0  0  0  0
   -1.6536   -6.3086    2.7994 H   0  0  0  0  0  0  0  0  0  0  0  0
   -2.3095   -4.0175    3.4567 H   0  0  0  0  0  0  0  0  0  0  0  0
   -0.5653   -4.1744    3.4805 H   0  0  0  0  0  0  0  0  0  0  0  0
   -0.4212   -3.1071    1.2285 H   0  0  0  0  0  0  0  0  0  0  0  0
   -2.2034   -2.9509    1.2054 H   0  0  0  0  0  0  0  0  0  0  0  0
    0.8578    1.8368    1.2768 H   0  0  0  0  0  0  0  0  0  0  0  0
    3.2502    2.0550    1.0098 H   0  0  0  0  0  0  0  0  0  0  0  0
    5.7545   -1.8868    1.3794 H   0  0  0  0  0  0  0  0  0  0  0  0
    5.9389   -1.0705    2.9659 H   0  0  0  0  0  0  0  0  0  0  0  0
    7.0538   -0.7405    1.6286 H   0  0  0  0  0  0  0  0  0  0  0  0
    5.3936    2.1216    0.6937 H   0  0  0  0  0  0  0  0  0  0  0  0
    6.8177    1.4429    1.4493 H   0  0  0  0  0  0  0  0  0  0  0  0
    5.4736    1.9594    2.4751 H   0  0  0  0  0  0  0  0  0  0  0  0
    3.7373   -2.0614    2.2107 H   0  0  0  0  0  0  0  0  0  0  0  0
    1.3544   -2.2623    2.4688 H   0  0  0  0  0  0  0  0  0  0  0  0
   -2.6426   -0.6767    0.3980 H   0  0  0  0  0  0  0  0  0  0  0  0
    0.1236   -1.1444   -0.6232 H   0  0  0  0  0  0  0  0  0  0  0  0
   -3.4467   -1.2095   -1.5679 H   0  0  0  0  0  0  0  0  0  0  0  0
   -4.2121   -2.2586   -3.6344 H   0  0  0  0  0  0  0  0  0  0  0  0
   -2.6411   -3.5500   -5.0580 H   0  0  0  0  0  0  0  0  0  0  0  0
   -0.2708   -3.7942   -4.3557 H   0  0  0  0  0  0  0  0  0  0  0  0
    0.5206   -2.7461   -2.2783 H   0  0  0  0  0  0  0  0  0  0  0  0
   -3.3345    1.6879    0.7979 H   0  0  0  0  0  0  0  0  0  0  0  0
   -3.4488    3.9138   -0.1127 H   0  0  0  0  0  0  0  0  0  0  0  0
    0.1273    5.6619   -1.4324 H   0  0  0  0  0  0  0  0  0  0  0  0
   -0.0065    5.1300   -3.1361 H   0  0  0  0  0  0  0  0  0  0  0  0
   -0.6634    6.6763   -2.6475 H   0  0  0  0  0  0  0  0  0  0  0  0
   -3.8519    5.4842   -1.6969 H   0  0  0  0  0  0  0  0  0  0  0  0
   -2.7171    6.2136   -0.5168 H   0  0  0  0  0  0  0  0  0  0  0  0
   -2.8513    6.8403   -2.1688 H   0  0  0  0  0  0  0  0  0  0  0  0
   -0.0855    3.0377   -2.6634 H   0  0  0  0  0  0  0  0  0  0  0  0
    0.0424    0.8232   -1.7444 H   0  0  0  0  0  0  0  0  0  0  0  0
  1  2  1  0
  2  3  1  0
  3  4  1  0
  4  5  1  0
  5  6  2  0
  5  7  1  0
  7  8  2  0
  8  9  1  0
  9 10  2  0
 10 11  1  0
 11 12  1  0
 11 13  1  0
 10 14  1  0
 14 15  2  0
  5 16  1  0
 16 17  1  0
 17 18  1  0
 18 19  2  0
 19 20  1  0
 20 21  2  0
 21 22  1  0
 22 23  2  0
 16 24  1  0
 24 25  2  0
 25 26  1  0
 26 27  2  0
 27 28  1  0
 28 29  1  0
 28 30  1  0
 27 31  1  0
 31 32  2  0
 15  7  1  0
 23 18  1  0
 32 24  1  0
  1 33  1  0
  1 34  1  0
  1 35  1  0
  2 36  1  0
  2 37  1  0
  3 38  1  0
  3 39  1  0
  8 40  1  0
  9 41  1  0
 12 42  1  0
 12 43  1  0
 12 44  1  0
 13 45  1  0
 13 46  1  0
 13 47  1  0
 14 48  1  0
 15 49  1  0
 16 50  1  0
 17 51  1  0
 19 52  1  0
 20 53  1  0
 21 54  1  0
 22 55  1  0
 23 56  1  0
 25 57  1  0
 26 58  1  0
 29 59  1  0
 29 60  1  0
 29 61  1  0
 30 62  1  0
 30 63  1  0
 30 64  1  0
 31 65  1  0
 32 66  1  0
M  END
$$$$
