
     RDKit          3D

 64 67  0  0  0  0  0  0  0  0999 V2000
   -1.4833    0.7469   -4.0130 C   0  0  0  0  0  0  0  0  0  0  0  0
   -0.9991    0.3332   -2.7424 O   0  0  0  0  0  0  0  0  0  0  0  0
   -1.1923    1.1661   -1.6690 C   0  0  0  0  0  0  0  0  0  0  0  0
   -1.9125    2.3698   -1.7368 C   0  0  0  0  0  0  0  0  0  0  0  0
   -2.0837    3.1780   -0.6056 C   0  0  0  0  0  0  0  0  0  0  0  0
   -2.7756    4.3641   -0.5992 O   0  0  0  0  0  0  0  0  0  0  0  0
   -3.2177    4.8820   -1.8469 C   0  0  0  0  0  0  0  0  0  0  0  0
   -1.5353    2.7710    0.6193 C   0  0  0  0  0  0  0  0  0  0  0  0
   -1.6739    3.5602    1.8427 C   0  0  0  0  0  0  0  0  0  0  0  0
   -1.1281    3.1436    2.9877 C   0  0  0  0  0  0  0  0  0  0  0  0
   -0.3732    1.8877    3.0799 C   0  0  0  0  0  0  0  0  0  0  0  0
    0.1214    1.5247    4.1404 O   0  0  0  0  0  0  0  0  0  0  0  0
   -0.2657    1.1509    1.9121 O   0  0  0  0  0  0  0  0  0  0  0  0
   -0.8225    1.5681    0.6778 C   0  0  0  0  0  0  0  0  0  0  0  0
   -0.6287    0.7430   -0.4472 C   0  0  0  0  0  0  0  0  0  0  0  0
    0.1738   -0.5621   -0.3649 C   0  0  0  0  0  0  0  0  0  0  0  0
   -0.4978   -1.6356    0.5318 C   0  0  0  0  0  0  0  0  0  0  0  0
   -1.8599   -2.0863   -0.0217 C   0  0  0  0  0  0  0  0  0  0  0  0
   -2.4996   -3.0976    0.8274 N   0  0  0  0  0  0  0  0  0  0  0  0
   -1.7965   -4.3825    0.8486 C   0  0  0  0  0  0  0  0  0  0  0  0
   -2.8425   -5.3654    1.3606 C   0  0  0  0  0  0  0  0  0  0  0  0
   -4.1836   -4.6706    1.1576 C   0  0  0  0  0  0  0  0  0  0  0  0
   -3.8537   -3.4156    0.3689 C   0  0  0  0  0  0  0  0  0  0  0  0
    1.6513   -0.3021   -0.0629 C   0  0  0  0  0  0  0  0  0  0  0  0
    2.2357   -0.5394    1.1818 C   0  0  0  0  0  0  0  0  0  0  0  0
    3.5949   -0.2649    1.4060 C   0  0  0  0  0  0  0  0  0  0  0  0
    4.4347    0.2653    0.4120 C   0  0  0  0  0  0  0  0  0  0  0  0
    5.7936    0.5239    0.6408 N   0  0  0  0  0  0  0  0  0  0  0  0
    6.5215    1.3557   -0.3149 C   0  0  0  0  0  0  0  0  0  0  0  0
    6.2686    0.5898    2.0221 C   0  0  0  0  0  0  0  0  0  0  0  0
    3.8314    0.4786   -0.8380 C   0  0  0  0  0  0  0  0  0  0  0  0
    2.4736    0.2115   -1.0721 C   0  0  0  0  0  0  0  0  0  0  0  0
   -2.5758    0.8182   -4.0136 H   0  0  0  0  0  0  0  0  0  0  0  0
   -1.2004   -0.0177   -4.7426 H   0  0  0  0  0  0  0  0  0  0  0  0
   -1.0222    1.6898   -4.3248 H   0  0  0  0  0  0  0  0  0  0  0  0
   -2.3495    2.6766   -2.6776 H   0  0  0  0  0  0  0  0  0  0  0  0
   -3.9793    4.2350   -2.2931 H   0  0  0  0  0  0  0  0  0  0  0  0
   -3.6787    5.8564   -1.6588 H   0  0  0  0  0  0  0  0  0  0  0  0
   -2.3771    5.0377   -2.5312 H   0  0  0  0  0  0  0  0  0  0  0  0
   -2.2270    4.4927    1.8035 H   0  0  0  0  0  0  0  0  0  0  0  0
   -1.2168    3.7128    3.9044 H   0  0  0  0  0  0  0  0  0  0  0  0
    0.1951   -1.0329   -1.3573 H   0  0  0  0  0  0  0  0  0  0  0  0
   -0.6287   -1.2804    1.5601 H   0  0  0  0  0  0  0  0  0  0  0  0
    0.1715   -2.5040    0.5857 H   0  0  0  0  0  0  0  0  0  0  0  0
   -2.5241   -1.2151   -0.0690 H   0  0  0  0  0  0  0  0  0  0  0  0
   -1.7426   -2.4569   -1.0482 H   0  0  0  0  0  0  0  0  0  0  0  0
   -1.4720   -4.6834   -0.1555 H   0  0  0  0  0  0  0  0  0  0  0  0
   -0.9221   -4.3657    1.5065 H   0  0  0  0  0  0  0  0  0  0  0  0
   -2.6916   -5.5886    2.4227 H   0  0  0  0  0  0  0  0  0  0  0  0
   -2.7952   -6.3099    0.8082 H   0  0  0  0  0  0  0  0  0  0  0  0
   -4.9011   -5.3089    0.6323 H   0  0  0  0  0  0  0  0  0  0  0  0
   -4.6153   -4.4101    2.1320 H   0  0  0  0  0  0  0  0  0  0  0  0
   -3.8777   -3.6314   -0.7073 H   0  0  0  0  0  0  0  0  0  0  0  0
   -4.5632   -2.6096    0.5819 H   0  0  0  0  0  0  0  0  0  0  0  0
    1.6509   -0.9294    2.0117 H   0  0  0  0  0  0  0  0  0  0  0  0
    3.9719   -0.4812    2.4008 H   0  0  0  0  0  0  0  0  0  0  0  0
    6.5548    0.8874   -1.3045 H   0  0  0  0  0  0  0  0  0  0  0  0
    6.0736    2.3526   -0.3929 H   0  0  0  0  0  0  0  0  0  0  0  0
    7.5665    1.4859   -0.0115 H   0  0  0  0  0  0  0  0  0  0  0  0
    7.3404    0.8152    2.0618 H   0  0  0  0  0  0  0  0  0  0  0  0
    6.1471   -0.3728    2.5302 H   0  0  0  0  0  0  0  0  0  0  0  0
    5.7459    1.3727    2.5826 H   0  0  0  0  0  0  0  0  0  0  0  0
    4.4027    0.8632   -1.6764 H   0  0  0  0  0  0  0  0  0  0  0  0
    2.0644    0.4097   -2.0608 H   0  0  0  0  0  0  0  0  0  0  0  0
  1  2  1  0
  2  3  1  0
  3  4  2  0
  4  5  1  0
  5  6  1  0
  6  7  1  0
  5  8  2  0
  8  9  1  0
  9 10  2  0
 10 11  1  0
 11 12  2  0
 11 13  1  0
 13 14  1  0
 14 15  2  0
 15 16  1  0
 16 17  1  0
 17 18  1  0
 18 19  1  0
 19 20  1  0
 20 21  1  0
 21 22  1  0
 22 23  1  0
 16 24  1  0
 24 25  2  0
 25 26  1  0
 26 27  2  0
 27 28  1  0
 28 29  1  0
 28 30  1  0
 27 31  1  0
 31 32  2  0
 15  3  1  0
 23 19  1  0
 32 24  1  0
 14  8  1  0
  1 33  1  0
  1 34  1  0
  1 35  1  0
  4 36  1  0
  7 37  1  0
  7 38  1  0
  7 39  1  0
  9 40  1  0
 10 41  1  0
 16 42  1  0
 17 43  1  0
 17 44  1  0
 18 45  1  0
 18 46  1  0
 20 47  1  0
 20 48  1  0
 21 49  1  0
 21 50  1  0
 22 51  1  0
 22 52  1  0
 23 53  1  0
 23 54  1  0
 25 55  1  0
 26 56  1  0
 29 57  1  0
 29 58  1  0
 29 59  1  0
 30 60  1  0
 30 61  1  0
 30 62  1  0
 31 63  1  0
 32 64  1  0
M  END
$$$$
