
     RDKit          3D

 67 71  0  0  0  0  0  0  0  0999 V2000
    7.0374    2.8543    1.2662 O   0  0  0  0  0  0  0  0  0  0  0  0
    7.8154    1.9800    1.6091 C   0  0  0  0  0  0  0  0  0  0  0  0
    8.5232    1.9057    2.9404 C   0  0  0  0  0  0  0  0  0  0  0  0
    9.5435    0.7923    2.7313 C   0  0  0  0  0  0  0  0  0  0  0  0
    8.8985   -0.0930    1.6838 C   0  0  0  0  0  0  0  0  0  0  0  0
    8.1567    0.8459    0.8802 N   0  0  0  0  0  0  0  0  0  0  0  0
    7.4552    0.4563   -0.3293 C   0  0  0  0  0  0  0  0  0  0  0  0
    6.1464   -0.2717   -0.0318 C   0  0  0  0  0  0  0  0  0  0  0  0
    5.3658   -0.5408   -1.3154 C   0  0  0  0  0  0  0  0  0  0  0  0
    4.1570   -1.2823   -1.0085 N   0  0  0  0  0  0  0  0  0  0  0  0
    3.2048   -1.6383   -1.9311 C   0  0  0  0  0  0  0  0  0  0  0  0
    3.5495   -1.9011   -3.3663 C   0  0  0  0  0  0  0  0  0  0  0  0
    2.5678   -2.2320   -4.2140 C   0  0  0  0  0  0  0  0  0  0  0  0
    1.2513   -2.3250   -3.7276 C   0  0  0  0  0  0  0  0  0  0  0  0
    0.1057   -2.6108   -4.3048 N   0  0  0  0  0  0  0  0  0  0  0  0
   -0.8717   -2.5655   -3.3364 N   0  0  0  0  0  0  0  0  0  0  0  0
   -0.2995   -2.2472   -2.1892 C   0  0  0  0  0  0  0  0  0  0  0  0
   -0.9681   -2.0889   -0.8692 C   0  0  0  0  0  0  0  0  0  0  0  0
   -2.2439   -1.2601   -0.9974 C   0  0  0  0  0  0  0  0  0  0  0  0
   -2.9085   -1.0402    0.3487 C   0  0  0  0  0  0  0  0  0  0  0  0
   -2.4921   -1.5896    1.3687 O   0  0  0  0  0  0  0  0  0  0  0  0
   -4.0058   -0.1938    0.3694 N   0  0  0  0  0  0  0  0  0  0  0  0
   -4.6450    0.1053    1.6574 C   0  0  0  0  0  0  0  0  0  0  0  0
   -5.3478    1.4713    1.6554 C   0  0  0  0  0  0  0  0  0  0  0  0
   -6.3659    1.5666    0.5885 N   0  0  0  0  0  0  0  0  0  0  0  0
   -7.7277    1.5219    0.9238 C   0  0  0  0  0  0  0  0  0  0  0  0
   -8.6698    2.0843    0.0449 C   0  0  0  0  0  0  0  0  0  0  0  0
  -10.0405    2.0594    0.3207 C   0  0  0  0  0  0  0  0  0  0  0  0
  -10.5018    1.4659    1.4898 C   0  0  0  0  0  0  0  0  0  0  0  0
   -9.5915    0.9024    2.3782 C   0  0  0  0  0  0  0  0  0  0  0  0
   -8.2198    0.9325    2.0967 C   0  0  0  0  0  0  0  0  0  0  0  0
   -6.0606    0.8175   -0.6569 C   0  0  0  0  0  0  0  0  0  0  0  0
   -4.5598    0.5033   -0.8021 C   0  0  0  0  0  0  0  0  0  0  0  0
    1.0519   -2.0805   -2.3862 N   0  0  0  0  0  0  0  0  0  0  0  0
    1.9890   -1.7327   -1.4564 N   0  0  0  0  0  0  0  0  0  0  0  0
    9.0040    2.8560    3.1825 H   0  0  0  0  0  0  0  0  0  0  0  0
    7.7952    1.6403    3.7133 H   0  0  0  0  0  0  0  0  0  0  0  0
    9.7845    0.2559    3.6532 H   0  0  0  0  0  0  0  0  0  0  0  0
   10.4733    1.2210    2.3371 H   0  0  0  0  0  0  0  0  0  0  0  0
    8.1995   -0.8037    2.1372 H   0  0  0  0  0  0  0  0  0  0  0  0
    9.6342   -0.6251    1.0748 H   0  0  0  0  0  0  0  0  0  0  0  0
    7.2454    1.3670   -0.9022 H   0  0  0  0  0  0  0  0  0  0  0  0
    8.1266   -0.1693   -0.9279 H   0  0  0  0  0  0  0  0  0  0  0  0
    6.3552   -1.2169    0.4842 H   0  0  0  0  0  0  0  0  0  0  0  0
    5.5314    0.3229    0.6558 H   0  0  0  0  0  0  0  0  0  0  0  0
    5.1043    0.4068   -1.7994 H   0  0  0  0  0  0  0  0  0  0  0  0
    5.9913   -1.1166   -2.0062 H   0  0  0  0  0  0  0  0  0  0  0  0
    3.7136   -1.0128   -0.1318 H   0  0  0  0  0  0  0  0  0  0  0  0
    4.5794   -1.8332   -3.6851 H   0  0  0  0  0  0  0  0  0  0  0  0
    2.7589   -2.4390   -5.2603 H   0  0  0  0  0  0  0  0  0  0  0  0
   -1.2070   -3.0854   -0.4762 H   0  0  0  0  0  0  0  0  0  0  0  0
   -0.2942   -1.6182   -0.1426 H   0  0  0  0  0  0  0  0  0  0  0  0
   -2.0086   -0.2858   -1.4404 H   0  0  0  0  0  0  0  0  0  0  0  0
   -2.9546   -1.7808   -1.6500 H   0  0  0  0  0  0  0  0  0  0  0  0
   -5.3666   -0.6978    1.8463 H   0  0  0  0  0  0  0  0  0  0  0  0
   -3.8969    0.0765    2.4567 H   0  0  0  0  0  0  0  0  0  0  0  0
   -4.5983    2.2479    1.4547 H   0  0  0  0  0  0  0  0  0  0  0  0
   -5.7493    1.7056    2.6474 H   0  0  0  0  0  0  0  0  0  0  0  0
   -8.3326    2.5747   -0.8650 H   0  0  0  0  0  0  0  0  0  0  0  0
  -10.7415    2.5087   -0.3775 H   0  0  0  0  0  0  0  0  0  0  0  0
  -11.5665    1.4404    1.7064 H   0  0  0  0  0  0  0  0  0  0  0  0
   -9.9462    0.4294    3.2905 H   0  0  0  0  0  0  0  0  0  0  0  0
   -7.5522    0.4555    2.8070 H   0  0  0  0  0  0  0  0  0  0  0  0
   -6.6085   -0.1356   -0.6624 H   0  0  0  0  0  0  0  0  0  0  0  0
   -6.3811    1.3976   -1.5306 H   0  0  0  0  0  0  0  0  0  0  0  0
   -4.4032   -0.0898   -1.7073 H   0  0  0  0  0  0  0  0  0  0  0  0
   -3.9888    1.4324   -0.9138 H   0  0  0  0  0  0  0  0  0  0  0  0
  1  2  2  0
  2  3  1  0
  3  4  1  0
  4  5  1  0
  5  6  1  0
  6  7  1  0
  7  8  1  0
  8  9  1  0
  9 10  1  0
 10 11  1  0
 11 12  1  0
 12 13  2  0
 13 14  1  0
 14 15  2  0
 15 16  1  0
 16 17  2  0
 17 18  1  0
 18 19  1  0
 19 20  1  0
 20 21  2  0
 20 22  1  0
 22 23  1  0
 23 24  1  0
 24 25  1  0
 25 26  1  0
 26 27  2  0
 27 28  1  0
 28 29  2  0
 29 30  1  0
 30 31  2  0
 25 32  1  0
 32 33  1  0
 17 34  1  0
 34 35  1  0
  6  2  1  0
 35 11  2  0
 34 14  1  0
 33 22  1  0
 31 26  1  0
  3 36  1  0
  3 37  1  0
  4 38  1  0
  4 39  1  0
  5 40  1  0
  5 41  1  0
  7 42  1  0
  7 43  1  0
  8 44  1  0
  8 45  1  0
  9 46  1  0
  9 47  1  0
 10 48  1  0
 12 49  1  0
 13 50  1  0
 18 51  1  0
 18 52  1  0
 19 53  1  0
 19 54  1  0
 23 55  1  0
 23 56  1  0
 24 57  1  0
 24 58  1  0
 27 59  1  0
 28 60  1  0
 29 61  1  0
 30 62  1  0
 31 63  1  0
 32 64  1  0
 32 65  1  0
 33 66  1  0
 33 67  1  0
M  END
$$$$
