
     RDKit          3D

 34 36  0  0  0  0  0  0  0  0999 V2000
   -0.3752   -1.6417   -1.4543 O   0  0  0  0  0  0  0  0  0  0  0  0
    0.1747   -1.3938   -0.3873 C   0  0  0  0  0  0  0  0  0  0  0  0
    1.5748   -0.9039   -0.2414 C   0  0  0  0  0  0  0  0  0  0  0  0
    2.3067   -0.6323   -1.3326 C   0  0  0  0  0  0  0  0  0  0  0  0
    3.6932   -0.1552   -1.4458 C   0  0  0  0  0  0  0  0  0  0  0  0
    4.2020    0.1982   -2.6943 C   0  0  0  0  0  0  0  0  0  0  0  0
    5.5208    0.6387   -2.7899 C   0  0  0  0  0  0  0  0  0  0  0  0
    6.2970    0.7127   -1.6417 C   0  0  0  0  0  0  0  0  0  0  0  0
    5.7175    0.3398   -0.4428 C   0  0  0  0  0  0  0  0  0  0  0  0
    4.4420   -0.0912   -0.3263 N   0  0  0  0  0  0  0  0  0  0  0  0
    1.9842   -0.7777    1.4300 S   0  0  0  0  0  0  0  0  0  0  0  0
    0.4052   -1.3334    1.9816 C   0  0  0  0  0  0  0  0  0  0  0  0
    0.0205   -1.5479    3.5914 S   0  0  0  0  0  0  0  0  0  0  0  0
   -0.3773   -1.5618    0.8695 N   0  0  0  0  0  0  0  0  0  0  0  0
   -1.7242   -1.9922    0.9634 N   0  0  0  0  0  0  0  0  0  0  0  0
   -2.6407   -0.8977    0.9374 C   0  0  0  0  0  0  0  0  0  0  0  0
   -2.1749    0.3686    1.0983 N   0  0  0  0  0  0  0  0  0  0  0  0
   -3.0694    1.3850    1.1236 C   0  0  0  0  0  0  0  0  0  0  0  0
   -4.4383    1.2175    0.9876 C   0  0  0  0  0  0  0  0  0  0  0  0
   -5.3519    2.4018    1.0500 C   0  0  0  0  0  0  0  0  0  0  0  0
   -4.8076    3.5213    0.4996 F   0  0  0  0  0  0  0  0  0  0  0  0
   -5.6833    2.7326    2.3265 F   0  0  0  0  0  0  0  0  0  0  0  0
   -6.5287    2.2003    0.3959 F   0  0  0  0  0  0  0  0  0  0  0  0
   -4.9145   -0.0870    0.8320 C   0  0  0  0  0  0  0  0  0  0  0  0
   -4.0144   -1.1525    0.8077 C   0  0  0  0  0  0  0  0  0  0  0  0
   -4.6294   -2.7517    0.5983 Cl  0  0  0  0  0  0  0  0  0  0  0  0
    1.8256   -0.7778   -2.2995 H   0  0  0  0  0  0  0  0  0  0  0  0
    3.5910    0.1387   -3.5894 H   0  0  0  0  0  0  0  0  0  0  0  0
    5.9364    0.9210   -3.7531 H   0  0  0  0  0  0  0  0  0  0  0  0
    7.3261    1.0512   -1.6787 H   0  0  0  0  0  0  0  0  0  0  0  0
    6.2779    0.3769    0.4872 H   0  0  0  0  0  0  0  0  0  0  0  0
   -1.9545   -2.6060    0.1771 H   0  0  0  0  0  0  0  0  0  0  0  0
   -2.6288    2.3712    1.2633 H   0  0  0  0  0  0  0  0  0  0  0  0
   -5.9826   -0.2719    0.7323 H   0  0  0  0  0  0  0  0  0  0  0  0
  1  2  2  0
  2  3  1  0
  3  4  2  3
  4  5  1  0
  5  6  2  0
  6  7  1  0
  7  8  2  0
  8  9  1  0
  9 10  2  0
  3 11  1  0
 11 12  1  0
 12 13  2  0
 12 14  1  0
 14 15  1  0
 15 16  1  0
 16 17  2  0
 17 18  1  0
 18 19  2  0
 19 20  1  0
 20 21  1  0
 20 22  1  0
 20 23  1  0
 19 24  1  0
 24 25  2  0
 25 26  1  0
 14  2  1  0
 25 16  1  0
 10  5  1  0
  4 27  1  0
  6 28  1  0
  7 29  1  0
  8 30  1  0
  9 31  1  0
 15 32  1  0
 18 33  1  0
 24 34  1  0
M  END
$$$$
