
     RDKit          3D

 43 45  0  0  0  0  0  0  0  0999 V2000
   -3.9137    0.9578   -1.8178 C   0  0  0  0  0  0  0  0  0  0  0  0
   -4.5680    0.2830   -0.6465 C   0  0  0  0  0  0  0  0  0  0  0  0
   -5.9518    0.4013   -0.4643 C   0  0  0  0  0  0  0  0  0  0  0  0
   -6.5815   -0.2246    0.6113 C   0  0  0  0  0  0  0  0  0  0  0  0
   -5.8377   -0.9860    1.5122 C   0  0  0  0  0  0  0  0  0  0  0  0
   -4.4525   -1.1240    1.3539 C   0  0  0  0  0  0  0  0  0  0  0  0
   -3.6764   -1.9579    2.3326 C   0  0  0  0  0  0  0  0  0  0  0  0
   -3.8236   -0.4431    0.2980 C   0  0  0  0  0  0  0  0  0  0  0  0
   -2.4633   -0.5500    0.1420 O   0  0  0  0  0  0  0  0  0  0  0  0
   -1.7990    0.4967    0.8617 C   0  0  0  0  0  0  0  0  0  0  0  0
   -0.3429    0.3162    0.6563 C   0  0  0  0  0  0  0  0  0  0  0  0
    0.4418   -0.5681   -0.0410 C   0  0  0  0  0  0  0  0  0  0  0  0
    1.7794   -0.1471    0.1978 C   0  0  0  0  0  0  0  0  0  0  0  0
    2.9889   -0.8177   -0.3093 C   0  0  0  0  0  0  0  0  0  0  0  0
    2.9068   -1.9830   -0.7065 O   0  0  0  0  0  0  0  0  0  0  0  0
    4.2235   -0.1511   -0.3485 N   0  0  0  0  0  0  0  0  0  0  0  0
    4.4524    1.2372    0.0566 C   0  0  0  0  0  0  0  0  0  0  0  0
    5.6846    1.8295   -0.6250 C   0  0  0  0  0  0  0  0  0  0  0  0
    6.8542    1.0094   -0.4310 N   0  0  0  0  0  0  0  0  0  0  0  0
    6.7912   -0.3528   -0.5632 C   0  0  0  0  0  0  0  0  0  0  0  0
    7.8258   -1.0021   -0.6991 O   0  0  0  0  0  0  0  0  0  0  0  0
    5.4052   -1.0113   -0.4943 C   0  0  0  0  0  0  0  0  0  0  0  0
    1.7835    0.9149    1.0222 N   0  0  0  0  0  0  0  0  0  0  0  0
    0.4626    1.2087    1.2900 O   0  0  0  0  0  0  0  0  0  0  0  0
   -3.1243    0.3277   -2.2423 H   0  0  0  0  0  0  0  0  0  0  0  0
   -3.4846    1.9168   -1.5096 H   0  0  0  0  0  0  0  0  0  0  0  0
   -4.6374    1.1451   -2.6194 H   0  0  0  0  0  0  0  0  0  0  0  0
   -6.5511    0.9756   -1.1677 H   0  0  0  0  0  0  0  0  0  0  0  0
   -7.6568   -0.1298    0.7383 H   0  0  0  0  0  0  0  0  0  0  0  0
   -6.3484   -1.4809    2.3355 H   0  0  0  0  0  0  0  0  0  0  0  0
   -3.2665   -1.3248    3.1256 H   0  0  0  0  0  0  0  0  0  0  0  0
   -2.8571   -2.4884    1.8363 H   0  0  0  0  0  0  0  0  0  0  0  0
   -4.3149   -2.7205    2.7931 H   0  0  0  0  0  0  0  0  0  0  0  0
   -2.0252    0.4370    1.9331 H   0  0  0  0  0  0  0  0  0  0  0  0
   -2.1001    1.4807    0.4816 H   0  0  0  0  0  0  0  0  0  0  0  0
    0.1109   -1.4063   -0.6384 H   0  0  0  0  0  0  0  0  0  0  0  0
    4.5764    1.2431    1.1458 H   0  0  0  0  0  0  0  0  0  0  0  0
    3.5943    1.8571   -0.2129 H   0  0  0  0  0  0  0  0  0  0  0  0
    5.9018    2.8289   -0.2352 H   0  0  0  0  0  0  0  0  0  0  0  0
    5.5194    1.9057   -1.7056 H   0  0  0  0  0  0  0  0  0  0  0  0
    7.7779    1.3980   -0.5825 H   0  0  0  0  0  0  0  0  0  0  0  0
    5.2802   -1.6074   -1.4060 H   0  0  0  0  0  0  0  0  0  0  0  0
    5.4162   -1.6935    0.3649 H   0  0  0  0  0  0  0  0  0  0  0  0
  1  2  1  0
  2  3  2  0
  3  4  1  0
  4  5  2  0
  5  6  1  0
  6  7  1  0
  6  8  2  0
  8  9  1  0
  9 10  1  0
 10 11  1  0
 11 12  2  0
 12 13  1  0
 13 14  1  0
 14 15  2  0
 14 16  1  0
 16 17  1  0
 17 18  1  0
 18 19  1  0
 19 20  1  0
 20 21  2  0
 20 22  1  0
 13 23  2  0
 23 24  1  0
  8  2  1  0
 24 11  1  0
 22 16  1  0
  1 25  1  0
  1 26  1  0
  1 27  1  0
  3 28  1  0
  4 29  1  0
  5 30  1  0
  7 31  1  0
  7 32  1  0
  7 33  1  0
 10 34  1  0
 10 35  1  0
 12 36  1  0
 17 37  1  0
 17 38  1  0
 18 39  1  0
 18 40  1  0
 19 41  1  0
 22 42  1  0
 22 43  1  0
M  END
$$$$
