
     RDKit          3D

 71 76  0  0  0  0  0  0  0  0999 V2000
    9.7526   -2.1671    1.2726 C   0  0  0  0  0  0  0  0  0  0  0  0
    9.6293   -0.9428    1.9867 O   0  0  0  0  0  0  0  0  0  0  0  0
    8.5440   -0.1646    1.6935 C   0  0  0  0  0  0  0  0  0  0  0  0
    8.3984    0.9584    2.5041 C   0  0  0  0  0  0  0  0  0  0  0  0
    7.3304    1.8240    2.3074 C   0  0  0  0  0  0  0  0  0  0  0  0
    6.4057    1.5729    1.2877 C   0  0  0  0  0  0  0  0  0  0  0  0
    6.5192    0.4605    0.4395 C   0  0  0  0  0  0  0  0  0  0  0  0
    5.6226    0.1991   -0.5942 N   0  0  0  0  0  0  0  0  0  0  0  0
    5.2315   -1.2096   -0.8293 C   0  0  0  0  0  0  0  0  0  0  0  0
    3.9910   -1.3395   -1.7330 C   0  0  0  0  0  0  0  0  0  0  0  0
    2.8760   -0.4875   -1.3029 N   0  0  0  0  0  0  0  0  0  0  0  0
    1.5862   -1.0020   -1.3055 C   0  0  0  0  0  0  0  0  0  0  0  0
    1.3633   -2.1711   -1.6181 O   0  0  0  0  0  0  0  0  0  0  0  0
    0.4402   -0.0275   -1.0500 C   0  0  0  0  0  0  0  0  0  0  0  0
   -0.0121    0.5364   -2.3988 C   0  0  0  0  0  0  0  0  0  0  0  0
   -1.2057    1.4570   -2.2179 C   0  0  0  0  0  0  0  0  0  0  0  0
   -2.3526    0.7492   -1.5020 C   0  0  0  0  0  0  0  0  0  0  0  0
   -1.8925    0.1732   -0.2323 N   0  0  0  0  0  0  0  0  0  0  0  0
   -2.9240   -0.3906    0.5744 C   0  0  0  0  0  0  0  0  0  0  0  0
   -2.5685   -1.2733    1.5642 N   0  0  0  0  0  0  0  0  0  0  0  0
   -3.5088   -1.7986    2.3753 C   0  0  0  0  0  0  0  0  0  0  0  0
   -4.8313   -1.5709    2.3690 N   0  0  0  0  0  0  0  0  0  0  0  0
   -5.1595   -0.7042    1.3997 C   0  0  0  0  0  0  0  0  0  0  0  0
   -4.3127   -0.0921    0.4883 C   0  0  0  0  0  0  0  0  0  0  0  0
   -5.0544    0.7198   -0.3517 N   0  0  0  0  0  0  0  0  0  0  0  0
   -6.3124    0.6116    0.0332 C   0  0  0  0  0  0  0  0  0  0  0  0
   -6.4174   -0.2319    1.1155 N   0  0  0  0  0  0  0  0  0  0  0  0
   -7.6030   -0.6030    1.8617 C   0  0  0  0  0  0  0  0  0  0  0  0
   -8.7182    0.4338    1.8736 C   0  0  0  0  0  0  0  0  0  0  0  0
   -9.5335    0.4761    0.5835 C   0  0  0  0  0  0  0  0  0  0  0  0
   -8.7202    0.5018   -0.7118 C   0  0  0  0  0  0  0  0  0  0  0  0
   -7.4480    1.3336   -0.6156 C   0  0  0  0  0  0  0  0  0  0  0  0
   -0.7161   -0.7201   -0.3208 C   0  0  0  0  0  0  0  0  0  0  0  0
    3.2417    0.8622   -0.8473 C   0  0  0  0  0  0  0  0  0  0  0  0
    4.7094    1.2217   -1.1275 C   0  0  0  0  0  0  0  0  0  0  0  0
    7.6138   -0.3981    0.6728 C   0  0  0  0  0  0  0  0  0  0  0  0
    8.8726   -2.8007    1.4114 H   0  0  0  0  0  0  0  0  0  0  0  0
    9.9483   -1.9823    0.2098 H   0  0  0  0  0  0  0  0  0  0  0  0
   10.6110   -2.7057    1.6837 H   0  0  0  0  0  0  0  0  0  0  0  0
    9.1147    1.1501    3.2980 H   0  0  0  0  0  0  0  0  0  0  0  0
    7.2050    2.6891    2.9495 H   0  0  0  0  0  0  0  0  0  0  0  0
    5.5737    2.2650    1.2065 H   0  0  0  0  0  0  0  0  0  0  0  0
    6.0536   -1.7529   -1.3061 H   0  0  0  0  0  0  0  0  0  0  0  0
    5.0088   -1.6890    0.1291 H   0  0  0  0  0  0  0  0  0  0  0  0
    3.6898   -2.3908   -1.7892 H   0  0  0  0  0  0  0  0  0  0  0  0
    4.2435   -1.0210   -2.7522 H   0  0  0  0  0  0  0  0  0  0  0  0
    0.7697    0.7954   -0.4083 H   0  0  0  0  0  0  0  0  0  0  0  0
   -0.2807   -0.2841   -3.0755 H   0  0  0  0  0  0  0  0  0  0  0  0
    0.8046    1.0835   -2.8812 H   0  0  0  0  0  0  0  0  0  0  0  0
   -1.5482    1.8170   -3.1950 H   0  0  0  0  0  0  0  0  0  0  0  0
   -0.9004    2.3383   -1.6411 H   0  0  0  0  0  0  0  0  0  0  0  0
   -2.7591   -0.0396   -2.1443 H   0  0  0  0  0  0  0  0  0  0  0  0
   -3.1204    1.5107   -1.3522 H   0  0  0  0  0  0  0  0  0  0  0  0
   -3.1476   -2.4925    3.1281 H   0  0  0  0  0  0  0  0  0  0  0  0
   -7.9484   -1.5626    1.4623 H   0  0  0  0  0  0  0  0  0  0  0  0
   -7.2834   -0.7625    2.8971 H   0  0  0  0  0  0  0  0  0  0  0  0
   -8.3063    1.4288    2.0863 H   0  0  0  0  0  0  0  0  0  0  0  0
   -9.4040    0.2124    2.6985 H   0  0  0  0  0  0  0  0  0  0  0  0
  -10.2152   -0.3831    0.5499 H   0  0  0  0  0  0  0  0  0  0  0  0
  -10.1740    1.3671    0.6156 H   0  0  0  0  0  0  0  0  0  0  0  0
   -9.3607    0.9273   -1.4943 H   0  0  0  0  0  0  0  0  0  0  0  0
   -8.4828   -0.5224   -1.0258 H   0  0  0  0  0  0  0  0  0  0  0  0
   -7.6346    2.2781   -0.0921 H   0  0  0  0  0  0  0  0  0  0  0  0
   -7.1364    1.6029   -1.6340 H   0  0  0  0  0  0  0  0  0  0  0  0
   -0.3453   -0.9411    0.6926 H   0  0  0  0  0  0  0  0  0  0  0  0
   -0.9864   -1.6806   -0.7861 H   0  0  0  0  0  0  0  0  0  0  0  0
    2.5964    1.5938   -1.3398 H   0  0  0  0  0  0  0  0  0  0  0  0
    3.0473    0.9007    0.2284 H   0  0  0  0  0  0  0  0  0  0  0  0
    4.8629    1.2740   -2.2126 H   0  0  0  0  0  0  0  0  0  0  0  0
    4.9219    2.2297   -0.7637 H   0  0  0  0  0  0  0  0  0  0  0  0
    7.7456   -1.2497    0.0151 H   0  0  0  0  0  0  0  0  0  0  0  0
  1  2  1  0
  2  3  1  0
  3  4  2  0
  4  5  1  0
  5  6  2  0
  6  7  1  0
  7  8  1  0
  8  9  1  0
  9 10  1  0
 10 11  1  0
 11 12  1  0
 12 13  2  0
 12 14  1  0
 14 15  1  0
 15 16  1  0
 16 17  1  0
 17 18  1  0
 18 19  1  0
 19 20  2  0
 20 21  1  0
 21 22  2  0
 22 23  1  0
 23 24  2  0
 24 25  1  0
 25 26  2  0
 26 27  1  0
 27 28  1  0
 28 29  1  0
 29 30  1  0
 30 31  1  0
 31 32  1  0
 18 33  1  0
 11 34  1  0
 34 35  1  0
  7 36  2  0
 36  3  1  0
 35  8  1  0
 33 14  1  0
 24 19  1  0
 32 26  1  0
 27 23  1  0
  1 37  1  0
  1 38  1  0
  1 39  1  0
  4 40  1  0
  5 41  1  0
  6 42  1  0
  9 43  1  0
  9 44  1  0
 10 45  1  0
 10 46  1  0
 14 47  1  0
 15 48  1  0
 15 49  1  0
 16 50  1  0
 16 51  1  0
 17 52  1  0
 17 53  1  0
 21 54  1  0
 28 55  1  0
 28 56  1  0
 29 57  1  0
 29 58  1  0
 30 59  1  0
 30 60  1  0
 31 61  1  0
 31 62  1  0
 32 63  1  0
 32 64  1  0
 33 65  1  0
 33 66  1  0
 34 67  1  0
 34 68  1  0
 35 69  1  0
 35 70  1  0
 36 71  1  0
M  END
$$$$
