
     RDKit          3D

 42 45  0  0  0  0  0  0  0  0999 V2000
    6.3409   -1.1874    0.0552 C   0  0  0  0  0  0  0  0  0  0  0  0
    5.5133   -0.1542   -0.5491 N   0  0  0  0  0  0  0  0  0  0  0  0
    5.0691   -0.4218   -1.9078 C   0  0  0  0  0  0  0  0  0  0  0  0
    4.8172    0.8116    0.1739 C   0  0  0  0  0  0  0  0  0  0  0  0
    3.9687    1.5378   -0.3548 O   0  0  0  0  0  0  0  0  0  0  0  0
    5.1356    1.0074    1.6490 C   0  0  0  0  0  0  0  0  0  0  0  0
    4.3819   -0.2564    2.7102 S   0  0  0  0  0  0  0  0  0  0  0  0
    2.7508   -0.2704    2.0802 C   0  0  0  0  0  0  0  0  0  0  0  0
    2.3700   -1.2229    1.2632 N   0  0  0  0  0  0  0  0  0  0  0  0
    1.0571   -1.0046    0.8872 C   0  0  0  0  0  0  0  0  0  0  0  0
    0.3051   -1.7963    0.0061 C   0  0  0  0  0  0  0  0  0  0  0  0
   -1.0261   -1.4511   -0.2837 C   0  0  0  0  0  0  0  0  0  0  0  0
   -1.6512   -0.3291    0.2812 C   0  0  0  0  0  0  0  0  0  0  0  0
   -3.0109    0.0041   -0.0312 N   0  0  0  0  0  0  0  0  0  0  0  0
   -3.8121   -0.6788   -0.9284 C   0  0  0  0  0  0  0  0  0  0  0  0
   -3.6090   -1.6525   -1.6320 O   0  0  0  0  0  0  0  0  0  0  0  0
   -5.1094   -0.0123   -0.9488 C   0  0  0  0  0  0  0  0  0  0  0  0
   -6.2515   -0.2983   -1.6741 C   0  0  0  0  0  0  0  0  0  0  0  0
   -7.3600    0.5316   -1.4805 C   0  0  0  0  0  0  0  0  0  0  0  0
   -7.3010    1.6130   -0.5789 C   0  0  0  0  0  0  0  0  0  0  0  0
   -6.1328    1.8792    0.1418 C   0  0  0  0  0  0  0  0  0  0  0  0
   -5.0519    1.0429   -0.0690 C   0  0  0  0  0  0  0  0  0  0  0  0
   -3.7186    1.0560    0.5220 C   0  0  0  0  0  0  0  0  0  0  0  0
   -3.4211    1.8961    1.3526 O   0  0  0  0  0  0  0  0  0  0  0  0
   -0.8912    0.4597    1.1666 C   0  0  0  0  0  0  0  0  0  0  0  0
    0.4454    0.1112    1.4533 C   0  0  0  0  0  0  0  0  0  0  0  0
    1.5759    0.9006    2.4879 S   0  0  0  0  0  0  0  0  0  0  0  0
    5.7078   -2.0448    0.3016 H   0  0  0  0  0  0  0  0  0  0  0  0
    7.1106   -1.4963   -0.6583 H   0  0  0  0  0  0  0  0  0  0  0  0
    6.8404   -0.8344    0.9580 H   0  0  0  0  0  0  0  0  0  0  0  0
    4.5998    0.4557   -2.3611 H   0  0  0  0  0  0  0  0  0  0  0  0
    4.3423   -1.2396   -1.8833 H   0  0  0  0  0  0  0  0  0  0  0  0
    5.9286   -0.7100   -2.5202 H   0  0  0  0  0  0  0  0  0  0  0  0
    4.7574    1.9904    1.9523 H   0  0  0  0  0  0  0  0  0  0  0  0
    6.2177    1.0386    1.8031 H   0  0  0  0  0  0  0  0  0  0  0  0
    0.7572   -2.6724   -0.4490 H   0  0  0  0  0  0  0  0  0  0  0  0
   -1.5444   -2.1123   -0.9724 H   0  0  0  0  0  0  0  0  0  0  0  0
   -6.2823   -1.1346   -2.3655 H   0  0  0  0  0  0  0  0  0  0  0  0
   -8.2797    0.3418   -2.0315 H   0  0  0  0  0  0  0  0  0  0  0  0
   -8.1756    2.2470   -0.4431 H   0  0  0  0  0  0  0  0  0  0  0  0
   -6.0730    2.7080    0.8404 H   0  0  0  0  0  0  0  0  0  0  0  0
   -1.2908    1.3477    1.6427 H   0  0  0  0  0  0  0  0  0  0  0  0
  1  2  1  0
  2  3  1  0
  2  4  1  0
  4  5  2  0
  4  6  1  0
  6  7  1  0
  7  8  1  0
  8  9  2  0
  9 10  1  0
 10 11  2  0
 11 12  1  0
 12 13  2  0
 13 14  1  0
 14 15  1  0
 15 16  2  0
 15 17  1  0
 17 18  2  0
 18 19  1  0
 19 20  2  0
 20 21  1  0
 21 22  2  0
 22 23  1  0
 23 24  2  0
 13 25  1  0
 25 26  2  0
 26 27  1  0
 27  8  1  0
 26 10  1  0
 23 14  1  0
 22 17  1  0
  1 28  1  0
  1 29  1  0
  1 30  1  0
  3 31  1  0
  3 32  1  0
  3 33  1  0
  6 34  1  0
  6 35  1  0
 11 36  1  0
 12 37  1  0
 18 38  1  0
 19 39  1  0
 20 40  1  0
 21 41  1  0
 25 42  1  0
M  END
$$$$
