
     RDKit          3D

 47 49  0  0  0  0  0  0  0  0999 V2000
    0.9952    1.5122    2.6765 C   0  0  0  0  0  0  0  0  0  0  0  0
   -0.1473    0.6845    2.2747 N   0  0  0  0  0  0  0  0  0  0  0  0
   -1.4432    1.2248    2.7108 C   0  0  0  0  0  0  0  0  0  0  0  0
   -0.0624   -0.3018    1.2323 C   0  0  0  0  0  0  0  0  0  0  0  0
   -1.3092   -1.2054    1.0700 C   0  0  0  0  0  0  0  0  0  0  0  0
   -2.4745   -0.5392    0.4524 N   0  0  0  0  0  0  0  0  0  0  0  0
   -2.2569   -0.2860   -0.9876 C   0  0  0  0  0  0  0  0  0  0  0  0
   -3.4707    0.3990   -1.6417 C   0  0  0  0  0  0  0  0  0  0  0  0
   -4.7159   -0.3138   -1.3820 N   0  0  0  0  0  0  0  0  0  0  0  0
   -5.8095   -0.1090   -2.1978 C   0  0  0  0  0  0  0  0  0  0  0  0
   -6.9705   -0.3804   -1.9211 O   0  0  0  0  0  0  0  0  0  0  0  0
   -4.9338   -0.7272   -0.0002 C   0  0  0  0  0  0  0  0  0  0  0  0
   -3.6834   -1.3783    0.6168 C   0  0  0  0  0  0  0  0  0  0  0  0
    1.0363   -0.5183    0.4580 C   0  0  0  0  0  0  0  0  0  0  0  0
    2.2174    0.1937    0.5355 N   0  0  0  0  0  0  0  0  0  0  0  0
    2.9611   -0.3351   -0.3779 C   0  0  0  0  0  0  0  0  0  0  0  0
    4.3398    0.0457   -0.7219 C   0  0  0  0  0  0  0  0  0  0  0  0
    5.0486   -0.6114   -1.7353 C   0  0  0  0  0  0  0  0  0  0  0  0
    6.3564   -0.2239   -2.0359 C   0  0  0  0  0  0  0  0  0  0  0  0
    6.9580    0.8168   -1.3285 C   0  0  0  0  0  0  0  0  0  0  0  0
    6.2557    1.4736   -0.3187 C   0  0  0  0  0  0  0  0  0  0  0  0
    4.9484    1.0899   -0.0144 C   0  0  0  0  0  0  0  0  0  0  0  0
    2.4360   -1.3396   -1.1055 O   0  0  0  0  0  0  0  0  0  0  0  0
    1.1675   -1.5290   -0.6465 C   0  0  0  0  0  0  0  0  0  0  0  0
    0.3764   -2.3335   -1.0942 O   0  0  0  0  0  0  0  0  0  0  0  0
    0.7860    2.0696    3.5965 H   0  0  0  0  0  0  0  0  0  0  0  0
    1.2385    2.2421    1.8976 H   0  0  0  0  0  0  0  0  0  0  0  0
    1.8689    0.8924    2.9023 H   0  0  0  0  0  0  0  0  0  0  0  0
   -1.3344    1.9135    3.5560 H   0  0  0  0  0  0  0  0  0  0  0  0
   -2.1140    0.4327    3.0557 H   0  0  0  0  0  0  0  0  0  0  0  0
   -1.9172    1.7816    1.8959 H   0  0  0  0  0  0  0  0  0  0  0  0
   -1.0960   -2.1526    0.5704 H   0  0  0  0  0  0  0  0  0  0  0  0
   -1.5802   -1.5219    2.0880 H   0  0  0  0  0  0  0  0  0  0  0  0
   -2.0605   -1.2293   -1.5133 H   0  0  0  0  0  0  0  0  0  0  0  0
   -1.3887    0.3653   -1.1357 H   0  0  0  0  0  0  0  0  0  0  0  0
   -3.3191    0.4834   -2.7237 H   0  0  0  0  0  0  0  0  0  0  0  0
   -3.5900    1.4163   -1.2482 H   0  0  0  0  0  0  0  0  0  0  0  0
   -5.5347    0.3096   -3.1804 H   0  0  0  0  0  0  0  0  0  0  0  0
   -5.7788   -1.4232    0.0471 H   0  0  0  0  0  0  0  0  0  0  0  0
   -5.2137    0.1690    0.5676 H   0  0  0  0  0  0  0  0  0  0  0  0
   -3.8785   -1.5457    1.6828 H   0  0  0  0  0  0  0  0  0  0  0  0
   -3.5263   -2.3612    0.1524 H   0  0  0  0  0  0  0  0  0  0  0  0
    4.5997   -1.4255   -2.2991 H   0  0  0  0  0  0  0  0  0  0  0  0
    6.9072   -0.7344   -2.8226 H   0  0  0  0  0  0  0  0  0  0  0  0
    7.9765    1.1162   -1.5645 H   0  0  0  0  0  0  0  0  0  0  0  0
    6.7261    2.2845    0.2322 H   0  0  0  0  0  0  0  0  0  0  0  0
    4.4099    1.6093    0.7757 H   0  0  0  0  0  0  0  0  0  0  0  0
  1  2  1  0
  2  3  1  0
  2  4  1  0
  4  5  1  0
  5  6  1  0
  6  7  1  0
  7  8  1  0
  8  9  1  0
  9 10  1  0
 10 11  2  0
  9 12  1  0
 12 13  1  0
  4 14  2  3
 14 15  1  0
 15 16  2  0
 16 17  1  0
 17 18  2  0
 18 19  1  0
 19 20  2  0
 20 21  1  0
 21 22  2  0
 16 23  1  0
 23 24  1  0
 24 25  2  0
 13  6  1  0
 24 14  1  0
 22 17  1  0
  1 26  1  0
  1 27  1  0
  1 28  1  0
  3 29  1  0
  3 30  1  0
  3 31  1  0
  5 32  1  0
  5 33  1  0
  7 34  1  0
  7 35  1  0
  8 36  1  0
  8 37  1  0
 10 38  1  0
 12 39  1  0
 12 40  1  0
 13 41  1  0
 13 42  1  0
 18 43  1  0
 19 44  1  0
 20 45  1  0
 21 46  1  0
 22 47  1  0
M  END
$$$$
