
     RDKit          3D

 54 57  0  0  0  0  0  0  0  0999 V2000
   -0.0488   -0.8941    1.7536 C   0  0  0  0  0  0  0  0  0  0  0  0
   -1.2312    0.0485    1.9970 C   0  0  0  0  0  0  0  0  0  0  0  0
   -1.7689   -0.1220    3.4232 C   0  0  0  0  0  0  0  0  0  0  0  0
   -2.8180    0.9375    3.7712 C   0  0  0  0  0  0  0  0  0  0  0  0
   -3.5590    1.4937    2.5554 C   0  0  0  0  0  0  0  0  0  0  0  0
   -3.7344    0.4390    1.4689 C   0  0  0  0  0  0  0  0  0  0  0  0
   -2.3812   -0.1050    0.9692 C   0  0  0  0  0  0  0  0  0  0  0  0
   -2.5535   -1.4575    0.4789 N   0  0  0  0  0  0  0  0  0  0  0  0
   -2.4233   -1.5539   -0.8867 C   0  0  0  0  0  0  0  0  0  0  0  0
   -2.5649   -2.5903   -1.5111 O   0  0  0  0  0  0  0  0  0  0  0  0
   -2.1174   -0.3249   -1.3774 N   0  0  0  0  0  0  0  0  0  0  0  0
   -1.8837   -0.0416   -2.7796 C   0  0  0  0  0  0  0  0  0  0  0  0
   -0.4194   -0.2159   -3.1905 C   0  0  0  0  0  0  0  0  0  0  0  0
   -0.1045   -0.4605   -4.3538 O   0  0  0  0  0  0  0  0  0  0  0  0
    0.5115    0.0500   -2.2109 N   0  0  0  0  0  0  0  0  0  0  0  0
    1.9451    0.0307   -2.4710 C   0  0  0  0  0  0  0  0  0  0  0  0
    2.4632   -1.3994   -2.6989 C   0  0  0  0  0  0  0  0  0  0  0  0
    2.4930   -2.1855   -1.3923 C   0  0  0  0  0  0  0  0  0  0  0  0
    3.4505   -1.5367   -0.3968 C   0  0  0  0  0  0  0  0  0  0  0  0
    3.3134   -0.0361   -0.3112 C   0  0  0  0  0  0  0  0  0  0  0  0
    3.9142    0.6363    0.7644 C   0  0  0  0  0  0  0  0  0  0  0  0
    3.8470    2.0255    0.8635 C   0  0  0  0  0  0  0  0  0  0  0  0
    3.1869    2.7610   -0.1156 C   0  0  0  0  0  0  0  0  0  0  0  0
    2.5942    2.1073   -1.1949 C   0  0  0  0  0  0  0  0  0  0  0  0
    2.6541    0.7069   -1.3095 C   0  0  0  0  0  0  0  0  0  0  0  0
   -2.0140    0.5823   -0.3635 C   0  0  0  0  0  0  0  0  0  0  0  0
   -1.6699    1.7495   -0.4946 O   0  0  0  0  0  0  0  0  0  0  0  0
    0.7695   -0.6684    2.4463 H   0  0  0  0  0  0  0  0  0  0  0  0
   -0.3263   -1.9427    1.9024 H   0  0  0  0  0  0  0  0  0  0  0  0
    0.3398   -0.7801    0.7380 H   0  0  0  0  0  0  0  0  0  0  0  0
   -0.8292    1.0693    1.9232 H   0  0  0  0  0  0  0  0  0  0  0  0
   -0.9542   -0.0721    4.1557 H   0  0  0  0  0  0  0  0  0  0  0  0
   -2.2157   -1.1194    3.5274 H   0  0  0  0  0  0  0  0  0  0  0  0
   -2.3404    1.7712    4.3004 H   0  0  0  0  0  0  0  0  0  0  0  0
   -3.5361    0.5014    4.4764 H   0  0  0  0  0  0  0  0  0  0  0  0
   -3.0034    2.3468    2.1464 H   0  0  0  0  0  0  0  0  0  0  0  0
   -4.5355    1.8814    2.8675 H   0  0  0  0  0  0  0  0  0  0  0  0
   -4.3190    0.8630    0.6427 H   0  0  0  0  0  0  0  0  0  0  0  0
   -4.3398   -0.3796    1.8818 H   0  0  0  0  0  0  0  0  0  0  0  0
   -2.8139   -2.2646    1.0317 H   0  0  0  0  0  0  0  0  0  0  0  0
   -2.4886   -0.7265   -3.3829 H   0  0  0  0  0  0  0  0  0  0  0  0
   -2.1723    0.9926   -2.9933 H   0  0  0  0  0  0  0  0  0  0  0  0
    0.2068    0.6182   -1.4292 H   0  0  0  0  0  0  0  0  0  0  0  0
    2.1255    0.6066   -3.3879 H   0  0  0  0  0  0  0  0  0  0  0  0
    1.8465   -1.9322   -3.4308 H   0  0  0  0  0  0  0  0  0  0  0  0
    3.4791   -1.3576   -3.1135 H   0  0  0  0  0  0  0  0  0  0  0  0
    1.4844   -2.2371   -0.9648 H   0  0  0  0  0  0  0  0  0  0  0  0
    2.8080   -3.2181   -1.5815 H   0  0  0  0  0  0  0  0  0  0  0  0
    3.2854   -1.9827    0.5914 H   0  0  0  0  0  0  0  0  0  0  0  0
    4.4827   -1.7631   -0.6928 H   0  0  0  0  0  0  0  0  0  0  0  0
    4.4433    0.0758    1.5325 H   0  0  0  0  0  0  0  0  0  0  0  0
    4.3141    2.5335    1.7029 H   0  0  0  0  0  0  0  0  0  0  0  0
    3.1328    3.8439   -0.0398 H   0  0  0  0  0  0  0  0  0  0  0  0
    2.0759    2.6957   -1.9502 H   0  0  0  0  0  0  0  0  0  0  0  0
  1  2  1  0
  2  3  1  0
  3  4  1  0
  4  5  1  0
  5  6  1  0
  6  7  1  0
  7  8  1  0
  8  9  1  0
  9 10  2  0
  9 11  1  0
 11 12  1  0
 12 13  1  0
 13 14  2  0
 13 15  1  0
 15 16  1  0
 16 17  1  0
 17 18  1  0
 18 19  1  0
 19 20  1  0
 20 21  2  0
 21 22  1  0
 22 23  2  0
 23 24  1  0
 24 25  2  0
 11 26  1  0
 26 27  2  0
  7  2  1  0
 25 16  1  0
 26  7  1  0
 25 20  1  0
  1 28  1  0
  1 29  1  0
  1 30  1  0
  2 31  1  0
  3 32  1  0
  3 33  1  0
  4 34  1  0
  4 35  1  0
  5 36  1  0
  5 37  1  0
  6 38  1  0
  6 39  1  0
  8 40  1  0
 12 41  1  0
 12 42  1  0
 15 43  1  0
 16 44  1  0
 17 45  1  0
 17 46  1  0
 18 47  1  0
 18 48  1  0
 19 49  1  0
 19 50  1  0
 21 51  1  0
 22 52  1  0
 23 53  1  0
 24 54  1  0
M  END
$$$$
