
     RDKit          3D

 69 72  0  0  0  0  0  0  0  0999 V2000
  -10.1357    1.4583    2.8987 C   0  0  0  0  0  0  0  0  0  0  0  0
   -8.8444    1.2812    2.1570 C   0  0  0  0  0  0  0  0  0  0  0  0
   -8.5518    2.0669    1.0375 C   0  0  0  0  0  0  0  0  0  0  0  0
   -7.3360    1.9224    0.3572 C   0  0  0  0  0  0  0  0  0  0  0  0
   -6.3918    0.9837    0.7864 C   0  0  0  0  0  0  0  0  0  0  0  0
   -5.1394    0.7926    0.1232 N   0  0  0  0  0  0  0  0  0  0  0  0
   -4.1410    0.1558    0.7943 N   0  0  0  0  0  0  0  0  0  0  0  0
   -3.0620    0.2844    0.0197 C   0  0  0  0  0  0  0  0  0  0  0  0
   -1.7184   -0.1912    0.3244 C   0  0  0  0  0  0  0  0  0  0  0  0
   -1.4163   -0.7655    1.3697 O   0  0  0  0  0  0  0  0  0  0  0  0
   -0.8025    0.0664   -0.7168 N   0  0  0  0  0  0  0  0  0  0  0  0
    0.5683   -0.4186   -0.5930 C   0  0  0  0  0  0  0  0  0  0  0  0
    0.6787   -1.8906   -0.9999 C   0  0  0  0  0  0  0  0  0  0  0  0
    2.0776   -2.4519   -0.7598 C   0  0  0  0  0  0  0  0  0  0  0  0
    3.1079   -1.9371   -1.7465 C   0  0  0  0  0  0  0  0  0  0  0  0
    2.8295   -1.2730   -2.7384 O   0  0  0  0  0  0  0  0  0  0  0  0
    4.3937   -2.3204   -1.4229 N   0  0  0  0  0  0  0  0  0  0  0  0
    5.5276   -1.7587   -2.1385 C   0  0  0  0  0  0  0  0  0  0  0  0
    5.9097   -0.3709   -1.5886 C   0  0  0  0  0  0  0  0  0  0  0  0
    6.1159   -0.3677   -0.1255 N   0  0  0  0  0  0  0  0  0  0  0  0
    6.0895    1.0162    0.3991 C   0  0  0  0  0  0  0  0  0  0  0  0
    6.7866    1.2048    1.7735 C   0  0  0  0  0  0  0  0  0  0  0  0
    6.8889   -0.0054    2.6073 N   0  0  0  0  0  0  0  0  0  0  0  0
    5.5707   -0.4121    3.0985 C   0  0  0  0  0  0  0  0  0  0  0  0
    7.5239   -1.0925    1.8303 C   0  0  0  0  0  0  0  0  0  0  0  0
    7.3634   -1.0280    0.2853 C   0  0  0  0  0  0  0  0  0  0  0  0
   -1.1154    0.6915   -1.9272 N   0  0  0  0  0  0  0  0  0  0  0  0
   -2.3225    1.1145   -2.1761 C   0  0  0  0  0  0  0  0  0  0  0  0
   -2.5808    1.7952   -3.4900 C   0  0  0  0  0  0  0  0  0  0  0  0
   -3.3606    0.9110   -1.1947 C   0  0  0  0  0  0  0  0  0  0  0  0
   -4.7245    1.1529   -1.1659 C   0  0  0  0  0  0  0  0  0  0  0  0
   -5.6310    1.6155   -2.2485 C   0  0  0  0  0  0  0  0  0  0  0  0
   -6.6686    0.2310    1.9397 C   0  0  0  0  0  0  0  0  0  0  0  0
   -7.8837    0.3773    2.6154 C   0  0  0  0  0  0  0  0  0  0  0  0
  -10.0156    2.2080    3.6870 H   0  0  0  0  0  0  0  0  0  0  0  0
  -10.9348    1.7805    2.2216 H   0  0  0  0  0  0  0  0  0  0  0  0
  -10.4564    0.5143    3.3519 H   0  0  0  0  0  0  0  0  0  0  0  0
   -9.2687    2.8077    0.6898 H   0  0  0  0  0  0  0  0  0  0  0  0
   -7.1524    2.5954   -0.4709 H   0  0  0  0  0  0  0  0  0  0  0  0
    1.2161    0.2161   -1.2083 H   0  0  0  0  0  0  0  0  0  0  0  0
    0.8866   -0.2952    0.4493 H   0  0  0  0  0  0  0  0  0  0  0  0
    0.3889   -2.0073   -2.0517 H   0  0  0  0  0  0  0  0  0  0  0  0
   -0.0352   -2.4843   -0.4149 H   0  0  0  0  0  0  0  0  0  0  0  0
    2.0464   -3.5426   -0.8681 H   0  0  0  0  0  0  0  0  0  0  0  0
    2.4055   -2.2253    0.2610 H   0  0  0  0  0  0  0  0  0  0  0  0
    4.5710   -2.5236   -0.4475 H   0  0  0  0  0  0  0  0  0  0  0  0
    6.3568   -2.4658   -2.0373 H   0  0  0  0  0  0  0  0  0  0  0  0
    5.2833   -1.6800   -3.2038 H   0  0  0  0  0  0  0  0  0  0  0  0
    5.0841    0.3123   -1.8278 H   0  0  0  0  0  0  0  0  0  0  0  0
    6.7972    0.0047   -2.1130 H   0  0  0  0  0  0  0  0  0  0  0  0
    5.0374    1.3127    0.4949 H   0  0  0  0  0  0  0  0  0  0  0  0
    6.5610    1.7129   -0.3067 H   0  0  0  0  0  0  0  0  0  0  0  0
    6.2948    2.0130    2.3281 H   0  0  0  0  0  0  0  0  0  0  0  0
    7.8098    1.5607    1.5928 H   0  0  0  0  0  0  0  0  0  0  0  0
    5.6711   -1.2492    3.7998 H   0  0  0  0  0  0  0  0  0  0  0  0
    4.8863   -0.7190    2.3013 H   0  0  0  0  0  0  0  0  0  0  0  0
    5.1013    0.4028    3.6594 H   0  0  0  0  0  0  0  0  0  0  0  0
    7.1712   -2.0693    2.1882 H   0  0  0  0  0  0  0  0  0  0  0  0
    8.5989   -1.0739    2.0522 H   0  0  0  0  0  0  0  0  0  0  0  0
    8.2238   -0.4945   -0.1411 H   0  0  0  0  0  0  0  0  0  0  0  0
    7.4046   -2.0556   -0.0917 H   0  0  0  0  0  0  0  0  0  0  0  0
   -3.1516    2.7143   -3.3348 H   0  0  0  0  0  0  0  0  0  0  0  0
   -3.1365    1.1209   -4.1468 H   0  0  0  0  0  0  0  0  0  0  0  0
   -1.6357    2.0535   -3.9763 H   0  0  0  0  0  0  0  0  0  0  0  0
   -5.2523    1.3188   -3.2306 H   0  0  0  0  0  0  0  0  0  0  0  0
   -5.7203    2.7061   -2.2417 H   0  0  0  0  0  0  0  0  0  0  0  0
   -6.6221    1.1608   -2.1733 H   0  0  0  0  0  0  0  0  0  0  0  0
   -5.9484   -0.4914    2.3224 H   0  0  0  0  0  0  0  0  0  0  0  0
   -8.0716   -0.2247    3.5019 H   0  0  0  0  0  0  0  0  0  0  0  0
  1  2  1  0
  2  3  2  0
  3  4  1  0
  4  5  2  0
  5  6  1  0
  6  7  1  0
  7  8  2  0
  8  9  1  0
  9 10  2  0
  9 11  1  0
 11 12  1  0
 12 13  1  0
 13 14  1  0
 14 15  1  0
 15 16  2  0
 15 17  1  0
 17 18  1  0
 18 19  1  0
 19 20  1  0
 20 21  1  0
 21 22  1  0
 22 23  1  0
 23 24  1  0
 23 25  1  0
 25 26  1  0
 11 27  1  0
 27 28  2  0
 28 29  1  0
 28 30  1  0
 30 31  2  0
 31 32  1  0
  5 33  1  0
 33 34  2  0
 34  2  1  0
 31  6  1  0
 30  8  1  0
 26 20  1  0
  1 35  1  0
  1 36  1  0
  1 37  1  0
  3 38  1  0
  4 39  1  0
 12 40  1  0
 12 41  1  0
 13 42  1  0
 13 43  1  0
 14 44  1  0
 14 45  1  0
 17 46  1  0
 18 47  1  0
 18 48  1  0
 19 49  1  0
 19 50  1  0
 21 51  1  0
 21 52  1  0
 22 53  1  0
 22 54  1  0
 24 55  1  0
 24 56  1  0
 24 57  1  0
 25 58  1  0
 25 59  1  0
 26 60  1  0
 26 61  1  0
 29 62  1  0
 29 63  1  0
 29 64  1  0
 32 65  1  0
 32 66  1  0
 32 67  1  0
 33 68  1  0
 34 69  1  0
M  END
$$$$
