
     RDKit          3D

 46 48  0  0  0  0  0  0  0  0999 V2000
    6.4022   -3.0802   -1.2886 C   0  0  0  0  0  0  0  0  0  0  0  0
    4.9815   -3.0431   -1.3429 O   0  0  0  0  0  0  0  0  0  0  0  0
    4.4537   -1.7182   -1.2628 C   0  0  0  0  0  0  0  0  0  0  0  0
    4.2994   -1.2615    0.1923 C   0  0  0  0  0  0  0  0  0  0  0  0
    3.8662    0.1333    0.2915 N   0  0  0  0  0  0  0  0  0  0  0  0
    2.5085    0.4091    0.2317 C   0  0  0  0  0  0  0  0  0  0  0  0
    1.6318   -0.4307    0.0968 O   0  0  0  0  0  0  0  0  0  0  0  0
    2.2767    1.8789    0.3288 C   0  0  0  0  0  0  0  0  0  0  0  0
    1.1059    2.5306    0.3431 C   0  0  0  0  0  0  0  0  0  0  0  0
   -0.2201    1.9104    0.2672 C   0  0  0  0  0  0  0  0  0  0  0  0
   -0.8044    1.7380   -0.9888 C   0  0  0  0  0  0  0  0  0  0  0  0
   -2.0754    1.1625   -1.1109 C   0  0  0  0  0  0  0  0  0  0  0  0
   -2.8084    0.7339    0.0033 C   0  0  0  0  0  0  0  0  0  0  0  0
   -4.0575    0.1706   -0.1199 N   0  0  0  0  0  0  0  0  0  0  0  0
   -4.7640    0.0099   -1.3878 C   0  0  0  0  0  0  0  0  0  0  0  0
   -6.1501   -0.4740   -0.9716 C   0  0  0  0  0  0  0  0  0  0  0  0
   -5.8616   -1.2961    0.2718 C   0  0  0  0  0  0  0  0  0  0  0  0
   -4.7643   -0.4968    0.9717 C   0  0  0  0  0  0  0  0  0  0  0  0
   -2.2001    0.9239    1.2561 C   0  0  0  0  0  0  0  0  0  0  0  0
   -0.9243    1.5065    1.4100 C   0  0  0  0  0  0  0  0  0  0  0  0
   -0.3487    1.6578    2.7911 C   0  0  0  0  0  0  0  0  0  0  0  0
    3.7904    2.7020    0.4274 S   0  0  0  0  0  0  0  0  0  0  0  0
    4.7196    1.2131    0.3533 C   0  0  0  0  0  0  0  0  0  0  0  0
    6.3880    1.2082    0.3552 S   0  0  0  0  0  0  0  0  0  0  0  0
    6.7198   -4.1234   -1.3677 H   0  0  0  0  0  0  0  0  0  0  0  0
    6.7703   -2.6781   -0.3410 H   0  0  0  0  0  0  0  0  0  0  0  0
    6.8315   -2.5229   -2.1267 H   0  0  0  0  0  0  0  0  0  0  0  0
    3.4679   -1.7360   -1.7409 H   0  0  0  0  0  0  0  0  0  0  0  0
    5.0713   -1.0249   -1.8461 H   0  0  0  0  0  0  0  0  0  0  0  0
    5.2336   -1.3986    0.7445 H   0  0  0  0  0  0  0  0  0  0  0  0
    3.5654   -1.9062    0.6918 H   0  0  0  0  0  0  0  0  0  0  0  0
    1.0785    3.6156    0.4187 H   0  0  0  0  0  0  0  0  0  0  0  0
   -0.2792    2.0427   -1.8906 H   0  0  0  0  0  0  0  0  0  0  0  0
   -2.4760    1.0448   -2.1133 H   0  0  0  0  0  0  0  0  0  0  0  0
   -4.8417    0.9476   -1.9482 H   0  0  0  0  0  0  0  0  0  0  0  0
   -4.2656   -0.7450   -2.0070 H   0  0  0  0  0  0  0  0  0  0  0  0
   -6.6469   -1.0490   -1.7578 H   0  0  0  0  0  0  0  0  0  0  0  0
   -6.7870    0.3812   -0.7149 H   0  0  0  0  0  0  0  0  0  0  0  0
   -5.4813   -2.2843   -0.0145 H   0  0  0  0  0  0  0  0  0  0  0  0
   -6.7427   -1.4390    0.9034 H   0  0  0  0  0  0  0  0  0  0  0  0
   -4.1201   -1.1714    1.5461 H   0  0  0  0  0  0  0  0  0  0  0  0
   -5.2014    0.2490    1.6452 H   0  0  0  0  0  0  0  0  0  0  0  0
   -2.7303    0.6200    2.1550 H   0  0  0  0  0  0  0  0  0  0  0  0
   -1.0816    1.3999    3.5631 H   0  0  0  0  0  0  0  0  0  0  0  0
   -0.0439    2.6941    2.9696 H   0  0  0  0  0  0  0  0  0  0  0  0
    0.5141    0.9960    2.9164 H   0  0  0  0  0  0  0  0  0  0  0  0
  1  2  1  0
  2  3  1  0
  3  4  1  0
  4  5  1  0
  5  6  1  0
  6  7  2  0
  6  8  1  0
  8  9  2  3
  9 10  1  0
 10 11  2  0
 11 12  1  0
 12 13  2  0
 13 14  1  0
 14 15  1  0
 15 16  1  0
 16 17  1  0
 17 18  1  0
 13 19  1  0
 19 20  2  0
 20 21  1  0
  8 22  1  0
 22 23  1  0
 23 24  2  0
 23  5  1  0
 20 10  1  0
 18 14  1  0
  1 25  1  0
  1 26  1  0
  1 27  1  0
  3 28  1  0
  3 29  1  0
  4 30  1  0
  4 31  1  0
  9 32  1  0
 11 33  1  0
 12 34  1  0
 15 35  1  0
 15 36  1  0
 16 37  1  0
 16 38  1  0
 17 39  1  0
 17 40  1  0
 18 41  1  0
 18 42  1  0
 19 43  1  0
 21 44  1  0
 21 45  1  0
 21 46  1  0
M  END
$$$$
