
     RDKit          3D

 47 49  0  0  0  0  0  0  0  0999 V2000
    6.9220    0.9133    0.3808 C   0  0  0  0  0  0  0  0  0  0  0  0
    6.1953   -0.4137    0.1761 C   0  0  0  0  0  0  0  0  0  0  0  0
    6.8617   -1.5265    0.9776 C   0  0  0  0  0  0  0  0  0  0  0  0
    4.7987   -0.2939    0.5534 N   0  0  0  0  0  0  0  0  0  0  0  0
    3.8482    0.2397   -0.2901 C   0  0  0  0  0  0  0  0  0  0  0  0
    4.0139    0.5532   -1.4595 O   0  0  0  0  0  0  0  0  0  0  0  0
    2.4732    0.4364    0.3776 C   0  0  0  0  0  0  0  0  0  0  0  0
    2.3022    0.1496    1.5571 O   0  0  0  0  0  0  0  0  0  0  0  0
    1.5115    0.9394   -0.4718 N   0  0  0  0  0  0  0  0  0  0  0  0
    0.1712    0.8965   -0.0563 N   0  0  0  0  0  0  0  0  0  0  0  0
   -0.7668    0.4826   -0.9841 C   0  0  0  0  0  0  0  0  0  0  0  0
   -0.4769    0.3346   -2.1710 O   0  0  0  0  0  0  0  0  0  0  0  0
   -2.1720    0.2234   -0.4213 C   0  0  0  0  0  0  0  0  0  0  0  0
   -3.1393   -0.1570   -1.5722 C   0  0  0  0  0  0  0  0  0  0  0  0
   -4.5537   -0.4234   -1.0321 C   0  0  0  0  0  0  0  0  0  0  0  0
   -5.0733    0.8427   -0.3327 C   0  0  0  0  0  0  0  0  0  0  0  0
   -4.1405    1.2222    0.8283 C   0  0  0  0  0  0  0  0  0  0  0  0
   -4.0835    0.0591    1.8336 C   0  0  0  0  0  0  0  0  0  0  0  0
   -3.5603   -1.2120    1.1429 C   0  0  0  0  0  0  0  0  0  0  0  0
   -4.4967   -1.5782   -0.0196 C   0  0  0  0  0  0  0  0  0  0  0  0
   -2.1473   -0.9444    0.5946 C   0  0  0  0  0  0  0  0  0  0  0  0
   -2.7269    1.4865    0.2803 C   0  0  0  0  0  0  0  0  0  0  0  0
    7.9736    0.8322    0.0869 H   0  0  0  0  0  0  0  0  0  0  0  0
    6.4650    1.7079   -0.2186 H   0  0  0  0  0  0  0  0  0  0  0  0
    6.8828    1.2287    1.4295 H   0  0  0  0  0  0  0  0  0  0  0  0
    6.2369   -0.6713   -0.8890 H   0  0  0  0  0  0  0  0  0  0  0  0
    7.9081   -1.6506    0.6805 H   0  0  0  0  0  0  0  0  0  0  0  0
    6.8340   -1.3149    2.0524 H   0  0  0  0  0  0  0  0  0  0  0  0
    6.3480   -2.4806    0.8166 H   0  0  0  0  0  0  0  0  0  0  0  0
    4.5259   -0.3897    1.5287 H   0  0  0  0  0  0  0  0  0  0  0  0
    1.6874    0.9375   -1.4806 H   0  0  0  0  0  0  0  0  0  0  0  0
    0.0243    0.7693    0.9433 H   0  0  0  0  0  0  0  0  0  0  0  0
   -2.7731   -1.0488   -2.0980 H   0  0  0  0  0  0  0  0  0  0  0  0
   -3.1755    0.6475   -2.3188 H   0  0  0  0  0  0  0  0  0  0  0  0
   -5.2216   -0.6894   -1.8590 H   0  0  0  0  0  0  0  0  0  0  0  0
   -5.1339    1.6698   -1.0506 H   0  0  0  0  0  0  0  0  0  0  0  0
   -6.0896    0.6725    0.0434 H   0  0  0  0  0  0  0  0  0  0  0  0
   -4.5176    2.1226    1.3259 H   0  0  0  0  0  0  0  0  0  0  0  0
   -3.4320    0.3232    2.6757 H   0  0  0  0  0  0  0  0  0  0  0  0
   -5.0818   -0.1251    2.2493 H   0  0  0  0  0  0  0  0  0  0  0  0
   -3.5263   -2.0368    1.8634 H   0  0  0  0  0  0  0  0  0  0  0  0
   -5.5026   -1.7915    0.3624 H   0  0  0  0  0  0  0  0  0  0  0  0
   -4.1428   -2.4921   -0.5123 H   0  0  0  0  0  0  0  0  0  0  0  0
   -1.4747   -0.7232    1.4324 H   0  0  0  0  0  0  0  0  0  0  0  0
   -1.7524   -1.8508    0.1173 H   0  0  0  0  0  0  0  0  0  0  0  0
   -2.0737    1.7941    1.1066 H   0  0  0  0  0  0  0  0  0  0  0  0
   -2.7488    2.3295   -0.4226 H   0  0  0  0  0  0  0  0  0  0  0  0
  1  2  1  0
  2  3  1  0
  2  4  1  0
  4  5  1  0
  5  6  2  0
  5  7  1  0
  7  8  2  0
  7  9  1  0
  9 10  1  0
 10 11  1  0
 11 12  2  0
 11 13  1  0
 13 14  1  0
 14 15  1  0
 15 16  1  0
 16 17  1  0
 17 18  1  0
 18 19  1  0
 19 20  1  0
 19 21  1  0
 17 22  1  0
 21 13  1  0
 22 13  1  0
 20 15  1  0
  1 23  1  0
  1 24  1  0
  1 25  1  0
  2 26  1  0
  3 27  1  0
  3 28  1  0
  3 29  1  0
  4 30  1  0
  9 31  1  0
 10 32  1  0
 14 33  1  0
 14 34  1  0
 15 35  1  0
 16 36  1  0
 16 37  1  0
 17 38  1  0
 18 39  1  0
 18 40  1  0
 19 41  1  0
 20 42  1  0
 20 43  1  0
 21 44  1  0
 21 45  1  0
 22 46  1  0
 22 47  1  0
M  END
$$$$
