
     RDKit          3D

 48 51  0  0  0  0  0  0  0  0999 V2000
    9.1488    0.4855   -0.5577 C   0  0  0  0  0  0  0  0  0  0  0  0
    8.2211    0.2825    0.5005 O   0  0  0  0  0  0  0  0  0  0  0  0
    6.8941    0.3193    0.1750 C   0  0  0  0  0  0  0  0  0  0  0  0
    6.3643    0.5455   -1.0929 C   0  0  0  0  0  0  0  0  0  0  0  0
    4.9746    0.5579   -1.2870 C   0  0  0  0  0  0  0  0  0  0  0  0
    4.0793    0.3486   -0.2227 C   0  0  0  0  0  0  0  0  0  0  0  0
    2.6139    0.3620   -0.4105 C   0  0  0  0  0  0  0  0  0  0  0  0
    1.9758    1.1696   -1.3467 C   0  0  0  0  0  0  0  0  0  0  0  0
    0.5856    1.1200   -1.4556 C   0  0  0  0  0  0  0  0  0  0  0  0
   -0.1602    0.2701   -0.6291 C   0  0  0  0  0  0  0  0  0  0  0  0
   -1.6109    0.2319   -0.7446 C   0  0  0  0  0  0  0  0  0  0  0  0
   -2.2636    0.5662   -1.8718 N   0  0  0  0  0  0  0  0  0  0  0  0
   -3.6069    0.4083   -1.5364 O   0  0  0  0  0  0  0  0  0  0  0  0
   -3.6465    0.0156   -0.2302 C   0  0  0  0  0  0  0  0  0  0  0  0
   -4.9487   -0.2498    0.3847 C   0  0  0  0  0  0  0  0  0  0  0  0
   -4.9484   -0.8990    1.6369 C   0  0  0  0  0  0  0  0  0  0  0  0
   -6.1371   -1.2003    2.3003 C   0  0  0  0  0  0  0  0  0  0  0  0
   -7.3512   -0.8538    1.7232 C   0  0  0  0  0  0  0  0  0  0  0  0
   -7.3779   -0.2044    0.4869 C   0  0  0  0  0  0  0  0  0  0  0  0
   -6.1881    0.1045   -0.1913 C   0  0  0  0  0  0  0  0  0  0  0  0
   -6.1574    0.7580   -1.3961 O   0  0  0  0  0  0  0  0  0  0  0  0
   -7.3932    1.0781   -2.0212 C   0  0  0  0  0  0  0  0  0  0  0  0
   -2.4461   -0.1013    0.2965 N   0  0  0  0  0  0  0  0  0  0  0  0
    0.5560   -0.5059    0.2798 C   0  0  0  0  0  0  0  0  0  0  0  0
   -0.1320   -1.3962    1.0800 O   0  0  0  0  0  0  0  0  0  0  0  0
    0.6940   -2.1144    1.9888 C   0  0  0  0  0  0  0  0  0  0  0  0
    1.9098   -0.4661    0.3997 N   0  0  0  0  0  0  0  0  0  0  0  0
    4.6379    0.1128    1.0451 C   0  0  0  0  0  0  0  0  0  0  0  0
    6.0233    0.1017    1.2413 C   0  0  0  0  0  0  0  0  0  0  0  0
   10.1564    0.4231   -0.1355 H   0  0  0  0  0  0  0  0  0  0  0  0
    9.0575   -0.2969   -1.3184 H   0  0  0  0  0  0  0  0  0  0  0  0
    9.0335    1.4813   -0.9982 H   0  0  0  0  0  0  0  0  0  0  0  0
    6.9997    0.7105   -1.9566 H   0  0  0  0  0  0  0  0  0  0  0  0
    4.6029    0.7157   -2.2973 H   0  0  0  0  0  0  0  0  0  0  0  0
    2.5352    1.8502   -1.9802 H   0  0  0  0  0  0  0  0  0  0  0  0
    0.0898    1.7581   -2.1848 H   0  0  0  0  0  0  0  0  0  0  0  0
   -4.0030   -1.1781    2.1028 H   0  0  0  0  0  0  0  0  0  0  0  0
   -6.1104   -1.7032    3.2636 H   0  0  0  0  0  0  0  0  0  0  0  0
   -8.2821   -1.0849    2.2356 H   0  0  0  0  0  0  0  0  0  0  0  0
   -8.3509    0.0527    0.0806 H   0  0  0  0  0  0  0  0  0  0  0  0
   -7.9743    0.1751   -2.2350 H   0  0  0  0  0  0  0  0  0  0  0  0
   -7.9677    1.7877   -1.4171 H   0  0  0  0  0  0  0  0  0  0  0  0
   -7.1682    1.5619   -2.9766 H   0  0  0  0  0  0  0  0  0  0  0  0
    0.0464   -2.7675    2.5819 H   0  0  0  0  0  0  0  0  0  0  0  0
    1.4093   -2.7513    1.4569 H   0  0  0  0  0  0  0  0  0  0  0  0
    1.2064   -1.4378    2.6815 H   0  0  0  0  0  0  0  0  0  0  0  0
    3.9871   -0.0629    1.9005 H   0  0  0  0  0  0  0  0  0  0  0  0
    6.4222   -0.0810    2.2360 H   0  0  0  0  0  0  0  0  0  0  0  0
  1  2  1  0
  2  3  1  0
  3  4  2  0
  4  5  1  0
  5  6  2  0
  6  7  1  0
  7  8  2  0
  8  9  1  0
  9 10  2  0
 10 11  1  0
 11 12  2  0
 12 13  1  0
 13 14  1  0
 14 15  1  0
 15 16  2  0
 16 17  1  0
 17 18  2  0
 18 19  1  0
 19 20  2  0
 20 21  1  0
 21 22  1  0
 14 23  2  0
 10 24  1  0
 24 25  1  0
 25 26  1  0
 24 27  2  0
  6 28  1  0
 28 29  2  0
 29  3  1  0
 27  7  1  0
 23 11  1  0
 20 15  1  0
  1 30  1  0
  1 31  1  0
  1 32  1  0
  4 33  1  0
  5 34  1  0
  8 35  1  0
  9 36  1  0
 16 37  1  0
 17 38  1  0
 18 39  1  0
 19 40  1  0
 22 41  1  0
 22 42  1  0
 22 43  1  0
 26 44  1  0
 26 45  1  0
 26 46  1  0
 28 47  1  0
 29 48  1  0
M  END
$$$$
