
     RDKit          3D

 43 44  0  0  0  0  0  0  0  0999 V2000
    4.4734   -3.7189   -4.1112 C   0  0  0  0  0  0  0  0  0  0  0  0
    3.8157   -3.4067   -2.8887 O   0  0  0  0  0  0  0  0  0  0  0  0
    3.8368   -2.1017   -2.4752 C   0  0  0  0  0  0  0  0  0  0  0  0
    4.4601   -1.0479   -3.1394 C   0  0  0  0  0  0  0  0  0  0  0  0
    4.3568    0.2495   -2.6358 C   0  0  0  0  0  0  0  0  0  0  0  0
    3.6370    0.4911   -1.4638 C   0  0  0  0  0  0  0  0  0  0  0  0
    3.0361   -0.5621   -0.7672 C   0  0  0  0  0  0  0  0  0  0  0  0
    2.3540   -0.2347    0.4243 N   0  0  0  0  0  0  0  0  0  0  0  0
    1.7784   -1.1029    1.3287 C   0  0  0  0  0  0  0  0  0  0  0  0
    1.7272   -2.3260    1.2476 O   0  0  0  0  0  0  0  0  0  0  0  0
    1.1970   -0.4055    2.5312 C   0  0  0  0  0  0  0  0  0  0  0  0
   -0.2708   -0.0954    2.3730 C   0  0  0  0  0  0  0  0  0  0  0  0
   -1.2083   -1.2685    2.2046 C   0  0  0  0  0  0  0  0  0  0  0  0
   -0.6122    1.1642    2.4210 N   0  0  0  0  0  0  0  0  0  0  0  0
   -1.9154    1.4989    2.1749 N   0  0  0  0  0  0  0  0  0  0  0  0
   -2.4746    1.3148    0.9124 C   0  0  0  0  0  0  0  0  0  0  0  0
   -1.9850    0.6469    0.0069 O   0  0  0  0  0  0  0  0  0  0  0  0
   -3.8114    1.9243    0.7162 C   0  0  0  0  0  0  0  0  0  0  0  0
   -4.8092    1.0828    0.1953 C   0  0  0  0  0  0  0  0  0  0  0  0
   -6.1104    1.5579    0.0228 C   0  0  0  0  0  0  0  0  0  0  0  0
   -6.4175    2.8758    0.3452 C   0  0  0  0  0  0  0  0  0  0  0  0
   -5.4225    3.7242    0.8356 C   0  0  0  0  0  0  0  0  0  0  0  0
   -4.1209    3.2533    1.0333 C   0  0  0  0  0  0  0  0  0  0  0  0
   -2.9549    4.3661    1.6433 Cl  0  0  0  0  0  0  0  0  0  0  0  0
    3.1444   -1.8549   -1.2814 C   0  0  0  0  0  0  0  0  0  0  0  0
    4.1189   -3.0944   -4.9410 H   0  0  0  0  0  0  0  0  0  0  0  0
    5.5620   -3.6431   -3.9932 H   0  0  0  0  0  0  0  0  0  0  0  0
    4.2423   -4.7589   -4.3553 H   0  0  0  0  0  0  0  0  0  0  0  0
    5.0213   -1.1938   -4.0550 H   0  0  0  0  0  0  0  0  0  0  0  0
    4.8292    1.0767   -3.1624 H   0  0  0  0  0  0  0  0  0  0  0  0
    3.5694    1.5079   -1.0997 H   0  0  0  0  0  0  0  0  0  0  0  0
    2.2597    0.7563    0.6204 H   0  0  0  0  0  0  0  0  0  0  0  0
    1.7553    0.5147    2.7394 H   0  0  0  0  0  0  0  0  0  0  0  0
    1.3320   -1.0519    3.4048 H   0  0  0  0  0  0  0  0  0  0  0  0
   -0.8731   -2.0823    2.8536 H   0  0  0  0  0  0  0  0  0  0  0  0
   -1.1836   -1.6157    1.1697 H   0  0  0  0  0  0  0  0  0  0  0  0
   -2.2328   -1.0178    2.4859 H   0  0  0  0  0  0  0  0  0  0  0  0
   -2.2138    2.3304    2.6782 H   0  0  0  0  0  0  0  0  0  0  0  0
   -4.5740    0.0525   -0.0549 H   0  0  0  0  0  0  0  0  0  0  0  0
   -6.8833    0.8948   -0.3621 H   0  0  0  0  0  0  0  0  0  0  0  0
   -7.4303    3.2440    0.2042 H   0  0  0  0  0  0  0  0  0  0  0  0
   -5.6734    4.7561    1.0741 H   0  0  0  0  0  0  0  0  0  0  0  0
    2.6705   -2.7001   -0.7902 H   0  0  0  0  0  0  0  0  0  0  0  0
  1  2  1  0
  2  3  1  0
  3  4  2  0
  4  5  1  0
  5  6  2  0
  6  7  1  0
  7  8  1  0
  8  9  1  0
  9 10  2  0
  9 11  1  0
 11 12  1  0
 12 13  1  0
 12 14  2  3
 14 15  1  0
 15 16  1  0
 16 17  2  0
 16 18  1  0
 18 19  2  0
 19 20  1  0
 20 21  2  0
 21 22  1  0
 22 23  2  0
 23 24  1  0
  7 25  2  0
 25  3  1  0
 23 18  1  0
  1 26  1  0
  1 27  1  0
  1 28  1  0
  4 29  1  0
  5 30  1  0
  6 31  1  0
  8 32  1  0
 11 33  1  0
 11 34  1  0
 13 35  1  0
 13 36  1  0
 13 37  1  0
 15 38  1  0
 19 39  1  0
 20 40  1  0
 21 41  1  0
 22 42  1  0
 25 43  1  0
M  END
$$$$
