
     RDKit          3D

 52 54  0  0  0  0  0  0  0  0999 V2000
   -7.0688   -0.6094    0.2936 C   0  0  0  0  0  0  0  0  0  0  0  0
   -5.7556   -0.8332    1.0287 C   0  0  0  0  0  0  0  0  0  0  0  0
   -4.5792   -0.2199    0.2660 C   0  0  0  0  0  0  0  0  0  0  0  0
   -3.2403   -0.3340    1.0097 C   0  0  0  0  0  0  0  0  0  0  0  0
   -2.2914   -1.4730    0.5659 C   0  0  0  0  0  0  0  0  0  0  0  0
   -2.8962   -2.8838    0.7099 C   0  0  0  0  0  0  0  0  0  0  0  0
   -3.1712   -3.2776    2.1554 C   0  0  0  0  0  0  0  0  0  0  0  0
   -1.7499   -1.2880   -0.8772 C   0  0  0  0  0  0  0  0  0  0  0  0
   -0.9065   -0.0974   -1.0395 N   0  0  0  0  0  0  0  0  0  0  0  0
    0.3594   -0.1070   -0.4744 C   0  0  0  0  0  0  0  0  0  0  0  0
    0.8579   -1.0303    0.1560 O   0  0  0  0  0  0  0  0  0  0  0  0
    1.0659    1.1741   -0.7463 C   0  0  0  0  0  0  0  0  0  0  0  0
    2.3124    1.3816   -0.2959 C   0  0  0  0  0  0  0  0  0  0  0  0
    3.1573    2.5240   -0.4568 C   0  0  0  0  0  0  0  0  0  0  0  0
    2.7659    3.8417   -0.5176 C   0  0  0  0  0  0  0  0  0  0  0  0
    3.9053    4.5669   -0.6925 N   0  0  0  0  0  0  0  0  0  0  0  0
    5.0168    3.8222   -0.7342 N   0  0  0  0  0  0  0  0  0  0  0  0
    4.5852    2.5615   -0.5604 C   0  0  0  0  0  0  0  0  0  0  0  0
    5.5388    1.4556   -0.5334 C   0  0  0  0  0  0  0  0  0  0  0  0
    5.5968    0.5822    0.5602 C   0  0  0  0  0  0  0  0  0  0  0  0
    6.5084   -0.4762    0.5692 C   0  0  0  0  0  0  0  0  0  0  0  0
    7.3726   -0.6629   -0.5092 C   0  0  0  0  0  0  0  0  0  0  0  0
    7.3328    0.2113   -1.5945 C   0  0  0  0  0  0  0  0  0  0  0  0
    6.4217    1.2694   -1.6052 C   0  0  0  0  0  0  0  0  0  0  0  0
    0.0733    2.1932   -1.7025 S   0  0  0  0  0  0  0  0  0  0  0  0
   -1.2321    1.0165   -1.7851 C   0  0  0  0  0  0  0  0  0  0  0  0
   -2.6124    1.3112   -2.6737 S   0  0  0  0  0  0  0  0  0  0  0  0
   -7.2755    0.4590    0.1748 H   0  0  0  0  0  0  0  0  0  0  0  0
   -7.0448   -1.0680   -0.7001 H   0  0  0  0  0  0  0  0  0  0  0  0
   -7.8971   -1.0549    0.8535 H   0  0  0  0  0  0  0  0  0  0  0  0
   -5.8258   -0.3882    2.0279 H   0  0  0  0  0  0  0  0  0  0  0  0
   -5.6100   -1.9087    1.1605 H   0  0  0  0  0  0  0  0  0  0  0  0
   -4.7938    0.8474    0.1244 H   0  0  0  0  0  0  0  0  0  0  0  0
   -4.5210   -0.6599   -0.7338 H   0  0  0  0  0  0  0  0  0  0  0  0
   -3.4195   -0.4082    2.0891 H   0  0  0  0  0  0  0  0  0  0  0  0
   -2.7043    0.6152    0.8811 H   0  0  0  0  0  0  0  0  0  0  0  0
   -1.4313   -1.4289    1.2473 H   0  0  0  0  0  0  0  0  0  0  0  0
   -3.8124   -2.9744    0.1166 H   0  0  0  0  0  0  0  0  0  0  0  0
   -2.1933   -3.6198    0.2995 H   0  0  0  0  0  0  0  0  0  0  0  0
   -3.9098   -2.6251    2.6271 H   0  0  0  0  0  0  0  0  0  0  0  0
   -2.2529   -3.2395    2.7502 H   0  0  0  0  0  0  0  0  0  0  0  0
   -3.5563   -4.3015    2.1974 H   0  0  0  0  0  0  0  0  0  0  0  0
   -2.5677   -1.2916   -1.6015 H   0  0  0  0  0  0  0  0  0  0  0  0
   -1.1170   -2.1493   -1.1292 H   0  0  0  0  0  0  0  0  0  0  0  0
    2.7670    0.5529    0.2468 H   0  0  0  0  0  0  0  0  0  0  0  0
    1.8047    4.3308   -0.4569 H   0  0  0  0  0  0  0  0  0  0  0  0
    3.9989    5.5726   -0.7894 H   0  0  0  0  0  0  0  0  0  0  0  0
    4.9466    0.7283    1.4189 H   0  0  0  0  0  0  0  0  0  0  0  0
    6.5491   -1.1503    1.4209 H   0  0  0  0  0  0  0  0  0  0  0  0
    8.0841   -1.4846   -0.4996 H   0  0  0  0  0  0  0  0  0  0  0  0
    8.0134    0.0741   -2.4305 H   0  0  0  0  0  0  0  0  0  0  0  0
    6.4020    1.9539   -2.4506 H   0  0  0  0  0  0  0  0  0  0  0  0
  1  2  1  0
  2  3  1  0
  3  4  1  0
  4  5  1  0
  5  6  1  0
  6  7  1  0
  5  8  1  0
  8  9  1  0
  9 10  1  0
 10 11  2  0
 10 12  1  0
 12 13  2  3
 13 14  1  0
 14 15  2  0
 15 16  1  0
 16 17  1  0
 17 18  2  0
 18 19  1  0
 19 20  2  0
 20 21  1  0
 21 22  2  0
 22 23  1  0
 23 24  2  0
 12 25  1  0
 25 26  1  0
 26 27  2  0
 26  9  1  0
 18 14  1  0
 24 19  1  0
  1 28  1  0
  1 29  1  0
  1 30  1  0
  2 31  1  0
  2 32  1  0
  3 33  1  0
  3 34  1  0
  4 35  1  0
  4 36  1  0
  5 37  1  0
  6 38  1  0
  6 39  1  0
  7 40  1  0
  7 41  1  0
  7 42  1  0
  8 43  1  0
  8 44  1  0
 13 45  1  0
 15 46  1  0
 16 47  1  0
 20 48  1  0
 21 49  1  0
 22 50  1  0
 23 51  1  0
 24 52  1  0
M  END
$$$$
