
     RDKit          3D

 48 50  0  0  0  0  0  0  0  0999 V2000
   -2.4936    1.6668    0.6423 O   0  0  0  0  0  0  0  0  0  0  0  0
   -2.2532    0.4624    0.5167 C   0  0  0  0  0  0  0  0  0  0  0  0
   -0.8527   -0.0837    0.8117 C   0  0  0  0  0  0  0  0  0  0  0  0
    0.1611    0.8101    0.2068 N   0  0  0  0  0  0  0  0  0  0  0  0
    1.2592    1.2442    1.0115 C   0  0  0  0  0  0  0  0  0  0  0  0
    2.0524    0.3350    1.7103 C   0  0  0  0  0  0  0  0  0  0  0  0
    3.1479    0.7918    2.4442 C   0  0  0  0  0  0  0  0  0  0  0  0
    3.4597    2.1558    2.4763 C   0  0  0  0  0  0  0  0  0  0  0  0
    4.8344    2.6325    3.4043 Cl  0  0  0  0  0  0  0  0  0  0  0  0
    2.6794    3.0801    1.7716 C   0  0  0  0  0  0  0  0  0  0  0  0
    2.9961    4.5508    1.7832 C   0  0  0  0  0  0  0  0  0  0  0  0
    2.1189    5.2983    1.0543 F   0  0  0  0  0  0  0  0  0  0  0  0
    2.9715    5.0876    3.0344 F   0  0  0  0  0  0  0  0  0  0  0  0
    4.2249    4.8316    1.2687 F   0  0  0  0  0  0  0  0  0  0  0  0
    1.5782    2.6040    1.0349 C   0  0  0  0  0  0  0  0  0  0  0  0
    0.4131    0.6613   -1.4714 S   0  0  0  0  0  6  0  0  0  0  0  0
    1.1182    1.8284   -1.9591 O   0  0  0  0  0  0  0  0  0  0  0  0
   -0.8243    0.2237   -2.0857 O   0  0  0  0  0  0  0  0  0  0  0  0
    1.5489   -0.7135   -1.5824 C   0  0  0  0  0  0  0  0  0  0  0  0
    2.9268   -0.4727   -1.5529 C   0  0  0  0  0  0  0  0  0  0  0  0
    3.8140   -1.5436   -1.6554 C   0  0  0  0  0  0  0  0  0  0  0  0
    3.3260   -2.8425   -1.8061 C   0  0  0  0  0  0  0  0  0  0  0  0
    1.9508   -3.0756   -1.8661 C   0  0  0  0  0  0  0  0  0  0  0  0
    1.0566   -2.0101   -1.7624 C   0  0  0  0  0  0  0  0  0  0  0  0
   -3.2401   -0.4334    0.1356 N   0  0  0  0  0  0  0  0  0  0  0  0
   -3.0857   -1.8858    0.0422 C   0  0  0  0  0  0  0  0  0  0  0  0
   -4.4454   -2.5912    0.0011 C   0  0  0  0  0  0  0  0  0  0  0  0
   -5.2749   -2.1635   -1.0846 O   0  0  0  0  0  0  0  0  0  0  0  0
   -5.0901   -0.7879   -1.4563 C   0  0  0  0  0  0  0  0  0  0  0  0
   -4.5281    0.0875   -0.3315 C   0  0  0  0  0  0  0  0  0  0  0  0
   -0.7039   -1.1008    0.4471 H   0  0  0  0  0  0  0  0  0  0  0  0
   -0.7575   -0.1142    1.9034 H   0  0  0  0  0  0  0  0  0  0  0  0
    1.8410   -0.7303    1.6835 H   0  0  0  0  0  0  0  0  0  0  0  0
    3.7627    0.0762    2.9864 H   0  0  0  0  0  0  0  0  0  0  0  0
    0.9572    3.3018    0.4706 H   0  0  0  0  0  0  0  0  0  0  0  0
    3.3135    0.5397   -1.4536 H   0  0  0  0  0  0  0  0  0  0  0  0
    4.8866   -1.3652   -1.6303 H   0  0  0  0  0  0  0  0  0  0  0  0
    4.0213   -3.6744   -1.8962 H   0  0  0  0  0  0  0  0  0  0  0  0
    1.5793   -4.0877   -2.0099 H   0  0  0  0  0  0  0  0  0  0  0  0
   -0.0115   -2.1967   -1.8391 H   0  0  0  0  0  0  0  0  0  0  0  0
   -2.5019   -2.2467    0.8942 H   0  0  0  0  0  0  0  0  0  0  0  0
   -2.5281   -2.0868   -0.8794 H   0  0  0  0  0  0  0  0  0  0  0  0
   -4.3072   -3.6728   -0.0937 H   0  0  0  0  0  0  0  0  0  0  0  0
   -4.9962   -2.4126    0.9320 H   0  0  0  0  0  0  0  0  0  0  0  0
   -6.0594   -0.4038   -1.7890 H   0  0  0  0  0  0  0  0  0  0  0  0
   -4.4154   -0.7718   -2.3203 H   0  0  0  0  0  0  0  0  0  0  0  0
   -5.2028    0.0755    0.5323 H   0  0  0  0  0  0  0  0  0  0  0  0
   -4.4278    1.1221   -0.6744 H   0  0  0  0  0  0  0  0  0  0  0  0
  1  2  2  0
  2  3  1  0
  3  4  1  0
  4  5  1  0
  5  6  2  0
  6  7  1  0
  7  8  2  0
  8  9  1  0
  8 10  1  0
 10 11  1  0
 11 12  1  0
 11 13  1  0
 11 14  1  0
 10 15  2  0
  4 16  1  0
 16 17  2  0
 16 18  2  0
 16 19  1  0
 19 20  2  0
 20 21  1  0
 21 22  2  0
 22 23  1  0
 23 24  2  0
  2 25  1  0
 25 26  1  0
 26 27  1  0
 27 28  1  0
 28 29  1  0
 29 30  1  0
 15  5  1  0
 24 19  1  0
 30 25  1  0
  3 31  1  0
  3 32  1  0
  6 33  1  0
  7 34  1  0
 15 35  1  0
 20 36  1  0
 21 37  1  0
 22 38  1  0
 23 39  1  0
 24 40  1  0
 26 41  1  0
 26 42  1  0
 27 43  1  0
 27 44  1  0
 29 45  1  0
 29 46  1  0
 30 47  1  0
 30 48  1  0
M  END
$$$$
