
     RDKit          3D

 53 58  0  0  0  0  0  0  0  0999 V2000
   -0.2983   -1.2295    1.5589 O   0  0  0  0  0  0  0  0  0  0  0  0
   -1.0677   -1.1456    0.5953 C   0  0  0  0  0  0  0  0  0  0  0  0
   -0.4473   -0.9665   -0.8082 C   0  0  0  0  0  0  0  0  0  0  0  0
    0.8348   -0.2366   -0.7321 N   0  0  0  0  0  4  0  0  0  0  0  0
    2.0743   -0.6608   -1.2074 C   0  0  0  0  0  0  0  0  0  0  0  0
    3.0309    0.3002   -0.8976 C   0  0  0  0  0  0  0  0  0  0  0  0
    4.5666    0.2240   -1.2227 C   0  0  0  0  0  0  0  0  0  0  0  0
    5.4333    1.2411   -0.8165 C   0  0  0  0  0  0  0  0  0  0  0  0
    6.7975    1.1602   -1.1107 C   0  0  0  0  0  0  0  0  0  0  0  0
    7.3013    0.0632   -1.8066 C   0  0  0  0  0  0  0  0  0  0  0  0
    6.4427   -0.9562   -2.2106 C   0  0  0  0  0  0  0  0  0  0  0  0
    5.0782   -0.8790   -1.9209 C   0  0  0  0  0  0  0  0  0  0  0  0
    2.2976    1.2825   -0.2549 N   0  0  0  0  0  0  0  0  0  0  0  0
    1.0233    0.9284   -0.1184 C   0  0  0  0  0  0  0  0  0  0  0  0
    0.2143    1.9262    0.6213 C   0  0  0  0  0  0  0  0  0  0  0  0
    1.1527    3.1485    0.6402 C   0  0  0  0  0  0  0  0  0  0  0  0
    2.5690    2.5732    0.3615 C   0  0  0  0  0  0  0  0  0  0  0  0
   -2.4666   -1.0231    0.6797 N   0  0  0  0  0  0  0  0  0  0  0  0
   -3.3386   -1.2804   -0.4350 C   0  0  0  0  0  0  0  0  0  0  0  0
   -3.0684   -2.3649   -1.2918 C   0  0  0  0  0  0  0  0  0  0  0  0
   -3.8758   -2.6300   -2.4004 C   0  0  0  0  0  0  0  0  0  0  0  0
   -4.9771   -1.8256   -2.6638 C   0  0  0  0  0  0  0  0  0  0  0  0
   -5.2891   -0.7772   -1.8005 C   0  0  0  0  0  0  0  0  0  0  0  0
   -4.4897   -0.5141   -0.6799 C   0  0  0  0  0  0  0  0  0  0  0  0
   -4.9511    0.8294    0.3799 S   0  0  0  0  0  0  0  0  0  0  0  0
   -4.2558    0.2109    1.8961 C   0  0  0  0  0  0  0  0  0  0  0  0
   -4.8554    0.6215    3.0978 C   0  0  0  0  0  0  0  0  0  0  0  0
   -4.3263    0.2279    4.3234 C   0  0  0  0  0  0  0  0  0  0  0  0
   -3.1930   -0.5743    4.3533 C   0  0  0  0  0  0  0  0  0  0  0  0
   -2.5880   -0.9804    3.1580 C   0  0  0  0  0  0  0  0  0  0  0  0
   -3.1033   -0.6003    1.9059 C   0  0  0  0  0  0  0  0  0  0  0  0
   -1.0894   -0.3740   -1.4656 H   0  0  0  0  0  0  0  0  0  0  0  0
   -0.2579   -1.9515   -1.2445 H   0  0  0  0  0  0  0  0  0  0  0  0
    2.1242   -1.6147   -1.7045 H   0  0  0  0  0  0  0  0  0  0  0  0
    5.0898    2.1059   -0.2633 H   0  0  0  0  0  0  0  0  0  0  0  0
    7.4725    1.9528   -0.7932 H   0  0  0  0  0  0  0  0  0  0  0  0
    8.3642    0.0010   -2.0307 H   0  0  0  0  0  0  0  0  0  0  0  0
    6.8401   -1.8142   -2.7507 H   0  0  0  0  0  0  0  0  0  0  0  0
    4.4459   -1.6962   -2.2551 H   0  0  0  0  0  0  0  0  0  0  0  0
   -0.7180    2.0994    0.0824 H   0  0  0  0  0  0  0  0  0  0  0  0
    0.0439    1.5211    1.6207 H   0  0  0  0  0  0  0  0  0  0  0  0
    1.1005    3.7125    1.5749 H   0  0  0  0  0  0  0  0  0  0  0  0
    0.8760    3.8250   -0.1764 H   0  0  0  0  0  0  0  0  0  0  0  0
    3.1203    2.4119    1.2926 H   0  0  0  0  0  0  0  0  0  0  0  0
    3.1263    3.2225   -0.3173 H   0  0  0  0  0  0  0  0  0  0  0  0
   -2.2661   -3.0675   -1.0785 H   0  0  0  0  0  0  0  0  0  0  0  0
   -3.6610   -3.4799   -3.0463 H   0  0  0  0  0  0  0  0  0  0  0  0
   -5.6124   -2.0303   -3.5227 H   0  0  0  0  0  0  0  0  0  0  0  0
   -6.1712   -0.1719   -2.0037 H   0  0  0  0  0  0  0  0  0  0  0  0
   -5.7409    1.2543    3.0871 H   0  0  0  0  0  0  0  0  0  0  0  0
   -4.8002    0.5439    5.2497 H   0  0  0  0  0  0  0  0  0  0  0  0
   -2.7806   -0.8980    5.3073 H   0  0  0  0  0  0  0  0  0  0  0  0
   -1.7310   -1.6443    3.2444 H   0  0  0  0  0  0  0  0  0  0  0  0
  1  2  2  0
  2  3  1  0
  3  4  1  0
  4  5  1  0
  5  6  2  0
  6  7  1  0
  7  8  2  0
  8  9  1  0
  9 10  2  0
 10 11  1  0
 11 12  2  0
  6 13  1  0
 13 14  1  0
 14 15  1  0
 15 16  1  0
 16 17  1  0
  2 18  1  0
 18 19  1  0
 19 20  2  0
 20 21  1  0
 21 22  2  0
 22 23  1  0
 23 24  2  0
 24 25  1  0
 25 26  1  0
 26 27  2  0
 27 28  1  0
 28 29  2  0
 29 30  1  0
 30 31  2  0
 14  4  2  0
 31 18  1  0
 12  7  1  0
 17 13  1  0
 24 19  1  0
 31 26  1  0
  3 32  1  0
  3 33  1  0
  5 34  1  0
  8 35  1  0
  9 36  1  0
 10 37  1  0
 11 38  1  0
 12 39  1  0
 15 40  1  0
 15 41  1  0
 16 42  1  0
 16 43  1  0
 17 44  1  0
 17 45  1  0
 20 46  1  0
 21 47  1  0
 22 48  1  0
 23 49  1  0
 27 50  1  0
 28 51  1  0
 29 52  1  0
 30 53  1  0
M  CHG  1   4   1
M  END
$$$$
