
     RDKit          3D

 45 48  0  0  0  0  0  0  0  0999 V2000
   -3.2218    2.5056   -0.2688 C   0  0  0  0  0  0  0  0  0  0  0  0
   -2.9451    1.1147   -0.3521 O   0  0  0  0  0  0  0  0  0  0  0  0
   -4.0038    0.2612   -0.5408 C   0  0  0  0  0  0  0  0  0  0  0  0
   -5.3334    0.6836   -0.6776 C   0  0  0  0  0  0  0  0  0  0  0  0
   -6.3632   -0.2460   -0.8429 C   0  0  0  0  0  0  0  0  0  0  0  0
   -6.0768   -1.6058   -0.8705 C   0  0  0  0  0  0  0  0  0  0  0  0
   -4.7579   -2.0366   -0.7379 C   0  0  0  0  0  0  0  0  0  0  0  0
   -3.7028   -1.1216   -0.5811 C   0  0  0  0  0  0  0  0  0  0  0  0
   -2.4083   -1.6694   -0.4486 N   0  0  0  0  0  0  0  0  0  0  0  0
   -1.4001   -1.1621   -1.4053 C   0  0  0  0  0  0  0  0  0  0  0  0
   -0.1901   -0.4725   -0.7405 C   0  0  0  0  0  0  0  0  0  0  0  0
    0.3952   -1.2402    0.3704 N   0  0  0  0  0  0  0  0  0  0  0  0
    1.7247   -1.1820    0.7922 C   0  0  0  0  0  0  0  0  0  0  0  0
    2.1638   -2.0160    1.5885 O   0  0  0  0  0  0  0  0  0  0  0  0
    2.6218   -0.1246    0.2972 C   0  0  0  0  0  0  0  0  0  0  0  0
    4.0396   -0.1307    0.4056 C   0  0  0  0  0  0  0  0  0  0  0  0
    4.4703    1.0567   -0.1465 C   0  0  0  0  0  0  0  0  0  0  0  0
    5.8090    1.5568   -0.3014 C   0  0  0  0  0  0  0  0  0  0  0  0
    6.9898    0.9495    0.0852 C   0  0  0  0  0  0  0  0  0  0  0  0
    8.1390    1.7357   -0.2263 C   0  0  0  0  0  0  0  0  0  0  0  0
    7.8005    2.9190   -0.8414 C   0  0  0  0  0  0  0  0  0  0  0  0
    6.1103    3.0763   -1.0391 S   0  0  0  0  0  0  0  0  0  0  0  0
    3.3559    1.7416   -0.5516 O   0  0  0  0  0  0  0  0  0  0  0  0
    2.2148    1.0235   -0.2639 N   0  0  0  0  0  0  0  0  0  0  0  0
   -0.5085   -2.1693    1.0544 C   0  0  0  0  0  0  0  0  0  0  0  0
   -1.9774   -1.7289    0.9618 C   0  0  0  0  0  0  0  0  0  0  0  0
   -2.2726    3.0249   -0.1052 H   0  0  0  0  0  0  0  0  0  0  0  0
   -3.6474    2.8801   -1.2054 H   0  0  0  0  0  0  0  0  0  0  0  0
   -3.8733    2.7294    0.5823 H   0  0  0  0  0  0  0  0  0  0  0  0
   -5.6047    1.7334   -0.6569 H   0  0  0  0  0  0  0  0  0  0  0  0
   -7.3902    0.0944   -0.9475 H   0  0  0  0  0  0  0  0  0  0  0  0
   -6.8747   -2.3322   -0.9969 H   0  0  0  0  0  0  0  0  0  0  0  0
   -4.5378   -3.1013   -0.7649 H   0  0  0  0  0  0  0  0  0  0  0  0
   -1.0271   -2.0397   -1.9492 H   0  0  0  0  0  0  0  0  0  0  0  0
   -1.8330   -0.5030   -2.1681 H   0  0  0  0  0  0  0  0  0  0  0  0
   -0.4826    0.4988   -0.3298 H   0  0  0  0  0  0  0  0  0  0  0  0
    0.5671   -0.3086   -1.5127 H   0  0  0  0  0  0  0  0  0  0  0  0
    4.6471   -0.9124    0.8375 H   0  0  0  0  0  0  0  0  0  0  0  0
    7.0399   -0.0168    0.5723 H   0  0  0  0  0  0  0  0  0  0  0  0
    9.1603    1.4468   -0.0092 H   0  0  0  0  0  0  0  0  0  0  0  0
    8.4631    3.7016   -1.1851 H   0  0  0  0  0  0  0  0  0  0  0  0
   -0.2169   -2.2601    2.1066 H   0  0  0  0  0  0  0  0  0  0  0  0
   -0.3740   -3.1511    0.5843 H   0  0  0  0  0  0  0  0  0  0  0  0
   -2.6000   -2.4501    1.5048 H   0  0  0  0  0  0  0  0  0  0  0  0
   -2.0886   -0.7523    1.4509 H   0  0  0  0  0  0  0  0  0  0  0  0
  1  2  1  0
  2  3  1  0
  3  4  2  0
  4  5  1  0
  5  6  2  0
  6  7  1  0
  7  8  2  0
  8  9  1  0
  9 10  1  0
 10 11  1  0
 11 12  1  0
 12 13  1  0
 13 14  2  0
 13 15  1  0
 15 16  1  0
 16 17  2  0
 17 18  1  0
 18 19  2  0
 19 20  1  0
 20 21  2  0
 21 22  1  0
 17 23  1  0
 23 24  1  0
 12 25  1  0
 25 26  1  0
  8  3  1  0
 26  9  1  0
 24 15  2  0
 22 18  1  0
  1 27  1  0
  1 28  1  0
  1 29  1  0
  4 30  1  0
  5 31  1  0
  6 32  1  0
  7 33  1  0
 10 34  1  0
 10 35  1  0
 11 36  1  0
 11 37  1  0
 16 38  1  0
 19 39  1  0
 20 40  1  0
 21 41  1  0
 25 42  1  0
 25 43  1  0
 26 44  1  0
 26 45  1  0
M  END
$$$$
