
     RDKit          3D

 51 54  0  0  0  0  0  0  0  0999 V2000
   -2.9792   -3.2361   -4.1508 C   0  0  0  0  0  0  0  0  0  0  0  0
   -2.8650   -3.0401   -2.7470 O   0  0  0  0  0  0  0  0  0  0  0  0
   -2.3935   -1.8269   -2.3261 C   0  0  0  0  0  0  0  0  0  0  0  0
   -1.9986   -0.7697   -3.1506 C   0  0  0  0  0  0  0  0  0  0  0  0
   -1.5324    0.4229   -2.5883 C   0  0  0  0  0  0  0  0  0  0  0  0
   -1.4542    0.5479   -1.1999 C   0  0  0  0  0  0  0  0  0  0  0  0
   -0.9601    1.8127   -0.6185 C   0  0  0  0  0  0  0  0  0  0  0  0
   -1.7943    2.8006   -0.5484 N   0  0  0  0  0  0  0  0  0  0  0  0
   -1.3582    4.0122   -0.0038 C   0  0  0  0  0  0  0  0  0  0  0  0
   -2.2542    5.0816    0.0649 C   0  0  0  0  0  0  0  0  0  0  0  0
   -1.8600    6.3084    0.6066 C   0  0  0  0  0  0  0  0  0  0  0  0
   -0.5611    6.4754    1.0857 C   0  0  0  0  0  0  0  0  0  0  0  0
    0.3418    5.4150    1.0232 C   0  0  0  0  0  0  0  0  0  0  0  0
   -0.0653    4.1909    0.4783 C   0  0  0  0  0  0  0  0  0  0  0  0
    0.8588    3.0482    0.3978 C   0  0  0  0  0  0  0  0  0  0  0  0
    1.9963    3.1548    0.8504 O   0  0  0  0  0  0  0  0  0  0  0  0
    0.3628    1.8847   -0.1894 N   0  0  0  0  0  0  0  0  0  0  0  0
    1.3023    0.7607   -0.2872 C   0  0  0  0  0  0  0  0  0  0  0  0
    1.4732    0.0238    1.0450 C   0  0  0  0  0  0  0  0  0  0  0  0
    2.1079   -1.2283    0.7796 O   0  0  0  0  0  0  0  0  0  0  0  0
    2.1634   -2.1296    1.8107 C   0  0  0  0  0  0  0  0  0  0  0  0
    1.9375   -1.8145    3.1544 C   0  0  0  0  0  0  0  0  0  0  0  0
    2.0215   -2.8048    4.1359 C   0  0  0  0  0  0  0  0  0  0  0  0
    2.3367   -4.1133    3.7831 C   0  0  0  0  0  0  0  0  0  0  0  0
    2.5753   -4.4346    2.4476 C   0  0  0  0  0  0  0  0  0  0  0  0
    2.4948   -3.4492    1.4524 C   0  0  0  0  0  0  0  0  0  0  0  0
    2.7545   -3.8146    0.0166 C   0  0  0  0  0  0  0  0  0  0  0  0
   -1.8662   -0.4910   -0.3660 C   0  0  0  0  0  0  0  0  0  0  0  0
   -2.3275   -1.6786   -0.9360 C   0  0  0  0  0  0  0  0  0  0  0  0
   -3.6879   -2.5266   -4.5910 H   0  0  0  0  0  0  0  0  0  0  0  0
   -3.3707   -4.2444   -4.3173 H   0  0  0  0  0  0  0  0  0  0  0  0
   -2.0007   -3.1743   -4.6388 H   0  0  0  0  0  0  0  0  0  0  0  0
   -2.0449   -0.8394   -4.2321 H   0  0  0  0  0  0  0  0  0  0  0  0
   -1.2356    1.2481   -3.2303 H   0  0  0  0  0  0  0  0  0  0  0  0
   -3.2677    4.9528   -0.3066 H   0  0  0  0  0  0  0  0  0  0  0  0
   -2.5688    7.1314    0.6541 H   0  0  0  0  0  0  0  0  0  0  0  0
   -0.2532    7.4292    1.5073 H   0  0  0  0  0  0  0  0  0  0  0  0
    1.3554    5.5407    1.3962 H   0  0  0  0  0  0  0  0  0  0  0  0
    2.2797    1.1405   -0.6119 H   0  0  0  0  0  0  0  0  0  0  0  0
    0.9940    0.0600   -1.0689 H   0  0  0  0  0  0  0  0  0  0  0  0
    0.4914   -0.1416    1.5037 H   0  0  0  0  0  0  0  0  0  0  0  0
    2.0929    0.6216    1.7228 H   0  0  0  0  0  0  0  0  0  0  0  0
    1.7061   -0.8037    3.4738 H   0  0  0  0  0  0  0  0  0  0  0  0
    1.8449   -2.5513    5.1782 H   0  0  0  0  0  0  0  0  0  0  0  0
    2.4032   -4.8829    4.5474 H   0  0  0  0  0  0  0  0  0  0  0  0
    2.8266   -5.4601    2.1866 H   0  0  0  0  0  0  0  0  0  0  0  0
    3.0124   -4.8747   -0.0889 H   0  0  0  0  0  0  0  0  0  0  0  0
    3.5922   -3.2290   -0.3774 H   0  0  0  0  0  0  0  0  0  0  0  0
    1.8607   -3.6265   -0.5889 H   0  0  0  0  0  0  0  0  0  0  0  0
   -1.8411   -0.3823    0.7140 H   0  0  0  0  0  0  0  0  0  0  0  0
   -2.6459   -2.4960   -0.2934 H   0  0  0  0  0  0  0  0  0  0  0  0
  1  2  1  0
  2  3  1  0
  3  4  2  0
  4  5  1  0
  5  6  2  0
  6  7  1  0
  7  8  2  0
  8  9  1  0
  9 10  2  0
 10 11  1  0
 11 12  2  0
 12 13  1  0
 13 14  2  0
 14 15  1  0
 15 16  2  0
 15 17  1  0
 17 18  1  0
 18 19  1  0
 19 20  1  0
 20 21  1  0
 21 22  2  0
 22 23  1  0
 23 24  2  0
 24 25  1  0
 25 26  2  0
 26 27  1  0
  6 28  1  0
 28 29  2  0
 29  3  1  0
 17  7  1  0
 26 21  1  0
 14  9  1  0
  1 30  1  0
  1 31  1  0
  1 32  1  0
  4 33  1  0
  5 34  1  0
 10 35  1  0
 11 36  1  0
 12 37  1  0
 13 38  1  0
 18 39  1  0
 18 40  1  0
 19 41  1  0
 19 42  1  0
 22 43  1  0
 23 44  1  0
 24 45  1  0
 25 46  1  0
 27 47  1  0
 27 48  1  0
 27 49  1  0
 28 50  1  0
 29 51  1  0
M  END
$$$$
