
     RDKit          3D

 45 48  0  0  0  0  0  0  0  0999 V2000
   -4.0205   -0.7292    3.0110 C   0  0  0  0  0  0  0  0  0  0  0  0
   -4.0994   -0.3206    1.6395 O   0  0  0  0  0  0  0  0  0  0  0  0
   -3.6011   -1.3050    0.8151 C   0  0  0  0  0  0  0  0  0  0  0  0
   -4.4278   -2.4172    0.5813 C   0  0  0  0  0  0  0  0  0  0  0  0
   -4.0016   -3.4498   -0.2472 C   0  0  0  0  0  0  0  0  0  0  0  0
   -2.7583   -3.3660   -0.8594 C   0  0  0  0  0  0  0  0  0  0  0  0
   -1.9493   -2.2430   -0.6492 C   0  0  0  0  0  0  0  0  0  0  0  0
   -2.3442   -1.1698    0.1846 C   0  0  0  0  0  0  0  0  0  0  0  0
   -1.4463   -0.0008    0.3580 C   0  0  0  0  0  0  0  0  0  0  0  0
   -1.8586    1.0225    1.1337 N   0  0  0  0  0  0  0  0  0  0  0  0
   -1.0117    2.0669    1.2907 C   0  0  0  0  0  0  0  0  0  0  0  0
   -1.4881    3.1851    2.1495 C   0  0  0  0  0  0  0  0  0  0  0  0
   -2.7694    3.0582    2.6187 N   0  0  0  0  0  0  0  0  0  0  0  0
   -0.7897    4.1559    2.4127 O   0  0  0  0  0  0  0  0  0  0  0  0
    0.2090    2.0975    0.6931 C   0  0  0  0  0  0  0  0  0  0  0  0
    1.2429    3.0187    0.7128 N   0  0  0  0  0  0  0  0  0  0  0  0
    2.2889    2.5330   -0.0835 C   0  0  0  0  0  0  0  0  0  0  0  0
    3.3330    3.1411   -0.2552 O   0  0  0  0  0  0  0  0  0  0  0  0
    1.8518    1.2763   -0.6049 N   0  0  0  0  0  0  0  0  0  0  0  0
    2.5778    0.4119   -1.4676 C   0  0  0  0  0  0  0  0  0  0  0  0
    1.9837   -0.6694   -2.1349 C   0  0  0  0  0  0  0  0  0  0  0  0
    2.7228   -1.5086   -2.9779 C   0  0  0  0  0  0  0  0  0  0  0  0
    4.0798   -1.2826   -3.1809 C   0  0  0  0  0  0  0  0  0  0  0  0
    4.7028   -0.2058   -2.5522 C   0  0  0  0  0  0  0  0  0  0  0  0
    6.1675    0.0561   -2.7448 C   0  0  0  0  0  0  0  0  0  0  0  0
    3.9493    0.6224   -1.6991 C   0  0  0  0  0  0  0  0  0  0  0  0
    0.5492    1.0273   -0.0968 C   0  0  0  0  0  0  0  0  0  0  0  0
   -0.2485   -0.0338   -0.2744 N   0  0  0  0  0  0  0  0  0  0  0  0
   -3.0210   -1.1117    3.2644 H   0  0  0  0  0  0  0  0  0  0  0  0
   -4.7894   -1.4786    3.2425 H   0  0  0  0  0  0  0  0  0  0  0  0
   -4.2122    0.1522    3.6312 H   0  0  0  0  0  0  0  0  0  0  0  0
   -5.4087   -2.4741    1.0470 H   0  0  0  0  0  0  0  0  0  0  0  0
   -4.6390   -4.3150   -0.4164 H   0  0  0  0  0  0  0  0  0  0  0  0
   -2.4133   -4.1677   -1.5081 H   0  0  0  0  0  0  0  0  0  0  0  0
   -0.9855   -2.2146   -1.1563 H   0  0  0  0  0  0  0  0  0  0  0  0
   -3.3459    2.2817    2.3061 H   0  0  0  0  0  0  0  0  0  0  0  0
   -3.1843    3.8140    3.1457 H   0  0  0  0  0  0  0  0  0  0  0  0
    1.2504    3.8951    1.2212 H   0  0  0  0  0  0  0  0  0  0  0  0
    0.9249   -0.8800   -2.0521 H   0  0  0  0  0  0  0  0  0  0  0  0
    2.2302   -2.3370   -3.4803 H   0  0  0  0  0  0  0  0  0  0  0  0
    4.6417   -1.9437   -3.8362 H   0  0  0  0  0  0  0  0  0  0  0  0
    6.5648   -0.5058   -3.5980 H   0  0  0  0  0  0  0  0  0  0  0  0
    6.7238   -0.2395   -1.8489 H   0  0  0  0  0  0  0  0  0  0  0  0
    6.3407    1.1188   -2.9453 H   0  0  0  0  0  0  0  0  0  0  0  0
    4.4789    1.4347   -1.2085 H   0  0  0  0  0  0  0  0  0  0  0  0
  1  2  1  0
  2  3  1  0
  3  4  2  0
  4  5  1  0
  5  6  2  0
  6  7  1  0
  7  8  2  0
  8  9  1  0
  9 10  2  0
 10 11  1  0
 11 12  1  0
 12 13  1  0
 12 14  2  0
 11 15  2  0
 15 16  1  0
 16 17  1  0
 17 18  2  0
 17 19  1  0
 19 20  1  0
 20 21  2  0
 21 22  1  0
 22 23  2  0
 23 24  1  0
 24 25  1  0
 24 26  2  0
 19 27  1  0
 27 28  2  0
  8  3  1  0
 28  9  1  0
 27 15  1  0
 26 20  1  0
  1 29  1  0
  1 30  1  0
  1 31  1  0
  4 32  1  0
  5 33  1  0
  6 34  1  0
  7 35  1  0
 13 36  1  0
 13 37  1  0
 16 38  1  0
 21 39  1  0
 22 40  1  0
 23 41  1  0
 25 42  1  0
 25 43  1  0
 25 44  1  0
 26 45  1  0
M  END
$$$$
