
     RDKit          3D

 42 45  0  0  0  0  0  0  0  0999 V2000
   -3.8519    3.7647   -0.5098 C   0  0  0  0  0  0  0  0  0  0  0  0
   -2.6432    2.9916   -0.0701 C   0  0  0  0  0  0  0  0  0  0  0  0
   -1.9043    3.4126    1.0494 C   0  0  0  0  0  0  0  0  0  0  0  0
   -0.7901    2.6906    1.4930 C   0  0  0  0  0  0  0  0  0  0  0  0
   -0.4309    1.5329    0.8223 C   0  0  0  0  0  0  0  0  0  0  0  0
   -1.1697    1.1022   -0.2793 C   0  0  0  0  0  0  0  0  0  0  0  0
   -2.2732    1.8168   -0.7350 C   0  0  0  0  0  0  0  0  0  0  0  0
   -0.6076   -0.1625   -0.8618 C   0  0  0  0  0  0  0  0  0  0  0  0
   -1.6326   -1.3020   -0.8921 C   0  0  0  0  0  0  0  0  0  0  0  0
   -1.0454   -2.6279   -1.1075 N   0  0  0  0  0  0  0  0  0  0  0  0
   -0.8338   -2.9296   -2.5196 C   0  0  0  0  0  0  0  0  0  0  0  0
    0.1552   -2.8893   -0.3054 C   0  0  0  0  0  0  0  0  0  0  0  0
    0.4315   -1.8281    0.7604 C   0  0  0  0  0  0  0  0  0  0  0  0
    0.5837   -0.4561    0.0888 C   0  0  0  0  0  0  0  0  0  0  0  0
    0.6577    0.6662    1.0639 N   0  0  0  0  0  0  0  0  0  0  0  0
    1.6072    0.8455    2.0740 C   0  0  0  0  0  0  0  0  0  0  0  0
    1.4542    1.6332    3.0064 O   0  0  0  0  0  0  0  0  0  0  0  0
    2.8241    0.0577    1.9783 C   0  0  0  0  0  0  0  0  0  0  0  0
    3.7426   -0.1333    0.9602 C   0  0  0  0  0  0  0  0  0  0  0  0
    4.7478   -0.9910    1.4712 C   0  0  0  0  0  0  0  0  0  0  0  0
    4.3958   -1.2596    2.7731 C   0  0  0  0  0  0  0  0  0  0  0  0
    5.3798   -2.3596    3.9724 Br  0  0  0  0  0  0  0  0  0  0  0  0
    3.2395   -0.6231    3.0918 O   0  0  0  0  0  0  0  0  0  0  0  0
   -4.0120    3.6597   -1.5880 H   0  0  0  0  0  0  0  0  0  0  0  0
   -3.7286    4.8329   -0.3026 H   0  0  0  0  0  0  0  0  0  0  0  0
   -4.7398    3.4014    0.0167 H   0  0  0  0  0  0  0  0  0  0  0  0
   -2.1917    4.3149    1.5859 H   0  0  0  0  0  0  0  0  0  0  0  0
   -0.2390    3.0548    2.3532 H   0  0  0  0  0  0  0  0  0  0  0  0
   -2.8391    1.4697   -1.5951 H   0  0  0  0  0  0  0  0  0  0  0  0
   -0.2267    0.0419   -1.8704 H   0  0  0  0  0  0  0  0  0  0  0  0
   -2.4066   -1.0965   -1.6436 H   0  0  0  0  0  0  0  0  0  0  0  0
   -2.1835   -1.3335    0.0587 H   0  0  0  0  0  0  0  0  0  0  0  0
   -0.0997   -2.2586   -2.9791 H   0  0  0  0  0  0  0  0  0  0  0  0
   -0.4851   -3.9609   -2.6442 H   0  0  0  0  0  0  0  0  0  0  0  0
   -1.7726   -2.8482   -3.0783 H   0  0  0  0  0  0  0  0  0  0  0  0
    0.0412   -3.8657    0.1793 H   0  0  0  0  0  0  0  0  0  0  0  0
    1.0469   -2.9616   -0.9430 H   0  0  0  0  0  0  0  0  0  0  0  0
   -0.3737   -1.8105    1.5062 H   0  0  0  0  0  0  0  0  0  0  0  0
    1.3400   -2.1031    1.3049 H   0  0  0  0  0  0  0  0  0  0  0  0
    1.5042   -0.4477   -0.5058 H   0  0  0  0  0  0  0  0  0  0  0  0
    3.7017    0.3129   -0.0238 H   0  0  0  0  0  0  0  0  0  0  0  0
    5.6279   -1.3539    0.9589 H   0  0  0  0  0  0  0  0  0  0  0  0
  1  2  1  0
  2  3  2  0
  3  4  1  0
  4  5  2  0
  5  6  1  0
  6  7  2  0
  6  8  1  0
  8  9  1  0
  9 10  1  0
 10 11  1  0
 10 12  1  0
 12 13  1  0
 13 14  1  0
 14 15  1  0
 15 16  1  0
 16 17  2  0
 16 18  1  0
 18 19  2  0
 19 20  1  0
 20 21  2  0
 21 22  1  0
 21 23  1  0
  7  2  1  0
 14  8  1  0
 23 18  1  0
 15  5  1  0
  1 24  1  0
  1 25  1  0
  1 26  1  0
  3 27  1  0
  4 28  1  0
  7 29  1  0
  8 30  1  0
  9 31  1  0
  9 32  1  0
 11 33  1  0
 11 34  1  0
 11 35  1  0
 12 36  1  0
 12 37  1  0
 13 38  1  0
 13 39  1  0
 14 40  1  0
 19 41  1  0
 20 42  1  0
M  END
$$$$
