
     RDKit          3D

 44 47  0  0  0  0  0  0  0  0999 V2000
    0.2142    1.0317    1.8093 O   0  0  0  0  0  0  0  0  0  0  0  0
    0.8062    1.9443    0.8550 S   0  0  0  0  0  6  0  0  0  0  0  0
    0.7242    3.3726    1.1152 O   0  0  0  0  0  0  0  0  0  0  0  0
    2.5226    1.5750    0.5920 C   0  0  0  0  0  0  0  0  0  0  0  0
    3.3562    2.6461    0.2101 C   0  0  0  0  0  0  0  0  0  0  0  0
    4.7209    2.4465    0.0592 C   0  0  0  0  0  0  0  0  0  0  0  0
    5.2531    1.1868    0.3105 C   0  0  0  0  0  0  0  0  0  0  0  0
    4.4186    0.1141    0.6792 C   0  0  0  0  0  0  0  0  0  0  0  0
    4.9653   -1.1582    0.8978 C   0  0  0  0  0  0  0  0  0  0  0  0
    4.1390   -2.2303    1.2083 C   0  0  0  0  0  0  0  0  0  0  0  0
    2.7858   -1.9907    1.2899 C   0  0  0  0  0  0  0  0  0  0  0  0
    2.2282   -0.7776    1.0922 N   0  0  0  0  0  0  0  0  0  0  0  0
    3.0192    0.2866    0.8138 C   0  0  0  0  0  0  0  0  0  0  0  0
    0.0955    1.6997   -0.6792 N   0  0  0  0  0  0  0  0  0  0  0  0
    0.1044    0.2999   -1.2262 C   0  0  0  0  0  0  0  0  0  0  0  0
   -0.9867   -0.6025   -0.6138 C   0  0  0  0  0  0  0  0  0  0  0  0
   -2.3179    0.0399   -0.7570 N   0  0  0  0  0  0  0  0  0  0  0  0
   -3.3684   -0.8372   -0.4422 C   0  0  0  0  0  0  0  0  0  0  0  0
   -4.0900   -0.7921    0.7581 C   0  0  0  0  0  0  0  0  0  0  0  0
   -5.1348   -1.6919    1.0067 C   0  0  0  0  0  0  0  0  0  0  0  0
   -5.4768   -2.6526    0.0559 C   0  0  0  0  0  0  0  0  0  0  0  0
   -4.7718   -2.7168   -1.1413 C   0  0  0  0  0  0  0  0  0  0  0  0
   -3.7268   -1.8195   -1.3821 C   0  0  0  0  0  0  0  0  0  0  0  0
   -2.3599    1.3903   -0.1559 C   0  0  0  0  0  0  0  0  0  0  0  0
   -1.2864    2.2817   -0.8124 C   0  0  0  0  0  0  0  0  0  0  0  0
    2.9384    3.6360    0.0258 H   0  0  0  0  0  0  0  0  0  0  0  0
    5.3651    3.2670   -0.2507 H   0  0  0  0  0  0  0  0  0  0  0  0
    6.3257    1.0399    0.1994 H   0  0  0  0  0  0  0  0  0  0  0  0
    6.0371   -1.3234    0.8123 H   0  0  0  0  0  0  0  0  0  0  0  0
    4.5379   -3.2233    1.3661 H   0  0  0  0  0  0  0  0  0  0  0  0
    2.0846   -2.7888    1.5060 H   0  0  0  0  0  0  0  0  0  0  0  0
   -0.0683    0.3850   -2.3085 H   0  0  0  0  0  0  0  0  0  0  0  0
    1.0906   -0.1550   -1.1292 H   0  0  0  0  0  0  0  0  0  0  0  0
   -0.9596   -1.5620   -1.1435 H   0  0  0  0  0  0  0  0  0  0  0  0
   -0.7801   -0.8090    0.4404 H   0  0  0  0  0  0  0  0  0  0  0  0
   -3.8433   -0.0692    1.5316 H   0  0  0  0  0  0  0  0  0  0  0  0
   -5.6796   -1.6398    1.9462 H   0  0  0  0  0  0  0  0  0  0  0  0
   -6.2929   -3.3457    0.2468 H   0  0  0  0  0  0  0  0  0  0  0  0
   -5.0352   -3.4575   -1.8927 H   0  0  0  0  0  0  0  0  0  0  0  0
   -3.1979   -1.8681   -2.3306 H   0  0  0  0  0  0  0  0  0  0  0  0
   -3.3409    1.8467   -0.3349 H   0  0  0  0  0  0  0  0  0  0  0  0
   -2.1992    1.3461    0.9264 H   0  0  0  0  0  0  0  0  0  0  0  0
   -1.4962    2.3818   -1.8834 H   0  0  0  0  0  0  0  0  0  0  0  0
   -1.3202    3.2935   -0.4002 H   0  0  0  0  0  0  0  0  0  0  0  0
  1  2  2  0
  2  3  2  0
  2  4  1  0
  4  5  2  0
  5  6  1  0
  6  7  2  0
  7  8  1  0
  8  9  2  0
  9 10  1  0
 10 11  2  0
 11 12  1  0
 12 13  2  0
  2 14  1  0
 14 15  1  0
 15 16  1  0
 16 17  1  0
 17 18  1  0
 18 19  2  0
 19 20  1  0
 20 21  2  0
 21 22  1  0
 22 23  2  0
 17 24  1  0
 24 25  1  0
 13  4  1  0
 25 14  1  0
 13  8  1  0
 23 18  1  0
  5 26  1  0
  6 27  1  0
  7 28  1  0
  9 29  1  0
 10 30  1  0
 11 31  1  0
 15 32  1  0
 15 33  1  0
 16 34  1  0
 16 35  1  0
 19 36  1  0
 20 37  1  0
 21 38  1  0
 22 39  1  0
 23 40  1  0
 24 41  1  0
 24 42  1  0
 25 43  1  0
 25 44  1  0
M  END
$$$$
