
     RDKit          3D

 52 57  0  0  0  0  0  0  0  0999 V2000
    0.3042    2.3746    2.8907 C   0  0  0  0  0  0  0  0  0  0  0  0
    0.8372    1.4094    1.8990 C   0  0  0  0  0  0  0  0  0  0  0  0
    2.1565    1.3160    1.7080 N   0  0  0  0  0  0  0  0  0  0  0  0
    2.3254    0.3564    0.7445 N   0  0  0  0  0  0  0  0  0  0  0  0
    3.6447    0.0300    0.2982 C   0  0  0  0  0  0  0  0  0  0  0  0
    4.7430    0.7006    0.8698 C   0  0  0  0  0  0  0  0  0  0  0  0
    6.0499    0.4128    0.4624 C   0  0  0  0  0  0  0  0  0  0  0  0
    6.2661   -0.5528   -0.5261 C   0  0  0  0  0  0  0  0  0  0  0  0
    7.6349   -0.8603   -0.9578 N   0  0  0  0  0  4  0  0  0  0  0  0
    7.7846   -1.7220   -1.8359 O   0  0  0  0  0  0  0  0  0  0  0  0
    8.5631   -0.2404   -0.4182 O   0  0  0  0  0  1  0  0  0  0  0  0
    5.1853   -1.2270   -1.1055 C   0  0  0  0  0  0  0  0  0  0  0  0
    3.8788   -0.9340   -0.6929 C   0  0  0  0  0  0  0  0  0  0  0  0
    1.0942   -0.1657    0.3582 C   0  0  0  0  0  0  0  0  0  0  0  0
    0.1358    0.5196    1.0682 C   0  0  0  0  0  0  0  0  0  0  0  0
   -1.3004    0.1840    0.8700 C   0  0  0  0  0  0  0  0  0  0  0  0
   -1.9030    1.4406    0.2398 C   0  0  0  0  0  0  0  0  0  0  0  0
   -2.7219    2.2900    1.0085 C   0  0  0  0  0  0  0  0  0  0  0  0
   -3.2819    3.4425    0.4526 C   0  0  0  0  0  0  0  0  0  0  0  0
   -3.0339    3.7671   -0.8797 C   0  0  0  0  0  0  0  0  0  0  0  0
   -2.2243    2.9383   -1.6517 C   0  0  0  0  0  0  0  0  0  0  0  0
   -1.8859    3.3783   -3.4587 Br  0  0  0  0  0  0  0  0  0  0  0  0
   -1.6603    1.7860   -1.1040 C   0  0  0  0  0  0  0  0  0  0  0  0
   -1.5000   -1.0083    0.0166 N   0  0  0  0  0  0  0  0  0  0  0  0
   -0.3827   -1.5370   -0.6589 C   0  0  0  0  0  0  0  0  0  0  0  0
    0.8661   -1.1606   -0.5349 N   0  0  0  0  0  0  0  0  0  0  0  0
   -0.6000   -2.6904   -1.6680 C   0  0  0  0  0  0  0  0  0  0  0  0
    0.3123   -3.1403   -2.3474 O   0  0  0  0  0  0  0  0  0  0  0  0
   -1.8763   -3.1786   -1.7512 N   0  0  0  0  0  0  0  0  0  0  0  0
   -2.9491   -2.6882   -1.0024 C   0  0  0  0  0  0  0  0  0  0  0  0
   -4.1930   -3.3077   -1.1733 C   0  0  0  0  0  0  0  0  0  0  0  0
   -5.2948   -2.8655   -0.4503 C   0  0  0  0  0  0  0  0  0  0  0  0
   -5.1494   -1.8098    0.4407 C   0  0  0  0  0  0  0  0  0  0  0  0
   -3.9035   -1.1915    0.6070 C   0  0  0  0  0  0  0  0  0  0  0  0
   -2.7703   -1.6059   -0.1134 C   0  0  0  0  0  0  0  0  0  0  0  0
    0.0036    3.3022    2.3937 H   0  0  0  0  0  0  0  0  0  0  0  0
   -0.5658    1.9596    3.4091 H   0  0  0  0  0  0  0  0  0  0  0  0
    1.0547    2.6218    3.6490 H   0  0  0  0  0  0  0  0  0  0  0  0
    4.5960    1.4566    1.6406 H   0  0  0  0  0  0  0  0  0  0  0  0
    6.8769    0.9483    0.9239 H   0  0  0  0  0  0  0  0  0  0  0  0
    5.3348   -1.9803   -1.8771 H   0  0  0  0  0  0  0  0  0  0  0  0
    3.0720   -1.4805   -1.1736 H   0  0  0  0  0  0  0  0  0  0  0  0
   -1.7316   -0.0016    1.8624 H   0  0  0  0  0  0  0  0  0  0  0  0
   -2.9311    2.0617    2.0520 H   0  0  0  0  0  0  0  0  0  0  0  0
   -3.9120    4.0898    1.0581 H   0  0  0  0  0  0  0  0  0  0  0  0
   -3.4726    4.6659   -1.3053 H   0  0  0  0  0  0  0  0  0  0  0  0
   -1.0244    1.1565   -1.7236 H   0  0  0  0  0  0  0  0  0  0  0  0
   -2.0065   -3.9418   -2.4010 H   0  0  0  0  0  0  0  0  0  0  0  0
   -4.3134   -4.1364   -1.8662 H   0  0  0  0  0  0  0  0  0  0  0  0
   -6.2626   -3.3435   -0.5799 H   0  0  0  0  0  0  0  0  0  0  0  0
   -6.0075   -1.4608    1.0111 H   0  0  0  0  0  0  0  0  0  0  0  0
   -3.8620   -0.3779    1.3227 H   0  0  0  0  0  0  0  0  0  0  0  0
  1  2  1  0
  2  3  2  0
  3  4  1  0
  4  5  1  0
  5  6  2  0
  6  7  1  0
  7  8  2  0
  8  9  1  0
  9 10  2  0
  9 11  1  0
  8 12  1  0
 12 13  2  0
  4 14  1  0
 14 15  2  0
 15 16  1  0
 16 17  1  0
 17 18  2  0
 18 19  1  0
 19 20  2  0
 20 21  1  0
 21 22  1  0
 21 23  2  0
 16 24  1  0
 24 25  1  0
 25 26  2  0
 25 27  1  0
 27 28  2  0
 27 29  1  0
 29 30  1  0
 30 31  2  0
 31 32  1  0
 32 33  2  0
 33 34  1  0
 34 35  2  0
 15  2  1  0
 23 17  1  0
 35 24  1  0
 13  5  1  0
 26 14  1  0
 35 30  1  0
  1 36  1  0
  1 37  1  0
  1 38  1  0
  6 39  1  0
  7 40  1  0
 12 41  1  0
 13 42  1  0
 16 43  1  0
 18 44  1  0
 19 45  1  0
 20 46  1  0
 23 47  1  0
 29 48  1  0
 31 49  1  0
 32 50  1  0
 33 51  1  0
 34 52  1  0
M  CHG  2   9   1  11  -1
M  END
$$$$
