
     RDKit          3D

 43 45  0  0  0  0  0  0  0  0999 V2000
   -1.5896    3.6256    1.0048 C   0  0  0  0  0  0  0  0  0  0  0  0
   -0.8661    3.0060   -0.1758 C   0  0  0  0  0  0  0  0  0  0  0  0
   -0.6750    1.6008    0.0457 O   0  0  0  0  0  0  0  0  0  0  0  0
   -1.6979    0.7845   -0.3416 C   0  0  0  0  0  0  0  0  0  0  0  0
   -2.7464    1.1953   -0.8263 O   0  0  0  0  0  0  0  0  0  0  0  0
   -1.4240   -0.6401   -0.1051 C   0  0  0  0  0  0  0  0  0  0  0  0
   -0.1897   -1.1763    0.2651 C   0  0  0  0  0  0  0  0  0  0  0  0
    1.0104   -0.4867    0.4177 N   0  0  0  0  0  0  0  0  0  0  0  0
    2.2075   -0.8340    1.0026 C   0  0  0  0  0  0  0  0  0  0  0  0
    2.6100   -2.1250    1.9891 S   0  0  0  0  0  0  0  0  0  0  0  0
    3.2539    0.0466    0.7619 N   0  0  0  0  0  0  0  0  0  0  0  0
    3.2859    1.2165    0.0079 C   0  0  0  0  0  0  0  0  0  0  0  0
    2.2671    1.6771   -0.5056 O   0  0  0  0  0  0  0  0  0  0  0  0
    4.5912    1.8456   -0.0923 C   0  0  0  0  0  0  0  0  0  0  0  0
    5.8580    1.5022    0.3537 C   0  0  0  0  0  0  0  0  0  0  0  0
    6.7366    2.5346   -0.0616 C   0  0  0  0  0  0  0  0  0  0  0  0
    5.9624    3.4460   -0.7355 C   0  0  0  0  0  0  0  0  0  0  0  0
    4.6691    3.0411   -0.7603 O   0  0  0  0  0  0  0  0  0  0  0  0
   -0.2443   -2.8716    0.3916 S   0  0  0  0  0  0  0  0  0  0  0  0
   -1.8879   -2.9369    0.0105 C   0  0  0  0  0  0  0  0  0  0  0  0
   -2.4234   -1.6878   -0.2250 C   0  0  0  0  0  0  0  0  0  0  0  0
   -3.8733   -1.5160   -0.5943 C   0  0  0  0  0  0  0  0  0  0  0  0
   -4.7003   -2.7798   -0.3081 C   0  0  0  0  0  0  0  0  0  0  0  0
   -3.9754   -4.0511   -0.7661 C   0  0  0  0  0  0  0  0  0  0  0  0
   -2.6400   -4.2308   -0.0309 C   0  0  0  0  0  0  0  0  0  0  0  0
   -1.6899    4.7068    0.8743 H   0  0  0  0  0  0  0  0  0  0  0  0
   -1.0447    3.4308    1.9343 H   0  0  0  0  0  0  0  0  0  0  0  0
   -2.5882    3.1939    1.1250 H   0  0  0  0  0  0  0  0  0  0  0  0
    0.1274    3.4551   -0.2727 H   0  0  0  0  0  0  0  0  0  0  0  0
   -1.3959    3.1938   -1.1167 H   0  0  0  0  0  0  0  0  0  0  0  0
    0.9655    0.4871    0.1028 H   0  0  0  0  0  0  0  0  0  0  0  0
    4.1133   -0.2539    1.1969 H   0  0  0  0  0  0  0  0  0  0  0  0
    6.1359    0.6172    0.9084 H   0  0  0  0  0  0  0  0  0  0  0  0
    7.8024    2.6047    0.1071 H   0  0  0  0  0  0  0  0  0  0  0  0
    6.1678    4.3845   -1.2323 H   0  0  0  0  0  0  0  0  0  0  0  0
   -3.9337   -1.2790   -1.6636 H   0  0  0  0  0  0  0  0  0  0  0  0
   -4.3134   -0.6794   -0.0407 H   0  0  0  0  0  0  0  0  0  0  0  0
   -5.6721   -2.7006   -0.8083 H   0  0  0  0  0  0  0  0  0  0  0  0
   -4.9001   -2.8501    0.7690 H   0  0  0  0  0  0  0  0  0  0  0  0
   -3.7968   -3.9932   -1.8475 H   0  0  0  0  0  0  0  0  0  0  0  0
   -4.6093   -4.9280   -0.5925 H   0  0  0  0  0  0  0  0  0  0  0  0
   -2.0546   -5.0130   -0.5275 H   0  0  0  0  0  0  0  0  0  0  0  0
   -2.8327   -4.5626    0.9968 H   0  0  0  0  0  0  0  0  0  0  0  0
  1  2  1  0
  2  3  1  0
  3  4  1  0
  4  5  2  0
  4  6  1  0
  6  7  2  0
  7  8  1  0
  8  9  1  0
  9 10  2  0
  9 11  1  0
 11 12  1  0
 12 13  2  0
 12 14  1  0
 14 15  2  0
 15 16  1  0
 16 17  2  0
 17 18  1  0
  7 19  1  0
 19 20  1  0
 20 21  2  0
 21 22  1  0
 22 23  1  0
 23 24  1  0
 24 25  1  0
 21  6  1  0
 18 14  1  0
 25 20  1  0
  1 26  1  0
  1 27  1  0
  1 28  1  0
  2 29  1  0
  2 30  1  0
  8 31  1  0
 11 32  1  0
 15 33  1  0
 16 34  1  0
 17 35  1  0
 22 36  1  0
 22 37  1  0
 23 38  1  0
 23 39  1  0
 24 40  1  0
 24 41  1  0
 25 42  1  0
 25 43  1  0
M  END
$$$$
