
     RDKit          3D

 34 36  0  0  0  0  0  0  0  0999 V2000
    0.6662    0.7328    1.9577 O   0  0  0  0  0  0  0  0  0  0  0  0
    0.6697   -0.2530    1.2306 C   0  0  0  0  0  0  0  0  0  0  0  0
    1.7319   -0.5303    0.2154 C   0  0  0  0  0  0  0  0  0  0  0  0
    2.7220    0.3553    0.0244 C   0  0  0  0  0  0  0  0  0  0  0  0
    3.8703    0.3102   -0.8932 C   0  0  0  0  0  0  0  0  0  0  0  0
    4.7173    1.4129   -0.9919 C   0  0  0  0  0  0  0  0  0  0  0  0
    5.8075    1.3565   -1.8584 C   0  0  0  0  0  0  0  0  0  0  0  0
    6.0259    0.2043   -2.6006 C   0  0  0  0  0  0  0  0  0  0  0  0
    5.1405   -0.8461   -2.4420 C   0  0  0  0  0  0  0  0  0  0  0  0
    4.0777   -0.8146   -1.6080 N   0  0  0  0  0  0  0  0  0  0  0  0
    1.4387   -2.0439   -0.5595 S   0  0  0  0  0  0  0  0  0  0  0  0
   -0.0194   -2.3623    0.3637 C   0  0  0  0  0  0  0  0  0  0  0  0
   -0.9266   -3.7576    0.2261 S   0  0  0  0  0  0  0  0  0  0  0  0
   -0.2429   -1.2972    1.2095 N   0  0  0  0  0  0  0  0  0  0  0  0
   -1.3753   -1.2380    2.0584 N   0  0  0  0  0  0  0  0  0  0  0  0
   -2.4872   -0.5925    1.4430 C   0  0  0  0  0  0  0  0  0  0  0  0
   -2.3182    0.0432    0.2541 N   0  0  0  0  0  0  0  0  0  0  0  0
   -3.3793    0.6866   -0.2882 C   0  0  0  0  0  0  0  0  0  0  0  0
   -4.6344    0.7430    0.2966 C   0  0  0  0  0  0  0  0  0  0  0  0
   -5.7544    1.4603   -0.3905 C   0  0  0  0  0  0  0  0  0  0  0  0
   -6.3980    0.6677   -1.2890 F   0  0  0  0  0  0  0  0  0  0  0  0
   -5.3395    2.5551   -1.0841 F   0  0  0  0  0  0  0  0  0  0  0  0
   -6.7103    1.9043    0.4709 F   0  0  0  0  0  0  0  0  0  0  0  0
   -4.8074    0.0787    1.5137 C   0  0  0  0  0  0  0  0  0  0  0  0
   -3.7290   -0.5878    2.0959 C   0  0  0  0  0  0  0  0  0  0  0  0
   -3.9744   -1.4098    3.5940 Cl  0  0  0  0  0  0  0  0  0  0  0  0
    2.6963    1.2606    0.6307 H   0  0  0  0  0  0  0  0  0  0  0  0
    4.5420    2.3117   -0.4091 H   0  0  0  0  0  0  0  0  0  0  0  0
    6.4786    2.2056   -1.9510 H   0  0  0  0  0  0  0  0  0  0  0  0
    6.8634    0.1256   -3.2842 H   0  0  0  0  0  0  0  0  0  0  0  0
    5.2632   -1.7719   -2.9969 H   0  0  0  0  0  0  0  0  0  0  0  0
   -1.6632   -2.1664    2.3710 H   0  0  0  0  0  0  0  0  0  0  0  0
   -3.1741    1.1731   -1.2408 H   0  0  0  0  0  0  0  0  0  0  0  0
   -5.7775    0.0839    2.0075 H   0  0  0  0  0  0  0  0  0  0  0  0
  1  2  2  0
  2  3  1  0
  3  4  2  3
  4  5  1  0
  5  6  2  0
  6  7  1  0
  7  8  2  0
  8  9  1  0
  9 10  2  0
  3 11  1  0
 11 12  1  0
 12 13  2  0
 12 14  1  0
 14 15  1  0
 15 16  1  0
 16 17  2  0
 17 18  1  0
 18 19  2  0
 19 20  1  0
 20 21  1  0
 20 22  1  0
 20 23  1  0
 19 24  1  0
 24 25  2  0
 25 26  1  0
 14  2  1  0
 25 16  1  0
 10  5  1  0
  4 27  1  0
  6 28  1  0
  7 29  1  0
  8 30  1  0
  9 31  1  0
 15 32  1  0
 18 33  1  0
 24 34  1  0
M  END
$$$$
