
     RDKit          3D

 59 62  0  0  0  0  0  0  0  0999 V2000
    1.6130    2.7627    2.4144 C   0  0  0  0  0  0  0  0  0  0  0  0
    3.0957    3.0965    2.4225 C   0  0  0  0  0  0  0  0  0  0  0  0
    3.8876    1.9121    2.3642 O   0  0  0  0  0  0  0  0  0  0  0  0
    4.1932    1.3813    1.1423 C   0  0  0  0  0  0  0  0  0  0  0  0
    3.7439    1.8357   -0.0953 C   0  0  0  0  0  0  0  0  0  0  0  0
    4.1232    1.1756   -1.2700 C   0  0  0  0  0  0  0  0  0  0  0  0
    4.9517    0.0474   -1.2240 C   0  0  0  0  0  0  0  0  0  0  0  0
    5.3281   -0.6900   -2.4885 C   0  0  0  0  0  0  0  0  0  0  0  0
    4.1329   -1.2860   -3.2463 C   0  0  0  0  0  0  0  0  0  0  0  0
    3.3417   -2.1727   -2.4098 N   0  0  0  0  0  0  0  0  0  0  0  0
    2.0818   -1.8143   -1.9599 C   0  0  0  0  0  0  0  0  0  0  0  0
    1.4611   -0.8523   -2.4027 O   0  0  0  0  0  0  0  0  0  0  0  0
    1.5547   -2.7529   -0.8834 C   0  0  0  0  0  0  0  0  0  0  0  0
    0.3771   -2.2228   -0.0991 C   0  0  0  0  0  0  0  0  0  0  0  0
   -0.8212   -2.9477   -0.0419 C   0  0  0  0  0  0  0  0  0  0  0  0
   -1.9026   -2.4661    0.6994 C   0  0  0  0  0  0  0  0  0  0  0  0
   -1.8080   -1.2554    1.3886 C   0  0  0  0  0  0  0  0  0  0  0  0
   -2.9048   -0.7733    2.1123 N   0  0  0  0  0  0  0  0  0  0  0  0
   -3.7192    0.0188    1.5128 C   0  0  0  0  0  0  0  0  0  0  0  0
   -3.7234    0.5094    0.2350 N   0  0  0  0  0  0  0  0  0  0  0  0
   -4.9803    1.0624   -0.2331 C   0  0  0  0  0  0  0  0  0  0  0  0
   -5.8913   -0.0161   -0.7987 C   0  0  0  0  0  0  0  0  0  0  0  0
   -7.5139    0.6689   -0.6083 S   0  0  0  0  0  6  0  0  0  0  0  0
   -8.4269   -0.3808   -0.2116 O   0  0  0  0  0  0  0  0  0  0  0  0
   -7.7672    1.5218   -1.7515 O   0  0  0  0  0  0  0  0  0  0  0  0
   -7.1687    1.7147    0.7903 C   0  0  0  0  0  0  0  0  0  0  0  0
   -5.6659    1.6663    1.0046 C   0  0  0  0  0  0  0  0  0  0  0  0
   -5.1422    0.5862    2.3903 S   0  0  0  0  0  0  0  0  0  0  0  0
   -0.6040   -0.5497    1.3657 C   0  0  0  0  0  0  0  0  0  0  0  0
    0.4817   -1.0263    0.6271 C   0  0  0  0  0  0  0  0  0  0  0  0
    5.4115   -0.3964    0.0203 C   0  0  0  0  0  0  0  0  0  0  0  0
    5.0305    0.2653    1.1900 C   0  0  0  0  0  0  0  0  0  0  0  0
    1.3156    2.2820    1.4777 H   0  0  0  0  0  0  0  0  0  0  0  0
    1.0128    3.6684    2.5434 H   0  0  0  0  0  0  0  0  0  0  0  0
    1.3748    2.0615    3.2216 H   0  0  0  0  0  0  0  0  0  0  0  0
    3.3673    3.8206    1.6463 H   0  0  0  0  0  0  0  0  0  0  0  0
    3.3317    3.5792    3.3789 H   0  0  0  0  0  0  0  0  0  0  0  0
    3.0822    2.6889   -0.1894 H   0  0  0  0  0  0  0  0  0  0  0  0
    3.7419    1.5407   -2.2224 H   0  0  0  0  0  0  0  0  0  0  0  0
    5.8767   -0.0055   -3.1470 H   0  0  0  0  0  0  0  0  0  0  0  0
    6.0246   -1.5012   -2.2434 H   0  0  0  0  0  0  0  0  0  0  0  0
    4.4931   -1.8821   -4.0901 H   0  0  0  0  0  0  0  0  0  0  0  0
    3.5023   -0.4894   -3.6534 H   0  0  0  0  0  0  0  0  0  0  0  0
    3.8077   -2.9601   -1.9795 H   0  0  0  0  0  0  0  0  0  0  0  0
    1.2914   -3.6957   -1.3773 H   0  0  0  0  0  0  0  0  0  0  0  0
    2.3620   -2.9714   -0.1737 H   0  0  0  0  0  0  0  0  0  0  0  0
   -0.9227   -3.8954   -0.5658 H   0  0  0  0  0  0  0  0  0  0  0  0
   -2.8274   -3.0368    0.7430 H   0  0  0  0  0  0  0  0  0  0  0  0
   -3.0804    0.0860   -0.4271 H   0  0  0  0  0  0  0  0  0  0  0  0
   -4.8043    1.8415   -0.9837 H   0  0  0  0  0  0  0  0  0  0  0  0
   -5.8507   -0.9564   -0.2408 H   0  0  0  0  0  0  0  0  0  0  0  0
   -5.6962   -0.2181   -1.8550 H   0  0  0  0  0  0  0  0  0  0  0  0
   -7.4905    2.7250    0.5208 H   0  0  0  0  0  0  0  0  0  0  0  0
   -7.7505    1.3735    1.6488 H   0  0  0  0  0  0  0  0  0  0  0  0
   -5.2698    2.6633    1.2277 H   0  0  0  0  0  0  0  0  0  0  0  0
   -0.5143    0.3776    1.9258 H   0  0  0  0  0  0  0  0  0  0  0  0
    1.4033   -0.4488    0.6109 H   0  0  0  0  0  0  0  0  0  0  0  0
    6.0628   -1.2630    0.0958 H   0  0  0  0  0  0  0  0  0  0  0  0
    5.3869   -0.0957    2.1522 H   0  0  0  0  0  0  0  0  0  0  0  0
  1  2  1  0
  2  3  1  0
  3  4  1  0
  4  5  2  0
  5  6  1  0
  6  7  2  0
  7  8  1  0
  8  9  1  0
  9 10  1  0
 10 11  1  0
 11 12  2  0
 11 13  1  0
 13 14  1  0
 14 15  2  0
 15 16  1  0
 16 17  2  0
 17 18  1  0
 18 19  2  3
 19 20  1  0
 20 21  1  0
 21 22  1  0
 22 23  1  0
 23 24  2  0
 23 25  2  0
 23 26  1  0
 26 27  1  0
 27 28  1  0
 17 29  1  0
 29 30  2  0
  7 31  1  0
 31 32  2  0
 32  4  1  0
 30 14  1  0
 28 19  1  0
 27 21  1  0
  1 33  1  0
  1 34  1  0
  1 35  1  0
  2 36  1  0
  2 37  1  0
  5 38  1  0
  6 39  1  0
  8 40  1  0
  8 41  1  0
  9 42  1  0
  9 43  1  0
 10 44  1  0
 13 45  1  0
 13 46  1  0
 15 47  1  0
 16 48  1  0
 20 49  1  0
 21 50  1  0
 22 51  1  0
 22 52  1  0
 26 53  1  0
 26 54  1  0
 27 55  1  0
 29 56  1  0
 30 57  1  0
 31 58  1  0
 32 59  1  0
M  END
$$$$
