
     RDKit          3D

 50 52  0  0  0  0  0  0  0  0999 V2000
    7.0199   -0.0591   -0.8520 O   0  0  0  0  0  0  0  0  0  0  0  0
    6.3560    0.6834   -0.1539 C   0  0  0  0  0  0  0  0  0  0  0  0
    6.9067    1.3734    0.8590 O   0  0  0  0  0  0  0  0  0  0  0  0
    4.9052    0.9475   -0.3044 C   0  0  0  0  0  0  0  0  0  0  0  0
    4.2130    1.7871    0.5785 C   0  0  0  0  0  0  0  0  0  0  0  0
    2.8496    2.0053    0.3953 C   0  0  0  0  0  0  0  0  0  0  0  0
    2.1129    2.7841    1.3321 N   0  0  0  0  0  0  0  0  0  0  0  0
    1.4638    1.9795    2.6792 S   0  0  0  0  0  6  0  0  0  0  0  0
    0.9059    3.0021    3.5366 O   0  0  0  0  0  0  0  0  0  0  0  0
    2.4385    1.0324    3.1734 O   0  0  0  0  0  0  0  0  0  0  0  0
    0.1120    1.0805    1.9648 C   0  0  0  0  0  0  0  0  0  0  0  0
   -1.0715    1.7471    1.6454 C   0  0  0  0  0  0  0  0  0  0  0  0
   -2.1035    1.0577    0.9941 C   0  0  0  0  0  0  0  0  0  0  0  0
   -1.9831   -0.3013    0.6461 C   0  0  0  0  0  0  0  0  0  0  0  0
   -2.9810   -0.9534   -0.0907 N   0  0  0  0  0  0  0  0  0  0  0  0
   -4.3792   -0.6131    0.1869 C   0  0  0  0  0  0  0  0  0  0  0  0
   -5.2806   -1.7202   -0.3592 C   0  0  0  0  0  0  0  0  0  0  0  0
   -4.9540   -2.1029   -1.8052 C   0  0  0  0  0  0  0  0  0  0  0  0
   -3.8633   -1.2258   -2.4088 C   0  0  0  0  0  0  0  0  0  0  0  0
   -2.6260   -1.1679   -1.5113 C   0  0  0  0  0  0  0  0  0  0  0  0
   -0.7875   -0.9401    1.0339 C   0  0  0  0  0  0  0  0  0  0  0  0
   -0.5901   -2.3498    0.7664 N   0  0  0  0  0  4  0  0  0  0  0  0
    0.2610   -2.6373   -0.0895 O   0  0  0  0  0  0  0  0  0  0  0  0
   -1.2269   -3.1600    1.4530 O   0  0  0  0  0  1  0  0  0  0  0  0
    0.2564   -0.2777    1.6931 C   0  0  0  0  0  0  0  0  0  0  0  0
    2.1708    1.3912   -0.6562 C   0  0  0  0  0  0  0  0  0  0  0  0
    2.8519    0.5356   -1.5281 C   0  0  0  0  0  0  0  0  0  0  0  0
    2.0689   -0.1270   -2.5981 C   0  0  0  0  0  0  0  0  0  0  0  0
    0.8748    0.0128   -2.7889 O   0  0  0  0  0  0  0  0  0  0  0  0
    2.8214   -0.9303   -3.3662 O   0  0  0  0  0  0  0  0  0  0  0  0
    4.2231    0.3172   -1.3549 C   0  0  0  0  0  0  0  0  0  0  0  0
    7.8475    1.0955    0.8530 H   0  0  0  0  0  0  0  0  0  0  0  0
    4.7294    2.2473    1.4174 H   0  0  0  0  0  0  0  0  0  0  0  0
    2.5072    3.6820    1.6156 H   0  0  0  0  0  0  0  0  0  0  0  0
   -1.1903    2.8056    1.8704 H   0  0  0  0  0  0  0  0  0  0  0  0
   -2.9944    1.6191    0.7218 H   0  0  0  0  0  0  0  0  0  0  0  0
   -4.6480    0.3480   -0.2690 H   0  0  0  0  0  0  0  0  0  0  0  0
   -4.5510   -0.5283    1.2673 H   0  0  0  0  0  0  0  0  0  0  0  0
   -5.1840   -2.6138    0.2705 H   0  0  0  0  0  0  0  0  0  0  0  0
   -6.3278   -1.4048   -0.2847 H   0  0  0  0  0  0  0  0  0  0  0  0
   -4.6315   -3.1513   -1.8329 H   0  0  0  0  0  0  0  0  0  0  0  0
   -5.8597   -2.0441   -2.4197 H   0  0  0  0  0  0  0  0  0  0  0  0
   -3.5844   -1.6005   -3.4002 H   0  0  0  0  0  0  0  0  0  0  0  0
   -4.2562   -0.2120   -2.5592 H   0  0  0  0  0  0  0  0  0  0  0  0
   -2.0846   -2.1164   -1.6006 H   0  0  0  0  0  0  0  0  0  0  0  0
   -1.9657   -0.3733   -1.8825 H   0  0  0  0  0  0  0  0  0  0  0  0
    1.1685   -0.8091    1.9581 H   0  0  0  0  0  0  0  0  0  0  0  0
    1.1071    1.5703   -0.7998 H   0  0  0  0  0  0  0  0  0  0  0  0
    2.1885   -1.3374   -3.9944 H   0  0  0  0  0  0  0  0  0  0  0  0
    4.7640   -0.3480   -2.0269 H   0  0  0  0  0  0  0  0  0  0  0  0
  1  2  2  0
  2  3  1  0
  2  4  1  0
  4  5  2  0
  5  6  1  0
  6  7  1  0
  7  8  1  0
  8  9  2  0
  8 10  2  0
  8 11  1  0
 11 12  2  0
 12 13  1  0
 13 14  2  0
 14 15  1  0
 15 16  1  0
 16 17  1  0
 17 18  1  0
 18 19  1  0
 19 20  1  0
 14 21  1  0
 21 22  1  0
 22 23  2  0
 22 24  1  0
 21 25  2  0
  6 26  2  0
 26 27  1  0
 27 28  1  0
 28 29  2  0
 28 30  1  0
 27 31  2  0
 31  4  1  0
 25 11  1  0
 20 15  1  0
  3 32  1  0
  5 33  1  0
  7 34  1  0
 12 35  1  0
 13 36  1  0
 16 37  1  0
 16 38  1  0
 17 39  1  0
 17 40  1  0
 18 41  1  0
 18 42  1  0
 19 43  1  0
 19 44  1  0
 20 45  1  0
 20 46  1  0
 25 47  1  0
 26 48  1  0
 30 49  1  0
 31 50  1  0
M  CHG  2  22   1  24  -1
M  END
$$$$
