
     RDKit          3D

 44 47  0  0  0  0  0  0  0  0999 V2000
    0.5737   -0.6419    3.0480 O   0  0  0  0  0  0  0  0  0  0  0  0
    0.5379    0.1053    2.0625 C   0  0  0  0  0  0  0  0  0  0  0  0
    1.0757    1.5290    2.1789 C   0  0  0  0  0  0  0  0  0  0  0  0
    2.8390    1.5040    2.6257 S   0  0  0  0  0  0  0  0  0  0  0  0
    3.4990    0.8094    1.1950 C   0  0  0  0  0  0  0  0  0  0  0  0
    3.0117    0.8715   -0.0199 N   0  0  0  0  0  0  0  0  0  0  0  0
    3.8850    0.1285   -0.7800 C   0  0  0  0  0  0  0  0  0  0  0  0
    3.8492   -0.1617   -2.1504 C   0  0  0  0  0  0  0  0  0  0  0  0
    4.8709   -0.9549   -2.6812 C   0  0  0  0  0  0  0  0  0  0  0  0
    4.8521   -1.3406   -4.3620 Cl  0  0  0  0  0  0  0  0  0  0  0  0
    5.9077   -1.4437   -1.8810 C   0  0  0  0  0  0  0  0  0  0  0  0
    5.9578   -1.1648   -0.5105 C   0  0  0  0  0  0  0  0  0  0  0  0
    4.9255   -0.3747   -0.0011 C   0  0  0  0  0  0  0  0  0  0  0  0
    4.6519    0.0875    1.2610 N   0  0  0  0  0  0  0  0  0  0  0  0
    0.0232   -0.3431    0.8521 N   0  0  0  0  0  0  0  0  0  0  0  0
   -0.5595   -1.6833    0.8015 C   0  0  0  0  0  0  0  0  0  0  0  0
   -2.0827   -1.5991    0.9513 C   0  0  0  0  0  0  0  0  0  0  0  0
   -2.7059   -0.6199    0.0379 N   0  0  0  0  0  0  0  0  0  0  0  0
   -4.0673   -0.8211   -0.2542 C   0  0  0  0  0  0  0  0  0  0  0  0
   -4.5695   -1.9344   -0.0789 O   0  0  0  0  0  0  0  0  0  0  0  0
   -4.8865    0.2693   -0.7691 C   0  0  0  0  0  0  0  0  0  0  0  0
   -6.1087    0.2142   -1.4193 C   0  0  0  0  0  0  0  0  0  0  0  0
   -6.5179    1.5470   -1.6564 C   0  0  0  0  0  0  0  0  0  0  0  0
   -5.5356    2.3438   -1.1196 C   0  0  0  0  0  0  0  0  0  0  0  0
   -4.5519    1.5848   -0.5729 O   0  0  0  0  0  0  0  0  0  0  0  0
   -1.9995    0.6631   -0.1303 C   0  0  0  0  0  0  0  0  0  0  0  0
   -0.4710    0.5070   -0.2304 C   0  0  0  0  0  0  0  0  0  0  0  0
    0.5171    2.0243    2.9815 H   0  0  0  0  0  0  0  0  0  0  0  0
    0.9526    2.1395    1.2883 H   0  0  0  0  0  0  0  0  0  0  0  0
    3.0465    0.2220   -2.7684 H   0  0  0  0  0  0  0  0  0  0  0  0
    6.6925   -2.0540   -2.3247 H   0  0  0  0  0  0  0  0  0  0  0  0
    6.7597   -1.5431    0.1142 H   0  0  0  0  0  0  0  0  0  0  0  0
    5.1815   -0.0868    2.1019 H   0  0  0  0  0  0  0  0  0  0  0  0
   -0.1368   -2.3339    1.5736 H   0  0  0  0  0  0  0  0  0  0  0  0
   -0.2996   -2.1193   -0.1699 H   0  0  0  0  0  0  0  0  0  0  0  0
   -2.3409   -1.2812    1.9704 H   0  0  0  0  0  0  0  0  0  0  0  0
   -2.5136   -2.5943    0.8004 H   0  0  0  0  0  0  0  0  0  0  0  0
   -6.6341   -0.6960   -1.6783 H   0  0  0  0  0  0  0  0  0  0  0  0
   -7.4213    1.8860   -2.1443 H   0  0  0  0  0  0  0  0  0  0  0  0
   -5.3995    3.4143   -1.0438 H   0  0  0  0  0  0  0  0  0  0  0  0
   -2.3418    1.1593   -1.0430 H   0  0  0  0  0  0  0  0  0  0  0  0
   -2.2551    1.2836    0.7359 H   0  0  0  0  0  0  0  0  0  0  0  0
   -0.2119    0.0110   -1.1752 H   0  0  0  0  0  0  0  0  0  0  0  0
    0.0003    1.4872   -0.2510 H   0  0  0  0  0  0  0  0  0  0  0  0
  1  2  2  0
  2  3  1  0
  3  4  1  0
  4  5  1  0
  5  6  2  0
  6  7  1  0
  7  8  2  0
  8  9  1  0
  9 10  1  0
  9 11  2  0
 11 12  1  0
 12 13  2  0
 13 14  1  0
  2 15  1  0
 15 16  1  0
 16 17  1  0
 17 18  1  0
 18 19  1  0
 19 20  2  0
 19 21  1  0
 21 22  2  0
 22 23  1  0
 23 24  2  0
 24 25  1  0
 18 26  1  0
 26 27  1  0
 14  5  1  0
 27 15  1  0
 13  7  1  0
 25 21  1  0
  3 28  1  0
  3 29  1  0
  8 30  1  0
 11 31  1  0
 12 32  1  0
 14 33  1  0
 16 34  1  0
 16 35  1  0
 17 36  1  0
 17 37  1  0
 22 38  1  0
 23 39  1  0
 24 40  1  0
 26 41  1  0
 26 42  1  0
 27 43  1  0
 27 44  1  0
M  END
$$$$
