
     RDKit          3D

 53 55  0  0  0  0  0  0  0  0999 V2000
   -2.2813    2.8989   -1.0379 O   0  0  0  0  0  0  0  0  0  0  0  0
   -1.8742    1.9343   -0.4015 C   0  0  0  0  0  0  0  0  0  0  0  0
   -2.5340    1.4263    0.6889 N   0  0  0  0  0  0  0  0  0  0  0  0
   -3.8096    1.9725    1.1581 C   0  0  0  0  0  0  0  0  0  0  0  0
   -4.9983    1.5722    0.2667 C   0  0  0  0  0  0  0  0  0  0  0  0
   -5.1941    0.0772    0.1211 C   0  0  0  0  0  0  0  0  0  0  0  0
   -6.0023   -0.6297    1.0220 C   0  0  0  0  0  0  0  0  0  0  0  0
   -6.1596   -2.0109    0.8965 C   0  0  0  0  0  0  0  0  0  0  0  0
   -5.5142   -2.6978   -0.1301 C   0  0  0  0  0  0  0  0  0  0  0  0
   -4.7137   -2.0041   -1.0353 C   0  0  0  0  0  0  0  0  0  0  0  0
   -4.5553   -0.6234   -0.9118 C   0  0  0  0  0  0  0  0  0  0  0  0
   -4.0680    1.5685    2.6114 C   0  0  0  0  0  0  0  0  0  0  0  0
   -5.0384    1.8713    3.2884 O   0  0  0  0  0  0  0  0  0  0  0  0
   -3.0892    0.7974    3.1449 O   0  0  0  0  0  0  0  0  0  0  0  0
   -0.6004    1.2629   -0.7824 C   0  0  0  0  0  0  0  0  0  0  0  0
    0.3539    2.0062   -1.4936 C   0  0  0  0  0  0  0  0  0  0  0  0
    1.5607    1.4199   -1.8822 C   0  0  0  0  0  0  0  0  0  0  0  0
    1.8082    0.0843   -1.5566 C   0  0  0  0  0  0  0  0  0  0  0  0
    3.3301   -0.6896   -2.0504 S   0  0  0  0  0  6  0  0  0  0  0  0
    4.0938    0.2560   -2.8367 O   0  0  0  0  0  0  0  0  0  0  0  0
    2.9903   -1.9974   -2.5695 O   0  0  0  0  0  0  0  0  0  0  0  0
    4.1458   -0.8969   -0.5607 N   0  0  0  0  0  0  0  0  0  0  0  0
    4.4287    0.3582    0.1927 C   0  0  0  0  0  0  0  0  0  0  0  0
    5.3577    0.0759    1.3671 C   0  0  0  0  0  0  0  0  0  0  0  0
    6.7180   -0.4289    0.8912 C   0  0  0  0  0  0  0  0  0  0  0  0
    6.6291   -1.1497   -0.4518 C   0  0  0  0  0  0  0  0  0  0  0  0
    5.2909   -1.8553   -0.6223 C   0  0  0  0  0  0  0  0  0  0  0  0
    0.8549   -0.6752   -0.8705 C   0  0  0  0  0  0  0  0  0  0  0  0
   -0.3517   -0.0854   -0.4849 C   0  0  0  0  0  0  0  0  0  0  0  0
   -2.1176    0.7153    1.2793 H   0  0  0  0  0  0  0  0  0  0  0  0
   -3.7085    3.0649    1.1551 H   0  0  0  0  0  0  0  0  0  0  0  0
   -4.8737    2.0054   -0.7342 H   0  0  0  0  0  0  0  0  0  0  0  0
   -5.9243    2.0117    0.6605 H   0  0  0  0  0  0  0  0  0  0  0  0
   -6.5212   -0.1095    1.8251 H   0  0  0  0  0  0  0  0  0  0  0  0
   -6.7916   -2.5505    1.5971 H   0  0  0  0  0  0  0  0  0  0  0  0
   -5.6418   -3.7724   -0.2298 H   0  0  0  0  0  0  0  0  0  0  0  0
   -4.2176   -2.5370   -1.8424 H   0  0  0  0  0  0  0  0  0  0  0  0
   -3.9331   -0.0936   -1.6307 H   0  0  0  0  0  0  0  0  0  0  0  0
   -3.4089    0.6206    4.0556 H   0  0  0  0  0  0  0  0  0  0  0  0
    0.1542    3.0457   -1.7502 H   0  0  0  0  0  0  0  0  0  0  0  0
    2.2896    2.0057   -2.4383 H   0  0  0  0  0  0  0  0  0  0  0  0
    4.8762    1.1136   -0.4626 H   0  0  0  0  0  0  0  0  0  0  0  0
    3.4875    0.7563    0.5852 H   0  0  0  0  0  0  0  0  0  0  0  0
    5.4908    0.9780    1.9748 H   0  0  0  0  0  0  0  0  0  0  0  0
    4.9002   -0.6790    2.0195 H   0  0  0  0  0  0  0  0  0  0  0  0
    7.1354   -1.0989    1.6523 H   0  0  0  0  0  0  0  0  0  0  0  0
    7.4196    0.4088    0.7991 H   0  0  0  0  0  0  0  0  0  0  0  0
    7.4520   -1.8682   -0.5381 H   0  0  0  0  0  0  0  0  0  0  0  0
    6.7617   -0.4223   -1.2629 H   0  0  0  0  0  0  0  0  0  0  0  0
    5.2974   -2.4097   -1.5665 H   0  0  0  0  0  0  0  0  0  0  0  0
    5.1465   -2.5993    0.1704 H   0  0  0  0  0  0  0  0  0  0  0  0
    1.0447   -1.7236   -0.6471 H   0  0  0  0  0  0  0  0  0  0  0  0
   -1.0953   -0.6997    0.0159 H   0  0  0  0  0  0  0  0  0  0  0  0
  1  2  2  0
  2  3  1  0
  3  4  1  0
  4  5  1  0
  5  6  1  0
  6  7  2  0
  7  8  1  0
  8  9  2  0
  9 10  1  0
 10 11  2  0
  4 12  1  0
 12 13  2  0
 12 14  1  0
  2 15  1  0
 15 16  2  0
 16 17  1  0
 17 18  2  0
 18 19  1  0
 19 20  2  0
 19 21  2  0
 19 22  1  0
 22 23  1  0
 23 24  1  0
 24 25  1  0
 25 26  1  0
 26 27  1  0
 18 28  1  0
 28 29  2  0
 11  6  1  0
 29 15  1  0
 27 22  1  0
  3 30  1  0
  4 31  1  0
  5 32  1  0
  5 33  1  0
  7 34  1  0
  8 35  1  0
  9 36  1  0
 10 37  1  0
 11 38  1  0
 14 39  1  0
 16 40  1  0
 17 41  1  0
 23 42  1  0
 23 43  1  0
 24 44  1  0
 24 45  1  0
 25 46  1  0
 25 47  1  0
 26 48  1  0
 26 49  1  0
 27 50  1  0
 27 51  1  0
 28 52  1  0
 29 53  1  0
M  END
$$$$
