
     RDKit          3D

 36 38  0  0  0  0  0  0  0  0999 V2000
    6.3205   -0.6806   -3.5181 Br  0  0  0  0  0  0  0  0  0  0  0  0
    5.0895   -0.5262   -2.0910 C   0  0  0  0  0  0  0  0  0  0  0  0
    5.3367    0.3786   -1.0547 C   0  0  0  0  0  0  0  0  0  0  0  0
    4.4226    0.4990   -0.0015 C   0  0  0  0  0  0  0  0  0  0  0  0
    3.2599   -0.2868    0.0237 C   0  0  0  0  0  0  0  0  0  0  0  0
    2.2800   -0.1767    1.0977 C   0  0  0  0  0  0  0  0  0  0  0  0
    2.5834    0.1322    2.4087 C   0  0  0  0  0  0  0  0  0  0  0  0
    1.1538    0.1548    3.3513 S   0  0  0  0  0  0  0  0  0  0  0  0
    0.2143   -0.2171    1.9434 C   0  0  0  0  0  0  0  0  0  0  0  0
   -1.1352   -0.2795    2.0808 N   0  0  0  0  0  0  0  0  0  0  0  0
   -1.8890   -0.3514    1.0280 C   0  0  0  0  0  0  0  0  0  0  0  0
   -3.3929   -0.3697    1.3035 C   0  0  0  0  0  0  0  0  0  0  0  0
   -4.0560    0.9007    0.7909 C   0  0  0  0  0  0  0  0  0  0  0  0
   -4.4582    0.8312   -0.6828 C   0  0  0  0  0  0  0  0  0  0  0  0
   -3.4883    0.1065   -1.6137 C   0  0  0  0  0  0  0  0  0  0  0  0
   -2.0245    0.4126   -1.3378 C   0  0  0  0  0  0  0  0  0  0  0  0
   -1.4735   -0.4252   -0.2869 N   0  0  0  0  0  0  0  0  0  0  0  0
    0.9337   -0.3809    0.8462 N   0  0  0  0  0  0  0  0  0  0  0  0
    3.0264   -1.1886   -1.0293 C   0  0  0  0  0  0  0  0  0  0  0  0
    3.9393   -1.3117   -2.0824 C   0  0  0  0  0  0  0  0  0  0  0  0
    6.2297    0.9993   -1.0627 H   0  0  0  0  0  0  0  0  0  0  0  0
    4.6250    1.2258    0.7826 H   0  0  0  0  0  0  0  0  0  0  0  0
    3.5453    0.3252    2.8623 H   0  0  0  0  0  0  0  0  0  0  0  0
   -3.5421   -0.4383    2.3910 H   0  0  0  0  0  0  0  0  0  0  0  0
   -3.8337   -1.2744    0.8677 H   0  0  0  0  0  0  0  0  0  0  0  0
   -3.3867    1.7622    0.9411 H   0  0  0  0  0  0  0  0  0  0  0  0
   -4.9548    1.1115    1.3892 H   0  0  0  0  0  0  0  0  0  0  0  0
   -5.4332    0.3497   -0.7708 H   0  0  0  0  0  0  0  0  0  0  0  0
   -4.5977    1.8571   -1.0398 H   0  0  0  0  0  0  0  0  0  0  0  0
   -3.6620   -0.9746   -1.5682 H   0  0  0  0  0  0  0  0  0  0  0  0
   -3.7313    0.4094   -2.6400 H   0  0  0  0  0  0  0  0  0  0  0  0
   -1.8747    1.4665   -1.0992 H   0  0  0  0  0  0  0  0  0  0  0  0
   -1.4496    0.2144   -2.2462 H   0  0  0  0  0  0  0  0  0  0  0  0
   -0.4479   -0.4287   -0.3303 H   0  0  0  0  0  0  0  0  0  0  0  0
    2.1293   -1.8062   -1.0310 H   0  0  0  0  0  0  0  0  0  0  0  0
    3.7420   -2.0200   -2.8832 H   0  0  0  0  0  0  0  0  0  0  0  0
  1  2  1  0
  2  3  2  0
  3  4  1  0
  4  5  2  0
  5  6  1  0
  6  7  2  0
  7  8  1  0
  8  9  1  0
  9 10  1  0
 10 11  2  3
 11 12  1  0
 12 13  1  0
 13 14  1  0
 14 15  1  0
 15 16  1  0
 16 17  1  0
  9 18  2  0
  5 19  1  0
 19 20  2  0
 20  2  1  0
 18  6  1  0
 17 11  1  0
  3 21  1  0
  4 22  1  0
  7 23  1  0
 12 24  1  0
 12 25  1  0
 13 26  1  0
 13 27  1  0
 14 28  1  0
 14 29  1  0
 15 30  1  0
 15 31  1  0
 16 32  1  0
 16 33  1  0
 17 34  1  0
 19 35  1  0
 20 36  1  0
M  END
$$$$
