
     RDKit          3D

 38 40  0  0  0  0  0  0  0  0999 V2000
   -5.9900   -0.5634   -0.4463 C   0  0  0  0  0  0  0  0  0  0  0  0
   -4.5641   -1.0102   -0.3216 C   0  0  0  0  0  0  0  0  0  0  0  0
   -3.8198   -0.6954    0.8203 C   0  0  0  0  0  0  0  0  0  0  0  0
   -2.4814   -1.0822    0.9222 C   0  0  0  0  0  0  0  0  0  0  0  0
   -1.8576   -1.7837   -0.1196 C   0  0  0  0  0  0  0  0  0  0  0  0
   -0.4119   -2.2043   -0.0043 C   0  0  0  0  0  0  0  0  0  0  0  0
    0.4052   -1.0210   -0.4065 C   0  0  0  0  0  0  0  0  0  0  0  0
    0.7634   -0.6473   -1.7327 C   0  0  0  0  0  0  0  0  0  0  0  0
    1.5518    0.4789   -1.6705 C   0  0  0  0  0  0  0  0  0  0  0  0
    2.1263    1.1391   -2.6705 O   0  0  0  0  0  0  0  0  0  0  0  0
    1.6263    0.8541   -0.3445 N   0  0  0  0  0  0  0  0  0  0  0  0
    2.1177    2.1340    0.1513 C   0  0  0  0  0  0  0  0  0  0  0  0
    3.4534    1.9755    0.7749 C   0  0  0  0  0  0  0  0  0  0  0  0
    4.7461    2.1580    0.3290 C   0  0  0  0  0  0  0  0  0  0  0  0
    5.5921    1.8320    1.4171 C   0  0  0  0  0  0  0  0  0  0  0  0
    4.7649    1.4761    2.4559 C   0  0  0  0  0  0  0  0  0  0  0  0
    3.4638    1.5626    2.0777 O   0  0  0  0  0  0  0  0  0  0  0  0
    1.0101   -0.1063    0.4376 C   0  0  0  0  0  0  0  0  0  0  0  0
    1.0111   -0.0766    1.7687 O   0  0  0  0  0  0  0  0  0  0  0  0
   -2.6018   -2.0812   -1.2698 C   0  0  0  0  0  0  0  0  0  0  0  0
   -3.9406   -1.6940   -1.3712 C   0  0  0  0  0  0  0  0  0  0  0  0
   -6.4754   -0.5276    0.5347 H   0  0  0  0  0  0  0  0  0  0  0  0
   -6.0321    0.4322   -0.8985 H   0  0  0  0  0  0  0  0  0  0  0  0
   -6.5645   -1.2590   -1.0670 H   0  0  0  0  0  0  0  0  0  0  0  0
   -4.2746   -0.1433    1.6392 H   0  0  0  0  0  0  0  0  0  0  0  0
   -1.9164   -0.8241    1.8161 H   0  0  0  0  0  0  0  0  0  0  0  0
   -0.2023   -3.0610   -0.6556 H   0  0  0  0  0  0  0  0  0  0  0  0
   -0.1875   -2.5227    1.0204 H   0  0  0  0  0  0  0  0  0  0  0  0
    0.4877   -1.1598   -2.6448 H   0  0  0  0  0  0  0  0  0  0  0  0
    2.8702    1.6630   -2.3352 H   0  0  0  0  0  0  0  0  0  0  0  0
    2.1480    2.8468   -0.6786 H   0  0  0  0  0  0  0  0  0  0  0  0
    1.3849    2.5114    0.8738 H   0  0  0  0  0  0  0  0  0  0  0  0
    5.0482    2.4822   -0.6572 H   0  0  0  0  0  0  0  0  0  0  0  0
    6.6729    1.8521    1.4428 H   0  0  0  0  0  0  0  0  0  0  0  0
    4.9378    1.1534    3.4738 H   0  0  0  0  0  0  0  0  0  0  0  0
    1.7701    0.4520    2.0817 H   0  0  0  0  0  0  0  0  0  0  0  0
   -2.1391   -2.6116   -2.0987 H   0  0  0  0  0  0  0  0  0  0  0  0
   -4.4928   -1.9287   -2.2781 H   0  0  0  0  0  0  0  0  0  0  0  0
  1  2  1  0
  2  3  2  0
  3  4  1  0
  4  5  2  0
  5  6  1  0
  6  7  1  0
  7  8  1  0
  8  9  2  0
  9 10  1  0
  9 11  1  0
 11 12  1  0
 12 13  1  0
 13 14  2  0
 14 15  1  0
 15 16  2  0
 16 17  1  0
 11 18  1  0
 18 19  1  0
  5 20  1  0
 20 21  2  0
 21  2  1  0
 18  7  2  0
 17 13  1  0
  1 22  1  0
  1 23  1  0
  1 24  1  0
  3 25  1  0
  4 26  1  0
  6 27  1  0
  6 28  1  0
  8 29  1  0
 10 30  1  0
 12 31  1  0
 12 32  1  0
 14 33  1  0
 15 34  1  0
 16 35  1  0
 19 36  1  0
 20 37  1  0
 21 38  1  0
M  END
$$$$
