
     RDKit          3D

 52 55  0  0  0  0  0  0  0  0999 V2000
    5.9152    0.0822    1.2470 C   0  0  0  0  0  0  0  0  0  0  0  0
    6.2334    0.5574   -0.1620 C   0  0  0  0  0  0  0  0  0  0  0  0
    5.3731   -0.0339   -1.3025 C   0  0  0  0  0  0  0  0  0  0  0  0
    5.5890   -1.5424   -1.4986 C   0  0  0  0  0  0  0  0  0  0  0  0
    3.9442    0.4072   -1.2537 N   0  0  0  0  0  0  0  0  0  0  0  0
    3.0629   -0.3363   -0.4578 C   0  0  0  0  0  0  0  0  0  0  0  0
    3.4137   -1.2939    0.2316 O   0  0  0  0  0  0  0  0  0  0  0  0
    1.6307    0.0801   -0.4539 C   0  0  0  0  0  0  0  0  0  0  0  0
    0.7719   -0.7080    0.2265 C   0  0  0  0  0  0  0  0  0  0  0  0
   -0.6724   -0.5248    0.3864 C   0  0  0  0  0  0  0  0  0  0  0  0
   -1.1760    0.0760    1.5399 C   0  0  0  0  0  0  0  0  0  0  0  0
   -2.5617    0.2198    1.7239 C   0  0  0  0  0  0  0  0  0  0  0  0
   -3.4670   -0.2157    0.7350 C   0  0  0  0  0  0  0  0  0  0  0  0
   -2.9438   -0.8063   -0.4330 C   0  0  0  0  0  0  0  0  0  0  0  0
   -1.5579   -0.9731   -0.5935 C   0  0  0  0  0  0  0  0  0  0  0  0
   -3.8696   -1.2915   -1.5186 C   0  0  0  0  0  0  0  0  0  0  0  0
   -5.1959   -0.5467   -1.4747 C   0  0  0  0  0  0  0  0  0  0  0  0
   -5.7718   -0.6119   -0.0692 C   0  0  0  0  0  0  0  0  0  0  0  0
   -4.8373   -0.0713    0.9095 N   0  0  0  0  0  0  0  0  0  0  0  0
   -5.3571    0.6989    2.0314 C   0  0  0  0  0  0  0  0  0  0  0  0
   -4.5058    0.4868    3.2732 C   0  0  0  0  0  0  0  0  0  0  0  0
   -3.0661    0.8833    2.9800 C   0  0  0  0  0  0  0  0  0  0  0  0
    1.2234    1.3042   -1.1612 C   0  0  0  0  0  0  0  0  0  0  0  0
    0.0869    1.7533   -1.2210 O   0  0  0  0  0  0  0  0  0  0  0  0
    2.2454    1.9541   -1.7863 N   0  0  0  0  0  0  0  0  0  0  0  0
    3.5589    1.5907   -1.8888 C   0  0  0  0  0  0  0  0  0  0  0  0
    4.5148    2.6428   -2.7855 S   0  0  0  0  0  0  0  0  0  0  0  0
    6.6340    0.5123    1.9527 H   0  0  0  0  0  0  0  0  0  0  0  0
    4.9201    0.4071    1.5630 H   0  0  0  0  0  0  0  0  0  0  0  0
    5.9802   -1.0054    1.3351 H   0  0  0  0  0  0  0  0  0  0  0  0
    6.1544    1.6509   -0.1740 H   0  0  0  0  0  0  0  0  0  0  0  0
    7.2861    0.3249   -0.3680 H   0  0  0  0  0  0  0  0  0  0  0  0
    5.7966    0.3839   -2.2221 H   0  0  0  0  0  0  0  0  0  0  0  0
    5.4183   -2.1309   -0.5947 H   0  0  0  0  0  0  0  0  0  0  0  0
    6.6244   -1.7345   -1.8031 H   0  0  0  0  0  0  0  0  0  0  0  0
    4.9334   -1.9281   -2.2867 H   0  0  0  0  0  0  0  0  0  0  0  0
    1.1332   -1.5982    0.7417 H   0  0  0  0  0  0  0  0  0  0  0  0
   -0.4940    0.4315    2.3087 H   0  0  0  0  0  0  0  0  0  0  0  0
   -1.1763   -1.4439   -1.4960 H   0  0  0  0  0  0  0  0  0  0  0  0
   -3.4119   -1.1418   -2.5035 H   0  0  0  0  0  0  0  0  0  0  0  0
   -4.0341   -2.3676   -1.3848 H   0  0  0  0  0  0  0  0  0  0  0  0
   -5.8970   -0.9853   -2.1932 H   0  0  0  0  0  0  0  0  0  0  0  0
   -5.0451    0.5015   -1.7644 H   0  0  0  0  0  0  0  0  0  0  0  0
   -6.7139   -0.0510   -0.0479 H   0  0  0  0  0  0  0  0  0  0  0  0
   -6.0100   -1.6489    0.1973 H   0  0  0  0  0  0  0  0  0  0  0  0
   -6.3870    0.3962    2.2550 H   0  0  0  0  0  0  0  0  0  0  0  0
   -5.3846    1.7616    1.7611 H   0  0  0  0  0  0  0  0  0  0  0  0
   -4.5476   -0.5682    3.5742 H   0  0  0  0  0  0  0  0  0  0  0  0
   -4.8958    1.0792    4.1081 H   0  0  0  0  0  0  0  0  0  0  0  0
   -2.4401    0.6025    3.8352 H   0  0  0  0  0  0  0  0  0  0  0  0
   -2.9931    1.9704    2.8537 H   0  0  0  0  0  0  0  0  0  0  0  0
    1.9689    2.8012   -2.2674 H   0  0  0  0  0  0  0  0  0  0  0  0
  1  2  1  0
  2  3  1  0
  3  4  1  0
  3  5  1  0
  5  6  1  0
  6  7  2  0
  6  8  1  0
  8  9  2  3
  9 10  1  0
 10 11  2  0
 11 12  1  0
 12 13  2  0
 13 14  1  0
 14 15  2  0
 14 16  1  0
 16 17  1  0
 17 18  1  0
 18 19  1  0
 19 20  1  0
 20 21  1  0
 21 22  1  0
  8 23  1  0
 23 24  2  0
 23 25  1  0
 25 26  1  0
 26 27  2  0
 26  5  1  0
 15 10  1  0
 22 12  1  0
 19 13  1  0
  1 28  1  0
  1 29  1  0
  1 30  1  0
  2 31  1  0
  2 32  1  0
  3 33  1  0
  4 34  1  0
  4 35  1  0
  4 36  1  0
  9 37  1  0
 11 38  1  0
 15 39  1  0
 16 40  1  0
 16 41  1  0
 17 42  1  0
 17 43  1  0
 18 44  1  0
 18 45  1  0
 20 46  1  0
 20 47  1  0
 21 48  1  0
 21 49  1  0
 22 50  1  0
 22 51  1  0
 25 52  1  0
M  END
$$$$
