
     RDKit          3D

 43 46  0  0  0  0  0  0  0  0999 V2000
   -4.1308   -3.2941   -0.8267 C   0  0  0  0  0  0  0  0  0  0  0  0
   -3.8348   -1.9174   -1.1945 N   0  0  0  0  0  0  0  0  0  0  0  0
   -4.6070   -1.3349   -2.1977 C   0  0  0  0  0  0  0  0  0  0  0  0
   -5.5097   -1.9234   -2.7877 O   0  0  0  0  0  0  0  0  0  0  0  0
   -4.3069    0.1182   -2.5832 C   0  0  0  0  0  0  0  0  0  0  0  0
   -4.9814    0.6414   -3.4667 O   0  0  0  0  0  0  0  0  0  0  0  0
   -3.2769    0.7734   -1.9104 N   0  0  0  0  0  0  0  0  0  0  0  0
   -3.0062    2.1577   -2.2718 C   0  0  0  0  0  0  0  0  0  0  0  0
   -2.5132    0.1294   -0.8984 C   0  0  0  0  0  0  0  0  0  0  0  0
   -1.4730    0.8118   -0.2422 C   0  0  0  0  0  0  0  0  0  0  0  0
   -0.7195    0.1748    0.7466 C   0  0  0  0  0  0  0  0  0  0  0  0
    0.5948    1.0455    1.5765 S   0  0  0  0  0  6  0  0  0  0  0  0
    0.4110    0.7930    2.9902 O   0  0  0  0  0  0  0  0  0  0  0  0
    0.6220    2.3960    1.0524 O   0  0  0  0  0  0  0  0  0  0  0  0
    1.9682    0.2167    1.0059 N   0  0  0  0  0  0  0  0  0  0  0  0
    2.1873    0.2441   -0.4812 C   0  0  0  0  0  0  0  0  0  0  0  0
    3.7025    0.1073   -0.6961 C   0  0  0  0  0  0  0  0  0  0  0  0
    4.2443    0.5060    0.6361 C   0  0  0  0  0  0  0  0  0  0  0  0
    5.5694    0.7396    0.9720 C   0  0  0  0  0  0  0  0  0  0  0  0
    5.8737    1.0232    2.3038 C   0  0  0  0  0  0  0  0  0  0  0  0
    4.8623    1.0449    3.2752 C   0  0  0  0  0  0  0  0  0  0  0  0
    3.5314    0.7963    2.9248 C   0  0  0  0  0  0  0  0  0  0  0  0
    3.2319    0.5631    1.5938 C   0  0  0  0  0  0  0  0  0  0  0  0
   -0.9945   -1.1373    1.1129 C   0  0  0  0  0  0  0  0  0  0  0  0
   -2.0243   -1.8211    0.4676 C   0  0  0  0  0  0  0  0  0  0  0  0
   -2.7915   -1.2056   -0.5418 C   0  0  0  0  0  0  0  0  0  0  0  0
   -4.4176   -3.3354    0.2290 H   0  0  0  0  0  0  0  0  0  0  0  0
   -4.9571   -3.7096   -1.4104 H   0  0  0  0  0  0  0  0  0  0  0  0
   -3.2496   -3.9174   -1.0092 H   0  0  0  0  0  0  0  0  0  0  0  0
   -3.6766    2.5185   -3.0569 H   0  0  0  0  0  0  0  0  0  0  0  0
   -1.9810    2.2421   -2.6464 H   0  0  0  0  0  0  0  0  0  0  0  0
   -3.1481    2.7975   -1.3950 H   0  0  0  0  0  0  0  0  0  0  0  0
   -1.2345    1.8439   -0.4838 H   0  0  0  0  0  0  0  0  0  0  0  0
    1.6466   -0.5729   -0.9685 H   0  0  0  0  0  0  0  0  0  0  0  0
    1.8460    1.1948   -0.9077 H   0  0  0  0  0  0  0  0  0  0  0  0
    4.0516    0.7557   -1.5048 H   0  0  0  0  0  0  0  0  0  0  0  0
    3.9720   -0.9317   -0.9134 H   0  0  0  0  0  0  0  0  0  0  0  0
    6.3558    0.6925    0.2252 H   0  0  0  0  0  0  0  0  0  0  0  0
    6.9043    1.2119    2.5961 H   0  0  0  0  0  0  0  0  0  0  0  0
    5.1161    1.2464    4.3135 H   0  0  0  0  0  0  0  0  0  0  0  0
    2.7695    0.7882    3.6963 H   0  0  0  0  0  0  0  0  0  0  0  0
   -0.4179   -1.6281    1.8952 H   0  0  0  0  0  0  0  0  0  0  0  0
   -2.2087   -2.8450    0.7814 H   0  0  0  0  0  0  0  0  0  0  0  0
  1  2  1  0
  2  3  1  0
  3  4  2  0
  3  5  1  0
  5  6  2  0
  5  7  1  0
  7  8  1  0
  7  9  1  0
  9 10  2  0
 10 11  1  0
 11 12  1  0
 12 13  2  0
 12 14  2  0
 12 15  1  0
 15 16  1  0
 16 17  1  0
 17 18  1  0
 18 19  2  0
 19 20  1  0
 20 21  2  0
 21 22  1  0
 22 23  2  0
 11 24  2  0
 24 25  1  0
 25 26  2  0
 26  2  1  0
 26  9  1  0
 23 15  1  0
 23 18  1  0
  1 27  1  0
  1 28  1  0
  1 29  1  0
  8 30  1  0
  8 31  1  0
  8 32  1  0
 10 33  1  0
 16 34  1  0
 16 35  1  0
 17 36  1  0
 17 37  1  0
 19 38  1  0
 20 39  1  0
 21 40  1  0
 22 41  1  0
 24 42  1  0
 25 43  1  0
M  END
$$$$
