
     RDKit          3D

 42 43  0  0  0  0  0  0  0  0999 V2000
   -4.5785    3.2193   -2.2296 C   0  0  0  0  0  0  0  0  0  0  0  0
   -3.7012    2.3465   -1.3747 C   0  0  0  0  0  0  0  0  0  0  0  0
   -4.2615    1.3002   -0.6396 C   0  0  0  0  0  0  0  0  0  0  0  0
   -3.4607    0.4774    0.1637 C   0  0  0  0  0  0  0  0  0  0  0  0
   -2.0852    0.7009    0.2372 C   0  0  0  0  0  0  0  0  0  0  0  0
   -1.1942   -0.0187    0.9851 O   0  0  0  0  0  0  0  0  0  0  0  0
   -1.6928   -1.1908    1.6303 C   0  0  0  0  0  0  0  0  0  0  0  0
   -0.5383   -1.8720    2.3504 C   0  0  0  0  0  0  0  0  0  0  0  0
   -0.4101   -3.0938    2.4147 O   0  0  0  0  0  0  0  0  0  0  0  0
    0.3330   -0.9908    2.9599 N   0  0  0  0  0  0  0  0  0  0  0  0
    1.6036   -1.5108    3.3151 N   0  0  0  0  0  0  0  0  0  0  0  0
    2.6897   -0.8159    2.8028 C   0  0  0  0  0  0  0  0  0  0  0  0
    2.5832    0.3141    2.3217 O   0  0  0  0  0  0  0  0  0  0  0  0
    3.9971   -1.5817    2.8472 C   0  0  0  0  0  0  0  0  0  0  0  0
    4.0291   -2.8664    1.5592 S   0  0  0  0  0  0  0  0  0  0  0  0
    3.6121   -1.8330    0.1826 C   0  0  0  0  0  0  0  0  0  0  0  0
    4.4998   -0.8968   -0.1797 N   0  0  0  0  0  0  0  0  0  0  0  0
    4.0916   -0.0523   -1.1454 C   0  0  0  0  0  0  0  0  0  0  0  0
    2.8474   -0.1129   -1.7415 C   0  0  0  0  0  0  0  0  0  0  0  0
    2.4828    0.8178   -2.7559 C   0  0  0  0  0  0  0  0  0  0  0  0
    2.2018    1.6049   -3.5689 N   0  0  0  0  0  0  0  0  0  0  0  0
    2.0104   -1.1160   -1.2919 C   0  0  0  0  0  0  0  0  0  0  0  0
    0.7356   -1.3389   -1.8193 N   0  0  0  0  0  0  0  0  0  0  0  0
    2.3840   -1.9866   -0.3400 N   0  0  0  0  0  0  0  0  0  0  0  0
   -1.5235    1.7513   -0.4901 C   0  0  0  0  0  0  0  0  0  0  0  0
   -2.3255    2.5678   -1.2907 C   0  0  0  0  0  0  0  0  0  0  0  0
   -3.9968    3.9944   -2.7464 H   0  0  0  0  0  0  0  0  0  0  0  0
   -5.3325    3.7184   -1.6066 H   0  0  0  0  0  0  0  0  0  0  0  0
   -5.0811    2.6152   -2.9915 H   0  0  0  0  0  0  0  0  0  0  0  0
   -5.3347    1.1163   -0.6870 H   0  0  0  0  0  0  0  0  0  0  0  0
   -3.9456   -0.3139    0.7211 H   0  0  0  0  0  0  0  0  0  0  0  0
   -2.4503   -0.9415    2.3803 H   0  0  0  0  0  0  0  0  0  0  0  0
   -2.0862   -1.8904    0.8839 H   0  0  0  0  0  0  0  0  0  0  0  0
    0.3631   -0.0429    2.5731 H   0  0  0  0  0  0  0  0  0  0  0  0
    1.6424   -2.5345    3.3216 H   0  0  0  0  0  0  0  0  0  0  0  0
    4.8311   -0.8843    2.7181 H   0  0  0  0  0  0  0  0  0  0  0  0
    4.1035   -2.0536    3.8280 H   0  0  0  0  0  0  0  0  0  0  0  0
    4.8229    0.7010   -1.4223 H   0  0  0  0  0  0  0  0  0  0  0  0
    0.1432   -0.5185   -1.8119 H   0  0  0  0  0  0  0  0  0  0  0  0
    0.3074   -2.1121   -1.3113 H   0  0  0  0  0  0  0  0  0  0  0  0
   -0.4539    1.9445   -0.4320 H   0  0  0  0  0  0  0  0  0  0  0  0
   -1.8624    3.3789   -1.8554 H   0  0  0  0  0  0  0  0  0  0  0  0
  1  2  1  0
  2  3  2  0
  3  4  1  0
  4  5  2  0
  5  6  1  0
  6  7  1  0
  7  8  1  0
  8  9  2  0
  8 10  1  0
 10 11  1  0
 11 12  1  0
 12 13  2  0
 12 14  1  0
 14 15  1  0
 15 16  1  0
 16 17  2  0
 17 18  1  0
 18 19  2  0
 19 20  1  0
 20 21  3  0
 19 22  1  0
 22 23  1  0
 22 24  2  0
  5 25  1  0
 25 26  2  0
 26  2  1  0
 24 16  1  0
  1 27  1  0
  1 28  1  0
  1 29  1  0
  3 30  1  0
  4 31  1  0
  7 32  1  0
  7 33  1  0
 10 34  1  0
 11 35  1  0
 14 36  1  0
 14 37  1  0
 18 38  1  0
 23 39  1  0
 23 40  1  0
 25 41  1  0
 26 42  1  0
M  END
$$$$
