
     RDKit          3D

 54 58  0  0  0  0  0  0  0  0999 V2000
   -5.3845   -3.5118   -1.2662 C   0  0  0  0  0  0  0  0  0  0  0  0
   -4.2825   -2.5052   -0.9648 C   0  0  0  0  0  0  0  0  0  0  0  0
   -3.9555   -2.3920    0.5375 C   0  0  0  0  0  0  0  0  0  0  0  0
   -5.1187   -1.8411    1.3687 C   0  0  0  0  0  0  0  0  0  0  0  0
   -2.7130   -1.6330    0.7661 N   0  0  0  0  0  0  0  0  0  0  0  0
   -1.6176   -2.2922    1.3208 C   0  0  0  0  0  0  0  0  0  0  0  0
   -0.4547   -1.7744    1.5791 N   0  0  0  0  0  0  0  0  0  0  0  0
   -0.3684   -0.4671    1.2435 C   0  0  0  0  0  0  0  0  0  0  0  0
   -1.3590    0.3193    0.6946 C   0  0  0  0  0  0  0  0  0  0  0  0
   -2.6448   -0.2716    0.4188 C   0  0  0  0  0  0  0  0  0  0  0  0
   -3.5764    0.3599   -0.0682 O   0  0  0  0  0  0  0  0  0  0  0  0
   -0.8339    1.6149    0.5287 C   0  0  0  0  0  0  0  0  0  0  0  0
   -1.3857    2.7558    0.0477 N   0  0  0  0  0  0  0  0  0  0  0  0
   -0.5668    3.8187    0.0509 C   0  0  0  0  0  0  0  0  0  0  0  0
   -1.0573    5.0261   -0.4295 C   0  0  0  0  0  0  0  0  0  0  0  0
   -0.2688    6.1771   -0.4576 C   0  0  0  0  0  0  0  0  0  0  0  0
    1.0383    6.1213    0.0047 C   0  0  0  0  0  0  0  0  0  0  0  0
    1.5449    4.9148    0.4903 C   0  0  0  0  0  0  0  0  0  0  0  0
    0.7724    3.7606    0.5241 C   0  0  0  0  0  0  0  0  0  0  0  0
    1.3298    2.6355    1.0052 N   0  0  0  0  0  0  0  0  0  0  0  0
    0.4832    1.5849    0.9823 C   0  0  0  0  0  0  0  0  0  0  0  0
    0.7586    0.3029    1.3931 N   0  0  0  0  0  0  0  0  0  0  0  0
    2.0307   -0.1421    1.9347 C   0  0  0  0  0  0  0  0  0  0  0  0
    2.9377   -0.6716    0.8514 C   0  0  0  0  0  0  0  0  0  0  0  0
    2.9471   -2.0346    0.5319 C   0  0  0  0  0  0  0  0  0  0  0  0
    3.7788   -2.5170   -0.4813 C   0  0  0  0  0  0  0  0  0  0  0  0
    4.6083   -1.6510   -1.1968 C   0  0  0  0  0  0  0  0  0  0  0  0
    5.3688   -2.2536   -2.1609 O   0  0  0  0  0  0  0  0  0  0  0  0
    6.2103   -1.4082   -2.9347 C   0  0  0  0  0  0  0  0  0  0  0  0
    4.5979   -0.2909   -0.8896 C   0  0  0  0  0  0  0  0  0  0  0  0
    3.7669    0.1952    0.1262 C   0  0  0  0  0  0  0  0  0  0  0  0
   -6.3436   -3.1932   -0.8476 H   0  0  0  0  0  0  0  0  0  0  0  0
   -5.1385   -4.4983   -0.8610 H   0  0  0  0  0  0  0  0  0  0  0  0
   -5.5130   -3.6138   -2.3486 H   0  0  0  0  0  0  0  0  0  0  0  0
   -4.5749   -1.5333   -1.3769 H   0  0  0  0  0  0  0  0  0  0  0  0
   -3.3782   -2.8125   -1.5053 H   0  0  0  0  0  0  0  0  0  0  0  0
   -3.7801   -3.4130    0.9010 H   0  0  0  0  0  0  0  0  0  0  0  0
   -4.8138   -1.6954    2.4109 H   0  0  0  0  0  0  0  0  0  0  0  0
   -5.4796   -0.8807    0.9891 H   0  0  0  0  0  0  0  0  0  0  0  0
   -5.9649   -2.5355    1.3675 H   0  0  0  0  0  0  0  0  0  0  0  0
   -1.7918   -3.3550    1.5518 H   0  0  0  0  0  0  0  0  0  0  0  0
   -2.0825    5.0692   -0.7915 H   0  0  0  0  0  0  0  0  0  0  0  0
   -0.6791    7.1086   -0.8391 H   0  0  0  0  0  0  0  0  0  0  0  0
    1.6649    7.0094   -0.0102 H   0  0  0  0  0  0  0  0  0  0  0  0
    2.5695    4.8734    0.8526 H   0  0  0  0  0  0  0  0  0  0  0  0
    1.8347   -0.9078    2.6944 H   0  0  0  0  0  0  0  0  0  0  0  0
    2.4996    0.6990    2.4588 H   0  0  0  0  0  0  0  0  0  0  0  0
    2.3004   -2.7295    1.0642 H   0  0  0  0  0  0  0  0  0  0  0  0
    3.7760   -3.5778   -0.7193 H   0  0  0  0  0  0  0  0  0  0  0  0
    5.6239   -0.6731   -3.4959 H   0  0  0  0  0  0  0  0  0  0  0  0
    6.9629   -0.9192   -2.3073 H   0  0  0  0  0  0  0  0  0  0  0  0
    6.7384   -2.0353   -3.6595 H   0  0  0  0  0  0  0  0  0  0  0  0
    5.2190    0.4216   -1.4217 H   0  0  0  0  0  0  0  0  0  0  0  0
    3.7645    1.2625    0.3429 H   0  0  0  0  0  0  0  0  0  0  0  0
  1  2  1  0
  2  3  1  0
  3  4  1  0
  3  5  1  0
  5  6  1  0
  6  7  2  0
  7  8  1  0
  8  9  2  0
  9 10  1  0
 10 11  2  0
  9 12  1  0
 12 13  2  0
 13 14  1  0
 14 15  2  0
 15 16  1  0
 16 17  2  0
 17 18  1  0
 18 19  2  0
 19 20  1  0
 20 21  2  0
 21 22  1  0
 22 23  1  0
 23 24  1  0
 24 25  2  0
 25 26  1  0
 26 27  2  0
 27 28  1  0
 28 29  1  0
 27 30  1  0
 30 31  2  0
 10  5  1  0
 21 12  1  0
 31 24  1  0
 22  8  1  0
 19 14  1  0
  1 32  1  0
  1 33  1  0
  1 34  1  0
  2 35  1  0
  2 36  1  0
  3 37  1  0
  4 38  1  0
  4 39  1  0
  4 40  1  0
  6 41  1  0
 15 42  1  0
 16 43  1  0
 17 44  1  0
 18 45  1  0
 23 46  1  0
 23 47  1  0
 25 48  1  0
 26 49  1  0
 29 50  1  0
 29 51  1  0
 29 52  1  0
 30 53  1  0
 31 54  1  0
M  END
$$$$
