
     RDKit          3D

 43 45  0  0  0  0  0  0  0  0999 V2000
   -0.2770   -2.9369   -2.4356 C   0  0  0  0  0  0  0  0  0  0  0  0
   -0.4539   -1.4481   -2.5807 C   0  0  0  0  0  0  0  0  0  0  0  0
   -1.3381   -0.9701   -3.2909 O   0  0  0  0  0  0  0  0  0  0  0  0
    0.4827   -0.5768   -1.8299 C   0  0  0  0  0  0  0  0  0  0  0  0
    0.1056   -0.0844   -0.6282 C   0  0  0  0  0  0  0  0  0  0  0  0
   -1.1220   -0.2914   -0.0066 N   0  0  0  0  0  0  0  0  0  0  0  0
   -1.2918   -1.3850    0.9758 C   0  0  0  0  0  0  0  0  0  0  0  0
   -2.6822   -1.3305    1.6422 C   0  0  0  0  0  0  0  0  0  0  0  0
   -3.7949   -1.4811    0.6825 N   0  0  0  0  0  0  0  0  0  0  0  0
   -5.0426   -0.9828    1.2544 C   0  0  0  0  0  0  0  0  0  0  0  0
   -3.4900   -0.8402   -0.6179 C   0  0  0  0  0  0  0  0  0  0  0  0
   -2.3861    0.2389   -0.5733 C   0  0  0  0  0  0  0  0  0  0  0  0
    1.0189    0.6664    0.0640 N   0  0  0  0  0  0  0  0  0  0  0  0
    2.2803    0.9290   -0.3910 C   0  0  0  0  0  0  0  0  0  0  0  0
    3.2140    1.7588    0.4343 C   0  0  0  0  0  0  0  0  0  0  0  0
    2.7314    2.6679    1.3845 C   0  0  0  0  0  0  0  0  0  0  0  0
    3.6257    3.4249    2.1464 C   0  0  0  0  0  0  0  0  0  0  0  0
    5.0003    3.2815    1.9606 C   0  0  0  0  0  0  0  0  0  0  0  0
    5.4859    2.3872    1.0082 C   0  0  0  0  0  0  0  0  0  0  0  0
    4.5962    1.6297    0.2442 C   0  0  0  0  0  0  0  0  0  0  0  0
    2.7085    0.4677   -1.5280 N   0  0  0  0  0  0  0  0  0  0  0  0
    1.8741   -0.2925   -2.3302 C   0  0  0  0  0  0  0  0  0  0  0  0
    2.4629   -0.8754   -3.8101 S   0  0  0  0  0  0  0  0  0  0  0  0
   -1.1989   -3.3696   -2.0382 H   0  0  0  0  0  0  0  0  0  0  0  0
    0.5394   -3.1729   -1.7471 H   0  0  0  0  0  0  0  0  0  0  0  0
   -0.0503   -3.3720   -3.4122 H   0  0  0  0  0  0  0  0  0  0  0  0
   -0.5220   -1.2996    1.7519 H   0  0  0  0  0  0  0  0  0  0  0  0
   -1.1552   -2.3528    0.4784 H   0  0  0  0  0  0  0  0  0  0  0  0
   -2.7638   -0.3748    2.1782 H   0  0  0  0  0  0  0  0  0  0  0  0
   -2.7512   -2.1285    2.3904 H   0  0  0  0  0  0  0  0  0  0  0  0
   -5.8833   -1.1938    0.5842 H   0  0  0  0  0  0  0  0  0  0  0  0
   -5.2617   -1.4891    2.2010 H   0  0  0  0  0  0  0  0  0  0  0  0
   -5.0101    0.0970    1.4385 H   0  0  0  0  0  0  0  0  0  0  0  0
   -4.3932   -0.4189   -1.0765 H   0  0  0  0  0  0  0  0  0  0  0  0
   -3.1633   -1.6417   -1.2912 H   0  0  0  0  0  0  0  0  0  0  0  0
   -2.2314    0.6562   -1.5739 H   0  0  0  0  0  0  0  0  0  0  0  0
   -2.7168    1.0737    0.0573 H   0  0  0  0  0  0  0  0  0  0  0  0
    0.6970    0.9746    0.9697 H   0  0  0  0  0  0  0  0  0  0  0  0
    1.6675    2.8259    1.5283 H   0  0  0  0  0  0  0  0  0  0  0  0
    3.2507    4.1357    2.8789 H   0  0  0  0  0  0  0  0  0  0  0  0
    5.6944    3.8744    2.5514 H   0  0  0  0  0  0  0  0  0  0  0  0
    6.5571    2.2811    0.8553 H   0  0  0  0  0  0  0  0  0  0  0  0
    4.9875    0.9378   -0.4990 H   0  0  0  0  0  0  0  0  0  0  0  0
  1  2  1  0
  2  3  2  0
  2  4  1  0
  4  5  2  0
  5  6  1  0
  6  7  1  0
  7  8  1  0
  8  9  1  0
  9 10  1  0
  9 11  1  0
 11 12  1  0
  5 13  1  0
 13 14  1  0
 14 15  1  0
 15 16  2  0
 16 17  1  0
 17 18  2  0
 18 19  1  0
 19 20  2  0
 14 21  2  0
 21 22  1  0
 22 23  2  0
 22  4  1  0
 12  6  1  0
 20 15  1  0
  1 24  1  0
  1 25  1  0
  1 26  1  0
  7 27  1  0
  7 28  1  0
  8 29  1  0
  8 30  1  0
 10 31  1  0
 10 32  1  0
 10 33  1  0
 11 34  1  0
 11 35  1  0
 12 36  1  0
 12 37  1  0
 13 38  1  0
 16 39  1  0
 17 40  1  0
 18 41  1  0
 19 42  1  0
 20 43  1  0
M  END
$$$$
