
     RDKit          3D

 61 65  0  0  0  0  0  0  0  0999 V2000
   -6.7765    3.4800    1.6489 C   0  0  0  0  0  0  0  0  0  0  0  0
   -6.4621    2.0601    1.2818 C   0  0  0  0  0  0  0  0  0  0  0  0
   -5.3800    1.3982    1.8712 C   0  0  0  0  0  0  0  0  0  0  0  0
   -5.0689    0.0862    1.5078 C   0  0  0  0  0  0  0  0  0  0  0  0
   -5.8326   -0.5859    0.5437 C   0  0  0  0  0  0  0  0  0  0  0  0
   -5.4904   -1.9986    0.1449 C   0  0  0  0  0  0  0  0  0  0  0  0
   -4.6880   -2.0307   -1.0591 N   0  0  0  0  0  0  0  0  0  0  0  0
   -5.2590   -2.2346   -2.2738 N   0  0  0  0  0  0  0  0  0  0  0  0
   -4.2858   -2.2365   -3.1855 N   0  0  0  0  0  0  0  0  0  0  0  0
   -3.1122   -2.0526   -2.5229 C   0  0  0  0  0  0  0  0  0  0  0  0
   -1.7605   -1.9739   -3.0045 C   0  0  0  0  0  0  0  0  0  0  0  0
   -1.4034   -2.0619   -4.1750 O   0  0  0  0  0  0  0  0  0  0  0  0
   -0.8485   -1.7803   -1.9734 N   0  0  0  0  0  0  0  0  0  0  0  0
   -1.1953   -1.6805   -0.6295 C   0  0  0  0  0  0  0  0  0  0  0  0
   -0.0544   -1.4621    0.3521 C   0  0  0  0  0  0  0  0  0  0  0  0
    0.9267   -2.6469    0.3659 C   0  0  0  0  0  0  0  0  0  0  0  0
    2.3882   -2.2082    0.4547 C   0  0  0  0  0  0  0  0  0  0  0  0
    2.4970   -1.1167    1.4354 N   0  0  0  0  0  0  0  0  0  0  0  0
    3.9760   -0.9354    2.2600 S   0  0  0  0  0  6  0  0  0  0  0  0
    4.3566   -2.2548    2.7212 O   0  0  0  0  0  0  0  0  0  0  0  0
    3.7966    0.1452    3.2090 O   0  0  0  0  0  0  0  0  0  0  0  0
    5.1251   -0.4647    1.0454 C   0  0  0  0  0  0  0  0  0  0  0  0
    5.3528    0.8340    0.7974 C   0  0  0  0  0  0  0  0  0  0  0  0
    6.3075    1.3096   -0.2109 C   0  0  0  0  0  0  0  0  0  0  0  0
    7.5532    0.7001   -0.4035 C   0  0  0  0  0  0  0  0  0  0  0  0
    8.4485    1.2003   -1.3524 C   0  0  0  0  0  0  0  0  0  0  0  0
    8.1114    2.3195   -2.1104 C   0  0  0  0  0  0  0  0  0  0  0  0
    6.8819    2.9450   -1.9157 C   0  0  0  0  0  0  0  0  0  0  0  0
    5.9866    2.4474   -0.9657 C   0  0  0  0  0  0  0  0  0  0  0  0
    1.7551    0.1221    1.1093 C   0  0  0  0  0  0  0  0  0  0  0  0
    0.6580   -0.1354    0.0770 C   0  0  0  0  0  0  0  0  0  0  0  0
   -2.4193   -1.7565   -0.1830 N   0  0  0  0  0  0  0  0  0  0  0  0
   -3.3304   -1.9354   -1.1710 C   0  0  0  0  0  0  0  0  0  0  0  0
   -6.9009    0.0874   -0.0632 C   0  0  0  0  0  0  0  0  0  0  0  0
   -7.2104    1.3995    0.3012 C   0  0  0  0  0  0  0  0  0  0  0  0
   -6.2491    4.1653    0.9788 H   0  0  0  0  0  0  0  0  0  0  0  0
   -7.8524    3.6713    1.5788 H   0  0  0  0  0  0  0  0  0  0  0  0
   -6.4762    3.6931    2.6795 H   0  0  0  0  0  0  0  0  0  0  0  0
   -4.7705    1.9015    2.6183 H   0  0  0  0  0  0  0  0  0  0  0  0
   -4.2192   -0.4056    1.9777 H   0  0  0  0  0  0  0  0  0  0  0  0
   -4.9320   -2.5098    0.9376 H   0  0  0  0  0  0  0  0  0  0  0  0
   -6.4007   -2.5830   -0.0316 H   0  0  0  0  0  0  0  0  0  0  0  0
    0.1120   -1.7218   -2.2760 H   0  0  0  0  0  0  0  0  0  0  0  0
   -0.5058   -1.3928    1.3525 H   0  0  0  0  0  0  0  0  0  0  0  0
    0.6894   -3.2700    1.2387 H   0  0  0  0  0  0  0  0  0  0  0  0
    0.8023   -3.3028   -0.5037 H   0  0  0  0  0  0  0  0  0  0  0  0
    2.7503   -1.8676   -0.5219 H   0  0  0  0  0  0  0  0  0  0  0  0
    2.9929   -3.0730    0.7444 H   0  0  0  0  0  0  0  0  0  0  0  0
    5.6292   -1.2686    0.5292 H   0  0  0  0  0  0  0  0  0  0  0  0
    4.8221    1.6087    1.3484 H   0  0  0  0  0  0  0  0  0  0  0  0
    7.8521   -0.1580    0.1925 H   0  0  0  0  0  0  0  0  0  0  0  0
    9.4136    0.7223   -1.4912 H   0  0  0  0  0  0  0  0  0  0  0  0
    8.8100    2.7110   -2.8453 H   0  0  0  0  0  0  0  0  0  0  0  0
    6.6217    3.8252   -2.4994 H   0  0  0  0  0  0  0  0  0  0  0  0
    5.0355    2.9555   -0.8265 H   0  0  0  0  0  0  0  0  0  0  0  0
    1.2966    0.4952    2.0324 H   0  0  0  0  0  0  0  0  0  0  0  0
    2.4248    0.8969    0.7254 H   0  0  0  0  0  0  0  0  0  0  0  0
   -0.0565    0.6969    0.0828 H   0  0  0  0  0  0  0  0  0  0  0  0
    1.1019   -0.1424   -0.9268 H   0  0  0  0  0  0  0  0  0  0  0  0
   -7.4949   -0.4025   -0.8332 H   0  0  0  0  0  0  0  0  0  0  0  0
   -8.0399    1.9041   -0.1892 H   0  0  0  0  0  0  0  0  0  0  0  0
  1  2  1  0
  2  3  2  0
  3  4  1  0
  4  5  2  0
  5  6  1  0
  6  7  1  0
  7  8  1  0
  8  9  2  0
  9 10  1  0
 10 11  1  0
 11 12  2  0
 11 13  1  0
 13 14  1  0
 14 15  1  0
 15 16  1  0
 16 17  1  0
 17 18  1  0
 18 19  1  0
 19 20  2  0
 19 21  2  0
 19 22  1  0
 22 23  2  3
 23 24  1  0
 24 25  2  0
 25 26  1  0
 26 27  2  0
 27 28  1  0
 28 29  2  0
 18 30  1  0
 30 31  1  0
 14 32  2  0
 32 33  1  0
  5 34  1  0
 34 35  2  0
 35  2  1  0
 33  7  1  0
 33 10  2  0
 31 15  1  0
 29 24  1  0
  1 36  1  0
  1 37  1  0
  1 38  1  0
  3 39  1  0
  4 40  1  0
  6 41  1  0
  6 42  1  0
 13 43  1  0
 15 44  1  0
 16 45  1  0
 16 46  1  0
 17 47  1  0
 17 48  1  0
 22 49  1  0
 23 50  1  0
 25 51  1  0
 26 52  1  0
 27 53  1  0
 28 54  1  0
 29 55  1  0
 30 56  1  0
 30 57  1  0
 31 58  1  0
 31 59  1  0
 34 60  1  0
 35 61  1  0
M  END
$$$$
