
     RDKit          3D

 47 49  0  0  0  0  0  0  0  0999 V2000
    2.1138   -2.0973   -0.8576 O   0  0  0  0  0  0  0  0  0  0  0  0
    1.7770   -0.9189   -0.8747 C   0  0  0  0  0  0  0  0  0  0  0  0
    0.3364   -0.4622   -0.8651 C   0  0  0  0  0  0  0  0  0  0  0  0
   -0.6123   -1.6551   -0.7842 C   0  0  0  0  0  0  0  0  0  0  0  0
   -2.0164   -1.2330   -0.7728 N   0  0  0  0  0  0  0  0  0  0  0  0
   -2.5872   -0.8694    0.4349 C   0  0  0  0  0  0  0  0  0  0  0  0
   -2.0180   -0.8390    1.5176 O   0  0  0  0  0  0  0  0  0  0  0  0
   -4.0072   -0.4769    0.2386 C   0  0  0  0  0  0  0  0  0  0  0  0
   -4.7805   -0.0993    1.2657 C   0  0  0  0  0  0  0  0  0  0  0  0
   -6.1828    0.3215    1.1832 C   0  0  0  0  0  0  0  0  0  0  0  0
   -6.5259    1.6318    1.5433 C   0  0  0  0  0  0  0  0  0  0  0  0
   -7.8571    2.0499    1.4881 C   0  0  0  0  0  0  0  0  0  0  0  0
   -8.8403    1.1560    1.0809 C   0  0  0  0  0  0  0  0  0  0  0  0
  -10.1167    1.5581    1.0294 F   0  0  0  0  0  0  0  0  0  0  0  0
   -8.5190   -0.1498    0.7306 C   0  0  0  0  0  0  0  0  0  0  0  0
   -7.1886   -0.5703    0.7853 C   0  0  0  0  0  0  0  0  0  0  0  0
   -4.4166   -0.5581   -1.4261 S   0  0  0  0  0  0  0  0  0  0  0  0
   -2.8091   -1.0996   -1.8941 C   0  0  0  0  0  0  0  0  0  0  0  0
   -2.3960   -1.3728   -3.4865 S   0  0  0  0  0  0  0  0  0  0  0  0
    2.6763    0.1249   -0.9083 N   0  0  0  0  0  0  0  0  0  0  0  0
    4.1077   -0.1018   -0.9080 C   0  0  0  0  0  0  0  0  0  0  0  0
    4.6313   -0.3867    0.4990 C   0  0  0  0  0  0  0  0  0  0  0  0
    6.1158   -0.7451    0.5100 C   0  0  0  0  0  0  0  0  0  0  0  0
    6.9732    0.3456    0.0970 N   0  0  0  0  0  0  0  0  0  0  0  0
    7.6050    0.4698   -1.1078 C   0  0  0  0  0  0  0  0  0  0  0  0
    8.2877    1.6613   -1.0267 C   0  0  0  0  0  0  0  0  0  0  0  0
    8.0893    2.2532    0.1940 N   0  0  0  0  0  0  0  0  0  0  0  0
    7.3057    1.4315    0.8549 C   0  0  0  0  0  0  0  0  0  0  0  0
    0.1481    0.1168   -1.7762 H   0  0  0  0  0  0  0  0  0  0  0  0
    0.1858    0.2031   -0.0070 H   0  0  0  0  0  0  0  0  0  0  0  0
   -0.4392   -2.3429   -1.6186 H   0  0  0  0  0  0  0  0  0  0  0  0
   -0.4146   -2.2225    0.1342 H   0  0  0  0  0  0  0  0  0  0  0  0
   -4.3609   -0.0700    2.2709 H   0  0  0  0  0  0  0  0  0  0  0  0
   -5.7616    2.3364    1.8636 H   0  0  0  0  0  0  0  0  0  0  0  0
   -8.1325    3.0639    1.7600 H   0  0  0  0  0  0  0  0  0  0  0  0
   -9.3040   -0.8316    0.4196 H   0  0  0  0  0  0  0  0  0  0  0  0
   -6.9469   -1.5964    0.5174 H   0  0  0  0  0  0  0  0  0  0  0  0
    2.3388    1.0784   -0.8541 H   0  0  0  0  0  0  0  0  0  0  0  0
    4.5689    0.7987   -1.3253 H   0  0  0  0  0  0  0  0  0  0  0  0
    4.3282   -0.9421   -1.5759 H   0  0  0  0  0  0  0  0  0  0  0  0
    4.0729   -1.2223    0.9386 H   0  0  0  0  0  0  0  0  0  0  0  0
    4.4421    0.4823    1.1417 H   0  0  0  0  0  0  0  0  0  0  0  0
    6.3160   -1.6017   -0.1439 H   0  0  0  0  0  0  0  0  0  0  0  0
    6.4261   -1.0273    1.5230 H   0  0  0  0  0  0  0  0  0  0  0  0
    7.5239   -0.2657   -1.8959 H   0  0  0  0  0  0  0  0  0  0  0  0
    8.9124    2.1231   -1.7804 H   0  0  0  0  0  0  0  0  0  0  0  0
    6.9512    1.5773    1.8672 H   0  0  0  0  0  0  0  0  0  0  0  0
  1  2  2  0
  2  3  1  0
  3  4  1  0
  4  5  1  0
  5  6  1  0
  6  7  2  0
  6  8  1  0
  8  9  2  3
  9 10  1  0
 10 11  2  0
 11 12  1  0
 12 13  2  0
 13 14  1  0
 13 15  1  0
 15 16  2  0
  8 17  1  0
 17 18  1  0
 18 19  2  0
  2 20  1  0
 20 21  1  0
 21 22  1  0
 22 23  1  0
 23 24  1  0
 24 25  1  0
 25 26  2  0
 26 27  1  0
 27 28  2  0
 18  5  1  0
 28 24  1  0
 16 10  1  0
  3 29  1  0
  3 30  1  0
  4 31  1  0
  4 32  1  0
  9 33  1  0
 11 34  1  0
 12 35  1  0
 15 36  1  0
 16 37  1  0
 20 38  1  0
 21 39  1  0
 21 40  1  0
 22 41  1  0
 22 42  1  0
 23 43  1  0
 23 44  1  0
 25 45  1  0
 26 46  1  0
 28 47  1  0
M  END
$$$$
