
     RDKit          3D

 53 56  0  0  0  0  0  0  0  0999 V2000
   -6.0173    2.3377    1.5019 C   0  0  0  0  0  0  0  0  0  0  0  0
   -4.5719    2.1930    1.0477 C   0  0  0  0  0  0  0  0  0  0  0  0
   -4.0010    0.7720    1.2401 C   0  0  0  0  0  0  0  0  0  0  0  0
   -4.7560   -0.2580    0.3649 C   0  0  0  0  0  0  0  0  0  0  0  0
   -4.1950   -1.6633    0.4324 C   0  0  0  0  0  0  0  0  0  0  0  0
   -3.7415   -2.2996   -0.7321 C   0  0  0  0  0  0  0  0  0  0  0  0
   -3.2154   -3.5912   -0.6750 C   0  0  0  0  0  0  0  0  0  0  0  0
   -3.1424   -4.2619    0.5438 C   0  0  0  0  0  0  0  0  0  0  0  0
   -3.6002   -3.6441    1.7055 C   0  0  0  0  0  0  0  0  0  0  0  0
   -4.1276   -2.3530    1.6508 C   0  0  0  0  0  0  0  0  0  0  0  0
   -2.5659    0.7671    0.9329 N   0  0  0  0  0  0  0  0  0  0  0  0
   -1.6406    1.2798    1.8208 C   0  0  0  0  0  0  0  0  0  0  0  0
   -1.9402    1.8513    2.8626 O   0  0  0  0  0  0  0  0  0  0  0  0
   -0.2072    1.0642    1.4738 C   0  0  0  0  0  0  0  0  0  0  0  0
    0.7236    1.0159    2.5149 C   0  0  0  0  0  0  0  0  0  0  0  0
    2.0831    0.8161    2.2477 C   0  0  0  0  0  0  0  0  0  0  0  0
    2.5198    0.6724    0.9160 C   0  0  0  0  0  0  0  0  0  0  0  0
    3.8240    0.4708    0.5082 N   0  0  0  0  0  0  0  0  0  0  0  0
    3.9139    0.3868   -0.8016 C   0  0  0  0  0  0  0  0  0  0  0  0
    5.0942    0.1870   -1.4524 N   0  0  0  0  0  0  0  0  0  0  0  0
    6.3531    0.2619   -0.6993 C   0  0  0  0  0  0  0  0  0  0  0  0
    7.4204    0.9885   -1.5333 C   0  0  0  0  0  0  0  0  0  0  0  0
    7.6951    0.3726   -2.8010 O   0  0  0  0  0  0  0  0  0  0  0  0
    6.5915   -0.3821   -3.3196 C   0  0  0  0  0  0  0  0  0  0  0  0
    5.2161    0.1710   -2.9115 C   0  0  0  0  0  0  0  0  0  0  0  0
    2.3907    0.5495   -1.6106 S   0  0  0  0  0  0  0  0  0  0  0  0
    1.5808    0.7396   -0.1091 C   0  0  0  0  0  0  0  0  0  0  0  0
    0.2107    0.9386    0.1396 C   0  0  0  0  0  0  0  0  0  0  0  0
   -6.6991    1.7649    0.8669 H   0  0  0  0  0  0  0  0  0  0  0  0
   -6.3232    3.3876    1.4475 H   0  0  0  0  0  0  0  0  0  0  0  0
   -6.1396    2.0029    2.5367 H   0  0  0  0  0  0  0  0  0  0  0  0
   -4.4906    2.4890   -0.0057 H   0  0  0  0  0  0  0  0  0  0  0  0
   -3.9695    2.9153    1.6113 H   0  0  0  0  0  0  0  0  0  0  0  0
   -4.1021    0.4953    2.2974 H   0  0  0  0  0  0  0  0  0  0  0  0
   -5.8101   -0.3129    0.6613 H   0  0  0  0  0  0  0  0  0  0  0  0
   -4.7451    0.0846   -0.6783 H   0  0  0  0  0  0  0  0  0  0  0  0
   -3.7959   -1.7960   -1.6948 H   0  0  0  0  0  0  0  0  0  0  0  0
   -2.8658   -4.0766   -1.5825 H   0  0  0  0  0  0  0  0  0  0  0  0
   -2.7336   -5.2680    0.5883 H   0  0  0  0  0  0  0  0  0  0  0  0
   -3.5481   -4.1684    2.6564 H   0  0  0  0  0  0  0  0  0  0  0  0
   -4.4830   -1.8907    2.5692 H   0  0  0  0  0  0  0  0  0  0  0  0
   -2.2403    0.0570    0.2888 H   0  0  0  0  0  0  0  0  0  0  0  0
    0.3953    1.1307    3.5469 H   0  0  0  0  0  0  0  0  0  0  0  0
    2.8054    0.7734    3.0572 H   0  0  0  0  0  0  0  0  0  0  0  0
    6.2402    0.7948    0.2518 H   0  0  0  0  0  0  0  0  0  0  0  0
    6.6853   -0.7592   -0.4779 H   0  0  0  0  0  0  0  0  0  0  0  0
    8.3639    1.0350   -0.9803 H   0  0  0  0  0  0  0  0  0  0  0  0
    7.1069    2.0203   -1.7314 H   0  0  0  0  0  0  0  0  0  0  0  0
    6.6843   -0.3922   -4.4103 H   0  0  0  0  0  0  0  0  0  0  0  0
    6.7044   -1.4164   -2.9733 H   0  0  0  0  0  0  0  0  0  0  0  0
    5.1049    1.1929   -3.2935 H   0  0  0  0  0  0  0  0  0  0  0  0
    4.4468   -0.4626   -3.3664 H   0  0  0  0  0  0  0  0  0  0  0  0
   -0.4860    1.0167   -0.6881 H   0  0  0  0  0  0  0  0  0  0  0  0
  1  2  1  0
  2  3  1  0
  3  4  1  0
  4  5  1  0
  5  6  2  0
  6  7  1  0
  7  8  2  0
  8  9  1  0
  9 10  2  0
  3 11  1  0
 11 12  1  0
 12 13  2  0
 12 14  1  0
 14 15  2  0
 15 16  1  0
 16 17  2  0
 17 18  1  0
 18 19  2  0
 19 20  1  0
 20 21  1  0
 21 22  1  0
 22 23  1  0
 23 24  1  0
 24 25  1  0
 19 26  1  0
 26 27  1  0
 27 28  2  0
 10  5  1  0
 28 14  1  0
 27 17  1  0
 25 20  1  0
  1 29  1  0
  1 30  1  0
  1 31  1  0
  2 32  1  0
  2 33  1  0
  3 34  1  0
  4 35  1  0
  4 36  1  0
  6 37  1  0
  7 38  1  0
  8 39  1  0
  9 40  1  0
 10 41  1  0
 11 42  1  0
 15 43  1  0
 16 44  1  0
 21 45  1  0
 21 46  1  0
 22 47  1  0
 22 48  1  0
 24 49  1  0
 24 50  1  0
 25 51  1  0
 25 52  1  0
 28 53  1  0
M  END
$$$$
