
     RDKit          3D

 63 66  0  0  0  0  0  0  0  0999 V2000
    6.1822    0.4917    1.4053 C   0  0  0  0  0  0  0  0  0  0  0  0
    6.3154    0.3648   -0.1175 C   0  0  0  0  0  0  0  0  0  0  0  0
    5.7829   -0.9884   -0.6305 C   0  0  0  0  0  0  0  0  0  0  0  0
    4.3737   -1.2013   -0.3508 N   0  0  0  0  0  0  0  0  0  0  0  0
    3.3927   -0.5725   -1.0879 C   0  0  0  0  0  0  0  0  0  0  0  0
    3.6332    0.1920   -2.0146 O   0  0  0  0  0  0  0  0  0  0  0  0
    1.9843   -0.8341   -0.6833 C   0  0  0  0  0  0  0  0  0  0  0  0
    1.5949   -2.0252   -0.0638 C   0  0  0  0  0  0  0  0  0  0  0  0
    0.2530   -2.2250    0.2749 C   0  0  0  0  0  0  0  0  0  0  0  0
   -0.7123   -1.2554   -0.0137 C   0  0  0  0  0  0  0  0  0  0  0  0
   -1.9817   -1.5858    0.3671 O   0  0  0  0  0  0  0  0  0  0  0  0
   -3.0834   -0.8865   -0.2321 C   0  0  0  0  0  0  0  0  0  0  0  0
   -3.5224    0.2544    0.6926 C   0  0  0  0  0  0  0  0  0  0  0  0
   -5.0116    0.5386    0.5292 C   0  0  0  0  0  0  0  0  0  0  0  0
   -5.8400   -0.6074    0.9477 N   0  0  0  0  0  0  0  0  0  0  0  0
   -7.1781   -0.5550    0.3164 C   0  0  0  0  0  0  0  0  0  0  0  0
   -7.9897    0.6838    0.6634 C   0  0  0  0  0  0  0  0  0  0  0  0
   -8.3309    0.9525    1.9899 C   0  0  0  0  0  0  0  0  0  0  0  0
   -9.0783    2.0917    2.2774 C   0  0  0  0  0  0  0  0  0  0  0  0
   -9.4640    2.9306    1.2404 C   0  0  0  0  0  0  0  0  0  0  0  0
   -9.0822    2.5948   -0.0482 C   0  0  0  0  0  0  0  0  0  0  0  0
   -8.3578    1.4963   -0.3606 N   0  0  0  0  0  0  0  0  0  0  0  0
   -5.1900   -1.9080    0.7222 C   0  0  0  0  0  0  0  0  0  0  0  0
   -4.2131   -1.9049   -0.4507 C   0  0  0  0  0  0  0  0  0  0  0  0
   -0.3216   -0.0656   -0.6241 C   0  0  0  0  0  0  0  0  0  0  0  0
    1.0202    0.1404   -0.9651 C   0  0  0  0  0  0  0  0  0  0  0  0
    7.7488    0.5725   -0.5847 C   0  0  0  0  0  0  0  0  0  0  0  0
    8.0082    1.4712   -1.6342 C   0  0  0  0  0  0  0  0  0  0  0  0
    9.3097    1.6694   -2.1020 C   0  0  0  0  0  0  0  0  0  0  0  0
   10.3690    0.9687   -1.5299 C   0  0  0  0  0  0  0  0  0  0  0  0
   10.1269    0.0679   -0.4927 C   0  0  0  0  0  0  0  0  0  0  0  0
    8.8253   -0.1328   -0.0244 C   0  0  0  0  0  0  0  0  0  0  0  0
    6.6698   -0.3341    1.9325 H   0  0  0  0  0  0  0  0  0  0  0  0
    6.6292    1.4274    1.7595 H   0  0  0  0  0  0  0  0  0  0  0  0
    5.1289    0.4968    1.7032 H   0  0  0  0  0  0  0  0  0  0  0  0
    5.7000    1.1678   -0.5442 H   0  0  0  0  0  0  0  0  0  0  0  0
    5.9217   -1.0590   -1.7175 H   0  0  0  0  0  0  0  0  0  0  0  0
    6.3272   -1.8249   -0.1756 H   0  0  0  0  0  0  0  0  0  0  0  0
    4.1283   -1.6526    0.5201 H   0  0  0  0  0  0  0  0  0  0  0  0
    2.3069   -2.8202    0.1332 H   0  0  0  0  0  0  0  0  0  0  0  0
   -0.0491   -3.1550    0.7520 H   0  0  0  0  0  0  0  0  0  0  0  0
   -2.8162   -0.5069   -1.2265 H   0  0  0  0  0  0  0  0  0  0  0  0
   -2.9485    1.1591    0.4632 H   0  0  0  0  0  0  0  0  0  0  0  0
   -3.2929    0.0165    1.7400 H   0  0  0  0  0  0  0  0  0  0  0  0
   -5.2733    1.4132    1.1367 H   0  0  0  0  0  0  0  0  0  0  0  0
   -5.1981    0.8041   -0.5211 H   0  0  0  0  0  0  0  0  0  0  0  0
   -7.0889   -0.6357   -0.7754 H   0  0  0  0  0  0  0  0  0  0  0  0
   -7.7752   -1.4160    0.6467 H   0  0  0  0  0  0  0  0  0  0  0  0
   -8.0086    0.2881    2.7854 H   0  0  0  0  0  0  0  0  0  0  0  0
   -9.3511    2.3220    3.3028 H   0  0  0  0  0  0  0  0  0  0  0  0
  -10.0450    3.8268    1.4316 H   0  0  0  0  0  0  0  0  0  0  0  0
   -9.3568    3.2209   -0.8903 H   0  0  0  0  0  0  0  0  0  0  0  0
   -4.6450   -2.1736    1.6376 H   0  0  0  0  0  0  0  0  0  0  0  0
   -5.9284   -2.7075    0.5853 H   0  0  0  0  0  0  0  0  0  0  0  0
   -3.8042   -2.9122   -0.5920 H   0  0  0  0  0  0  0  0  0  0  0  0
   -4.7618   -1.6497   -1.3667 H   0  0  0  0  0  0  0  0  0  0  0  0
   -1.0286    0.7263   -0.8457 H   0  0  0  0  0  0  0  0  0  0  0  0
    1.3127    1.0684   -1.4525 H   0  0  0  0  0  0  0  0  0  0  0  0
    7.1909    2.0205   -2.1009 H   0  0  0  0  0  0  0  0  0  0  0  0
    9.4945    2.3681   -2.9162 H   0  0  0  0  0  0  0  0  0  0  0  0
   11.3815    1.1212   -1.8954 H   0  0  0  0  0  0  0  0  0  0  0  0
   10.9531   -0.4826   -0.0493 H   0  0  0  0  0  0  0  0  0  0  0  0
    8.6641   -0.8504    0.7786 H   0  0  0  0  0  0  0  0  0  0  0  0
  1  2  1  0
  2  3  1  0
  3  4  1  0
  4  5  1  0
  5  6  2  0
  5  7  1  0
  7  8  2  0
  8  9  1  0
  9 10  2  0
 10 11  1  0
 11 12  1  0
 12 13  1  0
 13 14  1  0
 14 15  1  0
 15 16  1  0
 16 17  1  0
 17 18  2  0
 18 19  1  0
 19 20  2  0
 20 21  1  0
 21 22  2  0
 15 23  1  0
 23 24  1  0
 10 25  1  0
 25 26  2  0
  2 27  1  0
 27 28  2  0
 28 29  1  0
 29 30  2  0
 30 31  1  0
 31 32  2  0
 26  7  1  0
 32 27  1  0
 24 12  1  0
 22 17  1  0
  1 33  1  0
  1 34  1  0
  1 35  1  0
  2 36  1  0
  3 37  1  0
  3 38  1  0
  4 39  1  0
  8 40  1  0
  9 41  1  0
 12 42  1  0
 13 43  1  0
 13 44  1  0
 14 45  1  0
 14 46  1  0
 16 47  1  0
 16 48  1  0
 18 49  1  0
 19 50  1  0
 20 51  1  0
 21 52  1  0
 23 53  1  0
 23 54  1  0
 24 55  1  0
 24 56  1  0
 25 57  1  0
 26 58  1  0
 28 59  1  0
 29 60  1  0
 30 61  1  0
 31 62  1  0
 32 63  1  0
M  END
$$$$
