
     RDKit          3D

 62 65  0  0  0  0  0  0  0  0999 V2000
    0.1261    1.5425   -2.9001 C   0  0  0  0  0  0  0  0  0  0  0  0
    0.3265    1.3408   -1.5076 O   0  0  0  0  0  0  0  0  0  0  0  0
    1.1458    0.3016   -1.1363 C   0  0  0  0  0  0  0  0  0  0  0  0
    2.0055   -0.3781   -2.0044 C   0  0  0  0  0  0  0  0  0  0  0  0
    2.8092   -1.4129   -1.5230 C   0  0  0  0  0  0  0  0  0  0  0  0
    2.7526   -1.7633   -0.1712 C   0  0  0  0  0  0  0  0  0  0  0  0
    3.7615   -3.1026    0.4333 S   0  0  0  0  0  6  0  0  0  0  0  0
    3.0343   -3.7580    1.4976 O   0  0  0  0  0  0  0  0  0  0  0  0
    4.2217   -3.8427   -0.7234 O   0  0  0  0  0  0  0  0  0  0  0  0
    5.1006   -2.3186    1.1057 N   0  0  0  0  0  0  0  0  0  0  0  0
    6.0260   -1.5931    0.1927 C   0  0  0  0  0  0  0  0  0  0  0  0
    6.0528   -0.0991    0.5325 C   0  0  0  0  0  0  0  0  0  0  0  0
    6.4983    0.1729    1.8666 O   0  0  0  0  0  0  0  0  0  0  0  0
    6.1941   -0.8786    2.7967 C   0  0  0  0  0  0  0  0  0  0  0  0
    4.9269   -1.6615    2.4318 C   0  0  0  0  0  0  0  0  0  0  0  0
    1.8772   -1.1095    0.7006 C   0  0  0  0  0  0  0  0  0  0  0  0
    1.0925   -0.0548    0.2305 C   0  0  0  0  0  0  0  0  0  0  0  0
    0.2201    0.6929    1.0529 N   0  0  0  0  0  0  0  0  0  0  0  0
    0.0316    0.5917    2.4162 C   0  0  0  0  0  0  0  0  0  0  0  0
    0.6436   -0.1567    3.1753 O   0  0  0  0  0  0  0  0  0  0  0  0
   -1.0235    1.5616    2.9603 C   0  0  0  0  0  0  0  0  0  0  0  0
   -2.3596    1.2611    2.5503 O   0  0  0  0  0  0  0  0  0  0  0  0
   -2.7189    1.7596    1.3371 C   0  0  0  0  0  0  0  0  0  0  0  0
   -1.9720    2.3959    0.6063 O   0  0  0  0  0  0  0  0  0  0  0  0
   -4.1630    1.4256    1.0473 C   0  0  0  0  0  0  0  0  0  0  0  0
   -4.5302    1.6575   -0.4181 C   0  0  0  0  0  0  0  0  0  0  0  0
   -6.0168    1.3664   -0.7212 C   0  0  0  0  0  0  0  0  0  0  0  0
   -5.9476    0.4558   -1.9615 C   0  0  0  0  0  0  0  0  0  0  0  0
   -5.4746   -0.9404   -1.5211 C   0  0  0  0  0  0  0  0  0  0  0  0
   -3.9883   -0.7169   -1.2081 C   0  0  0  0  0  0  0  0  0  0  0  0
   -3.8003    0.7865   -1.4733 C   0  0  0  0  0  0  0  0  0  0  0  0
   -4.7132    0.9880   -2.6873 C   0  0  0  0  0  0  0  0  0  0  0  0
   -0.6631    2.2901   -3.0172 H   0  0  0  0  0  0  0  0  0  0  0  0
    1.0324    1.9353   -3.3712 H   0  0  0  0  0  0  0  0  0  0  0  0
   -0.2110    0.6253   -3.3959 H   0  0  0  0  0  0  0  0  0  0  0  0
    2.0762   -0.1227   -3.0566 H   0  0  0  0  0  0  0  0  0  0  0  0
    3.4676   -1.9427   -2.2087 H   0  0  0  0  0  0  0  0  0  0  0  0
    7.0241   -2.0280    0.3268 H   0  0  0  0  0  0  0  0  0  0  0  0
    5.7491   -1.7293   -0.8568 H   0  0  0  0  0  0  0  0  0  0  0  0
    6.7175    0.4313   -0.1546 H   0  0  0  0  0  0  0  0  0  0  0  0
    5.0561    0.3413    0.4148 H   0  0  0  0  0  0  0  0  0  0  0  0
    7.0626   -1.5473    2.8391 H   0  0  0  0  0  0  0  0  0  0  0  0
    6.0876   -0.4220    3.7857 H   0  0  0  0  0  0  0  0  0  0  0  0
    4.7426   -2.4282    3.1916 H   0  0  0  0  0  0  0  0  0  0  0  0
    4.0774   -0.9722    2.4031 H   0  0  0  0  0  0  0  0  0  0  0  0
    1.8216   -1.4375    1.7336 H   0  0  0  0  0  0  0  0  0  0  0  0
   -0.3066    1.4157    0.5534 H   0  0  0  0  0  0  0  0  0  0  0  0
   -0.7438    2.5934    2.7109 H   0  0  0  0  0  0  0  0  0  0  0  0
   -1.0050    1.4952    4.0539 H   0  0  0  0  0  0  0  0  0  0  0  0
   -4.3569    0.3897    1.3424 H   0  0  0  0  0  0  0  0  0  0  0  0
   -4.7798    2.0736    1.6817 H   0  0  0  0  0  0  0  0  0  0  0  0
   -4.3370    2.7134   -0.6565 H   0  0  0  0  0  0  0  0  0  0  0  0
   -6.5458    0.8906    0.1110 H   0  0  0  0  0  0  0  0  0  0  0  0
   -6.5353    2.3019   -0.9622 H   0  0  0  0  0  0  0  0  0  0  0  0
   -6.8701    0.4407   -2.5440 H   0  0  0  0  0  0  0  0  0  0  0  0
   -5.5845   -1.6649   -2.3367 H   0  0  0  0  0  0  0  0  0  0  0  0
   -6.0260   -1.3163   -0.6535 H   0  0  0  0  0  0  0  0  0  0  0  0
   -3.7240   -1.0227   -0.1939 H   0  0  0  0  0  0  0  0  0  0  0  0
   -3.3721   -1.3069   -1.8968 H   0  0  0  0  0  0  0  0  0  0  0  0
   -2.7598    1.0714   -1.6355 H   0  0  0  0  0  0  0  0  0  0  0  0
   -4.8085    2.0360   -2.9903 H   0  0  0  0  0  0  0  0  0  0  0  0
   -4.4245    0.3819   -3.5532 H   0  0  0  0  0  0  0  0  0  0  0  0
  1  2  1  0
  2  3  1  0
  3  4  2  0
  4  5  1  0
  5  6  2  0
  6  7  1  0
  7  8  2  0
  7  9  2  0
  7 10  1  0
 10 11  1  0
 11 12  1  0
 12 13  1  0
 13 14  1  0
 14 15  1  0
  6 16  1  0
 16 17  2  0
 17 18  1  0
 18 19  1  0
 19 20  2  0
 19 21  1  0
 21 22  1  0
 22 23  1  0
 23 24  2  0
 23 25  1  0
 25 26  1  0
 26 27  1  0
 27 28  1  0
 28 29  1  0
 29 30  1  0
 30 31  1  0
 31 32  1  0
 17  3  1  0
 31 26  1  0
 15 10  1  0
 32 28  1  0
  1 33  1  0
  1 34  1  0
  1 35  1  0
  4 36  1  0
  5 37  1  0
 11 38  1  0
 11 39  1  0
 12 40  1  0
 12 41  1  0
 14 42  1  0
 14 43  1  0
 15 44  1  0
 15 45  1  0
 16 46  1  0
 18 47  1  0
 21 48  1  0
 21 49  1  0
 25 50  1  0
 25 51  1  0
 26 52  1  0
 27 53  1  0
 27 54  1  0
 28 55  1  0
 29 56  1  0
 29 57  1  0
 30 58  1  0
 30 59  1  0
 31 60  1  0
 32 61  1  0
 32 62  1  0
M  END
$$$$
