
     RDKit          3D

 67 72  0  0  0  0  0  0  0  0999 V2000
   -2.5330    0.1912    2.8999 O   0  0  0  0  0  0  0  0  0  0  0  0
   -2.3237    0.3196    1.6906 C   0  0  0  0  0  0  0  0  0  0  0  0
   -3.4758    0.5515    0.6948 C   0  0  0  0  0  0  0  0  0  0  0  0
   -4.7118    1.1072    1.4258 C   0  0  0  0  0  0  0  0  0  0  0  0
   -5.9403    1.1779    0.5442 C   0  0  0  0  0  0  0  0  0  0  0  0
   -6.3218    2.3902   -0.0471 C   0  0  0  0  0  0  0  0  0  0  0  0
   -7.4405    2.4492   -0.8791 C   0  0  0  0  0  0  0  0  0  0  0  0
   -8.1881    1.2993   -1.1264 C   0  0  0  0  0  0  0  0  0  0  0  0
   -7.8185    0.0893   -0.5419 C   0  0  0  0  0  0  0  0  0  0  0  0
   -6.6991    0.0270    0.2895 C   0  0  0  0  0  0  0  0  0  0  0  0
   -3.0619    1.4617   -0.3689 N   0  0  0  0  0  0  0  0  0  0  0  0
   -1.8883    1.0453   -1.0015 C   0  0  0  0  0  0  0  0  0  0  0  0
   -1.8593    1.3060   -2.3163 N   0  0  0  0  0  0  0  0  0  0  0  0
   -0.7174    1.0254   -2.9363 C   0  0  0  0  0  0  0  0  0  0  0  0
    0.3917    0.5640   -2.3554 N   0  0  0  0  0  0  0  0  0  0  0  0
    0.3544    0.3221   -1.0250 C   0  0  0  0  0  0  0  0  0  0  0  0
    1.5951    0.0283   -0.4236 N   0  0  0  0  0  0  0  0  0  0  0  0
    2.2599    1.2948    0.0117 C   0  0  0  0  0  0  0  0  0  0  0  0
    3.5545    1.6146   -0.7725 C   0  0  0  0  0  0  0  0  0  0  0  0
    4.5090    0.4938   -0.6921 N   0  0  0  0  0  0  0  0  0  0  0  0
    5.8644    0.6652   -0.9283 C   0  0  0  0  0  0  0  0  0  0  0  0
    6.7985   -0.3204   -0.5658 C   0  0  0  0  0  0  0  0  0  0  0  0
    8.1719   -0.1613   -0.7879 C   0  0  0  0  0  0  0  0  0  0  0  0
    8.6509    1.0002   -1.3806 C   0  0  0  0  0  0  0  0  0  0  0  0
    7.7556    1.9982   -1.7442 C   0  0  0  0  0  0  0  0  0  0  0  0
    6.3836    1.8302   -1.5160 C   0  0  0  0  0  0  0  0  0  0  0  0
    3.9168   -0.8607   -0.7073 C   0  0  0  0  0  0  0  0  0  0  0  0
    2.4723   -0.8338   -1.2572 C   0  0  0  0  0  0  0  0  0  0  0  0
   -0.8263    0.4821   -0.2755 C   0  0  0  0  0  0  0  0  0  0  0  0
   -1.0499    0.1458    1.1156 N   0  0  0  0  0  0  0  0  0  0  0  0
   -0.0766   -0.5354    1.9576 C   0  0  0  0  0  0  0  0  0  0  0  0
   -0.3355   -2.0288    2.0551 C   0  0  0  0  0  0  0  0  0  0  0  0
   -0.7783   -2.5915    3.2622 C   0  0  0  0  0  0  0  0  0  0  0  0
   -1.0210   -3.9625    3.3640 C   0  0  0  0  0  0  0  0  0  0  0  0
   -0.8260   -4.7889    2.2602 C   0  0  0  0  0  0  0  0  0  0  0  0
   -0.3924   -4.2443    1.0538 C   0  0  0  0  0  0  0  0  0  0  0  0
   -0.1497   -2.8729    0.9519 C   0  0  0  0  0  0  0  0  0  0  0  0
   -3.7227   -0.4295    0.2641 H   0  0  0  0  0  0  0  0  0  0  0  0
   -4.4934    2.1037    1.8335 H   0  0  0  0  0  0  0  0  0  0  0  0
   -4.9581    0.4829    2.2951 H   0  0  0  0  0  0  0  0  0  0  0  0
   -5.7461    3.2959    0.1350 H   0  0  0  0  0  0  0  0  0  0  0  0
   -7.7294    3.3930   -1.3343 H   0  0  0  0  0  0  0  0  0  0  0  0
   -9.0602    1.3469   -1.7733 H   0  0  0  0  0  0  0  0  0  0  0  0
   -8.4040   -0.8065   -0.7328 H   0  0  0  0  0  0  0  0  0  0  0  0
   -6.4261   -0.9249    0.7402 H   0  0  0  0  0  0  0  0  0  0  0  0
   -3.7585    1.6392   -1.0897 H   0  0  0  0  0  0  0  0  0  0  0  0
   -0.6768    1.2055   -4.0047 H   0  0  0  0  0  0  0  0  0  0  0  0
    2.5256    1.1731    1.0697 H   0  0  0  0  0  0  0  0  0  0  0  0
    1.5859    2.1607   -0.0386 H   0  0  0  0  0  0  0  0  0  0  0  0
    3.9870    2.5204   -0.3308 H   0  0  0  0  0  0  0  0  0  0  0  0
    3.3169    1.8247   -1.8226 H   0  0  0  0  0  0  0  0  0  0  0  0
    6.4705   -1.2315   -0.0724 H   0  0  0  0  0  0  0  0  0  0  0  0
    8.8618   -0.9451   -0.4883 H   0  0  0  0  0  0  0  0  0  0  0  0
    9.7154    1.1285   -1.5542 H   0  0  0  0  0  0  0  0  0  0  0  0
    8.1176    2.9116   -2.2091 H   0  0  0  0  0  0  0  0  0  0  0  0
    5.7241    2.6326   -1.8332 H   0  0  0  0  0  0  0  0  0  0  0  0
    3.9191   -1.2602    0.3138 H   0  0  0  0  0  0  0  0  0  0  0  0
    4.4973   -1.5394   -1.3437 H   0  0  0  0  0  0  0  0  0  0  0  0
    2.5206   -0.4919   -2.2992 H   0  0  0  0  0  0  0  0  0  0  0  0
    2.0740   -1.8544   -1.2631 H   0  0  0  0  0  0  0  0  0  0  0  0
    0.9572   -0.3654    1.6805 H   0  0  0  0  0  0  0  0  0  0  0  0
   -0.1433   -0.0977    2.9632 H   0  0  0  0  0  0  0  0  0  0  0  0
   -0.9509   -1.9587    4.1311 H   0  0  0  0  0  0  0  0  0  0  0  0
   -1.3667   -4.3826    4.3048 H   0  0  0  0  0  0  0  0  0  0  0  0
   -1.0164   -5.8558    2.3398 H   0  0  0  0  0  0  0  0  0  0  0  0
   -0.2447   -4.8868    0.1899 H   0  0  0  0  0  0  0  0  0  0  0  0
    0.1813   -2.4681    0.0009 H   0  0  0  0  0  0  0  0  0  0  0  0
  1  2  2  0
  2  3  1  0
  3  4  1  0
  4  5  1  0
  5  6  2  0
  6  7  1  0
  7  8  2  0
  8  9  1  0
  9 10  2  0
  3 11  1  0
 11 12  1  0
 12 13  2  0
 13 14  1  0
 14 15  2  0
 15 16  1  0
 16 17  1  0
 17 18  1  0
 18 19  1  0
 19 20  1  0
 20 21  1  0
 21 22  2  0
 22 23  1  0
 23 24  2  0
 24 25  1  0
 25 26  2  0
 20 27  1  0
 27 28  1  0
 16 29  2  0
 29 30  1  0
 30 31  1  0
 31 32  1  0
 32 33  2  0
 33 34  1  0
 34 35  2  0
 35 36  1  0
 36 37  2  0
 30  2  1  0
 37 32  1  0
 10  5  1  0
 29 12  1  0
 28 17  1  0
 26 21  1  0
  3 38  1  0
  4 39  1  0
  4 40  1  0
  6 41  1  0
  7 42  1  0
  8 43  1  0
  9 44  1  0
 10 45  1  0
 11 46  1  0
 14 47  1  0
 18 48  1  0
 18 49  1  0
 19 50  1  0
 19 51  1  0
 22 52  1  0
 23 53  1  0
 24 54  1  0
 25 55  1  0
 26 56  1  0
 27 57  1  0
 27 58  1  0
 28 59  1  0
 28 60  1  0
 31 61  1  0
 31 62  1  0
 33 63  1  0
 34 64  1  0
 35 65  1  0
 36 66  1  0
 37 67  1  0
M  END
$$$$
