
     RDKit          3D

 59 62  0  0  0  0  0  0  0  0999 V2000
    2.4450   -1.6367    2.0844 O   0  0  0  0  0  0  0  0  0  0  0  0
    1.5273   -1.1491    1.4283 C   0  0  0  0  0  0  0  0  0  0  0  0
    0.2481   -1.4112    1.8220 N   0  0  0  0  0  0  0  0  0  0  0  0
   -0.7879   -0.5687    1.5505 C   0  0  0  0  0  0  0  0  0  0  0  0
   -1.6513   -0.3321    2.3892 O   0  0  0  0  0  0  0  0  0  0  0  0
   -0.7552    0.0222    0.1525 C   0  0  0  0  0  0  0  0  0  0  0  0
   -1.8003    1.1713    0.0634 C   0  0  0  0  0  0  0  0  0  0  0  0
   -2.0962    1.7081   -1.3458 C   0  0  0  0  0  0  0  0  0  0  0  0
   -2.9467    2.9519   -1.2918 C   0  0  0  0  0  0  0  0  0  0  0  0
   -4.3410    2.8723   -1.2895 C   0  0  0  0  0  0  0  0  0  0  0  0
   -5.0723    4.0488   -1.2220 C   0  0  0  0  0  0  0  0  0  0  0  0
   -4.5175    5.2775   -1.1540 N   0  0  0  0  0  0  0  0  0  0  0  0
   -3.1684    5.3312   -1.1489 C   0  0  0  0  0  0  0  0  0  0  0  0
   -2.3511    4.2134   -1.2131 C   0  0  0  0  0  0  0  0  0  0  0  0
   -0.9784   -1.0909   -0.9174 C   0  0  0  0  0  0  0  0  0  0  0  0
   -2.3361   -1.8145   -0.8863 C   0  0  0  0  0  0  0  0  0  0  0  0
   -2.4229   -2.9125    0.1421 C   0  0  0  0  0  0  0  0  0  0  0  0
   -3.2638   -2.7923    1.2509 C   0  0  0  0  0  0  0  0  0  0  0  0
   -3.2867   -3.8165    2.1851 C   0  0  0  0  0  0  0  0  0  0  0  0
   -2.5485   -4.9420    2.0836 N   0  0  0  0  0  0  0  0  0  0  0  0
   -1.7600   -5.0522    0.9950 C   0  0  0  0  0  0  0  0  0  0  0  0
   -1.6637   -4.0796    0.0115 C   0  0  0  0  0  0  0  0  0  0  0  0
    0.6614    0.5661   -0.0564 C   0  0  0  0  0  0  0  0  0  0  0  0
    0.8648    1.6522   -0.5995 O   0  0  0  0  0  0  0  0  0  0  0  0
    1.6961   -0.2736    0.3650 N   0  0  0  0  0  0  0  0  0  0  0  0
    3.0643    0.1074   -0.0430 C   0  0  0  0  0  0  0  0  0  0  0  0
    3.7725    0.9822    1.0063 C   0  0  0  0  0  0  0  0  0  0  0  0
    5.1559    1.4182    0.5264 C   0  0  0  0  0  0  0  0  0  0  0  0
    6.0128    0.2262    0.1087 C   0  0  0  0  0  0  0  0  0  0  0  0
    5.3125   -0.6335   -0.9402 C   0  0  0  0  0  0  0  0  0  0  0  0
    3.9354   -1.0917   -0.4613 C   0  0  0  0  0  0  0  0  0  0  0  0
    0.2028   -1.8589    2.7293 H   0  0  0  0  0  0  0  0  0  0  0  0
   -1.4616    1.9996    0.7029 H   0  0  0  0  0  0  0  0  0  0  0  0
   -2.7529    0.8445    0.5028 H   0  0  0  0  0  0  0  0  0  0  0  0
   -2.6207    0.9526   -1.9425 H   0  0  0  0  0  0  0  0  0  0  0  0
   -1.1769    1.9337   -1.8959 H   0  0  0  0  0  0  0  0  0  0  0  0
   -4.8547    1.9184   -1.3378 H   0  0  0  0  0  0  0  0  0  0  0  0
   -6.1584    4.0321   -1.2193 H   0  0  0  0  0  0  0  0  0  0  0  0
   -2.7450    6.3295   -1.0879 H   0  0  0  0  0  0  0  0  0  0  0  0
   -1.2715    4.3272   -1.1992 H   0  0  0  0  0  0  0  0  0  0  0  0
   -0.8679   -0.6353   -1.9110 H   0  0  0  0  0  0  0  0  0  0  0  0
   -0.1722   -1.8349   -0.8728 H   0  0  0  0  0  0  0  0  0  0  0  0
   -3.1595   -1.1042   -0.7569 H   0  0  0  0  0  0  0  0  0  0  0  0
   -2.5051   -2.2769   -1.8682 H   0  0  0  0  0  0  0  0  0  0  0  0
   -3.8767   -1.9101    1.4088 H   0  0  0  0  0  0  0  0  0  0  0  0
   -3.9160   -3.7519    3.0683 H   0  0  0  0  0  0  0  0  0  0  0  0
   -1.1868   -5.9728    0.9306 H   0  0  0  0  0  0  0  0  0  0  0  0
   -1.0084   -4.2385   -0.8385 H   0  0  0  0  0  0  0  0  0  0  0  0
    2.9665    0.7218   -0.9491 H   0  0  0  0  0  0  0  0  0  0  0  0
    3.1677    1.8704    1.2253 H   0  0  0  0  0  0  0  0  0  0  0  0
    3.8808    0.4406    1.9529 H   0  0  0  0  0  0  0  0  0  0  0  0
    5.0471    2.1040   -0.3228 H   0  0  0  0  0  0  0  0  0  0  0  0
    5.6625    1.9753    1.3226 H   0  0  0  0  0  0  0  0  0  0  0  0
    6.9702    0.5826   -0.2876 H   0  0  0  0  0  0  0  0  0  0  0  0
    6.2396   -0.3863    0.9901 H   0  0  0  0  0  0  0  0  0  0  0  0
    5.2054   -0.0619   -1.8702 H   0  0  0  0  0  0  0  0  0  0  0  0
    5.9308   -1.5079   -1.1728 H   0  0  0  0  0  0  0  0  0  0  0  0
    3.4362   -1.6502   -1.2624 H   0  0  0  0  0  0  0  0  0  0  0  0
    4.0767   -1.7945    0.3657 H   0  0  0  0  0  0  0  0  0  0  0  0
  1  2  2  0
  2  3  1  0
  3  4  1  0
  4  5  2  0
  4  6  1  0
  6  7  1  0
  7  8  1  0
  8  9  1  0
  9 10  2  0
 10 11  1  0
 11 12  2  0
 12 13  1  0
 13 14  2  0
  6 15  1  0
 15 16  1  0
 16 17  1  0
 17 18  2  0
 18 19  1  0
 19 20  2  0
 20 21  1  0
 21 22  2  0
  6 23  1  0
 23 24  2  0
 23 25  1  0
 25 26  1  0
 26 27  1  0
 27 28  1  0
 28 29  1  0
 29 30  1  0
 30 31  1  0
 25  2  1  0
 31 26  1  0
 14  9  1  0
 22 17  1  0
  3 32  1  0
  7 33  1  0
  7 34  1  0
  8 35  1  0
  8 36  1  0
 10 37  1  0
 11 38  1  0
 13 39  1  0
 14 40  1  0
 15 41  1  0
 15 42  1  0
 16 43  1  0
 16 44  1  0
 18 45  1  0
 19 46  1  0
 21 47  1  0
 22 48  1  0
 26 49  1  0
 27 50  1  0
 27 51  1  0
 28 52  1  0
 28 53  1  0
 29 54  1  0
 29 55  1  0
 30 56  1  0
 30 57  1  0
 31 58  1  0
 31 59  1  0
M  END
$$$$
