
     RDKit          3D

 45 47  0  0  0  0  0  0  0  0999 V2000
   -5.7540    0.7265    1.2675 C   0  0  0  0  0  0  0  0  0  0  0  0
   -4.3620    0.6372    0.8315 N   0  0  0  0  0  0  0  0  0  0  0  0
   -4.2005    0.8602   -0.6164 C   0  0  0  0  0  0  0  0  0  0  0  0
   -4.5910   -0.4774   -1.2547 C   0  0  0  0  0  0  0  0  0  0  0  0
   -4.3165   -1.5194   -0.1669 C   0  0  0  0  0  0  0  0  0  0  0  0
   -3.7891   -0.7079    1.0218 C   0  0  0  0  0  0  0  0  0  0  0  0
   -2.2605   -0.5350    0.9708 C   0  0  0  0  0  0  0  0  0  0  0  0
   -1.7869    0.0621   -0.3646 C   0  0  0  0  0  0  0  0  0  0  0  0
   -0.4542    0.5959   -0.2392 O   0  0  0  0  0  0  0  0  0  0  0  0
    0.5640   -0.3097   -0.2814 C   0  0  0  0  0  0  0  0  0  0  0  0
    0.4279   -1.5144   -0.4421 O   0  0  0  0  0  0  0  0  0  0  0  0
    1.8797    0.4092   -0.1242 C   0  0  0  0  0  0  0  0  0  0  0  0
    3.0294   -0.5893    0.0074 C   0  0  0  0  0  0  0  0  0  0  0  0
    4.3156    0.0754    0.2538 N   0  0  0  0  0  0  0  0  0  0  0  0
    5.3781   -0.8920    0.5433 C   0  0  0  0  0  0  0  0  0  0  0  0
    6.6411   -0.0564    0.4169 C   0  0  0  0  0  0  0  0  0  0  0  0
    6.2855    1.0476   -0.5718 C   0  0  0  0  0  0  0  0  0  0  0  0
    4.8118    0.8394   -0.8936 C   0  0  0  0  0  0  0  0  0  0  0  0
   -2.7139    1.1943   -0.8337 C   0  0  0  0  0  0  0  0  0  0  0  0
   -6.4234    0.0224    0.7628 H   0  0  0  0  0  0  0  0  0  0  0  0
   -6.1360    1.7389    1.0961 H   0  0  0  0  0  0  0  0  0  0  0  0
   -5.8214    0.5442    2.3457 H   0  0  0  0  0  0  0  0  0  0  0  0
   -4.8111    1.6896   -0.9905 H   0  0  0  0  0  0  0  0  0  0  0  0
   -5.6577   -0.4878   -1.5086 H   0  0  0  0  0  0  0  0  0  0  0  0
   -4.0328   -0.6882   -2.1727 H   0  0  0  0  0  0  0  0  0  0  0  0
   -5.2522   -2.0270    0.0961 H   0  0  0  0  0  0  0  0  0  0  0  0
   -3.6104   -2.2853   -0.5039 H   0  0  0  0  0  0  0  0  0  0  0  0
   -4.0656   -1.1565    1.9825 H   0  0  0  0  0  0  0  0  0  0  0  0
   -1.9296    0.1058    1.7994 H   0  0  0  0  0  0  0  0  0  0  0  0
   -1.7720   -1.5033    1.1339 H   0  0  0  0  0  0  0  0  0  0  0  0
   -1.7860   -0.7147   -1.1405 H   0  0  0  0  0  0  0  0  0  0  0  0
    2.0171    1.0503   -1.0013 H   0  0  0  0  0  0  0  0  0  0  0  0
    1.8265    1.0337    0.7751 H   0  0  0  0  0  0  0  0  0  0  0  0
    3.0816   -1.2275   -0.8849 H   0  0  0  0  0  0  0  0  0  0  0  0
    2.8103   -1.2541    0.8537 H   0  0  0  0  0  0  0  0  0  0  0  0
    5.3951   -1.7071   -0.1917 H   0  0  0  0  0  0  0  0  0  0  0  0
    5.2811   -1.3247    1.5440 H   0  0  0  0  0  0  0  0  0  0  0  0
    6.9107    0.3855    1.3836 H   0  0  0  0  0  0  0  0  0  0  0  0
    7.4906   -0.6546    0.0728 H   0  0  0  0  0  0  0  0  0  0  0  0
    6.4522    2.0280   -0.1109 H   0  0  0  0  0  0  0  0  0  0  0  0
    6.9007    0.9924   -1.4758 H   0  0  0  0  0  0  0  0  0  0  0  0
    4.7151    0.2735   -1.8289 H   0  0  0  0  0  0  0  0  0  0  0  0
    4.2961    1.7975   -1.0110 H   0  0  0  0  0  0  0  0  0  0  0  0
   -2.4610    2.1239   -0.3054 H   0  0  0  0  0  0  0  0  0  0  0  0
   -2.5225    1.3985   -1.8948 H   0  0  0  0  0  0  0  0  0  0  0  0
  1  2  1  0
  2  3  1  0
  3  4  1  0
  4  5  1  0
  5  6  1  0
  6  7  1  0
  7  8  1  0
  8  9  1  0
  9 10  1  0
 10 11  2  0
 10 12  1  0
 12 13  1  0
 13 14  1  0
 14 15  1  0
 15 16  1  0
 16 17  1  0
 17 18  1  0
  8 19  1  0
  6  2  1  0
 18 14  1  0
 19  3  1  0
  1 20  1  0
  1 21  1  0
  1 22  1  0
  3 23  1  0
  4 24  1  0
  4 25  1  0
  5 26  1  0
  5 27  1  0
  6 28  1  0
  7 29  1  0
  7 30  1  0
  8 31  1  0
 12 32  1  0
 12 33  1  0
 13 34  1  0
 13 35  1  0
 15 36  1  0
 15 37  1  0
 16 38  1  0
 16 39  1  0
 17 40  1  0
 17 41  1  0
 18 42  1  0
 18 43  1  0
 19 44  1  0
 19 45  1  0
M  END
$$$$
