
     RDKit          3D

 41 42  0  0  0  0  0  0  0  0999 V2000
   -0.5267   -0.4311   -1.7169 O   0  0  0  0  0  0  0  0  0  0  0  0
   -0.4624    0.3159   -0.4950 C   0  0  0  0  0  0  0  0  0  0  0  0
    0.4270    1.5574   -0.6802 C   0  0  0  0  0  0  0  0  0  0  0  0
    1.7782    1.2714   -1.0532 O   0  0  0  0  0  0  0  0  0  0  0  0
    2.5108    0.5372   -0.0780 C   0  0  0  0  0  0  0  0  0  0  0  0
    3.9805    0.5751   -0.4221 C   0  0  0  0  0  0  0  0  0  0  0  0
    4.9408    0.8173    0.5712 C   0  0  0  0  0  0  0  0  0  0  0  0
    6.3021    0.8207    0.2553 C   0  0  0  0  0  0  0  0  0  0  0  0
    6.7111    0.5744   -1.0539 C   0  0  0  0  0  0  0  0  0  0  0  0
    8.3882    0.5781   -1.4397 Cl  0  0  0  0  0  0  0  0  0  0  0  0
    5.7717    0.3223   -2.0500 C   0  0  0  0  0  0  0  0  0  0  0  0
    4.4115    0.3187   -1.7333 C   0  0  0  0  0  0  0  0  0  0  0  0
   -1.8959    0.7281   -0.0887 C   0  0  0  0  0  0  0  0  0  0  0  0
   -2.8225   -0.4273   -0.0461 N   0  0  0  0  0  0  0  0  0  0  0  0
   -2.4475   -1.3965    1.0012 C   0  0  0  0  0  0  0  0  0  0  0  0
   -3.6139   -2.2889    1.4208 C   0  0  0  0  0  0  0  0  0  0  0  0
   -4.7520   -1.4665    2.0221 C   0  0  0  0  0  0  0  0  0  0  0  0
   -4.7966   -0.0458    1.4624 C   0  0  0  0  0  0  0  0  0  0  0  0
   -4.2270    0.0120    0.0472 C   0  0  0  0  0  0  0  0  0  0  0  0
   -1.3662   -0.9317   -1.6650 H   0  0  0  0  0  0  0  0  0  0  0  0
   -0.0294   -0.3444    0.2620 H   0  0  0  0  0  0  0  0  0  0  0  0
    0.0213    2.1749   -1.4894 H   0  0  0  0  0  0  0  0  0  0  0  0
    0.4335    2.1706    0.2286 H   0  0  0  0  0  0  0  0  0  0  0  0
    2.3445    0.9757    0.9129 H   0  0  0  0  0  0  0  0  0  0  0  0
    2.1839   -0.5080   -0.0674 H   0  0  0  0  0  0  0  0  0  0  0  0
    4.6366    1.0084    1.5977 H   0  0  0  0  0  0  0  0  0  0  0  0
    7.0359    1.0150    1.0326 H   0  0  0  0  0  0  0  0  0  0  0  0
    6.0863    0.1293   -3.0717 H   0  0  0  0  0  0  0  0  0  0  0  0
    3.6786    0.1233   -2.5152 H   0  0  0  0  0  0  0  0  0  0  0  0
   -1.8865    1.2631    0.8690 H   0  0  0  0  0  0  0  0  0  0  0  0
   -2.2594    1.4264   -0.8541 H   0  0  0  0  0  0  0  0  0  0  0  0
   -2.0690   -0.8814    1.8943 H   0  0  0  0  0  0  0  0  0  0  0  0
   -1.6388   -2.0339    0.6262 H   0  0  0  0  0  0  0  0  0  0  0  0
   -3.9819   -2.8440    0.5482 H   0  0  0  0  0  0  0  0  0  0  0  0
   -3.2775   -3.0389    2.1457 H   0  0  0  0  0  0  0  0  0  0  0  0
   -4.6459   -1.4162    3.1123 H   0  0  0  0  0  0  0  0  0  0  0  0
   -5.7021   -1.9785    1.8282 H   0  0  0  0  0  0  0  0  0  0  0  0
   -5.8296    0.3201    1.4714 H   0  0  0  0  0  0  0  0  0  0  0  0
   -4.2234    0.6252    2.1150 H   0  0  0  0  0  0  0  0  0  0  0  0
   -4.8234   -0.6467   -0.5974 H   0  0  0  0  0  0  0  0  0  0  0  0
   -4.3649    1.0190   -0.3650 H   0  0  0  0  0  0  0  0  0  0  0  0
  1  2  1  0
  2  3  1  0
  3  4  1  0
  4  5  1  0
  5  6  1  0
  6  7  2  0
  7  8  1  0
  8  9  2  0
  9 10  1  0
  9 11  1  0
 11 12  2  0
  2 13  1  0
 13 14  1  0
 14 15  1  0
 15 16  1  0
 16 17  1  0
 17 18  1  0
 18 19  1  0
 12  6  1  0
 19 14  1  0
  1 20  1  0
  2 21  1  0
  3 22  1  0
  3 23  1  0
  5 24  1  0
  5 25  1  0
  7 26  1  0
  8 27  1  0
 11 28  1  0
 12 29  1  0
 13 30  1  0
 13 31  1  0
 15 32  1  0
 15 33  1  0
 16 34  1  0
 16 35  1  0
 17 36  1  0
 17 37  1  0
 18 38  1  0
 18 39  1  0
 19 40  1  0
 19 41  1  0
M  END
$$$$
