
     RDKit          3D

 53 56  0  0  0  0  0  0  0  0999 V2000
    6.7269    1.5599    3.0502 C   0  0  0  0  0  0  0  0  0  0  0  0
    7.1159    1.7537    1.6965 O   0  0  0  0  0  0  0  0  0  0  0  0
    6.1530    1.5111    0.7529 C   0  0  0  0  0  0  0  0  0  0  0  0
    6.3920    2.0950   -0.4946 C   0  0  0  0  0  0  0  0  0  0  0  0
    5.4869    1.9247   -1.5437 C   0  0  0  0  0  0  0  0  0  0  0  0
    4.3429    1.1538   -1.3487 C   0  0  0  0  0  0  0  0  0  0  0  0
    3.4851    1.0082   -2.4112 O   0  0  0  0  0  0  0  0  0  0  0  0
    2.3979    1.9268   -2.2867 C   0  0  0  0  0  0  0  0  0  0  0  0
    4.1213    0.5114   -0.1208 C   0  0  0  0  0  0  0  0  0  0  0  0
    3.0005   -0.3879    0.0726 C   0  0  0  0  0  0  0  0  0  0  0  0
    2.9132   -1.6124   -0.5670 C   0  0  0  0  0  0  0  0  0  0  0  0
    1.4479   -2.3832   -0.1288 S   0  0  0  0  0  0  0  0  0  0  0  0
    1.0612   -1.0352    0.8516 C   0  0  0  0  0  0  0  0  0  0  0  0
   -0.1677   -1.1338    1.4315 N   0  0  0  0  0  0  0  0  0  0  0  0
   -0.7668   -0.0983    2.1202 C   0  0  0  0  0  0  0  0  0  0  0  0
   -0.2283    0.9472    2.4651 O   0  0  0  0  0  0  0  0  0  0  0  0
   -2.1986   -0.4072    2.5191 C   0  0  0  0  0  0  0  0  0  0  0  0
   -3.0798   -0.5800    1.3724 N   0  0  0  0  0  0  0  0  0  0  0  0
   -3.9708    0.3587    0.9103 C   0  0  0  0  0  0  0  0  0  0  0  0
   -4.0635    1.5508    1.4826 O   0  0  0  0  0  0  0  0  0  0  0  0
   -4.6438   -0.1924   -0.1595 C   0  0  0  0  0  0  0  0  0  0  0  0
   -4.1305   -1.5116   -0.3586 C   0  0  0  0  0  0  0  0  0  0  0  0
   -3.1763   -1.7306    0.6112 C   0  0  0  0  0  0  0  0  0  0  0  0
   -2.4079   -2.7896    0.8643 O   0  0  0  0  0  0  0  0  0  0  0  0
   -4.6184   -2.4158   -1.4408 C   0  0  0  0  0  0  0  0  0  0  0  0
   -5.3804   -1.6335   -2.5209 C   0  0  0  0  0  0  0  0  0  0  0  0
   -6.3866   -0.6492   -1.9029 C   0  0  0  0  0  0  0  0  0  0  0  0
   -5.7000    0.4114   -1.0237 C   0  0  0  0  0  0  0  0  0  0  0  0
    1.9502   -0.0769    0.9150 N   0  0  0  0  0  0  0  0  0  0  0  0
    5.0190    0.7172    0.9381 C   0  0  0  0  0  0  0  0  0  0  0  0
    5.8245    2.1303    3.2889 H   0  0  0  0  0  0  0  0  0  0  0  0
    7.5403    1.9318    3.6831 H   0  0  0  0  0  0  0  0  0  0  0  0
    6.5946    0.4978    3.2722 H   0  0  0  0  0  0  0  0  0  0  0  0
    7.2832    2.6982   -0.6456 H   0  0  0  0  0  0  0  0  0  0  0  0
    5.6691    2.3950   -2.5056 H   0  0  0  0  0  0  0  0  0  0  0  0
    2.7502    2.9565   -2.4073 H   0  0  0  0  0  0  0  0  0  0  0  0
    1.8651    1.8157   -1.3351 H   0  0  0  0  0  0  0  0  0  0  0  0
    1.6860    1.7130   -3.0919 H   0  0  0  0  0  0  0  0  0  0  0  0
    3.6167   -2.0680   -1.2518 H   0  0  0  0  0  0  0  0  0  0  0  0
   -0.7298   -1.9307    1.1557 H   0  0  0  0  0  0  0  0  0  0  0  0
   -2.5868    0.4039    3.1440 H   0  0  0  0  0  0  0  0  0  0  0  0
   -2.2304   -1.3279    3.1165 H   0  0  0  0  0  0  0  0  0  0  0  0
   -4.7131    2.0648    0.9774 H   0  0  0  0  0  0  0  0  0  0  0  0
   -2.6946   -3.4949    0.2544 H   0  0  0  0  0  0  0  0  0  0  0  0
   -5.2824   -3.1672   -0.9983 H   0  0  0  0  0  0  0  0  0  0  0  0
   -3.7784   -2.9500   -1.8996 H   0  0  0  0  0  0  0  0  0  0  0  0
   -5.9032   -2.3382   -3.1825 H   0  0  0  0  0  0  0  0  0  0  0  0
   -4.6667   -1.0732   -3.1475 H   0  0  0  0  0  0  0  0  0  0  0  0
   -7.1095   -1.2148   -1.2951 H   0  0  0  0  0  0  0  0  0  0  0  0
   -6.9556   -0.1518   -2.6978 H   0  0  0  0  0  0  0  0  0  0  0  0
   -6.4553    0.9121   -0.4022 H   0  0  0  0  0  0  0  0  0  0  0  0
   -5.2386    1.1781   -1.6632 H   0  0  0  0  0  0  0  0  0  0  0  0
    4.8201    0.2272    1.8854 H   0  0  0  0  0  0  0  0  0  0  0  0
  1  2  1  0
  2  3  1  0
  3  4  2  0
  4  5  1  0
  5  6  2  0
  6  7  1  0
  7  8  1  0
  6  9  1  0
  9 10  1  0
 10 11  2  0
 11 12  1  0
 12 13  1  0
 13 14  1  0
 14 15  1  0
 15 16  2  0
 15 17  1  0
 17 18  1  0
 18 19  1  0
 19 20  1  0
 19 21  2  0
 21 22  1  0
 22 23  2  0
 23 24  1  0
 22 25  1  0
 25 26  1  0
 26 27  1  0
 27 28  1  0
 13 29  2  0
  9 30  2  0
 30  3  1  0
 29 10  1  0
 23 18  1  0
 28 21  1  0
  1 31  1  0
  1 32  1  0
  1 33  1  0
  4 34  1  0
  5 35  1  0
  8 36  1  0
  8 37  1  0
  8 38  1  0
 11 39  1  0
 14 40  1  0
 17 41  1  0
 17 42  1  0
 20 43  1  0
 24 44  1  0
 25 45  1  0
 25 46  1  0
 26 47  1  0
 26 48  1  0
 27 49  1  0
 27 50  1  0
 28 51  1  0
 28 52  1  0
 30 53  1  0
M  END
$$$$
