
     RDKit          3D

 62 65  0  0  0  0  0  0  0  0999 V2000
    0.0799   -2.8329   -3.0288 C   0  0  0  0  0  0  0  0  0  0  0  0
    0.2010   -2.2370   -1.7426 O   0  0  0  0  0  0  0  0  0  0  0  0
    1.4594   -2.1735   -1.1946 C   0  0  0  0  0  0  0  0  0  0  0  0
    2.6416   -2.4693   -1.8816 C   0  0  0  0  0  0  0  0  0  0  0  0
    3.8745   -2.3604   -1.2350 C   0  0  0  0  0  0  0  0  0  0  0  0
    3.9204   -1.9580    0.1016 C   0  0  0  0  0  0  0  0  0  0  0  0
    5.4863   -1.8480    0.9410 S   0  0  0  0  0  6  0  0  0  0  0  0
    6.4753   -2.4814    0.0919 O   0  0  0  0  0  0  0  0  0  0  0  0
    5.2852   -2.2918    2.3039 O   0  0  0  0  0  0  0  0  0  0  0  0
    5.8197   -0.1868    0.9621 N   0  0  0  0  0  0  0  0  0  0  0  0
    4.9882    0.6667    1.8595 C   0  0  0  0  0  0  0  0  0  0  0  0
    5.6520    2.0419    2.0043 C   0  0  0  0  0  0  0  0  0  0  0  0
    5.8229    2.6692    0.7226 O   0  0  0  0  0  0  0  0  0  0  0  0
    6.6639    1.8616   -0.1174 C   0  0  0  0  0  0  0  0  0  0  0  0
    6.0489    0.4763   -0.3510 C   0  0  0  0  0  0  0  0  0  0  0  0
    2.7452   -1.6853    0.8063 C   0  0  0  0  0  0  0  0  0  0  0  0
    1.5131   -1.7584    0.1547 C   0  0  0  0  0  0  0  0  0  0  0  0
    0.2883   -1.4471    0.7869 N   0  0  0  0  0  0  0  0  0  0  0  0
    0.0991   -0.8429    2.0140 C   0  0  0  0  0  0  0  0  0  0  0  0
    0.9858   -0.4230    2.7544 O   0  0  0  0  0  0  0  0  0  0  0  0
   -1.3760   -0.7223    2.4068 C   0  0  0  0  0  0  0  0  0  0  0  0
   -2.0270    0.4178    1.8478 O   0  0  0  0  0  0  0  0  0  0  0  0
   -2.4318    0.2746    0.5593 C   0  0  0  0  0  0  0  0  0  0  0  0
   -2.2532   -0.7273   -0.1211 O   0  0  0  0  0  0  0  0  0  0  0  0
   -3.1608    1.5055    0.0899 C   0  0  0  0  0  0  0  0  0  0  0  0
   -4.6359    1.4478    0.4701 C   0  0  0  0  0  0  0  0  0  0  0  0
   -5.4232    2.7020    0.0322 C   0  0  0  0  0  0  0  0  0  0  0  0
   -6.6380    2.1090   -0.7056 C   0  0  0  0  0  0  0  0  0  0  0  0
   -6.1691    1.5676   -2.0679 C   0  0  0  0  0  0  0  0  0  0  0  0
   -5.3967    0.2969   -1.6859 C   0  0  0  0  0  0  0  0  0  0  0  0
   -5.4699    0.2965   -0.1492 C   0  0  0  0  0  0  0  0  0  0  0  0
   -6.8927    0.8195    0.0746 C   0  0  0  0  0  0  0  0  0  0  0  0
    0.4804   -3.8525   -3.0344 H   0  0  0  0  0  0  0  0  0  0  0  0
   -0.9861   -2.8943   -3.2708 H   0  0  0  0  0  0  0  0  0  0  0  0
    0.5584   -2.2141   -3.7947 H   0  0  0  0  0  0  0  0  0  0  0  0
    2.6380   -2.7807   -2.9210 H   0  0  0  0  0  0  0  0  0  0  0  0
    4.7881   -2.5978   -1.7768 H   0  0  0  0  0  0  0  0  0  0  0  0
    3.9930    0.7932    1.4224 H   0  0  0  0  0  0  0  0  0  0  0  0
    4.8961    0.2104    2.8490 H   0  0  0  0  0  0  0  0  0  0  0  0
    5.0231    2.6969    2.6144 H   0  0  0  0  0  0  0  0  0  0  0  0
    6.6289    1.9620    2.4943 H   0  0  0  0  0  0  0  0  0  0  0  0
    6.7760    2.3831   -1.0727 H   0  0  0  0  0  0  0  0  0  0  0  0
    7.6571    1.7834    0.3416 H   0  0  0  0  0  0  0  0  0  0  0  0
    5.0904    0.5849   -0.8698 H   0  0  0  0  0  0  0  0  0  0  0  0
    6.7291   -0.1154   -0.9700 H   0  0  0  0  0  0  0  0  0  0  0  0
    2.8128   -1.4232    1.8582 H   0  0  0  0  0  0  0  0  0  0  0  0
   -0.5357   -1.5710    0.1909 H   0  0  0  0  0  0  0  0  0  0  0  0
   -1.9132   -1.6482    2.1648 H   0  0  0  0  0  0  0  0  0  0  0  0
   -1.4222   -0.6221    3.4970 H   0  0  0  0  0  0  0  0  0  0  0  0
   -3.0054    1.6104   -0.9884 H   0  0  0  0  0  0  0  0  0  0  0  0
   -2.6825    2.3848    0.5388 H   0  0  0  0  0  0  0  0  0  0  0  0
   -4.7059    1.3653    1.5643 H   0  0  0  0  0  0  0  0  0  0  0  0
   -5.7494    3.2625    0.9170 H   0  0  0  0  0  0  0  0  0  0  0  0
   -4.8429    3.3805   -0.6027 H   0  0  0  0  0  0  0  0  0  0  0  0
   -7.4848    2.7949   -0.7743 H   0  0  0  0  0  0  0  0  0  0  0  0
   -5.5419    2.2831   -2.6104 H   0  0  0  0  0  0  0  0  0  0  0  0
   -7.0244    1.3123   -2.7040 H   0  0  0  0  0  0  0  0  0  0  0  0
   -5.9097   -0.5836   -2.0911 H   0  0  0  0  0  0  0  0  0  0  0  0
   -4.3791    0.2905   -2.0822 H   0  0  0  0  0  0  0  0  0  0  0  0
   -5.2685   -0.6799    0.2971 H   0  0  0  0  0  0  0  0  0  0  0  0
   -7.6635    0.1857   -0.3776 H   0  0  0  0  0  0  0  0  0  0  0  0
   -7.1323    0.9917    1.1297 H   0  0  0  0  0  0  0  0  0  0  0  0
  1  2  1  0
  2  3  1  0
  3  4  2  0
  4  5  1  0
  5  6  2  0
  6  7  1  0
  7  8  2  0
  7  9  2  0
  7 10  1  0
 10 11  1  0
 11 12  1  0
 12 13  1  0
 13 14  1  0
 14 15  1  0
  6 16  1  0
 16 17  2  0
 17 18  1  0
 18 19  1  0
 19 20  2  0
 19 21  1  0
 21 22  1  0
 22 23  1  0
 23 24  2  0
 23 25  1  0
 25 26  1  0
 26 27  1  0
 27 28  1  0
 28 29  1  0
 29 30  1  0
 30 31  1  0
 31 32  1  0
 17  3  1  0
 31 26  1  0
 15 10  1  0
 32 28  1  0
  1 33  1  0
  1 34  1  0
  1 35  1  0
  4 36  1  0
  5 37  1  0
 11 38  1  0
 11 39  1  0
 12 40  1  0
 12 41  1  0
 14 42  1  0
 14 43  1  0
 15 44  1  0
 15 45  1  0
 16 46  1  0
 18 47  1  0
 21 48  1  0
 21 49  1  0
 25 50  1  0
 25 51  1  0
 26 52  1  0
 27 53  1  0
 27 54  1  0
 28 55  1  0
 29 56  1  0
 29 57  1  0
 30 58  1  0
 30 59  1  0
 31 60  1  0
 32 61  1  0
 32 62  1  0
M  END
$$$$
