
     RDKit          3D

 43 45  0  0  0  0  0  0  0  0999 V2000
   -4.2945    1.7679   -1.0360 C   0  0  0  0  0  0  0  0  0  0  0  0
   -4.7384    0.6148   -0.1831 C   0  0  0  0  0  0  0  0  0  0  0  0
   -6.0922    0.2543   -0.1638 C   0  0  0  0  0  0  0  0  0  0  0  0
   -6.5328   -0.8069    0.6271 C   0  0  0  0  0  0  0  0  0  0  0  0
   -5.6273   -1.5168    1.4161 C   0  0  0  0  0  0  0  0  0  0  0  0
   -4.2675   -1.1801    1.4154 C   0  0  0  0  0  0  0  0  0  0  0  0
   -3.3135   -1.9596    2.2753 C   0  0  0  0  0  0  0  0  0  0  0  0
   -3.8296   -0.1432    0.5732 C   0  0  0  0  0  0  0  0  0  0  0  0
   -2.4952    0.1795    0.5488 O   0  0  0  0  0  0  0  0  0  0  0  0
   -1.8310   -0.5396   -0.4989 C   0  0  0  0  0  0  0  0  0  0  0  0
   -0.3906   -0.2036   -0.4181 C   0  0  0  0  0  0  0  0  0  0  0  0
    0.3893    0.5539    0.4206 C   0  0  0  0  0  0  0  0  0  0  0  0
    1.7118    0.4341   -0.0905 C   0  0  0  0  0  0  0  0  0  0  0  0
    2.9008    1.1106    0.4557 C   0  0  0  0  0  0  0  0  0  0  0  0
    2.7480    2.0598    1.2283 O   0  0  0  0  0  0  0  0  0  0  0  0
    4.1958    0.6929    0.1122 N   0  0  0  0  0  0  0  0  0  0  0  0
    4.5225   -0.4430   -0.7528 C   0  0  0  0  0  0  0  0  0  0  0  0
    5.9290   -0.9767   -0.4877 C   0  0  0  0  0  0  0  0  0  0  0  0
    6.9212    0.0652   -0.5689 N   0  0  0  0  0  0  0  0  0  0  0  0
    6.7112    1.2860    0.0172 C   0  0  0  0  0  0  0  0  0  0  0  0
    7.6585    2.0473    0.2011 O   0  0  0  0  0  0  0  0  0  0  0  0
    5.2712    1.6485    0.4087 C   0  0  0  0  0  0  0  0  0  0  0  0
    1.7058   -0.3339   -1.1937 N   0  0  0  0  0  0  0  0  0  0  0  0
    0.4008   -0.7398   -1.3842 O   0  0  0  0  0  0  0  0  0  0  0  0
   -3.4683    2.3124   -0.5682 H   0  0  0  0  0  0  0  0  0  0  0  0
   -5.1089    2.4868   -1.1749 H   0  0  0  0  0  0  0  0  0  0  0  0
   -3.9767    1.4093   -2.0198 H   0  0  0  0  0  0  0  0  0  0  0  0
   -6.8158    0.8057   -0.7603 H   0  0  0  0  0  0  0  0  0  0  0  0
   -7.5866   -1.0742    0.6381 H   0  0  0  0  0  0  0  0  0  0  0  0
   -5.9920   -2.3318    2.0393 H   0  0  0  0  0  0  0  0  0  0  0  0
   -2.5150   -1.3180    2.6622 H   0  0  0  0  0  0  0  0  0  0  0  0
   -2.8699   -2.7778    1.6990 H   0  0  0  0  0  0  0  0  0  0  0  0
   -3.8276   -2.3836    3.1449 H   0  0  0  0  0  0  0  0  0  0  0  0
   -2.2199   -0.2397   -1.4783 H   0  0  0  0  0  0  0  0  0  0  0  0
   -1.9583   -1.6213   -0.3728 H   0  0  0  0  0  0  0  0  0  0  0  0
    0.0640    1.1237    1.2795 H   0  0  0  0  0  0  0  0  0  0  0  0
    3.8186   -1.2610   -0.5829 H   0  0  0  0  0  0  0  0  0  0  0  0
    4.4346   -0.0979   -1.7896 H   0  0  0  0  0  0  0  0  0  0  0  0
    5.9898   -1.4041    0.5200 H   0  0  0  0  0  0  0  0  0  0  0  0
    6.1932   -1.7531   -1.2116 H   0  0  0  0  0  0  0  0  0  0  0  0
    7.8975   -0.1691   -0.7075 H   0  0  0  0  0  0  0  0  0  0  0  0
    5.2629    1.8361    1.4887 H   0  0  0  0  0  0  0  0  0  0  0  0
    5.0249    2.5860   -0.1050 H   0  0  0  0  0  0  0  0  0  0  0  0
  1  2  1  0
  2  3  2  0
  3  4  1  0
  4  5  2  0
  5  6  1  0
  6  7  1  0
  6  8  2  0
  8  9  1  0
  9 10  1  0
 10 11  1  0
 11 12  2  0
 12 13  1  0
 13 14  1  0
 14 15  2  0
 14 16  1  0
 16 17  1  0
 17 18  1  0
 18 19  1  0
 19 20  1  0
 20 21  2  0
 20 22  1  0
 13 23  2  0
 23 24  1  0
  8  2  1  0
 24 11  1  0
 22 16  1  0
  1 25  1  0
  1 26  1  0
  1 27  1  0
  3 28  1  0
  4 29  1  0
  5 30  1  0
  7 31  1  0
  7 32  1  0
  7 33  1  0
 10 34  1  0
 10 35  1  0
 12 36  1  0
 17 37  1  0
 17 38  1  0
 18 39  1  0
 18 40  1  0
 19 41  1  0
 22 42  1  0
 22 43  1  0
M  END
$$$$
