
     RDKit          3D

 42 44  0  0  0  0  0  0  0  0999 V2000
   -5.2994   -0.4406   -1.7357 C   0  0  0  0  0  0  0  0  0  0  0  0
   -4.6262    0.7365   -1.0129 C   0  0  0  0  0  0  0  0  0  0  0  0
   -5.4570    1.1479    0.2125 C   0  0  0  0  0  0  0  0  0  0  0  0
   -4.5650    1.9310   -1.9821 C   0  0  0  0  0  0  0  0  0  0  0  0
   -3.2552    0.3965   -0.6245 N   0  0  0  0  0  0  0  0  0  0  0  0
   -2.8848   -0.6223    0.2356 C   0  0  0  0  0  0  0  0  0  0  0  0
   -3.6787   -1.3797    0.7841 O   0  0  0  0  0  0  0  0  0  0  0  0
   -1.4182   -0.6955    0.4208 C   0  0  0  0  0  0  0  0  0  0  0  0
   -0.5634    0.1791   -0.2192 N   0  0  0  0  0  0  0  0  0  0  0  0
    0.6287   -0.1905    0.1872 C   0  0  0  0  0  0  0  0  0  0  0  0
    1.8411    0.3404   -0.1368 N   0  0  0  0  0  0  0  0  0  0  0  0
    2.8915   -0.2001    0.4110 C   0  0  0  0  0  0  0  0  0  0  0  0
    4.2401    0.3520    0.0917 C   0  0  0  0  0  0  0  0  0  0  0  0
    5.2742    0.3791    1.0363 C   0  0  0  0  0  0  0  0  0  0  0  0
    6.5209    0.9085    0.6929 C   0  0  0  0  0  0  0  0  0  0  0  0
    6.7372    1.4189   -0.5866 C   0  0  0  0  0  0  0  0  0  0  0  0
    5.7066    1.4104   -1.5248 C   0  0  0  0  0  0  0  0  0  0  0  0
    4.4591    0.8832   -1.1863 C   0  0  0  0  0  0  0  0  0  0  0  0
    2.8469   -1.3773    1.3383 C   0  0  0  0  0  0  0  0  0  0  0  0
    1.6255   -1.8670    1.6272 C   0  0  0  0  0  0  0  0  0  0  0  0
    1.3869   -3.0261    2.5164 C   0  0  0  0  0  0  0  0  0  0  0  0
    2.5604   -3.5188    3.0051 F   0  0  0  0  0  0  0  0  0  0  0  0
    0.6394   -2.7084    3.6005 F   0  0  0  0  0  0  0  0  0  0  0  0
    0.7872   -4.0603    1.8797 F   0  0  0  0  0  0  0  0  0  0  0  0
    0.5052   -1.2772    1.0608 N   0  0  0  0  0  0  0  0  0  0  0  0
   -0.7990   -1.5916    1.2044 N   0  0  0  0  0  0  0  0  0  0  0  0
   -5.4264   -1.3063   -1.0779 H   0  0  0  0  0  0  0  0  0  0  0  0
   -4.7019   -0.7681   -2.5944 H   0  0  0  0  0  0  0  0  0  0  0  0
   -6.2935   -0.1624   -2.1037 H   0  0  0  0  0  0  0  0  0  0  0  0
   -5.5866    0.3191    0.9160 H   0  0  0  0  0  0  0  0  0  0  0  0
   -4.9737    1.9664    0.7584 H   0  0  0  0  0  0  0  0  0  0  0  0
   -6.4573    1.4844   -0.0826 H   0  0  0  0  0  0  0  0  0  0  0  0
   -3.9783    1.6852   -2.8751 H   0  0  0  0  0  0  0  0  0  0  0  0
   -5.5659    2.2334   -2.3099 H   0  0  0  0  0  0  0  0  0  0  0  0
   -4.0891    2.7986   -1.5099 H   0  0  0  0  0  0  0  0  0  0  0  0
   -2.4821    0.9430   -0.9980 H   0  0  0  0  0  0  0  0  0  0  0  0
    5.1278    0.0207    2.0510 H   0  0  0  0  0  0  0  0  0  0  0  0
    7.3231    0.9329    1.4270 H   0  0  0  0  0  0  0  0  0  0  0  0
    7.7074    1.8337   -0.8501 H   0  0  0  0  0  0  0  0  0  0  0  0
    5.8714    1.8186   -2.5191 H   0  0  0  0  0  0  0  0  0  0  0  0
    3.6610    0.8886   -1.9263 H   0  0  0  0  0  0  0  0  0  0  0  0
    3.7598   -1.8157    1.7224 H   0  0  0  0  0  0  0  0  0  0  0  0
  1  2  1  0
  2  3  1  0
  2  4  1  0
  2  5  1  0
  5  6  1  0
  6  7  2  0
  6  8  1  0
  8  9  1  0
  9 10  2  0
 10 11  1  0
 11 12  2  0
 12 13  1  0
 13 14  2  0
 14 15  1  0
 15 16  2  0
 16 17  1  0
 17 18  2  0
 12 19  1  0
 19 20  2  0
 20 21  1  0
 21 22  1  0
 21 23  1  0
 21 24  1  0
 20 25  1  0
 25 26  1  0
 26  8  2  0
 25 10  1  0
 18 13  1  0
  1 27  1  0
  1 28  1  0
  1 29  1  0
  3 30  1  0
  3 31  1  0
  3 32  1  0
  4 33  1  0
  4 34  1  0
  4 35  1  0
  5 36  1  0
 14 37  1  0
 15 38  1  0
 16 39  1  0
 17 40  1  0
 18 41  1  0
 19 42  1  0
M  END
$$$$
