
     RDKit          3D

 60 62  0  0  0  0  0  0  0  0999 V2000
    7.3605    2.2070   -2.6097 C   0  0  0  0  0  0  0  0  0  0  0  0
    6.2978    1.8838   -3.4986 O   0  0  0  0  0  0  0  0  0  0  0  0
    5.1837    1.3129   -2.9493 C   0  0  0  0  0  0  0  0  0  0  0  0
    4.9719    1.0605   -1.5935 C   0  0  0  0  0  0  0  0  0  0  0  0
    3.7789    0.4638   -1.1604 C   0  0  0  0  0  0  0  0  0  0  0  0
    2.7828    0.1199   -2.0816 C   0  0  0  0  0  0  0  0  0  0  0  0
    1.4848   -0.5064   -1.6816 C   0  0  0  0  0  0  0  0  0  0  0  0
    0.7819   -1.0212   -2.5532 O   0  0  0  0  0  0  0  0  0  0  0  0
    1.0610   -0.4916   -0.2316 C   0  0  0  0  0  0  0  0  0  0  0  0
    1.5025   -1.7205    0.4966 C   0  0  0  0  0  0  0  0  0  0  0  0
    2.6482   -2.1266    0.5894 O   0  0  0  0  0  0  0  0  0  0  0  0
    0.3051   -2.4143    1.1266 C   0  0  0  0  0  0  0  0  0  0  0  0
    0.3597   -3.4573    1.7419 O   0  0  0  0  0  0  0  0  0  0  0  0
   -0.7943   -1.6434    0.8339 N   0  0  0  0  0  0  0  0  0  0  0  0
   -2.1591   -2.1033    1.0696 C   0  0  0  0  0  0  0  0  0  0  0  0
   -2.6698   -3.0451   -0.0399 C   0  0  0  0  0  0  0  0  0  0  0  0
   -4.0697   -3.4717    0.1519 N   0  0  0  0  0  0  0  0  0  0  0  0
   -5.0131   -2.3890   -0.1398 C   0  0  0  0  0  0  0  0  0  0  0  0
   -4.3618   -4.6241   -0.7072 C   0  0  0  0  0  0  0  0  0  0  0  0
   -0.4776   -0.5548   -0.0828 C   0  0  0  0  0  0  0  0  0  0  0  0
   -1.0640    0.7748    0.3682 C   0  0  0  0  0  0  0  0  0  0  0  0
   -1.9296    1.4637   -0.4948 C   0  0  0  0  0  0  0  0  0  0  0  0
   -2.4805    2.6871   -0.1179 C   0  0  0  0  0  0  0  0  0  0  0  0
   -2.1694    3.2504    1.1213 C   0  0  0  0  0  0  0  0  0  0  0  0
   -1.3056    2.5933    2.0011 C   0  0  0  0  0  0  0  0  0  0  0  0
   -0.9092    3.0913    3.2144 O   0  0  0  0  0  0  0  0  0  0  0  0
   -1.4641    4.3320    3.6335 C   0  0  0  0  0  0  0  0  0  0  0  0
   -0.7729    1.3445    1.6252 C   0  0  0  0  0  0  0  0  0  0  0  0
    0.1152    0.6628    2.4265 O   0  0  0  0  0  0  0  0  0  0  0  0
   -0.4647    0.2785    3.6758 C   0  0  0  0  0  0  0  0  0  0  0  0
    3.0023    0.3696   -3.4420 C   0  0  0  0  0  0  0  0  0  0  0  0
    4.1931    0.9638   -3.8686 C   0  0  0  0  0  0  0  0  0  0  0  0
    8.1735    2.6355   -3.2032 H   0  0  0  0  0  0  0  0  0  0  0  0
    7.0487    2.9608   -1.8797 H   0  0  0  0  0  0  0  0  0  0  0  0
    7.7462    1.3102   -2.1132 H   0  0  0  0  0  0  0  0  0  0  0  0
    5.7185    1.3059   -0.8439 H   0  0  0  0  0  0  0  0  0  0  0  0
    3.6733    0.2624   -0.0974 H   0  0  0  0  0  0  0  0  0  0  0  0
    1.4695    0.3903    0.2706 H   0  0  0  0  0  0  0  0  0  0  0  0
   -2.1704   -2.6422    2.0249 H   0  0  0  0  0  0  0  0  0  0  0  0
   -2.7956   -1.2215    1.1833 H   0  0  0  0  0  0  0  0  0  0  0  0
   -2.0168   -3.9285   -0.0353 H   0  0  0  0  0  0  0  0  0  0  0  0
   -2.5432   -2.5788   -1.0256 H   0  0  0  0  0  0  0  0  0  0  0  0
   -4.8734   -1.5438    0.5401 H   0  0  0  0  0  0  0  0  0  0  0  0
   -6.0446   -2.7280    0.0078 H   0  0  0  0  0  0  0  0  0  0  0  0
   -4.9180   -2.0241   -1.1691 H   0  0  0  0  0  0  0  0  0  0  0  0
   -4.2180   -4.3953   -1.7696 H   0  0  0  0  0  0  0  0  0  0  0  0
   -5.3943   -4.9621   -0.5632 H   0  0  0  0  0  0  0  0  0  0  0  0
   -3.7195   -5.4711   -0.4441 H   0  0  0  0  0  0  0  0  0  0  0  0
   -0.9538   -0.8318   -1.0300 H   0  0  0  0  0  0  0  0  0  0  0  0
   -2.1814    1.0537   -1.4716 H   0  0  0  0  0  0  0  0  0  0  0  0
   -3.1488    3.2113   -0.7972 H   0  0  0  0  0  0  0  0  0  0  0  0
   -2.6099    4.2122    1.3629 H   0  0  0  0  0  0  0  0  0  0  0  0
   -1.0588    4.5608    4.6244 H   0  0  0  0  0  0  0  0  0  0  0  0
   -1.1720    5.1436    2.9584 H   0  0  0  0  0  0  0  0  0  0  0  0
   -2.5539    4.2656    3.7274 H   0  0  0  0  0  0  0  0  0  0  0  0
   -1.5517    0.1537    3.6214 H   0  0  0  0  0  0  0  0  0  0  0  0
   -0.2007    1.0032    4.4500 H   0  0  0  0  0  0  0  0  0  0  0  0
   -0.0312   -0.6847    3.9608 H   0  0  0  0  0  0  0  0  0  0  0  0
    2.2508    0.1029   -4.1832 H   0  0  0  0  0  0  0  0  0  0  0  0
    4.3518    1.1494   -4.9289 H   0  0  0  0  0  0  0  0  0  0  0  0
  1  2  1  0
  2  3  1  0
  3  4  2  0
  4  5  1  0
  5  6  2  0
  6  7  1  0
  7  8  2  0
  7  9  1  0
  9 10  1  0
 10 11  2  0
 10 12  1  0
 12 13  2  0
 12 14  1  0
 14 15  1  0
 15 16  1  0
 16 17  1  0
 17 18  1  0
 17 19  1  0
 14 20  1  0
 20 21  1  0
 21 22  2  0
 22 23  1  0
 23 24  2  0
 24 25  1  0
 25 26  1  0
 26 27  1  0
 25 28  2  0
 28 29  1  0
 29 30  1  0
  6 31  1  0
 31 32  2  0
 32  3  1  0
 20  9  1  0
 28 21  1  0
  1 33  1  0
  1 34  1  0
  1 35  1  0
  4 36  1  0
  5 37  1  0
  9 38  1  0
 15 39  1  0
 15 40  1  0
 16 41  1  0
 16 42  1  0
 18 43  1  0
 18 44  1  0
 18 45  1  0
 19 46  1  0
 19 47  1  0
 19 48  1  0
 20 49  1  0
 22 50  1  0
 23 51  1  0
 24 52  1  0
 27 53  1  0
 27 54  1  0
 27 55  1  0
 30 56  1  0
 30 57  1  0
 30 58  1  0
 31 59  1  0
 32 60  1  0
M  END
$$$$
