
     RDKit          3D

 44 46  0  0  0  0  0  0  0  0999 V2000
    4.3284    0.7743   -2.0407 C   0  0  0  0  0  0  0  0  0  0  0  0
    3.8566    0.1179   -0.7279 C   0  0  0  0  0  0  0  0  0  0  0  0
    5.0927   -0.1903    0.1290 C   0  0  0  0  0  0  0  0  0  0  0  0
    3.1082   -1.1795   -1.0578 C   0  0  0  0  0  0  0  0  0  0  0  0
    2.8930    1.0786    0.0107 C   0  0  0  0  0  0  0  0  0  0  0  0
    2.3500    2.0079   -0.5979 O   0  0  0  0  0  0  0  0  0  0  0  0
    2.6711    0.8341    1.5019 C   0  0  0  0  0  0  0  0  0  0  0  0
    1.2060    1.6950    2.1588 S   0  0  0  0  0  0  0  0  0  0  0  0
   -0.1170    0.8038    1.3342 C   0  0  0  0  0  0  0  0  0  0  0  0
    0.2439   -0.3735    0.7529 N   0  0  0  0  0  0  0  0  0  0  0  0
   -0.7352   -1.0668    0.1564 C   0  0  0  0  0  0  0  0  0  0  0  0
   -2.0609   -0.6719    0.0976 C   0  0  0  0  0  0  0  0  0  0  0  0
   -2.4404    0.5189    0.7050 C   0  0  0  0  0  0  0  0  0  0  0  0
   -3.8426    0.9393    0.6851 C   0  0  0  0  0  0  0  0  0  0  0  0
   -4.4769    1.8255   -0.1630 C   0  0  0  0  0  0  0  0  0  0  0  0
   -5.8629    1.9690    0.1462 C   0  0  0  0  0  0  0  0  0  0  0  0
   -6.2387    1.1903    1.2188 C   0  0  0  0  0  0  0  0  0  0  0  0
   -4.9217    0.3036    1.8573 S   0  0  0  0  0  0  0  0  0  0  0  0
   -1.4401    1.2828    1.3425 C   0  0  0  0  0  0  0  0  0  0  0  0
   -1.7752    2.5124    2.0030 C   0  0  0  0  0  0  0  0  0  0  0  0
   -2.0685    3.5008    2.5382 N   0  0  0  0  0  0  0  0  0  0  0  0
   -2.8656   -1.6619   -0.6858 C   0  0  0  0  0  0  0  0  0  0  0  0
   -1.9620   -2.9026   -0.6145 C   0  0  0  0  0  0  0  0  0  0  0  0
   -0.5253   -2.3754   -0.5581 C   0  0  0  0  0  0  0  0  0  0  0  0
    4.8044    1.7435   -1.8443 H   0  0  0  0  0  0  0  0  0  0  0  0
    3.4888    0.9539   -2.7231 H   0  0  0  0  0  0  0  0  0  0  0  0
    5.0504    0.1400   -2.5645 H   0  0  0  0  0  0  0  0  0  0  0  0
    5.8468   -0.7439   -0.4431 H   0  0  0  0  0  0  0  0  0  0  0  0
    4.8399   -0.8006    0.9996 H   0  0  0  0  0  0  0  0  0  0  0  0
    5.5573    0.7337    0.4997 H   0  0  0  0  0  0  0  0  0  0  0  0
    2.2174   -0.9765   -1.6618 H   0  0  0  0  0  0  0  0  0  0  0  0
    2.7752   -1.6975   -0.1478 H   0  0  0  0  0  0  0  0  0  0  0  0
    3.7401   -1.8739   -1.6181 H   0  0  0  0  0  0  0  0  0  0  0  0
    2.5886   -0.2363    1.7162 H   0  0  0  0  0  0  0  0  0  0  0  0
    3.5458    1.2199    2.0348 H   0  0  0  0  0  0  0  0  0  0  0  0
   -3.9787    2.3503   -0.9675 H   0  0  0  0  0  0  0  0  0  0  0  0
   -6.5486    2.6203   -0.3891 H   0  0  0  0  0  0  0  0  0  0  0  0
   -7.2204    1.1089    1.6706 H   0  0  0  0  0  0  0  0  0  0  0  0
   -2.9767   -1.3209   -1.7197 H   0  0  0  0  0  0  0  0  0  0  0  0
   -3.8456   -1.8696   -0.2479 H   0  0  0  0  0  0  0  0  0  0  0  0
   -2.1261   -3.5892   -1.4528 H   0  0  0  0  0  0  0  0  0  0  0  0
   -2.1831   -3.4504    0.3130 H   0  0  0  0  0  0  0  0  0  0  0  0
    0.1349   -3.0494   -0.0067 H   0  0  0  0  0  0  0  0  0  0  0  0
   -0.1277   -2.1946   -1.5598 H   0  0  0  0  0  0  0  0  0  0  0  0
  1  2  1  0
  2  3  1  0
  2  4  1  0
  2  5  1  0
  5  6  2  0
  5  7  1  0
  7  8  1  0
  8  9  1  0
  9 10  2  0
 10 11  1  0
 11 12  2  0
 12 13  1  0
 13 14  1  0
 14 15  2  0
 15 16  1  0
 16 17  2  0
 17 18  1  0
 13 19  2  0
 19 20  1  0
 20 21  3  0
 12 22  1  0
 22 23  1  0
 23 24  1  0
 19  9  1  0
 24 11  1  0
 18 14  1  0
  1 25  1  0
  1 26  1  0
  1 27  1  0
  3 28  1  0
  3 29  1  0
  3 30  1  0
  4 31  1  0
  4 32  1  0
  4 33  1  0
  7 34  1  0
  7 35  1  0
 15 36  1  0
 16 37  1  0
 17 38  1  0
 22 39  1  0
 22 40  1  0
 23 41  1  0
 23 42  1  0
 24 43  1  0
 24 44  1  0
M  END
$$$$
