
     RDKit          3D

 50 52  0  0  0  0  0  0  0  0999 V2000
    1.4107    4.6606   -0.6469 O   0  0  0  0  0  0  0  0  0  0  0  0
    1.5199    3.6445   -1.3052 C   0  0  0  0  0  0  0  0  0  0  0  0
    0.7862    3.4415   -2.4127 O   0  0  0  0  0  0  0  0  0  0  0  0
    2.4301    2.5123   -1.0115 C   0  0  0  0  0  0  0  0  0  0  0  0
    2.4884    1.3811   -1.8346 C   0  0  0  0  0  0  0  0  0  0  0  0
    3.3481    0.3302   -1.5134 C   0  0  0  0  0  0  0  0  0  0  0  0
    3.3482   -0.8283   -2.3386 N   0  0  0  0  0  0  0  0  0  0  0  0
    2.7970   -2.2982   -1.7140 S   0  0  0  0  0  6  0  0  0  0  0  0
    3.6384   -2.6965   -0.6080 O   0  0  0  0  0  0  0  0  0  0  0  0
    2.5757   -3.1660   -2.8502 O   0  0  0  0  0  0  0  0  0  0  0  0
    1.1976   -1.8708   -1.0634 C   0  0  0  0  0  0  0  0  0  0  0  0
    1.0333   -1.6619    0.3054 C   0  0  0  0  0  0  0  0  0  0  0  0
   -0.2246   -1.3024    0.8018 C   0  0  0  0  0  0  0  0  0  0  0  0
   -1.3471   -1.1455   -0.0370 C   0  0  0  0  0  0  0  0  0  0  0  0
   -2.5277   -0.7397    0.5941 N   0  0  0  0  0  0  0  0  0  0  0  0
   -3.3336   -1.8584    1.1155 C   0  0  0  0  0  0  0  0  0  0  0  0
   -4.2957   -1.3298    2.1806 C   0  0  0  0  0  0  0  0  0  0  0  0
   -5.1409   -0.1725    1.6499 C   0  0  0  0  0  0  0  0  0  0  0  0
   -4.2566    0.9199    1.0495 C   0  0  0  0  0  0  0  0  0  0  0  0
   -3.3184    0.3419   -0.0107 C   0  0  0  0  0  0  0  0  0  0  0  0
   -1.1417   -1.4097   -1.4030 C   0  0  0  0  0  0  0  0  0  0  0  0
   -2.2306   -1.3571   -2.3511 N   0  0  0  0  0  4  0  0  0  0  0  0
   -2.2090   -0.4274   -3.1705 O   0  0  0  0  0  0  0  0  0  0  0  0
   -3.0768   -2.2592   -2.3020 O   0  0  0  0  0  1  0  0  0  0  0  0
    0.1105   -1.7687   -1.9292 C   0  0  0  0  0  0  0  0  0  0  0  0
    4.1575    0.4028   -0.3803 C   0  0  0  0  0  0  0  0  0  0  0  0
    4.1072    1.5349    0.4425 C   0  0  0  0  0  0  0  0  0  0  0  0
    4.9477    1.6599    1.6571 C   0  0  0  0  0  0  0  0  0  0  0  0
    4.9487    2.6033    2.4246 O   0  0  0  0  0  0  0  0  0  0  0  0
    5.7435    0.5959    1.8493 O   0  0  0  0  0  0  0  0  0  0  0  0
    3.2403    2.5884    0.1270 C   0  0  0  0  0  0  0  0  0  0  0  0
    0.2366    4.2512   -2.4866 H   0  0  0  0  0  0  0  0  0  0  0  0
    1.8551    1.3174   -2.7160 H   0  0  0  0  0  0  0  0  0  0  0  0
    3.1261   -0.7219   -3.3283 H   0  0  0  0  0  0  0  0  0  0  0  0
    1.8711   -1.7621    0.9932 H   0  0  0  0  0  0  0  0  0  0  0  0
   -0.3338   -1.1184    1.8709 H   0  0  0  0  0  0  0  0  0  0  0  0
   -2.6980   -2.6269    1.5731 H   0  0  0  0  0  0  0  0  0  0  0  0
   -3.8973   -2.3345    0.3043 H   0  0  0  0  0  0  0  0  0  0  0  0
   -4.9482   -2.1390    2.5266 H   0  0  0  0  0  0  0  0  0  0  0  0
   -3.7211   -0.9843    3.0494 H   0  0  0  0  0  0  0  0  0  0  0  0
   -5.7504    0.2447    2.4590 H   0  0  0  0  0  0  0  0  0  0  0  0
   -5.8321   -0.5458    0.8844 H   0  0  0  0  0  0  0  0  0  0  0  0
   -4.8820    1.7027    0.6063 H   0  0  0  0  0  0  0  0  0  0  0  0
   -3.6666    1.3879    1.8476 H   0  0  0  0  0  0  0  0  0  0  0  0
   -2.6617    1.1402   -0.3768 H   0  0  0  0  0  0  0  0  0  0  0  0
   -3.9180   -0.0238   -0.8511 H   0  0  0  0  0  0  0  0  0  0  0  0
    0.2273   -1.9683   -2.9929 H   0  0  0  0  0  0  0  0  0  0  0  0
    4.8328   -0.4170   -0.1429 H   0  0  0  0  0  0  0  0  0  0  0  0
    6.2367    0.8043    2.6708 H   0  0  0  0  0  0  0  0  0  0  0  0
    3.1968    3.4687    0.7689 H   0  0  0  0  0  0  0  0  0  0  0  0
  1  2  2  0
  2  3  1  0
  2  4  1  0
  4  5  2  0
  5  6  1  0
  6  7  1  0
  7  8  1  0
  8  9  2  0
  8 10  2  0
  8 11  1  0
 11 12  2  0
 12 13  1  0
 13 14  2  0
 14 15  1  0
 15 16  1  0
 16 17  1  0
 17 18  1  0
 18 19  1  0
 19 20  1  0
 14 21  1  0
 21 22  1  0
 22 23  2  0
 22 24  1  0
 21 25  2  0
  6 26  2  0
 26 27  1  0
 27 28  1  0
 28 29  2  0
 28 30  1  0
 27 31  2  0
 31  4  1  0
 25 11  1  0
 20 15  1  0
  3 32  1  0
  5 33  1  0
  7 34  1  0
 12 35  1  0
 13 36  1  0
 16 37  1  0
 16 38  1  0
 17 39  1  0
 17 40  1  0
 18 41  1  0
 18 42  1  0
 19 43  1  0
 19 44  1  0
 20 45  1  0
 20 46  1  0
 25 47  1  0
 26 48  1  0
 30 49  1  0
 31 50  1  0
M  CHG  2  22   1  24  -1
M  END
$$$$
