
     RDKit          3D

 52 54  0  0  0  0  0  0  0  0999 V2000
   -7.1284    0.2346    1.1499 C   0  0  0  0  0  0  0  0  0  0  0  0
   -6.2359   -0.2402   -0.0007 C   0  0  0  0  0  0  0  0  0  0  0  0
   -7.1017   -0.6143   -1.2056 C   0  0  0  0  0  0  0  0  0  0  0  0
   -5.3493   -1.4101    0.4738 C   0  0  0  0  0  0  0  0  0  0  0  0
   -4.3609   -1.9313   -0.5756 C   0  0  0  0  0  0  0  0  0  0  0  0
   -3.5961   -0.8804   -1.1635 O   0  0  0  0  0  0  0  0  0  0  0  0
   -2.4932   -0.4108   -0.5092 C   0  0  0  0  0  0  0  0  0  0  0  0
   -1.9408   -0.9247    0.6656 C   0  0  0  0  0  0  0  0  0  0  0  0
   -0.7957   -0.3390    1.2195 C   0  0  0  0  0  0  0  0  0  0  0  0
   -0.1922    0.7556    0.5925 C   0  0  0  0  0  0  0  0  0  0  0  0
    1.0057    1.3726    1.2148 C   0  0  0  0  0  0  0  0  0  0  0  0
    1.0077    1.5203    2.4355 O   0  0  0  0  0  0  0  0  0  0  0  0
    2.0524    1.7923    0.3888 N   0  0  0  0  0  0  0  0  0  0  0  0
    2.4601    1.0434   -0.8108 C   0  0  0  0  0  0  0  0  0  0  0  0
    3.6083    0.0573   -0.4931 C   0  0  0  0  0  0  0  0  0  0  0  0
    4.7127    0.7502    0.1924 N   0  0  0  0  0  0  0  0  0  0  0  0
    5.8604   -0.0227    0.3667 C   0  0  0  0  0  0  0  0  0  0  0  0
    6.0470   -1.0984   -0.4198 N   0  0  0  0  0  0  0  0  0  0  0  0
    7.1875   -1.7970   -0.2720 C   0  0  0  0  0  0  0  0  0  0  0  0
    8.1637   -1.4714    0.6312 C   0  0  0  0  0  0  0  0  0  0  0  0
    7.8953   -0.3677    1.3953 C   0  0  0  0  0  0  0  0  0  0  0  0
    6.7685    0.3591    1.2820 N   0  0  0  0  0  0  0  0  0  0  0  0
    4.3189    1.5314    1.3820 C   0  0  0  0  0  0  0  0  0  0  0  0
    3.1723    2.4975    1.0200 C   0  0  0  0  0  0  0  0  0  0  0  0
   -0.7612    1.2941   -0.5654 C   0  0  0  0  0  0  0  0  0  0  0  0
   -1.8988    0.7012   -1.1166 C   0  0  0  0  0  0  0  0  0  0  0  0
   -6.5237    0.5414    2.0105 H   0  0  0  0  0  0  0  0  0  0  0  0
   -7.7333    1.0959    0.8440 H   0  0  0  0  0  0  0  0  0  0  0  0
   -7.8106   -0.5570    1.4788 H   0  0  0  0  0  0  0  0  0  0  0  0
   -5.5933    0.6014   -0.2885 H   0  0  0  0  0  0  0  0  0  0  0  0
   -7.7181   -1.4932   -0.9956 H   0  0  0  0  0  0  0  0  0  0  0  0
   -7.7710    0.2087   -1.4741 H   0  0  0  0  0  0  0  0  0  0  0  0
   -6.4877   -0.8307   -2.0837 H   0  0  0  0  0  0  0  0  0  0  0  0
   -4.7861   -1.0726    1.3529 H   0  0  0  0  0  0  0  0  0  0  0  0
   -5.9786   -2.2448    0.8085 H   0  0  0  0  0  0  0  0  0  0  0  0
   -4.9200   -2.4018   -1.3931 H   0  0  0  0  0  0  0  0  0  0  0  0
   -3.7249   -2.7293   -0.1744 H   0  0  0  0  0  0  0  0  0  0  0  0
   -2.3741   -1.7734    1.1844 H   0  0  0  0  0  0  0  0  0  0  0  0
   -0.3787   -0.7347    2.1438 H   0  0  0  0  0  0  0  0  0  0  0  0
    1.6298    0.4810   -1.2438 H   0  0  0  0  0  0  0  0  0  0  0  0
    2.7920    1.7810   -1.5536 H   0  0  0  0  0  0  0  0  0  0  0  0
    3.9362   -0.3752   -1.4469 H   0  0  0  0  0  0  0  0  0  0  0  0
    3.2268   -0.7534    0.1438 H   0  0  0  0  0  0  0  0  0  0  0  0
    7.2931   -2.6521   -0.9319 H   0  0  0  0  0  0  0  0  0  0  0  0
    9.0756   -2.0389    0.7312 H   0  0  0  0  0  0  0  0  0  0  0  0
    8.5990   -0.0151    2.1431 H   0  0  0  0  0  0  0  0  0  0  0  0
    5.1520    2.1375    1.7582 H   0  0  0  0  0  0  0  0  0  0  0  0
    3.9941    0.8527    2.1830 H   0  0  0  0  0  0  0  0  0  0  0  0
    3.5274    3.2444    0.2976 H   0  0  0  0  0  0  0  0  0  0  0  0
    2.8352    3.0364    1.9128 H   0  0  0  0  0  0  0  0  0  0  0  0
   -0.3312    2.1745   -1.0367 H   0  0  0  0  0  0  0  0  0  0  0  0
   -2.3359    1.1157   -2.0232 H   0  0  0  0  0  0  0  0  0  0  0  0
  1  2  1  0
  2  3  1  0
  2  4  1  0
  4  5  1  0
  5  6  1  0
  6  7  1  0
  7  8  2  0
  8  9  1  0
  9 10  2  0
 10 11  1  0
 11 12  2  0
 11 13  1  0
 13 14  1  0
 14 15  1  0
 15 16  1  0
 16 17  1  0
 17 18  2  0
 18 19  1  0
 19 20  2  0
 20 21  1  0
 21 22  2  0
 16 23  1  0
 23 24  1  0
 10 25  1  0
 25 26  2  0
 26  7  1  0
 24 13  1  0
 22 17  1  0
  1 27  1  0
  1 28  1  0
  1 29  1  0
  2 30  1  0
  3 31  1  0
  3 32  1  0
  3 33  1  0
  4 34  1  0
  4 35  1  0
  5 36  1  0
  5 37  1  0
  8 38  1  0
  9 39  1  0
 14 40  1  0
 14 41  1  0
 15 42  1  0
 15 43  1  0
 19 44  1  0
 20 45  1  0
 21 46  1  0
 23 47  1  0
 23 48  1  0
 24 49  1  0
 24 50  1  0
 25 51  1  0
 26 52  1  0
M  END
$$$$
