
     RDKit          3D

 43 46  0  0  0  0  0  0  0  0999 V2000
    5.1251    2.2127    0.5932 C   0  0  0  0  0  0  0  0  0  0  0  0
    3.8636    1.6701    0.9846 O   0  0  0  0  0  0  0  0  0  0  0  0
    2.8190    2.1217    0.2499 C   0  0  0  0  0  0  0  0  0  0  0  0
    2.8741    2.9145   -0.6774 O   0  0  0  0  0  0  0  0  0  0  0  0
    1.5697    1.4529    0.6594 C   0  0  0  0  0  0  0  0  0  0  0  0
    1.1484    1.3491    1.9362 C   0  0  0  0  0  0  0  0  0  0  0  0
    1.8686    1.9373    3.1225 C   0  0  0  0  0  0  0  0  0  0  0  0
   -0.0402    0.7271    2.2642 N   0  0  0  0  0  0  0  0  0  0  0  0
   -0.8205    0.3912    1.2951 C   0  0  0  0  0  0  0  0  0  0  0  0
   -2.4064   -0.2720    1.5512 S   0  0  0  0  0  0  0  0  0  0  0  0
   -2.7662   -0.2525   -0.1323 C   0  0  0  0  0  0  0  0  0  0  0  0
   -3.8842   -0.6232   -0.7739 C   0  0  0  0  0  0  0  0  0  0  0  0
   -5.1225   -1.1257   -0.2689 C   0  0  0  0  0  0  0  0  0  0  0  0
   -6.1230   -1.7720   -1.0464 C   0  0  0  0  0  0  0  0  0  0  0  0
   -7.1492   -2.0790   -0.1842 C   0  0  0  0  0  0  0  0  0  0  0  0
   -6.8536   -1.6560    1.0700 O   0  0  0  0  0  0  0  0  0  0  0  0
   -5.6252   -1.0741    1.0126 C   0  0  0  0  0  0  0  0  0  0  0  0
   -1.5793    0.2408   -0.8962 C   0  0  0  0  0  0  0  0  0  0  0  0
   -1.5581    0.3778   -2.1112 O   0  0  0  0  0  0  0  0  0  0  0  0
   -0.5529    0.5243   -0.0303 N   0  0  0  0  0  0  0  0  0  0  0  0
    0.7725    0.8996   -0.4884 C   0  0  0  0  0  0  0  0  0  0  0  0
    1.4781   -0.2930   -1.1362 C   0  0  0  0  0  0  0  0  0  0  0  0
    1.7667   -1.4627   -0.4102 C   0  0  0  0  0  0  0  0  0  0  0  0
    2.4154   -2.5366   -1.0217 C   0  0  0  0  0  0  0  0  0  0  0  0
    2.7829   -2.4584   -2.3630 C   0  0  0  0  0  0  0  0  0  0  0  0
    2.5027   -1.3072   -3.0954 C   0  0  0  0  0  0  0  0  0  0  0  0
    1.8549   -0.2307   -2.4874 C   0  0  0  0  0  0  0  0  0  0  0  0
    5.1288    3.3004    0.7149 H   0  0  0  0  0  0  0  0  0  0  0  0
    5.8934    1.7886    1.2455 H   0  0  0  0  0  0  0  0  0  0  0  0
    5.3565    1.9367   -0.4404 H   0  0  0  0  0  0  0  0  0  0  0  0
    2.4578    1.1648    3.6265 H   0  0  0  0  0  0  0  0  0  0  0  0
    2.5286    2.7663    2.8515 H   0  0  0  0  0  0  0  0  0  0  0  0
    1.1483    2.3406    3.8435 H   0  0  0  0  0  0  0  0  0  0  0  0
   -3.8528   -0.5489   -1.8630 H   0  0  0  0  0  0  0  0  0  0  0  0
   -6.1022   -1.9930   -2.1047 H   0  0  0  0  0  0  0  0  0  0  0  0
   -8.1070   -2.5668   -0.3003 H   0  0  0  0  0  0  0  0  0  0  0  0
   -5.2747   -0.6771    1.9546 H   0  0  0  0  0  0  0  0  0  0  0  0
    0.6214    1.6835   -1.2426 H   0  0  0  0  0  0  0  0  0  0  0  0
    1.4940   -1.5489    0.6401 H   0  0  0  0  0  0  0  0  0  0  0  0
    2.6346   -3.4355   -0.4508 H   0  0  0  0  0  0  0  0  0  0  0  0
    3.2865   -3.2959   -2.8389 H   0  0  0  0  0  0  0  0  0  0  0  0
    2.7858   -1.2474   -4.1434 H   0  0  0  0  0  0  0  0  0  0  0  0
    1.6405    0.6568   -3.0810 H   0  0  0  0  0  0  0  0  0  0  0  0
  1  2  1  0
  2  3  1  0
  3  4  2  0
  3  5  1  0
  5  6  2  0
  6  7  1  0
  6  8  1  0
  8  9  2  0
  9 10  1  0
 10 11  1  0
 11 12  2  3
 12 13  1  0
 13 14  1  0
 14 15  2  0
 15 16  1  0
 16 17  1  0
 11 18  1  0
 18 19  2  0
 18 20  1  0
 20 21  1  0
 21 22  1  0
 22 23  2  0
 23 24  1  0
 24 25  2  0
 25 26  1  0
 26 27  2  0
 21  5  1  0
 27 22  1  0
 20  9  1  0
 17 13  2  0
  1 28  1  0
  1 29  1  0
  1 30  1  0
  7 31  1  0
  7 32  1  0
  7 33  1  0
 12 34  1  0
 14 35  1  0
 15 36  1  0
 17 37  1  0
 21 38  1  0
 23 39  1  0
 24 40  1  0
 25 41  1  0
 26 42  1  0
 27 43  1  0
M  END
$$$$
