
     RDKit          3D

 43 45  0  0  0  0  0  0  0  0999 V2000
    1.9829   -3.2401    3.4570 C   0  0  0  0  0  0  0  0  0  0  0  0
    0.9102   -2.3538    3.0158 N   0  0  0  0  0  0  0  0  0  0  0  0
    1.3877   -0.9636    2.8968 C   0  0  0  0  0  0  0  0  0  0  0  0
    0.5154   -0.0918    1.9735 C   0  0  0  0  0  0  0  0  0  0  0  0
    0.4396   -0.6421    0.6151 N   0  0  0  0  0  0  0  0  0  0  0  0
   -0.0632    0.0364   -0.4803 C   0  0  0  0  0  0  0  0  0  0  0  0
   -0.2582   -0.4460   -1.5917 O   0  0  0  0  0  0  0  0  0  0  0  0
   -0.4595    1.4921   -0.3019 C   0  0  0  0  0  0  0  0  0  0  0  0
    0.6279    2.5385   -0.3501 C   0  0  0  0  0  0  0  0  0  0  0  0
    1.7962    2.1401   -1.2003 C   0  0  0  0  0  0  0  0  0  0  0  0
    1.8315    1.8987   -2.5626 C   0  0  0  0  0  0  0  0  0  0  0  0
    3.1417    1.5495   -3.0216 C   0  0  0  0  0  0  0  0  0  0  0  0
    4.0638    1.5524   -1.9983 C   0  0  0  0  0  0  0  0  0  0  0  0
    3.3553    1.9550   -0.4941 S   0  0  0  0  0  0  0  0  0  0  0  0
   -1.6914    1.8735   -0.0975 N   0  0  0  0  0  0  0  0  0  0  0  0
   -2.6336    0.8774   -0.0197 C   0  0  0  0  0  0  0  0  0  0  0  0
   -2.6624    0.0621    0.8919 O   0  0  0  0  0  0  0  0  0  0  0  0
   -3.5781    0.9422   -1.1163 C   0  0  0  0  0  0  0  0  0  0  0  0
   -3.7050    1.7936   -2.2002 C   0  0  0  0  0  0  0  0  0  0  0  0
   -4.8068    1.3298   -2.9689 C   0  0  0  0  0  0  0  0  0  0  0  0
   -5.2946    0.2312   -2.3045 C   0  0  0  0  0  0  0  0  0  0  0  0
   -4.5686   -0.0065   -1.1813 O   0  0  0  0  0  0  0  0  0  0  0  0
    0.6684   -2.0838    0.4947 C   0  0  0  0  0  0  0  0  0  0  0  0
    0.2672   -2.8395    1.7752 C   0  0  0  0  0  0  0  0  0  0  0  0
    2.7660   -3.3529    2.6974 H   0  0  0  0  0  0  0  0  0  0  0  0
    1.5834   -4.2315    3.6938 H   0  0  0  0  0  0  0  0  0  0  0  0
    2.4434   -2.8644    4.3763 H   0  0  0  0  0  0  0  0  0  0  0  0
    1.4095   -0.5125    3.8946 H   0  0  0  0  0  0  0  0  0  0  0  0
    2.4168   -0.9438    2.5076 H   0  0  0  0  0  0  0  0  0  0  0  0
    0.9227    0.9182    1.9383 H   0  0  0  0  0  0  0  0  0  0  0  0
   -0.5050   -0.0196    2.3694 H   0  0  0  0  0  0  0  0  0  0  0  0
    0.1976    3.4712   -0.7529 H   0  0  0  0  0  0  0  0  0  0  0  0
    0.9274    2.7508    0.6876 H   0  0  0  0  0  0  0  0  0  0  0  0
    0.9550    1.9516   -3.2031 H   0  0  0  0  0  0  0  0  0  0  0  0
    3.3904    1.3197   -4.0479 H   0  0  0  0  0  0  0  0  0  0  0  0
    5.1222    1.3395   -2.0626 H   0  0  0  0  0  0  0  0  0  0  0  0
   -3.0650    2.6383   -2.4201 H   0  0  0  0  0  0  0  0  0  0  0  0
   -5.1828    1.7391   -3.8964 H   0  0  0  0  0  0  0  0  0  0  0  0
   -6.1087   -0.4604   -2.4923 H   0  0  0  0  0  0  0  0  0  0  0  0
    0.1115   -2.4902   -0.3567 H   0  0  0  0  0  0  0  0  0  0  0  0
    1.7355   -2.2253    0.2894 H   0  0  0  0  0  0  0  0  0  0  0  0
   -0.8175   -2.7172    1.9120 H   0  0  0  0  0  0  0  0  0  0  0  0
    0.4310   -3.9157    1.6346 H   0  0  0  0  0  0  0  0  0  0  0  0
  1  2  1  0
  2  3  1  0
  3  4  1  0
  4  5  1  0
  5  6  1  0
  6  7  2  0
  6  8  1  0
  8  9  1  0
  9 10  1  0
 10 11  2  0
 11 12  1  0
 12 13  2  0
 13 14  1  0
  8 15  2  3
 15 16  1  0
 16 17  2  0
 16 18  1  0
 18 19  2  0
 19 20  1  0
 20 21  2  0
 21 22  1  0
  5 23  1  0
 23 24  1  0
 24  2  1  0
 14 10  1  0
 22 18  1  0
  1 25  1  0
  1 26  1  0
  1 27  1  0
  3 28  1  0
  3 29  1  0
  4 30  1  0
  4 31  1  0
  9 32  1  0
  9 33  1  0
 11 34  1  0
 12 35  1  0
 13 36  1  0
 19 37  1  0
 20 38  1  0
 21 39  1  0
 23 40  1  0
 23 41  1  0
 24 42  1  0
 24 43  1  0
M  END
$$$$
