
     RDKit          3D

 46 48  0  0  0  0  0  0  0  0999 V2000
    5.3935    1.6708   -2.3111 C   0  0  0  0  0  0  0  0  0  0  0  0
    5.0015    0.3131   -2.1543 O   0  0  0  0  0  0  0  0  0  0  0  0
    3.9450    0.0687   -1.3224 C   0  0  0  0  0  0  0  0  0  0  0  0
    3.1183    1.0265   -0.7424 C   0  0  0  0  0  0  0  0  0  0  0  0
    2.0586    0.6322    0.0830 C   0  0  0  0  0  0  0  0  0  0  0  0
    1.7979   -0.7276    0.3418 C   0  0  0  0  0  0  0  0  0  0  0  0
    0.6443   -1.1033    1.2684 C   0  0  0  0  0  0  0  0  0  0  0  0
    0.4908   -2.5838    1.6369 C   0  0  0  0  0  0  0  0  0  0  0  0
   -0.6570   -0.5369    0.8288 N   0  0  0  0  0  0  0  0  0  0  0  0
   -1.5013    0.2000    1.6721 C   0  0  0  0  0  0  0  0  0  0  0  0
   -1.1921    0.3893    3.1203 C   0  0  0  0  0  0  0  0  0  0  0  0
   -2.5438    0.6594    0.8893 C   0  0  0  0  0  0  0  0  0  0  0  0
   -3.6184    1.4935    1.2625 C   0  0  0  0  0  0  0  0  0  0  0  0
   -3.9485    2.1200    2.5694 C   0  0  0  0  0  0  0  0  0  0  0  0
   -4.4596    1.7376    0.2096 N   0  0  0  0  0  0  0  0  0  0  0  0
   -4.2691    1.2108   -1.1409 N   0  0  0  0  0  0  0  0  0  0  0  0
   -3.2270    0.4062   -1.5157 C   0  0  0  0  0  0  0  0  0  0  0  0
   -3.1569   -0.0321   -2.9342 C   0  0  0  0  0  0  0  0  0  0  0  0
   -2.3619    0.1373   -0.4361 C   0  0  0  0  0  0  0  0  0  0  0  0
   -1.2256   -0.6508   -0.4416 C   0  0  0  0  0  0  0  0  0  0  0  0
   -0.6320   -1.4585   -1.5468 C   0  0  0  0  0  0  0  0  0  0  0  0
    2.6441   -1.6781   -0.2437 C   0  0  0  0  0  0  0  0  0  0  0  0
    3.6978   -1.2818   -1.0733 C   0  0  0  0  0  0  0  0  0  0  0  0
    4.6047    2.2592   -2.7886 H   0  0  0  0  0  0  0  0  0  0  0  0
    5.6872    2.1083   -1.3516 H   0  0  0  0  0  0  0  0  0  0  0  0
    6.2666    1.6924   -2.9692 H   0  0  0  0  0  0  0  0  0  0  0  0
    3.2625    2.0874   -0.9143 H   0  0  0  0  0  0  0  0  0  0  0  0
    1.4234    1.4040    0.5161 H   0  0  0  0  0  0  0  0  0  0  0  0
    0.8959   -0.5932    2.2043 H   0  0  0  0  0  0  0  0  0  0  0  0
   -0.3182   -2.7208    2.3596 H   0  0  0  0  0  0  0  0  0  0  0  0
    0.2623   -3.2119    0.7718 H   0  0  0  0  0  0  0  0  0  0  0  0
    1.4068   -2.9689    2.0940 H   0  0  0  0  0  0  0  0  0  0  0  0
   -2.0259    0.8077    3.6825 H   0  0  0  0  0  0  0  0  0  0  0  0
   -0.9535   -0.5656    3.5948 H   0  0  0  0  0  0  0  0  0  0  0  0
   -0.3404    1.0626    3.2422 H   0  0  0  0  0  0  0  0  0  0  0  0
   -4.8245    2.7685    2.4813 H   0  0  0  0  0  0  0  0  0  0  0  0
   -3.1168    2.7356    2.9202 H   0  0  0  0  0  0  0  0  0  0  0  0
   -4.1783    1.3519    3.3106 H   0  0  0  0  0  0  0  0  0  0  0  0
   -3.3315   -1.1095   -3.0115 H   0  0  0  0  0  0  0  0  0  0  0  0
   -2.1805    0.2104   -3.3640 H   0  0  0  0  0  0  0  0  0  0  0  0
   -3.9188    0.4764   -3.5335 H   0  0  0  0  0  0  0  0  0  0  0  0
   -0.0644   -0.8126   -2.2222 H   0  0  0  0  0  0  0  0  0  0  0  0
   -1.4128   -1.9615   -2.1236 H   0  0  0  0  0  0  0  0  0  0  0  0
    0.0224   -2.2552   -1.1962 H   0  0  0  0  0  0  0  0  0  0  0  0
    2.4995   -2.7422   -0.0800 H   0  0  0  0  0  0  0  0  0  0  0  0
    4.3355   -2.0357   -1.5281 H   0  0  0  0  0  0  0  0  0  0  0  0
  1  2  1  0
  2  3  1  0
  3  4  2  0
  4  5  1  0
  5  6  2  0
  6  7  1  0
  7  8  1  0
  7  9  1  0
  9 10  1  0
 10 11  1  0
 10 12  2  0
 12 13  1  0
 13 14  1  0
 13 15  2  0
 15 16  1  0
 16 17  2  0
 17 18  1  0
 17 19  1  0
 19 20  2  0
 20 21  1  0
  6 22  1  0
 22 23  2  0
 23  3  1  0
 20  9  1  0
 19 12  1  0
  1 24  1  0
  1 25  1  0
  1 26  1  0
  4 27  1  0
  5 28  1  0
  7 29  1  0
  8 30  1  0
  8 31  1  0
  8 32  1  0
 11 33  1  0
 11 34  1  0
 11 35  1  0
 14 36  1  0
 14 37  1  0
 14 38  1  0
 18 39  1  0
 18 40  1  0
 18 41  1  0
 21 42  1  0
 21 43  1  0
 21 44  1  0
 22 45  1  0
 23 46  1  0
M  END
$$$$
