
     RDKit          3D

 67 72  0  0  0  0  0  0  0  0999 V2000
   -3.5551    0.7245    1.3621 O   0  0  0  0  0  0  0  0  0  0  0  0
   -2.9205   -0.0175    0.6148 C   0  0  0  0  0  0  0  0  0  0  0  0
   -3.5853   -0.8177   -0.5312 C   0  0  0  0  0  0  0  0  0  0  0  0
   -5.1161   -0.8759   -0.3940 C   0  0  0  0  0  0  0  0  0  0  0  0
   -5.8173    0.3741   -0.8746 C   0  0  0  0  0  0  0  0  0  0  0  0
   -5.9109    0.6667   -2.2430 C   0  0  0  0  0  0  0  0  0  0  0  0
   -6.5505    1.8295   -2.6772 C   0  0  0  0  0  0  0  0  0  0  0  0
   -7.1066    2.7078   -1.7477 C   0  0  0  0  0  0  0  0  0  0  0  0
   -7.0253    2.4247   -0.3854 C   0  0  0  0  0  0  0  0  0  0  0  0
   -6.3842    1.2642    0.0479 C   0  0  0  0  0  0  0  0  0  0  0  0
   -3.0533   -2.1833   -0.5289 N   0  0  0  0  0  0  0  0  0  0  0  0
   -1.6585   -2.1912   -0.6684 C   0  0  0  0  0  0  0  0  0  0  0  0
   -1.1769   -3.2327   -1.3587 N   0  0  0  0  0  0  0  0  0  0  0  0
    0.1505   -3.2942   -1.4565 C   0  0  0  0  0  0  0  0  0  0  0  0
    1.0150   -2.4001   -0.9685 N   0  0  0  0  0  0  0  0  0  0  0  0
    0.5120   -1.3375   -0.2960 C   0  0  0  0  0  0  0  0  0  0  0  0
    1.4342   -0.3219    0.0537 N   0  0  0  0  0  0  0  0  0  0  0  0
    1.5192    0.6622   -1.0608 C   0  0  0  0  0  0  0  0  0  0  0  0
    2.8624    1.4278   -1.0504 C   0  0  0  0  0  0  0  0  0  0  0  0
    3.9966    0.5051   -1.2325 N   0  0  0  0  0  0  0  0  0  0  0  0
    5.2784    0.9754   -1.4838 C   0  0  0  0  0  0  0  0  0  0  0  0
    5.6194    2.3328   -1.3731 C   0  0  0  0  0  0  0  0  0  0  0  0
    6.9148    2.7997   -1.6323 C   0  0  0  0  0  0  0  0  0  0  0  0
    7.9104    1.9123   -2.0216 C   0  0  0  0  0  0  0  0  0  0  0  0
    7.6047    0.5641   -2.1584 C   0  0  0  0  0  0  0  0  0  0  0  0
    6.3063    0.1103   -1.8999 C   0  0  0  0  0  0  0  0  0  0  0  0
    3.8040   -0.8619   -0.6903 C   0  0  0  0  0  0  0  0  0  0  0  0
    2.7585   -0.8773    0.4481 C   0  0  0  0  0  0  0  0  0  0  0  0
   -0.8657   -1.1946   -0.0782 C   0  0  0  0  0  0  0  0  0  0  0  0
   -1.5190   -0.1538    0.6843 N   0  0  0  0  0  0  0  0  0  0  0  0
   -0.8196    0.5598    1.7506 C   0  0  0  0  0  0  0  0  0  0  0  0
   -0.4282   -0.3053    2.9331 C   0  0  0  0  0  0  0  0  0  0  0  0
    0.8536   -0.1874    3.4907 C   0  0  0  0  0  0  0  0  0  0  0  0
    1.2262   -0.9578    4.5951 C   0  0  0  0  0  0  0  0  0  0  0  0
    0.3145   -1.8423    5.1659 C   0  0  0  0  0  0  0  0  0  0  0  0
   -0.9696   -1.9522    4.6383 C   0  0  0  0  0  0  0  0  0  0  0  0
   -1.3418   -1.1858    3.5312 C   0  0  0  0  0  0  0  0  0  0  0  0
   -3.3173   -0.3217   -1.4761 H   0  0  0  0  0  0  0  0  0  0  0  0
   -5.3977   -1.0930    0.6451 H   0  0  0  0  0  0  0  0  0  0  0  0
   -5.5151   -1.7145   -0.9798 H   0  0  0  0  0  0  0  0  0  0  0  0
   -5.4867   -0.0100   -2.9838 H   0  0  0  0  0  0  0  0  0  0  0  0
   -6.6180    2.0502   -3.7397 H   0  0  0  0  0  0  0  0  0  0  0  0
   -7.6049    3.6143   -2.0819 H   0  0  0  0  0  0  0  0  0  0  0  0
   -7.4559    3.1079    0.3423 H   0  0  0  0  0  0  0  0  0  0  0  0
   -6.3161    1.0645    1.1161 H   0  0  0  0  0  0  0  0  0  0  0  0
   -3.4354   -2.8354   -1.2090 H   0  0  0  0  0  0  0  0  0  0  0  0
    0.5682   -4.1409   -1.9896 H   0  0  0  0  0  0  0  0  0  0  0  0
    0.7003    1.3858   -0.9673 H   0  0  0  0  0  0  0  0  0  0  0  0
    1.4141    0.1674   -2.0385 H   0  0  0  0  0  0  0  0  0  0  0  0
    2.9687    1.9642   -0.1008 H   0  0  0  0  0  0  0  0  0  0  0  0
    2.8408    2.1631   -1.8629 H   0  0  0  0  0  0  0  0  0  0  0  0
    4.8784    3.0677   -1.0686 H   0  0  0  0  0  0  0  0  0  0  0  0
    7.1390    3.8571   -1.5264 H   0  0  0  0  0  0  0  0  0  0  0  0
    8.9157    2.2702   -2.2210 H   0  0  0  0  0  0  0  0  0  0  0  0
    8.3710   -0.1377   -2.4766 H   0  0  0  0  0  0  0  0  0  0  0  0
    6.1038   -0.9460   -2.0566 H   0  0  0  0  0  0  0  0  0  0  0  0
    3.4975   -1.5210   -1.5101 H   0  0  0  0  0  0  0  0  0  0  0  0
    4.7331   -1.2656   -0.2722 H   0  0  0  0  0  0  0  0  0  0  0  0
    2.6722   -1.8822    0.8776 H   0  0  0  0  0  0  0  0  0  0  0  0
    3.1399   -0.2463    1.2593 H   0  0  0  0  0  0  0  0  0  0  0  0
   -1.4659    1.3563    2.1489 H   0  0  0  0  0  0  0  0  0  0  0  0
    0.0332    1.0997    1.3356 H   0  0  0  0  0  0  0  0  0  0  0  0
    1.5724    0.5058    3.0602 H   0  0  0  0  0  0  0  0  0  0  0  0
    2.2248   -0.8593    5.0118 H   0  0  0  0  0  0  0  0  0  0  0  0
    0.6034   -2.4408    6.0264 H   0  0  0  0  0  0  0  0  0  0  0  0
   -1.6871   -2.6333    5.0888 H   0  0  0  0  0  0  0  0  0  0  0  0
   -2.3523   -1.2773    3.1446 H   0  0  0  0  0  0  0  0  0  0  0  0
  1  2  2  0
  2  3  1  0
  3  4  1  0
  4  5  1  0
  5  6  2  0
  6  7  1  0
  7  8  2  0
  8  9  1  0
  9 10  2  0
  3 11  1  0
 11 12  1  0
 12 13  2  0
 13 14  1  0
 14 15  2  0
 15 16  1  0
 16 17  1  0
 17 18  1  0
 18 19  1  0
 19 20  1  0
 20 21  1  0
 21 22  2  0
 22 23  1  0
 23 24  2  0
 24 25  1  0
 25 26  2  0
 20 27  1  0
 27 28  1  0
 16 29  2  0
 29 30  1  0
 30 31  1  0
 31 32  1  0
 32 33  2  0
 33 34  1  0
 34 35  2  0
 35 36  1  0
 36 37  2  0
 30  2  1  0
 37 32  1  0
 10  5  1  0
 29 12  1  0
 28 17  1  0
 26 21  1  0
  3 38  1  0
  4 39  1  0
  4 40  1  0
  6 41  1  0
  7 42  1  0
  8 43  1  0
  9 44  1  0
 10 45  1  0
 11 46  1  0
 14 47  1  0
 18 48  1  0
 18 49  1  0
 19 50  1  0
 19 51  1  0
 22 52  1  0
 23 53  1  0
 24 54  1  0
 25 55  1  0
 26 56  1  0
 27 57  1  0
 27 58  1  0
 28 59  1  0
 28 60  1  0
 31 61  1  0
 31 62  1  0
 33 63  1  0
 34 64  1  0
 35 65  1  0
 36 66  1  0
 37 67  1  0
M  END
$$$$
