
     RDKit          3D

 35 37  0  0  0  0  0  0  0  0999 V2000
   -3.1803   -2.4011    0.3035 C   0  0  0  0  0  0  0  0  0  0  0  0
   -3.8179   -1.0384    0.2840 C   0  0  0  0  0  0  0  0  0  0  0  0
   -5.1737   -0.9198    0.6334 C   0  0  0  0  0  0  0  0  0  0  0  0
   -5.8108    0.3208    0.6254 C   0  0  0  0  0  0  0  0  0  0  0  0
   -5.1028    1.4620    0.2670 C   0  0  0  0  0  0  0  0  0  0  0  0
   -3.7582    1.3618   -0.0877 C   0  0  0  0  0  0  0  0  0  0  0  0
   -3.0996    0.1173   -0.0930 C   0  0  0  0  0  0  0  0  0  0  0  0
   -1.6359    0.0766   -0.4807 C   0  0  0  0  0  0  0  0  0  0  0  0
   -0.5638    0.3522    0.9613 S   0  0  0  0  0  0  0  0  0  0  0  0
    1.0113    0.2499    0.2121 C   0  0  0  0  0  0  0  0  0  0  0  0
    1.1312    0.0219   -1.0570 N   0  0  0  0  0  0  0  0  0  0  0  0
    2.4021   -0.0510   -1.6041 C   0  0  0  0  0  0  0  0  0  0  0  0
    2.6097   -0.2658   -2.7929 O   0  0  0  0  0  0  0  0  0  0  0  0
    3.5495    0.1414   -0.6920 C   0  0  0  0  0  0  0  0  0  0  0  0
    3.3219    0.3719    0.5994 C   0  0  0  0  0  0  0  0  0  0  0  0
    2.0544    0.4292    1.0773 N   0  0  0  0  0  0  0  0  0  0  0  0
    4.5796    0.5402    1.3706 C   0  0  0  0  0  0  0  0  0  0  0  0
    5.6209    0.6848    0.2474 C   0  0  0  0  0  0  0  0  0  0  0  0
    4.9887    0.1123   -1.0324 C   0  0  0  0  0  0  0  0  0  0  0  0
   -2.9184   -2.7104   -0.7132 H   0  0  0  0  0  0  0  0  0  0  0  0
   -3.8589   -3.1559    0.7153 H   0  0  0  0  0  0  0  0  0  0  0  0
   -2.2833   -2.3994    0.9299 H   0  0  0  0  0  0  0  0  0  0  0  0
   -5.7460   -1.8003    0.9181 H   0  0  0  0  0  0  0  0  0  0  0  0
   -6.8593    0.3945    0.9010 H   0  0  0  0  0  0  0  0  0  0  0  0
   -5.5954    2.4305    0.2636 H   0  0  0  0  0  0  0  0  0  0  0  0
   -3.2184    2.2662   -0.3620 H   0  0  0  0  0  0  0  0  0  0  0  0
   -1.3946   -0.8809   -0.9532 H   0  0  0  0  0  0  0  0  0  0  0  0
   -1.4425    0.8524   -1.2313 H   0  0  0  0  0  0  0  0  0  0  0  0
    1.8750    0.6046    2.0570 H   0  0  0  0  0  0  0  0  0  0  0  0
    4.5660    1.4275    2.0104 H   0  0  0  0  0  0  0  0  0  0  0  0
    4.7791   -0.3439    1.9849 H   0  0  0  0  0  0  0  0  0  0  0  0
    6.5624    0.1842    0.4969 H   0  0  0  0  0  0  0  0  0  0  0  0
    5.8525    1.7477    0.0976 H   0  0  0  0  0  0  0  0  0  0  0  0
    5.2316    0.7305   -1.9014 H   0  0  0  0  0  0  0  0  0  0  0  0
    5.3241   -0.9138   -1.2146 H   0  0  0  0  0  0  0  0  0  0  0  0
  1  2  1  0
  2  3  2  0
  3  4  1  0
  4  5  2  0
  5  6  1  0
  6  7  2  0
  7  8  1  0
  8  9  1  0
  9 10  1  0
 10 11  2  0
 11 12  1  0
 12 13  2  0
 12 14  1  0
 14 15  2  0
 15 16  1  0
 15 17  1  0
 17 18  1  0
 18 19  1  0
  7  2  1  0
 16 10  1  0
 19 14  1  0
  1 20  1  0
  1 21  1  0
  1 22  1  0
  3 23  1  0
  4 24  1  0
  5 25  1  0
  6 26  1  0
  8 27  1  0
  8 28  1  0
 16 29  1  0
 17 30  1  0
 17 31  1  0
 18 32  1  0
 18 33  1  0
 19 34  1  0
 19 35  1  0
M  END
$$$$
