
     RDKit          3D

 48 50  0  0  0  0  0  0  0  0999 V2000
    8.7602   -0.4540   -0.0721 C   0  0  0  0  0  0  0  0  0  0  0  0
    7.2642   -0.4486   -0.3315 C   0  0  0  0  0  0  0  0  0  0  0  0
    6.5634    0.6768    0.4220 C   0  0  0  0  0  0  0  0  0  0  0  0
    5.1611    0.6809    0.1104 O   0  0  0  0  0  0  0  0  0  0  0  0
    4.3882   -0.1396    0.8658 C   0  0  0  0  0  0  0  0  0  0  0  0
    4.7801   -0.8677    1.7631 O   0  0  0  0  0  0  0  0  0  0  0  0
    2.9635   -0.0470    0.4452 C   0  0  0  0  0  0  0  0  0  0  0  0
    2.0281   -0.8707    1.0809 C   0  0  0  0  0  0  0  0  0  0  0  0
    0.6753   -0.8251    0.7197 C   0  0  0  0  0  0  0  0  0  0  0  0
    0.2379    0.0438   -0.2805 C   0  0  0  0  0  0  0  0  0  0  0  0
   -1.1023    0.1522   -0.7042 N   0  0  0  0  0  0  0  0  0  0  0  0
   -2.1923   -0.5795   -0.2580 C   0  0  0  0  0  0  0  0  0  0  0  0
   -2.1710   -1.4720    0.5811 O   0  0  0  0  0  0  0  0  0  0  0  0
   -3.4841   -0.1464   -0.9441 C   0  0  0  0  0  0  0  0  0  0  0  0
   -3.9133    1.2996   -0.5931 C   0  0  0  0  0  0  0  0  0  0  0  0
   -4.0576    1.4814    0.9297 C   0  0  0  0  0  0  0  0  0  0  0  0
   -5.3095    0.6577    1.2615 C   0  0  0  0  0  0  0  0  0  0  0  0
   -5.7361    0.1125   -0.1125 C   0  0  0  0  0  0  0  0  0  0  0  0
   -5.3778    1.2838   -1.0302 C   0  0  0  0  0  0  0  0  0  0  0  0
   -4.7242   -0.9802   -0.5389 C   0  0  0  0  0  0  0  0  0  0  0  0
   -5.2388   -1.8008   -1.6979 C   0  0  0  0  0  0  0  0  0  0  0  0
   -6.3815   -1.8408   -2.1202 O   0  0  0  0  0  0  0  0  0  0  0  0
   -4.2846   -2.5725   -2.2529 O   0  0  0  0  0  0  0  0  0  0  0  0
    1.1753    0.8715   -0.9126 C   0  0  0  0  0  0  0  0  0  0  0  0
    2.5284    0.8280   -0.5557 C   0  0  0  0  0  0  0  0  0  0  0  0
    8.9723   -0.5888    0.9931 H   0  0  0  0  0  0  0  0  0  0  0  0
    9.2183    0.4845   -0.3983 H   0  0  0  0  0  0  0  0  0  0  0  0
    9.2377   -1.2729   -0.6191 H   0  0  0  0  0  0  0  0  0  0  0  0
    7.0731   -0.3441   -1.4060 H   0  0  0  0  0  0  0  0  0  0  0  0
    6.8378   -1.4158   -0.0428 H   0  0  0  0  0  0  0  0  0  0  0  0
    6.9608    1.6464    0.1018 H   0  0  0  0  0  0  0  0  0  0  0  0
    6.7254    0.6071    1.5044 H   0  0  0  0  0  0  0  0  0  0  0  0
    2.3435   -1.5586    1.8639 H   0  0  0  0  0  0  0  0  0  0  0  0
   -0.0083   -1.4854    1.2448 H   0  0  0  0  0  0  0  0  0  0  0  0
   -1.2790    0.8265   -1.4382 H   0  0  0  0  0  0  0  0  0  0  0  0
   -3.3133   -0.2122   -2.0278 H   0  0  0  0  0  0  0  0  0  0  0  0
   -3.2994    2.0703   -1.0644 H   0  0  0  0  0  0  0  0  0  0  0  0
   -4.2303    2.5358    1.1745 H   0  0  0  0  0  0  0  0  0  0  0  0
   -3.1826    1.1494    1.4953 H   0  0  0  0  0  0  0  0  0  0  0  0
   -5.1015   -0.1368    1.9854 H   0  0  0  0  0  0  0  0  0  0  0  0
   -6.0860    1.3069    1.6817 H   0  0  0  0  0  0  0  0  0  0  0  0
   -6.7838   -0.1944   -0.1478 H   0  0  0  0  0  0  0  0  0  0  0  0
   -5.5111    1.0630   -2.0941 H   0  0  0  0  0  0  0  0  0  0  0  0
   -5.9133    2.2060   -0.7804 H   0  0  0  0  0  0  0  0  0  0  0  0
   -4.5507   -1.6800    0.2855 H   0  0  0  0  0  0  0  0  0  0  0  0
   -4.7613   -3.0957   -2.9308 H   0  0  0  0  0  0  0  0  0  0  0  0
    0.8706    1.5624   -1.6949 H   0  0  0  0  0  0  0  0  0  0  0  0
    3.2284    1.4832   -1.0686 H   0  0  0  0  0  0  0  0  0  0  0  0
  1  2  1  0
  2  3  1  0
  3  4  1  0
  4  5  1  0
  5  6  2  0
  5  7  1  0
  7  8  2  0
  8  9  1  0
  9 10  2  0
 10 11  1  0
 11 12  1  0
 12 13  2  0
 12 14  1  0
 14 15  1  0
 15 16  1  0
 16 17  1  0
 17 18  1  0
 18 19  1  0
 18 20  1  0
 20 21  1  0
 21 22  2  0
 21 23  1  0
 10 24  1  0
 24 25  2  0
 25  7  1  0
 20 14  1  0
 19 15  1  0
  1 26  1  0
  1 27  1  0
  1 28  1  0
  2 29  1  0
  2 30  1  0
  3 31  1  0
  3 32  1  0
  8 33  1  0
  9 34  1  0
 11 35  1  0
 14 36  1  0
 15 37  1  0
 16 38  1  0
 16 39  1  0
 17 40  1  0
 17 41  1  0
 18 42  1  0
 19 43  1  0
 19 44  1  0
 20 45  1  0
 23 46  1  0
 24 47  1  0
 25 48  1  0
M  END
$$$$
