
     RDKit          3D

 41 42  0  0  0  0  0  0  0  0999 V2000
   -4.7555   -2.9878   -0.7559 C   0  0  0  0  0  0  0  0  0  0  0  0
   -4.6021   -1.9535    0.2063 O   0  0  0  0  0  0  0  0  0  0  0  0
   -3.7978   -0.8904   -0.1302 C   0  0  0  0  0  0  0  0  0  0  0  0
   -3.3067   -0.6514   -1.4196 C   0  0  0  0  0  0  0  0  0  0  0  0
   -2.4974    0.4605   -1.6765 C   0  0  0  0  0  0  0  0  0  0  0  0
   -2.1735    1.3530   -0.6489 C   0  0  0  0  0  0  0  0  0  0  0  0
   -1.2894    2.5501   -0.9118 C   0  0  0  0  0  0  0  0  0  0  0  0
    0.0820    2.4186   -0.2895 C   0  0  0  0  0  0  0  0  0  0  0  0
    0.5077    3.1874    0.5675 O   0  0  0  0  0  0  0  0  0  0  0  0
    0.7290    1.3391   -0.8421 O   0  0  0  0  0  0  0  0  0  0  0  0
    2.0372    1.2427   -0.3301 N   0  0  0  0  0  0  0  0  0  0  0  0
    2.6108    0.1351   -0.7029 C   0  0  0  0  0  0  0  0  0  0  0  0
    1.9765   -0.8262   -1.4618 N   0  0  0  0  0  0  0  0  0  0  0  0
    4.0222   -0.1072   -0.2613 C   0  0  0  0  0  0  0  0  0  0  0  0
    4.5317    0.5784    0.8493 C   0  0  0  0  0  0  0  0  0  0  0  0
    5.8443    0.3532    1.2703 C   0  0  0  0  0  0  0  0  0  0  0  0
    6.6537   -0.5498    0.5807 C   0  0  0  0  0  0  0  0  0  0  0  0
    6.1562   -1.2273   -0.5328 C   0  0  0  0  0  0  0  0  0  0  0  0
    4.8426   -1.0071   -0.9556 C   0  0  0  0  0  0  0  0  0  0  0  0
   -2.6687    1.1164    0.6452 C   0  0  0  0  0  0  0  0  0  0  0  0
   -3.4788    0.0041    0.9125 C   0  0  0  0  0  0  0  0  0  0  0  0
   -4.0013   -0.2954    2.1473 O   0  0  0  0  0  0  0  0  0  0  0  0
   -3.6229    0.5300    3.2425 C   0  0  0  0  0  0  0  0  0  0  0  0
   -5.3291   -3.7973   -0.2887 H   0  0  0  0  0  0  0  0  0  0  0  0
   -3.7852   -3.3945   -1.0580 H   0  0  0  0  0  0  0  0  0  0  0  0
   -5.3223   -2.6327   -1.6236 H   0  0  0  0  0  0  0  0  0  0  0  0
   -3.5436   -1.3085   -2.2512 H   0  0  0  0  0  0  0  0  0  0  0  0
   -2.1310    0.6246   -2.6903 H   0  0  0  0  0  0  0  0  0  0  0  0
   -1.7735    3.4500   -0.5081 H   0  0  0  0  0  0  0  0  0  0  0  0
   -1.1652    2.7293   -1.9890 H   0  0  0  0  0  0  0  0  0  0  0  0
    2.2129   -1.7834   -1.2155 H   0  0  0  0  0  0  0  0  0  0  0  0
    0.9702   -0.6862   -1.4716 H   0  0  0  0  0  0  0  0  0  0  0  0
    3.9087    1.2889    1.3918 H   0  0  0  0  0  0  0  0  0  0  0  0
    6.2347    0.8877    2.1331 H   0  0  0  0  0  0  0  0  0  0  0  0
    7.6773   -0.7190    0.9056 H   0  0  0  0  0  0  0  0  0  0  0  0
    6.7949   -1.9198   -1.0777 H   0  0  0  0  0  0  0  0  0  0  0  0
    4.4802   -1.5222   -1.8416 H   0  0  0  0  0  0  0  0  0  0  0  0
   -2.4091    1.8217    1.4321 H   0  0  0  0  0  0  0  0  0  0  0  0
   -3.9820    1.5580    3.1078 H   0  0  0  0  0  0  0  0  0  0  0  0
   -4.0992    0.1276    4.1442 H   0  0  0  0  0  0  0  0  0  0  0  0
   -2.5383    0.5031    3.3985 H   0  0  0  0  0  0  0  0  0  0  0  0
  1  2  1  0
  2  3  1  0
  3  4  2  0
  4  5  1  0
  5  6  2  0
  6  7  1  0
  7  8  1  0
  8  9  2  0
  8 10  1  0
 10 11  1  0
 11 12  2  3
 12 13  1  0
 12 14  1  0
 14 15  2  0
 15 16  1  0
 16 17  2  0
 17 18  1  0
 18 19  2  0
  6 20  1  0
 20 21  2  0
 21 22  1  0
 22 23  1  0
 21  3  1  0
 19 14  1  0
  1 24  1  0
  1 25  1  0
  1 26  1  0
  4 27  1  0
  5 28  1  0
  7 29  1  0
  7 30  1  0
 13 31  1  0
 13 32  1  0
 15 33  1  0
 16 34  1  0
 17 35  1  0
 18 36  1  0
 19 37  1  0
 20 38  1  0
 23 39  1  0
 23 40  1  0
 23 41  1  0
M  END
$$$$
