
     RDKit          3D

 53 56  0  0  0  0  0  0  0  0999 V2000
    7.2752   -1.1739    2.4919 C   0  0  0  0  0  0  0  0  0  0  0  0
    6.8625   -2.1622    1.4150 C   0  0  0  0  0  0  0  0  0  0  0  0
    6.5417   -1.4853    0.2013 O   0  0  0  0  0  0  0  0  0  0  0  0
    5.2589   -1.0644   -0.0026 C   0  0  0  0  0  0  0  0  0  0  0  0
    4.2126   -1.1159    0.9132 C   0  0  0  0  0  0  0  0  0  0  0  0
    2.9395   -0.6375    0.5642 C   0  0  0  0  0  0  0  0  0  0  0  0
    2.6773   -0.0895   -0.7044 C   0  0  0  0  0  0  0  0  0  0  0  0
    1.3434    0.4224   -1.0885 C   0  0  0  0  0  0  0  0  0  0  0  0
    0.4408    0.9447   -0.1790 C   0  0  0  0  0  0  0  0  0  0  0  0
   -0.7950    1.3859   -0.6514 C   0  0  0  0  0  0  0  0  0  0  0  0
   -1.7376    1.9062    0.3562 C   0  0  0  0  0  0  0  0  0  0  0  0
   -1.4918    2.9989    0.8580 O   0  0  0  0  0  0  0  0  0  0  0  0
   -2.8316    1.1241    0.6991 N   0  0  0  0  0  0  0  0  0  0  0  0
   -3.0663   -0.2516    0.2377 C   0  0  0  0  0  0  0  0  0  0  0  0
   -3.9281   -1.0488    1.2339 C   0  0  0  0  0  0  0  0  0  0  0  0
   -5.2488   -0.4378    1.4797 N   0  0  0  0  0  0  0  0  0  0  0  0
   -5.8382   -0.9573    2.7107 C   0  0  0  0  0  0  0  0  0  0  0  0
   -5.2001    1.0394    1.4716 C   0  0  0  0  0  0  0  0  0  0  0  0
   -3.8013    1.6548    1.6578 C   0  0  0  0  0  0  0  0  0  0  0  0
   -1.1142    1.3575   -2.0223 C   0  0  0  0  0  0  0  0  0  0  0  0
   -2.3224    1.8417   -2.5838 C   0  0  0  0  0  0  0  0  0  0  0  0
   -2.5558    1.7641   -3.9548 C   0  0  0  0  0  0  0  0  0  0  0  0
   -1.5879    1.2098   -4.7802 C   0  0  0  0  0  0  0  0  0  0  0  0
   -0.3917    0.7436   -4.2289 C   0  0  0  0  0  0  0  0  0  0  0  0
   -0.1334    0.8115   -2.8660 C   0  0  0  0  0  0  0  0  0  0  0  0
    1.0462    0.3526   -2.4116 N   0  0  0  0  0  0  0  0  0  0  0  0
    3.7489   -0.0517   -1.6129 C   0  0  0  0  0  0  0  0  0  0  0  0
    5.0187   -0.5272   -1.2662 C   0  0  0  0  0  0  0  0  0  0  0  0
    8.1035   -0.5493    2.1411 H   0  0  0  0  0  0  0  0  0  0  0  0
    7.5907   -1.6993    3.3978 H   0  0  0  0  0  0  0  0  0  0  0  0
    6.4557   -0.4967    2.7499 H   0  0  0  0  0  0  0  0  0  0  0  0
    7.7206   -2.8065    1.1916 H   0  0  0  0  0  0  0  0  0  0  0  0
    6.0631   -2.8337    1.7466 H   0  0  0  0  0  0  0  0  0  0  0  0
    4.3446   -1.5165    1.9122 H   0  0  0  0  0  0  0  0  0  0  0  0
    2.1496   -0.7165    1.3077 H   0  0  0  0  0  0  0  0  0  0  0  0
    0.6764    1.0305    0.8761 H   0  0  0  0  0  0  0  0  0  0  0  0
   -2.1102   -0.7628    0.0894 H   0  0  0  0  0  0  0  0  0  0  0  0
   -3.5725   -0.1916   -0.7325 H   0  0  0  0  0  0  0  0  0  0  0  0
   -4.0720   -2.0653    0.8500 H   0  0  0  0  0  0  0  0  0  0  0  0
   -3.3658   -1.1319    2.1743 H   0  0  0  0  0  0  0  0  0  0  0  0
   -6.8640   -0.5913    2.8297 H   0  0  0  0  0  0  0  0  0  0  0  0
   -5.2627   -0.6675    3.5971 H   0  0  0  0  0  0  0  0  0  0  0  0
   -5.8977   -2.0509    2.6784 H   0  0  0  0  0  0  0  0  0  0  0  0
   -5.8899    1.4707    2.2076 H   0  0  0  0  0  0  0  0  0  0  0  0
   -5.5770    1.3572    0.4906 H   0  0  0  0  0  0  0  0  0  0  0  0
   -3.8589    2.7446    1.5595 H   0  0  0  0  0  0  0  0  0  0  0  0
   -3.4196    1.4340    2.6620 H   0  0  0  0  0  0  0  0  0  0  0  0
   -3.0873    2.2893   -1.9515 H   0  0  0  0  0  0  0  0  0  0  0  0
   -3.4861    2.1389   -4.3740 H   0  0  0  0  0  0  0  0  0  0  0  0
   -1.7532    1.1436   -5.8525 H   0  0  0  0  0  0  0  0  0  0  0  0
    0.3655    0.3179   -4.8842 H   0  0  0  0  0  0  0  0  0  0  0  0
    3.6008    0.3588   -2.6109 H   0  0  0  0  0  0  0  0  0  0  0  0
    5.8249   -0.4778   -1.9942 H   0  0  0  0  0  0  0  0  0  0  0  0
  1  2  1  0
  2  3  1  0
  3  4  1  0
  4  5  2  0
  5  6  1  0
  6  7  2  0
  7  8  1  0
  8  9  2  0
  9 10  1  0
 10 11  1  0
 11 12  2  0
 11 13  1  0
 13 14  1  0
 14 15  1  0
 15 16  1  0
 16 17  1  0
 16 18  1  0
 18 19  1  0
 10 20  2  0
 20 21  1  0
 21 22  2  0
 22 23  1  0
 23 24  2  0
 24 25  1  0
 25 26  2  0
  7 27  1  0
 27 28  2  0
 28  4  1  0
 26  8  1  0
 19 13  1  0
 25 20  1  0
  1 29  1  0
  1 30  1  0
  1 31  1  0
  2 32  1  0
  2 33  1  0
  5 34  1  0
  6 35  1  0
  9 36  1  0
 14 37  1  0
 14 38  1  0
 15 39  1  0
 15 40  1  0
 17 41  1  0
 17 42  1  0
 17 43  1  0
 18 44  1  0
 18 45  1  0
 19 46  1  0
 19 47  1  0
 21 48  1  0
 22 49  1  0
 23 50  1  0
 24 51  1  0
 27 52  1  0
 28 53  1  0
M  END
$$$$
