
     RDKit          3D

 34 36  0  0  0  0  0  0  0  0999 V2000
   -0.3288    1.6734    1.2576 O   0  0  0  0  0  0  0  0  0  0  0  0
   -0.4792    0.4679    1.0815 C   0  0  0  0  0  0  0  0  0  0  0  0
   -1.7948   -0.2068    1.4444 C   0  0  0  0  0  0  0  0  0  0  0  0
   -2.9226    0.1396    0.4940 C   0  0  0  0  0  0  0  0  0  0  0  0
   -3.9032    1.0408    0.9553 C   0  0  0  0  0  0  0  0  0  0  0  0
   -4.9717    1.4337    0.1450 C   0  0  0  0  0  0  0  0  0  0  0  0
   -5.0871    0.9410   -1.1504 C   0  0  0  0  0  0  0  0  0  0  0  0
   -4.1307    0.0545   -1.6407 C   0  0  0  0  0  0  0  0  0  0  0  0
   -3.0535   -0.3446   -0.8271 C   0  0  0  0  0  0  0  0  0  0  0  0
   -2.0897   -1.2790   -1.4238 N   0  0  0  0  0  4  0  0  0  0  0  0
   -1.9102   -1.2152   -2.6475 O   0  0  0  0  0  0  0  0  0  0  0  0
   -1.5138   -2.0830   -0.6753 O   0  0  0  0  0  1  0  0  0  0  0  0
    0.4475   -0.4073    0.5444 N   0  0  0  0  0  0  0  0  0  0  0  0
    1.7616   -0.1201    0.1205 C   0  0  0  0  0  0  0  0  0  0  0  0
    2.3819    1.1331    0.2869 C   0  0  0  0  0  0  0  0  0  0  0  0
    3.6943    1.3533   -0.1534 C   0  0  0  0  0  0  0  0  0  0  0  0
    4.3569    0.3061   -0.7512 C   0  0  0  0  0  0  0  0  0  0  0  0
    3.7607   -0.9197   -0.9151 C   0  0  0  0  0  0  0  0  0  0  0  0
    2.4705   -1.1649   -0.4915 C   0  0  0  0  0  0  0  0  0  0  0  0
    4.5806   -1.8180   -1.5244 O   0  0  0  0  0  0  0  0  0  0  0  0
    5.7592   -1.0114   -1.7316 C   0  0  0  0  0  0  0  0  0  0  0  0
    5.6261    0.3367   -1.2358 O   0  0  0  0  0  0  0  0  0  0  0  0
   -1.6875   -1.2906    1.5504 H   0  0  0  0  0  0  0  0  0  0  0  0
   -2.0400    0.1290    2.4615 H   0  0  0  0  0  0  0  0  0  0  0  0
   -3.8356    1.4609    1.9590 H   0  0  0  0  0  0  0  0  0  0  0  0
   -5.7109    2.1347    0.5274 H   0  0  0  0  0  0  0  0  0  0  0  0
   -5.9170    1.2530   -1.7803 H   0  0  0  0  0  0  0  0  0  0  0  0
   -4.2338   -0.3167   -2.6593 H   0  0  0  0  0  0  0  0  0  0  0  0
    0.1234   -1.3546    0.3567 H   0  0  0  0  0  0  0  0  0  0  0  0
    1.8666    1.9622    0.7625 H   0  0  0  0  0  0  0  0  0  0  0  0
    4.1710    2.3187   -0.0259 H   0  0  0  0  0  0  0  0  0  0  0  0
    2.0336   -2.1457   -0.6431 H   0  0  0  0  0  0  0  0  0  0  0  0
    6.6046   -1.4897   -1.2237 H   0  0  0  0  0  0  0  0  0  0  0  0
    5.9719   -0.9708   -2.8061 H   0  0  0  0  0  0  0  0  0  0  0  0
  1  2  2  0
  2  3  1  0
  3  4  1  0
  4  5  2  0
  5  6  1  0
  6  7  2  0
  7  8  1  0
  8  9  2  0
  9 10  1  0
 10 11  2  0
 10 12  1  0
  2 13  1  0
 13 14  1  0
 14 15  2  0
 15 16  1  0
 16 17  2  0
 17 18  1  0
 18 19  2  0
 18 20  1  0
 20 21  1  0
 21 22  1  0
  9  4  1  0
 19 14  1  0
 22 17  1  0
  3 23  1  0
  3 24  1  0
  5 25  1  0
  6 26  1  0
  7 27  1  0
  8 28  1  0
 13 29  1  0
 15 30  1  0
 16 31  1  0
 19 32  1  0
 21 33  1  0
 21 34  1  0
M  CHG  2  10   1  12  -1
M  END
$$$$
