
     RDKit          3D

 48 50  0  0  0  0  0  0  0  0999 V2000
    5.9297   -0.7001   -1.8029 C   0  0  0  0  0  0  0  0  0  0  0  0
    5.3520   -1.2531   -0.5078 C   0  0  0  0  0  0  0  0  0  0  0  0
    4.6943   -0.1939    0.2685 N   0  0  0  0  0  0  0  0  0  0  0  0
    5.5307    0.4739    1.2740 C   0  0  0  0  0  0  0  0  0  0  0  0
    5.4271   -0.2216    2.6241 C   0  0  0  0  0  0  0  0  0  0  0  0
    3.3514    0.1258    0.0921 C   0  0  0  0  0  0  0  0  0  0  0  0
    2.6773    1.0341    0.9280 C   0  0  0  0  0  0  0  0  0  0  0  0
    1.3234    1.3637    0.7544 C   0  0  0  0  0  0  0  0  0  0  0  0
    0.5849    0.7844   -0.2725 C   0  0  0  0  0  0  0  0  0  0  0  0
   -0.8179    1.1397   -0.4969 C   0  0  0  0  0  0  0  0  0  0  0  0
   -1.8863    0.7905    0.2485 C   0  0  0  0  0  0  0  0  0  0  0  0
   -1.8144   -0.0725    1.4472 C   0  0  0  0  0  0  0  0  0  0  0  0
   -0.8262   -0.6949    1.8132 O   0  0  0  0  0  0  0  0  0  0  0  0
   -2.9782   -0.1633    2.1511 N   0  0  0  0  0  0  0  0  0  0  0  0
   -4.2255    0.1421    1.6986 C   0  0  0  0  0  0  0  0  0  0  0  0
   -5.2033   -0.2441    2.3378 O   0  0  0  0  0  0  0  0  0  0  0  0
   -4.3043    0.8686    0.5302 N   0  0  0  0  0  0  0  0  0  0  0  0
   -5.6325    1.2049    0.0357 C   0  0  0  0  0  0  0  0  0  0  0  0
   -6.1563    0.0641   -0.7668 C   0  0  0  0  0  0  0  0  0  0  0  0
   -6.9690   -1.0105   -0.4669 C   0  0  0  0  0  0  0  0  0  0  0  0
   -7.0980   -1.7592   -1.6610 C   0  0  0  0  0  0  0  0  0  0  0  0
   -6.3571   -1.0965   -2.6108 C   0  0  0  0  0  0  0  0  0  0  0  0
   -5.7798    0.0099   -2.0767 O   0  0  0  0  0  0  0  0  0  0  0  0
   -3.2103    1.3144   -0.1934 C   0  0  0  0  0  0  0  0  0  0  0  0
   -3.2995    2.1061   -1.1309 O   0  0  0  0  0  0  0  0  0  0  0  0
    1.2198   -0.1129   -1.1250 C   0  0  0  0  0  0  0  0  0  0  0  0
    2.5743   -0.4325   -0.9387 C   0  0  0  0  0  0  0  0  0  0  0  0
    5.1529   -0.2747   -2.4453 H   0  0  0  0  0  0  0  0  0  0  0  0
    6.4341   -1.4950   -2.3612 H   0  0  0  0  0  0  0  0  0  0  0  0
    6.6615    0.0893   -1.6011 H   0  0  0  0  0  0  0  0  0  0  0  0
    4.6784   -2.0945   -0.7052 H   0  0  0  0  0  0  0  0  0  0  0  0
    6.1731   -1.6854    0.0784 H   0  0  0  0  0  0  0  0  0  0  0  0
    5.2906    1.5393    1.3616 H   0  0  0  0  0  0  0  0  0  0  0  0
    6.5803    0.4509    0.9532 H   0  0  0  0  0  0  0  0  0  0  0  0
    4.4033   -0.2101    3.0098 H   0  0  0  0  0  0  0  0  0  0  0  0
    6.0707    0.2770    3.3557 H   0  0  0  0  0  0  0  0  0  0  0  0
    5.7425   -1.2678    2.5530 H   0  0  0  0  0  0  0  0  0  0  0  0
    3.1853    1.5119    1.7594 H   0  0  0  0  0  0  0  0  0  0  0  0
    0.8638    2.0731    1.4372 H   0  0  0  0  0  0  0  0  0  0  0  0
   -0.9522    1.7595   -1.3843 H   0  0  0  0  0  0  0  0  0  0  0  0
   -2.9494   -0.7765    2.9538 H   0  0  0  0  0  0  0  0  0  0  0  0
   -5.6064    2.1124   -0.5772 H   0  0  0  0  0  0  0  0  0  0  0  0
   -6.3030    1.4058    0.8795 H   0  0  0  0  0  0  0  0  0  0  0  0
   -7.4053   -1.2264    0.4995 H   0  0  0  0  0  0  0  0  0  0  0  0
   -7.6594   -2.6705   -1.8119 H   0  0  0  0  0  0  0  0  0  0  0  0
   -6.1485   -1.2728   -3.6570 H   0  0  0  0  0  0  0  0  0  0  0  0
    0.6770   -0.5779   -1.9442 H   0  0  0  0  0  0  0  0  0  0  0  0
    3.0045   -1.1348   -1.6453 H   0  0  0  0  0  0  0  0  0  0  0  0
  1  2  1  0
  2  3  1  0
  3  4  1  0
  4  5  1  0
  3  6  1  0
  6  7  2  0
  7  8  1  0
  8  9  2  0
  9 10  1  0
 10 11  2  3
 11 12  1  0
 12 13  2  0
 12 14  1  0
 14 15  1  0
 15 16  2  0
 15 17  1  0
 17 18  1  0
 18 19  1  0
 19 20  2  0
 20 21  1  0
 21 22  2  0
 22 23  1  0
 17 24  1  0
 24 25  2  0
  9 26  1  0
 26 27  2  0
 27  6  1  0
 24 11  1  0
 23 19  1  0
  1 28  1  0
  1 29  1  0
  1 30  1  0
  2 31  1  0
  2 32  1  0
  4 33  1  0
  4 34  1  0
  5 35  1  0
  5 36  1  0
  5 37  1  0
  7 38  1  0
  8 39  1  0
 10 40  1  0
 14 41  1  0
 18 42  1  0
 18 43  1  0
 20 44  1  0
 21 45  1  0
 22 46  1  0
 26 47  1  0
 27 48  1  0
M  END
$$$$
