
     RDKit          3D

 47 50  0  0  0  0  0  0  0  0999 V2000
   -3.6391   -1.5466   -0.4136 O   0  0  0  0  0  0  0  0  0  0  0  0
   -3.5387   -0.5890    0.3629 C   0  0  0  0  0  0  0  0  0  0  0  0
   -4.6204   -0.3041    1.4544 C   0  0  0  0  0  0  0  0  0  0  0  0
   -5.8028   -1.3077    1.5783 C   0  0  0  0  0  0  0  0  0  0  0  0
   -6.6151   -0.3777    0.6589 C   0  0  0  0  0  0  0  0  0  0  0  0
   -5.6969    0.7670    1.1191 C   0  0  0  0  0  0  0  0  0  0  0  0
   -2.4700    0.3026    0.3316 N   0  0  0  0  0  0  0  0  0  0  0  0
   -2.2706    1.4293    1.2577 C   0  0  0  0  0  0  0  0  0  0  0  0
   -1.0114    2.1831    0.8134 C   0  0  0  0  0  0  0  0  0  0  0  0
   -0.5259    1.3410   -0.3214 C   0  0  0  0  0  0  0  0  0  0  0  0
    0.6112    1.5474   -1.0890 C   0  0  0  0  0  0  0  0  0  0  0  0
    0.8707    0.6471   -2.1278 C   0  0  0  0  0  0  0  0  0  0  0  0
    2.3084    0.8999   -3.1424 S   0  0  0  0  0  6  0  0  0  0  0  0
    2.3834    2.3146   -3.4309 O   0  0  0  0  0  0  0  0  0  0  0  0
    2.3044   -0.0971   -4.1903 O   0  0  0  0  0  0  0  0  0  0  0  0
    3.5652    0.5394   -2.1074 N   0  0  0  0  0  0  0  0  0  0  0  0
    3.6855   -0.8321   -1.5970 C   0  0  0  0  0  0  0  0  0  0  0  0
    4.8011   -0.9148   -0.5752 C   0  0  0  0  0  0  0  0  0  0  0  0
    5.8012   -1.8804   -0.6811 C   0  0  0  0  0  0  0  0  0  0  0  0
    6.8151   -1.9026    0.2731 C   0  0  0  0  0  0  0  0  0  0  0  0
    6.8003   -0.9704    1.3043 C   0  0  0  0  0  0  0  0  0  0  0  0
    5.7660   -0.0479    1.3428 C   0  0  0  0  0  0  0  0  0  0  0  0
    4.7693    0.0044    0.4310 N   0  0  0  0  0  0  0  0  0  0  0  0
    0.0002   -0.4213   -2.3979 C   0  0  0  0  0  0  0  0  0  0  0  0
   -1.1426   -0.6100   -1.6125 C   0  0  0  0  0  0  0  0  0  0  0  0
   -1.3943    0.2764   -0.5763 C   0  0  0  0  0  0  0  0  0  0  0  0
   -4.1539   -0.1476    2.4351 H   0  0  0  0  0  0  0  0  0  0  0  0
   -6.2078   -1.3823    2.5960 H   0  0  0  0  0  0  0  0  0  0  0  0
   -5.6324   -2.3188    1.1974 H   0  0  0  0  0  0  0  0  0  0  0  0
   -6.5206   -0.6208   -0.4065 H   0  0  0  0  0  0  0  0  0  0  0  0
   -7.6749   -0.2701    0.9065 H   0  0  0  0  0  0  0  0  0  0  0  0
   -5.4378    1.4932    0.3452 H   0  0  0  0  0  0  0  0  0  0  0  0
   -6.0655    1.3061    1.9996 H   0  0  0  0  0  0  0  0  0  0  0  0
   -3.1504    2.0805    1.2458 H   0  0  0  0  0  0  0  0  0  0  0  0
   -2.1533    1.0318    2.2724 H   0  0  0  0  0  0  0  0  0  0  0  0
   -1.2592    3.1930    0.4717 H   0  0  0  0  0  0  0  0  0  0  0  0
   -0.2754    2.2375    1.6210 H   0  0  0  0  0  0  0  0  0  0  0  0
    1.2699    2.3893   -0.8972 H   0  0  0  0  0  0  0  0  0  0  0  0
    3.7721    1.2592   -1.4111 H   0  0  0  0  0  0  0  0  0  0  0  0
    3.8730   -1.5188   -2.4311 H   0  0  0  0  0  0  0  0  0  0  0  0
    2.7641   -1.1393   -1.0894 H   0  0  0  0  0  0  0  0  0  0  0  0
    5.8056   -2.5987   -1.4942 H   0  0  0  0  0  0  0  0  0  0  0  0
    7.6142   -2.6384    0.2080 H   0  0  0  0  0  0  0  0  0  0  0  0
    7.5785   -0.9623    2.0598 H   0  0  0  0  0  0  0  0  0  0  0  0
    5.7116    0.6978    2.1319 H   0  0  0  0  0  0  0  0  0  0  0  0
    0.1972   -1.1050   -3.2214 H   0  0  0  0  0  0  0  0  0  0  0  0
   -1.8092   -1.4369   -1.8347 H   0  0  0  0  0  0  0  0  0  0  0  0
  1  2  2  0
  2  3  1  0
  3  4  1  0
  4  5  1  0
  5  6  1  0
  2  7  1  0
  7  8  1  0
  8  9  1  0
  9 10  1  0
 10 11  2  0
 11 12  1  0
 12 13  1  0
 13 14  2  0
 13 15  2  0
 13 16  1  0
 16 17  1  0
 17 18  1  0
 18 19  2  0
 19 20  1  0
 20 21  2  0
 21 22  1  0
 22 23  2  0
 12 24  2  0
 24 25  1  0
 25 26  2  0
  6  3  1  0
 26  7  1  0
 26 10  1  0
 23 18  1  0
  3 27  1  0
  4 28  1  0
  4 29  1  0
  5 30  1  0
  5 31  1  0
  6 32  1  0
  6 33  1  0
  8 34  1  0
  8 35  1  0
  9 36  1  0
  9 37  1  0
 11 38  1  0
 16 39  1  0
 17 40  1  0
 17 41  1  0
 19 42  1  0
 20 43  1  0
 21 44  1  0
 22 45  1  0
 24 46  1  0
 25 47  1  0
M  END
$$$$
