
     RDKit          3D

 40 41  0  0  0  0  0  0  0  0999 V2000
   -3.4109   -1.1250    2.9934 C   0  0  0  0  0  0  0  0  0  0  0  0
   -3.9067   -0.1471    1.9922 C   0  0  0  0  0  0  0  0  0  0  0  0
   -5.1292    0.3766    2.1213 N   0  0  0  0  0  0  0  0  0  0  0  0
   -5.2446    1.2109    1.0745 N   0  0  0  0  0  0  0  0  0  0  0  0
   -6.4687    1.9616    0.9145 C   0  0  0  0  0  0  0  0  0  0  0  0
   -4.1360    1.2355    0.2670 C   0  0  0  0  0  0  0  0  0  0  0  0
   -4.0223    2.0775   -0.9531 C   0  0  0  0  0  0  0  0  0  0  0  0
   -3.2341    0.3495    0.8419 C   0  0  0  0  0  0  0  0  0  0  0  0
   -1.9022   -0.0058    0.3941 C   0  0  0  0  0  0  0  0  0  0  0  0
   -1.4164    0.5350   -0.6774 N   0  0  0  0  0  0  0  0  0  0  0  0
   -0.1392    0.2106   -1.0626 N   0  0  0  0  0  0  0  0  0  0  0  0
    0.9164   -0.0607   -0.1962 C   0  0  0  0  0  0  0  0  0  0  0  0
    0.8360   -0.1875    1.0215 O   0  0  0  0  0  0  0  0  0  0  0  0
    2.2228   -0.2162   -0.9400 C   0  0  0  0  0  0  0  0  0  0  0  0
    3.3785   -0.3997    0.0333 C   0  0  0  0  0  0  0  0  0  0  0  0
    4.6373   -0.6240   -0.6547 N   0  0  0  0  0  0  0  0  0  0  0  0
    5.4264   -1.7353   -0.5785 C   0  0  0  0  0  0  0  0  0  0  0  0
    6.5108   -1.4796   -1.3933 C   0  0  0  0  0  0  0  0  0  0  0  0
    7.6238   -2.3381   -1.6466 N   0  0  0  0  0  4  0  0  0  0  0  0
    7.6269   -3.4394   -1.0825 O   0  0  0  0  0  0  0  0  0  0  0  0
    8.4939   -1.9102   -2.4148 O   0  0  0  0  0  1  0  0  0  0  0  0
    6.2793   -0.1958   -1.9158 C   0  0  0  0  0  0  0  0  0  0  0  0
    5.1314    0.3290   -1.4718 N   0  0  0  0  0  0  0  0  0  0  0  0
   -3.1971   -2.0854    2.5138 H   0  0  0  0  0  0  0  0  0  0  0  0
   -4.1460   -1.2995    3.7860 H   0  0  0  0  0  0  0  0  0  0  0  0
   -2.4915   -0.7586    3.4613 H   0  0  0  0  0  0  0  0  0  0  0  0
   -6.2266    3.0268    0.9419 H   0  0  0  0  0  0  0  0  0  0  0  0
   -7.1571    1.7190    1.7286 H   0  0  0  0  0  0  0  0  0  0  0  0
   -6.9189    1.6877   -0.0427 H   0  0  0  0  0  0  0  0  0  0  0  0
   -4.9192    2.6741   -1.1411 H   0  0  0  0  0  0  0  0  0  0  0  0
   -3.1810    2.7716   -0.8582 H   0  0  0  0  0  0  0  0  0  0  0  0
   -3.8566    1.4490   -1.8340 H   0  0  0  0  0  0  0  0  0  0  0  0
   -1.3739   -0.7658    0.9914 H   0  0  0  0  0  0  0  0  0  0  0  0
    0.0888    0.5524   -1.9930 H   0  0  0  0  0  0  0  0  0  0  0  0
    2.3824    0.6734   -1.5607 H   0  0  0  0  0  0  0  0  0  0  0  0
    2.1424   -1.0844   -1.6052 H   0  0  0  0  0  0  0  0  0  0  0  0
    3.2058   -1.2568    0.6948 H   0  0  0  0  0  0  0  0  0  0  0  0
    3.5137    0.4863    0.6649 H   0  0  0  0  0  0  0  0  0  0  0  0
    5.1683   -2.5898    0.0330 H   0  0  0  0  0  0  0  0  0  0  0  0
    6.8934    0.3785   -2.5991 H   0  0  0  0  0  0  0  0  0  0  0  0
  1  2  1  0
  2  3  2  0
  3  4  1  0
  4  5  1  0
  4  6  1  0
  6  7  1  0
  6  8  2  0
  8  9  1  0
  9 10  2  3
 10 11  1  0
 11 12  1  0
 12 13  2  0
 12 14  1  0
 14 15  1  0
 15 16  1  0
 16 17  1  0
 17 18  2  0
 18 19  1  0
 19 20  2  0
 19 21  1  0
 18 22  1  0
 22 23  2  0
  8  2  1  0
 23 16  1  0
  1 24  1  0
  1 25  1  0
  1 26  1  0
  5 27  1  0
  5 28  1  0
  5 29  1  0
  7 30  1  0
  7 31  1  0
  7 32  1  0
  9 33  1  0
 11 34  1  0
 14 35  1  0
 14 36  1  0
 15 37  1  0
 15 38  1  0
 17 39  1  0
 22 40  1  0
M  CHG  2  19   1  21  -1
M  END
$$$$
