
     RDKit          3D

 36 37  0  0  0  0  0  0  0  0999 V2000
    0.1212   -0.8525   -1.1741 O   0  0  0  0  0  0  0  0  0  0  0  0
    0.1848   -0.6301    0.0321 C   0  0  0  0  0  0  0  0  0  0  0  0
   -0.9288   -1.0029    1.0133 C   0  0  0  0  0  0  0  0  0  0  0  0
   -2.1728   -1.2667    0.3682 O   0  0  0  0  0  0  0  0  0  0  0  0
   -2.8493   -0.1486    0.0125 C   0  0  0  0  0  0  0  0  0  0  0  0
   -2.5439    1.0098    0.2324 O   0  0  0  0  0  0  0  0  0  0  0  0
   -4.0633   -0.5567   -0.6982 C   0  0  0  0  0  0  0  0  0  0  0  0
   -4.1404   -0.4160   -2.0870 C   0  0  0  0  0  0  0  0  0  0  0  0
   -2.8415    0.2149   -3.0324 Cl  0  0  0  0  0  0  0  0  0  0  0  0
   -5.3040   -0.8025   -2.7626 C   0  0  0  0  0  0  0  0  0  0  0  0
   -6.3896   -1.3182   -2.0549 C   0  0  0  0  0  0  0  0  0  0  0  0
   -6.3161   -1.4457   -0.6675 C   0  0  0  0  0  0  0  0  0  0  0  0
   -5.1556   -1.0644    0.0135 C   0  0  0  0  0  0  0  0  0  0  0  0
   -5.1463   -1.2285    1.7354 Cl  0  0  0  0  0  0  0  0  0  0  0  0
    1.2782   -0.0388    0.6309 N   0  0  0  0  0  0  0  0  0  0  0  0
    2.4759    0.2562   -0.1349 C   0  0  0  0  0  0  0  0  0  0  0  0
    3.4204    1.1615    0.6538 C   0  0  0  0  0  0  0  0  0  0  0  0
    4.7101    1.4755   -0.0863 C   0  0  0  0  0  0  0  0  0  0  0  0
    5.6583    1.7419    1.0569 C   0  0  0  0  0  0  0  0  0  0  0  0
    5.2243    0.6994    2.0642 C   0  0  0  0  0  0  0  0  0  0  0  0
    3.8110    0.5137    1.8877 O   0  0  0  0  0  0  0  0  0  0  0  0
   -1.0423   -0.2273    1.7815 H   0  0  0  0  0  0  0  0  0  0  0  0
   -0.6236   -1.9246    1.5201 H   0  0  0  0  0  0  0  0  0  0  0  0
   -5.3695   -0.7020   -3.8443 H   0  0  0  0  0  0  0  0  0  0  0  0
   -7.2931   -1.6142   -2.5840 H   0  0  0  0  0  0  0  0  0  0  0  0
   -7.1693   -1.8420   -0.1209 H   0  0  0  0  0  0  0  0  0  0  0  0
    1.4114   -0.1567    1.6292 H   0  0  0  0  0  0  0  0  0  0  0  0
    2.9509   -0.7076   -0.3527 H   0  0  0  0  0  0  0  0  0  0  0  0
    2.1883    0.7236   -1.0834 H   0  0  0  0  0  0  0  0  0  0  0  0
    2.9069    2.0896    0.9349 H   0  0  0  0  0  0  0  0  0  0  0  0
    5.0585    0.6068   -0.6579 H   0  0  0  0  0  0  0  0  0  0  0  0
    4.6075    2.3180   -0.7751 H   0  0  0  0  0  0  0  0  0  0  0  0
    6.7133    1.6571    0.7826 H   0  0  0  0  0  0  0  0  0  0  0  0
    5.4833    2.7472    1.4567 H   0  0  0  0  0  0  0  0  0  0  0  0
    5.7119   -0.2634    1.8699 H   0  0  0  0  0  0  0  0  0  0  0  0
    5.4330    0.9942    3.0964 H   0  0  0  0  0  0  0  0  0  0  0  0
  1  2  2  0
  2  3  1  0
  3  4  1  0
  4  5  1  0
  5  6  2  0
  5  7  1  0
  7  8  2  0
  8  9  1  0
  8 10  1  0
 10 11  2  0
 11 12  1  0
 12 13  2  0
 13 14  1  0
  2 15  1  0
 15 16  1  0
 16 17  1  0
 17 18  1  0
 18 19  1  0
 19 20  1  0
 20 21  1  0
 13  7  1  0
 21 17  1  0
  3 22  1  0
  3 23  1  0
 10 24  1  0
 11 25  1  0
 12 26  1  0
 15 27  1  0
 16 28  1  0
 16 29  1  0
 17 30  1  0
 18 31  1  0
 18 32  1  0
 19 33  1  0
 19 34  1  0
 20 35  1  0
 20 36  1  0
M  END
$$$$
