
     RDKit          3D

 61 66  0  0  0  0  0  0  0  0999 V2000
   -2.3547    0.1834   -2.4260 O   0  0  0  0  0  0  0  0  0  0  0  0
   -2.7649    0.3150   -1.2663 C   0  0  0  0  0  0  0  0  0  0  0  0
   -1.8418    0.9650   -0.2545 C   0  0  0  0  0  0  0  0  0  0  0  0
   -0.6004    0.2351   -0.1482 N   0  0  0  0  0  0  0  0  0  0  0  0
   -0.5707   -1.0630    0.2028 N   0  0  0  0  0  0  0  0  0  0  0  0
    0.7142   -1.3398    0.3652 N   0  0  0  0  0  0  0  0  0  0  0  0
    1.4078   -0.1687    0.1547 C   0  0  0  0  0  0  0  0  0  0  0  0
    2.8575   -0.0778    0.2644 C   0  0  0  0  0  0  0  0  0  0  0  0
    3.6255   -1.2115    0.5365 C   0  0  0  0  0  0  0  0  0  0  0  0
    5.0220   -1.1221    0.6423 C   0  0  0  0  0  0  0  0  0  0  0  0
    5.7069    0.0926    0.4840 C   0  0  0  0  0  0  0  0  0  0  0  0
    7.0829    0.1703    0.5955 N   0  0  0  0  0  0  0  0  0  0  0  0
    7.9454   -0.9969    0.3421 C   0  0  0  0  0  0  0  0  0  0  0  0
    9.2911   -0.5454   -0.2521 C   0  0  0  0  0  0  0  0  0  0  0  0
   10.0220    0.3676    0.5785 O   0  0  0  0  0  0  0  0  0  0  0  0
    9.1768    1.1950    1.3910 C   0  0  0  0  0  0  0  0  0  0  0  0
    7.7834    1.4489    0.7909 C   0  0  0  0  0  0  0  0  0  0  0  0
    4.9161    1.2203    0.2202 C   0  0  0  0  0  0  0  0  0  0  0  0
    3.5192    1.1420    0.1069 C   0  0  0  0  0  0  0  0  0  0  0  0
    0.5929    0.8639   -0.1297 N   0  0  0  0  0  0  0  0  0  0  0  0
   -4.0867    0.0342   -0.8643 N   0  0  0  0  0  0  0  0  0  0  0  0
   -4.4670   -0.0272    0.5066 C   0  0  0  0  0  0  0  0  0  0  0  0
   -3.8268   -0.9212    1.3765 C   0  0  0  0  0  0  0  0  0  0  0  0
   -4.1579   -0.9462    2.7313 C   0  0  0  0  0  0  0  0  0  0  0  0
   -5.1346   -0.0844    3.2241 C   0  0  0  0  0  0  0  0  0  0  0  0
   -5.7928    0.7915    2.3611 C   0  0  0  0  0  0  0  0  0  0  0  0
   -5.4668    0.8204    0.9984 C   0  0  0  0  0  0  0  0  0  0  0  0
   -6.2019    1.7136    0.0440 C   0  0  0  0  0  0  0  0  0  0  0  0
   -7.0947    0.8655   -0.8537 C   0  0  0  0  0  0  0  0  0  0  0  0
   -6.4377   -0.1664   -1.7515 C   0  0  0  0  0  0  0  0  0  0  0  0
   -7.3195   -0.7981   -2.6614 C   0  0  0  0  0  0  0  0  0  0  0  0
   -6.8681   -1.7247   -3.5965 C   0  0  0  0  0  0  0  0  0  0  0  0
   -5.5215   -2.0418   -3.6434 C   0  0  0  0  0  0  0  0  0  0  0  0
   -4.6351   -1.4386   -2.7484 C   0  0  0  0  0  0  0  0  0  0  0  0
   -5.0626   -0.5015   -1.7834 C   0  0  0  0  0  0  0  0  0  0  0  0
   -2.2423    1.0793    0.7514 H   0  0  0  0  0  0  0  0  0  0  0  0
   -1.6143    1.9730   -0.6216 H   0  0  0  0  0  0  0  0  0  0  0  0
    3.1513   -2.1817    0.6711 H   0  0  0  0  0  0  0  0  0  0  0  0
    5.5647   -2.0341    0.8773 H   0  0  0  0  0  0  0  0  0  0  0  0
    7.4832   -1.6915   -0.3691 H   0  0  0  0  0  0  0  0  0  0  0  0
    8.1128   -1.5228    1.2899 H   0  0  0  0  0  0  0  0  0  0  0  0
    9.1317   -0.0558   -1.2208 H   0  0  0  0  0  0  0  0  0  0  0  0
    9.9334   -1.4145   -0.4293 H   0  0  0  0  0  0  0  0  0  0  0  0
    9.6980    2.1451    1.5455 H   0  0  0  0  0  0  0  0  0  0  0  0
    9.0848    0.7101    2.3709 H   0  0  0  0  0  0  0  0  0  0  0  0
    7.8808    1.9584   -0.1756 H   0  0  0  0  0  0  0  0  0  0  0  0
    7.2306    2.0975    1.4813 H   0  0  0  0  0  0  0  0  0  0  0  0
    5.3730    2.1942    0.0706 H   0  0  0  0  0  0  0  0  0  0  0  0
    2.9570    2.0488   -0.1087 H   0  0  0  0  0  0  0  0  0  0  0  0
   -3.0846   -1.6234    1.0047 H   0  0  0  0  0  0  0  0  0  0  0  0
   -3.6588   -1.6445    3.3990 H   0  0  0  0  0  0  0  0  0  0  0  0
   -5.3963   -0.1061    4.2793 H   0  0  0  0  0  0  0  0  0  0  0  0
   -6.5700    1.4416    2.7566 H   0  0  0  0  0  0  0  0  0  0  0  0
   -5.4920    2.3098   -0.5429 H   0  0  0  0  0  0  0  0  0  0  0  0
   -6.8208    2.4325    0.5952 H   0  0  0  0  0  0  0  0  0  0  0  0
   -7.8317    0.3407   -0.2300 H   0  0  0  0  0  0  0  0  0  0  0  0
   -7.6552    1.5582   -1.4959 H   0  0  0  0  0  0  0  0  0  0  0  0
   -8.3807   -0.5527   -2.6468 H   0  0  0  0  0  0  0  0  0  0  0  0
   -7.5653   -2.1928   -4.2867 H   0  0  0  0  0  0  0  0  0  0  0  0
   -5.1519   -2.7647   -4.3661 H   0  0  0  0  0  0  0  0  0  0  0  0
   -3.5948   -1.7533   -2.7997 H   0  0  0  0  0  0  0  0  0  0  0  0
  1  2  2  0
  2  3  1  0
  3  4  1  0
  4  5  1  0
  5  6  2  0
  6  7  1  0
  7  8  1  0
  8  9  2  0
  9 10  1  0
 10 11  2  0
 11 12  1  0
 12 13  1  0
 13 14  1  0
 14 15  1  0
 15 16  1  0
 16 17  1  0
 11 18  1  0
 18 19  2  0
  7 20  2  0
  2 21  1  0
 21 22  1  0
 22 23  2  0
 23 24  1  0
 24 25  2  0
 25 26  1  0
 26 27  2  0
 27 28  1  0
 28 29  1  0
 29 30  1  0
 30 31  2  0
 31 32  1  0
 32 33  2  0
 33 34  1  0
 34 35  2  0
 20  4  1  0
 35 21  1  0
 19  8  1  0
 27 22  1  0
 35 30  1  0
 17 12  1  0
  3 36  1  0
  3 37  1  0
  9 38  1  0
 10 39  1  0
 13 40  1  0
 13 41  1  0
 14 42  1  0
 14 43  1  0
 16 44  1  0
 16 45  1  0
 17 46  1  0
 17 47  1  0
 18 48  1  0
 19 49  1  0
 23 50  1  0
 24 51  1  0
 25 52  1  0
 26 53  1  0
 28 54  1  0
 28 55  1  0
 29 56  1  0
 29 57  1  0
 31 58  1  0
 32 59  1  0
 33 60  1  0
 34 61  1  0
M  END
$$$$
