
     RDKit          3D

 53 56  0  0  0  0  0  0  0  0999 V2000
   -2.9552   -3.3896    3.6666 C   0  0  0  0  0  0  0  0  0  0  0  0
   -3.6422   -3.5363    2.3183 C   0  0  0  0  0  0  0  0  0  0  0  0
   -3.6453   -2.2963    1.4021 C   0  0  0  0  0  0  0  0  0  0  0  0
   -4.3572   -1.0742    2.0250 C   0  0  0  0  0  0  0  0  0  0  0  0
   -4.6084    0.0338    1.0238 C   0  0  0  0  0  0  0  0  0  0  0  0
   -5.6597   -0.0601    0.1016 C   0  0  0  0  0  0  0  0  0  0  0  0
   -5.8726    0.9548   -0.8330 C   0  0  0  0  0  0  0  0  0  0  0  0
   -5.0377    2.0707   -0.8554 C   0  0  0  0  0  0  0  0  0  0  0  0
   -3.9908    2.1749    0.0583 C   0  0  0  0  0  0  0  0  0  0  0  0
   -3.7776    1.1623    0.9945 C   0  0  0  0  0  0  0  0  0  0  0  0
   -2.3285   -2.0095    0.8269 N   0  0  0  0  0  0  0  0  0  0  0  0
   -1.3056   -1.3610    1.4844 C   0  0  0  0  0  0  0  0  0  0  0  0
   -1.3523   -0.9840    2.6485 O   0  0  0  0  0  0  0  0  0  0  0  0
   -0.0967   -1.0601    0.6674 C   0  0  0  0  0  0  0  0  0  0  0  0
    0.3099   -1.8963   -0.3757 C   0  0  0  0  0  0  0  0  0  0  0  0
    1.4475   -1.5831   -1.1303 C   0  0  0  0  0  0  0  0  0  0  0  0
    2.1908   -0.4220   -0.8335 C   0  0  0  0  0  0  0  0  0  0  0  0
    3.3247    0.0041   -1.4970 N   0  0  0  0  0  0  0  0  0  0  0  0
    3.7895    1.1241   -0.9854 C   0  0  0  0  0  0  0  0  0  0  0  0
    4.8965    1.7533   -1.4685 N   0  0  0  0  0  0  0  0  0  0  0  0
    5.4313    2.9959   -0.9111 C   0  0  0  0  0  0  0  0  0  0  0  0
    6.3826    3.6588   -1.9217 C   0  0  0  0  0  0  0  0  0  0  0  0
    7.4921    2.8355   -2.3059 O   0  0  0  0  0  0  0  0  0  0  0  0
    7.2072    1.4295   -2.2506 C   0  0  0  0  0  0  0  0  0  0  0  0
    5.7270    1.0803   -2.4741 C   0  0  0  0  0  0  0  0  0  0  0  0
    2.8612    1.7119    0.3532 S   0  0  0  0  0  0  0  0  0  0  0  0
    1.7779    0.3886    0.2197 C   0  0  0  0  0  0  0  0  0  0  0  0
    0.6426    0.0886    0.9904 C   0  0  0  0  0  0  0  0  0  0  0  0
   -3.1308   -4.2871    4.2697 H   0  0  0  0  0  0  0  0  0  0  0  0
   -3.3379   -2.5345    4.2299 H   0  0  0  0  0  0  0  0  0  0  0  0
   -1.8729   -3.2879    3.5548 H   0  0  0  0  0  0  0  0  0  0  0  0
   -4.6846   -3.8259    2.5037 H   0  0  0  0  0  0  0  0  0  0  0  0
   -3.1801   -4.3767    1.7845 H   0  0  0  0  0  0  0  0  0  0  0  0
   -4.2383   -2.5984    0.5267 H   0  0  0  0  0  0  0  0  0  0  0  0
   -5.3274   -1.3865    2.4339 H   0  0  0  0  0  0  0  0  0  0  0  0
   -3.7992   -0.6731    2.8779 H   0  0  0  0  0  0  0  0  0  0  0  0
   -6.3218   -0.9227    0.1081 H   0  0  0  0  0  0  0  0  0  0  0  0
   -6.6919    0.8764   -1.5428 H   0  0  0  0  0  0  0  0  0  0  0  0
   -5.2050    2.8613   -1.5821 H   0  0  0  0  0  0  0  0  0  0  0  0
   -3.3407    3.0457    0.0448 H   0  0  0  0  0  0  0  0  0  0  0  0
   -2.9573    1.2557    1.7044 H   0  0  0  0  0  0  0  0  0  0  0  0
   -2.2846   -2.0317   -0.1834 H   0  0  0  0  0  0  0  0  0  0  0  0
   -0.2291   -2.8123   -0.6029 H   0  0  0  0  0  0  0  0  0  0  0  0
    1.7711   -2.2287   -1.9412 H   0  0  0  0  0  0  0  0  0  0  0  0
    5.9759    2.7692    0.0132 H   0  0  0  0  0  0  0  0  0  0  0  0
    4.6318    3.7095   -0.6830 H   0  0  0  0  0  0  0  0  0  0  0  0
    6.7908    4.5839   -1.5021 H   0  0  0  0  0  0  0  0  0  0  0  0
    5.8383    3.9282   -2.8347 H   0  0  0  0  0  0  0  0  0  0  0  0
    7.5380    1.0655   -1.2702 H   0  0  0  0  0  0  0  0  0  0  0  0
    7.8288    0.9385   -3.0062 H   0  0  0  0  0  0  0  0  0  0  0  0
    5.6240   -0.0108   -2.4299 H   0  0  0  0  0  0  0  0  0  0  0  0
    5.4104    1.4147   -3.4693 H   0  0  0  0  0  0  0  0  0  0  0  0
    0.3416    0.7330    1.8128 H   0  0  0  0  0  0  0  0  0  0  0  0
  1  2  1  0
  2  3  1  0
  3  4  1  0
  4  5  1  0
  5  6  2  0
  6  7  1  0
  7  8  2  0
  8  9  1  0
  9 10  2  0
  3 11  1  0
 11 12  1  0
 12 13  2  0
 12 14  1  0
 14 15  2  0
 15 16  1  0
 16 17  2  0
 17 18  1  0
 18 19  2  0
 19 20  1  0
 20 21  1  0
 21 22  1  0
 22 23  1  0
 23 24  1  0
 24 25  1  0
 19 26  1  0
 26 27  1  0
 27 28  2  0
 10  5  1  0
 28 14  1  0
 27 17  1  0
 25 20  1  0
  1 29  1  0
  1 30  1  0
  1 31  1  0
  2 32  1  0
  2 33  1  0
  3 34  1  0
  4 35  1  0
  4 36  1  0
  6 37  1  0
  7 38  1  0
  8 39  1  0
  9 40  1  0
 10 41  1  0
 11 42  1  0
 15 43  1  0
 16 44  1  0
 21 45  1  0
 21 46  1  0
 22 47  1  0
 22 48  1  0
 24 49  1  0
 24 50  1  0
 25 51  1  0
 25 52  1  0
 28 53  1  0
M  END
$$$$
