
     RDKit          3D

 72 76  0  0  0  0  0  0  0  0999 V2000
    8.1002    0.6086    0.0360 C   0  0  0  0  0  0  0  0  0  0  0  0
    7.8765   -0.1958    1.3213 C   0  0  0  0  0  0  0  0  0  0  0  0
    7.9928    0.6807    2.5731 C   0  0  0  0  0  0  0  0  0  0  0  0
    8.9396   -1.3025    1.3964 C   0  0  0  0  0  0  0  0  0  0  0  0
    6.6108   -0.9039    1.2890 O   0  0  0  0  0  0  0  0  0  0  0  0
    5.4430   -0.2255    1.2139 C   0  0  0  0  0  0  0  0  0  0  0  0
    5.3150    0.9872    1.1700 O   0  0  0  0  0  0  0  0  0  0  0  0
    4.4214   -1.1255    1.1808 N   0  0  0  0  0  0  0  0  0  0  0  0
    3.0463   -0.7421    0.9532 C   0  0  0  0  0  0  0  0  0  0  0  0
    2.7644   -0.5475   -0.5354 C   0  0  0  0  0  0  0  0  0  0  0  0
    1.2873   -0.2947   -0.8504 C   0  0  0  0  0  0  0  0  0  0  0  0
    0.7643    1.0288   -0.2754 C   0  0  0  0  0  0  0  0  0  0  0  0
   -0.6854    1.3698   -0.6406 C   0  0  1  0  0  0  0  0  0  0  0  0
   -0.8926    1.4249   -2.1282 N   0  0  0  0  0  0  0  0  0  0  0  0
   -2.0259    0.5183   -2.5089 C   0  0  0  0  0  0  0  0  0  0  0  0
   -1.6157   -0.5080   -3.6048 C   0  0  0  0  0  0  0  0  0  0  0  0
   -0.7285   -1.3475   -3.5888 O   0  0  0  0  0  0  0  0  0  0  0  0
   -2.4954   -0.3216   -4.6764 N   0  0  0  0  0  0  0  0  0  0  0  0
   -3.4140    0.6837   -4.4122 C   0  0  0  0  0  0  0  0  0  0  0  0
   -4.4176    1.1285   -5.2466 C   0  0  0  0  0  0  0  0  0  0  0  0
   -5.2357    2.1572   -4.7741 C   0  0  0  0  0  0  0  0  0  0  0  0
   -5.0336    2.7096   -3.4962 C   0  0  0  0  0  0  0  0  0  0  0  0
   -4.0089    2.2432   -2.6675 C   0  0  0  0  0  0  0  0  0  0  0  0
   -3.2001    1.2194   -3.1390 C   0  0  0  0  0  0  0  0  0  0  0  0
   -2.4657   -0.0880   -1.2450 C   0  0  0  0  0  0  0  0  0  0  0  0
   -1.6935    0.3923   -0.1863 C   0  0  0  0  0  0  0  0  0  0  0  0
   -2.1387   -0.1662    0.9802 C   0  0  0  0  0  0  0  0  0  0  0  0
   -1.7225    0.0351    2.2245 O   0  0  0  0  0  0  0  0  0  0  0  0
   -3.1540   -1.0474    0.6242 N   0  0  0  0  0  0  0  0  0  0  0  0
   -3.8089   -2.0048    1.5121 C   0  0  0  0  0  0  0  0  0  0  0  0
   -4.7660   -1.3449    2.4756 C   0  0  0  0  0  0  0  0  0  0  0  0
   -5.8240   -0.5493    2.0109 C   0  0  0  0  0  0  0  0  0  0  0  0
   -6.7114    0.0460    2.9084 C   0  0  0  0  0  0  0  0  0  0  0  0
   -6.5575   -0.1540    4.2785 C   0  0  0  0  0  0  0  0  0  0  0  0
   -5.5201   -0.9542    4.7532 C   0  0  0  0  0  0  0  0  0  0  0  0
   -4.6317   -1.5515    3.8576 C   0  0  0  0  0  0  0  0  0  0  0  0
   -3.3823   -0.9752   -0.7441 C   0  0  0  0  0  0  0  0  0  0  0  0
   -4.3386   -1.6902   -1.3232 O   0  0  0  0  0  0  0  0  0  0  0  0
    7.4125    1.4564   -0.0422 H   0  0  0  0  0  0  0  0  0  0  0  0
    9.1189    1.0088   -0.0109 H   0  0  0  0  0  0  0  0  0  0  0  0
    7.9299   -0.0154   -0.8486 H   0  0  0  0  0  0  0  0  0  0  0  0
    7.3054    1.5312    2.5420 H   0  0  0  0  0  0  0  0  0  0  0  0
    9.0057    1.0821    2.6852 H   0  0  0  0  0  0  0  0  0  0  0  0
    7.7435    0.1085    3.4740 H   0  0  0  0  0  0  0  0  0  0  0  0
    9.9540   -0.8905    1.4263 H   0  0  0  0  0  0  0  0  0  0  0  0
    8.7916   -1.9250    2.2868 H   0  0  0  0  0  0  0  0  0  0  0  0
    8.8645   -1.9748    0.5335 H   0  0  0  0  0  0  0  0  0  0  0  0
    4.6939   -2.0964    1.1248 H   0  0  0  0  0  0  0  0  0  0  0  0
    2.8488    0.1791    1.5109 H   0  0  0  0  0  0  0  0  0  0  0  0
    2.4181   -1.5386    1.3653 H   0  0  0  0  0  0  0  0  0  0  0  0
    3.0838   -1.4461   -1.0793 H   0  0  0  0  0  0  0  0  0  0  0  0
    3.3721    0.2777   -0.9273 H   0  0  0  0  0  0  0  0  0  0  0  0
    0.6896   -1.1343   -0.4774 H   0  0  0  0  0  0  0  0  0  0  0  0
    1.1819   -0.2862   -1.9405 H   0  0  0  0  0  0  0  0  0  0  0  0
    0.8470    1.0058    0.8178 H   0  0  0  0  0  0  0  0  0  0  0  0
    1.4136    1.8440   -0.6204 H   0  0  0  0  0  0  0  0  0  0  0  0
   -0.9339    2.3541   -0.2233 H   0  0  0  0  0  0  0  0  0  0  0  0
   -1.1544    2.3755   -2.3741 H   0  0  0  0  0  0  0  0  0  0  0  0
   -2.4274   -0.8585   -5.5276 H   0  0  0  0  0  0  0  0  0  0  0  0
   -4.5716    0.7051   -6.2325 H   0  0  0  0  0  0  0  0  0  0  0  0
   -6.0392    2.5389   -5.4008 H   0  0  0  0  0  0  0  0  0  0  0  0
   -5.6837    3.5105   -3.1493 H   0  0  0  0  0  0  0  0  0  0  0  0
   -3.8590    2.6683   -1.6793 H   0  0  0  0  0  0  0  0  0  0  0  0
   -2.4373   -0.1993    2.8404 H   0  0  0  0  0  0  0  0  0  0  0  0
   -3.0050   -2.5287    2.0432 H   0  0  0  0  0  0  0  0  0  0  0  0
   -4.3409   -2.7520    0.9138 H   0  0  0  0  0  0  0  0  0  0  0  0
   -5.9635   -0.3896    0.9424 H   0  0  0  0  0  0  0  0  0  0  0  0
   -7.5256    0.6631    2.5369 H   0  0  0  0  0  0  0  0  0  0  0  0
   -7.2502    0.3091    4.9765 H   0  0  0  0  0  0  0  0  0  0  0  0
   -5.4074   -1.1171    5.8222 H   0  0  0  0  0  0  0  0  0  0  0  0
   -3.8365   -2.1831    4.2495 H   0  0  0  0  0  0  0  0  0  0  0  0
   -4.3329   -1.4755   -2.2738 H   0  0  0  0  0  0  0  0  0  0  0  0
  1  2  1  0
  2  3  1  0
  2  4  1  0
  2  5  1  0
  5  6  1  0
  6  7  2  0
  6  8  1  0
  8  9  1  0
  9 10  1  0
 10 11  1  0
 11 12  1  0
 12 13  1  0
 13 14  1  0
 14 15  1  0
 15 16  1  0
 16 17  2  0
 16 18  1  0
 18 19  1  0
 19 20  2  0
 20 21  1  0
 21 22  2  0
 22 23  1  0
 23 24  2  0
 15 25  1  0
 25 26  1  0
 26 27  2  0
 27 28  1  0
 27 29  1  0
 29 30  1  0
 30 31  1  0
 31 32  2  0
 32 33  1  0
 33 34  2  0
 34 35  1  0
 35 36  2  0
 29 37  1  0
 37 38  1  0
 26 13  1  0
 36 31  1  0
 24 15  1  0
 37 25  2  0
 24 19  1  0
  1 39  1  0
  1 40  1  0
  1 41  1  0
  3 42  1  0
  3 43  1  0
  3 44  1  0
  4 45  1  0
  4 46  1  0
  4 47  1  0
  8 48  1  0
  9 49  1  0
  9 50  1  0
 10 51  1  0
 10 52  1  0
 11 53  1  0
 11 54  1  0
 12 55  1  0
 12 56  1  0
 13 57  1  1
 14 58  1  0
 18 59  1  0
 20 60  1  0
 21 61  1  0
 22 62  1  0
 23 63  1  0
 28 64  1  0
 30 65  1  0
 30 66  1  0
 32 67  1  0
 33 68  1  0
 34 69  1  0
 35 70  1  0
 36 71  1  0
 38 72  1  0
M  END
$$$$
