
     RDKit          3D

 39 41  0  0  0  0  0  0  0  0999 V2000
    4.0671   -2.1925   -0.4916 C   0  0  0  0  0  0  0  0  0  0  0  0
    3.9844   -1.7221    0.9507 C   0  0  0  0  0  0  0  0  0  0  0  0
    2.4695   -2.3207    1.7727 S   0  0  0  0  0  0  0  0  0  0  0  0
    1.2300   -1.2182    1.1022 C   0  0  0  0  0  0  0  0  0  0  0  0
   -0.0967   -1.4945    1.3564 C   0  0  0  0  0  0  0  0  0  0  0  0
   -1.0397   -0.6333    0.8364 C   0  0  0  0  0  0  0  0  0  0  0  0
   -2.3851   -0.8201    1.0449 N   0  0  0  0  0  0  0  0  0  0  0  0
   -2.9932   -2.0971    1.3989 C   0  0  0  0  0  0  0  0  0  0  0  0
   -4.4280   -1.9847    0.8819 C   0  0  0  0  0  0  0  0  0  0  0  0
   -4.6919   -0.4874    0.8822 C   0  0  0  0  0  0  0  0  0  0  0  0
   -3.3508    0.0881    0.4377 C   0  0  0  0  0  0  0  0  0  0  0  0
   -0.6536    0.4422    0.1290 N   0  0  0  0  0  0  0  0  0  0  0  0
    0.6612    0.6451   -0.0700 C   0  0  0  0  0  0  0  0  0  0  0  0
    1.0633    1.8295   -0.8583 C   0  0  0  0  0  0  0  0  0  0  0  0
    0.1081    2.7315   -1.3698 C   0  0  0  0  0  0  0  0  0  0  0  0
    0.4845    3.8535   -2.1177 C   0  0  0  0  0  0  0  0  0  0  0  0
    1.8306    4.0959   -2.3692 C   0  0  0  0  0  0  0  0  0  0  0  0
    2.2971    5.4729   -3.2878 Cl  0  0  0  0  0  0  0  0  0  0  0  0
    2.8007    3.2276   -1.8800 C   0  0  0  0  0  0  0  0  0  0  0  0
    2.4180    2.1072   -1.1327 C   0  0  0  0  0  0  0  0  0  0  0  0
    1.6311   -0.1558    0.3932 N   0  0  0  0  0  0  0  0  0  0  0  0
    3.2522   -1.7947   -1.1039 H   0  0  0  0  0  0  0  0  0  0  0  0
    5.0081   -1.8535   -0.9378 H   0  0  0  0  0  0  0  0  0  0  0  0
    4.0469   -3.2857   -0.5568 H   0  0  0  0  0  0  0  0  0  0  0  0
    4.8343   -2.1345    1.5049 H   0  0  0  0  0  0  0  0  0  0  0  0
    4.0631   -0.6327    1.0191 H   0  0  0  0  0  0  0  0  0  0  0  0
   -0.3777   -2.3505    1.9539 H   0  0  0  0  0  0  0  0  0  0  0  0
   -2.4952   -2.9549    0.9335 H   0  0  0  0  0  0  0  0  0  0  0  0
   -2.9825   -2.2230    2.4871 H   0  0  0  0  0  0  0  0  0  0  0  0
   -4.4865   -2.3719   -0.1426 H   0  0  0  0  0  0  0  0  0  0  0  0
   -5.1390   -2.5431    1.4972 H   0  0  0  0  0  0  0  0  0  0  0  0
   -4.9312   -0.1497    1.8979 H   0  0  0  0  0  0  0  0  0  0  0  0
   -5.5128   -0.1993    0.2199 H   0  0  0  0  0  0  0  0  0  0  0  0
   -3.2728    0.0635   -0.6561 H   0  0  0  0  0  0  0  0  0  0  0  0
   -3.2325    1.1194    0.7871 H   0  0  0  0  0  0  0  0  0  0  0  0
   -0.9521    2.5620   -1.1843 H   0  0  0  0  0  0  0  0  0  0  0  0
   -0.2787    4.5280   -2.4962 H   0  0  0  0  0  0  0  0  0  0  0  0
    3.8542    3.4115   -2.0724 H   0  0  0  0  0  0  0  0  0  0  0  0
    3.1958    1.4421   -0.7597 H   0  0  0  0  0  0  0  0  0  0  0  0
  1  2  1  0
  2  3  1  0
  3  4  1  0
  4  5  2  0
  5  6  1  0
  6  7  1  0
  7  8  1  0
  8  9  1  0
  9 10  1  0
 10 11  1  0
  6 12  2  0
 12 13  1  0
 13 14  1  0
 14 15  2  0
 15 16  1  0
 16 17  2  0
 17 18  1  0
 17 19  1  0
 19 20  2  0
 13 21  2  0
 21  4  1  0
 11  7  1  0
 20 14  1  0
  1 22  1  0
  1 23  1  0
  1 24  1  0
  2 25  1  0
  2 26  1  0
  5 27  1  0
  8 28  1  0
  8 29  1  0
  9 30  1  0
  9 31  1  0
 10 32  1  0
 10 33  1  0
 11 34  1  0
 11 35  1  0
 15 36  1  0
 16 37  1  0
 19 38  1  0
 20 39  1  0
M  END
$$$$
