
     RDKit          3D

 37 37  0  0  0  0  0  0  0  0999 V2000
   -4.0924    1.1783   -0.8097 C   0  0  0  0  0  0  0  0  0  0  0  0
   -3.3605   -0.1512   -0.6940 C   0  0  0  0  0  0  0  0  0  0  0  0
   -2.5372   -0.1961    0.5238 N   0  0  0  0  0  0  0  0  0  0  0  0
   -3.1949   -0.7601    1.7114 C   0  0  0  0  0  0  0  0  0  0  0  0
   -2.9441   -2.2577    1.8163 C   0  0  0  0  0  0  0  0  0  0  0  0
   -1.2227    0.2557    0.5459 C   0  0  0  0  0  0  0  0  0  0  0  0
   -0.3893    0.0875    1.6694 C   0  0  0  0  0  0  0  0  0  0  0  0
    0.9398    0.5322    1.6987 C   0  0  0  0  0  0  0  0  0  0  0  0
    1.4741    1.1551    0.5799 C   0  0  0  0  0  0  0  0  0  0  0  0
    2.8677    1.6157    0.6231 C   0  0  0  0  0  0  0  0  0  0  0  0
    3.8687    1.1729   -0.0594 N   0  0  0  0  0  0  0  0  0  0  0  0
    3.6997    0.0378   -0.9954 C   0  0  0  0  0  0  0  0  0  0  0  0
    3.4868    0.5650   -2.3527 C   0  0  0  0  0  0  0  0  0  0  0  0
    3.2842    0.9744   -3.4203 N   0  0  0  0  0  0  0  0  0  0  0  0
    4.9840   -0.7512   -0.9647 C   0  0  0  0  0  0  0  0  0  0  0  0
    6.0795   -0.4035   -0.3592 N   0  0  0  0  0  0  0  0  0  0  0  0
    5.0394   -2.0300   -1.6321 C   0  0  0  0  0  0  0  0  0  0  0  0
    5.0159   -3.0592   -2.1711 N   0  0  0  0  0  0  0  0  0  0  0  0
    0.6887    1.3692   -0.5441 C   0  0  0  0  0  0  0  0  0  0  0  0
   -0.6376    0.9162   -0.5523 C   0  0  0  0  0  0  0  0  0  0  0  0
   -3.3973    2.0212   -0.8681 H   0  0  0  0  0  0  0  0  0  0  0  0
   -4.7434    1.3454    0.0548 H   0  0  0  0  0  0  0  0  0  0  0  0
   -4.7152    1.1893   -1.7097 H   0  0  0  0  0  0  0  0  0  0  0  0
   -2.7692   -0.3540   -1.5939 H   0  0  0  0  0  0  0  0  0  0  0  0
   -4.1072   -0.9551   -0.6642 H   0  0  0  0  0  0  0  0  0  0  0  0
   -4.2781   -0.5948    1.6466 H   0  0  0  0  0  0  0  0  0  0  0  0
   -2.8894   -0.2454    2.6291 H   0  0  0  0  0  0  0  0  0  0  0  0
   -3.4566   -2.6657    2.6931 H   0  0  0  0  0  0  0  0  0  0  0  0
   -1.8781   -2.4856    1.9102 H   0  0  0  0  0  0  0  0  0  0  0  0
   -3.3180   -2.7821    0.9307 H   0  0  0  0  0  0  0  0  0  0  0  0
   -0.7529   -0.4117    2.5629 H   0  0  0  0  0  0  0  0  0  0  0  0
    1.5379    0.3721    2.5921 H   0  0  0  0  0  0  0  0  0  0  0  0
    3.0626    2.4245    1.3498 H   0  0  0  0  0  0  0  0  0  0  0  0
    2.8903   -0.6376   -0.6974 H   0  0  0  0  0  0  0  0  0  0  0  0
    5.9000    0.5155    0.0839 H   0  0  0  0  0  0  0  0  0  0  0  0
    1.0750    1.8972   -1.4125 H   0  0  0  0  0  0  0  0  0  0  0  0
   -1.2102    1.1157   -1.4538 H   0  0  0  0  0  0  0  0  0  0  0  0
  1  2  1  0
  2  3  1  0
  3  4  1  0
  4  5  1  0
  3  6  1  0
  6  7  2  0
  7  8  1  0
  8  9  2  0
  9 10  1  0
 10 11  2  3
 11 12  1  0
 12 13  1  0
 13 14  3  0
 12 15  1  0
 15 16  2  3
 15 17  1  0
 17 18  3  0
  9 19  1  0
 19 20  2  0
 20  6  1  0
  1 21  1  0
  1 22  1  0
  1 23  1  0
  2 24  1  0
  2 25  1  0
  4 26  1  0
  4 27  1  0
  5 28  1  0
  5 29  1  0
  5 30  1  0
  7 31  1  0
  8 32  1  0
 10 33  1  0
 12 34  1  0
 16 35  1  0
 19 36  1  0
 20 37  1  0
M  END
$$$$
