
     RDKit          3D

 81 84  0  0  0  0  0  0  0  0999 V2000
   -4.6548   -0.2764   -2.4222 O   0  0  0  0  0  0  0  0  0  0  0  0
   -5.4857    0.1029   -1.6081 C   0  0  0  0  0  0  0  0  0  0  0  0
   -6.8147   -0.2585   -1.6805 N   0  0  0  0  0  0  0  0  0  0  0  0
   -7.2612   -1.2289   -2.6581 C   0  0  0  0  0  0  0  0  0  0  0  0
   -8.7848   -1.3596   -2.6645 C   0  0  0  0  0  0  0  0  0  0  0  0
   -9.3570   -1.9156   -1.3479 C   0  0  0  0  0  0  0  0  0  0  0  0
   -9.0928   -1.0672   -0.1698 N   0  0  0  0  0  0  0  0  0  0  0  0
   -9.9243    0.1624   -0.1881 C   0  0  0  0  0  0  0  0  0  0  0  0
   -9.7074    0.9975    1.0848 C   0  0  0  0  0  0  0  0  0  0  0  0
  -10.0138    0.2425    2.2635 O   0  0  0  0  0  0  0  0  0  0  0  0
   -9.2052   -0.9412    2.3188 C   0  0  0  0  0  0  0  0  0  0  0  0
   -9.4125   -1.8152    1.0726 C   0  0  0  0  0  0  0  0  0  0  0  0
   -5.2754    0.9258   -0.5250 N   0  0  0  0  0  0  0  0  0  0  0  0
   -4.0791    1.5526   -0.1301 C   0  0  0  0  0  0  0  0  0  0  0  0
   -4.1050    2.2866    1.0607 C   0  0  0  0  0  0  0  0  0  0  0  0
   -2.9614    2.9498    1.5155 C   0  0  0  0  0  0  0  0  0  0  0  0
   -1.7662    2.8925    0.7876 C   0  0  0  0  0  0  0  0  0  0  0  0
   -0.5558    3.6679    1.2653 C   0  0  0  0  0  0  0  0  0  0  0  0
    0.7862    2.9726    1.1651 C   0  0  0  0  0  0  0  0  0  0  0  0
    0.9649    1.6392    1.5597 C   0  0  0  0  0  0  0  0  0  0  0  0
    2.2255    1.0346    1.4814 C   0  0  0  0  0  0  0  0  0  0  0  0
    3.3377    1.7601    1.0468 C   0  0  0  0  0  0  0  0  0  0  0  0
    4.5730    1.0872    0.9713 N   0  0  0  0  0  0  0  0  0  0  0  0
    5.8162    1.6602    0.8182 C   0  0  0  0  0  0  0  0  0  0  0  0
    6.0851    2.8530    0.8476 O   0  0  0  0  0  0  0  0  0  0  0  0
    6.7793    0.6806    0.6352 N   0  0  0  0  0  0  0  0  0  0  0  0
    8.1587    1.0976    0.4558 C   0  0  0  0  0  0  0  0  0  0  0  0
    9.1351   -0.0756    0.4526 C   0  0  0  0  0  0  0  0  0  0  0  0
    9.1418   -0.8246   -0.8890 C   0  0  0  0  0  0  0  0  0  0  0  0
   10.1773   -1.8668   -0.9337 N   0  0  0  0  0  0  0  0  0  0  0  0
    9.9333   -2.9531    0.0394 C   0  0  0  0  0  0  0  0  0  0  0  0
   10.7085   -4.2282   -0.3252 C   0  0  0  0  0  0  0  0  0  0  0  0
   10.3156   -4.7890   -1.5879 O   0  0  0  0  0  0  0  0  0  0  0  0
    9.7697   -3.8202   -2.4891 C   0  0  0  0  0  0  0  0  0  0  0  0
   10.3650   -2.4164   -2.2951 C   0  0  0  0  0  0  0  0  0  0  0  0
    3.1683    3.0945    0.6765 C   0  0  0  0  0  0  0  0  0  0  0  0
    1.9066    3.6953    0.7415 C   0  0  0  0  0  0  0  0  0  0  0  0
   -1.7536    2.1777   -0.4165 C   0  0  0  0  0  0  0  0  0  0  0  0
   -2.8952    1.5014   -0.8633 C   0  0  0  0  0  0  0  0  0  0  0  0
   -7.2849   -0.3590   -0.7860 H   0  0  0  0  0  0  0  0  0  0  0  0
   -6.9054   -0.9185   -3.6477 H   0  0  0  0  0  0  0  0  0  0  0  0
   -6.7868   -2.1885   -2.4201 H   0  0  0  0  0  0  0  0  0  0  0  0
   -9.2439   -0.3926   -2.9036 H   0  0  0  0  0  0  0  0  0  0  0  0
   -9.0684   -2.0457   -3.4728 H   0  0  0  0  0  0  0  0  0  0  0  0
  -10.4324   -2.0869   -1.4683 H   0  0  0  0  0  0  0  0  0  0  0  0
   -8.9008   -2.9013   -1.1919 H   0  0  0  0  0  0  0  0  0  0  0  0
  -10.9886   -0.0999   -0.2650 H   0  0  0  0  0  0  0  0  0  0  0  0
   -9.6650    0.7876   -1.0496 H   0  0  0  0  0  0  0  0  0  0  0  0
  -10.3687    1.8708    1.0711 H   0  0  0  0  0  0  0  0  0  0  0  0
   -8.6756    1.3637    1.1482 H   0  0  0  0  0  0  0  0  0  0  0  0
   -9.4976   -1.4996    3.2139 H   0  0  0  0  0  0  0  0  0  0  0  0
   -8.1528   -0.6526    2.4357 H   0  0  0  0  0  0  0  0  0  0  0  0
  -10.4559   -2.1562    1.0425 H   0  0  0  0  0  0  0  0  0  0  0  0
   -8.7652   -2.6968    1.1528 H   0  0  0  0  0  0  0  0  0  0  0  0
   -6.0869    1.1055    0.0455 H   0  0  0  0  0  0  0  0  0  0  0  0
   -5.0128    2.3554    1.6528 H   0  0  0  0  0  0  0  0  0  0  0  0
   -3.0165    3.5190    2.4419 H   0  0  0  0  0  0  0  0  0  0  0  0
   -0.5337    4.6023    0.6879 H   0  0  0  0  0  0  0  0  0  0  0  0
   -0.6892    3.9547    2.3176 H   0  0  0  0  0  0  0  0  0  0  0  0
    0.1215    1.0571    1.9263 H   0  0  0  0  0  0  0  0  0  0  0  0
    2.3227   -0.0054    1.7815 H   0  0  0  0  0  0  0  0  0  0  0  0
    4.5806    0.1186    1.2514 H   0  0  0  0  0  0  0  0  0  0  0  0
    6.4542   -0.0846    0.0594 H   0  0  0  0  0  0  0  0  0  0  0  0
    8.2288    1.6787   -0.4709 H   0  0  0  0  0  0  0  0  0  0  0  0
    8.4079    1.7703    1.2873 H   0  0  0  0  0  0  0  0  0  0  0  0
    8.8886   -0.7554    1.2775 H   0  0  0  0  0  0  0  0  0  0  0  0
   10.1448    0.3158    0.6395 H   0  0  0  0  0  0  0  0  0  0  0  0
    9.3482   -0.0868   -1.6754 H   0  0  0  0  0  0  0  0  0  0  0  0
    8.1535   -1.2503   -1.1007 H   0  0  0  0  0  0  0  0  0  0  0  0
    8.8645   -3.1973    0.0719 H   0  0  0  0  0  0  0  0  0  0  0  0
   10.2400   -2.6260    1.0386 H   0  0  0  0  0  0  0  0  0  0  0  0
   11.7889   -4.0308   -0.3593 H   0  0  0  0  0  0  0  0  0  0  0  0
   10.5459   -4.9980    0.4368 H   0  0  0  0  0  0  0  0  0  0  0  0
    8.6810   -3.8046   -2.3599 H   0  0  0  0  0  0  0  0  0  0  0  0
    9.9702   -4.1730   -3.5053 H   0  0  0  0  0  0  0  0  0  0  0  0
   11.4483   -2.4791   -2.4592 H   0  0  0  0  0  0  0  0  0  0  0  0
    9.9750   -1.7413   -3.0657 H   0  0  0  0  0  0  0  0  0  0  0  0
    4.0002    3.6925    0.3156 H   0  0  0  0  0  0  0  0  0  0  0  0
    1.8117    4.7384    0.4444 H   0  0  0  0  0  0  0  0  0  0  0  0
   -0.8539    2.1391   -1.0274 H   0  0  0  0  0  0  0  0  0  0  0  0
   -2.8332    0.9627   -1.8057 H   0  0  0  0  0  0  0  0  0  0  0  0
  1  2  2  0
  2  3  1  0
  3  4  1  0
  4  5  1  0
  5  6  1  0
  6  7  1  0
  7  8  1  0
  8  9  1  0
  9 10  1  0
 10 11  1  0
 11 12  1  0
  2 13  1  0
 13 14  1  0
 14 15  2  0
 15 16  1  0
 16 17  2  0
 17 18  1  0
 18 19  1  0
 19 20  2  0
 20 21  1  0
 21 22  2  0
 22 23  1  0
 23 24  1  0
 24 25  2  0
 24 26  1  0
 26 27  1  0
 27 28  1  0
 28 29  1  0
 29 30  1  0
 30 31  1  0
 31 32  1  0
 32 33  1  0
 33 34  1  0
 34 35  1  0
 22 36  1  0
 36 37  2  0
 17 38  1  0
 38 39  2  0
 12  7  1  0
 39 14  1  0
 37 19  1  0
 35 30  1  0
  3 40  1  0
  4 41  1  0
  4 42  1  0
  5 43  1  0
  5 44  1  0
  6 45  1  0
  6 46  1  0
  8 47  1  0
  8 48  1  0
  9 49  1  0
  9 50  1  0
 11 51  1  0
 11 52  1  0
 12 53  1  0
 12 54  1  0
 13 55  1  0
 15 56  1  0
 16 57  1  0
 18 58  1  0
 18 59  1  0
 20 60  1  0
 21 61  1  0
 23 62  1  0
 26 63  1  0
 27 64  1  0
 27 65  1  0
 28 66  1  0
 28 67  1  0
 29 68  1  0
 29 69  1  0
 31 70  1  0
 31 71  1  0
 32 72  1  0
 32 73  1  0
 34 74  1  0
 34 75  1  0
 35 76  1  0
 35 77  1  0
 36 78  1  0
 37 79  1  0
 38 80  1  0
 39 81  1  0
M  END
$$$$
