
     RDKit          3D

 37 40  0  0  0  0  0  0  0  0999 V2000
    2.6198    3.8270   -0.0457 O   0  0  0  0  0  0  0  0  0  0  0  0
    3.0314    2.6887    0.0471 C   0  0  0  0  0  0  0  0  0  0  0  0
    4.3279    2.2858    0.1147 O   0  0  0  0  0  0  0  0  0  0  0  0
    4.2925    0.9310    0.2094 C   0  0  0  0  0  0  0  0  0  0  0  0
    5.5776    0.3099    0.2922 C   0  0  0  0  0  0  0  0  0  0  0  0
    6.8616    0.8258    0.2946 C   0  0  0  0  0  0  0  0  0  0  0  0
    7.7458   -0.2756    0.3992 C   0  0  0  0  0  0  0  0  0  0  0  0
    6.9532   -1.3964    0.4544 C   0  0  0  0  0  0  0  0  0  0  0  0
    5.6417   -1.0543    0.3906 O   0  0  0  0  0  0  0  0  0  0  0  0
    3.1351    0.3527    0.2153 N   0  0  0  0  0  0  0  0  0  0  0  0
    2.2719    1.4112    0.1143 C   0  0  0  0  0  0  0  0  0  0  0  0
    0.9348    1.4155    0.0735 C   0  0  0  0  0  0  0  0  0  0  0  0
    0.1129    0.2562    0.1306 C   0  0  0  0  0  0  0  0  0  0  0  0
    0.4086   -1.0976    0.2349 C   0  0  0  0  0  0  0  0  0  0  0  0
   -0.8110   -1.8170    0.2490 C   0  0  0  0  0  0  0  0  0  0  0  0
   -1.8163   -0.8819    0.1527 C   0  0  0  0  0  0  0  0  0  0  0  0
   -3.2761   -0.9446    0.1132 C   0  0  0  0  0  0  0  0  0  0  0  0
   -3.9398   -2.1778    0.1850 C   0  0  0  0  0  0  0  0  0  0  0  0
   -5.3350   -2.2471    0.1524 C   0  0  0  0  0  0  0  0  0  0  0  0
   -6.0905   -1.0813    0.0447 C   0  0  0  0  0  0  0  0  0  0  0  0
   -5.4579    0.1660   -0.0383 C   0  0  0  0  0  0  0  0  0  0  0  0
   -6.2652    1.4364   -0.1323 C   0  0  0  0  0  0  0  0  0  0  0  0
   -5.6694    2.3942   -0.8960 F   0  0  0  0  0  0  0  0  0  0  0  0
   -6.4777    2.0065    1.0857 F   0  0  0  0  0  0  0  0  0  0  0  0
   -7.5009    1.2472   -0.6757 F   0  0  0  0  0  0  0  0  0  0  0  0
   -4.0529    0.2204    0.0046 C   0  0  0  0  0  0  0  0  0  0  0  0
   -1.2616    0.3617    0.0819 O   0  0  0  0  0  0  0  0  0  0  0  0
    7.1262    1.8727    0.2285 H   0  0  0  0  0  0  0  0  0  0  0  0
    8.8264   -0.2560    0.4305 H   0  0  0  0  0  0  0  0  0  0  0  0
    7.1562   -2.4556    0.5355 H   0  0  0  0  0  0  0  0  0  0  0  0
    0.4093    2.3643   -0.0096 H   0  0  0  0  0  0  0  0  0  0  0  0
    1.4004   -1.5252    0.2949 H   0  0  0  0  0  0  0  0  0  0  0  0
   -0.9298   -2.8883    0.3208 H   0  0  0  0  0  0  0  0  0  0  0  0
   -3.3785   -3.1052    0.2702 H   0  0  0  0  0  0  0  0  0  0  0  0
   -5.8310   -3.2131    0.2129 H   0  0  0  0  0  0  0  0  0  0  0  0
   -7.1774   -1.1489    0.0241 H   0  0  0  0  0  0  0  0  0  0  0  0
   -3.5623    1.1928   -0.0497 H   0  0  0  0  0  0  0  0  0  0  0  0
  1  2  2  0
  2  3  1  0
  3  4  1  0
  4  5  1  0
  5  6  2  0
  6  7  1  0
  7  8  2  0
  8  9  1  0
  4 10  2  0
 10 11  1  0
 11 12  2  3
 12 13  1  0
 13 14  2  0
 14 15  1  0
 15 16  2  0
 16 17  1  0
 17 18  2  0
 18 19  1  0
 19 20  2  0
 20 21  1  0
 21 22  1  0
 22 23  1  0
 22 24  1  0
 22 25  1  0
 21 26  2  0
 16 27  1  0
 11  2  1  0
 27 13  1  0
  9  5  1  0
 26 17  1  0
  6 28  1  0
  7 29  1  0
  8 30  1  0
 12 31  1  0
 14 32  1  0
 15 33  1  0
 18 34  1  0
 19 35  1  0
 20 36  1  0
 26 37  1  0
M  END
$$$$
