
     RDKit          3D

 46 49  0  0  0  0  0  0  0  0999 V2000
    6.4722   -0.5111   -0.3591 N   0  0  0  0  0  0  0  0  0  0  0  0
    5.8822   -0.9201    1.1583 S   0  0  0  0  0  6  0  0  0  0  0  0
    6.3948    0.0815    2.0645 O   0  0  0  0  0  0  0  0  0  0  0  0
    6.1590   -2.3277    1.3256 O   0  0  0  0  0  0  0  0  0  0  0  0
    4.1438   -0.6848    0.9519 C   0  0  0  0  0  0  0  0  0  0  0  0
    3.5665    0.5427    1.2709 C   0  0  0  0  0  0  0  0  0  0  0  0
    2.1836    0.7161    1.1290 C   0  0  0  0  0  0  0  0  0  0  0  0
    1.3503   -0.3217    0.6776 C   0  0  0  0  0  0  0  0  0  0  0  0
   -0.0266   -0.1646    0.5270 N   0  0  0  0  0  0  0  0  0  0  0  0
   -0.8100   -1.2087    0.1249 N   0  0  0  0  0  0  0  0  0  0  0  0
   -2.0466   -0.8411    0.2708 C   0  0  0  0  0  0  0  0  0  0  0  0
   -3.1946   -1.7077   -0.0859 C   0  0  0  0  0  0  0  0  0  0  0  0
   -2.9455   -2.9478   -0.6895 C   0  0  0  0  0  0  0  0  0  0  0  0
   -4.0050   -3.7888   -1.0395 C   0  0  0  0  0  0  0  0  0  0  0  0
   -5.3150   -3.3898   -0.7846 C   0  0  0  0  0  0  0  0  0  0  0  0
   -6.7509   -4.5244   -1.2564 Br  0  0  0  0  0  0  0  0  0  0  0  0
   -5.5747   -2.1592   -0.1828 C   0  0  0  0  0  0  0  0  0  0  0  0
   -4.5146   -1.3166    0.1679 C   0  0  0  0  0  0  0  0  0  0  0  0
   -2.2386    0.5267    0.8653 C   0  0  0  0  0  0  0  0  0  0  0  0
   -0.7962    1.0374    0.8543 C   0  0  0  0  0  0  0  0  0  0  0  0
   -0.6240    2.1598   -0.1615 C   0  0  0  0  0  0  0  0  0  0  0  0
   -0.6991    3.4973    0.2689 C   0  0  0  0  0  0  0  0  0  0  0  0
   -0.5678    4.5454   -0.6442 C   0  0  0  0  0  0  0  0  0  0  0  0
   -0.3672    4.2631   -1.9896 C   0  0  0  0  0  0  0  0  0  0  0  0
   -0.2425    5.2708   -2.8630 F   0  0  0  0  0  0  0  0  0  0  0  0
   -0.2970    2.9521   -2.4412 C   0  0  0  0  0  0  0  0  0  0  0  0
   -0.4286    1.9023   -1.5309 C   0  0  0  0  0  0  0  0  0  0  0  0
    1.9698   -1.5498    0.3761 C   0  0  0  0  0  0  0  0  0  0  0  0
    3.3491   -1.7406    0.5138 C   0  0  0  0  0  0  0  0  0  0  0  0
    7.0811    0.3039   -0.2867 H   0  0  0  0  0  0  0  0  0  0  0  0
    6.9148   -1.3233   -0.7891 H   0  0  0  0  0  0  0  0  0  0  0  0
    4.1771    1.3693    1.6267 H   0  0  0  0  0  0  0  0  0  0  0  0
    1.7741    1.6903    1.3781 H   0  0  0  0  0  0  0  0  0  0  0  0
   -1.9246   -3.2673   -0.8916 H   0  0  0  0  0  0  0  0  0  0  0  0
   -3.7955   -4.7475   -1.5071 H   0  0  0  0  0  0  0  0  0  0  0  0
   -6.5969   -1.8477    0.0181 H   0  0  0  0  0  0  0  0  0  0  0  0
   -4.7458   -0.3661    0.6392 H   0  0  0  0  0  0  0  0  0  0  0  0
   -2.6075    0.4154    1.8906 H   0  0  0  0  0  0  0  0  0  0  0  0
   -2.9344    1.1353    0.2816 H   0  0  0  0  0  0  0  0  0  0  0  0
   -0.5330    1.3985    1.8567 H   0  0  0  0  0  0  0  0  0  0  0  0
   -0.8576    3.7325    1.3195 H   0  0  0  0  0  0  0  0  0  0  0  0
   -0.6204    5.5788   -0.3162 H   0  0  0  0  0  0  0  0  0  0  0  0
   -0.1380    2.7527   -3.4961 H   0  0  0  0  0  0  0  0  0  0  0  0
   -0.3668    0.8771   -1.8943 H   0  0  0  0  0  0  0  0  0  0  0  0
    1.3635   -2.3838    0.0273 H   0  0  0  0  0  0  0  0  0  0  0  0
    3.7828   -2.7090    0.2773 H   0  0  0  0  0  0  0  0  0  0  0  0
  1  2  1  0
  2  3  2  0
  2  4  2  0
  2  5  1  0
  5  6  2  0
  6  7  1  0
  7  8  2  0
  8  9  1  0
  9 10  1  0
 10 11  2  0
 11 12  1  0
 12 13  2  0
 13 14  1  0
 14 15  2  0
 15 16  1  0
 15 17  1  0
 17 18  2  0
 11 19  1  0
 19 20  1  0
 20 21  1  0
 21 22  2  0
 22 23  1  0
 23 24  2  0
 24 25  1  0
 24 26  1  0
 26 27  2  0
  8 28  1  0
 28 29  2  0
 29  5  1  0
 20  9  1  0
 27 21  1  0
 18 12  1  0
  1 30  1  0
  1 31  1  0
  6 32  1  0
  7 33  1  0
 13 34  1  0
 14 35  1  0
 17 36  1  0
 18 37  1  0
 19 38  1  0
 19 39  1  0
 20 40  1  0
 22 41  1  0
 23 42  1  0
 26 43  1  0
 27 44  1  0
 28 45  1  0
 29 46  1  0
M  END
$$$$
