
     RDKit          3D

 33 36  0  0  0  0  0  0  0  0999 V2000
   -1.3537    2.2471    0.9416 O   0  0  0  0  0  0  0  0  0  0  0  0
   -0.7786    1.2496    0.5081 C   0  0  0  0  0  0  0  0  0  0  0  0
    0.7032    1.3069    0.4896 C   0  0  0  0  0  0  0  0  0  0  0  0
    1.3328    2.5402    0.7109 C   0  0  0  0  0  0  0  0  0  0  0  0
    2.7176    2.6222    0.7496 C   0  0  0  0  0  0  0  0  0  0  0  0
    3.4811    1.4707    0.5739 C   0  0  0  0  0  0  0  0  0  0  0  0
    2.8775    0.2083    0.3438 C   0  0  0  0  0  0  0  0  0  0  0  0
    3.5889   -1.0074    0.1668 C   0  0  0  0  0  0  0  0  0  0  0  0
    5.0421   -1.0307    0.1911 N   0  0  0  0  0  4  0  0  0  0  0  0
    5.6353   -0.3792   -0.6779 O   0  0  0  0  0  0  0  0  0  0  0  0
    5.5757   -1.7208    1.0690 O   0  0  0  0  0  1  0  0  0  0  0  0
    2.9473   -2.2335   -0.0334 C   0  0  0  0  0  0  0  0  0  0  0  0
    1.5592   -2.2634   -0.0834 C   0  0  0  0  0  0  0  0  0  0  0  0
    0.8159   -1.0808    0.0762 C   0  0  0  0  0  0  0  0  0  0  0  0
    1.4556    0.1445    0.2994 C   0  0  0  0  0  0  0  0  0  0  0  0
   -0.6632   -1.1475   -0.0425 C   0  0  0  0  0  0  0  0  0  0  0  0
   -1.1354   -2.2454   -0.3337 O   0  0  0  0  0  0  0  0  0  0  0  0
   -1.3791    0.0392    0.1363 N   0  0  0  0  0  0  0  0  0  0  0  0
   -2.8052    0.0487   -0.0503 C   0  0  0  0  0  0  0  0  0  0  0  0
   -3.5969   -1.0709    0.2153 C   0  0  0  0  0  0  0  0  0  0  0  0
   -4.9762   -1.0176    0.0021 C   0  0  0  0  0  0  0  0  0  0  0  0
   -5.5481    0.1516   -0.4717 C   0  0  0  0  0  0  0  0  0  0  0  0
   -4.7111    1.2216   -0.7119 C   0  0  0  0  0  0  0  0  0  0  0  0
   -3.3745    1.1875   -0.5183 N   0  0  0  0  0  0  0  0  0  0  0  0
    0.7410    3.4427    0.8612 H   0  0  0  0  0  0  0  0  0  0  0  0
    3.2029    3.5805    0.9230 H   0  0  0  0  0  0  0  0  0  0  0  0
    4.5648    1.5802    0.6193 H   0  0  0  0  0  0  0  0  0  0  0  0
    3.5151   -3.1537   -0.1593 H   0  0  0  0  0  0  0  0  0  0  0  0
    1.0551   -3.2141   -0.2577 H   0  0  0  0  0  0  0  0  0  0  0  0
   -3.1810   -1.9873    0.6191 H   0  0  0  0  0  0  0  0  0  0  0  0
   -5.5938   -1.8860    0.2140 H   0  0  0  0  0  0  0  0  0  0  0  0
   -6.6153    0.2289   -0.6438 H   0  0  0  0  0  0  0  0  0  0  0  0
   -5.0988    2.1680   -1.0779 H   0  0  0  0  0  0  0  0  0  0  0  0
  1  2  2  0
  2  3  1  0
  3  4  1  0
  4  5  2  0
  5  6  1  0
  6  7  2  0
  7  8  1  0
  8  9  1  0
  9 10  2  0
  9 11  1  0
  8 12  2  0
 12 13  1  0
 13 14  2  0
 14 15  1  0
 14 16  1  0
 16 17  2  0
 16 18  1  0
 18 19  1  0
 19 20  2  0
 20 21  1  0
 21 22  2  0
 22 23  1  0
 23 24  2  0
 18  2  1  0
 24 19  1  0
 15  3  2  0
 15  7  1  0
  4 25  1  0
  5 26  1  0
  6 27  1  0
 12 28  1  0
 13 29  1  0
 20 30  1  0
 21 31  1  0
 22 32  1  0
 23 33  1  0
M  CHG  2   9   1  11  -1
M  END
$$$$
