
     RDKit          3D

 67 69  0  0  0  0  0  0  0  0999 V2000
   -0.9067    2.2896    2.4515 C   0  0  0  0  0  0  0  0  0  0  0  0
   -0.8988    1.0794    1.5221 C   0  0  0  0  0  0  0  0  0  0  0  0
   -2.1825    0.9650    0.8344 N   0  0  0  0  0  0  0  0  0  0  0  0
   -3.2814    0.3836    1.4191 C   0  0  0  0  0  0  0  0  0  0  0  0
   -3.2587   -0.0863    2.5520 O   0  0  0  0  0  0  0  0  0  0  0  0
   -4.5243    0.3185    0.5979 C   0  0  0  0  0  0  0  0  0  0  0  0
   -5.4880   -0.6363    0.9283 C   0  0  0  0  0  0  0  0  0  0  0  0
   -6.6699   -0.7360    0.1858 C   0  0  0  0  0  0  0  0  0  0  0  0
   -6.9306    0.1194   -0.9012 C   0  0  0  0  0  0  0  0  0  0  0  0
   -8.2403   -0.0211   -1.6968 C   0  0  0  0  0  0  0  0  0  0  0  0
   -8.3700    0.9799   -2.8682 C   0  0  0  0  0  0  0  0  0  0  0  0
   -9.4439    0.2120   -0.7592 C   0  0  0  0  0  0  0  0  0  0  0  0
   -8.3320   -1.4398   -2.2976 C   0  0  0  0  0  0  0  0  0  0  0  0
   -5.9581    1.0865   -1.2053 C   0  0  0  0  0  0  0  0  0  0  0  0
   -4.7711    1.1886   -0.4673 C   0  0  0  0  0  0  0  0  0  0  0  0
    0.1896    1.2458    0.4402 C   0  0  0  0  0  0  0  0  0  0  0  0
   -0.1167    1.6949   -0.6714 O   0  0  0  0  0  0  0  0  0  0  0  0
    1.4992    0.9239    0.7580 N   0  0  0  0  0  0  0  0  0  0  0  0
    1.9403    0.2878    2.0055 C   0  0  0  0  0  0  0  0  0  0  0  0
    3.4258    0.5779    2.2885 C   0  0  0  0  0  0  0  0  0  0  0  0
    4.3376    0.0868    1.2342 N   0  0  0  0  0  0  0  0  0  0  0  0
    5.5977    0.8394    1.2572 C   0  0  0  0  0  0  0  0  0  0  0  0
    6.7718    0.1637    0.5980 C   0  0  0  0  0  0  0  0  0  0  0  0
    6.8493   -1.1215    0.2127 C   0  0  0  0  0  0  0  0  0  0  0  0
    8.0344   -1.7188   -0.4160 C   0  0  0  0  0  0  0  0  0  0  0  0
    8.7716   -1.0498   -1.4019 C   0  0  0  0  0  0  0  0  0  0  0  0
    9.8776   -1.6598   -1.9996 C   0  0  0  0  0  0  0  0  0  0  0  0
   10.2511   -2.9482   -1.6228 C   0  0  0  0  0  0  0  0  0  0  0  0
    9.5156   -3.6294   -0.6557 C   0  0  0  0  0  0  0  0  0  0  0  0
    8.4090   -3.0198   -0.0594 C   0  0  0  0  0  0  0  0  0  0  0  0
    3.6977    0.1002   -0.1017 C   0  0  0  0  0  0  0  0  0  0  0  0
    2.5351    1.0963   -0.2647 C   0  0  0  0  0  0  0  0  0  0  0  0
   -1.6686    2.1842    3.2304 H   0  0  0  0  0  0  0  0  0  0  0  0
   -1.1298    3.2070    1.8953 H   0  0  0  0  0  0  0  0  0  0  0  0
    0.0593    2.4363    2.9417 H   0  0  0  0  0  0  0  0  0  0  0  0
   -0.7348    0.1531    2.0814 H   0  0  0  0  0  0  0  0  0  0  0  0
   -2.1806    1.2306   -0.1449 H   0  0  0  0  0  0  0  0  0  0  0  0
   -5.3233   -1.3118    1.7659 H   0  0  0  0  0  0  0  0  0  0  0  0
   -7.3898   -1.4988    0.4759 H   0  0  0  0  0  0  0  0  0  0  0  0
   -8.3575    2.0171   -2.5156 H   0  0  0  0  0  0  0  0  0  0  0  0
   -7.5596    0.8573   -3.5965 H   0  0  0  0  0  0  0  0  0  0  0  0
   -9.3124    0.8365   -3.4092 H   0  0  0  0  0  0  0  0  0  0  0  0
  -10.3904    0.1616   -1.3105 H   0  0  0  0  0  0  0  0  0  0  0  0
   -9.4984   -0.5363    0.0390 H   0  0  0  0  0  0  0  0  0  0  0  0
   -9.3868    1.1981   -0.2837 H   0  0  0  0  0  0  0  0  0  0  0  0
   -8.3612   -2.2176   -1.5261 H   0  0  0  0  0  0  0  0  0  0  0  0
   -9.2392   -1.5538   -2.9014 H   0  0  0  0  0  0  0  0  0  0  0  0
   -7.4715   -1.6497   -2.9444 H   0  0  0  0  0  0  0  0  0  0  0  0
   -6.0975    1.7917   -2.0196 H   0  0  0  0  0  0  0  0  0  0  0  0
   -4.0674    1.9723   -0.7317 H   0  0  0  0  0  0  0  0  0  0  0  0
    1.7692   -0.7909    1.9014 H   0  0  0  0  0  0  0  0  0  0  0  0
    1.3361    0.6343    2.8455 H   0  0  0  0  0  0  0  0  0  0  0  0
    3.7099    0.1164    3.2413 H   0  0  0  0  0  0  0  0  0  0  0  0
    3.5318    1.6653    2.4087 H   0  0  0  0  0  0  0  0  0  0  0  0
    5.4542    1.8285    0.8020 H   0  0  0  0  0  0  0  0  0  0  0  0
    5.9025    1.0171    2.2977 H   0  0  0  0  0  0  0  0  0  0  0  0
    7.6368    0.8104    0.4630 H   0  0  0  0  0  0  0  0  0  0  0  0
    6.0155   -1.7973    0.3894 H   0  0  0  0  0  0  0  0  0  0  0  0
    8.4855   -0.0515   -1.7225 H   0  0  0  0  0  0  0  0  0  0  0  0
   10.4431   -1.1290   -2.7611 H   0  0  0  0  0  0  0  0  0  0  0  0
   11.1115   -3.4245   -2.0849 H   0  0  0  0  0  0  0  0  0  0  0  0
    9.8021   -4.6357   -0.3630 H   0  0  0  0  0  0  0  0  0  0  0  0
    7.8477   -3.5663    0.6946 H   0  0  0  0  0  0  0  0  0  0  0  0
    4.4244    0.2677   -0.9053 H   0  0  0  0  0  0  0  0  0  0  0  0
    3.3011   -0.9101   -0.2676 H   0  0  0  0  0  0  0  0  0  0  0  0
    2.1017    0.9907   -1.2653 H   0  0  0  0  0  0  0  0  0  0  0  0
    2.9060    2.1245   -0.1730 H   0  0  0  0  0  0  0  0  0  0  0  0
  1  2  1  0
  2  3  1  0
  3  4  1  0
  4  5  2  0
  4  6  1  0
  6  7  2  0
  7  8  1  0
  8  9  2  0
  9 10  1  0
 10 11  1  0
 10 12  1  0
 10 13  1  0
  9 14  1  0
 14 15  2  0
  2 16  1  0
 16 17  2  0
 16 18  1  0
 18 19  1  0
 19 20  1  0
 20 21  1  0
 21 22  1  0
 22 23  1  0
 23 24  2  3
 24 25  1  0
 25 26  2  0
 26 27  1  0
 27 28  2  0
 28 29  1  0
 29 30  2  0
 21 31  1  0
 31 32  1  0
 15  6  1  0
 32 18  1  0
 30 25  1  0
  1 33  1  0
  1 34  1  0
  1 35  1  0
  2 36  1  0
  3 37  1  0
  7 38  1  0
  8 39  1  0
 11 40  1  0
 11 41  1  0
 11 42  1  0
 12 43  1  0
 12 44  1  0
 12 45  1  0
 13 46  1  0
 13 47  1  0
 13 48  1  0
 14 49  1  0
 15 50  1  0
 19 51  1  0
 19 52  1  0
 20 53  1  0
 20 54  1  0
 22 55  1  0
 22 56  1  0
 23 57  1  0
 24 58  1  0
 26 59  1  0
 27 60  1  0
 28 61  1  0
 29 62  1  0
 30 63  1  0
 31 64  1  0
 31 65  1  0
 32 66  1  0
 32 67  1  0
M  END
$$$$
