
     RDKit          3D

 61 61  0  0  0  0  0  0  0  0999 V2000
    8.0674    2.0403   -2.4383 C   0  0  0  0  0  0  0  0  0  0  0  0
    7.2808    2.9245   -1.4832 C   0  0  0  0  0  0  0  0  0  0  0  0
    6.5681    2.1453   -0.3758 C   0  0  0  0  0  0  0  0  0  0  0  0
    5.4620    1.2238   -0.8975 C   0  0  0  0  0  0  0  0  0  0  0  0
    4.7112    0.5559    0.2578 C   0  0  0  0  0  0  0  0  0  0  0  0
    3.6705   -0.4710   -0.2012 C   0  0  0  0  0  0  0  0  0  0  0  0
    2.4900    0.1542   -0.9482 C   0  0  0  0  0  0  0  0  0  0  0  0
    1.4487   -0.8714   -1.4098 C   0  0  0  0  0  0  0  0  0  0  0  0
    0.7766   -1.6913   -0.3041 C   0  0  0  0  0  0  0  0  0  0  0  0
    0.0455   -0.8343    0.7326 C   0  0  0  0  0  0  0  0  0  0  0  0
   -0.7147   -1.7104    1.7335 C   0  0  0  0  0  0  0  0  0  0  0  0
   -1.3829   -0.9127    2.8584 C   0  0  0  0  0  0  0  0  0  0  0  0
   -2.5240    0.0200    2.4345 C   0  0  0  0  0  0  0  0  0  0  0  0
   -3.9248   -0.5995    2.5025 C   0  0  0  0  0  0  0  0  0  0  0  0
   -4.2212   -1.7399    1.5272 C   0  0  0  0  0  0  0  0  0  0  0  0
   -4.0865   -1.3732    0.0515 C   0  0  0  0  0  0  0  0  0  0  0  0
   -5.0262   -0.3213   -0.3500 N   0  0  0  0  0  0  0  0  0  0  0  0
   -4.6983    0.9832   -0.6868 C   0  0  0  0  0  0  0  0  0  0  0  0
   -5.8675    1.6146   -1.0036 C   0  0  0  0  0  0  0  0  0  0  0  0
   -6.8782    0.6779   -0.8644 N   0  0  0  0  0  4  0  0  0  0  0  0
   -8.2966    0.9159   -1.0984 C   0  0  0  0  0  0  0  0  0  0  0  0
   -6.3522   -0.4915   -0.4718 C   0  0  0  0  0  0  0  0  0  0  0  0
    8.7806    1.4121   -1.8956 H   0  0  0  0  0  0  0  0  0  0  0  0
    7.4069    1.3915   -3.0208 H   0  0  0  0  0  0  0  0  0  0  0  0
    8.6303    2.6589   -3.1448 H   0  0  0  0  0  0  0  0  0  0  0  0
    6.5537    3.5174   -2.0500 H   0  0  0  0  0  0  0  0  0  0  0  0
    7.9735    3.6350   -1.0164 H   0  0  0  0  0  0  0  0  0  0  0  0
    6.1314    2.8681    0.3246 H   0  0  0  0  0  0  0  0  0  0  0  0
    7.3016    1.5594    0.1914 H   0  0  0  0  0  0  0  0  0  0  0  0
    5.8924    0.4488   -1.5413 H   0  0  0  0  0  0  0  0  0  0  0  0
    4.7676    1.8102   -1.5088 H   0  0  0  0  0  0  0  0  0  0  0  0
    5.4351    0.0417    0.9024 H   0  0  0  0  0  0  0  0  0  0  0  0
    4.2252    1.3202    0.8764 H   0  0  0  0  0  0  0  0  0  0  0  0
    3.3047   -0.9902    0.6918 H   0  0  0  0  0  0  0  0  0  0  0  0
    4.1523   -1.2265   -0.8335 H   0  0  0  0  0  0  0  0  0  0  0  0
    2.8548    0.6737   -1.8417 H   0  0  0  0  0  0  0  0  0  0  0  0
    2.0142    0.9172   -0.3217 H   0  0  0  0  0  0  0  0  0  0  0  0
    0.6723   -0.3417   -1.9761 H   0  0  0  0  0  0  0  0  0  0  0  0
    1.9230   -1.5651   -2.1154 H   0  0  0  0  0  0  0  0  0  0  0  0
    0.0568   -2.3707   -0.7783 H   0  0  0  0  0  0  0  0  0  0  0  0
    1.5158   -2.3289    0.1940 H   0  0  0  0  0  0  0  0  0  0  0  0
   -0.6452   -0.1612    0.2144 H   0  0  0  0  0  0  0  0  0  0  0  0
    0.7639   -0.2112    1.2767 H   0  0  0  0  0  0  0  0  0  0  0  0
   -1.4483   -2.3246    1.2048 H   0  0  0  0  0  0  0  0  0  0  0  0
   -0.0050   -2.4093    2.1948 H   0  0  0  0  0  0  0  0  0  0  0  0
   -1.7421   -1.6096    3.6254 H   0  0  0  0  0  0  0  0  0  0  0  0
   -0.6072   -0.3051    3.3427 H   0  0  0  0  0  0  0  0  0  0  0  0
   -2.3439    0.4619    1.4514 H   0  0  0  0  0  0  0  0  0  0  0  0
   -2.5268    0.8640    3.1376 H   0  0  0  0  0  0  0  0  0  0  0  0
   -4.6601    0.1996    2.3463 H   0  0  0  0  0  0  0  0  0  0  0  0
   -4.0982   -0.9657    3.5226 H   0  0  0  0  0  0  0  0  0  0  0  0
   -3.5771   -2.5962    1.7512 H   0  0  0  0  0  0  0  0  0  0  0  0
   -5.2476   -2.0812    1.7123 H   0  0  0  0  0  0  0  0  0  0  0  0
   -4.3034   -2.2527   -0.5664 H   0  0  0  0  0  0  0  0  0  0  0  0
   -3.0690   -1.0547   -0.1938 H   0  0  0  0  0  0  0  0  0  0  0  0
   -3.6686    1.2953   -0.6530 H   0  0  0  0  0  0  0  0  0  0  0  0
   -6.1155    2.6148   -1.3150 H   0  0  0  0  0  0  0  0  0  0  0  0
   -8.8367   -0.0346   -1.1027 H   0  0  0  0  0  0  0  0  0  0  0  0
   -8.6851    1.5536   -0.3001 H   0  0  0  0  0  0  0  0  0  0  0  0
   -8.4258    1.4082   -2.0659 H   0  0  0  0  0  0  0  0  0  0  0  0
   -6.8984   -1.4090   -0.2842 H   0  0  0  0  0  0  0  0  0  0  0  0
  1  2  1  0
  2  3  1  0
  3  4  1  0
  4  5  1  0
  5  6  1  0
  6  7  1  0
  7  8  1  0
  8  9  1  0
  9 10  1  0
 10 11  1  0
 11 12  1  0
 12 13  1  0
 13 14  1  0
 14 15  1  0
 15 16  1  0
 16 17  1  0
 17 18  1  0
 18 19  2  0
 19 20  1  0
 20 21  1  0
 20 22  2  0
 22 17  1  0
  1 23  1  0
  1 24  1  0
  1 25  1  0
  2 26  1  0
  2 27  1  0
  3 28  1  0
  3 29  1  0
  4 30  1  0
  4 31  1  0
  5 32  1  0
  5 33  1  0
  6 34  1  0
  6 35  1  0
  7 36  1  0
  7 37  1  0
  8 38  1  0
  8 39  1  0
  9 40  1  0
  9 41  1  0
 10 42  1  0
 10 43  1  0
 11 44  1  0
 11 45  1  0
 12 46  1  0
 12 47  1  0
 13 48  1  0
 13 49  1  0
 14 50  1  0
 14 51  1  0
 15 52  1  0
 15 53  1  0
 16 54  1  0
 16 55  1  0
 18 56  1  0
 19 57  1  0
 21 58  1  0
 21 59  1  0
 21 60  1  0
 22 61  1  0
M  CHG  1  20   1
M  END
$$$$
