
     RDKit          3D

 61 65  0  0  0  0  0  0  0  0999 V2000
    2.5287   -1.0578    0.3038 C   0  0  0  0  0  0  0  0  0  0  0  0
    3.0355   -0.0690   -0.6831 C   0  0  0  0  0  0  0  0  0  0  0  0
    2.3869    1.0439   -1.1923 C   0  0  0  0  0  0  0  0  0  0  0  0
    1.0027    1.5581   -0.9153 C   0  0  0  0  0  0  0  0  0  0  0  0
   -0.0218    0.9823   -1.8989 C   0  0  0  0  0  0  0  0  0  0  0  0
   -1.3510    1.0574   -1.3629 O   0  0  0  0  0  0  0  0  0  0  0  0
   -1.6765    0.0660   -0.4819 C   0  0  0  0  0  0  0  0  0  0  0  0
   -0.8854   -0.7958   -0.1137 O   0  0  0  0  0  0  0  0  0  0  0  0
   -3.1315    0.1787   -0.0339 C   0  0  0  0  0  0  0  0  0  0  0  0
   -3.4224    1.5840    0.5375 C   0  0  0  0  0  0  0  0  0  0  0  0
   -4.8911    1.6913    0.9809 C   0  0  0  0  0  0  0  0  0  0  0  0
   -5.8033    1.4272   -0.2274 C   0  0  0  0  0  0  0  0  0  0  0  0
   -5.5401    0.0202   -0.7902 C   0  0  0  0  0  0  0  0  0  0  0  0
   -5.8205   -1.0228    0.3030 C   0  0  0  0  0  0  0  0  0  0  0  0
   -4.9081   -0.7805    1.5266 C   0  0  0  0  0  0  0  0  0  0  0  0
   -5.1909   -1.8243    2.6120 C   0  0  0  0  0  0  0  0  0  0  0  0
   -5.1718    0.6429    2.0698 C   0  0  0  0  0  0  0  0  0  0  0  0
   -3.4331   -0.8670    1.0678 C   0  0  0  0  0  0  0  0  0  0  0  0
   -4.0705   -0.0870   -1.2299 C   0  0  0  0  0  0  0  0  0  0  0  0
    3.4079    1.8683   -2.3024 S   0  0  0  0  0  0  0  0  0  0  0  0
    4.6547    0.7207   -2.0970 C   0  0  0  0  0  0  0  0  0  0  0  0
    4.3107   -0.2175   -1.2267 N   0  0  0  0  0  4  0  0  0  0  0  0
    5.2283   -1.3303   -0.9346 C   0  0  0  0  0  0  0  0  0  0  0  0
    6.4837   -0.8135   -0.2728 C   0  0  0  0  0  0  0  0  0  0  0  0
    6.4313   -0.1905    0.9865 C   0  0  0  0  0  0  0  0  0  0  0  0
    7.5971    0.2855    1.5887 C   0  0  0  0  0  0  0  0  0  0  0  0
    8.8242    0.1427    0.9444 C   0  0  0  0  0  0  0  0  0  0  0  0
    8.8897   -0.4718   -0.3048 C   0  0  0  0  0  0  0  0  0  0  0  0
    7.7275   -0.9508   -0.9108 C   0  0  0  0  0  0  0  0  0  0  0  0
    2.3806   -2.0328   -0.1709 H   0  0  0  0  0  0  0  0  0  0  0  0
    1.5739   -0.7475    0.7327 H   0  0  0  0  0  0  0  0  0  0  0  0
    3.2250   -1.1684    1.1404 H   0  0  0  0  0  0  0  0  0  0  0  0
    0.9755    2.6543   -0.9663 H   0  0  0  0  0  0  0  0  0  0  0  0
    0.7263    1.3248    0.1196 H   0  0  0  0  0  0  0  0  0  0  0  0
    0.2060   -0.0538   -2.1849 H   0  0  0  0  0  0  0  0  0  0  0  0
   -0.0137    1.5635   -2.8283 H   0  0  0  0  0  0  0  0  0  0  0  0
   -3.2168    2.3592   -0.2109 H   0  0  0  0  0  0  0  0  0  0  0  0
   -2.7580    1.7921    1.3845 H   0  0  0  0  0  0  0  0  0  0  0  0
   -5.0846    2.6951    1.3739 H   0  0  0  0  0  0  0  0  0  0  0  0
   -6.8550    1.5222    0.0700 H   0  0  0  0  0  0  0  0  0  0  0  0
   -5.6221    2.1815   -1.0038 H   0  0  0  0  0  0  0  0  0  0  0  0
   -6.1969   -0.1630   -1.6469 H   0  0  0  0  0  0  0  0  0  0  0  0
   -5.6552   -2.0314   -0.0994 H   0  0  0  0  0  0  0  0  0  0  0  0
   -6.8766   -0.9704    0.5985 H   0  0  0  0  0  0  0  0  0  0  0  0
   -6.2322   -1.7718    2.9478 H   0  0  0  0  0  0  0  0  0  0  0  0
   -5.0119   -2.8407    2.2410 H   0  0  0  0  0  0  0  0  0  0  0  0
   -4.5494   -1.6698    3.4868 H   0  0  0  0  0  0  0  0  0  0  0  0
   -4.5388    0.8388    2.9452 H   0  0  0  0  0  0  0  0  0  0  0  0
   -6.2121    0.7328    2.4081 H   0  0  0  0  0  0  0  0  0  0  0  0
   -2.7650   -0.7096    1.9239 H   0  0  0  0  0  0  0  0  0  0  0  0
   -3.2167   -1.8772    0.6960 H   0  0  0  0  0  0  0  0  0  0  0  0
   -3.8758   -1.0815   -1.6504 H   0  0  0  0  0  0  0  0  0  0  0  0
   -3.8772    0.6293   -2.0379 H   0  0  0  0  0  0  0  0  0  0  0  0
    5.6038    0.7709   -2.6197 H   0  0  0  0  0  0  0  0  0  0  0  0
    5.4597   -1.8293   -1.8852 H   0  0  0  0  0  0  0  0  0  0  0  0
    4.7662   -2.0868   -0.2937 H   0  0  0  0  0  0  0  0  0  0  0  0
    5.4921   -0.0686    1.5220 H   0  0  0  0  0  0  0  0  0  0  0  0
    7.5556    0.7634    2.5677 H   0  0  0  0  0  0  0  0  0  0  0  0
    9.7328    0.5096    1.4186 H   0  0  0  0  0  0  0  0  0  0  0  0
    9.8523   -0.5865   -0.7986 H   0  0  0  0  0  0  0  0  0  0  0  0
    7.8171   -1.4389   -1.8813 H   0  0  0  0  0  0  0  0  0  0  0  0
  1  2  1  0
  2  3  2  0
  3  4  1  0
  4  5  1  0
  5  6  1  0
  6  7  1  0
  7  8  2  0
  7  9  1  0
  9 10  1  0
 10 11  1  0
 11 12  1  0
 12 13  1  0
 13 14  1  0
 14 15  1  0
 15 16  1  0
 15 17  1  0
 15 18  1  0
 13 19  1  0
  3 20  1  0
 20 21  1  0
 21 22  2  0
 22 23  1  0
 23 24  1  0
 24 25  2  0
 25 26  1  0
 26 27  2  0
 27 28  1  0
 28 29  2  0
 22  2  1  0
 29 24  1  0
 18  9  1  0
 19  9  1  0
 17 11  1  0
  1 30  1  0
  1 31  1  0
  1 32  1  0
  4 33  1  0
  4 34  1  0
  5 35  1  0
  5 36  1  0
 10 37  1  0
 10 38  1  0
 11 39  1  0
 12 40  1  0
 12 41  1  0
 13 42  1  0
 14 43  1  0
 14 44  1  0
 16 45  1  0
 16 46  1  0
 16 47  1  0
 17 48  1  0
 17 49  1  0
 18 50  1  0
 18 51  1  0
 19 52  1  0
 19 53  1  0
 21 54  1  0
 23 55  1  0
 23 56  1  0
 25 57  1  0
 26 58  1  0
 27 59  1  0
 28 60  1  0
 29 61  1  0
M  CHG  1  22   1
M  END
$$$$
