
     RDKit          3D

 70 75  0  0  0  0  0  0  0  0999 V2000
   -2.0172   -6.5714   -0.8677 C   0  0  0  0  0  0  0  0  0  0  0  0
   -1.6917   -5.1366   -1.1558 C   0  0  0  0  0  0  0  0  0  0  0  0
   -2.4276   -4.4114   -2.0972 C   0  0  0  0  0  0  0  0  0  0  0  0
   -2.0992   -3.0836   -2.3813 C   0  0  0  0  0  0  0  0  0  0  0  0
   -1.0205   -2.4566   -1.7398 C   0  0  0  0  0  0  0  0  0  0  0  0
   -0.6768   -1.0113   -2.0518 C   0  0  0  0  0  0  0  0  0  0  0  0
   -1.1831   -0.0883   -1.0419 N   0  0  0  0  0  0  0  0  0  0  0  0
   -2.5629    0.1807   -1.1127 C   0  0  0  0  0  0  0  0  0  0  0  0
   -3.2309   -0.0300   -2.1285 O   0  0  0  0  0  0  0  0  0  0  0  0
   -3.2229    0.6269    0.2059 C   0  0  0  0  0  0  0  0  0  0  0  0
   -4.6004    1.2581   -0.0688 C   0  0  0  0  0  0  0  0  0  0  0  0
   -5.3797    1.5538    1.1950 C   0  0  0  0  0  0  0  0  0  0  0  0
   -6.0146    0.5195    1.8964 C   0  0  0  0  0  0  0  0  0  0  0  0
   -6.7130    0.7909    3.0742 C   0  0  0  0  0  0  0  0  0  0  0  0
   -6.7845    2.0958    3.5601 C   0  0  0  0  0  0  0  0  0  0  0  0
   -6.1581    3.1310    2.8693 C   0  0  0  0  0  0  0  0  0  0  0  0
   -5.4583    2.8624    1.6922 C   0  0  0  0  0  0  0  0  0  0  0  0
   -2.3669    1.5678    0.9224 N   0  0  0  0  0  0  0  0  0  0  0  0
   -1.0761    1.0685    1.1146 C   0  0  0  0  0  0  0  0  0  0  0  0
   -0.5294    1.4075    2.2905 N   0  0  0  0  0  0  0  0  0  0  0  0
    0.7328    1.0313    2.4683 C   0  0  0  0  0  0  0  0  0  0  0  0
    1.5001    0.4246    1.5601 N   0  0  0  0  0  0  0  0  0  0  0  0
    0.9519    0.1355    0.3593 C   0  0  0  0  0  0  0  0  0  0  0  0
    1.8452   -0.2909   -0.6395 N   0  0  0  0  0  0  0  0  0  0  0  0
    3.0737   -0.9767   -0.1562 C   0  0  0  0  0  0  0  0  0  0  0  0
    4.2152   -0.0310    0.2967 C   0  0  0  0  0  0  0  0  0  0  0  0
    4.4773    1.0261   -0.7161 N   0  0  0  0  0  0  0  0  0  0  0  0
    5.6385    1.7700   -0.4490 C   0  0  0  0  0  0  0  0  0  0  0  0
    5.6333    3.1383   -0.1419 C   0  0  0  0  0  0  0  0  0  0  0  0
    6.8226    3.8373    0.0939 C   0  0  0  0  0  0  0  0  0  0  0  0
    8.0466    3.1833    0.0179 C   0  0  0  0  0  0  0  0  0  0  0  0
    8.0809    1.8260   -0.2852 C   0  0  0  0  0  0  0  0  0  0  0  0
    6.8896    1.1324   -0.5162 C   0  0  0  0  0  0  0  0  0  0  0  0
    3.2498    1.7738   -1.0630 C   0  0  0  0  0  0  0  0  0  0  0  0
    2.1694    0.8080   -1.5954 C   0  0  0  0  0  0  0  0  0  0  0  0
   -0.4165    0.3457    0.1087 C   0  0  0  0  0  0  0  0  0  0  0  0
   -0.2826   -3.1898   -0.8023 C   0  0  0  0  0  0  0  0  0  0  0  0
   -0.6122   -4.5173   -0.5159 C   0  0  0  0  0  0  0  0  0  0  0  0
   -1.9433   -6.7750    0.2058 H   0  0  0  0  0  0  0  0  0  0  0  0
   -3.0383   -6.8165   -1.1766 H   0  0  0  0  0  0  0  0  0  0  0  0
   -1.3244   -7.2262   -1.4043 H   0  0  0  0  0  0  0  0  0  0  0  0
   -3.2643   -4.8723   -2.6178 H   0  0  0  0  0  0  0  0  0  0  0  0
   -2.6972   -2.5369   -3.1093 H   0  0  0  0  0  0  0  0  0  0  0  0
   -1.1294   -0.7447   -3.0167 H   0  0  0  0  0  0  0  0  0  0  0  0
    0.3865   -0.9235   -2.2475 H   0  0  0  0  0  0  0  0  0  0  0  0
   -3.3577   -0.2808    0.8114 H   0  0  0  0  0  0  0  0  0  0  0  0
   -4.4819    2.1802   -0.6535 H   0  0  0  0  0  0  0  0  0  0  0  0
   -5.2126    0.5927   -0.6919 H   0  0  0  0  0  0  0  0  0  0  0  0
   -5.9731   -0.5037    1.5280 H   0  0  0  0  0  0  0  0  0  0  0  0
   -7.2035   -0.0161    3.6129 H   0  0  0  0  0  0  0  0  0  0  0  0
   -7.3305    2.3071    4.4759 H   0  0  0  0  0  0  0  0  0  0  0  0
   -6.2154    4.1490    3.2471 H   0  0  0  0  0  0  0  0  0  0  0  0
   -4.9711    3.6812    1.1665 H   0  0  0  0  0  0  0  0  0  0  0  0
   -2.7186    1.8727    1.8277 H   0  0  0  0  0  0  0  0  0  0  0  0
    1.1877    1.2568    3.4262 H   0  0  0  0  0  0  0  0  0  0  0  0
    3.4471   -1.5802   -0.9946 H   0  0  0  0  0  0  0  0  0  0  0  0
    2.8340   -1.6916    0.6416 H   0  0  0  0  0  0  0  0  0  0  0  0
    3.9762    0.4380    1.2585 H   0  0  0  0  0  0  0  0  0  0  0  0
    5.1044   -0.6523    0.4583 H   0  0  0  0  0  0  0  0  0  0  0  0
    4.7032    3.6907   -0.0613 H   0  0  0  0  0  0  0  0  0  0  0  0
    6.7878    4.8987    0.3287 H   0  0  0  0  0  0  0  0  0  0  0  0
    8.9691    3.7290    0.1912 H   0  0  0  0  0  0  0  0  0  0  0  0
    9.0312    1.3067   -0.3602 H   0  0  0  0  0  0  0  0  0  0  0  0
    6.9445    0.0817   -0.7885 H   0  0  0  0  0  0  0  0  0  0  0  0
    2.8653    2.3145   -0.1891 H   0  0  0  0  0  0  0  0  0  0  0  0
    3.4647    2.5031   -1.8544 H   0  0  0  0  0  0  0  0  0  0  0  0
    2.5407    0.3416   -2.5175 H   0  0  0  0  0  0  0  0  0  0  0  0
    1.2744    1.3770   -1.8765 H   0  0  0  0  0  0  0  0  0  0  0  0
    0.5611   -2.7351   -0.2900 H   0  0  0  0  0  0  0  0  0  0  0  0
   -0.0184   -5.0663    0.2116 H   0  0  0  0  0  0  0  0  0  0  0  0
  1  2  1  0
  2  3  2  0
  3  4  1  0
  4  5  2  0
  5  6  1  0
  6  7  1  0
  7  8  1  0
  8  9  2  0
  8 10  1  0
 10 11  1  0
 11 12  1  0
 12 13  2  0
 13 14  1  0
 14 15  2  0
 15 16  1  0
 16 17  2  0
 10 18  1  0
 18 19  1  0
 19 20  2  0
 20 21  1  0
 21 22  2  0
 22 23  1  0
 23 24  1  0
 24 25  1  0
 25 26  1  0
 26 27  1  0
 27 28  1  0
 28 29  2  0
 29 30  1  0
 30 31  2  0
 31 32  1  0
 32 33  2  0
 27 34  1  0
 34 35  1  0
 23 36  2  0
  5 37  1  0
 37 38  2  0
 38  2  1  0
 36  7  1  0
 17 12  1  0
 36 19  1  0
 35 24  1  0
 33 28  1  0
  1 39  1  0
  1 40  1  0
  1 41  1  0
  3 42  1  0
  4 43  1  0
  6 44  1  0
  6 45  1  0
 10 46  1  0
 11 47  1  0
 11 48  1  0
 13 49  1  0
 14 50  1  0
 15 51  1  0
 16 52  1  0
 17 53  1  0
 18 54  1  0
 21 55  1  0
 25 56  1  0
 25 57  1  0
 26 58  1  0
 26 59  1  0
 29 60  1  0
 30 61  1  0
 31 62  1  0
 32 63  1  0
 33 64  1  0
 34 65  1  0
 34 66  1  0
 35 67  1  0
 35 68  1  0
 37 69  1  0
 38 70  1  0
M  END
$$$$
