
     RDKit          3D

 40 41  0  0  0  0  0  0  0  0999 V2000
    0.7519   -3.6649    0.0734 C   0  0  0  0  0  0  0  0  0  0  0  0
    1.1742   -2.3159    0.2740 O   0  0  0  0  0  0  0  0  0  0  0  0
    0.9672   -1.5174   -0.8007 C   0  0  0  0  0  0  0  0  0  0  0  0
    0.4946   -1.8444   -1.8772 O   0  0  0  0  0  0  0  0  0  0  0  0
    1.3851   -0.1350   -0.4930 C   0  0  0  0  0  0  0  0  0  0  0  0
    2.6737    0.1573   -0.2295 C   0  0  0  0  0  0  0  0  0  0  0  0
    3.8094   -0.8195   -0.1249 C   0  0  0  0  0  0  0  0  0  0  0  0
    3.1225    1.5046   -0.1683 O   0  0  0  0  0  0  0  0  0  0  0  0
    2.2385    2.5219   -0.2785 C   0  0  0  0  0  0  0  0  0  0  0  0
    2.6776    3.6898   -0.6083 N   0  0  0  0  0  0  0  0  0  0  0  0
    0.7973    2.2588    0.0345 C   0  0  0  0  0  0  0  0  0  0  0  0
    0.6617    2.2543    1.4981 C   0  0  0  0  0  0  0  0  0  0  0  0
    0.5735    2.2548    2.6562 N   0  0  0  0  0  0  0  0  0  0  0  0
    0.3618    0.9583   -0.6593 C   0  0  0  0  0  0  0  0  0  0  0  0
   -1.0673    0.5792   -0.3282 C   0  0  0  0  0  0  0  0  0  0  0  0
   -2.2025    0.8496   -1.1536 C   0  0  0  0  0  0  0  0  0  0  0  0
   -2.2414    1.5107   -2.4837 C   0  0  0  0  0  0  0  0  0  0  0  0
   -3.3385    0.4323   -0.5940 N   0  0  0  0  0  0  0  0  0  0  0  0
   -2.9581   -0.1209    0.5644 N   0  0  0  0  0  0  0  0  0  0  0  0
   -3.9629   -0.6874    1.4353 C   0  0  0  0  0  0  0  0  0  0  0  0
   -1.6028   -0.0678    0.7812 C   0  0  0  0  0  0  0  0  0  0  0  0
   -0.9969   -0.6358    2.0169 C   0  0  0  0  0  0  0  0  0  0  0  0
    0.9472   -4.2211    0.9943 H   0  0  0  0  0  0  0  0  0  0  0  0
   -0.3223   -3.7039   -0.1332 H   0  0  0  0  0  0  0  0  0  0  0  0
    1.3212   -4.1278   -0.7387 H   0  0  0  0  0  0  0  0  0  0  0  0
    3.5689   -1.8096   -0.5201 H   0  0  0  0  0  0  0  0  0  0  0  0
    4.6720   -0.4544   -0.6930 H   0  0  0  0  0  0  0  0  0  0  0  0
    4.1116   -0.9274    0.9214 H   0  0  0  0  0  0  0  0  0  0  0  0
    3.6947    3.6145   -0.7414 H   0  0  0  0  0  0  0  0  0  0  0  0
    0.2007    3.0898   -0.3650 H   0  0  0  0  0  0  0  0  0  0  0  0
    0.3804    1.1695   -1.7408 H   0  0  0  0  0  0  0  0  0  0  0  0
   -3.2689    1.6508   -2.8356 H   0  0  0  0  0  0  0  0  0  0  0  0
   -1.7101    0.9045   -3.2242 H   0  0  0  0  0  0  0  0  0  0  0  0
   -1.7659    2.4955   -2.4347 H   0  0  0  0  0  0  0  0  0  0  0  0
   -3.9273   -0.1611    2.3921 H   0  0  0  0  0  0  0  0  0  0  0  0
   -3.7455   -1.7500    1.5674 H   0  0  0  0  0  0  0  0  0  0  0  0
   -4.9508   -0.5656    0.9831 H   0  0  0  0  0  0  0  0  0  0  0  0
   -1.3951   -0.1355    2.9056 H   0  0  0  0  0  0  0  0  0  0  0  0
    0.0892   -0.5259    2.0333 H   0  0  0  0  0  0  0  0  0  0  0  0
   -1.2187   -1.7052    2.0948 H   0  0  0  0  0  0  0  0  0  0  0  0
  1  2  1  0
  2  3  1  0
  3  4  2  0
  3  5  1  0
  5  6  2  0
  6  7  1  0
  6  8  1  0
  8  9  1  0
  9 10  2  3
  9 11  1  0
 11 12  1  0
 12 13  3  0
 11 14  1  0
 14 15  1  0
 15 16  1  0
 16 17  1  0
 16 18  2  0
 18 19  1  0
 19 20  1  0
 19 21  1  0
 21 22  1  0
 14  5  1  0
 21 15  2  0
  1 23  1  0
  1 24  1  0
  1 25  1  0
  7 26  1  0
  7 27  1  0
  7 28  1  0
 10 29  1  0
 11 30  1  0
 14 31  1  0
 17 32  1  0
 17 33  1  0
 17 34  1  0
 20 35  1  0
 20 36  1  0
 20 37  1  0
 22 38  1  0
 22 39  1  0
 22 40  1  0
M  END
$$$$
