
     RDKit          3D

 45 49  0  0  0  0  0  0  0  0999 V2000
    0.6202   -0.8251    1.3276 O   0  0  0  0  0  0  0  0  0  0  0  0
    0.4220    0.3744    1.5025 C   0  0  0  0  0  0  0  0  0  0  0  0
   -0.9269    0.9753    1.7849 C   0  0  0  0  0  0  0  0  0  0  0  0
   -1.9576    0.4660    0.8936 N   0  0  0  0  0  0  0  0  0  0  0  0
   -2.4422   -0.8408    0.8787 C   0  0  0  0  0  0  0  0  0  0  0  0
   -1.9006   -1.8409    1.5628 O   0  0  0  0  0  0  0  0  0  0  0  0
   -3.5234   -0.8245    0.0511 C   0  0  0  0  0  0  0  0  0  0  0  0
   -3.6601    0.4653   -0.5017 C   0  0  0  0  0  0  0  0  0  0  0  0
   -2.6810    1.2621    0.0108 C   0  0  0  0  0  0  0  0  0  0  0  0
   -2.3784    2.5368   -0.1898 O   0  0  0  0  0  0  0  0  0  0  0  0
   -4.8260    0.4189   -1.4381 C   0  0  0  0  0  0  0  0  0  0  0  0
   -4.4260   -0.4591   -2.6531 C   0  0  0  0  0  0  0  0  0  0  0  0
   -4.2714   -1.8900   -2.0394 C   0  0  0  0  0  0  0  0  0  0  0  0
   -4.5978   -1.6810   -0.5374 C   0  0  0  0  0  0  0  0  0  0  0  0
   -5.7292   -0.6089   -0.6786 C   0  0  0  0  0  0  0  0  0  0  0  0
    1.3884    1.3737    1.5462 O   0  0  0  0  0  0  0  0  0  0  0  0
    2.6791    0.9051    1.2968 C   0  0  0  0  0  0  0  0  0  0  0  0
    3.4425    0.4002    2.3453 C   0  0  0  0  0  0  0  0  0  0  0  0
    4.7489   -0.0186    2.0933 C   0  0  0  0  0  0  0  0  0  0  0  0
    5.2980    0.0807    0.8026 C   0  0  0  0  0  0  0  0  0  0  0  0
    6.6123   -0.3342    0.5365 C   0  0  0  0  0  0  0  0  0  0  0  0
    7.1484   -0.2252   -0.7471 C   0  0  0  0  0  0  0  0  0  0  0  0
    6.3774    0.2971   -1.7827 C   0  0  0  0  0  0  0  0  0  0  0  0
    5.0681    0.7136   -1.5373 C   0  0  0  0  0  0  0  0  0  0  0  0
    4.5136    0.6126   -0.2513 C   0  0  0  0  0  0  0  0  0  0  0  0
    3.2001    1.0292    0.0107 C   0  0  0  0  0  0  0  0  0  0  0  0
   -1.2206    0.7338    2.8117 H   0  0  0  0  0  0  0  0  0  0  0  0
   -0.8860    2.0649    1.6914 H   0  0  0  0  0  0  0  0  0  0  0  0
   -0.9238   -1.7531    1.5223 H   0  0  0  0  0  0  0  0  0  0  0  0
   -3.0222    2.8744   -0.8397 H   0  0  0  0  0  0  0  0  0  0  0  0
   -5.2902    1.3770   -1.6730 H   0  0  0  0  0  0  0  0  0  0  0  0
   -5.2177   -0.4633   -3.4108 H   0  0  0  0  0  0  0  0  0  0  0  0
   -3.4949   -0.1253   -3.1240 H   0  0  0  0  0  0  0  0  0  0  0  0
   -3.2621   -2.2847   -2.1988 H   0  0  0  0  0  0  0  0  0  0  0  0
   -4.9905   -2.5735   -2.5047 H   0  0  0  0  0  0  0  0  0  0  0  0
   -4.8601   -2.5770    0.0254 H   0  0  0  0  0  0  0  0  0  0  0  0
   -6.0732   -0.2294    0.2918 H   0  0  0  0  0  0  0  0  0  0  0  0
   -6.5860   -0.9545   -1.2674 H   0  0  0  0  0  0  0  0  0  0  0  0
    3.0324    0.3272    3.3479 H   0  0  0  0  0  0  0  0  0  0  0  0
    5.3401   -0.4238    2.9124 H   0  0  0  0  0  0  0  0  0  0  0  0
    7.2311   -0.7471    1.3310 H   0  0  0  0  0  0  0  0  0  0  0  0
    8.1675   -0.5507   -0.9381 H   0  0  0  0  0  0  0  0  0  0  0  0
    6.7935    0.3790   -2.7840 H   0  0  0  0  0  0  0  0  0  0  0  0
    4.4811    1.1155   -2.3604 H   0  0  0  0  0  0  0  0  0  0  0  0
    2.5834    1.4477   -0.7813 H   0  0  0  0  0  0  0  0  0  0  0  0
  1  2  2  0
  2  3  1  0
  3  4  1  0
  4  5  1  0
  5  6  1  0
  5  7  2  0
  7  8  1  0
  8  9  2  0
  9 10  1  0
  8 11  1  0
 11 12  1  0
 12 13  1  0
 13 14  1  0
 14 15  1  0
  2 16  1  0
 16 17  1  0
 17 18  2  0
 18 19  1  0
 19 20  2  0
 20 21  1  0
 21 22  2  0
 22 23  1  0
 23 24  2  0
 24 25  1  0
 25 26  2  0
  9  4  1  0
 15 11  1  0
 26 17  1  0
 14  7  1  0
 25 20  1  0
  3 27  1  0
  3 28  1  0
  6 29  1  0
 10 30  1  0
 11 31  1  0
 12 32  1  0
 12 33  1  0
 13 34  1  0
 13 35  1  0
 14 36  1  0
 15 37  1  0
 15 38  1  0
 18 39  1  0
 19 40  1  0
 21 41  1  0
 22 42  1  0
 23 43  1  0
 24 44  1  0
 26 45  1  0
M  END
$$$$
