
     RDKit          3D

 46 48  0  0  0  0  0  0  0  0999 V2000
   -3.1473    5.0501   -1.6421 C   0  0  0  0  0  0  0  0  0  0  0  0
   -3.1616    3.6268   -1.1171 C   0  0  0  0  0  0  0  0  0  0  0  0
   -1.8980    3.3064   -0.5229 O   0  0  0  0  0  0  0  0  0  0  0  0
   -0.9597    2.8404   -1.3671 C   0  0  0  0  0  0  0  0  0  0  0  0
   -1.0451    2.6395   -2.5656 O   0  0  0  0  0  0  0  0  0  0  0  0
    0.2955    2.5121   -0.6093 C   0  0  0  0  0  0  0  0  0  0  0  0
    0.9123    3.3563    0.1625 N   0  0  0  0  0  0  0  0  0  0  0  0
    2.0441    2.7206    0.5977 N   0  0  0  0  0  0  0  0  0  0  0  0
    2.1696    1.3564    0.0686 C   0  0  0  0  0  0  0  0  0  0  0  0
    2.5038    0.3805    1.2012 C   0  0  0  0  0  0  0  0  0  0  0  0
    2.5356    0.7354    2.3811 O   0  0  0  0  0  0  0  0  0  0  0  0
    2.8115   -1.0408    0.8624 C   0  0  0  0  0  0  0  0  0  0  0  0
    3.2427   -1.4326   -0.4112 C   0  0  0  0  0  0  0  0  0  0  0  0
    3.5003   -2.7803   -0.6771 C   0  0  0  0  0  0  0  0  0  0  0  0
    3.3322   -3.7375    0.3228 C   0  0  0  0  0  0  0  0  0  0  0  0
    2.9115   -3.3518    1.5938 C   0  0  0  0  0  0  0  0  0  0  0  0
    2.6552   -2.0071    1.8650 C   0  0  0  0  0  0  0  0  0  0  0  0
    0.8684    1.1286   -0.7146 C   0  0  0  0  0  0  0  0  0  0  0  0
   -0.0934    0.0777   -0.2030 C   0  0  0  0  0  0  0  0  0  0  0  0
   -0.6732    0.1636    1.0708 C   0  0  0  0  0  0  0  0  0  0  0  0
   -1.5460   -0.8296    1.5204 C   0  0  0  0  0  0  0  0  0  0  0  0
   -1.8616   -1.9225    0.7127 C   0  0  0  0  0  0  0  0  0  0  0  0
   -2.7249   -2.8204    1.2761 O   0  0  0  0  0  0  0  0  0  0  0  0
   -3.0642   -3.9614    0.4986 C   0  0  0  0  0  0  0  0  0  0  0  0
   -1.2968   -2.0117   -0.5582 C   0  0  0  0  0  0  0  0  0  0  0  0
   -0.4215   -1.0186   -1.0130 C   0  0  0  0  0  0  0  0  0  0  0  0
   -2.3973    5.1700   -2.4305 H   0  0  0  0  0  0  0  0  0  0  0  0
   -4.1257    5.3244   -2.0463 H   0  0  0  0  0  0  0  0  0  0  0  0
   -2.8851    5.7519   -0.8436 H   0  0  0  0  0  0  0  0  0  0  0  0
   -3.9193    3.5309   -0.3325 H   0  0  0  0  0  0  0  0  0  0  0  0
   -3.4229    2.9124   -1.9066 H   0  0  0  0  0  0  0  0  0  0  0  0
    2.3045    2.9039    1.5718 H   0  0  0  0  0  0  0  0  0  0  0  0
    3.0308    1.4119   -0.6070 H   0  0  0  0  0  0  0  0  0  0  0  0
    3.4000   -0.7166   -1.2111 H   0  0  0  0  0  0  0  0  0  0  0  0
    3.8380   -3.0859   -1.6648 H   0  0  0  0  0  0  0  0  0  0  0  0
    3.5339   -4.7853    0.1134 H   0  0  0  0  0  0  0  0  0  0  0  0
    2.7816   -4.0961    2.3757 H   0  0  0  0  0  0  0  0  0  0  0  0
    2.3221   -1.7173    2.8602 H   0  0  0  0  0  0  0  0  0  0  0  0
    1.1064    0.9436   -1.7696 H   0  0  0  0  0  0  0  0  0  0  0  0
   -0.4475    0.9971    1.7365 H   0  0  0  0  0  0  0  0  0  0  0  0
   -1.9816   -0.7507    2.5140 H   0  0  0  0  0  0  0  0  0  0  0  0
   -3.7485   -4.5775    1.0899 H   0  0  0  0  0  0  0  0  0  0  0  0
   -2.1786   -4.5663    0.2773 H   0  0  0  0  0  0  0  0  0  0  0  0
   -3.5858   -3.6722   -0.4197 H   0  0  0  0  0  0  0  0  0  0  0  0
   -1.5154   -2.8409   -1.2228 H   0  0  0  0  0  0  0  0  0  0  0  0
    0.0012   -1.1173   -2.0114 H   0  0  0  0  0  0  0  0  0  0  0  0
  1  2  1  0
  2  3  1  0
  3  4  1  0
  4  5  2  0
  4  6  1  0
  6  7  2  0
  7  8  1  0
  8  9  1  0
  9 10  1  0
 10 11  2  0
 10 12  1  0
 12 13  2  0
 13 14  1  0
 14 15  2  0
 15 16  1  0
 16 17  2  0
  9 18  1  0
 18 19  1  0
 19 20  2  0
 20 21  1  0
 21 22  2  0
 22 23  1  0
 23 24  1  0
 22 25  1  0
 25 26  2  0
 18  6  1  0
 26 19  1  0
 17 12  1  0
  1 27  1  0
  1 28  1  0
  1 29  1  0
  2 30  1  0
  2 31  1  0
  8 32  1  0
  9 33  1  0
 13 34  1  0
 14 35  1  0
 15 36  1  0
 16 37  1  0
 17 38  1  0
 18 39  1  0
 20 40  1  0
 21 41  1  0
 24 42  1  0
 24 43  1  0
 24 44  1  0
 25 45  1  0
 26 46  1  0
M  END
$$$$
