
     RDKit          3D

 53 55  0  0  0  0  0  0  0  0999 V2000
    8.8307   -1.9582    0.4911 C   0  0  0  0  0  0  0  0  0  0  0  0
    8.1830   -1.9263   -0.7741 O   0  0  0  0  0  0  0  0  0  0  0  0
    6.8160   -1.8731   -0.7697 C   0  0  0  0  0  0  0  0  0  0  0  0
    6.2323   -1.8250   -2.0352 C   0  0  0  0  0  0  0  0  0  0  0  0
    4.8444   -1.7686   -2.1771 C   0  0  0  0  0  0  0  0  0  0  0  0
    4.0118   -1.7614   -1.0495 C   0  0  0  0  0  0  0  0  0  0  0  0
    2.6124   -1.7072   -1.1731 C   0  0  0  0  0  0  0  0  0  0  0  0
    1.7754   -1.6969   -0.0452 C   0  0  0  0  0  0  0  0  0  0  0  0
    0.2595   -1.6575   -0.1744 C   0  0  0  0  0  0  0  0  0  0  0  0
   -0.2769   -2.8599   -0.9565 C   0  0  0  0  0  0  0  0  0  0  0  0
   -0.2834   -0.3558   -0.7921 C   0  0  0  0  0  0  0  0  0  0  0  0
    0.3749    0.3374   -1.5609 O   0  0  0  0  0  0  0  0  0  0  0  0
   -1.5953   -0.1017   -0.4041 N   0  0  0  0  0  0  0  0  0  0  0  0
   -2.4171    0.9755   -0.7972 C   0  0  0  0  0  0  0  0  0  0  0  0
   -2.0257    1.9794   -1.6875 C   0  0  0  0  0  0  0  0  0  0  0  0
   -2.9059    3.0109   -2.0389 C   0  0  0  0  0  0  0  0  0  0  0  0
   -4.1881    3.0550   -1.4991 C   0  0  0  0  0  0  0  0  0  0  0  0
   -4.5755    2.0626   -0.5999 C   0  0  0  0  0  0  0  0  0  0  0  0
   -6.2009    2.0812    0.1089 S   0  0  0  0  0  6  0  0  0  0  0  0
   -6.9324    3.2065   -0.4335 O   0  0  0  0  0  0  0  0  0  0  0  0
   -6.7186    0.7324    0.0164 O   0  0  0  0  0  0  0  0  0  0  0  0
   -5.8865    2.4195    1.7601 N   0  0  0  0  0  0  0  0  0  0  0  0
   -5.3067    3.7573    2.0226 C   0  0  0  0  0  0  0  0  0  0  0  0
   -7.0604    2.1634    2.6274 C   0  0  0  0  0  0  0  0  0  0  0  0
   -3.7048    1.0221   -0.2535 C   0  0  0  0  0  0  0  0  0  0  0  0
    2.3682   -1.7373    1.2235 C   0  0  0  0  0  0  0  0  0  0  0  0
    3.7582   -1.7932    1.3611 C   0  0  0  0  0  0  0  0  0  0  0  0
    4.5946   -1.8076    0.2349 C   0  0  0  0  0  0  0  0  0  0  0  0
    5.9962   -1.8639    0.3606 C   0  0  0  0  0  0  0  0  0  0  0  0
    9.9099   -1.9917    0.3134 H   0  0  0  0  0  0  0  0  0  0  0  0
    8.6164   -1.0522    1.0676 H   0  0  0  0  0  0  0  0  0  0  0  0
    8.5578   -2.8584    1.0515 H   0  0  0  0  0  0  0  0  0  0  0  0
    6.8632   -1.8292   -2.9206 H   0  0  0  0  0  0  0  0  0  0  0  0
    4.4190   -1.7276   -3.1772 H   0  0  0  0  0  0  0  0  0  0  0  0
    2.1696   -1.6544   -2.1670 H   0  0  0  0  0  0  0  0  0  0  0  0
   -0.1551   -1.7237    0.8415 H   0  0  0  0  0  0  0  0  0  0  0  0
    0.0221   -2.8242   -2.0100 H   0  0  0  0  0  0  0  0  0  0  0  0
    0.0895   -3.8014   -0.5327 H   0  0  0  0  0  0  0  0  0  0  0  0
   -1.3719   -2.8855   -0.9345 H   0  0  0  0  0  0  0  0  0  0  0  0
   -2.0181   -0.7646    0.2339 H   0  0  0  0  0  0  0  0  0  0  0  0
   -1.0377    1.9888   -2.1384 H   0  0  0  0  0  0  0  0  0  0  0  0
   -2.5825    3.7762   -2.7413 H   0  0  0  0  0  0  0  0  0  0  0  0
   -4.8684    3.8547   -1.7824 H   0  0  0  0  0  0  0  0  0  0  0  0
   -6.0134    4.5523    1.7669 H   0  0  0  0  0  0  0  0  0  0  0  0
   -4.3770    3.8987    1.4661 H   0  0  0  0  0  0  0  0  0  0  0  0
   -5.0555    3.8474    3.0847 H   0  0  0  0  0  0  0  0  0  0  0  0
   -6.7928    2.3301    3.6760 H   0  0  0  0  0  0  0  0  0  0  0  0
   -7.8914    2.8272    2.3702 H   0  0  0  0  0  0  0  0  0  0  0  0
   -7.3809    1.1211    2.5417 H   0  0  0  0  0  0  0  0  0  0  0  0
   -4.0471    0.2578    0.4407 H   0  0  0  0  0  0  0  0  0  0  0  0
    1.7565   -1.7282    2.1228 H   0  0  0  0  0  0  0  0  0  0  0  0
    4.1844   -1.8242    2.3615 H   0  0  0  0  0  0  0  0  0  0  0  0
    6.4242   -1.8988    1.3569 H   0  0  0  0  0  0  0  0  0  0  0  0
  1  2  1  0
  2  3  1  0
  3  4  2  0
  4  5  1  0
  5  6  2  0
  6  7  1  0
  7  8  2  0
  8  9  1  0
  9 10  1  0
  9 11  1  0
 11 12  2  0
 11 13  1  0
 13 14  1  0
 14 15  2  0
 15 16  1  0
 16 17  2  0
 17 18  1  0
 18 19  1  0
 19 20  2  0
 19 21  2  0
 19 22  1  0
 22 23  1  0
 22 24  1  0
 18 25  2  0
  8 26  1  0
 26 27  2  0
 27 28  1  0
 28 29  2  0
 29  3  1  0
 28  6  1  0
 25 14  1  0
  1 30  1  0
  1 31  1  0
  1 32  1  0
  4 33  1  0
  5 34  1  0
  7 35  1  0
  9 36  1  0
 10 37  1  0
 10 38  1  0
 10 39  1  0
 13 40  1  0
 15 41  1  0
 16 42  1  0
 17 43  1  0
 23 44  1  0
 23 45  1  0
 23 46  1  0
 24 47  1  0
 24 48  1  0
 24 49  1  0
 25 50  1  0
 26 51  1  0
 27 52  1  0
 29 53  1  0
M  END
$$$$
